
     RDKit          3D

 51 54  0  0  0  0  0  0  0  0999 V2000
  141.3930   72.2600  221.8410 O   0  0  0  0  0  0  0  0  0  0  0  0
  140.3270   72.3320  222.5380 C   0  0  0  0  0  0  0  0  0  0  0  0
  139.2590   73.2120  222.1920 N   0  0  0  0  0  0  0  0  0  0  0  0
  139.4220   74.0460  220.9950 C   0  0  0  0  0  0  0  0  0  0  0  0
  140.2330   75.2320  221.2680 C   0  0  0  0  0  0  0  0  0  0  0  0
  141.4890   75.1220  221.1720 O   0  0  0  0  0  0  0  0  0  0  0  0
  139.7370   76.5070  221.6350 N   0  0  0  0  0  0  0  0  0  0  0  0
  138.3110   76.6340  221.8280 C   0  0  0  0  0  0  0  0  0  0  0  0
  137.8750   77.7510  222.7010 C   0  0  0  0  0  0  0  0  0  0  0  0
  138.6560   79.0220  222.5910 C   0  0  0  0  0  0  0  0  0  0  0  0
  139.6810   78.8790  221.5000 C   0  0  0  0  0  0  0  0  0  0  0  0
  140.5510   77.6820  221.8190 C   0  0  1  0  0  0  0  0  0  0  0  0
  141.1940   77.7990  223.1680 C   0  0  0  0  0  0  0  0  0  0  0  0
  141.7320   79.1490  223.2880 N   0  0  0  0  0  0  0  0  0  0  0  0
  142.9490   79.5190  222.7860 C   0  0  0  0  0  0  0  0  0  0  0  0
  143.1800   80.8490  223.0560 C   0  0  0  0  0  0  0  0  0  0  0  0
  142.0680   81.2860  223.7390 C   0  0  0  0  0  0  0  0  0  0  0  0
  141.2520   80.2240  223.8390 N   0  0  0  0  0  0  0  0  0  0  0  0
  140.1920   71.4900  223.7260 C   0  0  0  0  0  0  0  0  0  0  0  0
  139.5280   70.2830  223.6480 C   0  0  0  0  0  0  0  0  0  0  0  0
  139.3580   69.4350  224.7130 C   0  0  0  0  0  0  0  0  0  0  0  0
  139.8890   69.8290  225.9240 C   0  0  0  0  0  0  0  0  0  0  0  0
  139.7210   68.9830  226.9920 C   0  0  0  0  0  0  0  0  0  0  0  0
  140.2420   69.3480  228.2250 C   0  0  0  0  0  0  0  0  0  0  0  0
  140.0830   68.5210  229.2900 F   0  0  0  0  0  0  0  0  0  0  0  0
  140.9090   70.5560  228.3050 C   0  0  0  0  0  0  0  0  0  0  0  0
  141.0710   71.3990  227.2230 C   0  0  0  0  0  0  0  0  0  0  0  0
  140.5520   71.0360  225.9940 C   0  0  0  0  0  0  0  0  0  0  0  0
  140.7050   71.8540  224.9290 N   0  0  0  0  0  0  0  0  0  0  0  0
  138.3870   73.2630  222.7720 H   0  0  0  0  0  0  0  0  0  0  0  0
  139.9129   73.4514  220.2105 H   0  0  0  0  0  0  0  0  0  0  0  0
  138.4250   74.3796  220.6713 H   0  0  0  0  0  0  0  0  0  0  0  0
  137.8481   76.7770  220.8404 H   0  0  0  0  0  0  0  0  0  0  0  0
  137.9956   75.7133  222.3407 H   0  0  0  0  0  0  0  0  0  0  0  0
  136.8273   77.9791  222.4553 H   0  0  0  0  0  0  0  0  0  0  0  0
  138.0335   77.3976  223.7306 H   0  0  0  0  0  0  0  0  0  0  0  0
  137.9758   79.8523  222.3503 H   0  0  0  0  0  0  0  0  0  0  0  0
  139.1596   79.2305  223.5465 H   0  0  0  0  0  0  0  0  0  0  0  0
  139.1773   78.7259  220.5342 H   0  0  0  0  0  0  0  0  0  0  0  0
  140.2963   79.7886  221.4366 H   0  0  0  0  0  0  0  0  0  0  0  0
  141.4125   77.6171  221.1382 H   0  0  0  0  0  0  0  0  0  0  0  0
  140.4467   77.6223  223.9556 H   0  0  0  0  0  0  0  0  0  0  0  0
  141.9957   77.0539  223.2782 H   0  0  0  0  0  0  0  0  0  0  0  0
  143.6398   78.8537  222.2473 H   0  0  0  0  0  0  0  0  0  0  0  0
  144.0674   81.4389  222.7830 H   0  0  0  0  0  0  0  0  0  0  0  0
  141.8847   82.2997  224.1248 H   0  0  0  0  0  0  0  0  0  0  0  0
  139.1107   69.9832  222.6754 H   0  0  0  0  0  0  0  0  0  0  0  0
  138.8209   68.4810  224.6059 H   0  0  0  0  0  0  0  0  0  0  0  0
  139.1822   68.0315  226.8722 H   0  0  0  0  0  0  0  0  0  0  0  0
  141.3300   70.8599  229.2747 H   0  0  0  0  0  0  0  0  0  0  0  0
  141.6087   72.3517  227.3382 H   0  0  0  0  0  0  0  0  0  0  0  0
  1  2  2  0
  2  3  1  0
  3  4  1  0
  4  5  1  0
  5  6  2  0
  5  7  1  0
  7  8  1  0
  8  9  1  0
  9 10  1  0
 10 11  1  0
 11 12  1  0
 12 13  1  0
 13 14  1  0
 14 15  1  0
 15 16  2  0
 16 17  1  0
 17 18  2  0
  2 19  1  0
 19 20  2  0
 20 21  1  0
 21 22  2  0
 22 23  1  0
 23 24  2  0
 24 25  1  0
 24 26  1  0
 26 27  2  0
 27 28  1  0
 28 29  2  0
 12  7  1  0
 18 14  1  0
 29 19  1  0
 28 22  1  0
  3 30  1  0
  4 31  1  0
  4 32  1  0
  8 33  1  0
  8 34  1  0
  9 35  1  0
  9 36  1  0
 10 37  1  0
 10 38  1  0
 11 39  1  0
 11 40  1  0
 12 41  1  6
 13 42  1  0
 13 43  1  0
 15 44  1  0
 16 45  1  0
 17 46  1  0
 20 47  1  0
 21 48  1  0
 23 49  1  0
 26 50  1  0
 27 51  1  0
M  END
>  <smiles>  (1) 
O=C(NCC(=O)N1CCCC[C@H]1Cn1cccn1)c1ccc2cc(F)ccc2n1

>  <score_type>  (1) 
oracle

>  <origin>  (1) 
autodockgpu

>  <m_score__min__energy>  (1) 
-8.3000000000000007

>  <m_primary>  (1) 
energy

>  <rmsd>  (1) 
2.7540794908462876

>  <m_score__min__rmsd>  (1) 
2.7540794908462876

>  <meeko>  (1) 
{"free_energy": -8.23, "intermolecular_energy": -10.02, "internal_energy": -1.31, "cluster_size": 21, "cluster_id": 1, "rank_in_cluster": 4}

>  <energy>  (1) 
-8.3

>  <cluster_rmsd>  (1) 
0.0

>  <cluster>  (1) 
1

$$$$

     RDKit          3D

 51 54  0  0  0  0  0  0  0  0999 V2000
  140.8680   71.5590  221.2320 O   0  0  0  0  0  0  0  0  0  0  0  0
  140.3760   72.1430  222.2540 C   0  0  0  0  0  0  0  0  0  0  0  0
  140.0020   73.5190  222.2280 N   0  0  0  0  0  0  0  0  0  0  0  0
  140.2010   74.2570  220.9740 C   0  0  0  0  0  0  0  0  0  0  0  0
  140.7380   75.5960  221.2150 C   0  0  0  0  0  0  0  0  0  0  0  0
  140.6980   76.0440  222.3970 O   0  0  0  0  0  0  0  0  0  0  0  0
  141.3060   76.4470  220.2360 N   0  0  0  0  0  0  0  0  0  0  0  0
  140.8780   77.8270  220.2260 C   0  0  0  0  0  0  0  0  0  0  0  0
  141.8210   78.7910  219.6090 C   0  0  0  0  0  0  0  0  0  0  0  0
  142.5690   78.3110  218.4070 C   0  0  0  0  0  0  0  0  0  0  0  0
  142.0880   76.9330  218.0440 C   0  0  0  0  0  0  0  0  0  0  0  0
  142.2700   76.0330  219.2470 C   0  0  1  0  0  0  0  0  0  0  0  0
  143.6920   76.0130  219.7220 C   0  0  0  0  0  0  0  0  0  0  0  0
  143.9860   74.6630  220.1870 N   0  0  0  0  0  0  0  0  0  0  0  0
  145.1920   74.2980  220.7160 C   0  0  0  0  0  0  0  0  0  0  0  0
  145.1670   72.9650  221.0610 C   0  0  0  0  0  0  0  0  0  0  0  0
  143.9070   72.5220  220.7280 C   0  0  0  0  0  0  0  0  0  0  0  0
  143.2630   73.5830  220.2150 N   0  0  0  0  0  0  0  0  0  0  0  0
  140.1890   71.3830  223.4890 C   0  0  0  0  0  0  0  0  0  0  0  0
  139.5400   70.1650  223.4620 C   0  0  0  0  0  0  0  0  0  0  0  0
  139.3230   69.3910  224.5730 C   0  0  0  0  0  0  0  0  0  0  0  0
  139.7890   69.8740  225.7800 C   0  0  0  0  0  0  0  0  0  0  0  0
  139.5740   69.1010  226.8940 C   0  0  0  0  0  0  0  0  0  0  0  0
  140.0280   69.5570  228.1230 C   0  0  0  0  0  0  0  0  0  0  0  0
  139.8230   68.8040  229.2330 F   0  0  0  0  0  0  0  0  0  0  0  0
  140.6790   70.7760  228.1520 C   0  0  0  0  0  0  0  0  0  0  0  0
  140.8890   71.5440  227.0230 C   0  0  0  0  0  0  0  0  0  0  0  0
  140.4360   71.0910  225.7980 C   0  0  0  0  0  0  0  0  0  0  0  0
  140.6370   71.8350  224.6890 N   0  0  0  0  0  0  0  0  0  0  0  0
  139.5980   73.9880  223.0730 H   0  0  0  0  0  0  0  0  0  0  0  0
  140.9055   73.6990  220.3397 H   0  0  0  0  0  0  0  0  0  0  0  0
  139.2244   74.3627  220.4790 H   0  0  0  0  0  0  0  0  0  0  0  0
  139.9290   77.8820  219.6725 H   0  0  0  0  0  0  0  0  0  0  0  0
  140.7977   78.1224  221.2825 H   0  0  0  0  0  0  0  0  0  0  0  0
  141.2448   79.6797  219.3120 H   0  0  0  0  0  0  0  0  0  0  0  0
  142.5879   78.9809  220.3744 H   0  0  0  0  0  0  0  0  0  0  0  0
  142.3916   78.9964  217.5651 H   0  0  0  0  0  0  0  0  0  0  0  0
  143.6459   78.2803  218.6293 H   0  0  0  0  0  0  0  0  0  0  0  0
  141.0244   76.9717  217.7661 H   0  0  0  0  0  0  0  0  0  0  0  0
  142.6621   76.5443  217.1900 H   0  0  0  0  0  0  0  0  0  0  0  0
  142.0766   74.9799  218.9950 H   0  0  0  0  0  0  0  0  0  0  0  0
  144.3668   76.2795  218.8952 H   0  0  0  0  0  0  0  0  0  0  0  0
  143.8365   76.7400  220.5347 H   0  0  0  0  0  0  0  0  0  0  0  0
  146.0540   74.9687  220.8467 H   0  0  0  0  0  0  0  0  0  0  0  0
  145.9824   72.3778  221.5085 H   0  0  0  0  0  0  0  0  0  0  0  0
  143.5083   71.5048  220.8561 H   0  0  0  0  0  0  0  0  0  0  0  0
  139.1756   69.7936  222.4928 H   0  0  0  0  0  0  0  0  0  0  0  0
  138.7997   68.4258  224.5056 H   0  0  0  0  0  0  0  0  0  0  0  0
  139.0508   68.1367  226.8135 H   0  0  0  0  0  0  0  0  0  0  0  0
  141.0467   71.1518  229.1182 H   0  0  0  0  0  0  0  0  0  0  0  0
  141.4126   72.5085  227.0982 H   0  0  0  0  0  0  0  0  0  0  0  0
  1  2  2  0
  2  3  1  0
  3  4  1  0
  4  5  1  0
  5  6  2  0
  5  7  1  0
  7  8  1  0
  8  9  1  0
  9 10  1  0
 10 11  1  0
 11 12  1  0
 12 13  1  0
 13 14  1  0
 14 15  1  0
 15 16  2  0
 16 17  1  0
 17 18  2  0
  2 19  1  0
 19 20  2  0
 20 21  1  0
 21 22  2  0
 22 23  1  0
 23 24  2  0
 24 25  1  0
 24 26  1  0
 26 27  2  0
 27 28  1  0
 28 29  2  0
 12  7  1  0
 18 14  1  0
 29 19  1  0
 28 22  1  0
  3 30  1  0
  4 31  1  0
  4 32  1  0
  8 33  1  0
  8 34  1  0
  9 35  1  0
  9 36  1  0
 10 37  1  0
 10 38  1  0
 11 39  1  0
 11 40  1  0
 12 41  1  6
 13 42  1  0
 13 43  1  0
 15 44  1  0
 16 45  1  0
 17 46  1  0
 20 47  1  0
 21 48  1  0
 23 49  1  0
 26 50  1  0
 27 51  1  0
M  END
>  <smiles>  (2) 
O=C(NCC(=O)N1CCCC[C@H]1Cn1cccn1)c1ccc2cc(F)ccc2n1

>  <score_type>  (2) 
oracle

>  <origin>  (2) 
autodockgpu

>  <m_score__min__energy>  (2) 
-8.3000000000000007

>  <m_primary>  (2) 
energy

>  <rmsd>  (2) 
3.545148512447112

>  <m_score__min__rmsd>  (2) 
3.545148512447112

>  <meeko>  (2) 
{"free_energy": -7.94, "intermolecular_energy": -9.73, "internal_energy": -1.91, "cluster_size": 17, "cluster_id": 2, "rank_in_cluster": 6}

>  <energy>  (2) 
-8.29

>  <cluster_rmsd>  (2) 
0.48

>  <cluster>  (2) 
1

$$$$

     RDKit          3D

 51 54  0  0  0  0  0  0  0  0999 V2000
  140.2340   71.0830  221.2070 O   0  0  0  0  0  0  0  0  0  0  0  0
  139.9830   71.7110  222.2890 C   0  0  0  0  0  0  0  0  0  0  0  0
  139.7720   73.1220  222.3090 N   0  0  0  0  0  0  0  0  0  0  0  0
  139.8530   73.8430  221.0330 C   0  0  0  0  0  0  0  0  0  0  0  0
  140.4320   75.1750  221.2010 C   0  0  0  0  0  0  0  0  0  0  0  0
  140.3580   75.7110  222.3440 O   0  0  0  0  0  0  0  0  0  0  0  0
  141.0750   75.9310  220.1900 N   0  0  0  0  0  0  0  0  0  0  0  0
  140.8310   75.5490  218.8180 C   0  0  0  0  0  0  0  0  0  0  0  0
  141.0380   76.6120  217.8050 C   0  0  0  0  0  0  0  0  0  0  0  0
  142.1770   77.5490  218.0500 C   0  0  0  0  0  0  0  0  0  0  0  0
  142.9290   77.1040  219.2750 C   0  0  0  0  0  0  0  0  0  0  0  0
  141.9570   77.0440  220.4340 C   0  0  1  0  0  0  0  0  0  0  0  0
  141.2700   78.3580  220.6570 C   0  0  0  0  0  0  0  0  0  0  0  0
  141.6060   78.8120  222.0010 N   0  0  0  0  0  0  0  0  0  0  0  0
  142.3760   79.9130  222.2510 C   0  0  0  0  0  0  0  0  0  0  0  0
  142.5180   80.0850  223.6100 C   0  0  0  0  0  0  0  0  0  0  0  0
  141.8100   79.0560  224.1880 C   0  0  0  0  0  0  0  0  0  0  0  0
  141.2970   78.3420  223.1730 N   0  0  0  0  0  0  0  0  0  0  0  0
  139.9080   70.9670  223.5460 C   0  0  0  0  0  0  0  0  0  0  0  0
  139.3430   69.7090  223.5730 C   0  0  0  0  0  0  0  0  0  0  0  0
  139.2340   68.9460  224.7080 C   0  0  0  0  0  0  0  0  0  0  0  0
  139.7230   69.4850  225.8810 C   0  0  0  0  0  0  0  0  0  0  0  0
  139.6150   68.7240  227.0180 C   0  0  0  0  0  0  0  0  0  0  0  0
  140.0960   69.2360  228.2140 C   0  0  0  0  0  0  0  0  0  0  0  0
  139.9970   68.4940  229.3470 F   0  0  0  0  0  0  0  0  0  0  0  0
  140.6630   70.4960  228.1890 C   0  0  0  0  0  0  0  0  0  0  0  0
  140.7660   71.2520  227.0370 C   0  0  0  0  0  0  0  0  0  0  0  0
  140.2860   70.7430  225.8450 C   0  0  0  0  0  0  0  0  0  0  0  0
  140.3810   71.4750  224.7130 N   0  0  0  0  0  0  0  0  0  0  0  0
  139.5650   73.6270  223.2030 H   0  0  0  0  0  0  0  0  0  0  0  0
  140.4802   73.2667  220.3370 H   0  0  0  0  0  0  0  0  0  0  0  0
  138.8325   73.9596  220.6393 H   0  0  0  0  0  0  0  0  0  0  0  0
  141.5059   74.7152  218.5748 H   0  0  0  0  0  0  0  0  0  0  0  0
  139.7631   75.2905  218.7655 H   0  0  0  0  0  0  0  0  0  0  0  0
  141.2101   76.1218  216.8354 H   0  0  0  0  0  0  0  0  0  0  0  0
  140.1324   77.2351  217.8450 H   0  0  0  0  0  0  0  0  0  0  0  0
  142.8520   77.5427  217.1814 H   0  0  0  0  0  0  0  0  0  0  0  0
  141.7912   78.5677  218.2030 H   0  0  0  0  0  0  0  0  0  0  0  0
  143.3645   76.1086  219.1029 H   0  0  0  0  0  0  0  0  0  0  0  0
  143.7417   77.8108  219.4983 H   0  0  0  0  0  0  0  0  0  0  0  0
  142.4765   76.8699  221.3878 H   0  0  0  0  0  0  0  0  0  0  0  0
  141.6173   79.0928  219.9157 H   0  0  0  0  0  0  0  0  0  0  0  0
  140.1810   78.2463  220.5493 H   0  0  0  0  0  0  0  0  0  0  0  0
  142.8165   80.5644  221.4818 H   0  0  0  0  0  0  0  0  0  0  0  0
  143.0794   80.8783  224.1253 H   0  0  0  0  0  0  0  0  0  0  0  0
  141.6889   78.8585  225.2633 H   0  0  0  0  0  0  0  0  0  0  0  0
  138.9576   69.2936  222.6302 H   0  0  0  0  0  0  0  0  0  0  0  0
  138.7759   67.9462  224.6843 H   0  0  0  0  0  0  0  0  0  0  0  0
  139.1550   67.7255  226.9815 H   0  0  0  0  0  0  0  0  0  0  0  0
  141.0499   70.9163  229.1290 H   0  0  0  0  0  0  0  0  0  0  0  0
  141.2262   72.2506  227.0683 H   0  0  0  0  0  0  0  0  0  0  0  0
  1  2  2  0
  2  3  1  0
  3  4  1  0
  4  5  1  0
  5  6  2  0
  5  7  1  0
  7  8  1  0
  8  9  1  0
  9 10  1  0
 10 11  1  0
 11 12  1  0
 12 13  1  0
 13 14  1  0
 14 15  1  0
 15 16  2  0
 16 17  1  0
 17 18  2  0
  2 19  1  0
 19 20  2  0
 20 21  1  0
 21 22  2  0
 22 23  1  0
 23 24  2  0
 24 25  1  0
 24 26  1  0
 26 27  2  0
 27 28  1  0
 28 29  2  0
 12  7  1  0
 18 14  1  0
 29 19  1  0
 28 22  1  0
  3 30  1  0
  4 31  1  0
  4 32  1  0
  8 33  1  0
  8 34  1  0
  9 35  1  0
  9 36  1  0
 10 37  1  0
 10 38  1  0
 11 39  1  0
 11 40  1  0
 12 41  1  1
 13 42  1  0
 13 43  1  0
 15 44  1  0
 16 45  1  0
 17 46  1  0
 20 47  1  0
 21 48  1  0
 23 49  1  0
 26 50  1  0
 27 51  1  0
M  END
>  <smiles>  (3) 
O=C(NCC(=O)N1CCCC[C@H]1Cn1cccn1)c1ccc2cc(F)ccc2n1

>  <score_type>  (3) 
oracle

>  <origin>  (3) 
autodockgpu

>  <m_score__min__energy>  (3) 
-8.3000000000000007

>  <m_primary>  (3) 
energy

>  <rmsd>  (3) 
1.83252178792431

>  <m_score__min__rmsd>  (3) 
1.83252178792431

>  <meeko>  (3) 
{"free_energy": -8.01, "intermolecular_energy": -9.8, "internal_energy": -1.72, "cluster_size": 21, "cluster_id": 1, "rank_in_cluster": 13}

>  <energy>  (3) 
-8.26

>  <cluster_rmsd>  (3) 
0.09

>  <cluster>  (3) 
1

$$$$

     RDKit          3D

 51 54  0  0  0  0  0  0  0  0999 V2000
  141.7460   74.1260  220.5750 O   0  0  0  0  0  0  0  0  0  0  0  0
  140.8830   74.8570  221.1660 C   0  0  0  0  0  0  0  0  0  0  0  0
  139.6680   74.3190  221.6840 N   0  0  0  0  0  0  0  0  0  0  0  0
  139.4320   72.8790  221.5140 C   0  0  0  0  0  0  0  0  0  0  0  0
  139.8350   72.1220  222.6980 C   0  0  0  0  0  0  0  0  0  0  0  0
  140.7100   72.6330  223.4560 O   0  0  0  0  0  0  0  0  0  0  0  0
  139.3320   70.8550  223.0810 N   0  0  0  0  0  0  0  0  0  0  0  0
  138.9830   69.9330  222.0250 C   0  0  0  0  0  0  0  0  0  0  0  0
  138.9850   68.4960  222.3950 C   0  0  0  0  0  0  0  0  0  0  0  0
  138.4940   68.1640  223.7680 C   0  0  0  0  0  0  0  0  0  0  0  0
  138.0050   69.4200  224.4350 C   0  0  0  0  0  0  0  0  0  0  0  0
  139.1360   70.4260  224.4430 C   0  0  1  0  0  0  0  0  0  0  0  0
  140.3610   69.8860  225.1170 C   0  0  0  0  0  0  0  0  0  0  0  0
  140.6780   70.7660  226.2350 N   0  0  0  0  0  0  0  0  0  0  0  0
  140.2140   70.5630  227.5050 C   0  0  0  0  0  0  0  0  0  0  0  0
  140.6800   71.5570  228.3370 C   0  0  0  0  0  0  0  0  0  0  0  0
  141.4440   72.3780  227.5390 C   0  0  0  0  0  0  0  0  0  0  0  0
  141.3970   71.8470  226.3060 N   0  0  0  0  0  0  0  0  0  0  0  0
  141.1450   76.2870  221.3210 C   0  0  0  0  0  0  0  0  0  0  0  0
  141.5620   77.0370  220.2400 C   0  0  0  0  0  0  0  0  0  0  0  0
  141.8280   78.3810  220.3000 C   0  0  0  0  0  0  0  0  0  0  0  0
  141.6630   79.0030  221.5210 C   0  0  0  0  0  0  0  0  0  0  0  0
  141.9290   80.3480  221.5840 C   0  0  0  0  0  0  0  0  0  0  0  0
  141.7750   81.0050  222.7960 C   0  0  0  0  0  0  0  0  0  0  0  0
  142.0340   82.3360  222.8740 F   0  0  0  0  0  0  0  0  0  0  0  0
  141.3570   80.2570  223.8810 C   0  0  0  0  0  0  0  0  0  0  0  0
  141.0930   78.9030  223.8040 C   0  0  0  0  0  0  0  0  0  0  0  0
  141.2470   78.2480  222.5960 C   0  0  0  0  0  0  0  0  0  0  0  0
  140.9910   76.9240  222.5110 N   0  0  0  0  0  0  0  0  0  0  0  0
  138.9670   74.9280  222.1680 H   0  0  0  0  0  0  0  0  0  0  0  0
  138.3600   72.7124  221.3321 H   0  0  0  0  0  0  0  0  0  0  0  0
  140.0349   72.5307  220.6624 H   0  0  0  0  0  0  0  0  0  0  0  0
  137.9728   70.1895  221.6733 H   0  0  0  0  0  0  0  0  0  0  0  0
  139.7653   70.0454  221.2599 H   0  0  0  0  0  0  0  0  0  0  0  0
  138.3480   67.9634  221.6735 H   0  0  0  0  0  0  0  0  0  0  0  0
  140.0418   68.1911  222.3801 H   0  0  0  0  0  0  0  0  0  0  0  0
  137.6695   67.4392  223.6987 H   0  0  0  0  0  0  0  0  0  0  0  0
  139.3131   67.7269  224.3579 H   0  0  0  0  0  0  0  0  0  0  0  0
  137.1487   69.8277  223.8778 H   0  0  0  0  0  0  0  0  0  0  0  0
  137.6848   69.2020  225.4645 H   0  0  0  0  0  0  0  0  0  0  0  0
  138.8859   71.3084  225.0503 H   0  0  0  0  0  0  0  0  0  0  0  0
  140.1675   68.8677  225.4853 H   0  0  0  0  0  0  0  0  0  0  0  0
  141.2024   69.8445  224.4097 H   0  0  0  0  0  0  0  0  0  0  0  0
  139.5656   69.7305  227.8158 H   0  0  0  0  0  0  0  0  0  0  0  0
  140.4829   71.6708  229.4132 H   0  0  0  0  0  0  0  0  0  0  0  0
  141.9837   73.2852  227.8483 H   0  0  0  0  0  0  0  0  0  0  0  0
  141.6884   76.5268  219.2737 H   0  0  0  0  0  0  0  0  0  0  0  0
  142.1590   78.9399  219.4122 H   0  0  0  0  0  0  0  0  0  0  0  0
  142.2587   80.8956  220.6888 H   0  0  0  0  0  0  0  0  0  0  0  0
  141.2288   80.7628  224.8494 H   0  0  0  0  0  0  0  0  0  0  0  0
  140.7631   78.3507  224.6962 H   0  0  0  0  0  0  0  0  0  0  0  0
  1  2  2  0
  2  3  1  0
  3  4  1  0
  4  5  1  0
  5  6  2  0
  5  7  1  0
  7  8  1  0
  8  9  1  0
  9 10  1  0
 10 11  1  0
 11 12  1  0
 12 13  1  0
 13 14  1  0
 14 15  1  0
 15 16  2  0
 16 17  1  0
 17 18  2  0
  2 19  1  0
 19 20  2  0
 20 21  1  0
 21 22  2  0
 22 23  1  0
 23 24  2  0
 24 25  1  0
 24 26  1  0
 26 27  2  0
 27 28  1  0
 28 29  2  0
 12  7  1  0
 18 14  1  0
 29 19  1  0
 28 22  1  0
  3 30  1  0
  4 31  1  0
  4 32  1  0
  8 33  1  0
  8 34  1  0
  9 35  1  0
  9 36  1  0
 10 37  1  0
 10 38  1  0
 11 39  1  0
 11 40  1  0
 12 41  1  1
 13 42  1  0
 13 43  1  0
 15 44  1  0
 16 45  1  0
 17 46  1  0
 20 47  1  0
 21 48  1  0
 23 49  1  0
 26 50  1  0
 27 51  1  0
M  END
>  <smiles>  (4) 
O=C(NCC(=O)N1CCCC[C@H]1Cn1cccn1)c1ccc2cc(F)ccc2n1

>  <score_type>  (4) 
oracle

>  <origin>  (4) 
autodockgpu

>  <m_score__min__energy>  (4) 
-8.3000000000000007

>  <m_primary>  (4) 
energy

>  <rmsd>  (4) 
8.932169522180661

>  <m_score__min__rmsd>  (4) 
8.932169522180661

>  <meeko>  (4) 
{"free_energy": -7.72, "intermolecular_energy": -9.51, "internal_energy": -1.4, "cluster_size": 5, "cluster_id": 3, "rank_in_cluster": 1}

>  <energy>  (4) 
-8.23

>  <cluster_rmsd>  (4) 
1.52

>  <cluster>  (4) 
1

$$$$

     RDKit          3D

 51 54  0  0  0  0  0  0  0  0999 V2000
  137.2290   75.7130  222.0210 O   0  0  0  0  0  0  0  0  0  0  0  0
  138.4690   75.8000  222.3080 C   0  0  0  0  0  0  0  0  0  0  0  0
  139.3190   74.6550  222.3320 N   0  0  0  0  0  0  0  0  0  0  0  0
  138.7190   73.3520  222.0150 C   0  0  0  0  0  0  0  0  0  0  0  0
  139.5770   72.2450  222.4360 C   0  0  0  0  0  0  0  0  0  0  0  0
  140.8270   72.4360  222.4410 O   0  0  0  0  0  0  0  0  0  0  0  0
  139.1320   70.9640  222.8440 N   0  0  0  0  0  0  0  0  0  0  0  0
  138.7450   70.0340  221.8070 C   0  0  0  0  0  0  0  0  0  0  0  0
  138.8090   68.5980  222.1720 C   0  0  0  0  0  0  0  0  0  0  0  0
  138.4110   68.2500  223.5710 C   0  0  0  0  0  0  0  0  0  0  0  0
  137.9290   69.4910  224.2710 C   0  0  0  0  0  0  0  0  0  0  0  0
  139.0310   70.5280  224.2140 C   0  0  1  0  0  0  0  0  0  0  0  0
  140.3090   70.0200  224.8110 C   0  0  0  0  0  0  0  0  0  0  0  0
  140.5610   70.7760  226.0320 N   0  0  0  0  0  0  0  0  0  0  0  0
  140.0860   70.4010  227.2570 C   0  0  0  0  0  0  0  0  0  0  0  0
  140.4850   71.3110  228.2110 C   0  0  0  0  0  0  0  0  0  0  0  0
  141.2200   72.2570  227.5330 C   0  0  0  0  0  0  0  0  0  0  0  0
  141.2210   71.8750  226.2460 N   0  0  0  0  0  0  0  0  0  0  0  0
  139.0400   77.1100  222.6190 C   0  0  0  0  0  0  0  0  0  0  0  0
  138.2130   78.1970  222.8150 C   0  0  0  0  0  0  0  0  0  0  0  0
  138.6670   79.4580  223.1100 C   0  0  0  0  0  0  0  0  0  0  0  0
  140.0330   79.6290  223.2140 C   0  0  0  0  0  0  0  0  0  0  0  0
  140.4900   80.8890  223.5090 C   0  0  0  0  0  0  0  0  0  0  0  0
  141.8570   81.0970  223.6210 C   0  0  0  0  0  0  0  0  0  0  0  0
  142.3230   82.3380  223.9130 F   0  0  0  0  0  0  0  0  0  0  0  0
  142.6870   80.0090  223.4260 C   0  0  0  0  0  0  0  0  0  0  0  0
  142.2140   78.7450  223.1290 C   0  0  0  0  0  0  0  0  0  0  0  0
  140.8520   78.5380  223.0170 C   0  0  0  0  0  0  0  0  0  0  0  0
  140.3800   77.3050  222.7270 N   0  0  0  0  0  0  0  0  0  0  0  0
  140.3360   74.7380  222.5680 H   0  0  0  0  0  0  0  0  0  0  0  0
  137.7515   73.2697  222.5319 H   0  0  0  0  0  0  0  0  0  0  0  0
  138.5896   73.2901  220.9244 H   0  0  0  0  0  0  0  0  0  0  0  0
  137.7087   70.2630  221.5177 H   0  0  0  0  0  0  0  0  0  0  0  0
  139.4758   70.1693  220.9961 H   0  0  0  0  0  0  0  0  0  0  0  0
  138.1448   68.0488  221.4885 H   0  0  0  0  0  0  0  0  0  0  0  0
  139.8712   68.3231  222.0930 H   0  0  0  0  0  0  0  0  0  0  0  0
  137.6038   67.5030  223.5489 H   0  0  0  0  0  0  0  0  0  0  0  0
  139.2759   67.8345  224.1089 H   0  0  0  0  0  0  0  0  0  0  0  0
  137.0297   69.8761  223.7681 H   0  0  0  0  0  0  0  0  0  0  0  0
  137.6777   69.2624  225.3172 H   0  0  0  0  0  0  0  0  0  0  0  0
  138.7948   71.4024  224.8382 H   0  0  0  0  0  0  0  0  0  0  0  0
  140.2128   68.9498  225.0465 H   0  0  0  0  0  0  0  0  0  0  0  0
  141.1410   70.1453  224.1024 H   0  0  0  0  0  0  0  0  0  0  0  0
  139.4763   69.5065  227.4521 H   0  0  0  0  0  0  0  0  0  0  0  0
  140.2630   71.2868  229.2881 H   0  0  0  0  0  0  0  0  0  0  0  0
  141.7078   73.1460  227.9594 H   0  0  0  0  0  0  0  0  0  0  0  0
  137.1270   78.0439  222.7299 H   0  0  0  0  0  0  0  0  0  0  0  0
  137.9716   80.2974  223.2574 H   0  0  0  0  0  0  0  0  0  0  0  0
  139.7842   81.7201  223.6542 H   0  0  0  0  0  0  0  0  0  0  0  0
  143.7738   80.1561  223.5111 H   0  0  0  0  0  0  0  0  0  0  0  0
  142.9156   77.9105  222.9829 H   0  0  0  0  0  0  0  0  0  0  0  0
  1  2  2  0
  2  3  1  0
  3  4  1  0
  4  5  1  0
  5  6  2  0
  5  7  1  0
  7  8  1  0
  8  9  1  0
  9 10  1  0
 10 11  1  0
 11 12  1  0
 12 13  1  0
 13 14  1  0
 14 15  1  0
 15 16  2  0
 16 17  1  0
 17 18  2  0
  2 19  1  0
 19 20  2  0
 20 21  1  0
 21 22  2  0
 22 23  1  0
 23 24  2  0
 24 25  1  0
 24 26  1  0
 26 27  2  0
 27 28  1  0
 28 29  2  0
 12  7  1  0
 18 14  1  0
 29 19  1  0
 28 22  1  0
  3 30  1  0
  4 31  1  0
  4 32  1  0
  8 33  1  0
  8 34  1  0
  9 35  1  0
  9 36  1  0
 10 37  1  0
 10 38  1  0
 11 39  1  0
 11 40  1  0
 12 41  1  1
 13 42  1  0
 13 43  1  0
 15 44  1  0
 16 45  1  0
 17 46  1  0
 20 47  1  0
 21 48  1  0
 23 49  1  0
 26 50  1  0
 27 51  1  0
M  END
>  <smiles>  (5) 
O=C(NCC(=O)N1CCCC[C@H]1Cn1cccn1)c1ccc2cc(F)ccc2n1

>  <score_type>  (5) 
oracle

>  <origin>  (5) 
autodockgpu

>  <m_score__min__energy>  (5) 
-8.3000000000000007

>  <m_primary>  (5) 
energy

>  <rmsd>  (5) 
8.918967949294721

>  <m_score__min__rmsd>  (5) 
8.918967949294721

>  <meeko>  (5) 
{"free_energy": -7.43, "intermolecular_energy": -9.22, "internal_energy": -1.88, "cluster_size": 5, "cluster_id": 3, "rank_in_cluster": 4}

>  <energy>  (5) 
-8.21

>  <cluster_rmsd>  (5) 
1.15

>  <cluster>  (5) 
1

$$$$

     RDKit          3D

 51 54  0  0  0  0  0  0  0  0999 V2000
  140.8240   71.5980  221.1890 O   0  0  0  0  0  0  0  0  0  0  0  0
  140.3520   72.1660  222.2300 C   0  0  0  0  0  0  0  0  0  0  0  0
  139.9700   73.5400  222.2300 N   0  0  0  0  0  0  0  0  0  0  0  0
  140.1370   74.2960  220.9820 C   0  0  0  0  0  0  0  0  0  0  0  0
  140.7390   75.6070  221.2210 C   0  0  0  0  0  0  0  0  0  0  0  0
  140.7630   76.0380  222.4090 O   0  0  0  0  0  0  0  0  0  0  0  0
  141.3030   76.4490  220.2320 N   0  0  0  0  0  0  0  0  0  0  0  0
  140.8670   77.8260  220.2050 C   0  0  0  0  0  0  0  0  0  0  0  0
  141.8060   78.7880  219.5770 C   0  0  0  0  0  0  0  0  0  0  0  0
  142.5590   78.2970  218.3830 C   0  0  0  0  0  0  0  0  0  0  0  0
  142.0870   76.9120  218.0360 C   0  0  0  0  0  0  0  0  0  0  0  0
  142.2720   76.0280  219.2510 C   0  0  1  0  0  0  0  0  0  0  0  0
  143.6930   76.0220  219.7280 C   0  0  0  0  0  0  0  0  0  0  0  0
  143.9970   74.6770  220.2000 N   0  0  0  0  0  0  0  0  0  0  0  0
  145.2410   74.2910  220.6140 C   0  0  0  0  0  0  0  0  0  0  0  0
  145.2160   72.9690  220.9990 C   0  0  0  0  0  0  0  0  0  0  0  0
  143.9180   72.5540  220.8080 C   0  0  0  0  0  0  0  0  0  0  0  0
  143.2530   73.6200  220.3330 N   0  0  0  0  0  0  0  0  0  0  0  0
  140.1980   71.3880  223.4590 C   0  0  0  0  0  0  0  0  0  0  0  0
  139.5580   70.1660  223.4300 C   0  0  0  0  0  0  0  0  0  0  0  0
  139.3720   69.3760  224.5360 C   0  0  0  0  0  0  0  0  0  0  0  0
  139.8590   69.8480  225.7380 C   0  0  0  0  0  0  0  0  0  0  0  0
  139.6740   69.0600  226.8460 C   0  0  0  0  0  0  0  0  0  0  0  0
  140.1500   69.5030  228.0710 C   0  0  0  0  0  0  0  0  0  0  0  0
  139.9750   68.7350  229.1760 F   0  0  0  0  0  0  0  0  0  0  0  0
  140.7920   70.7280  228.1030 C   0  0  0  0  0  0  0  0  0  0  0  0
  140.9720   71.5120  226.9790 C   0  0  0  0  0  0  0  0  0  0  0  0
  140.4970   71.0700  225.7590 C   0  0  0  0  0  0  0  0  0  0  0  0
  140.6670   71.8300  224.6540 N   0  0  0  0  0  0  0  0  0  0  0  0
  139.5840   73.9960  223.0910 H   0  0  0  0  0  0  0  0  0  0  0  0
  140.7861   73.7240  220.3027 H   0  0  0  0  0  0  0  0  0  0  0  0
  139.1422   74.4508  220.5388 H   0  0  0  0  0  0  0  0  0  0  0  0
  139.9183   77.8689  219.6499 H   0  0  0  0  0  0  0  0  0  0  0  0
  140.7834   78.1338  221.2577 H   0  0  0  0  0  0  0  0  0  0  0  0
  141.2251   79.6693  219.2674 H   0  0  0  0  0  0  0  0  0  0  0  0
  142.5703   78.9923  220.3413 H   0  0  0  0  0  0  0  0  0  0  0  0
  142.3796   78.9708  217.5322 H   0  0  0  0  0  0  0  0  0  0  0  0
  143.6355   78.2750  218.6083 H   0  0  0  0  0  0  0  0  0  0  0  0
  141.0238   76.9408  217.7555 H   0  0  0  0  0  0  0  0  0  0  0  0
  142.6650   76.5162  217.1880 H   0  0  0  0  0  0  0  0  0  0  0  0
  142.0856   74.9703  219.0131 H   0  0  0  0  0  0  0  0  0  0  0  0
  144.3668   76.2899  218.9008 H   0  0  0  0  0  0  0  0  0  0  0  0
  143.8305   76.7543  220.5373 H   0  0  0  0  0  0  0  0  0  0  0  0
  146.1293   74.9393  220.6363 H   0  0  0  0  0  0  0  0  0  0  0  0
  146.0570   72.3705  221.3793 H   0  0  0  0  0  0  0  0  0  0  0  0
  143.5081   71.5523  221.0045 H   0  0  0  0  0  0  0  0  0  0  0  0
  139.1748   69.8044  222.4644 H   0  0  0  0  0  0  0  0  0  0  0  0
  138.8562   68.4068  224.4677 H   0  0  0  0  0  0  0  0  0  0  0  0
  139.1566   68.0927  226.7640 H   0  0  0  0  0  0  0  0  0  0  0  0
  141.1765   71.0946  229.0662 H   0  0  0  0  0  0  0  0  0  0  0  0
  141.4891   72.4799  227.0550 H   0  0  0  0  0  0  0  0  0  0  0  0
  1  2  2  0
  2  3  1  0
  3  4  1  0
  4  5  1  0
  5  6  2  0
  5  7  1  0
  7  8  1  0
  8  9  1  0
  9 10  1  0
 10 11  1  0
 11 12  1  0
 12 13  1  0
 13 14  1  0
 14 15  1  0
 15 16  2  0
 16 17  1  0
 17 18  2  0
  2 19  1  0
 19 20  2  0
 20 21  1  0
 21 22  2  0
 22 23  1  0
 23 24  2  0
 24 25  1  0
 24 26  1  0
 26 27  2  0
 27 28  1  0
 28 29  2  0
 12  7  1  0
 18 14  1  0
 29 19  1  0
 28 22  1  0
  3 30  1  0
  4 31  1  0
  4 32  1  0
  8 33  1  0
  8 34  1  0
  9 35  1  0
  9 36  1  0
 10 37  1  0
 10 38  1  0
 11 39  1  0
 11 40  1  0
 12 41  1  6
 13 42  1  0
 13 43  1  0
 15 44  1  0
 16 45  1  0
 17 46  1  0
 20 47  1  0
 21 48  1  0
 23 49  1  0
 26 50  1  0
 27 51  1  0
M  END
>  <smiles>  (6) 
O=C(NCC(=O)N1CCCC[C@H]1Cn1cccn1)c1ccc2cc(F)ccc2n1

>  <score_type>  (6) 
oracle

>  <origin>  (6) 
autodockgpu

>  <m_score__min__energy>  (6) 
-8.3000000000000007

>  <m_primary>  (6) 
energy

>  <rmsd>  (6) 
3.541227203324862

>  <m_score__min__rmsd>  (6) 
3.541227203324862

>  <meeko>  (6) 
{"free_energy": -8.0, "intermolecular_energy": -9.79, "internal_energy": -1.89, "cluster_size": 17, "cluster_id": 2, "rank_in_cluster": 3}

>  <energy>  (6) 
-8.21

>  <cluster_rmsd>  (6) 
1.51

>  <cluster>  (6) 
1

$$$$

     RDKit          3D

 51 54  0  0  0  0  0  0  0  0999 V2000
  141.1220   71.5100  221.3800 O   0  0  0  0  0  0  0  0  0  0  0  0
  140.5420   72.1110  222.3440 C   0  0  0  0  0  0  0  0  0  0  0  0
  140.1340   73.4740  222.2470 N   0  0  0  0  0  0  0  0  0  0  0  0
  140.4040   74.1790  220.9870 C   0  0  0  0  0  0  0  0  0  0  0  0
  140.7530   75.5810  221.2160 C   0  0  0  0  0  0  0  0  0  0  0  0
  140.5460   76.0600  222.3680 O   0  0  0  0  0  0  0  0  0  0  0  0
  141.3080   76.4620  220.2560 N   0  0  0  0  0  0  0  0  0  0  0  0
  140.8640   77.8370  220.2820 C   0  0  0  0  0  0  0  0  0  0  0  0
  141.7940   78.8260  219.6860 C   0  0  0  0  0  0  0  0  0  0  0  0
  142.5430   78.3840  218.4690 C   0  0  0  0  0  0  0  0  0  0  0  0
  142.0750   77.0100  218.0740 C   0  0  0  0  0  0  0  0  0  0  0  0
  142.2720   76.0830  219.2540 C   0  0  1  0  0  0  0  0  0  0  0  0
  143.6960   76.0660  219.7220 C   0  0  0  0  0  0  0  0  0  0  0  0
  144.0350   74.6910  220.0660 N   0  0  0  0  0  0  0  0  0  0  0  0
  143.3320   73.6100  219.6140 C   0  0  0  0  0  0  0  0  0  0  0  0
  143.8890   72.4510  220.1080 C   0  0  0  0  0  0  0  0  0  0  0  0
  144.9560   72.8540  220.8780 C   0  0  0  0  0  0  0  0  0  0  0  0
  144.9820   74.1940  220.8060 N   0  0  0  0  0  0  0  0  0  0  0  0
  140.2850   71.3840  223.5870 C   0  0  0  0  0  0  0  0  0  0  0  0
  139.6140   70.1790  223.5600 C   0  0  0  0  0  0  0  0  0  0  0  0
  139.3330   69.4360  224.6780 C   0  0  0  0  0  0  0  0  0  0  0  0
  139.7560   69.9390  225.8920 C   0  0  0  0  0  0  0  0  0  0  0  0
  139.4770   69.1970  227.0130 C   0  0  0  0  0  0  0  0  0  0  0  0
  139.8860   69.6720  228.2500 C   0  0  0  0  0  0  0  0  0  0  0  0
  139.6180   68.9500  229.3670 F   0  0  0  0  0  0  0  0  0  0  0  0
  140.5600   70.8790  228.2800 C   0  0  0  0  0  0  0  0  0  0  0  0
  140.8350   71.6160  227.1440 C   0  0  0  0  0  0  0  0  0  0  0  0
  140.4270   71.1430  225.9110 C   0  0  0  0  0  0  0  0  0  0  0  0
  140.6900   71.8560  224.7950 N   0  0  0  0  0  0  0  0  0  0  0  0
  139.6580   73.9580  223.0450 H   0  0  0  0  0  0  0  0  0  0  0  0
  141.2403   73.6828  220.4729 H   0  0  0  0  0  0  0  0  0  0  0  0
  139.4910   74.1484  220.3743 H   0  0  0  0  0  0  0  0  0  0  0  0
  139.9124   77.8950  219.7332 H   0  0  0  0  0  0  0  0  0  0  0  0
  140.7836   78.1053  221.3458 H   0  0  0  0  0  0  0  0  0  0  0  0
  141.2071   79.7155  219.4133 H   0  0  0  0  0  0  0  0  0  0  0  0
  142.5618   79.0050  220.4531 H   0  0  0  0  0  0  0  0  0  0  0  0
  142.3549   79.0881  217.6450 H   0  0  0  0  0  0  0  0  0  0  0  0
  143.6211   78.3597  218.6862 H   0  0  0  0  0  0  0  0  0  0  0  0
  141.0098   77.0440  217.8016 H   0  0  0  0  0  0  0  0  0  0  0  0
  142.6493   76.6485  217.2083 H   0  0  0  0  0  0  0  0  0  0  0  0
  142.0889   75.0342  218.9775 H   0  0  0  0  0  0  0  0  0  0  0  0
  144.3578   76.4253  218.9202 H   0  0  0  0  0  0  0  0  0  0  0  0
  143.8215   76.7229  220.5954 H   0  0  0  0  0  0  0  0  0  0  0  0
  142.4530   73.6581  218.9545 H   0  0  0  0  0  0  0  0  0  0  0  0
  143.5518   71.4200  219.9254 H   0  0  0  0  0  0  0  0  0  0  0  0
  145.6477   72.2084  221.4391 H   0  0  0  0  0  0  0  0  0  0  0  0
  139.2850   69.7913  222.5846 H   0  0  0  0  0  0  0  0  0  0  0  0
  138.7934   68.4798  224.6102 H   0  0  0  0  0  0  0  0  0  0  0  0
  138.9380   68.2416  226.9313 H   0  0  0  0  0  0  0  0  0  0  0  0
  140.8925   71.2704  229.2528 H   0  0  0  0  0  0  0  0  0  0  0  0
  141.3744   72.5716  227.2203 H   0  0  0  0  0  0  0  0  0  0  0  0
  1  2  2  0
  2  3  1  0
  3  4  1  0
  4  5  1  0
  5  6  2  0
  5  7  1  0
  7  8  1  0
  8  9  1  0
  9 10  1  0
 10 11  1  0
 11 12  1  0
 12 13  1  0
 13 14  1  0
 14 15  1  0
 15 16  2  0
 16 17  1  0
 17 18  2  0
  2 19  1  0
 19 20  2  0
 20 21  1  0
 21 22  2  0
 22 23  1  0
 23 24  2  0
 24 25  1  0
 24 26  1  0
 26 27  2  0
 27 28  1  0
 28 29  2  0
 12  7  1  0
 18 14  1  0
 29 19  1  0
 28 22  1  0
  3 30  1  0
  4 31  1  0
  4 32  1  0
  8 33  1  0
  8 34  1  0
  9 35  1  0
  9 36  1  0
 10 37  1  0
 10 38  1  0
 11 39  1  0
 11 40  1  0
 12 41  1  6
 13 42  1  0
 13 43  1  0
 15 44  1  0
 16 45  1  0
 17 46  1  0
 20 47  1  0
 21 48  1  0
 23 49  1  0
 26 50  1  0
 27 51  1  0
M  END
>  <smiles>  (7) 
O=C(NCC(=O)N1CCCC[C@H]1Cn1cccn1)c1ccc2cc(F)ccc2n1

>  <score_type>  (7) 
oracle

>  <origin>  (7) 
autodockgpu

>  <m_score__min__energy>  (7) 
-8.3000000000000007

>  <m_primary>  (7) 
energy

>  <rmsd>  (7) 
3.586065995540517

>  <m_score__min__rmsd>  (7) 
3.586065995540517

>  <meeko>  (7) 
{"free_energy": -7.74, "intermolecular_energy": -9.53, "internal_energy": -2.05, "cluster_size": 17, "cluster_id": 2, "rank_in_cluster": 14}

>  <energy>  (7) 
-8.08

>  <cluster_rmsd>  (7) 
1.94

>  <cluster>  (7) 
1

$$$$

     RDKit          3D

 51 54  0  0  0  0  0  0  0  0999 V2000
  142.1300   78.3380  217.2150 O   0  0  0  0  0  0  0  0  0  0  0  0
  142.1680   77.7010  218.3200 C   0  0  0  0  0  0  0  0  0  0  0  0
  141.4590   78.1520  219.4730 N   0  0  0  0  0  0  0  0  0  0  0  0
  140.6750   79.3880  219.3530 C   0  0  0  0  0  0  0  0  0  0  0  0
  140.3280   79.9380  220.6620 C   0  0  0  0  0  0  0  0  0  0  0  0
  139.1200   80.2500  220.8710 O   0  0  0  0  0  0  0  0  0  0  0  0
  141.2310   80.1580  221.7320 N   0  0  0  0  0  0  0  0  0  0  0  0
  141.2850   81.4880  222.2920 C   0  0  0  0  0  0  0  0  0  0  0  0
  141.7830   81.5810  223.6860 C   0  0  0  0  0  0  0  0  0  0  0  0
  142.8910   80.6480  224.0590 C   0  0  0  0  0  0  0  0  0  0  0  0
  143.3130   79.8710  222.8420 C   0  0  0  0  0  0  0  0  0  0  0  0
  142.1000   79.1530  222.2910 C   0  0  1  0  0  0  0  0  0  0  0  0
  141.4610   78.2650  223.3160 C   0  0  0  0  0  0  0  0  0  0  0  0
  140.6980   77.2450  222.6080 N   0  0  0  0  0  0  0  0  0  0  0  0
  139.3340   77.2540  222.5220 C   0  0  0  0  0  0  0  0  0  0  0  0
  138.9050   76.1660  221.7940 C   0  0  0  0  0  0  0  0  0  0  0  0
  140.0480   75.4890  221.4350 C   0  0  0  0  0  0  0  0  0  0  0  0
  141.0720   76.1870  221.9520 N   0  0  0  0  0  0  0  0  0  0  0  0
  142.9570   76.4740  218.4110 C   0  0  0  0  0  0  0  0  0  0  0  0
  143.3600   75.8220  217.2640 C   0  0  0  0  0  0  0  0  0  0  0  0
  144.1010   74.6670  217.2610 C   0  0  0  0  0  0  0  0  0  0  0  0
  144.4540   74.1430  218.4880 C   0  0  0  0  0  0  0  0  0  0  0  0
  145.1960   72.9880  218.4890 C   0  0  0  0  0  0  0  0  0  0  0  0
  145.5690   72.4320  219.7050 C   0  0  0  0  0  0  0  0  0  0  0  0
  146.3020   71.2900  219.7220 F   0  0  0  0  0  0  0  0  0  0  0  0
  145.1670   73.0830  220.8560 C   0  0  0  0  0  0  0  0  0  0  0  0
  144.4200   74.2460  220.8410 C   0  0  0  0  0  0  0  0  0  0  0  0
  144.0480   74.8000  219.6300 C   0  0  0  0  0  0  0  0  0  0  0  0
  143.3180   75.9360  219.6050 N   0  0  0  0  0  0  0  0  0  0  0  0
  141.4960   77.6220  220.3750 H   0  0  0  0  0  0  0  0  0  0  0  0
  141.2657   80.1323  218.7989 H   0  0  0  0  0  0  0  0  0  0  0  0
  139.7410   79.1512  218.8223 H   0  0  0  0  0  0  0  0  0  0  0  0
  141.9458   82.0955  221.6562 H   0  0  0  0  0  0  0  0  0  0  0  0
  140.2441   81.8423  222.3221 H   0  0  0  0  0  0  0  0  0  0  0  0
  142.1424   82.6083  223.8454 H   0  0  0  0  0  0  0  0  0  0  0  0
  140.9319   81.2931  224.3206 H   0  0  0  0  0  0  0  0  0  0  0  0
  143.7455   81.2256  224.4415 H   0  0  0  0  0  0  0  0  0  0  0  0
  142.5437   79.9542  224.8388 H   0  0  0  0  0  0  0  0  0  0  0  0
  143.7147   80.5584  222.0830 H   0  0  0  0  0  0  0  0  0  0  0  0
  144.0942   79.1441  223.1091 H   0  0  0  0  0  0  0  0  0  0  0  0
  142.3760   78.4506  221.4908 H   0  0  0  0  0  0  0  0  0  0  0  0
  142.2363   77.7900  223.9351 H   0  0  0  0  0  0  0  0  0  0  0  0
  140.8020   78.8502  223.9742 H   0  0  0  0  0  0  0  0  0  0  0  0
  138.6772   78.0158  222.9673 H   0  0  0  0  0  0  0  0  0  0  0  0
  137.8669   75.8953  221.5508 H   0  0  0  0  0  0  0  0  0  0  0  0
  140.1102   74.5633  220.8440 H   0  0  0  0  0  0  0  0  0  0  0  0
  143.0702   76.2535  216.2945 H   0  0  0  0  0  0  0  0  0  0  0  0
  144.4006   74.1799  216.3213 H   0  0  0  0  0  0  0  0  0  0  0  0
  145.4900   72.5112  217.5423 H   0  0  0  0  0  0  0  0  0  0  0  0
  145.4546   72.6563  221.8282 H   0  0  0  0  0  0  0  0  0  0  0  0
  144.1239   74.7269  221.7850 H   0  0  0  0  0  0  0  0  0  0  0  0
  1  2  2  0
  2  3  1  0
  3  4  1  0
  4  5  1  0
  5  6  2  0
  5  7  1  0
  7  8  1  0
  8  9  1  0
  9 10  1  0
 10 11  1  0
 11 12  1  0
 12 13  1  0
 13 14  1  0
 14 15  1  0
 15 16  2  0
 16 17  1  0
 17 18  2  0
  2 19  1  0
 19 20  2  0
 20 21  1  0
 21 22  2  0
 22 23  1  0
 23 24  2  0
 24 25  1  0
 24 26  1  0
 26 27  2  0
 27 28  1  0
 28 29  2  0
 12  7  1  0
 18 14  1  0
 29 19  1  0
 28 22  1  0
  3 30  1  0
  4 31  1  0
  4 32  1  0
  8 33  1  0
  8 34  1  0
  9 35  1  0
  9 36  1  0
 10 37  1  0
 10 38  1  0
 11 39  1  0
 11 40  1  0
 12 41  1  6
 13 42  1  0
 13 43  1  0
 15 44  1  0
 16 45  1  0
 17 46  1  0
 20 47  1  0
 21 48  1  0
 23 49  1  0
 26 50  1  0
 27 51  1  0
M  END
>  <smiles>  (8) 
O=C(NCC(=O)N1CCCC[C@H]1Cn1cccn1)c1ccc2cc(F)ccc2n1

>  <score_type>  (8) 
oracle

>  <origin>  (8) 
autodockgpu

>  <m_score__min__energy>  (8) 
-8.3000000000000007

>  <m_primary>  (8) 
energy

>  <rmsd>  (8) 
7.7232393036649505

>  <m_score__min__rmsd>  (8) 
7.7232393036649505

>  <meeko>  (8) 
{"free_energy": -6.08, "intermolecular_energy": -7.87, "internal_energy": -3.05, "cluster_size": 1, "cluster_id": 8, "rank_in_cluster": 1}

>  <energy>  (8) 
-8.06

>  <cluster_rmsd>  (8) 
0.82

>  <cluster>  (8) 
1

$$$$

     RDKit          3D

 51 54  0  0  0  0  0  0  0  0999 V2000
  140.7300   71.6600  221.1310 O   0  0  0  0  0  0  0  0  0  0  0  0
  140.2910   72.2130  222.1940 C   0  0  0  0  0  0  0  0  0  0  0  0
  139.9090   73.5860  222.2260 N   0  0  0  0  0  0  0  0  0  0  0  0
  140.0370   74.3600  220.9840 C   0  0  0  0  0  0  0  0  0  0  0  0
  140.7600   75.6130  221.2000 C   0  0  0  0  0  0  0  0  0  0  0  0
  140.8950   76.0180  222.3900 O   0  0  0  0  0  0  0  0  0  0  0  0
  141.3290   76.4240  220.1880 N   0  0  0  0  0  0  0  0  0  0  0  0
  140.8870   77.7980  220.1110 C   0  0  0  0  0  0  0  0  0  0  0  0
  141.8270   78.7420  219.4590 C   0  0  0  0  0  0  0  0  0  0  0  0
  142.5910   78.2140  218.2870 C   0  0  0  0  0  0  0  0  0  0  0  0
  142.1260   76.8160  217.9830 C   0  0  0  0  0  0  0  0  0  0  0  0
  142.3060   75.9740  219.2290 C   0  0  1  0  0  0  0  0  0  0  0  0
  143.7230   75.9900  219.7160 C   0  0  0  0  0  0  0  0  0  0  0  0
  144.0410   74.6540  220.2040 N   0  0  0  0  0  0  0  0  0  0  0  0
  145.2890   74.2830  220.6190 C   0  0  0  0  0  0  0  0  0  0  0  0
  145.2760   72.9650  221.0190 C   0  0  0  0  0  0  0  0  0  0  0  0
  143.9810   72.5370  220.8360 C   0  0  0  0  0  0  0  0  0  0  0  0
  143.3060   73.5910  220.3500 N   0  0  0  0  0  0  0  0  0  0  0  0
  140.1750   71.4180  223.4160 C   0  0  0  0  0  0  0  0  0  0  0  0
  139.5620   70.1820  223.3830 C   0  0  0  0  0  0  0  0  0  0  0  0
  139.4110   69.3750  224.4820 C   0  0  0  0  0  0  0  0  0  0  0  0
  139.9090   69.8440  225.6820 C   0  0  0  0  0  0  0  0  0  0  0  0
  139.7600   69.0380  226.7830 C   0  0  0  0  0  0  0  0  0  0  0  0
  140.2480   69.4780  228.0050 C   0  0  0  0  0  0  0  0  0  0  0  0
  140.1080   68.6920  229.1030 F   0  0  0  0  0  0  0  0  0  0  0  0
  140.8630   70.7160  228.0410 C   0  0  0  0  0  0  0  0  0  0  0  0
  141.0060   71.5160  226.9240 C   0  0  0  0  0  0  0  0  0  0  0  0
  140.5200   71.0790  225.7060 C   0  0  0  0  0  0  0  0  0  0  0  0
  140.6550   71.8550  224.6090 N   0  0  0  0  0  0  0  0  0  0  0  0
  139.5490   74.0300  223.1040 H   0  0  0  0  0  0  0  0  0  0  0  0
  140.5820   73.7571  220.2427 H   0  0  0  0  0  0  0  0  0  0  0  0
  139.0259   74.6046  220.6264 H   0  0  0  0  0  0  0  0  0  0  0  0
  139.9429   77.8179  219.5468 H   0  0  0  0  0  0  0  0  0  0  0  0
  140.7929   78.1407  221.1520 H   0  0  0  0  0  0  0  0  0  0  0  0
  141.2455   79.6105  219.1161 H   0  0  0  0  0  0  0  0  0  0  0  0
  142.5846   78.9746  220.2218 H   0  0  0  0  0  0  0  0  0  0  0  0
  142.4156   78.8584  217.4129 H   0  0  0  0  0  0  0  0  0  0  0  0
  143.6658   78.2035  218.5207 H   0  0  0  0  0  0  0  0  0  0  0  0
  141.0646   76.8314  217.6945 H   0  0  0  0  0  0  0  0  0  0  0  0
  142.7109   76.3940  217.1524 H   0  0  0  0  0  0  0  0  0  0  0  0
  142.1255   74.9082  219.0255 H   0  0  0  0  0  0  0  0  0  0  0  0
  144.3993   76.2579  218.8909 H   0  0  0  0  0  0  0  0  0  0  0  0
  143.8452   76.7318  220.5190 H   0  0  0  0  0  0  0  0  0  0  0  0
  146.1720   74.9389  220.6317 H   0  0  0  0  0  0  0  0  0  0  0  0
  146.1229   72.3779  221.4039 H   0  0  0  0  0  0  0  0  0  0  0  0
  143.5800   71.5343  221.0455 H   0  0  0  0  0  0  0  0  0  0  0  0
  139.1717   69.8230  222.4193 H   0  0  0  0  0  0  0  0  0  0  0  0
  138.9144   68.3960  224.4106 H   0  0  0  0  0  0  0  0  0  0  0  0
  139.2625   68.0606  226.6980 H   0  0  0  0  0  0  0  0  0  0  0  0
  141.2558   71.0799  229.0019 H   0  0  0  0  0  0  0  0  0  0  0  0
  141.5032   72.4940  227.0032 H   0  0  0  0  0  0  0  0  0  0  0  0
  1  2  2  0
  2  3  1  0
  3  4  1  0
  4  5  1  0
  5  6  2  0
  5  7  1  0
  7  8  1  0
  8  9  1  0
  9 10  1  0
 10 11  1  0
 11 12  1  0
 12 13  1  0
 13 14  1  0
 14 15  1  0
 15 16  2  0
 16 17  1  0
 17 18  2  0
  2 19  1  0
 19 20  2  0
 20 21  1  0
 21 22  2  0
 22 23  1  0
 23 24  2  0
 24 25  1  0
 24 26  1  0
 26 27  2  0
 27 28  1  0
 28 29  2  0
 12  7  1  0
 18 14  1  0
 29 19  1  0
 28 22  1  0
  3 30  1  0
  4 31  1  0
  4 32  1  0
  8 33  1  0
  8 34  1  0
  9 35  1  0
  9 36  1  0
 10 37  1  0
 10 38  1  0
 11 39  1  0
 11 40  1  0
 12 41  1  6
 13 42  1  0
 13 43  1  0
 15 44  1  0
 16 45  1  0
 17 46  1  0
 20 47  1  0
 21 48  1  0
 23 49  1  0
 26 50  1  0
 27 51  1  0
M  END
>  <smiles>  (9) 
O=C(NCC(=O)N1CCCC[C@H]1Cn1cccn1)c1ccc2cc(F)ccc2n1

>  <score_type>  (9) 
oracle

>  <origin>  (9) 
autodockgpu

>  <m_score__min__energy>  (9) 
-8.3000000000000007

>  <m_primary>  (9) 
energy

>  <rmsd>  (9) 
3.535610185707843

>  <m_score__min__rmsd>  (9) 
3.535610185707843

>  <meeko>  (9) 
{"free_energy": -8.02, "intermolecular_energy": -9.81, "internal_energy": -1.84, "cluster_size": 17, "cluster_id": 2, "rank_in_cluster": 1}

>  <energy>  (9) 
-8.05

>  <cluster_rmsd>  (9) 
1.3

>  <cluster>  (9) 
1

$$$$

     RDKit          3D

 51 54  0  0  0  0  0  0  0  0999 V2000
  138.9490   70.7480  221.6180 O   0  0  0  0  0  0  0  0  0  0  0  0
  139.3350   71.3160  222.6930 C   0  0  0  0  0  0  0  0  0  0  0  0
  139.5800   72.7190  222.7590 N   0  0  0  0  0  0  0  0  0  0  0  0
  139.3740   73.5060  221.5360 C   0  0  0  0  0  0  0  0  0  0  0  0
  140.1490   74.7460  221.5540 C   0  0  0  0  0  0  0  0  0  0  0  0
  141.3990   74.6640  221.3780 O   0  0  0  0  0  0  0  0  0  0  0  0
  139.6230   76.0460  221.7530 N   0  0  0  0  0  0  0  0  0  0  0  0
  138.1990   76.1620  221.9610 C   0  0  0  0  0  0  0  0  0  0  0  0
  137.7490   77.3780  222.6810 C   0  0  0  0  0  0  0  0  0  0  0  0
  138.4900   78.6410  222.3790 C   0  0  0  0  0  0  0  0  0  0  0  0
  139.4970   78.3750  221.2940 C   0  0  0  0  0  0  0  0  0  0  0  0
  140.4070   77.2560  221.7540 C   0  0  1  0  0  0  0  0  0  0  0  0
  141.0730   77.5760  223.0580 C   0  0  0  0  0  0  0  0  0  0  0  0
  141.5630   78.9470  222.9830 N   0  0  0  0  0  0  0  0  0  0  0  0
  141.1620   79.9350  223.8380 C   0  0  0  0  0  0  0  0  0  0  0  0
  141.7930   81.1160  223.5160 C   0  0  0  0  0  0  0  0  0  0  0  0
  142.5950   80.8230  222.4360 C   0  0  0  0  0  0  0  0  0  0  0  0
  142.4070   79.5190  222.1760 N   0  0  0  0  0  0  0  0  0  0  0  0
  139.5320   70.5070  223.8960 C   0  0  0  0  0  0  0  0  0  0  0  0
  139.1220   69.1900  223.9200 C   0  0  0  0  0  0  0  0  0  0  0  0
  139.2700   68.3640  225.0060 C   0  0  0  0  0  0  0  0  0  0  0  0
  139.8650   68.9010  226.1300 C   0  0  0  0  0  0  0  0  0  0  0  0
  140.0140   68.0770  227.2180 C   0  0  0  0  0  0  0  0  0  0  0  0
  140.6080   68.5830  228.3650 C   0  0  0  0  0  0  0  0  0  0  0  0
  140.7630   67.7810  229.4490 F   0  0  0  0  0  0  0  0  0  0  0  0
  141.0210   69.9030  228.3430 C   0  0  0  0  0  0  0  0  0  0  0  0
  140.8650   70.7210  227.2400 C   0  0  0  0  0  0  0  0  0  0  0  0
  140.2720   70.2170  226.0980 C   0  0  0  0  0  0  0  0  0  0  0  0
  140.1150   71.0100  225.0150 N   0  0  0  0  0  0  0  0  0  0  0  0
  139.8960   73.1750  223.6480 H   0  0  0  0  0  0  0  0  0  0  0  0
  139.6837   72.9046  220.6686 H   0  0  0  0  0  0  0  0  0  0  0  0
  138.3077   73.7688  221.4728 H   0  0  0  0  0  0  0  0  0  0  0  0
  137.7121   76.1542  220.9747 H   0  0  0  0  0  0  0  0  0  0  0  0
  137.9209   75.3139  222.6039 H   0  0  0  0  0  0  0  0  0  0  0  0
  136.6906   77.5428  222.4308 H   0  0  0  0  0  0  0  0  0  0  0  0
  137.9388   77.1748  223.7453 H   0  0  0  0  0  0  0  0  0  0  0  0
  137.7813   79.4121  222.0425 H   0  0  0  0  0  0  0  0  0  0  0  0
  139.0060   78.9928  223.2845 H   0  0  0  0  0  0  0  0  0  0  0  0
  138.9788   78.0772  220.3705 H   0  0  0  0  0  0  0  0  0  0  0  0
  140.0847   79.2825  221.0917 H   0  0  0  0  0  0  0  0  0  0  0  0
  141.2562   77.1185  221.0685 H   0  0  0  0  0  0  0  0  0  0  0  0
  140.3492   77.4817  223.8810 H   0  0  0  0  0  0  0  0  0  0  0  0
  141.9042   76.8804  223.2460 H   0  0  0  0  0  0  0  0  0  0  0  0
  140.4428   79.8061  224.6603 H   0  0  0  0  0  0  0  0  0  0  0  0
  141.6800   82.0890  224.0165 H   0  0  0  0  0  0  0  0  0  0  0  0
  143.2559   81.5166  221.8955 H   0  0  0  0  0  0  0  0  0  0  0  0
  138.6490   68.7780  223.0163 H   0  0  0  0  0  0  0  0  0  0  0  0
  138.9290   67.3185  224.9818 H   0  0  0  0  0  0  0  0  0  0  0  0
  139.6683   67.0334  227.1809 H   0  0  0  0  0  0  0  0  0  0  0  0
  141.4948   70.3203  229.2438 H   0  0  0  0  0  0  0  0  0  0  0  0
  141.2101   71.7650  227.2709 H   0  0  0  0  0  0  0  0  0  0  0  0
  1  2  2  0
  2  3  1  0
  3  4  1  0
  4  5  1  0
  5  6  2  0
  5  7  1  0
  7  8  1  0
  8  9  1  0
  9 10  1  0
 10 11  1  0
 11 12  1  0
 12 13  1  0
 13 14  1  0
 14 15  1  0
 15 16  2  0
 16 17  1  0
 17 18  2  0
  2 19  1  0
 19 20  2  0
 20 21  1  0
 21 22  2  0
 22 23  1  0
 23 24  2  0
 24 25  1  0
 24 26  1  0
 26 27  2  0
 27 28  1  0
 28 29  2  0
 12  7  1  0
 18 14  1  0
 29 19  1  0
 28 22  1  0
  3 30  1  0
  4 31  1  0
  4 32  1  0
  8 33  1  0
  8 34  1  0
  9 35  1  0
  9 36  1  0
 10 37  1  0
 10 38  1  0
 11 39  1  0
 11 40  1  0
 12 41  1  6
 13 42  1  0
 13 43  1  0
 15 44  1  0
 16 45  1  0
 17 46  1  0
 20 47  1  0
 21 48  1  0
 23 49  1  0
 26 50  1  0
 27 51  1  0
M  END
>  <smiles>  (10) 
O=C(NCC(=O)N1CCCC[C@H]1Cn1cccn1)c1ccc2cc(F)ccc2n1

>  <score_type>  (10) 
oracle

>  <origin>  (10) 
autodockgpu

>  <m_score__min__energy>  (10) 
-8.3000000000000007

>  <m_primary>  (10) 
energy

>  <rmsd>  (10) 
2.4826280721531124

>  <m_score__min__rmsd>  (10) 
2.4826280721531124

>  <meeko>  (10) 
{"free_energy": -7.96, "intermolecular_energy": -9.75, "internal_energy": -1.45, "cluster_size": 21, "cluster_id": 1, "rank_in_cluster": 16}

>  <energy>  (10) 
-8.03

>  <cluster_rmsd>  (10) 
1.27

>  <cluster>  (10) 
1

$$$$

     RDKit          3D

 51 54  0  0  0  0  0  0  0  0999 V2000
  141.0150   72.0810  221.4770 O   0  0  0  0  0  0  0  0  0  0  0  0
  140.1800   72.3490  222.4030 C   0  0  0  0  0  0  0  0  0  0  0  0
  139.2960   73.4650  222.3220 N   0  0  0  0  0  0  0  0  0  0  0  0
  139.3740   74.3120  221.1240 C   0  0  0  0  0  0  0  0  0  0  0  0
  140.4800   75.2650  221.2070 C   0  0  0  0  0  0  0  0  0  0  0  0
  141.5890   74.8440  221.6450 O   0  0  0  0  0  0  0  0  0  0  0  0
  140.4240   76.6310  220.8380 N   0  0  0  0  0  0  0  0  0  0  0  0
  139.5840   76.9820  219.7160 C   0  0  0  0  0  0  0  0  0  0  0  0
  139.1110   78.3880  219.6790 C   0  0  0  0  0  0  0  0  0  0  0  0
  140.0810   79.4260  220.1440 C   0  0  0  0  0  0  0  0  0  0  0  0
  141.3950   78.7680  220.4620 C   0  0  0  0  0  0  0  0  0  0  0  0
  141.1490   77.6890  221.4960 C   0  0  1  0  0  0  0  0  0  0  0  0
  140.4930   78.2330  222.7290 C   0  0  0  0  0  0  0  0  0  0  0  0
  141.2220   79.4310  223.1280 N   0  0  0  0  0  0  0  0  0  0  0  0
  142.5530   79.4300  223.4380 C   0  0  0  0  0  0  0  0  0  0  0  0
  142.9540   80.7030  223.7780 C   0  0  0  0  0  0  0  0  0  0  0  0
  141.8280   81.4860  223.6680 C   0  0  0  0  0  0  0  0  0  0  0  0
  140.8400   80.6640  223.2790 N   0  0  0  0  0  0  0  0  0  0  0  0
  140.1250   71.4890  223.5850 C   0  0  0  0  0  0  0  0  0  0  0  0
  139.5420   70.2400  223.5060 C   0  0  0  0  0  0  0  0  0  0  0  0
  139.4490   69.3730  224.5650 C   0  0  0  0  0  0  0  0  0  0  0  0
  139.9750   69.7920  225.7710 C   0  0  0  0  0  0  0  0  0  0  0  0
  139.8840   68.9260  226.8330 C   0  0  0  0  0  0  0  0  0  0  0  0
  140.4010   69.3140  228.0600 C   0  0  0  0  0  0  0  0  0  0  0  0
  140.3190   68.4690  229.1190 F   0  0  0  0  0  0  0  0  0  0  0  0
  140.9860   70.5650  228.1410 C   0  0  0  0  0  0  0  0  0  0  0  0
  141.0710   71.4260  227.0640 C   0  0  0  0  0  0  0  0  0  0  0  0
  140.5550   71.0400  225.8410 C   0  0  0  0  0  0  0  0  0  0  0  0
  140.6340   71.8760  224.7830 N   0  0  0  0  0  0  0  0  0  0  0  0
  138.6140   73.6760  223.0890 H   0  0  0  0  0  0  0  0  0  0  0  0
  139.5215   73.6704  220.2427 H   0  0  0  0  0  0  0  0  0  0  0  0
  138.4360   74.8811  221.0445 H   0  0  0  0  0  0  0  0  0  0  0  0
  140.1549   76.7935  218.7949 H   0  0  0  0  0  0  0  0  0  0  0  0
  138.6790   76.3646  219.8154 H   0  0  0  0  0  0  0  0  0  0  0  0
  138.8412   78.6235  218.6389 H   0  0  0  0  0  0  0  0  0  0  0  0
  138.2710   78.4334  220.3877 H   0  0  0  0  0  0  0  0  0  0  0  0
  140.2268   80.1746  219.3513 H   0  0  0  0  0  0  0  0  0  0  0  0
  139.6885   79.9215  221.0442 H   0  0  0  0  0  0  0  0  0  0  0  0
  141.8169   78.3201  219.5502 H   0  0  0  0  0  0  0  0  0  0  0  0
  142.1063   79.5111  220.8517 H   0  0  0  0  0  0  0  0  0  0  0  0
  142.0930   77.2749  221.8800 H   0  0  0  0  0  0  0  0  0  0  0  0
  139.4444   78.4868  222.5144 H   0  0  0  0  0  0  0  0  0  0  0  0
  140.5099   77.4855  223.5358 H   0  0  0  0  0  0  0  0  0  0  0  0
  143.2062   78.5451  223.4188 H   0  0  0  0  0  0  0  0  0  0  0  0
  143.9627   81.0259  224.0751 H   0  0  0  0  0  0  0  0  0  0  0  0
  141.7524   82.5665  223.8598 H   0  0  0  0  0  0  0  0  0  0  0  0
  139.1281   69.9217  222.5378 H   0  0  0  0  0  0  0  0  0  0  0  0
  138.9755   68.3859  224.4580 H   0  0  0  0  0  0  0  0  0  0  0  0
  139.4090   67.9412  226.7124 H   0  0  0  0  0  0  0  0  0  0  0  0
  141.4022   70.8887  229.1064 H   0  0  0  0  0  0  0  0  0  0  0  0
  141.5458   72.4116  227.1788 H   0  0  0  0  0  0  0  0  0  0  0  0
  1  2  2  0
  2  3  1  0
  3  4  1  0
  4  5  1  0
  5  6  2  0
  5  7  1  0
  7  8  1  0
  8  9  1  0
  9 10  1  0
 10 11  1  0
 11 12  1  0
 12 13  1  0
 13 14  1  0
 14 15  1  0
 15 16  2  0
 16 17  1  0
 17 18  2  0
  2 19  1  0
 19 20  2  0
 20 21  1  0
 21 22  2  0
 22 23  1  0
 23 24  2  0
 24 25  1  0
 24 26  1  0
 26 27  2  0
 27 28  1  0
 28 29  2  0
 12  7  1  0
 18 14  1  0
 29 19  1  0
 28 22  1  0
  3 30  1  0
  4 31  1  0
  4 32  1  0
  8 33  1  0
  8 34  1  0
  9 35  1  0
  9 36  1  0
 10 37  1  0
 10 38  1  0
 11 39  1  0
 11 40  1  0
 12 41  1  1
 13 42  1  0
 13 43  1  0
 15 44  1  0
 16 45  1  0
 17 46  1  0
 20 47  1  0
 21 48  1  0
 23 49  1  0
 26 50  1  0
 27 51  1  0
M  END
>  <smiles>  (11) 
O=C(NCC(=O)N1CCCC[C@H]1Cn1cccn1)c1ccc2cc(F)ccc2n1

>  <score_type>  (11) 
oracle

>  <origin>  (11) 
autodockgpu

>  <m_score__min__energy>  (11) 
-8.3000000000000007

>  <m_primary>  (11) 
energy

>  <rmsd>  (11) 
2.098700313313771

>  <m_score__min__rmsd>  (11) 
2.098700313313771

>  <meeko>  (11) 
{"free_energy": -8.21, "intermolecular_energy": -10.0, "internal_energy": -1.27, "cluster_size": 21, "cluster_id": 1, "rank_in_cluster": 5}

>  <energy>  (11) 
-8.02

>  <cluster_rmsd>  (11) 
1.61

>  <cluster>  (11) 
1

$$$$

     RDKit          3D

 51 54  0  0  0  0  0  0  0  0999 V2000
  141.2470   72.0260  221.4790 O   0  0  0  0  0  0  0  0  0  0  0  0
  140.4400   72.3910  222.3970 C   0  0  0  0  0  0  0  0  0  0  0  0
  139.7010   73.6080  222.3100 N   0  0  0  0  0  0  0  0  0  0  0  0
  139.8990   74.4440  221.1190 C   0  0  0  0  0  0  0  0  0  0  0  0
  139.2210   75.7330  221.2440 C   0  0  0  0  0  0  0  0  0  0  0  0
  138.0250   75.7330  221.6550 O   0  0  0  0  0  0  0  0  0  0  0  0
  139.7860   76.9970  220.9430 N   0  0  0  0  0  0  0  0  0  0  0  0
  139.3200   77.6660  219.7510 C   0  0  0  0  0  0  0  0  0  0  0  0
  139.4830   79.1400  219.7330 C   0  0  0  0  0  0  0  0  0  0  0  0
  140.7280   79.6770  220.3630 C   0  0  0  0  0  0  0  0  0  0  0  0
  141.5970   78.5290  220.7980 C   0  0  0  0  0  0  0  0  0  0  0  0
  140.7940   77.6540  221.7360 C   0  0  1  0  0  0  0  0  0  0  0  0
  140.2710   78.4250  222.9110 C   0  0  0  0  0  0  0  0  0  0  0  0
  141.2660   79.4310  223.2610 N   0  0  0  0  0  0  0  0  0  0  0  0
  140.9630   80.7500  223.4540 C   0  0  0  0  0  0  0  0  0  0  0  0
  142.1060   81.4500  223.7690 C   0  0  0  0  0  0  0  0  0  0  0  0
  143.1220   80.5210  223.7630 C   0  0  0  0  0  0  0  0  0  0  0  0
  142.5490   79.3470  223.4530 N   0  0  0  0  0  0  0  0  0  0  0  0
  140.2620   71.5390  223.5720 C   0  0  0  0  0  0  0  0  0  0  0  0
  139.6250   70.3210  223.4560 C   0  0  0  0  0  0  0  0  0  0  0  0
  139.4180   69.4640  224.5070 C   0  0  0  0  0  0  0  0  0  0  0  0
  139.8820   69.8600  225.7450 C   0  0  0  0  0  0  0  0  0  0  0  0
  139.6770   69.0050  226.7980 C   0  0  0  0  0  0  0  0  0  0  0  0
  140.1300   69.3710  228.0570 C   0  0  0  0  0  0  0  0  0  0  0  0
  139.9350   68.5350  229.1090 F   0  0  0  0  0  0  0  0  0  0  0  0
  140.7700   70.5910  228.1770 C   0  0  0  0  0  0  0  0  0  0  0  0
  140.9700   71.4430  227.1080 C   0  0  0  0  0  0  0  0  0  0  0  0
  140.5180   71.0780  225.8530 C   0  0  0  0  0  0  0  0  0  0  0  0
  140.7090   71.9050  224.8010 N   0  0  0  0  0  0  0  0  0  0  0  0
  139.0400   73.8980  223.0690 H   0  0  0  0  0  0  0  0  0  0  0  0
  140.9762   74.6197  220.9819 H   0  0  0  0  0  0  0  0  0  0  0  0
  139.4725   73.9149  220.2541 H   0  0  0  0  0  0  0  0  0  0  0  0
  139.8742   77.2546  218.8945 H   0  0  0  0  0  0  0  0  0  0  0  0
  138.2358   77.4847  219.7109 H   0  0  0  0  0  0  0  0  0  0  0  0
  139.4719   79.4655  218.6823 H   0  0  0  0  0  0  0  0  0  0  0  0
  138.6542   79.5339  220.3396 H   0  0  0  0  0  0  0  0  0  0  0  0
  141.2724   80.2948  219.6336 H   0  0  0  0  0  0  0  0  0  0  0  0
  140.4646   80.2925  221.2358 H   0  0  0  0  0  0  0  0  0  0  0  0
  141.9086   77.9447  219.9196 H   0  0  0  0  0  0  0  0  0  0  0  0
  142.4959   78.9060  221.3078 H   0  0  0  0  0  0  0  0  0  0  0  0
  141.4219   76.8820  222.2048 H   0  0  0  0  0  0  0  0  0  0  0  0
  139.3218   78.9136  222.6457 H   0  0  0  0  0  0  0  0  0  0  0  0
  140.0882   77.7524  223.7620 H   0  0  0  0  0  0  0  0  0  0  0  0
  139.9568   81.1866  223.3702 H   0  0  0  0  0  0  0  0  0  0  0  0
  142.1898   82.5261  223.9810 H   0  0  0  0  0  0  0  0  0  0  0  0
  144.1868   80.7035  223.9701 H   0  0  0  0  0  0  0  0  0  0  0  0
  139.2617   70.0192  222.4625 H   0  0  0  0  0  0  0  0  0  0  0  0
  138.9037   68.5015  224.3688 H   0  0  0  0  0  0  0  0  0  0  0  0
  139.1619   68.0450  226.6465 H   0  0  0  0  0  0  0  0  0  0  0  0
  141.1363   70.8968  229.1681 H   0  0  0  0  0  0  0  0  0  0  0  0
  141.4847   72.4041  227.2539 H   0  0  0  0  0  0  0  0  0  0  0  0
  1  2  2  0
  2  3  1  0
  3  4  1  0
  4  5  1  0
  5  6  2  0
  5  7  1  0
  7  8  1  0
  8  9  1  0
  9 10  1  0
 10 11  1  0
 11 12  1  0
 12 13  1  0
 13 14  1  0
 14 15  1  0
 15 16  2  0
 16 17  1  0
 17 18  2  0
  2 19  1  0
 19 20  2  0
 20 21  1  0
 21 22  2  0
 22 23  1  0
 23 24  2  0
 24 25  1  0
 24 26  1  0
 26 27  2  0
 27 28  1  0
 28 29  2  0
 12  7  1  0
 18 14  1  0
 29 19  1  0
 28 22  1  0
  3 30  1  0
  4 31  1  0
  4 32  1  0
  8 33  1  0
  8 34  1  0
  9 35  1  0
  9 36  1  0
 10 37  1  0
 10 38  1  0
 11 39  1  0
 11 40  1  0
 12 41  1  1
 13 42  1  0
 13 43  1  0
 15 44  1  0
 16 45  1  0
 17 46  1  0
 20 47  1  0
 21 48  1  0
 23 49  1  0
 26 50  1  0
 27 51  1  0
M  END
>  <smiles>  (12) 
O=C(NCC(=O)N1CCCC[C@H]1Cn1cccn1)c1ccc2cc(F)ccc2n1

>  <score_type>  (12) 
oracle

>  <origin>  (12) 
autodockgpu

>  <m_score__min__energy>  (12) 
-8.3000000000000007

>  <m_primary>  (12) 
energy

>  <rmsd>  (12) 
2.37283965897251

>  <m_score__min__rmsd>  (12) 
2.37283965897251

>  <meeko>  (12) 
{"free_energy": -8.03, "intermolecular_energy": -9.82, "internal_energy": -1.35, "cluster_size": 21, "cluster_id": 1, "rank_in_cluster": 10}

>  <energy>  (12) 
-8.02

>  <cluster_rmsd>  (12) 
0.66

>  <cluster>  (12) 
1

$$$$

     RDKit          3D

 51 54  0  0  0  0  0  0  0  0999 V2000
  140.2660   71.0410  221.2370 O   0  0  0  0  0  0  0  0  0  0  0  0
  140.0080   71.6770  222.3120 C   0  0  0  0  0  0  0  0  0  0  0  0
  139.7940   73.0870  222.3210 N   0  0  0  0  0  0  0  0  0  0  0  0
  139.8790   73.7990  221.0390 C   0  0  0  0  0  0  0  0  0  0  0  0
  140.4100   75.1510  221.2060 C   0  0  0  0  0  0  0  0  0  0  0  0
  140.2900   75.6960  222.3400 O   0  0  0  0  0  0  0  0  0  0  0  0
  141.0540   75.9160  220.2030 N   0  0  0  0  0  0  0  0  0  0  0  0
  140.8250   75.5350  218.8280 C   0  0  0  0  0  0  0  0  0  0  0  0
  141.0310   76.6040  217.8200 C   0  0  0  0  0  0  0  0  0  0  0  0
  142.1600   77.5500  218.0770 C   0  0  0  0  0  0  0  0  0  0  0  0
  142.9050   77.1080  219.3060 C   0  0  0  0  0  0  0  0  0  0  0  0
  141.9250   77.0360  220.4570 C   0  0  1  0  0  0  0  0  0  0  0  0
  141.2240   78.3430  220.6790 C   0  0  0  0  0  0  0  0  0  0  0  0
  141.5770   78.8150  222.0120 N   0  0  0  0  0  0  0  0  0  0  0  0
  142.3470   79.9220  222.2370 C   0  0  0  0  0  0  0  0  0  0  0  0
  142.5080   80.1130  223.5910 C   0  0  0  0  0  0  0  0  0  0  0  0
  141.8120   79.0880  224.1930 C   0  0  0  0  0  0  0  0  0  0  0  0
  141.2870   78.3590  223.1950 N   0  0  0  0  0  0  0  0  0  0  0  0
  139.9300   70.9420  223.5740 C   0  0  0  0  0  0  0  0  0  0  0  0
  139.3660   69.6830  223.6100 C   0  0  0  0  0  0  0  0  0  0  0  0
  139.2540   68.9290  224.7500 C   0  0  0  0  0  0  0  0  0  0  0  0
  139.7390   69.4780  225.9200 C   0  0  0  0  0  0  0  0  0  0  0  0
  139.6280   68.7260  227.0630 C   0  0  0  0  0  0  0  0  0  0  0  0
  140.1040   69.2470  228.2570 C   0  0  0  0  0  0  0  0  0  0  0  0
  140.0010   68.5140  229.3950 F   0  0  0  0  0  0  0  0  0  0  0  0
  140.6690   70.5080  228.2240 C   0  0  0  0  0  0  0  0  0  0  0  0
  140.7750   71.2550  227.0670 C   0  0  0  0  0  0  0  0  0  0  0  0
  140.3000   70.7370  225.8770 C   0  0  0  0  0  0  0  0  0  0  0  0
  140.3980   71.4600  224.7400 N   0  0  0  0  0  0  0  0  0  0  0  0
  139.5820   73.5990  223.2100 H   0  0  0  0  0  0  0  0  0  0  0  0
  140.5399   73.2374  220.3624 H   0  0  0  0  0  0  0  0  0  0  0  0
  138.8640   73.8781  220.6225 H   0  0  0  0  0  0  0  0  0  0  0  0
  141.5097   74.7082  218.5882 H   0  0  0  0  0  0  0  0  0  0  0  0
  139.7603   75.2659  218.7654 H   0  0  0  0  0  0  0  0  0  0  0  0
  141.2149   76.1188  216.8501 H   0  0  0  0  0  0  0  0  0  0  0  0
  140.1198   77.2192  217.8554 H   0  0  0  0  0  0  0  0  0  0  0  0
  142.8421   77.5519  217.2140 H   0  0  0  0  0  0  0  0  0  0  0  0
  141.7644   78.5650  218.2296 H   0  0  0  0  0  0  0  0  0  0  0  0
  143.3503   76.1169  219.1344 H   0  0  0  0  0  0  0  0  0  0  0  0
  143.7095   77.8214  219.5380 H   0  0  0  0  0  0  0  0  0  0  0  0
  142.4396   76.8636  221.4138 H   0  0  0  0  0  0  0  0  0  0  0  0
  141.5483   79.0748  219.9245 H   0  0  0  0  0  0  0  0  0  0  0  0
  140.1349   78.2155  220.5916 H   0  0  0  0  0  0  0  0  0  0  0  0
  142.7743   80.5645  221.4530 H   0  0  0  0  0  0  0  0  0  0  0  0
  143.0734   80.9153  224.0875 H   0  0  0  0  0  0  0  0  0  0  0  0
  141.7075   78.9040  225.2724 H   0  0  0  0  0  0  0  0  0  0  0  0
  138.9840   69.2595  222.6694 H   0  0  0  0  0  0  0  0  0  0  0  0
  138.7968   67.9286  224.7328 H   0  0  0  0  0  0  0  0  0  0  0  0
  139.1692   67.7267  227.0325 H   0  0  0  0  0  0  0  0  0  0  0  0
  141.0518   70.9363  229.1621 H   0  0  0  0  0  0  0  0  0  0  0  0
  141.2339   72.2544  227.0925 H   0  0  0  0  0  0  0  0  0  0  0  0
  1  2  2  0
  2  3  1  0
  3  4  1  0
  4  5  1  0
  5  6  2  0
  5  7  1  0
  7  8  1  0
  8  9  1  0
  9 10  1  0
 10 11  1  0
 11 12  1  0
 12 13  1  0
 13 14  1  0
 14 15  1  0
 15 16  2  0
 16 17  1  0
 17 18  2  0
  2 19  1  0
 19 20  2  0
 20 21  1  0
 21 22  2  0
 22 23  1  0
 23 24  2  0
 24 25  1  0
 24 26  1  0
 26 27  2  0
 27 28  1  0
 28 29  2  0
 12  7  1  0
 18 14  1  0
 29 19  1  0
 28 22  1  0
  3 30  1  0
  4 31  1  0
  4 32  1  0
  8 33  1  0
  8 34  1  0
  9 35  1  0
  9 36  1  0
 10 37  1  0
 10 38  1  0
 11 39  1  0
 11 40  1  0
 12 41  1  1
 13 42  1  0
 13 43  1  0
 15 44  1  0
 16 45  1  0
 17 46  1  0
 20 47  1  0
 21 48  1  0
 23 49  1  0
 26 50  1  0
 27 51  1  0
M  END
>  <smiles>  (13) 
O=C(NCC(=O)N1CCCC[C@H]1Cn1cccn1)c1ccc2cc(F)ccc2n1

>  <score_type>  (13) 
oracle

>  <origin>  (13) 
autodockgpu

>  <m_score__min__energy>  (13) 
-8.3000000000000007

>  <m_primary>  (13) 
energy

>  <rmsd>  (13) 
1.8336334264866614

>  <m_score__min__rmsd>  (13) 
1.8336334264866614

>  <meeko>  (13) 
{"free_energy": -8.01, "intermolecular_energy": -9.8, "internal_energy": -1.73, "cluster_size": 21, "cluster_id": 1, "rank_in_cluster": 14}

>  <energy>  (13) 
-8.01

>  <cluster_rmsd>  (13) 
0.73

>  <cluster>  (13) 
1

$$$$

     RDKit          3D

 51 54  0  0  0  0  0  0  0  0999 V2000
  141.2920   72.3970  221.6770 O   0  0  0  0  0  0  0  0  0  0  0  0
  140.2630   72.4590  222.4270 C   0  0  0  0  0  0  0  0  0  0  0  0
  139.1870   73.3570  222.1580 N   0  0  0  0  0  0  0  0  0  0  0  0
  139.3000   74.2220  220.9770 C   0  0  0  0  0  0  0  0  0  0  0  0
  140.2680   75.2980  221.1850 C   0  0  0  0  0  0  0  0  0  0  0  0
  140.4000   75.7550  222.3570 O   0  0  0  0  0  0  0  0  0  0  0  0
  141.0820   75.8820  220.1840 N   0  0  0  0  0  0  0  0  0  0  0  0
  140.9160   75.4050  218.8310 C   0  0  0  0  0  0  0  0  0  0  0  0
  141.3360   76.3430  217.7600 C   0  0  0  0  0  0  0  0  0  0  0  0
  142.5520   77.1660  218.0390 C   0  0  0  0  0  0  0  0  0  0  0  0
  143.1350   76.7540  219.3630 C   0  0  0  0  0  0  0  0  0  0  0  0
  142.0660   76.9090  220.4230 C   0  0  1  0  0  0  0  0  0  0  0  0
  141.5220   78.3050  220.4710 C   0  0  0  0  0  0  0  0  0  0  0  0
  141.7320   78.8170  221.8200 N   0  0  0  0  0  0  0  0  0  0  0  0
  142.3980   79.9800  222.0860 C   0  0  0  0  0  0  0  0  0  0  0  0
  142.4360   80.1960  223.4460 C   0  0  0  0  0  0  0  0  0  0  0  0
  141.7710   79.1300  224.0070 C   0  0  0  0  0  0  0  0  0  0  0  0
  141.3830   78.3530  222.9830 N   0  0  0  0  0  0  0  0  0  0  0  0
  140.1780   71.5850  223.5970 C   0  0  0  0  0  0  0  0  0  0  0  0
  139.5770   70.3470  223.4960 C   0  0  0  0  0  0  0  0  0  0  0  0
  139.4570   69.4690  224.5430 C   0  0  0  0  0  0  0  0  0  0  0  0
  139.9730   69.8650  225.7600 C   0  0  0  0  0  0  0  0  0  0  0  0
  139.8540   68.9880  226.8100 C   0  0  0  0  0  0  0  0  0  0  0  0
  140.3610   69.3530  228.0480 C   0  0  0  0  0  0  0  0  0  0  0  0
  140.2510   68.4960  229.0950 F   0  0  0  0  0  0  0  0  0  0  0  0
  140.9640   70.5920  228.1520 C   0  0  0  0  0  0  0  0  0  0  0  0
  141.0780   71.4660  227.0880 C   0  0  0  0  0  0  0  0  0  0  0  0
  140.5720   71.1030  225.8540 C   0  0  0  0  0  0  0  0  0  0  0  0
  140.6770   71.9500  224.8060 N   0  0  0  0  0  0  0  0  0  0  0  0
  138.3460   73.3990  222.7810 H   0  0  0  0  0  0  0  0  0  0  0  0
  139.6222   73.6136  220.1191 H   0  0  0  0  0  0  0  0  0  0  0  0
  138.3162   74.6773  220.7902 H   0  0  0  0  0  0  0  0  0  0  0  0
  141.5065   74.4832  218.7231 H   0  0  0  0  0  0  0  0  0  0  0  0
  139.8339   75.2612  218.6952 H   0  0  0  0  0  0  0  0  0  0  0  0
  141.5329   75.7507  216.8542 H   0  0  0  0  0  0  0  0  0  0  0  0
  140.5108   77.0636  217.6614 H   0  0  0  0  0  0  0  0  0  0  0  0
  143.2951   77.0057  217.2439 H   0  0  0  0  0  0  0  0  0  0  0  0
  142.2781   78.2309  218.0711 H   0  0  0  0  0  0  0  0  0  0  0  0
  143.4616   75.7047  219.3150 H   0  0  0  0  0  0  0  0  0  0  0  0
  144.0036   77.3835  219.6065 H   0  0  0  0  0  0  0  0  0  0  0  0
  142.4765   76.7675  221.4337 H   0  0  0  0  0  0  0  0  0  0  0  0
  142.0509   78.9383  219.7435 H   0  0  0  0  0  0  0  0  0  0  0  0
  140.4511   78.3098  220.2197 H   0  0  0  0  0  0  0  0  0  0  0  0
  142.8380   80.6444  221.3277 H   0  0  0  0  0  0  0  0  0  0  0  0
  142.9004   81.0427  223.9728 H   0  0  0  0  0  0  0  0  0  0  0  0
  141.5932   78.9507  225.0776 H   0  0  0  0  0  0  0  0  0  0  0  0
  139.1705   70.0467  222.5190 H   0  0  0  0  0  0  0  0  0  0  0  0
  138.9700   68.4906  224.4178 H   0  0  0  0  0  0  0  0  0  0  0  0
  139.3648   68.0126  226.6714 H   0  0  0  0  0  0  0  0  0  0  0  0
  141.3722   70.8965  229.1270 H   0  0  0  0  0  0  0  0  0  0  0  0
  141.5671   72.4421  227.2218 H   0  0  0  0  0  0  0  0  0  0  0  0
  1  2  2  0
  2  3  1  0
  3  4  1  0
  4  5  1  0
  5  6  2  0
  5  7  1  0
  7  8  1  0
  8  9  1  0
  9 10  1  0
 10 11  1  0
 11 12  1  0
 12 13  1  0
 13 14  1  0
 14 15  1  0
 15 16  2  0
 16 17  1  0
 17 18  2  0
  2 19  1  0
 19 20  2  0
 20 21  1  0
 21 22  2  0
 22 23  1  0
 23 24  2  0
 24 25  1  0
 24 26  1  0
 26 27  2  0
 27 28  1  0
 28 29  2  0
 12  7  1  0
 18 14  1  0
 29 19  1  0
 28 22  1  0
  3 30  1  0
  4 31  1  0
  4 32  1  0
  8 33  1  0
  8 34  1  0
  9 35  1  0
  9 36  1  0
 10 37  1  0
 10 38  1  0
 11 39  1  0
 11 40  1  0
 12 41  1  1
 13 42  1  0
 13 43  1  0
 15 44  1  0
 16 45  1  0
 17 46  1  0
 20 47  1  0
 21 48  1  0
 23 49  1  0
 26 50  1  0
 27 51  1  0
M  END
>  <smiles>  (14) 
O=C(NCC(=O)N1CCCC[C@H]1Cn1cccn1)c1ccc2cc(F)ccc2n1

>  <score_type>  (14) 
oracle

>  <origin>  (14) 
autodockgpu

>  <m_score__min__energy>  (14) 
-8.3000000000000007

>  <m_primary>  (14) 
energy

>  <rmsd>  (14) 
1.8974399664814

>  <m_score__min__rmsd>  (14) 
1.8974399664814

>  <meeko>  (14) 
{"free_energy": -8.29, "intermolecular_energy": -10.08, "internal_energy": -1.37, "cluster_size": 21, "cluster_id": 1, "rank_in_cluster": 2}

>  <energy>  (14) 
-8.01

>  <cluster_rmsd>  (14) 
0.74

>  <cluster>  (14) 
1

$$$$

     RDKit          3D

 51 54  0  0  0  0  0  0  0  0999 V2000
  140.5060   70.9550  221.7370 O   0  0  0  0  0  0  0  0  0  0  0  0
  140.2520   71.6890  222.7490 C   0  0  0  0  0  0  0  0  0  0  0  0
  139.8960   73.0640  222.6120 N   0  0  0  0  0  0  0  0  0  0  0  0
  139.8310   73.6200  221.2550 C   0  0  0  0  0  0  0  0  0  0  0  0
  140.1350   75.0500  221.2420 C   0  0  0  0  0  0  0  0  0  0  0  0
  139.6710   75.7610  222.1790 O   0  0  0  0  0  0  0  0  0  0  0  0
  140.9120   75.7210  220.2660 N   0  0  0  0  0  0  0  0  0  0  0  0
  140.7930   75.2710  218.8980 C   0  0  0  0  0  0  0  0  0  0  0  0
  141.1500   76.2660  217.8580 C   0  0  0  0  0  0  0  0  0  0  0  0
  142.2990   77.1700  218.1710 C   0  0  0  0  0  0  0  0  0  0  0  0
  142.9010   76.7660  219.4890 C   0  0  0  0  0  0  0  0  0  0  0  0
  141.8140   76.8110  220.5420 C   0  0  1  0  0  0  0  0  0  0  0  0
  141.1670   78.1620  220.6220 C   0  0  0  0  0  0  0  0  0  0  0  0
  141.5750   78.7760  221.8800 N   0  0  0  0  0  0  0  0  0  0  0  0
  141.3640   78.1980  223.1000 C   0  0  0  0  0  0  0  0  0  0  0  0
  141.8550   79.0140  224.0950 C   0  0  0  0  0  0  0  0  0  0  0  0
  142.3760   80.1110  223.4470 C   0  0  0  0  0  0  0  0  0  0  0  0
  142.1740   79.9000  222.1370 N   0  0  0  0  0  0  0  0  0  0  0  0
  140.3250   71.1080  224.0890 C   0  0  0  0  0  0  0  0  0  0  0  0
  140.7530   71.8730  225.1540 C   0  0  0  0  0  0  0  0  0  0  0  0
  140.8510   71.4050  226.4400 C   0  0  0  0  0  0  0  0  0  0  0  0
  140.4940   70.0900  226.6610 C   0  0  0  0  0  0  0  0  0  0  0  0
  140.5900   69.6190  227.9470 C   0  0  0  0  0  0  0  0  0  0  0  0
  140.2410   68.3010  228.2060 C   0  0  0  0  0  0  0  0  0  0  0  0
  140.3300   67.8210  229.4720 F   0  0  0  0  0  0  0  0  0  0  0  0
  139.8100   67.5330  227.1400 C   0  0  0  0  0  0  0  0  0  0  0  0
  139.7180   68.0190  225.8510 C   0  0  0  0  0  0  0  0  0  0  0  0
  140.0670   69.3320  225.5920 C   0  0  0  0  0  0  0  0  0  0  0  0
  139.9800   69.8170  224.3340 N   0  0  0  0  0  0  0  0  0  0  0  0
  139.6880   73.6570  223.4500 H   0  0  0  0  0  0  0  0  0  0  0  0
  140.5590   73.0949  220.6192 H   0  0  0  0  0  0  0  0  0  0  0  0
  138.8071   73.4834  220.8769 H   0  0  0  0  0  0  0  0  0  0  0  0
  141.4515   74.3990  218.7710 H   0  0  0  0  0  0  0  0  0  0  0  0
  139.7257   75.0513  218.7475 H   0  0  0  0  0  0  0  0  0  0  0  0
  141.3980   75.7152  216.9387 H   0  0  0  0  0  0  0  0  0  0  0  0
  140.2739   76.9255  217.7709 H   0  0  0  0  0  0  0  0  0  0  0  0
  143.0581   77.0879  217.3792 H   0  0  0  0  0  0  0  0  0  0  0  0
  141.9459   78.2101  218.2292 H   0  0  0  0  0  0  0  0  0  0  0  0
  143.3059   75.7459  219.4158 H   0  0  0  0  0  0  0  0  0  0  0  0
  143.7181   77.4514  219.7583 H   0  0  0  0  0  0  0  0  0  0  0  0
  142.2252   76.6719  221.5527 H   0  0  0  0  0  0  0  0  0  0  0  0
  141.4956   78.7852  219.7772 H   0  0  0  0  0  0  0  0  0  0  0  0
  140.0720   78.0677  220.5770 H   0  0  0  0  0  0  0  0  0  0  0  0
  140.8751   77.2262  223.2631 H   0  0  0  0  0  0  0  0  0  0  0  0
  141.8350   78.8282  225.1790 H   0  0  0  0  0  0  0  0  0  0  0  0
  142.8600   80.9840  223.9093 H   0  0  0  0  0  0  0  0  0  0  0  0
  141.0321   72.9194  224.9610 H   0  0  0  0  0  0  0  0  0  0  0  0
  141.1992   72.0502  227.2600 H   0  0  0  0  0  0  0  0  0  0  0  0
  140.9377   70.2753  228.7584 H   0  0  0  0  0  0  0  0  0  0  0  0
  139.5274   66.4866  227.3276 H   0  0  0  0  0  0  0  0  0  0  0  0
  139.3698   67.3670  225.0363 H   0  0  0  0  0  0  0  0  0  0  0  0
  1  2  2  0
  2  3  1  0
  3  4  1  0
  4  5  1  0
  5  6  2  0
  5  7  1  0
  7  8  1  0
  8  9  1  0
  9 10  1  0
 10 11  1  0
 11 12  1  0
 12 13  1  0
 13 14  1  0
 14 15  1  0
 15 16  2  0
 16 17  1  0
 17 18  2  0
  2 19  1  0
 19 20  2  0
 20 21  1  0
 21 22  2  0
 22 23  1  0
 23 24  2  0
 24 25  1  0
 24 26  1  0
 26 27  2  0
 27 28  1  0
 28 29  2  0
 12  7  1  0
 18 14  1  0
 29 19  1  0
 28 22  1  0
  3 30  1  0
  4 31  1  0
  4 32  1  0
  8 33  1  0
  8 34  1  0
  9 35  1  0
  9 36  1  0
 10 37  1  0
 10 38  1  0
 11 39  1  0
 11 40  1  0
 12 41  1  1
 13 42  1  0
 13 43  1  0
 15 44  1  0
 16 45  1  0
 17 46  1  0
 20 47  1  0
 21 48  1  0
 23 49  1  0
 26 50  1  0
 27 51  1  0
M  END
>  <smiles>  (15) 
O=C(NCC(=O)N1CCCC[C@H]1Cn1cccn1)c1ccc2cc(F)ccc2n1

>  <score_type>  (15) 
oracle

>  <origin>  (15) 
autodockgpu

>  <m_score__min__energy>  (15) 
-8.3000000000000007

>  <m_primary>  (15) 
energy

>  <rmsd>  (15) 
2.6698513379394866

>  <m_score__min__rmsd>  (15) 
2.6698513379394866

>  <meeko>  (15) 
{"free_energy": -7.86, "intermolecular_energy": -9.65, "internal_energy": -1.57, "cluster_size": 21, "cluster_id": 1, "rank_in_cluster": 17}

>  <energy>  (15) 
-8.0

>  <cluster_rmsd>  (15) 
0.49

>  <cluster>  (15) 
1

$$$$

     RDKit          3D

 51 54  0  0  0  0  0  0  0  0999 V2000
  141.2090   72.1210  221.5420 O   0  0  0  0  0  0  0  0  0  0  0  0
  140.3300   72.3950  222.4240 C   0  0  0  0  0  0  0  0  0  0  0  0
  139.4640   73.5220  222.3000 N   0  0  0  0  0  0  0  0  0  0  0  0
  139.6140   74.3710  221.1120 C   0  0  0  0  0  0  0  0  0  0  0  0
  140.8180   75.1970  221.1860 C   0  0  0  0  0  0  0  0  0  0  0  0
  141.2070   75.5710  222.3300 O   0  0  0  0  0  0  0  0  0  0  0  0
  141.5980   75.6230  220.0840 N   0  0  0  0  0  0  0  0  0  0  0  0
  141.3800   76.9650  219.5940 C   0  0  0  0  0  0  0  0  0  0  0  0
  142.5110   77.5720  218.8510 C   0  0  0  0  0  0  0  0  0  0  0  0
  143.2950   76.6530  217.9690 C   0  0  0  0  0  0  0  0  0  0  0  0
  142.6550   75.2920  217.9800 C   0  0  0  0  0  0  0  0  0  0  0  0
  142.5840   74.8110  219.4140 C   0  0  1  0  0  0  0  0  0  0  0  0
  143.9330   74.7910  220.0660 C   0  0  0  0  0  0  0  0  0  0  0  0
  144.5110   73.4700  219.8500 N   0  0  0  0  0  0  0  0  0  0  0  0
  143.8070   72.3090  220.0070 C   0  0  0  0  0  0  0  0  0  0  0  0
  144.6190   71.2300  219.7350 C   0  0  0  0  0  0  0  0  0  0  0  0
  145.8440   71.7640  219.4060 C   0  0  0  0  0  0  0  0  0  0  0  0
  145.7050   73.0970  219.4950 N   0  0  0  0  0  0  0  0  0  0  0  0
  140.2030   71.5320  223.5980 C   0  0  0  0  0  0  0  0  0  0  0  0
  139.5840   70.3030  223.4910 C   0  0  0  0  0  0  0  0  0  0  0  0
  139.4240   69.4350  224.5410 C   0  0  0  0  0  0  0  0  0  0  0  0
  139.9170   69.8310  225.7670 C   0  0  0  0  0  0  0  0  0  0  0  0
  139.7590   68.9640  226.8200 C   0  0  0  0  0  0  0  0  0  0  0  0
  140.2420   69.3300  228.0680 C   0  0  0  0  0  0  0  0  0  0  0  0
  140.0930   68.4830  229.1180 F   0  0  0  0  0  0  0  0  0  0  0  0
  140.8630   70.5610  228.1780 C   0  0  0  0  0  0  0  0  0  0  0  0
  141.0160   71.4240  227.1100 C   0  0  0  0  0  0  0  0  0  0  0  0
  140.5340   71.0600  225.8670 C   0  0  0  0  0  0  0  0  0  0  0  0
  140.6790   71.8970  224.8160 N   0  0  0  0  0  0  0  0  0  0  0  0
  138.7440   73.7370  223.0310 H   0  0  0  0  0  0  0  0  0  0  0  0
  139.6762   73.7292  220.2208 H   0  0  0  0  0  0  0  0  0  0  0  0
  138.7424   75.0397  221.0562 H   0  0  0  0  0  0  0  0  0  0  0  0
  140.5088   76.9420  218.9229 H   0  0  0  0  0  0  0  0  0  0  0  0
  141.2395   77.5905  220.4879 H   0  0  0  0  0  0  0  0  0  0  0  0
  142.1042   78.3758  218.2199 H   0  0  0  0  0  0  0  0  0  0  0  0
  143.2184   77.9127  219.6214 H   0  0  0  0  0  0  0  0  0  0  0  0
  143.3038   77.0472  216.9421 H   0  0  0  0  0  0  0  0  0  0  0  0
  144.3285   76.5785  218.3383 H   0  0  0  0  0  0  0  0  0  0  0  0
  141.6410   75.3545  217.5581 H   0  0  0  0  0  0  0  0  0  0  0  0
  143.2468   74.5902  217.3740 H   0  0  0  0  0  0  0  0  0  0  0  0
  142.2646   73.7600  219.4715 H   0  0  0  0  0  0  0  0  0  0  0  0
  144.5779   75.5601  219.6159 H   0  0  0  0  0  0  0  0  0  0  0  0
  143.8436   75.0008  221.1421 H   0  0  0  0  0  0  0  0  0  0  0  0
  142.7503   72.2457  220.3058 H   0  0  0  0  0  0  0  0  0  0  0  0
  144.3457   70.1652  219.7728 H   0  0  0  0  0  0  0  0  0  0  0  0
  146.7530   71.2111  219.1267 H   0  0  0  0  0  0  0  0  0  0  0  0
  139.1965   70.0021  222.5065 H   0  0  0  0  0  0  0  0  0  0  0  0
  138.9236   68.4641  224.4109 H   0  0  0  0  0  0  0  0  0  0  0  0
  139.2578   67.9954  226.6764 H   0  0  0  0  0  0  0  0  0  0  0  0
  141.2527   70.8667  229.1602 H   0  0  0  0  0  0  0  0  0  0  0  0
  141.5175   72.3932  227.2480 H   0  0  0  0  0  0  0  0  0  0  0  0
  1  2  2  0
  2  3  1  0
  3  4  1  0
  4  5  1  0
  5  6  2  0
  5  7  1  0
  7  8  1  0
  8  9  1  0
  9 10  1  0
 10 11  1  0
 11 12  1  0
 12 13  1  0
 13 14  1  0
 14 15  1  0
 15 16  2  0
 16 17  1  0
 17 18  2  0
  2 19  1  0
 19 20  2  0
 20 21  1  0
 21 22  2  0
 22 23  1  0
 23 24  2  0
 24 25  1  0
 24 26  1  0
 26 27  2  0
 27 28  1  0
 28 29  2  0
 12  7  1  0
 18 14  1  0
 29 19  1  0
 28 22  1  0
  3 30  1  0
  4 31  1  0
  4 32  1  0
  8 33  1  0
  8 34  1  0
  9 35  1  0
  9 36  1  0
 10 37  1  0
 10 38  1  0
 11 39  1  0
 11 40  1  0
 12 41  1  6
 13 42  1  0
 13 43  1  0
 15 44  1  0
 16 45  1  0
 17 46  1  0
 20 47  1  0
 21 48  1  0
 23 49  1  0
 26 50  1  0
 27 51  1  0
M  END
>  <smiles>  (16) 
O=C(NCC(=O)N1CCCC[C@H]1Cn1cccn1)c1ccc2cc(F)ccc2n1

>  <score_type>  (16) 
oracle

>  <origin>  (16) 
autodockgpu

>  <m_score__min__energy>  (16) 
-8.3000000000000007

>  <m_primary>  (16) 
energy

>  <rmsd>  (16) 
3.8979446526665624

>  <m_score__min__rmsd>  (16) 
3.8979446526665624

>  <meeko>  (16) 
{"free_energy": -7.81, "intermolecular_energy": -9.6, "internal_energy": -1.63, "cluster_size": 17, "cluster_id": 2, "rank_in_cluster": 13}

>  <energy>  (16) 
-7.96

>  <cluster_rmsd>  (16) 
1.68

>  <cluster>  (16) 
1

$$$$

     RDKit          3D

 51 54  0  0  0  0  0  0  0  0999 V2000
  141.2350   72.0140  221.8200 O   0  0  0  0  0  0  0  0  0  0  0  0
  140.2420   72.1190  222.6140 C   0  0  0  0  0  0  0  0  0  0  0  0
  139.1990   73.0670  222.3940 N   0  0  0  0  0  0  0  0  0  0  0  0
  139.3010   73.9330  221.2120 C   0  0  0  0  0  0  0  0  0  0  0  0
  139.6790   75.2980  221.5730 C   0  0  0  0  0  0  0  0  0  0  0  0
  139.3780   75.7060  222.7320 O   0  0  0  0  0  0  0  0  0  0  0  0
  140.3580   76.2170  220.7370 N   0  0  0  0  0  0  0  0  0  0  0  0
  140.2860   75.9960  219.3110 C   0  0  0  0  0  0  0  0  0  0  0  0
  140.5090   77.1900  218.4610 C   0  0  0  0  0  0  0  0  0  0  0  0
  141.5390   78.1630  218.9400 C   0  0  0  0  0  0  0  0  0  0  0  0
  142.1960   77.6180  220.1780 C   0  0  0  0  0  0  0  0  0  0  0  0
  141.1190   77.3470  221.2070 C   0  0  1  0  0  0  0  0  0  0  0  0
  140.3100   78.5730  221.5070 C   0  0  0  0  0  0  0  0  0  0  0  0
  141.1460   79.4770  222.2870 N   0  0  0  0  0  0  0  0  0  0  0  0
  141.8380   79.0880  223.3990 C   0  0  0  0  0  0  0  0  0  0  0  0
  142.5320   80.1590  223.9170 C   0  0  0  0  0  0  0  0  0  0  0  0
  142.2440   81.2200  223.0890 C   0  0  0  0  0  0  0  0  0  0  0  0
  141.4170   80.7410  222.1450 N   0  0  0  0  0  0  0  0  0  0  0  0
  140.1670   71.2430  223.7820 C   0  0  0  0  0  0  0  0  0  0  0  0
  139.5860   69.9960  223.6780 C   0  0  0  0  0  0  0  0  0  0  0  0
  139.4750   69.1160  224.7250 C   0  0  0  0  0  0  0  0  0  0  0  0
  139.9800   69.5190  225.9440 C   0  0  0  0  0  0  0  0  0  0  0  0
  139.8710   68.6400  226.9930 C   0  0  0  0  0  0  0  0  0  0  0  0
  140.3670   69.0120  228.2340 C   0  0  0  0  0  0  0  0  0  0  0  0
  140.2670   68.1540  229.2800 F   0  0  0  0  0  0  0  0  0  0  0  0
  140.9500   70.2620  228.3410 C   0  0  0  0  0  0  0  0  0  0  0  0
  141.0530   71.1370  227.2770 C   0  0  0  0  0  0  0  0  0  0  0  0
  140.5590   70.7660  226.0410 C   0  0  0  0  0  0  0  0  0  0  0  0
  140.6550   71.6160  224.9940 N   0  0  0  0  0  0  0  0  0  0  0  0
  138.3870   73.1430  223.0510 H   0  0  0  0  0  0  0  0  0  0  0  0
  140.0612   73.5205  220.5324 H   0  0  0  0  0  0  0  0  0  0  0  0
  138.3148   73.9674  220.7260 H   0  0  0  0  0  0  0  0  0  0  0  0
  141.0468   75.2467  219.0468 H   0  0  0  0  0  0  0  0  0  0  0  0
  139.2532   75.6750  219.1102 H   0  0  0  0  0  0  0  0  0  0  0  0
  140.8173   76.8392  217.4650 H   0  0  0  0  0  0  0  0  0  0  0  0
  139.5571   77.7410  218.4747 H   0  0  0  0  0  0  0  0  0  0  0  0
  142.2967   78.3121  218.1566 H   0  0  0  0  0  0  0  0  0  0  0  0
  141.0593   79.1259  219.1695 H   0  0  0  0  0  0  0  0  0  0  0  0
  142.7248   76.6838  219.9380 H   0  0  0  0  0  0  0  0  0  0  0  0
  142.9231   78.3433  220.5721 H   0  0  0  0  0  0  0  0  0  0  0  0
  141.5515   77.0889  222.1849 H   0  0  0  0  0  0  0  0  0  0  0  0
  140.0061   79.0600  220.5686 H   0  0  0  0  0  0  0  0  0  0  0  0
  139.4024   78.3072  222.0688 H   0  0  0  0  0  0  0  0  0  0  0  0
  141.8405   78.0710  223.8181 H   0  0  0  0  0  0  0  0  0  0  0  0
  143.1802   80.1651  224.8057 H   0  0  0  0  0  0  0  0  0  0  0  0
  142.6157   82.2512  223.1815 H   0  0  0  0  0  0  0  0  0  0  0  0
  139.1887   69.6895  222.6991 H   0  0  0  0  0  0  0  0  0  0  0  0
  139.0032   68.1305  224.5977 H   0  0  0  0  0  0  0  0  0  0  0  0
  139.3981   67.6569  226.8518 H   0  0  0  0  0  0  0  0  0  0  0  0
  141.3496   70.5732  229.3175 H   0  0  0  0  0  0  0  0  0  0  0  0
  141.5246   72.1215  227.4126 H   0  0  0  0  0  0  0  0  0  0  0  0
  1  2  2  0
  2  3  1  0
  3  4  1  0
  4  5  1  0
  5  6  2  0
  5  7  1  0
  7  8  1  0
  8  9  1  0
  9 10  1  0
 10 11  1  0
 11 12  1  0
 12 13  1  0
 13 14  1  0
 14 15  1  0
 15 16  2  0
 16 17  1  0
 17 18  2  0
  2 19  1  0
 19 20  2  0
 20 21  1  0
 21 22  2  0
 22 23  1  0
 23 24  2  0
 24 25  1  0
 24 26  1  0
 26 27  2  0
 27 28  1  0
 28 29  2  0
 12  7  1  0
 18 14  1  0
 29 19  1  0
 28 22  1  0
  3 30  1  0
  4 31  1  0
  4 32  1  0
  8 33  1  0
  8 34  1  0
  9 35  1  0
  9 36  1  0
 10 37  1  0
 10 38  1  0
 11 39  1  0
 11 40  1  0
 12 41  1  1
 13 42  1  0
 13 43  1  0
 15 44  1  0
 16 45  1  0
 17 46  1  0
 20 47  1  0
 21 48  1  0
 23 49  1  0
 26 50  1  0
 27 51  1  0
M  END
>  <smiles>  (17) 
O=C(NCC(=O)N1CCCC[C@H]1Cn1cccn1)c1ccc2cc(F)ccc2n1

>  <score_type>  (17) 
oracle

>  <origin>  (17) 
autodockgpu

>  <m_score__min__energy>  (17) 
-8.3000000000000007

>  <m_primary>  (17) 
energy

>  <rmsd>  (17) 
1.7137292126967456

>  <m_score__min__rmsd>  (17) 
1.7137292126967456

>  <meeko>  (17) 
{"free_energy": -8.06, "intermolecular_energy": -9.85, "internal_energy": -1.42, "cluster_size": 21, "cluster_id": 1, "rank_in_cluster": 8}

>  <energy>  (17) 
-7.86

>  <cluster_rmsd>  (17) 
0.86

>  <cluster>  (17) 
1

$$$$

     RDKit          3D

 51 54  0  0  0  0  0  0  0  0999 V2000
  135.2310   68.5210  224.1070 O   0  0  0  0  0  0  0  0  0  0  0  0
  135.7720   69.6170  224.4720 C   0  0  0  0  0  0  0  0  0  0  0  0
  137.1430   69.9070  224.2030 N   0  0  0  0  0  0  0  0  0  0  0  0
  137.9270   68.8940  223.4850 C   0  0  0  0  0  0  0  0  0  0  0  0
  138.8720   68.2150  224.3700 C   0  0  0  0  0  0  0  0  0  0  0  0
  139.1890   67.0230  224.0920 O   0  0  0  0  0  0  0  0  0  0  0  0
  139.4740   68.7760  225.5240 N   0  0  0  0  0  0  0  0  0  0  0  0
  140.0250   67.8610  226.4960 C   0  0  0  0  0  0  0  0  0  0  0  0
  141.0840   68.4150  227.3750 C   0  0  0  0  0  0  0  0  0  0  0  0
  140.9090   69.8350  227.8100 C   0  0  0  0  0  0  0  0  0  0  0  0
  139.5900   70.3490  227.3020 C   0  0  0  0  0  0  0  0  0  0  0  0
  139.5650   70.1880  225.7970 C   0  0  1  0  0  0  0  0  0  0  0  0
  140.7180   70.8860  225.1400 C   0  0  0  0  0  0  0  0  0  0  0  0
  140.2280   71.4870  223.9050 N   0  0  0  0  0  0  0  0  0  0  0  0
  141.0300   71.7550  222.8320 C   0  0  0  0  0  0  0  0  0  0  0  0
  140.2840   72.3210  221.8220 C   0  0  0  0  0  0  0  0  0  0  0  0
  138.9990   72.3920  222.3080 C   0  0  0  0  0  0  0  0  0  0  0  0
  139.0410   71.8800  223.5480 N   0  0  0  0  0  0  0  0  0  0  0  0
  134.9670   70.6080  225.1850 C   0  0  0  0  0  0  0  0  0  0  0  0
  134.0610   70.2040  226.1440 C   0  0  0  0  0  0  0  0  0  0  0  0
  133.2690   71.0670  226.8580 C   0  0  0  0  0  0  0  0  0  0  0  0
  133.4000   72.4140  226.5860 C   0  0  0  0  0  0  0  0  0  0  0  0
  132.6090   73.2810  227.2990 C   0  0  0  0  0  0  0  0  0  0  0  0
  132.7140   74.6420  227.0520 C   0  0  0  0  0  0  0  0  0  0  0  0
  131.9380   75.5110  227.7480 F   0  0  0  0  0  0  0  0  0  0  0  0
  133.6220   75.0490  226.0910 C   0  0  0  0  0  0  0  0  0  0  0  0
  134.4130   74.1660  225.3810 C   0  0  0  0  0  0  0  0  0  0  0  0
  134.3070   72.8100  225.6270 C   0  0  0  0  0  0  0  0  0  0  0  0
  135.0760   71.9390  224.9370 N   0  0  0  0  0  0  0  0  0  0  0  0
  137.5760   70.8110  224.5070 H   0  0  0  0  0  0  0  0  0  0  0  0
  137.2402   68.1487  223.0574 H   0  0  0  0  0  0  0  0  0  0  0  0
  138.5003   69.4005  222.6946 H   0  0  0  0  0  0  0  0  0  0  0  0
  139.2016   67.5133  227.1372 H   0  0  0  0  0  0  0  0  0  0  0  0
  140.5069   67.0612  225.9145 H   0  0  0  0  0  0  0  0  0  0  0  0
  141.1292   67.7907  228.2795 H   0  0  0  0  0  0  0  0  0  0  0  0
  142.0023   68.4050  226.7695 H   0  0  0  0  0  0  0  0  0  0  0  0
  140.9260   69.8880  228.9086 H   0  0  0  0  0  0  0  0  0  0  0  0
  141.7261   70.4493  227.4038 H   0  0  0  0  0  0  0  0  0  0  0  0
  138.7681   69.7724  227.7515 H   0  0  0  0  0  0  0  0  0  0  0  0
  139.4666   71.4082  227.5720 H   0  0  0  0  0  0  0  0  0  0  0  0
  138.6889   70.6828  225.3524 H   0  0  0  0  0  0  0  0  0  0  0  0
  141.1116   71.6677  225.8064 H   0  0  0  0  0  0  0  0  0  0  0  0
  141.5282   70.1734  224.9263 H   0  0  0  0  0  0  0  0  0  0  0  0
  142.1095   71.5496  222.7822 H   0  0  0  0  0  0  0  0  0  0  0  0
  140.6408   72.6477  220.8341 H   0  0  0  0  0  0  0  0  0  0  0  0
  138.1156   72.7883  221.7859 H   0  0  0  0  0  0  0  0  0  0  0  0
  133.9684   69.1270  226.3479 H   0  0  0  0  0  0  0  0  0  0  0  0
  132.5597   70.7012  227.6151 H   0  0  0  0  0  0  0  0  0  0  0  0
  131.9037   72.9025  228.0536 H   0  0  0  0  0  0  0  0  0  0  0  0
  133.7188   76.1247  225.8825 H   0  0  0  0  0  0  0  0  0  0  0  0
  135.1211   74.5391  224.6264 H   0  0  0  0  0  0  0  0  0  0  0  0
  1  2  2  0
  2  3  1  0
  3  4  1  0
  4  5  1  0
  5  6  2  0
  5  7  1  0
  7  8  1  0
  8  9  1  0
  9 10  1  0
 10 11  1  0
 11 12  1  0
 12 13  1  0
 13 14  1  0
 14 15  1  0
 15 16  2  0
 16 17  1  0
 17 18  2  0
  2 19  1  0
 19 20  2  0
 20 21  1  0
 21 22  2  0
 22 23  1  0
 23 24  2  0
 24 25  1  0
 24 26  1  0
 26 27  2  0
 27 28  1  0
 28 29  2  0
 12  7  1  0
 18 14  1  0
 29 19  1  0
 28 22  1  0
  3 30  1  0
  4 31  1  0
  4 32  1  0
  8 33  1  0
  8 34  1  0
  9 35  1  0
  9 36  1  0
 10 37  1  0
 10 38  1  0
 11 39  1  0
 11 40  1  0
 12 41  1  6
 13 42  1  0
 13 43  1  0
 15 44  1  0
 16 45  1  0
 17 46  1  0
 20 47  1  0
 21 48  1  0
 23 49  1  0
 26 50  1  0
 27 51  1  0
M  END
>  <smiles>  (18) 
O=C(NCC(=O)N1CCCC[C@H]1Cn1cccn1)c1ccc2cc(F)ccc2n1

>  <score_type>  (18) 
oracle

>  <origin>  (18) 
autodockgpu

>  <m_score__min__energy>  (18) 
-8.3000000000000007

>  <m_primary>  (18) 
energy

>  <rmsd>  (18) 
8.535102256439417

>  <m_score__min__rmsd>  (18) 
8.535102256439417

>  <meeko>  (18) 
{"free_energy": -7.12, "intermolecular_energy": -8.91, "internal_energy": -2.42, "cluster_size": 1, "cluster_id": 5, "rank_in_cluster": 1}

>  <energy>  (18) 
-7.81

>  <cluster_rmsd>  (18) 
1.13

>  <cluster>  (18) 
1

$$$$

     RDKit          3D

 51 54  0  0  0  0  0  0  0  0999 V2000
  139.2760   70.4210  221.2470 O   0  0  0  0  0  0  0  0  0  0  0  0
  139.2320   71.2770  222.1920 C   0  0  0  0  0  0  0  0  0  0  0  0
  138.7710   72.6100  221.9790 N   0  0  0  0  0  0  0  0  0  0  0  0
  138.3440   72.9770  220.6220 C   0  0  0  0  0  0  0  0  0  0  0  0
  137.5500   74.2040  220.6180 C   0  0  0  0  0  0  0  0  0  0  0  0
  137.4880   74.8650  219.5410 O   0  0  0  0  0  0  0  0  0  0  0  0
  136.8340   74.7290  221.7220 N   0  0  0  0  0  0  0  0  0  0  0  0
  135.9530   73.8300  222.4310 C   0  0  0  0  0  0  0  0  0  0  0  0
  135.6490   74.1980  223.8360 C   0  0  0  0  0  0  0  0  0  0  0  0
  135.4920   75.6570  224.1200 C   0  0  0  0  0  0  0  0  0  0  0  0
  135.5910   76.4260  222.8310 C   0  0  0  0  0  0  0  0  0  0  0  0
  136.9170   76.0940  222.1800 C   0  0  1  0  0  0  0  0  0  0  0  0
  138.0750   76.3860  223.0860 C   0  0  0  0  0  0  0  0  0  0  0  0
  139.2980   76.0630  222.3630 N   0  0  0  0  0  0  0  0  0  0  0  0
  139.9360   76.9430  221.5350 C   0  0  0  0  0  0  0  0  0  0  0  0
  141.0570   76.3510  220.9960 C   0  0  0  0  0  0  0  0  0  0  0  0
  141.0880   75.0790  221.5200 C   0  0  0  0  0  0  0  0  0  0  0  0
  140.0150   74.9790  222.3210 N   0  0  0  0  0  0  0  0  0  0  0  0
  139.6630   70.8850  223.5320 C   0  0  0  0  0  0  0  0  0  0  0  0
  140.3380   71.7820  224.3340 C   0  0  0  0  0  0  0  0  0  0  0  0
  140.7770   71.4930  225.6020 C   0  0  0  0  0  0  0  0  0  0  0  0
  140.5180   70.2270  226.0860 C   0  0  0  0  0  0  0  0  0  0  0  0
  140.9550   69.9350  227.3540 C   0  0  0  0  0  0  0  0  0  0  0  0
  140.7130   68.6710  227.8720 C   0  0  0  0  0  0  0  0  0  0  0  0
  141.1390   68.3680  229.1250 F   0  0  0  0  0  0  0  0  0  0  0  0
  140.0360   67.7700  227.0710 C   0  0  0  0  0  0  0  0  0  0  0  0
  139.6010   68.0770  225.7960 C   0  0  0  0  0  0  0  0  0  0  0  0
  139.8430   69.3360  225.2790 C   0  0  0  0  0  0  0  0  0  0  0  0
  139.4210   69.6450  224.0330 N   0  0  0  0  0  0  0  0  0  0  0  0
  138.7380   73.3050  222.7620 H   0  0  0  0  0  0  0  0  0  0  0  0
  139.2360   73.1277  219.9962 H   0  0  0  0  0  0  0  0  0  0  0  0
  137.7184   72.1627  220.2276 H   0  0  0  0  0  0  0  0  0  0  0  0
  135.0018   73.7857  221.8804 H   0  0  0  0  0  0  0  0  0  0  0  0
  136.4855   72.8688  222.4825 H   0  0  0  0  0  0  0  0  0  0  0  0
  134.7099   73.6990  224.1173 H   0  0  0  0  0  0  0  0  0  0  0  0
  136.5257   73.8788  224.4187 H   0  0  0  0  0  0  0  0  0  0  0  0
  134.5103   75.8382  224.5819 H   0  0  0  0  0  0  0  0  0  0  0  0
  136.2842   75.9865  224.8083 H   0  0  0  0  0  0  0  0  0  0  0  0
  134.7661   76.1389  222.1623 H   0  0  0  0  0  0  0  0  0  0  0  0
  135.5255   77.5062  223.0281 H   0  0  0  0  0  0  0  0  0  0  0  0
  137.1120   76.7395  221.3109 H   0  0  0  0  0  0  0  0  0  0  0  0
  138.0742   77.4505  223.3633 H   0  0  0  0  0  0  0  0  0  0  0  0
  138.0032   75.7880  224.0065 H   0  0  0  0  0  0  0  0  0  0  0  0
  139.6039   77.9713  221.3294 H   0  0  0  0  0  0  0  0  0  0  0  0
  141.7757   76.8002  220.2948 H   0  0  0  0  0  0  0  0  0  0  0  0
  141.8401   74.3010  221.3225 H   0  0  0  0  0  0  0  0  0  0  0  0
  140.5359   72.7874  223.9340 H   0  0  0  0  0  0  0  0  0  0  0  0
  141.3128   72.2393  226.2070 H   0  0  0  0  0  0  0  0  0  0  0  0
  141.4882   70.6907  227.9495 H   0  0  0  0  0  0  0  0  0  0  0  0
  139.8347   66.7635  227.4666 H   0  0  0  0  0  0  0  0  0  0  0  0
  139.0662   67.3253  225.1969 H   0  0  0  0  0  0  0  0  0  0  0  0
  1  2  2  0
  2  3  1  0
  3  4  1  0
  4  5  1  0
  5  6  2  0
  5  7  1  0
  7  8  1  0
  8  9  1  0
  9 10  1  0
 10 11  1  0
 11 12  1  0
 12 13  1  0
 13 14  1  0
 14 15  1  0
 15 16  2  0
 16 17  1  0
 17 18  2  0
  2 19  1  0
 19 20  2  0
 20 21  1  0
 21 22  2  0
 22 23  1  0
 23 24  2  0
 24 25  1  0
 24 26  1  0
 26 27  2  0
 27 28  1  0
 28 29  2  0
 12  7  1  0
 18 14  1  0
 29 19  1  0
 28 22  1  0
  3 30  1  0
  4 31  1  0
  4 32  1  0
  8 33  1  0
  8 34  1  0
  9 35  1  0
  9 36  1  0
 10 37  1  0
 10 38  1  0
 11 39  1  0
 11 40  1  0
 12 41  1  6
 13 42  1  0
 13 43  1  0
 15 44  1  0
 16 45  1  0
 17 46  1  0
 20 47  1  0
 21 48  1  0
 23 49  1  0
 26 50  1  0
 27 51  1  0
M  END
>  <smiles>  (19) 
O=C(NCC(=O)N1CCCC[C@H]1Cn1cccn1)c1ccc2cc(F)ccc2n1

>  <score_type>  (19) 
oracle

>  <origin>  (19) 
autodockgpu

>  <m_score__min__energy>  (19) 
-8.3000000000000007

>  <m_primary>  (19) 
energy

>  <rmsd>  (19) 
4.45233962507691

>  <m_score__min__rmsd>  (19) 
4.45233962507691

>  <meeko>  (19) 
{"free_energy": -6.73, "intermolecular_energy": -8.52, "internal_energy": -2.58, "cluster_size": 3, "cluster_id": 7, "rank_in_cluster": 2}

>  <energy>  (19) 
-7.78

>  <cluster_rmsd>  (19) 
1.03

>  <cluster>  (19) 
1

$$$$

     RDKit          3D

 51 54  0  0  0  0  0  0  0  0999 V2000
  142.0410   74.1830  220.4830 O   0  0  0  0  0  0  0  0  0  0  0  0
  141.2170   74.8110  221.2280 C   0  0  0  0  0  0  0  0  0  0  0  0
  140.2000   74.1350  221.9650 N   0  0  0  0  0  0  0  0  0  0  0  0
  140.1250   72.6740  221.8420 C   0  0  0  0  0  0  0  0  0  0  0  0
  138.9340   72.1370  222.4990 C   0  0  0  0  0  0  0  0  0  0  0  0
  137.9140   72.8810  222.5730 O   0  0  0  0  0  0  0  0  0  0  0  0
  138.8160   70.8450  223.0690 N   0  0  0  0  0  0  0  0  0  0  0  0
  138.4210   69.7670  222.1930 C   0  0  0  0  0  0  0  0  0  0  0  0
  138.8140   68.4050  222.6280 C   0  0  0  0  0  0  0  0  0  0  0  0
  138.7530   68.1350  224.0980 C   0  0  0  0  0  0  0  0  0  0  0  0
  138.1890   69.3400  224.7990 C   0  0  0  0  0  0  0  0  0  0  0  0
  139.0530   70.5360  224.4570 C   0  0  1  0  0  0  0  0  0  0  0  0
  140.4900   70.3110  224.8180 C   0  0  0  0  0  0  0  0  0  0  0  0
  140.7520   71.0240  226.0620 N   0  0  0  0  0  0  0  0  0  0  0  0
  140.2960   70.6020  227.2790 C   0  0  0  0  0  0  0  0  0  0  0  0
  140.7010   71.4800  228.2600 C   0  0  0  0  0  0  0  0  0  0  0  0
  141.4220   72.4540  227.6080 C   0  0  0  0  0  0  0  0  0  0  0  0
  141.4100   72.1180  226.3080 N   0  0  0  0  0  0  0  0  0  0  0  0
  141.3160   76.2670  221.3310 C   0  0  0  0  0  0  0  0  0  0  0  0
  141.6730   77.0180  220.2300 C   0  0  0  0  0  0  0  0  0  0  0  0
  141.7880   78.3850  220.2430 C   0  0  0  0  0  0  0  0  0  0  0  0
  141.5290   79.0280  221.4360 C   0  0  0  0  0  0  0  0  0  0  0  0
  141.6430   80.3960  221.4520 C   0  0  0  0  0  0  0  0  0  0  0  0
  141.3900   81.0760  222.6340 C   0  0  0  0  0  0  0  0  0  0  0  0
  141.4990   82.4290  222.6660 F   0  0  0  0  0  0  0  0  0  0  0  0
  141.0320   80.3260  223.7390 C   0  0  0  0  0  0  0  0  0  0  0  0
  140.9200   78.9490  223.7100 C   0  0  0  0  0  0  0  0  0  0  0  0
  141.1730   78.2710  222.5320 C   0  0  0  0  0  0  0  0  0  0  0  0
  141.0670   76.9250  222.4930 N   0  0  0  0  0  0  0  0  0  0  0  0
  139.5300   74.6620  222.5740 H   0  0  0  0  0  0  0  0  0  0  0  0
  140.0948   72.4070  220.7753 H   0  0  0  0  0  0  0  0  0  0  0  0
  141.0108   72.2425  222.3311 H   0  0  0  0  0  0  0  0  0  0  0  0
  137.3249   69.7895  222.1032 H   0  0  0  0  0  0  0  0  0  0  0  0
  138.9513   69.9426  221.2454 H   0  0  0  0  0  0  0  0  0  0  0  0
  138.1467   67.6878  222.1276 H   0  0  0  0  0  0  0  0  0  0  0  0
  139.8750   68.3049  222.3554 H   0  0  0  0  0  0  0  0  0  0  0  0
  138.1074   67.2644  224.2857 H   0  0  0  0  0  0  0  0  0  0  0  0
  139.7640   67.9261  224.4777 H   0  0  0  0  0  0  0  0  0  0  0  0
  137.1572   69.5177  224.4616 H   0  0  0  0  0  0  0  0  0  0  0  0
  138.1808   69.1767  225.8868 H   0  0  0  0  0  0  0  0  0  0  0  0
  138.7813   71.4158  225.0587 H   0  0  0  0  0  0  0  0  0  0  0  0
  140.6776   69.2359  224.9559 H   0  0  0  0  0  0  0  0  0  0  0  0
  141.1499   70.6775  224.0179 H   0  0  0  0  0  0  0  0  0  0  0  0
  139.6953   69.6965  227.4498 H   0  0  0  0  0  0  0  0  0  0  0  0
  140.4920   71.4160  229.3381 H   0  0  0  0  0  0  0  0  0  0  0  0
  141.9094   73.3303  228.0602 H   0  0  0  0  0  0  0  0  0  0  0  0
  141.8773   76.4899  219.2869 H   0  0  0  0  0  0  0  0  0  0  0  0
  142.0745   78.9448  219.3405 H   0  0  0  0  0  0  0  0  0  0  0  0
  141.9303   80.9438  220.5424 H   0  0  0  0  0  0  0  0  0  0  0  0
  140.8269   80.8494  224.6845 H   0  0  0  0  0  0  0  0  0  0  0  0
  140.6319   78.3969  224.6167 H   0  0  0  0  0  0  0  0  0  0  0  0
  1  2  2  0
  2  3  1  0
  3  4  1  0
  4  5  1  0
  5  6  2  0
  5  7  1  0
  7  8  1  0
  8  9  1  0
  9 10  1  0
 10 11  1  0
 11 12  1  0
 12 13  1  0
 13 14  1  0
 14 15  1  0
 15 16  2  0
 16 17  1  0
 17 18  2  0
  2 19  1  0
 19 20  2  0
 20 21  1  0
 21 22  2  0
 22 23  1  0
 23 24  2  0
 24 25  1  0
 24 26  1  0
 26 27  2  0
 27 28  1  0
 28 29  2  0
 12  7  1  0
 18 14  1  0
 29 19  1  0
 28 22  1  0
  3 30  1  0
  4 31  1  0
  4 32  1  0
  8 33  1  0
  8 34  1  0
  9 35  1  0
  9 36  1  0
 10 37  1  0
 10 38  1  0
 11 39  1  0
 11 40  1  0
 12 41  1  1
 13 42  1  0
 13 43  1  0
 15 44  1  0
 16 45  1  0
 17 46  1  0
 20 47  1  0
 21 48  1  0
 23 49  1  0
 26 50  1  0
 27 51  1  0
M  END
>  <smiles>  (20) 
O=C(NCC(=O)N1CCCC[C@H]1Cn1cccn1)c1ccc2cc(F)ccc2n1

>  <score_type>  (20) 
oracle

>  <origin>  (20) 
autodockgpu

>  <m_score__min__energy>  (20) 
-8.3000000000000007

>  <m_primary>  (20) 
energy

>  <rmsd>  (20) 
9.019963181069759

>  <m_score__min__rmsd>  (20) 
9.019963181069759

>  <meeko>  (20) 
{"free_energy": -7.35, "intermolecular_energy": -9.14, "internal_energy": -1.71, "cluster_size": 5, "cluster_id": 3, "rank_in_cluster": 5}

>  <energy>  (20) 
-7.78

>  <cluster_rmsd>  (20) 
1.38

>  <cluster>  (20) 
1

$$$$

     RDKit          3D

 51 54  0  0  0  0  0  0  0  0999 V2000
  137.9310   70.8550  222.0390 O   0  0  0  0  0  0  0  0  0  0  0  0
  138.7430   71.3320  222.8990 C   0  0  0  0  0  0  0  0  0  0  0  0
  139.2840   72.6460  222.7760 N   0  0  0  0  0  0  0  0  0  0  0  0
  138.8770   73.4470  221.6140 C   0  0  0  0  0  0  0  0  0  0  0  0
  139.6070   74.7120  221.5470 C   0  0  0  0  0  0  0  0  0  0  0  0
  140.7670   74.7520  222.0500 O   0  0  0  0  0  0  0  0  0  0  0  0
  139.1300   75.9120  220.9640 N   0  0  0  0  0  0  0  0  0  0  0  0
  138.0090   75.8110  220.0600 C   0  0  0  0  0  0  0  0  0  0  0  0
  137.2000   77.0430  219.8940 C   0  0  0  0  0  0  0  0  0  0  0  0
  137.9530   78.3350  219.8910 C   0  0  0  0  0  0  0  0  0  0  0  0
  139.4280   78.0480  219.9640 C   0  0  0  0  0  0  0  0  0  0  0  0
  139.6890   77.2190  221.2040 C   0  0  1  0  0  0  0  0  0  0  0  0
  139.1980   77.8980  222.4470 C   0  0  0  0  0  0  0  0  0  0  0  0
  140.2760   78.7400  222.9490 N   0  0  0  0  0  0  0  0  0  0  0  0
  140.2280   80.1050  222.9410 C   0  0  0  0  0  0  0  0  0  0  0  0
  141.3900   80.6170  223.4760 C   0  0  0  0  0  0  0  0  0  0  0  0
  142.1530   79.5230  223.8140 C   0  0  0  0  0  0  0  0  0  0  0  0
  141.4290   78.4450  223.4730 N   0  0  0  0  0  0  0  0  0  0  0  0
  139.1310   70.5130  224.0460 C   0  0  0  0  0  0  0  0  0  0  0  0
  138.8620   69.1590  224.0530 C   0  0  0  0  0  0  0  0  0  0  0  0
  139.1920   68.3210  225.0880 C   0  0  0  0  0  0  0  0  0  0  0  0
  139.8290   68.8830  226.1760 C   0  0  0  0  0  0  0  0  0  0  0  0
  140.1610   68.0460  227.2130 C   0  0  0  0  0  0  0  0  0  0  0  0
  140.8010   68.5770  228.3230 C   0  0  0  0  0  0  0  0  0  0  0  0
  141.1360   67.7620  229.3560 F   0  0  0  0  0  0  0  0  0  0  0  0
  141.0720   69.9330  228.3180 C   0  0  0  0  0  0  0  0  0  0  0  0
  140.7330   70.7630  227.2680 C   0  0  0  0  0  0  0  0  0  0  0  0
  140.0940   70.2350  226.1620 C   0  0  0  0  0  0  0  0  0  0  0  0
  139.7580   71.0400  225.1290 N   0  0  0  0  0  0  0  0  0  0  0  0
  139.9500   73.0280  223.4890 H   0  0  0  0  0  0  0  0  0  0  0  0
  139.0753   72.8720  220.6975 H   0  0  0  0  0  0  0  0  0  0  0  0
  137.8053   73.6743  221.7125 H   0  0  0  0  0  0  0  0  0  0  0  0
  138.3977   75.5268  219.0710 H   0  0  0  0  0  0  0  0  0  0  0  0
  137.3322   75.0672  220.5057 H   0  0  0  0  0  0  0  0  0  0  0  0
  136.6639   76.9654  218.9366 H   0  0  0  0  0  0  0  0  0  0  0  0
  136.5470   77.0863  220.7781 H   0  0  0  0  0  0  0  0  0  0  0  0
  137.7311   78.8880  218.9664 H   0  0  0  0  0  0  0  0  0  0  0  0
  137.6510   78.9408  220.7581 H   0  0  0  0  0  0  0  0  0  0  0  0
  139.7432   77.4899  219.0701 H   0  0  0  0  0  0  0  0  0  0  0  0
  139.9959   78.9889  220.0101 H   0  0  0  0  0  0  0  0  0  0  0  0
  140.7665   77.1051  221.3936 H   0  0  0  0  0  0  0  0  0  0  0  0
  138.3183   78.5157  222.2135 H   0  0  0  0  0  0  0  0  0  0  0  0
  138.9077   77.1534  223.2029 H   0  0  0  0  0  0  0  0  0  0  0  0
  139.3873   80.7058  222.5638 H   0  0  0  0  0  0  0  0  0  0  0  0
  141.6525   81.6773  223.6056 H   0  0  0  0  0  0  0  0  0  0  0  0
  143.1535   79.5302  224.2710 H   0  0  0  0  0  0  0  0  0  0  0  0
  138.3538   68.7270  223.1783 H   0  0  0  0  0  0  0  0  0  0  0  0
  138.9588   67.2466  225.0523 H   0  0  0  0  0  0  0  0  0  0  0  0
  139.9234   66.9731  227.1641 H   0  0  0  0  0  0  0  0  0  0  0  0
  141.5806   70.3701  229.1899 H   0  0  0  0  0  0  0  0  0  0  0  0
  140.9697   71.8364  227.3114 H   0  0  0  0  0  0  0  0  0  0  0  0
  1  2  2  0
  2  3  1  0
  3  4  1  0
  4  5  1  0
  5  6  2  0
  5  7  1  0
  7  8  1  0
  8  9  1  0
  9 10  1  0
 10 11  1  0
 11 12  1  0
 12 13  1  0
 13 14  1  0
 14 15  1  0
 15 16  2  0
 16 17  1  0
 17 18  2  0
  2 19  1  0
 19 20  2  0
 20 21  1  0
 21 22  2  0
 22 23  1  0
 23 24  2  0
 24 25  1  0
 24 26  1  0
 26 27  2  0
 27 28  1  0
 28 29  2  0
 12  7  1  0
 18 14  1  0
 29 19  1  0
 28 22  1  0
  3 30  1  0
  4 31  1  0
  4 32  1  0
  8 33  1  0
  8 34  1  0
  9 35  1  0
  9 36  1  0
 10 37  1  0
 10 38  1  0
 11 39  1  0
 11 40  1  0
 12 41  1  1
 13 42  1  0
 13 43  1  0
 15 44  1  0
 16 45  1  0
 17 46  1  0
 20 47  1  0
 21 48  1  0
 23 49  1  0
 26 50  1  0
 27 51  1  0
M  END
>  <smiles>  (21) 
O=C(NCC(=O)N1CCCC[C@H]1Cn1cccn1)c1ccc2cc(F)ccc2n1

>  <score_type>  (21) 
oracle

>  <origin>  (21) 
autodockgpu

>  <m_score__min__energy>  (21) 
-8.3000000000000007

>  <m_primary>  (21) 
energy

>  <rmsd>  (21) 
2.0013242798331805

>  <m_score__min__rmsd>  (21) 
2.0013242798331805

>  <meeko>  (21) 
{"free_energy": -7.26, "intermolecular_energy": -9.05, "internal_energy": -1.79, "cluster_size": 21, "cluster_id": 1, "rank_in_cluster": 21}

>  <energy>  (21) 
-7.26

>  <cluster_rmsd>  (21) 
1.87

>  <cluster>  (21) 
1

$$$$

     RDKit          3D

 51 54  0  0  0  0  0  0  0  0999 V2000
  141.3640   72.4230  221.7100 O   0  0  0  0  0  0  0  0  0  0  0  0
  140.3750   72.5450  222.5060 C   0  0  0  0  0  0  0  0  0  0  0  0
  139.4040   73.5770  222.3480 N   0  0  0  0  0  0  0  0  0  0  0  0
  139.5760   74.5110  221.2280 C   0  0  0  0  0  0  0  0  0  0  0  0
  139.8780   75.8640  221.6930 C   0  0  0  0  0  0  0  0  0  0  0  0
  141.0880   76.1520  221.9250 O   0  0  0  0  0  0  0  0  0  0  0  0
  138.9310   76.8940  221.9120 N   0  0  0  0  0  0  0  0  0  0  0  0
  137.5390   76.5130  221.9780 C   0  0  0  0  0  0  0  0  0  0  0  0
  136.6500   77.4420  222.7170 C   0  0  0  0  0  0  0  0  0  0  0  0
  136.9420   78.9000  222.5670 C   0  0  0  0  0  0  0  0  0  0  0  0
  138.0610   79.0810  221.5790 C   0  0  0  0  0  0  0  0  0  0  0  0
  139.2570   78.2900  222.0650 C   0  0  1  0  0  0  0  0  0  0  0  0
  139.6720   78.6940  223.4480 C   0  0  0  0  0  0  0  0  0  0  0  0
  140.8420   79.5540  223.3270 N   0  0  0  0  0  0  0  0  0  0  0  0
  142.1150   79.0740  223.1920 C   0  0  0  0  0  0  0  0  0  0  0  0
  143.0030   80.1230  223.1030 C   0  0  0  0  0  0  0  0  0  0  0  0
  142.2360   81.2630  223.1880 C   0  0  0  0  0  0  0  0  0  0  0  0
  140.9660   80.8480  223.3190 N   0  0  0  0  0  0  0  0  0  0  0  0
  140.2290   71.6000  223.6130 C   0  0  0  0  0  0  0  0  0  0  0  0
  139.5930   70.3920  223.4140 C   0  0  0  0  0  0  0  0  0  0  0  0
  139.4140   69.4530  224.3980 C   0  0  0  0  0  0  0  0  0  0  0  0
  139.9070   69.7510  225.6520 C   0  0  0  0  0  0  0  0  0  0  0  0
  139.7300   68.8120  226.6380 C   0  0  0  0  0  0  0  0  0  0  0  0
  140.2130   69.0790  227.9110 C   0  0  0  0  0  0  0  0  0  0  0  0
  140.0450   68.1600  228.8960 F   0  0  0  0  0  0  0  0  0  0  0  0
  140.8510   70.2890  228.1130 C   0  0  0  0  0  0  0  0  0  0  0  0
  141.0230   71.2250  227.1110 C   0  0  0  0  0  0  0  0  0  0  0  0
  140.5420   70.9600  225.8430 C   0  0  0  0  0  0  0  0  0  0  0  0
  140.7040   71.8690  224.8570 N   0  0  0  0  0  0  0  0  0  0  0  0
  138.5950   73.6680  223.0080 H   0  0  0  0  0  0  0  0  0  0  0  0
  140.4033   74.1590  220.5942 H   0  0  0  0  0  0  0  0  0  0  0  0
  138.6331   74.5454  220.6626 H   0  0  0  0  0  0  0  0  0  0  0  0
  137.1618   76.4328  220.9478 H   0  0  0  0  0  0  0  0  0  0  0  0
  137.5145   75.5668  222.5384 H   0  0  0  0  0  0  0  0  0  0  0  0
  135.6210   77.2690  222.3687 H   0  0  0  0  0  0  0  0  0  0  0  0
  136.8135   77.2188  223.7816 H   0  0  0  0  0  0  0  0  0  0  0  0
  136.0431   79.4198  222.2041 H   0  0  0  0  0  0  0  0  0  0  0  0
  137.2366   79.3199  223.5401 H   0  0  0  0  0  0  0  0  0  0  0  0
  137.7480   78.7126  220.5909 H   0  0  0  0  0  0  0  0  0  0  0  0
  138.3211   80.1463  221.4920 H   0  0  0  0  0  0  0  0  0  0  0  0
  140.1534   78.5039  221.4645 H   0  0  0  0  0  0  0  0  0  0  0  0
  138.8542   79.2413  223.9395 H   0  0  0  0  0  0  0  0  0  0  0  0
  139.9076   77.8066  224.0538 H   0  0  0  0  0  0  0  0  0  0  0  0
  142.3890   78.0092  223.1594 H   0  0  0  0  0  0  0  0  0  0  0  0
  144.0953   80.0626  222.9881 H   0  0  0  0  0  0  0  0  0  0  0  0
  142.5917   82.3034  223.1552 H   0  0  0  0  0  0  0  0  0  0  0  0
  139.2072   70.1689  222.4083 H   0  0  0  0  0  0  0  0  0  0  0  0
  138.8990   68.5023  224.1959 H   0  0  0  0  0  0  0  0  0  0  0  0
  139.2143   67.8646  226.4225 H   0  0  0  0  0  0  0  0  0  0  0  0
  141.2392   70.5168  229.1167 H   0  0  0  0  0  0  0  0  0  0  0  0
  141.5388   72.1736  227.3212 H   0  0  0  0  0  0  0  0  0  0  0  0
  1  2  2  0
  2  3  1  0
  3  4  1  0
  4  5  1  0
  5  6  2  0
  5  7  1  0
  7  8  1  0
  8  9  1  0
  9 10  1  0
 10 11  1  0
 11 12  1  0
 12 13  1  0
 13 14  1  0
 14 15  1  0
 15 16  2  0
 16 17  1  0
 17 18  2  0
  2 19  1  0
 19 20  2  0
 20 21  1  0
 21 22  2  0
 22 23  1  0
 23 24  2  0
 24 25  1  0
 24 26  1  0
 26 27  2  0
 27 28  1  0
 28 29  2  0
 12  7  1  0
 18 14  1  0
 29 19  1  0
 28 22  1  0
  3 30  1  0
  4 31  1  0
  4 32  1  0
  8 33  1  0
  8 34  1  0
  9 35  1  0
  9 36  1  0
 10 37  1  0
 10 38  1  0
 11 39  1  0
 11 40  1  0
 12 41  1  6
 13 42  1  0
 13 43  1  0
 15 44  1  0
 16 45  1  0
 17 46  1  0
 20 47  1  0
 21 48  1  0
 23 49  1  0
 26 50  1  0
 27 51  1  0
M  END
>  <smiles>  (22) 
O=C(NCC(=O)N1CCCC[C@H]1Cn1cccn1)c1ccc2cc(F)ccc2n1

>  <score_type>  (22) 
oracle

>  <origin>  (22) 
autodockgpu

>  <m_score__min__energy>  (22) 
-8.3000000000000007

>  <m_primary>  (22) 
energy

>  <rmsd>  (22) 
2.995844825045383

>  <m_score__min__rmsd>  (22) 
2.995844825045383

>  <meeko>  (22) 
{"free_energy": -8.08, "intermolecular_energy": -9.87, "internal_energy": -1.31, "cluster_size": 21, "cluster_id": 1, "rank_in_cluster": 7}

>  <energy>  (22) 
-8.02

>  <cluster_rmsd>  (22) 
0.0

>  <cluster>  (22) 
2

$$$$

     RDKit          3D

 51 54  0  0  0  0  0  0  0  0999 V2000
  140.0860   71.3420  221.1110 O   0  0  0  0  0  0  0  0  0  0  0  0
  139.9110   71.9250  222.2320 C   0  0  0  0  0  0  0  0  0  0  0  0
  139.7190   73.3360  222.3260 N   0  0  0  0  0  0  0  0  0  0  0  0
  139.7300   74.1110  221.0780 C   0  0  0  0  0  0  0  0  0  0  0  0
  140.5390   75.3230  221.2020 C   0  0  0  0  0  0  0  0  0  0  0  0
  140.7140   75.7990  222.3610 O   0  0  0  0  0  0  0  0  0  0  0  0
  141.1510   76.0210  220.1330 N   0  0  0  0  0  0  0  0  0  0  0  0
  140.8770   75.5560  218.7930 C   0  0  0  0  0  0  0  0  0  0  0  0
  141.0510   76.5590  217.7140 C   0  0  0  0  0  0  0  0  0  0  0  0
  142.1880   77.5160  217.8750 C   0  0  0  0  0  0  0  0  0  0  0  0
  142.9730   77.1490  219.1040 C   0  0  0  0  0  0  0  0  0  0  0  0
  142.0300   77.1530  220.2890 C   0  0  1  0  0  0  0  0  0  0  0  0
  141.3380   78.4730  220.4510 C   0  0  0  0  0  0  0  0  0  0  0  0
  141.7690   79.0470  221.7190 N   0  0  0  0  0  0  0  0  0  0  0  0
  141.3510   78.5800  222.9340 C   0  0  0  0  0  0  0  0  0  0  0  0
  141.9240   79.3240  223.9420 C   0  0  0  0  0  0  0  0  0  0  0  0
  142.7070   80.2620  223.3090 C   0  0  0  0  0  0  0  0  0  0  0  0
  142.5650   80.0380  221.9930 N   0  0  0  0  0  0  0  0  0  0  0  0
  139.9040   71.1280  223.4580 C   0  0  0  0  0  0  0  0  0  0  0  0
  139.3580   69.8610  223.4590 C   0  0  0  0  0  0  0  0  0  0  0  0
  139.3120   69.0500  224.5640 C   0  0  0  0  0  0  0  0  0  0  0  0
  139.8490   69.5480  225.7340 C   0  0  0  0  0  0  0  0  0  0  0  0
  139.8050   68.7380  226.8420 C   0  0  0  0  0  0  0  0  0  0  0  0
  140.3340   69.2060  228.0350 C   0  0  0  0  0  0  0  0  0  0  0  0
  140.2980   68.4170  229.1390 F   0  0  0  0  0  0  0  0  0  0  0  0
  140.8830   70.4750  228.0370 C   0  0  0  0  0  0  0  0  0  0  0  0
  140.9210   71.2800  226.9150 C   0  0  0  0  0  0  0  0  0  0  0  0
  140.3930   70.8140  225.7260 C   0  0  0  0  0  0  0  0  0  0  0  0
  140.4250   71.5940  224.6230 N   0  0  0  0  0  0  0  0  0  0  0  0
  139.5750   73.8040  223.2520 H   0  0  0  0  0  0  0  0  0  0  0  0
  140.1451   73.4859  220.2737 H   0  0  0  0  0  0  0  0  0  0  0  0
  138.6962   74.4101  220.8506 H   0  0  0  0  0  0  0  0  0  0  0  0
  141.5527   74.7137  218.5832 H   0  0  0  0  0  0  0  0  0  0  0  0
  139.8104   75.2870  218.7821 H   0  0  0  0  0  0  0  0  0  0  0  0
  141.2033   76.0135  216.7710 H   0  0  0  0  0  0  0  0  0  0  0  0
  140.1417   77.1776  217.7398 H   0  0  0  0  0  0  0  0  0  0  0  0
  142.8414   77.4630  216.9917 H   0  0  0  0  0  0  0  0  0  0  0  0
  141.7980   78.5394  217.9776 H   0  0  0  0  0  0  0  0  0  0  0  0
  143.4109   76.1475  218.9804 H   0  0  0  0  0  0  0  0  0  0  0  0
  143.7863   77.8721  219.2643 H   0  0  0  0  0  0  0  0  0  0  0  0
  142.5742   77.0406  221.2383 H   0  0  0  0  0  0  0  0  0  0  0  0
  141.6125   79.1439  219.6236 H   0  0  0  0  0  0  0  0  0  0  0  0
  140.2462   78.3393  220.4402 H   0  0  0  0  0  0  0  0  0  0  0  0
  140.6608   77.7368  223.0842 H   0  0  0  0  0  0  0  0  0  0  0  0
  141.7848   79.1953  225.0255 H   0  0  0  0  0  0  0  0  0  0  0  0
  143.3243   81.0382  223.7850 H   0  0  0  0  0  0  0  0  0  0  0  0
  138.9347   69.4789  222.5183 H   0  0  0  0  0  0  0  0  0  0  0  0
  138.8661   68.0454  224.5198 H   0  0  0  0  0  0  0  0  0  0  0  0
  139.3576   67.7348  226.7840 H   0  0  0  0  0  0  0  0  0  0  0  0
  141.3089   70.8612  228.9748 H   0  0  0  0  0  0  0  0  0  0  0  0
  141.3679   72.2837  226.9676 H   0  0  0  0  0  0  0  0  0  0  0  0
  1  2  2  0
  2  3  1  0
  3  4  1  0
  4  5  1  0
  5  6  2  0
  5  7  1  0
  7  8  1  0
  8  9  1  0
  9 10  1  0
 10 11  1  0
 11 12  1  0
 12 13  1  0
 13 14  1  0
 14 15  1  0
 15 16  2  0
 16 17  1  0
 17 18  2  0
  2 19  1  0
 19 20  2  0
 20 21  1  0
 21 22  2  0
 22 23  1  0
 23 24  2  0
 24 25  1  0
 24 26  1  0
 26 27  2  0
 27 28  1  0
 28 29  2  0
 12  7  1  0
 18 14  1  0
 29 19  1  0
 28 22  1  0
  3 30  1  0
  4 31  1  0
  4 32  1  0
  8 33  1  0
  8 34  1  0
  9 35  1  0
  9 36  1  0
 10 37  1  0
 10 38  1  0
 11 39  1  0
 11 40  1  0
 12 41  1  1
 13 42  1  0
 13 43  1  0
 15 44  1  0
 16 45  1  0
 17 46  1  0
 20 47  1  0
 21 48  1  0
 23 49  1  0
 26 50  1  0
 27 51  1  0
M  END
>  <smiles>  (23) 
O=C(NCC(=O)N1CCCC[C@H]1Cn1cccn1)c1ccc2cc(F)ccc2n1

>  <score_type>  (23) 
oracle

>  <origin>  (23) 
autodockgpu

>  <m_score__min__energy>  (23) 
-8.3000000000000007

>  <m_primary>  (23) 
energy

>  <rmsd>  (23) 
1.623280886339039

>  <m_score__min__rmsd>  (23) 
1.623280886339039

>  <meeko>  (23) 
{"free_energy": -8.0, "intermolecular_energy": -9.79, "internal_energy": -1.7, "cluster_size": 21, "cluster_id": 1, "rank_in_cluster": 15}

>  <energy>  (23) 
-8.0

>  <cluster_rmsd>  (23) 
0.1

>  <cluster>  (23) 
2

$$$$

     RDKit          3D

 51 54  0  0  0  0  0  0  0  0999 V2000
  140.7720   71.6110  221.1240 O   0  0  0  0  0  0  0  0  0  0  0  0
  140.3280   72.1860  222.1730 C   0  0  0  0  0  0  0  0  0  0  0  0
  139.9700   73.5670  222.1800 N   0  0  0  0  0  0  0  0  0  0  0  0
  140.1290   74.3200  220.9290 C   0  0  0  0  0  0  0  0  0  0  0  0
  140.7310   75.6320  221.1620 C   0  0  0  0  0  0  0  0  0  0  0  0
  140.7410   76.0750  222.3470 O   0  0  0  0  0  0  0  0  0  0  0  0
  141.3110   76.4630  220.1720 N   0  0  0  0  0  0  0  0  0  0  0  0
  140.8660   77.8370  220.1140 C   0  0  0  0  0  0  0  0  0  0  0  0
  141.8110   78.7950  219.4920 C   0  0  0  0  0  0  0  0  0  0  0  0
  142.5920   78.2910  218.3210 C   0  0  0  0  0  0  0  0  0  0  0  0
  142.1370   76.8970  217.9860 C   0  0  0  0  0  0  0  0  0  0  0  0
  142.3020   76.0340  219.2180 C   0  0  1  0  0  0  0  0  0  0  0  0
  143.7130   76.0450  219.7250 C   0  0  0  0  0  0  0  0  0  0  0  0
  144.0580   74.6820  220.1090 N   0  0  0  0  0  0  0  0  0  0  0  0
  143.2090   73.6220  219.9580 C   0  0  0  0  0  0  0  0  0  0  0  0
  143.8140   72.4700  220.4100 C   0  0  0  0  0  0  0  0  0  0  0  0
  145.0620   72.8560  220.8450 C   0  0  0  0  0  0  0  0  0  0  0  0
  145.1360   74.1800  220.6350 N   0  0  0  0  0  0  0  0  0  0  0  0
  140.1800   71.4110  223.4040 C   0  0  0  0  0  0  0  0  0  0  0  0
  139.5570   70.1800  223.3770 C   0  0  0  0  0  0  0  0  0  0  0  0
  139.3780   69.3910  224.4850 C   0  0  0  0  0  0  0  0  0  0  0  0
  139.8550   69.8740  225.6870 C   0  0  0  0  0  0  0  0  0  0  0  0
  139.6770   69.0860  226.7970 C   0  0  0  0  0  0  0  0  0  0  0  0
  140.1440   69.5400  228.0220 C   0  0  0  0  0  0  0  0  0  0  0  0
  139.9750   68.7730  229.1290 F   0  0  0  0  0  0  0  0  0  0  0  0
  140.7690   70.7740  228.0520 C   0  0  0  0  0  0  0  0  0  0  0  0
  140.9410   71.5560  226.9260 C   0  0  0  0  0  0  0  0  0  0  0  0
  140.4760   71.1040  225.7060 C   0  0  0  0  0  0  0  0  0  0  0  0
  140.6400   71.8630  224.5990 N   0  0  0  0  0  0  0  0  0  0  0  0
  139.6050   74.0290  223.0470 H   0  0  0  0  0  0  0  0  0  0  0  0
  140.7749   73.7471  220.2474 H   0  0  0  0  0  0  0  0  0  0  0  0
  139.1317   74.4725  220.4907 H   0  0  0  0  0  0  0  0  0  0  0  0
  139.9294   77.8645  219.5379 H   0  0  0  0  0  0  0  0  0  0  0  0
  140.7574   78.1605  221.1597 H   0  0  0  0  0  0  0  0  0  0  0  0
  141.2313   79.6678  219.1573 H   0  0  0  0  0  0  0  0  0  0  0  0
  142.5578   79.0158  220.2689 H   0  0  0  0  0  0  0  0  0  0  0  0
  142.4252   78.9502  217.4563 H   0  0  0  0  0  0  0  0  0  0  0  0
  143.6637   78.2804  218.5685 H   0  0  0  0  0  0  0  0  0  0  0  0
  141.0798   76.9137  217.6825 H   0  0  0  0  0  0  0  0  0  0  0  0
  142.7357   76.4921  217.1568 H   0  0  0  0  0  0  0  0  0  0  0  0
  142.1269   74.9717  218.9922 H   0  0  0  0  0  0  0  0  0  0  0  0
  144.3925   76.3944  218.9336 H   0  0  0  0  0  0  0  0  0  0  0  0
  143.8070   76.7228  220.5863 H   0  0  0  0  0  0  0  0  0  0  0  0
  142.1939   73.6800  219.5381 H   0  0  0  0  0  0  0  0  0  0  0  0
  143.3894   71.4553  220.4211 H   0  0  0  0  0  0  0  0  0  0  0  0
  145.8407   72.2104  221.2771 H   0  0  0  0  0  0  0  0  0  0  0  0
  139.1823   69.8099  222.4113 H   0  0  0  0  0  0  0  0  0  0  0  0
  138.8756   68.4147  224.4184 H   0  0  0  0  0  0  0  0  0  0  0  0
  139.1729   68.1116  226.7165 H   0  0  0  0  0  0  0  0  0  0  0  0
  141.1457   71.1491  229.0150 H   0  0  0  0  0  0  0  0  0  0  0  0
  141.4444   72.5312  227.0003 H   0  0  0  0  0  0  0  0  0  0  0  0
  1  2  2  0
  2  3  1  0
  3  4  1  0
  4  5  1  0
  5  6  2  0
  5  7  1  0
  7  8  1  0
  8  9  1  0
  9 10  1  0
 10 11  1  0
 11 12  1  0
 12 13  1  0
 13 14  1  0
 14 15  1  0
 15 16  2  0
 16 17  1  0
 17 18  2  0
  2 19  1  0
 19 20  2  0
 20 21  1  0
 21 22  2  0
 22 23  1  0
 23 24  2  0
 24 25  1  0
 24 26  1  0
 26 27  2  0
 27 28  1  0
 28 29  2  0
 12  7  1  0
 18 14  1  0
 29 19  1  0
 28 22  1  0
  3 30  1  0
  4 31  1  0
  4 32  1  0
  8 33  1  0
  8 34  1  0
  9 35  1  0
  9 36  1  0
 10 37  1  0
 10 38  1  0
 11 39  1  0
 11 40  1  0
 12 41  1  6
 13 42  1  0
 13 43  1  0
 15 44  1  0
 16 45  1  0
 17 46  1  0
 20 47  1  0
 21 48  1  0
 23 49  1  0
 26 50  1  0
 27 51  1  0
M  END
>  <smiles>  (24) 
O=C(NCC(=O)N1CCCC[C@H]1Cn1cccn1)c1ccc2cc(F)ccc2n1

>  <score_type>  (24) 
oracle

>  <origin>  (24) 
autodockgpu

>  <m_score__min__energy>  (24) 
-8.3000000000000007

>  <m_primary>  (24) 
energy

>  <rmsd>  (24) 
3.5099267084843384

>  <m_score__min__rmsd>  (24) 
3.5099267084843384

>  <meeko>  (24) 
{"free_energy": -7.88, "intermolecular_energy": -9.67, "internal_energy": -2.0, "cluster_size": 17, "cluster_id": 2, "rank_in_cluster": 9}

>  <energy>  (24) 
-8.0

>  <cluster_rmsd>  (24) 
0.09

>  <cluster>  (24) 
2

$$$$

     RDKit          3D

 51 54  0  0  0  0  0  0  0  0999 V2000
  137.2690   75.5930  222.1730 O   0  0  0  0  0  0  0  0  0  0  0  0
  138.5270   75.7380  222.3260 C   0  0  0  0  0  0  0  0  0  0  0  0
  139.4290   74.6370  222.2290 N   0  0  0  0  0  0  0  0  0  0  0  0
  138.8620   73.3120  221.9460 C   0  0  0  0  0  0  0  0  0  0  0  0
  139.6820   72.2420  222.5100 C   0  0  0  0  0  0  0  0  0  0  0  0
  140.9260   72.4440  222.6150 O   0  0  0  0  0  0  0  0  0  0  0  0
  139.2070   70.9840  222.9560 N   0  0  0  0  0  0  0  0  0  0  0  0
  138.8020   70.0320  221.9470 C   0  0  0  0  0  0  0  0  0  0  0  0
  138.8320   68.6070  222.3560 C   0  0  0  0  0  0  0  0  0  0  0  0
  138.4230   68.3110  223.7630 C   0  0  0  0  0  0  0  0  0  0  0  0
  137.9670   69.5840  224.4230 C   0  0  0  0  0  0  0  0  0  0  0  0
  139.0930   70.5930  224.3380 C   0  0  1  0  0  0  0  0  0  0  0  0
  140.3570   70.0750  224.9550 C   0  0  0  0  0  0  0  0  0  0  0  0
  140.6350   70.8770  226.1390 N   0  0  0  0  0  0  0  0  0  0  0  0
  140.1270   70.5920  227.3750 C   0  0  0  0  0  0  0  0  0  0  0  0
  140.5640   71.5270  228.2880 C   0  0  0  0  0  0  0  0  0  0  0  0
  141.3570   72.3960  227.5740 C   0  0  0  0  0  0  0  0  0  0  0  0
  141.3530   71.9480  226.3080 N   0  0  0  0  0  0  0  0  0  0  0  0
  139.0640   77.0690  222.6070 C   0  0  0  0  0  0  0  0  0  0  0  0
  138.2120   78.1460  222.7410 C   0  0  0  0  0  0  0  0  0  0  0  0
  138.6330   79.4250  223.0050 C   0  0  0  0  0  0  0  0  0  0  0  0
  139.9920   79.6260  223.1410 C   0  0  0  0  0  0  0  0  0  0  0  0
  140.4160   80.9040  223.4040 C   0  0  0  0  0  0  0  0  0  0  0  0
  141.7750   81.1430  223.5470 C   0  0  0  0  0  0  0  0  0  0  0  0
  142.2100   82.4020  223.8080 F   0  0  0  0  0  0  0  0  0  0  0  0
  142.6310   80.0650  223.4140 C   0  0  0  0  0  0  0  0  0  0  0  0
  142.1910   78.7830  223.1480 C   0  0  0  0  0  0  0  0  0  0  0  0
  140.8370   78.5450  223.0060 C   0  0  0  0  0  0  0  0  0  0  0  0
  140.3960   77.2940  222.7450 N   0  0  0  0  0  0  0  0  0  0  0  0
  140.4610   74.7680  222.3550 H   0  0  0  0  0  0  0  0  0  0  0  0
  137.8534   73.2554  222.3813 H   0  0  0  0  0  0  0  0  0  0  0  0
  138.8281   73.1793  220.8546 H   0  0  0  0  0  0  0  0  0  0  0  0
  137.7721   70.2755  221.6471 H   0  0  0  0  0  0  0  0  0  0  0  0
  139.5381   70.1256  221.1350 H   0  0  0  0  0  0  0  0  0  0  0  0
  138.1569   68.0526  221.6875 H   0  0  0  0  0  0  0  0  0  0  0  0
  139.8878   68.3057  222.2889 H   0  0  0  0  0  0  0  0  0  0  0  0
  137.5994   67.5818  223.7612 H   0  0  0  0  0  0  0  0  0  0  0  0
  139.2768   67.8928  224.3162 H   0  0  0  0  0  0  0  0  0  0  0  0
  137.0783   69.9738  223.9052 H   0  0  0  0  0  0  0  0  0  0  0  0
  137.7070   69.3937  225.4748 H   0  0  0  0  0  0  0  0  0  0  0  0
  138.8760   71.4915  224.9343 H   0  0  0  0  0  0  0  0  0  0  0  0
  140.2299   69.0199  225.2390 H   0  0  0  0  0  0  0  0  0  0  0  0
  141.1901   70.1434  224.2399 H   0  0  0  0  0  0  0  0  0  0  0  0
  139.4674   69.7427  227.6067 H   0  0  0  0  0  0  0  0  0  0  0  0
  140.3285   71.5698  229.3616 H   0  0  0  0  0  0  0  0  0  0  0  0
  141.8867   73.2787  227.9617 H   0  0  0  0  0  0  0  0  0  0  0  0
  137.1321   77.9689  222.6297 H   0  0  0  0  0  0  0  0  0  0  0  0
  137.9179   80.2550  223.1041 H   0  0  0  0  0  0  0  0  0  0  0  0
  139.6906   81.7253  223.4999 H   0  0  0  0  0  0  0  0  0  0  0  0
  143.7119   80.2364  223.5252 H   0  0  0  0  0  0  0  0  0  0  0  0
  142.9123   77.9583  223.0500 H   0  0  0  0  0  0  0  0  0  0  0  0
  1  2  2  0
  2  3  1  0
  3  4  1  0
  4  5  1  0
  5  6  2  0
  5  7  1  0
  7  8  1  0
  8  9  1  0
  9 10  1  0
 10 11  1  0
 11 12  1  0
 12 13  1  0
 13 14  1  0
 14 15  1  0
 15 16  2  0
 16 17  1  0
 17 18  2  0
  2 19  1  0
 19 20  2  0
 20 21  1  0
 21 22  2  0
 22 23  1  0
 23 24  2  0
 24 25  1  0
 24 26  1  0
 26 27  2  0
 27 28  1  0
 28 29  2  0
 12  7  1  0
 18 14  1  0
 29 19  1  0
 28 22  1  0
  3 30  1  0
  4 31  1  0
  4 32  1  0
  8 33  1  0
  8 34  1  0
  9 35  1  0
  9 36  1  0
 10 37  1  0
 10 38  1  0
 11 39  1  0
 11 40  1  0
 12 41  1  1
 13 42  1  0
 13 43  1  0
 15 44  1  0
 16 45  1  0
 17 46  1  0
 20 47  1  0
 21 48  1  0
 23 49  1  0
 26 50  1  0
 27 51  1  0
M  END
>  <smiles>  (25) 
O=C(NCC(=O)N1CCCC[C@H]1Cn1cccn1)c1ccc2cc(F)ccc2n1

>  <score_type>  (25) 
oracle

>  <origin>  (25) 
autodockgpu

>  <m_score__min__energy>  (25) 
-8.3000000000000007

>  <m_primary>  (25) 
energy

>  <rmsd>  (25) 
8.918962948698624

>  <m_score__min__rmsd>  (25) 
8.918962948698624

>  <meeko>  (25) 
{"free_energy": -7.57, "intermolecular_energy": -9.36, "internal_energy": -1.87, "cluster_size": 5, "cluster_id": 3, "rank_in_cluster": 2}

>  <energy>  (25) 
-7.98

>  <cluster_rmsd>  (25) 
0.12

>  <cluster>  (25) 
2

$$$$

     RDKit          3D

 51 54  0  0  0  0  0  0  0  0999 V2000
  140.7890   71.6990  221.1440 O   0  0  0  0  0  0  0  0  0  0  0  0
  140.3340   72.2480  222.2020 C   0  0  0  0  0  0  0  0  0  0  0  0
  139.9390   73.6190  222.2280 N   0  0  0  0  0  0  0  0  0  0  0  0
  140.0730   74.3930  220.9870 C   0  0  0  0  0  0  0  0  0  0  0  0
  140.7970   75.6440  221.2060 C   0  0  0  0  0  0  0  0  0  0  0  0
  140.9490   76.0370  222.3990 O   0  0  0  0  0  0  0  0  0  0  0  0
  141.3490   76.4680  220.1950 N   0  0  0  0  0  0  0  0  0  0  0  0
  140.8770   77.8310  220.1170 C   0  0  0  0  0  0  0  0  0  0  0  0
  141.7960   78.7950  219.4660 C   0  0  0  0  0  0  0  0  0  0  0  0
  142.5740   78.2850  218.2950 C   0  0  0  0  0  0  0  0  0  0  0  0
  142.1420   76.8760  217.9910 C   0  0  0  0  0  0  0  0  0  0  0  0
  142.3380   76.0390  219.2380 C   0  0  1  0  0  0  0  0  0  0  0  0
  143.7540   76.0880  219.7280 C   0  0  0  0  0  0  0  0  0  0  0  0
  144.1210   74.7440  220.1600 N   0  0  0  0  0  0  0  0  0  0  0  0
  143.2750   73.6740  220.0800 C   0  0  0  0  0  0  0  0  0  0  0  0
  143.9020   72.5460  220.5630 C   0  0  0  0  0  0  0  0  0  0  0  0
  145.1590   72.9580  220.9430 C   0  0  0  0  0  0  0  0  0  0  0  0
  145.2170   74.2720  220.6750 N   0  0  0  0  0  0  0  0  0  0  0  0
  140.2120   71.4540  223.4230 C   0  0  0  0  0  0  0  0  0  0  0  0
  139.5770   70.2290  223.3930 C   0  0  0  0  0  0  0  0  0  0  0  0
  139.4200   69.4230  224.4910 C   0  0  0  0  0  0  0  0  0  0  0  0
  139.9340   69.8800  225.6880 C   0  0  0  0  0  0  0  0  0  0  0  0
  139.7790   69.0760  226.7890 C   0  0  0  0  0  0  0  0  0  0  0  0
  140.2820   69.5040  228.0080 C   0  0  0  0  0  0  0  0  0  0  0  0
  140.1370   68.7200  229.1060 F   0  0  0  0  0  0  0  0  0  0  0  0
  140.9200   70.7310  228.0420 C   0  0  0  0  0  0  0  0  0  0  0  0
  141.0690   71.5310  226.9250 C   0  0  0  0  0  0  0  0  0  0  0  0
  140.5670   71.1050  225.7100 C   0  0  0  0  0  0  0  0  0  0  0  0
  140.7080   71.8800  224.6130 N   0  0  0  0  0  0  0  0  0  0  0  0
  139.5660   74.0600  223.1030 H   0  0  0  0  0  0  0  0  0  0  0  0
  140.6197   73.7894  220.2476 H   0  0  0  0  0  0  0  0  0  0  0  0
  139.0637   74.6394  220.6257 H   0  0  0  0  0  0  0  0  0  0  0  0
  139.9333   77.8297  219.5518 H   0  0  0  0  0  0  0  0  0  0  0  0
  140.7742   78.1719  221.1578 H   0  0  0  0  0  0  0  0  0  0  0  0
  141.1954   79.6500  219.1220 H   0  0  0  0  0  0  0  0  0  0  0  0
  142.5473   79.0440  220.2299 H   0  0  0  0  0  0  0  0  0  0  0  0
  142.3847   78.9248  217.4205 H   0  0  0  0  0  0  0  0  0  0  0  0
  143.6485   78.3000  218.5298 H   0  0  0  0  0  0  0  0  0  0  0  0
  141.0813   76.8668  217.6998 H   0  0  0  0  0  0  0  0  0  0  0  0
  142.7388   76.4670  217.1624 H   0  0  0  0  0  0  0  0  0  0  0  0
  142.1817   74.9692  219.0352 H   0  0  0  0  0  0  0  0  0  0  0  0
  144.4201   76.4155  218.9162 H   0  0  0  0  0  0  0  0  0  0  0  0
  143.8487   76.7997  220.5614 H   0  0  0  0  0  0  0  0  0  0  0  0
  142.2475   73.7080  219.6887 H   0  0  0  0  0  0  0  0  0  0  0  0
  143.4855   71.5301  220.6306 H   0  0  0  0  0  0  0  0  0  0  0  0
  145.9552   72.3362  221.3783 H   0  0  0  0  0  0  0  0  0  0  0  0
  139.1731   69.8787  222.4317 H   0  0  0  0  0  0  0  0  0  0  0  0
  138.9061   68.4530  224.4211 H   0  0  0  0  0  0  0  0  0  0  0  0
  139.2640   68.1076  226.7058 H   0  0  0  0  0  0  0  0  0  0  0  0
  141.3267   71.0856  229.0006 H   0  0  0  0  0  0  0  0  0  0  0  0
  141.5836   72.5001  227.0025 H   0  0  0  0  0  0  0  0  0  0  0  0
  1  2  2  0
  2  3  1  0
  3  4  1  0
  4  5  1  0
  5  6  2  0
  5  7  1  0
  7  8  1  0
  8  9  1  0
  9 10  1  0
 10 11  1  0
 11 12  1  0
 12 13  1  0
 13 14  1  0
 14 15  1  0
 15 16  2  0
 16 17  1  0
 17 18  2  0
  2 19  1  0
 19 20  2  0
 20 21  1  0
 21 22  2  0
 22 23  1  0
 23 24  2  0
 24 25  1  0
 24 26  1  0
 26 27  2  0
 27 28  1  0
 28 29  2  0
 12  7  1  0
 18 14  1  0
 29 19  1  0
 28 22  1  0
  3 30  1  0
  4 31  1  0
  4 32  1  0
  8 33  1  0
  8 34  1  0
  9 35  1  0
  9 36  1  0
 10 37  1  0
 10 38  1  0
 11 39  1  0
 11 40  1  0
 12 41  1  6
 13 42  1  0
 13 43  1  0
 15 44  1  0
 16 45  1  0
 17 46  1  0
 20 47  1  0
 21 48  1  0
 23 49  1  0
 26 50  1  0
 27 51  1  0
M  END
>  <smiles>  (26) 
O=C(NCC(=O)N1CCCC[C@H]1Cn1cccn1)c1ccc2cc(F)ccc2n1

>  <score_type>  (26) 
oracle

>  <origin>  (26) 
autodockgpu

>  <m_score__min__energy>  (26) 
-8.3000000000000007

>  <m_primary>  (26) 
energy

>  <rmsd>  (26) 
3.49246171531099

>  <m_score__min__rmsd>  (26) 
3.49246171531099

>  <meeko>  (26) 
{"free_energy": -7.94, "intermolecular_energy": -9.73, "internal_energy": -1.95, "cluster_size": 17, "cluster_id": 2, "rank_in_cluster": 5}

>  <energy>  (26) 
-7.94

>  <cluster_rmsd>  (26) 
0.48

>  <cluster>  (26) 
2

$$$$

     RDKit          3D

 51 54  0  0  0  0  0  0  0  0999 V2000
  140.0310   71.2300  221.0180 O   0  0  0  0  0  0  0  0  0  0  0  0
  139.8760   71.8390  222.1290 C   0  0  0  0  0  0  0  0  0  0  0  0
  139.6670   73.2480  222.1920 N   0  0  0  0  0  0  0  0  0  0  0  0
  139.6360   73.9920  220.9260 C   0  0  0  0  0  0  0  0  0  0  0  0
  140.3130   75.2820  221.0400 C   0  0  0  0  0  0  0  0  0  0  0  0
  141.5250   75.3470  220.6850 O   0  0  0  0  0  0  0  0  0  0  0  0
  139.7300   76.4820  221.5170 N   0  0  0  0  0  0  0  0  0  0  0  0
  138.3050   76.4790  221.7560 C   0  0  0  0  0  0  0  0  0  0  0  0
  137.8110   77.4890  222.7230 C   0  0  0  0  0  0  0  0  0  0  0  0
  138.4860   78.8230  222.6920 C   0  0  0  0  0  0  0  0  0  0  0  0
  139.4850   78.8460  221.5680 C   0  0  0  0  0  0  0  0  0  0  0  0
  140.4550   77.7020  221.7710 C   0  0  1  0  0  0  0  0  0  0  0  0
  141.1290   77.7690  223.1080 C   0  0  0  0  0  0  0  0  0  0  0  0
  141.6200   79.1300  223.2900 N   0  0  0  0  0  0  0  0  0  0  0  0
  142.8560   79.5430  222.8790 C   0  0  0  0  0  0  0  0  0  0  0  0
  143.0310   80.8730  223.1900 C   0  0  0  0  0  0  0  0  0  0  0  0
  141.8640   81.2650  223.8060 C   0  0  0  0  0  0  0  0  0  0  0  0
  141.0740   80.1790  223.8300 N   0  0  0  0  0  0  0  0  0  0  0  0
  139.9120   71.0730  223.3740 C   0  0  0  0  0  0  0  0  0  0  0  0
  139.5000   69.7560  223.3900 C   0  0  0  0  0  0  0  0  0  0  0  0
  139.5020   68.9690  224.5140 C   0  0  0  0  0  0  0  0  0  0  0  0
  139.9460   69.5460  225.6870 C   0  0  0  0  0  0  0  0  0  0  0  0
  139.9490   68.7610  226.8130 C   0  0  0  0  0  0  0  0  0  0  0  0
  140.3880   69.3090  228.0100 C   0  0  0  0  0  0  0  0  0  0  0  0
  140.3970   68.5450  229.1320 F   0  0  0  0  0  0  0  0  0  0  0  0
  140.8010   70.6280  227.9960 C   0  0  0  0  0  0  0  0  0  0  0  0
  140.7930   71.4070  226.8550 C   0  0  0  0  0  0  0  0  0  0  0  0
  140.3550   70.8620  225.6630 C   0  0  0  0  0  0  0  0  0  0  0  0
  140.3430   71.6160  224.5420 N   0  0  0  0  0  0  0  0  0  0  0  0
  139.5400   73.7380  223.1090 H   0  0  0  0  0  0  0  0  0  0  0  0
  140.1358   73.3946  220.1492 H   0  0  0  0  0  0  0  0  0  0  0  0
  138.5841   74.1789  220.6640 H   0  0  0  0  0  0  0  0  0  0  0  0
  137.8011   76.6574  220.7946 H   0  0  0  0  0  0  0  0  0  0  0  0
  138.0792   75.5003  222.2045 H   0  0  0  0  0  0  0  0  0  0  0  0
  136.7415   77.6500  222.5222 H   0  0  0  0  0  0  0  0  0  0  0  0
  138.0294   77.0734  223.7178 H   0  0  0  0  0  0  0  0  0  0  0  0
  137.7355   79.6114  222.5333 H   0  0  0  0  0  0  0  0  0  0  0  0
  139.0012   78.9987  223.6479 H   0  0  0  0  0  0  0  0  0  0  0  0
  138.9653   78.7267  220.6059 H   0  0  0  0  0  0  0  0  0  0  0  0
  140.0252   79.8042  221.5605 H   0  0  0  0  0  0  0  0  0  0  0  0
  141.2970   77.7574  221.0653 H   0  0  0  0  0  0  0  0  0  0  0  0
  140.4101   77.5208  223.9027 H   0  0  0  0  0  0  0  0  0  0  0  0
  141.9602   77.0501  223.1566 H   0  0  0  0  0  0  0  0  0  0  0  0
  143.5998   78.9082  222.3752 H   0  0  0  0  0  0  0  0  0  0  0  0
  143.9175   81.4923  222.9885 H   0  0  0  0  0  0  0  0  0  0  0  0
  141.6266   82.2647  224.1988 H   0  0  0  0  0  0  0  0  0  0  0  0
  139.1496   69.3113  222.4469 H   0  0  0  0  0  0  0  0  0  0  0  0
  139.1641   67.9227  224.4818 H   0  0  0  0  0  0  0  0  0  0  0  0
  139.6094   67.7157  226.7674 H   0  0  0  0  0  0  0  0  0  0  0  0
  141.1521   71.0780  228.9363 H   0  0  0  0  0  0  0  0  0  0  0  0
  141.1325   72.4525  226.8950 H   0  0  0  0  0  0  0  0  0  0  0  0
  1  2  2  0
  2  3  1  0
  3  4  1  0
  4  5  1  0
  5  6  2  0
  5  7  1  0
  7  8  1  0
  8  9  1  0
  9 10  1  0
 10 11  1  0
 11 12  1  0
 12 13  1  0
 13 14  1  0
 14 15  1  0
 15 16  2  0
 16 17  1  0
 17 18  2  0
  2 19  1  0
 19 20  2  0
 20 21  1  0
 21 22  2  0
 22 23  1  0
 23 24  2  0
 24 25  1  0
 24 26  1  0
 26 27  2  0
 27 28  1  0
 28 29  2  0
 12  7  1  0
 18 14  1  0
 29 19  1  0
 28 22  1  0
  3 30  1  0
  4 31  1  0
  4 32  1  0
  8 33  1  0
  8 34  1  0
  9 35  1  0
  9 36  1  0
 10 37  1  0
 10 38  1  0
 11 39  1  0
 11 40  1  0
 12 41  1  6
 13 42  1  0
 13 43  1  0
 15 44  1  0
 16 45  1  0
 17 46  1  0
 20 47  1  0
 21 48  1  0
 23 49  1  0
 26 50  1  0
 27 51  1  0
M  END
>  <smiles>  (27) 
O=C(NCC(=O)N1CCCC[C@H]1Cn1cccn1)c1ccc2cc(F)ccc2n1

>  <score_type>  (27) 
oracle

>  <origin>  (27) 
autodockgpu

>  <m_score__min__energy>  (27) 
-8.3000000000000007

>  <m_primary>  (27) 
energy

>  <rmsd>  (27) 
2.6895088544425443

>  <m_score__min__rmsd>  (27) 
2.6895088544425443

>  <meeko>  (27) 
{"free_energy": -8.02, "intermolecular_energy": -9.81, "internal_energy": -1.42, "cluster_size": 21, "cluster_id": 1, "rank_in_cluster": 11}

>  <energy>  (27) 
-7.94

>  <cluster_rmsd>  (27) 
0.15

>  <cluster>  (27) 
2

$$$$

     RDKit          3D

 51 54  0  0  0  0  0  0  0  0999 V2000
  140.7830   71.4810  221.1790 O   0  0  0  0  0  0  0  0  0  0  0  0
  140.3270   72.0650  222.2170 C   0  0  0  0  0  0  0  0  0  0  0  0
  139.9630   73.4440  222.2080 N   0  0  0  0  0  0  0  0  0  0  0  0
  140.1300   74.1860  220.9510 C   0  0  0  0  0  0  0  0  0  0  0  0
  140.6310   75.5390  221.1850 C   0  0  0  0  0  0  0  0  0  0  0  0
  140.5140   76.0180  222.3500 O   0  0  0  0  0  0  0  0  0  0  0  0
  141.2420   76.3740  220.2170 N   0  0  0  0  0  0  0  0  0  0  0  0
  140.8250   77.7560  220.1740 C   0  0  0  0  0  0  0  0  0  0  0  0
  141.7980   78.7050  219.5810 C   0  0  0  0  0  0  0  0  0  0  0  0
  142.5870   78.2040  218.4140 C   0  0  0  0  0  0  0  0  0  0  0  0
  142.1090   76.8250  218.0500 C   0  0  0  0  0  0  0  0  0  0  0  0
  142.2390   75.9390  219.2710 C   0  0  1  0  0  0  0  0  0  0  0  0
  143.6420   75.9150  219.7990 C   0  0  0  0  0  0  0  0  0  0  0  0
  143.9480   74.5430  220.1840 N   0  0  0  0  0  0  0  0  0  0  0  0
  145.2130   74.1050  220.4580 C   0  0  0  0  0  0  0  0  0  0  0  0
  145.1840   72.7680  220.7880 C   0  0  0  0  0  0  0  0  0  0  0  0
  143.8610   72.3970  220.7080 C   0  0  0  0  0  0  0  0  0  0  0  0
  143.1870   73.5010  220.3440 N   0  0  0  0  0  0  0  0  0  0  0  0
  140.1710   71.3010  223.4550 C   0  0  0  0  0  0  0  0  0  0  0  0
  139.5320   70.0780  223.4390 C   0  0  0  0  0  0  0  0  0  0  0  0
  139.3450   69.3010  224.5540 C   0  0  0  0  0  0  0  0  0  0  0  0
  139.8300   69.7870  225.7510 C   0  0  0  0  0  0  0  0  0  0  0  0
  139.6440   69.0100  226.8680 C   0  0  0  0  0  0  0  0  0  0  0  0
  140.1190   69.4680  228.0880 C   0  0  0  0  0  0  0  0  0  0  0  0
  139.9420   68.7120  229.2010 F   0  0  0  0  0  0  0  0  0  0  0  0
  140.7600   70.6930  228.1070 C   0  0  0  0  0  0  0  0  0  0  0  0
  140.9400   71.4640  226.9750 C   0  0  0  0  0  0  0  0  0  0  0  0
  140.4670   71.0090  225.7580 C   0  0  0  0  0  0  0  0  0  0  0  0
  140.6390   71.7560  224.6460 N   0  0  0  0  0  0  0  0  0  0  0  0
  139.5880   73.9130  223.0660 H   0  0  0  0  0  0  0  0  0  0  0  0
  140.8441   73.6471  220.3110 H   0  0  0  0  0  0  0  0  0  0  0  0
  139.1462   74.2636  220.4651 H   0  0  0  0  0  0  0  0  0  0  0  0
  139.8979   77.8107  219.5845 H   0  0  0  0  0  0  0  0  0  0  0  0
  140.7068   78.0654  221.2229 H   0  0  0  0  0  0  0  0  0  0  0  0
  141.2404   79.5940  219.2513 H   0  0  0  0  0  0  0  0  0  0  0  0
  142.5370   78.8991  220.3723 H   0  0  0  0  0  0  0  0  0  0  0  0
  142.4470   78.8800  217.5576 H   0  0  0  0  0  0  0  0  0  0  0  0
  143.6544   78.1679  218.6773 H   0  0  0  0  0  0  0  0  0  0  0  0
  141.0569   76.8679  217.7319 H   0  0  0  0  0  0  0  0  0  0  0  0
  142.7113   76.4212  217.2229 H   0  0  0  0  0  0  0  0  0  0  0  0
  142.0472   74.8839  219.0262 H   0  0  0  0  0  0  0  0  0  0  0  0
  144.3415   76.2499  219.0189 H   0  0  0  0  0  0  0  0  0  0  0  0
  143.7395   76.5882  220.6634 H   0  0  0  0  0  0  0  0  0  0  0  0
  146.1193   74.7273  220.4206 H   0  0  0  0  0  0  0  0  0  0  0  0
  146.0387   72.1306  221.0586 H   0  0  0  0  0  0  0  0  0  0  0  0
  143.4407   71.3993  220.9025 H   0  0  0  0  0  0  0  0  0  0  0  0
  139.1507   69.7048  222.4771 H   0  0  0  0  0  0  0  0  0  0  0  0
  138.8298   68.3308  224.4963 H   0  0  0  0  0  0  0  0  0  0  0  0
  139.1274   68.0415  226.7964 H   0  0  0  0  0  0  0  0  0  0  0  0
  141.1437   71.0704  229.0663 H   0  0  0  0  0  0  0  0  0  0  0  0
  141.4561   72.4332  227.0413 H   0  0  0  0  0  0  0  0  0  0  0  0
  1  2  2  0
  2  3  1  0
  3  4  1  0
  4  5  1  0
  5  6  2  0
  5  7  1  0
  7  8  1  0
  8  9  1  0
  9 10  1  0
 10 11  1  0
 11 12  1  0
 12 13  1  0
 13 14  1  0
 14 15  1  0
 15 16  2  0
 16 17  1  0
 17 18  2  0
  2 19  1  0
 19 20  2  0
 20 21  1  0
 21 22  2  0
 22 23  1  0
 23 24  2  0
 24 25  1  0
 24 26  1  0
 26 27  2  0
 27 28  1  0
 28 29  2  0
 12  7  1  0
 18 14  1  0
 29 19  1  0
 28 22  1  0
  3 30  1  0
  4 31  1  0
  4 32  1  0
  8 33  1  0
  8 34  1  0
  9 35  1  0
  9 36  1  0
 10 37  1  0
 10 38  1  0
 11 39  1  0
 11 40  1  0
 12 41  1  6
 13 42  1  0
 13 43  1  0
 15 44  1  0
 16 45  1  0
 17 46  1  0
 20 47  1  0
 21 48  1  0
 23 49  1  0
 26 50  1  0
 27 51  1  0
M  END
>  <smiles>  (28) 
O=C(NCC(=O)N1CCCC[C@H]1Cn1cccn1)c1ccc2cc(F)ccc2n1

>  <score_type>  (28) 
oracle

>  <origin>  (28) 
autodockgpu

>  <m_score__min__energy>  (28) 
-8.3000000000000007

>  <m_primary>  (28) 
energy

>  <rmsd>  (28) 
3.5659451575210124

>  <m_score__min__rmsd>  (28) 
3.5659451575210124

>  <meeko>  (28) 
{"free_energy": -7.92, "intermolecular_energy": -9.71, "internal_energy": -1.92, "cluster_size": 17, "cluster_id": 2, "rank_in_cluster": 8}

>  <energy>  (28) 
-7.93

>  <cluster_rmsd>  (28) 
0.47

>  <cluster>  (28) 
2

$$$$

     RDKit          3D

 51 54  0  0  0  0  0  0  0  0999 V2000
  139.9210   73.6340  222.4530 O   0  0  0  0  0  0  0  0  0  0  0  0
  140.2230   72.4030  222.3130 C   0  0  0  0  0  0  0  0  0  0  0  0
  140.6220   71.8630  221.0540 N   0  0  0  0  0  0  0  0  0  0  0  0
  140.6740   72.7760  219.9050 C   0  0  0  0  0  0  0  0  0  0  0  0
  141.7530   73.7540  220.0410 C   0  0  0  0  0  0  0  0  0  0  0  0
  141.4330   74.9630  220.2270 O   0  0  0  0  0  0  0  0  0  0  0  0
  143.1390   73.4680  219.9820 N   0  0  0  0  0  0  0  0  0  0  0  0
  144.0490   74.5110  220.3940 C   0  0  0  0  0  0  0  0  0  0  0  0
  145.3900   74.0590  220.8400 C   0  0  0  0  0  0  0  0  0  0  0  0
  145.9810   72.9040  220.0970 C   0  0  0  0  0  0  0  0  0  0  0  0
  145.0690   72.5270  218.9620 C   0  0  0  0  0  0  0  0  0  0  0  0
  143.7010   72.2190  219.5340 C   0  0  1  0  0  0  0  0  0  0  0  0
  143.7590   71.1420  220.5750 C   0  0  0  0  0  0  0  0  0  0  0  0
  143.2360   69.9190  219.9790 N   0  0  0  0  0  0  0  0  0  0  0  0
  144.0310   68.8920  219.5550 C   0  0  0  0  0  0  0  0  0  0  0  0
  143.2520   67.8810  219.0380 C   0  0  0  0  0  0  0  0  0  0  0  0
  141.9530   68.3180  219.1580 C   0  0  0  0  0  0  0  0  0  0  0  0
  142.0210   69.5340  219.7240 N   0  0  0  0  0  0  0  0  0  0  0  0
  140.1620   71.5160  223.4750 C   0  0  0  0  0  0  0  0  0  0  0  0
  139.6030   70.2600  223.3600 C   0  0  0  0  0  0  0  0  0  0  0  0
  139.5070   69.3690  224.3980 C   0  0  0  0  0  0  0  0  0  0  0  0
  140.0040   69.7710  225.6220 C   0  0  0  0  0  0  0  0  0  0  0  0
  139.9090   68.8810  226.6630 C   0  0  0  0  0  0  0  0  0  0  0  0
  140.3980   69.2520  227.9080 C   0  0  0  0  0  0  0  0  0  0  0  0
  140.3110   68.3830  228.9470 F   0  0  0  0  0  0  0  0  0  0  0  0
  140.9590   70.5100  228.0260 C   0  0  0  0  0  0  0  0  0  0  0  0
  141.0480   71.3960  226.9690 C   0  0  0  0  0  0  0  0  0  0  0  0
  140.5610   71.0270  225.7290 C   0  0  0  0  0  0  0  0  0  0  0  0
  140.6430   71.8870  224.6900 N   0  0  0  0  0  0  0  0  0  0  0  0
  140.8680   70.8500  220.9510 H   0  0  0  0  0  0  0  0  0  0  0  0
  140.8384   72.1885  218.9897 H   0  0  0  0  0  0  0  0  0  0  0  0
  139.7201   73.3216  219.8565 H   0  0  0  0  0  0  0  0  0  0  0  0
  144.1887   75.1929  219.5422 H   0  0  0  0  0  0  0  0  0  0  0  0
  143.5850   74.9823  221.2730 H   0  0  0  0  0  0  0  0  0  0  0  0
  146.0804   74.9096  220.7411 H   0  0  0  0  0  0  0  0  0  0  0  0
  145.2515   73.7039  221.8718 H   0  0  0  0  0  0  0  0  0  0  0  0
  146.9661   73.1882  219.6985 H   0  0  0  0  0  0  0  0  0  0  0  0
  146.0975   72.0476  220.7775 H   0  0  0  0  0  0  0  0  0  0  0  0
  144.9952   73.3628  218.2507 H   0  0  0  0  0  0  0  0  0  0  0  0
  145.4655   71.6478  218.4330 H   0  0  0  0  0  0  0  0  0  0  0  0
  143.0314   71.7925  218.7726 H   0  0  0  0  0  0  0  0  0  0  0  0
  144.7997   70.9869  220.8956 H   0  0  0  0  0  0  0  0  0  0  0  0
  143.1640   71.4257  221.4556 H   0  0  0  0  0  0  0  0  0  0  0  0
  145.1291   68.8752  219.6173 H   0  0  0  0  0  0  0  0  0  0  0  0
  143.5961   66.9246  218.6173 H   0  0  0  0  0  0  0  0  0  0  0  0
  141.0433   67.7805  218.8524 H   0  0  0  0  0  0  0  0  0  0  0  0
  139.2114   69.9554  222.3782 H   0  0  0  0  0  0  0  0  0  0  0  0
  139.0534   68.3763  224.2614 H   0  0  0  0  0  0  0  0  0  0  0  0
  139.4533   67.8911  226.5131 H   0  0  0  0  0  0  0  0  0  0  0  0
  141.3523   70.8198  229.0054 H   0  0  0  0  0  0  0  0  0  0  0  0
  141.5028   72.3871  227.1133 H   0  0  0  0  0  0  0  0  0  0  0  0
  1  2  2  0
  2  3  1  0
  3  4  1  0
  4  5  1  0
  5  6  2  0
  5  7  1  0
  7  8  1  0
  8  9  1  0
  9 10  1  0
 10 11  1  0
 11 12  1  0
 12 13  1  0
 13 14  1  0
 14 15  1  0
 15 16  2  0
 16 17  1  0
 17 18  2  0
  2 19  1  0
 19 20  2  0
 20 21  1  0
 21 22  2  0
 22 23  1  0
 23 24  2  0
 24 25  1  0
 24 26  1  0
 26 27  2  0
 27 28  1  0
 28 29  2  0
 12  7  1  0
 18 14  1  0
 29 19  1  0
 28 22  1  0
  3 30  1  0
  4 31  1  0
  4 32  1  0
  8 33  1  0
  8 34  1  0
  9 35  1  0
  9 36  1  0
 10 37  1  0
 10 38  1  0
 11 39  1  0
 11 40  1  0
 12 41  1  6
 13 42  1  0
 13 43  1  0
 15 44  1  0
 16 45  1  0
 17 46  1  0
 20 47  1  0
 21 48  1  0
 23 49  1  0
 26 50  1  0
 27 51  1  0
M  END
>  <smiles>  (29) 
O=C(NCC(=O)N1CCCC[C@H]1Cn1cccn1)c1ccc2cc(F)ccc2n1

>  <score_type>  (29) 
oracle

>  <origin>  (29) 
autodockgpu

>  <m_score__min__energy>  (29) 
-8.3000000000000007

>  <m_primary>  (29) 
energy

>  <rmsd>  (29) 
5.6512394032737

>  <m_score__min__rmsd>  (29) 
5.6512394032737

>  <meeko>  (29) 
{"free_energy": -7.12, "intermolecular_energy": -8.91, "internal_energy": -2.36, "cluster_size": 1, "cluster_id": 6, "rank_in_cluster": 1}

>  <energy>  (29) 
-7.92

>  <cluster_rmsd>  (29) 
0.17

>  <cluster>  (29) 
2

$$$$

     RDKit          3D

 51 54  0  0  0  0  0  0  0  0999 V2000
  137.3230   75.9240  222.1130 O   0  0  0  0  0  0  0  0  0  0  0  0
  138.5830   76.0060  222.2930 C   0  0  0  0  0  0  0  0  0  0  0  0
  139.4430   74.8800  222.1250 N   0  0  0  0  0  0  0  0  0  0  0  0
  138.8290   73.6050  221.7330 C   0  0  0  0  0  0  0  0  0  0  0  0
  139.7000   72.4700  222.0370 C   0  0  0  0  0  0  0  0  0  0  0  0
  140.9140   72.5480  221.6890 O   0  0  0  0  0  0  0  0  0  0  0  0
  139.3060   71.2780  222.6930 N   0  0  0  0  0  0  0  0  0  0  0  0
  138.8330   70.1910  221.8670 C   0  0  0  0  0  0  0  0  0  0  0  0
  138.9440   68.8360  222.4600 C   0  0  0  0  0  0  0  0  0  0  0  0
  138.6800   68.7300  223.9280 C   0  0  0  0  0  0  0  0  0  0  0  0
  138.2530   70.0740  224.4520 C   0  0  0  0  0  0  0  0  0  0  0  0
  139.3360   71.0790  224.1200 C   0  0  1  0  0  0  0  0  0  0  0  0
  140.6680   70.6700  224.6730 C   0  0  0  0  0  0  0  0  0  0  0  0
  140.7170   71.0860  226.0690 N   0  0  0  0  0  0  0  0  0  0  0  0
  140.2310   70.3260  227.0960 C   0  0  0  0  0  0  0  0  0  0  0  0
  140.4170   70.9820  228.2920 C   0  0  0  0  0  0  0  0  0  0  0  0
  141.0320   72.1700  227.9690 C   0  0  0  0  0  0  0  0  0  0  0  0
  141.1780   72.1620  226.6340 N   0  0  0  0  0  0  0  0  0  0  0  0
  139.1660   77.2890  222.6830 C   0  0  0  0  0  0  0  0  0  0  0  0
  138.3500   78.3370  223.0570 C   0  0  0  0  0  0  0  0  0  0  0  0
  138.8160   79.5700  223.4360 C   0  0  0  0  0  0  0  0  0  0  0  0
  140.1830   79.7540  223.4370 C   0  0  0  0  0  0  0  0  0  0  0  0
  140.6530   80.9870  223.8160 C   0  0  0  0  0  0  0  0  0  0  0  0
  142.0220   81.2080  223.8290 C   0  0  0  0  0  0  0  0  0  0  0  0
  142.5010   82.4220  224.2020 F   0  0  0  0  0  0  0  0  0  0  0  0
  142.8430   80.1590  223.4560 C   0  0  0  0  0  0  0  0  0  0  0  0
  142.3570   78.9230  223.0770 C   0  0  0  0  0  0  0  0  0  0  0  0
  140.9930   78.7030  223.0630 C   0  0  0  0  0  0  0  0  0  0  0  0
  140.5080   77.4970  222.6940 N   0  0  0  0  0  0  0  0  0  0  0  0
  140.4770   74.9590  222.2750 H   0  0  0  0  0  0  0  0  0  0  0  0
  137.8812   73.4832  222.2778 H   0  0  0  0  0  0  0  0  0  0  0  0
  138.6587   73.6257  220.6465 H   0  0  0  0  0  0  0  0  0  0  0  0
  137.7722   70.3751  221.6413 H   0  0  0  0  0  0  0  0  0  0  0  0
  139.4836   70.1839  220.9800 H   0  0  0  0  0  0  0  0  0  0  0  0
  138.2248   68.1841  221.9425 H   0  0  0  0  0  0  0  0  0  0  0  0
  139.9969   68.5452  222.3303 H   0  0  0  0  0  0  0  0  0  0  0  0
  137.8812   67.9950  224.1060 H   0  0  0  0  0  0  0  0  0  0  0  0
  139.5947   68.4051  224.4455 H   0  0  0  0  0  0  0  0  0  0  0  0
  137.3076   70.3753  223.9771 H   0  0  0  0  0  0  0  0  0  0  0  0
  138.1010   70.0259  225.5404 H   0  0  0  0  0  0  0  0  0  0  0  0
  139.1510   72.0475  224.6077 H   0  0  0  0  0  0  0  0  0  0  0  0
  140.7828   69.5782  224.6035 H   0  0  0  0  0  0  0  0  0  0  0  0
  141.4821   71.1411  224.1027 H   0  0  0  0  0  0  0  0  0  0  0  0
  139.7613   69.3377  226.9836 H   0  0  0  0  0  0  0  0  0  0  0  0
  140.1336   70.6304  229.2950 H   0  0  0  0  0  0  0  0  0  0  0  0
  141.3413   72.9650  228.6635 H   0  0  0  0  0  0  0  0  0  0  0  0
  137.2622   78.1740  223.0508 H   0  0  0  0  0  0  0  0  0  0  0  0
  138.1286   80.3780  223.7269 H   0  0  0  0  0  0  0  0  0  0  0  0
  139.9550   81.7867  224.1047 H   0  0  0  0  0  0  0  0  0  0  0  0
  143.9317   80.3163  223.4615 H   0  0  0  0  0  0  0  0  0  0  0  0
  143.0507   78.1196  222.7884 H   0  0  0  0  0  0  0  0  0  0  0  0
  1  2  2  0
  2  3  1  0
  3  4  1  0
  4  5  1  0
  5  6  2  0
  5  7  1  0
  7  8  1  0
  8  9  1  0
  9 10  1  0
 10 11  1  0
 11 12  1  0
 12 13  1  0
 13 14  1  0
 14 15  1  0
 15 16  2  0
 16 17  1  0
 17 18  2  0
  2 19  1  0
 19 20  2  0
 20 21  1  0
 21 22  2  0
 22 23  1  0
 23 24  2  0
 24 25  1  0
 24 26  1  0
 26 27  2  0
 27 28  1  0
 28 29  2  0
 12  7  1  0
 18 14  1  0
 29 19  1  0
 28 22  1  0
  3 30  1  0
  4 31  1  0
  4 32  1  0
  8 33  1  0
  8 34  1  0
  9 35  1  0
  9 36  1  0
 10 37  1  0
 10 38  1  0
 11 39  1  0
 11 40  1  0
 12 41  1  1
 13 42  1  0
 13 43  1  0
 15 44  1  0
 16 45  1  0
 17 46  1  0
 20 47  1  0
 21 48  1  0
 23 49  1  0
 26 50  1  0
 27 51  1  0
M  END
>  <smiles>  (30) 
O=C(NCC(=O)N1CCCC[C@H]1Cn1cccn1)c1ccc2cc(F)ccc2n1

>  <score_type>  (30) 
oracle

>  <origin>  (30) 
autodockgpu

>  <m_score__min__energy>  (30) 
-8.3000000000000007

>  <m_primary>  (30) 
energy

>  <rmsd>  (30) 
8.91461371455852

>  <m_score__min__rmsd>  (30) 
8.91461371455852

>  <meeko>  (30) 
{"free_energy": -7.55, "intermolecular_energy": -9.34, "internal_energy": -1.67, "cluster_size": 5, "cluster_id": 3, "rank_in_cluster": 3}

>  <energy>  (30) 
-7.88

>  <cluster_rmsd>  (30) 
0.48

>  <cluster>  (30) 
2

$$$$

     RDKit          3D

 51 54  0  0  0  0  0  0  0  0999 V2000
  140.7870   71.5500  221.1540 O   0  0  0  0  0  0  0  0  0  0  0  0
  140.3250   72.1240  222.1950 C   0  0  0  0  0  0  0  0  0  0  0  0
  139.9570   73.5020  222.1950 N   0  0  0  0  0  0  0  0  0  0  0  0
  140.1270   74.2540  220.9450 C   0  0  0  0  0  0  0  0  0  0  0  0
  140.7010   75.5770  221.1840 C   0  0  0  0  0  0  0  0  0  0  0  0
  140.6790   76.0250  222.3660 O   0  0  0  0  0  0  0  0  0  0  0  0
  141.2870   76.4140  220.2020 N   0  0  0  0  0  0  0  0  0  0  0  0
  140.8710   77.7970  220.1750 C   0  0  0  0  0  0  0  0  0  0  0  0
  141.8290   78.7470  219.5580 C   0  0  0  0  0  0  0  0  0  0  0  0
  142.5860   78.2480  218.3690 C   0  0  0  0  0  0  0  0  0  0  0  0
  142.0960   76.8700  218.0140 C   0  0  0  0  0  0  0  0  0  0  0  0
  142.2570   75.9810  219.2280 C   0  0  1  0  0  0  0  0  0  0  0  0
  143.6740   75.9520  219.7180 C   0  0  0  0  0  0  0  0  0  0  0  0
  143.9660   74.5920  220.1530 N   0  0  0  0  0  0  0  0  0  0  0  0
  145.2170   74.1700  220.5060 C   0  0  0  0  0  0  0  0  0  0  0  0
  145.1770   72.8420  220.8690 C   0  0  0  0  0  0  0  0  0  0  0  0
  143.8620   72.4610  220.7280 C   0  0  0  0  0  0  0  0  0  0  0  0
  143.2030   73.5500  220.3000 N   0  0  0  0  0  0  0  0  0  0  0  0
  140.1670   71.3510  223.4260 C   0  0  0  0  0  0  0  0  0  0  0  0
  139.5180   70.1330  223.4010 C   0  0  0  0  0  0  0  0  0  0  0  0
  139.3280   69.3470  224.5090 C   0  0  0  0  0  0  0  0  0  0  0  0
  139.8210   69.8180  225.7090 C   0  0  0  0  0  0  0  0  0  0  0  0
  139.6320   69.0330  226.8200 C   0  0  0  0  0  0  0  0  0  0  0  0
  140.1140   69.4750  228.0430 C   0  0  0  0  0  0  0  0  0  0  0  0
  139.9350   68.7100  229.1490 F   0  0  0  0  0  0  0  0  0  0  0  0
  140.7650   70.6950  228.0700 C   0  0  0  0  0  0  0  0  0  0  0  0
  140.9480   71.4750  226.9450 C   0  0  0  0  0  0  0  0  0  0  0  0
  140.4680   71.0350  225.7260 C   0  0  0  0  0  0  0  0  0  0  0  0
  140.6420   71.7910  224.6200 N   0  0  0  0  0  0  0  0  0  0  0  0
  139.5780   73.9630  223.0560 H   0  0  0  0  0  0  0  0  0  0  0  0
  140.7959   73.6904  220.2780 H   0  0  0  0  0  0  0  0  0  0  0  0
  139.1356   74.3878  220.4877 H   0  0  0  0  0  0  0  0  0  0  0  0
  139.9280   77.8549  219.6117 H   0  0  0  0  0  0  0  0  0  0  0  0
  140.7825   78.1032  221.2278 H   0  0  0  0  0  0  0  0  0  0  0  0
  141.2635   79.6372  219.2455 H   0  0  0  0  0  0  0  0  0  0  0  0
  142.5892   78.9387  220.3296 H   0  0  0  0  0  0  0  0  0  0  0  0
  142.4244   78.9266  217.5185 H   0  0  0  0  0  0  0  0  0  0  0  0
  143.6600   78.2096  218.6037 H   0  0  0  0  0  0  0  0  0  0  0  0
  141.0358   76.9154  217.7242 H   0  0  0  0  0  0  0  0  0  0  0  0
  142.6754   76.4675  217.1700 H   0  0  0  0  0  0  0  0  0  0  0  0
  142.0562   74.9272  218.9849 H   0  0  0  0  0  0  0  0  0  0  0  0
  144.3571   76.2400  218.9054 H   0  0  0  0  0  0  0  0  0  0  0  0
  143.8079   76.6591  220.5499 H   0  0  0  0  0  0  0  0  0  0  0  0
  146.1207   74.7971  220.5010 H   0  0  0  0  0  0  0  0  0  0  0  0
  146.0190   72.2172  221.2017 H   0  0  0  0  0  0  0  0  0  0  0  0
  143.4369   71.4659  220.9258 H   0  0  0  0  0  0  0  0  0  0  0  0
  139.1308   69.7718  222.4368 H   0  0  0  0  0  0  0  0  0  0  0  0
  138.8046   68.3817  224.4439 H   0  0  0  0  0  0  0  0  0  0  0  0
  139.1070   68.0696  226.7411 H   0  0  0  0  0  0  0  0  0  0  0  0
  141.1548   71.0608  229.0314 H   0  0  0  0  0  0  0  0  0  0  0  0
  141.4720   72.4394  227.0187 H   0  0  0  0  0  0  0  0  0  0  0  0
  1  2  2  0
  2  3  1  0
  3  4  1  0
  4  5  1  0
  5  6  2  0
  5  7  1  0
  7  8  1  0
  8  9  1  0
  9 10  1  0
 10 11  1  0
 11 12  1  0
 12 13  1  0
 13 14  1  0
 14 15  1  0
 15 16  2  0
 16 17  1  0
 17 18  2  0
  2 19  1  0
 19 20  2  0
 20 21  1  0
 21 22  2  0
 22 23  1  0
 23 24  2  0
 24 25  1  0
 24 26  1  0
 26 27  2  0
 27 28  1  0
 28 29  2  0
 12  7  1  0
 18 14  1  0
 29 19  1  0
 28 22  1  0
  3 30  1  0
  4 31  1  0
  4 32  1  0
  8 33  1  0
  8 34  1  0
  9 35  1  0
  9 36  1  0
 10 37  1  0
 10 38  1  0
 11 39  1  0
 11 40  1  0
 12 41  1  6
 13 42  1  0
 13 43  1  0
 15 44  1  0
 16 45  1  0
 17 46  1  0
 20 47  1  0
 21 48  1  0
 23 49  1  0
 26 50  1  0
 27 51  1  0
M  END
>  <smiles>  (31) 
O=C(NCC(=O)N1CCCC[C@H]1Cn1cccn1)c1ccc2cc(F)ccc2n1

>  <score_type>  (31) 
oracle

>  <origin>  (31) 
autodockgpu

>  <m_score__min__energy>  (31) 
-8.3000000000000007

>  <m_primary>  (31) 
energy

>  <rmsd>  (31) 
3.5579352740883032

>  <m_score__min__rmsd>  (31) 
3.5579352740883032

>  <meeko>  (31) 
{"free_energy": -7.98, "intermolecular_energy": -9.77, "internal_energy": -1.89, "cluster_size": 17, "cluster_id": 2, "rank_in_cluster": 4}

>  <energy>  (31) 
-7.87

>  <cluster_rmsd>  (31) 
0.47

>  <cluster>  (31) 
2

$$$$

     RDKit          3D

 51 54  0  0  0  0  0  0  0  0999 V2000
  139.9780   70.8280  221.3750 O   0  0  0  0  0  0  0  0  0  0  0  0
  139.9500   71.4510  222.4880 C   0  0  0  0  0  0  0  0  0  0  0  0
  139.9410   72.8760  222.5530 N   0  0  0  0  0  0  0  0  0  0  0  0
  139.9670   73.6180  221.2860 C   0  0  0  0  0  0  0  0  0  0  0  0
  140.1170   75.0560  221.5040 C   0  0  0  0  0  0  0  0  0  0  0  0
  139.7980   75.5170  222.6380 O   0  0  0  0  0  0  0  0  0  0  0  0
  140.5910   75.9920  220.5520 N   0  0  0  0  0  0  0  0  0  0  0  0
  140.2720   75.7470  219.1650 C   0  0  0  0  0  0  0  0  0  0  0  0
  140.2830   76.9380  218.2810 C   0  0  0  0  0  0  0  0  0  0  0  0
  141.3360   77.9620  218.5590 C   0  0  0  0  0  0  0  0  0  0  0  0
  142.2300   77.4640  219.6610 C   0  0  0  0  0  0  0  0  0  0  0  0
  141.3710   77.1610  220.8700 C   0  0  1  0  0  0  0  0  0  0  0  0
  140.5740   78.3540  221.3050 C   0  0  0  0  0  0  0  0  0  0  0  0
  141.3450   79.0570  222.3230 N   0  0  0  0  0  0  0  0  0  0  0  0
  142.2640   80.0250  222.0340 C   0  0  0  0  0  0  0  0  0  0  0  0
  142.8270   80.4990  223.1980 C   0  0  0  0  0  0  0  0  0  0  0  0
  142.2240   79.7910  224.2130 C   0  0  0  0  0  0  0  0  0  0  0  0
  141.3570   78.9540  223.6190 N   0  0  0  0  0  0  0  0  0  0  0  0
  139.9250   70.6870  223.7340 C   0  0  0  0  0  0  0  0  0  0  0  0
  139.3010   69.4570  223.7800 C   0  0  0  0  0  0  0  0  0  0  0  0
  139.2320   68.6780  224.9070 C   0  0  0  0  0  0  0  0  0  0  0  0
  139.8280   69.1690  226.0510 C   0  0  0  0  0  0  0  0  0  0  0  0
  139.7620   68.3910  227.1800 C   0  0  0  0  0  0  0  0  0  0  0  0
  140.3500   68.8540  228.3480 C   0  0  0  0  0  0  0  0  0  0  0  0
  140.2920   68.0960  229.4730 F   0  0  0  0  0  0  0  0  0  0  0  0
  140.9760   70.0860  228.3040 C   0  0  0  0  0  0  0  0  0  0  0  0
  141.0360   70.8590  227.1610 C   0  0  0  0  0  0  0  0  0  0  0  0
  140.4500   70.3980  225.9970 C   0  0  0  0  0  0  0  0  0  0  0  0
  140.5030   71.1470  224.8730 N   0  0  0  0  0  0  0  0  0  0  0  0
  139.9170   73.3780  223.4720 H   0  0  0  0  0  0  0  0  0  0  0  0
  140.8122   73.2593  220.6802 H   0  0  0  0  0  0  0  0  0  0  0  0
  139.0110   73.4476  220.7693 H   0  0  0  0  0  0  0  0  0  0  0  0
  141.0055   75.0278  218.7717 H   0  0  0  0  0  0  0  0  0  0  0  0
  139.2358   75.3780  219.1570 H   0  0  0  0  0  0  0  0  0  0  0  0
  140.4221   76.5868  217.2479 H   0  0  0  0  0  0  0  0  0  0  0  0
  139.3250   77.4467  218.4639 H   0  0  0  0  0  0  0  0  0  0  0  0
  141.9320   78.1331  217.6505 H   0  0  0  0  0  0  0  0  0  0  0  0
  140.8621   78.9063  218.8653 H   0  0  0  0  0  0  0  0  0  0  0  0
  142.7486   76.5504  219.3349 H   0  0  0  0  0  0  0  0  0  0  0  0
  142.9823   78.2262  219.9122 H   0  0  0  0  0  0  0  0  0  0  0  0
  141.9845   76.9370  221.7551 H   0  0  0  0  0  0  0  0  0  0  0  0
  140.3948   79.0178  220.4463 H   0  0  0  0  0  0  0  0  0  0  0  0
  139.6004   78.0395  221.7089 H   0  0  0  0  0  0  0  0  0  0  0  0
  142.5169   80.3741  221.0220 H   0  0  0  0  0  0  0  0  0  0  0  0
  143.5964   81.2790  223.2960 H   0  0  0  0  0  0  0  0  0  0  0  0
  142.4136   79.8904  225.2920 H   0  0  0  0  0  0  0  0  0  0  0  0
  138.8317   69.0793  222.8596 H   0  0  0  0  0  0  0  0  0  0  0  0
  138.7230   67.7029  224.8993 H   0  0  0  0  0  0  0  0  0  0  0  0
  139.2515   67.4169  227.1589 H   0  0  0  0  0  0  0  0  0  0  0  0
  141.4478   70.4680  229.2213 H   0  0  0  0  0  0  0  0  0  0  0  0
  141.5459   71.8335  227.1768 H   0  0  0  0  0  0  0  0  0  0  0  0
  1  2  2  0
  2  3  1  0
  3  4  1  0
  4  5  1  0
  5  6  2  0
  5  7  1  0
  7  8  1  0
  8  9  1  0
  9 10  1  0
 10 11  1  0
 11 12  1  0
 12 13  1  0
 13 14  1  0
 14 15  1  0
 15 16  2  0
 16 17  1  0
 17 18  2  0
  2 19  1  0
 19 20  2  0
 20 21  1  0
 21 22  2  0
 22 23  1  0
 23 24  2  0
 24 25  1  0
 24 26  1  0
 26 27  2  0
 27 28  1  0
 28 29  2  0
 12  7  1  0
 18 14  1  0
 29 19  1  0
 28 22  1  0
  3 30  1  0
  4 31  1  0
  4 32  1  0
  8 33  1  0
  8 34  1  0
  9 35  1  0
  9 36  1  0
 10 37  1  0
 10 38  1  0
 11 39  1  0
 11 40  1  0
 12 41  1  1
 13 42  1  0
 13 43  1  0
 15 44  1  0
 16 45  1  0
 17 46  1  0
 20 47  1  0
 21 48  1  0
 23 49  1  0
 26 50  1  0
 27 51  1  0
M  END
>  <smiles>  (32) 
O=C(NCC(=O)N1CCCC[C@H]1Cn1cccn1)c1ccc2cc(F)ccc2n1

>  <score_type>  (32) 
oracle

>  <origin>  (32) 
autodockgpu

>  <m_score__min__energy>  (32) 
-8.3000000000000007

>  <m_primary>  (32) 
energy

>  <rmsd>  (32) 
1.799596269153331

>  <m_score__min__rmsd>  (32) 
1.799596269153331

>  <meeko>  (32) 
{"free_energy": -7.78, "intermolecular_energy": -9.57, "internal_energy": -1.82, "cluster_size": 21, "cluster_id": 1, "rank_in_cluster": 19}

>  <energy>  (32) 
-7.85

>  <cluster_rmsd>  (32) 
0.5

>  <cluster>  (32) 
2

$$$$

     RDKit          3D

 51 54  0  0  0  0  0  0  0  0999 V2000
  141.2690   72.2520  221.6090 O   0  0  0  0  0  0  0  0  0  0  0  0
  140.2790   72.3780  222.4040 C   0  0  0  0  0  0  0  0  0  0  0  0
  139.2490   73.3390  222.1790 N   0  0  0  0  0  0  0  0  0  0  0  0
  139.3610   74.1940  220.9890 C   0  0  0  0  0  0  0  0  0  0  0  0
  140.3310   75.2700  221.1860 C   0  0  0  0  0  0  0  0  0  0  0  0
  140.4720   75.7300  222.3560 O   0  0  0  0  0  0  0  0  0  0  0  0
  141.1360   75.8520  220.1770 N   0  0  0  0  0  0  0  0  0  0  0  0
  140.9980   75.3330  218.8360 C   0  0  0  0  0  0  0  0  0  0  0  0
  141.3990   76.2540  217.7440 C   0  0  0  0  0  0  0  0  0  0  0  0
  142.5860   77.1220  218.0110 C   0  0  0  0  0  0  0  0  0  0  0  0
  143.1690   76.7650  219.3500 C   0  0  0  0  0  0  0  0  0  0  0  0
  142.0850   76.9150  220.3960 C   0  0  1  0  0  0  0  0  0  0  0  0
  141.4980   78.2950  220.4010 C   0  0  0  0  0  0  0  0  0  0  0  0
  141.8390   78.9180  221.6730 N   0  0  0  0  0  0  0  0  0  0  0  0
  141.4300   78.4280  222.8820 C   0  0  0  0  0  0  0  0  0  0  0  0
  141.9060   79.2300  223.8960 C   0  0  0  0  0  0  0  0  0  0  0  0
  142.6200   80.2280  223.2730 C   0  0  0  0  0  0  0  0  0  0  0  0
  142.5360   79.9780  221.9560 N   0  0  0  0  0  0  0  0  0  0  0  0
  140.1940   71.5140  223.5810 C   0  0  0  0  0  0  0  0  0  0  0  0
  139.6130   70.2660  223.4840 C   0  0  0  0  0  0  0  0  0  0  0  0
  139.4940   69.3950  224.5370 C   0  0  0  0  0  0  0  0  0  0  0  0
  139.9900   69.8100  225.7570 C   0  0  0  0  0  0  0  0  0  0  0  0
  139.8720   68.9410  226.8130 C   0  0  0  0  0  0  0  0  0  0  0  0
  140.3580   69.3240  228.0540 C   0  0  0  0  0  0  0  0  0  0  0  0
  140.2490   68.4760  229.1080 F   0  0  0  0  0  0  0  0  0  0  0  0
  140.9410   70.5740  228.1540 C   0  0  0  0  0  0  0  0  0  0  0  0
  141.0540   71.4390  227.0830 C   0  0  0  0  0  0  0  0  0  0  0  0
  140.5680   71.0580  225.8460 C   0  0  0  0  0  0  0  0  0  0  0  0
  140.6730   71.8970  224.7920 N   0  0  0  0  0  0  0  0  0  0  0  0
  138.4410   73.4330  222.8380 H   0  0  0  0  0  0  0  0  0  0  0  0
  139.6807   73.5776  220.1359 H   0  0  0  0  0  0  0  0  0  0  0  0
  138.3776   74.6491  220.7998 H   0  0  0  0  0  0  0  0  0  0  0  0
  141.6178   74.4275  218.7588 H   0  0  0  0  0  0  0  0  0  0  0  0
  139.9224   75.1514  218.6945 H   0  0  0  0  0  0  0  0  0  0  0  0
  141.6230   75.6439  216.8566 H   0  0  0  0  0  0  0  0  0  0  0  0
  140.5528   76.9455  217.6186 H   0  0  0  0  0  0  0  0  0  0  0  0
  143.3412   76.9637  217.2270 H   0  0  0  0  0  0  0  0  0  0  0  0
  142.2785   78.1782  218.0118 H   0  0  0  0  0  0  0  0  0  0  0  0
  143.5289   75.7257  219.3338 H   0  0  0  0  0  0  0  0  0  0  0  0
  144.0153   77.4278  219.5836 H   0  0  0  0  0  0  0  0  0  0  0  0
  142.4895   76.8134  221.4139 H   0  0  0  0  0  0  0  0  0  0  0  0
  141.9174   78.8833  219.5716 H   0  0  0  0  0  0  0  0  0  0  0  0
  140.4061   78.2492  220.2755 H   0  0  0  0  0  0  0  0  0  0  0  0
  140.8133   77.5283  223.0239 H   0  0  0  0  0  0  0  0  0  0  0  0
  141.7484   79.0999  224.9769 H   0  0  0  0  0  0  0  0  0  0  0  0
  143.1516   81.0613  223.7557 H   0  0  0  0  0  0  0  0  0  0  0  0
  139.2225   69.9513  222.5050 H   0  0  0  0  0  0  0  0  0  0  0  0
  139.0236   68.4082  224.4148 H   0  0  0  0  0  0  0  0  0  0  0  0
  139.3996   67.9569  226.6771 H   0  0  0  0  0  0  0  0  0  0  0  0
  141.3325   70.8940  229.1309 H   0  0  0  0  0  0  0  0  0  0  0  0
  141.5271   72.4235  227.2133 H   0  0  0  0  0  0  0  0  0  0  0  0
  1  2  2  0
  2  3  1  0
  3  4  1  0
  4  5  1  0
  5  6  2  0
  5  7  1  0
  7  8  1  0
  8  9  1  0
  9 10  1  0
 10 11  1  0
 11 12  1  0
 12 13  1  0
 13 14  1  0
 14 15  1  0
 15 16  2  0
 16 17  1  0
 17 18  2  0
  2 19  1  0
 19 20  2  0
 20 21  1  0
 21 22  2  0
 22 23  1  0
 23 24  2  0
 24 25  1  0
 24 26  1  0
 26 27  2  0
 27 28  1  0
 28 29  2  0
 12  7  1  0
 18 14  1  0
 29 19  1  0
 28 22  1  0
  3 30  1  0
  4 31  1  0
  4 32  1  0
  8 33  1  0
  8 34  1  0
  9 35  1  0
  9 36  1  0
 10 37  1  0
 10 38  1  0
 11 39  1  0
 11 40  1  0
 12 41  1  1
 13 42  1  0
 13 43  1  0
 15 44  1  0
 16 45  1  0
 17 46  1  0
 20 47  1  0
 21 48  1  0
 23 49  1  0
 26 50  1  0
 27 51  1  0
M  END
>  <smiles>  (33) 
O=C(NCC(=O)N1CCCC[C@H]1Cn1cccn1)c1ccc2cc(F)ccc2n1

>  <score_type>  (33) 
oracle

>  <origin>  (33) 
autodockgpu

>  <m_score__min__energy>  (33) 
-8.3000000000000007

>  <m_primary>  (33) 
energy

>  <rmsd>  (33) 
1.7344311894324123

>  <m_score__min__rmsd>  (33) 
1.7344311894324123

>  <meeko>  (33) 
{"free_energy": -8.3, "intermolecular_energy": -10.09, "internal_energy": -1.43, "cluster_size": 21, "cluster_id": 1, "rank_in_cluster": 1}

>  <energy>  (33) 
-7.85

>  <cluster_rmsd>  (33) 
0.49

>  <cluster>  (33) 
2

$$$$

     RDKit          3D

 51 54  0  0  0  0  0  0  0  0999 V2000
  140.8350   71.3530  221.2770 O   0  0  0  0  0  0  0  0  0  0  0  0
  140.3580   71.9310  222.3090 C   0  0  0  0  0  0  0  0  0  0  0  0
  139.9700   73.3030  222.2920 N   0  0  0  0  0  0  0  0  0  0  0  0
  140.1370   74.0450  221.0360 C   0  0  0  0  0  0  0  0  0  0  0  0
  140.5590   75.4240  221.2750 C   0  0  0  0  0  0  0  0  0  0  0  0
  140.3480   75.9160  222.4210 O   0  0  0  0  0  0  0  0  0  0  0  0
  141.1880   76.2720  220.3300 N   0  0  0  0  0  0  0  0  0  0  0  0
  140.8020   77.6630  220.3250 C   0  0  0  0  0  0  0  0  0  0  0  0
  141.7960   78.6070  219.7580 C   0  0  0  0  0  0  0  0  0  0  0  0
  142.5750   78.1210  218.5780 C   0  0  0  0  0  0  0  0  0  0  0  0
  142.0680   76.7630  218.1770 C   0  0  0  0  0  0  0  0  0  0  0  0
  142.1770   75.8420  219.3730 C   0  0  1  0  0  0  0  0  0  0  0  0
  143.5790   75.7730  219.9010 C   0  0  0  0  0  0  0  0  0  0  0  0
  143.8850   74.3720  220.1660 N   0  0  0  0  0  0  0  0  0  0  0  0
  145.0070   73.7480  219.6980 C   0  0  0  0  0  0  0  0  0  0  0  0
  145.0170   72.4340  220.1100 C   0  0  0  0  0  0  0  0  0  0  0  0
  143.8650   72.2700  220.8460 C   0  0  0  0  0  0  0  0  0  0  0  0
  143.2450   73.4600  220.8360 N   0  0  0  0  0  0  0  0  0  0  0  0
  140.2030   71.1670  223.5470 C   0  0  0  0  0  0  0  0  0  0  0  0
  139.5530   69.9510  223.5340 C   0  0  0  0  0  0  0  0  0  0  0  0
  139.3650   69.1730  224.6490 C   0  0  0  0  0  0  0  0  0  0  0  0
  139.8630   69.6530  225.8430 C   0  0  0  0  0  0  0  0  0  0  0  0
  139.6770   68.8780  226.9610 C   0  0  0  0  0  0  0  0  0  0  0  0
  140.1640   69.3300  228.1790 C   0  0  0  0  0  0  0  0  0  0  0  0
  139.9880   68.5740  229.2920 F   0  0  0  0  0  0  0  0  0  0  0  0
  140.8160   70.5490  228.1940 C   0  0  0  0  0  0  0  0  0  0  0  0
  140.9970   71.3190  227.0620 C   0  0  0  0  0  0  0  0  0  0  0  0
  140.5120   70.8700  225.8480 C   0  0  0  0  0  0  0  0  0  0  0  0
  140.6830   71.6170  224.7350 N   0  0  0  0  0  0  0  0  0  0  0  0
  139.5790   73.7670  223.1460 H   0  0  0  0  0  0  0  0  0  0  0  0
  140.8979   73.5406  220.4224 H   0  0  0  0  0  0  0  0  0  0  0  0
  139.1661   74.0680  220.5195 H   0  0  0  0  0  0  0  0  0  0  0  0
  139.8765   77.7543  219.7375 H   0  0  0  0  0  0  0  0  0  0  0  0
  140.6907   77.9459  221.3822 H   0  0  0  0  0  0  0  0  0  0  0  0
  141.2578   79.5164  219.4525 H   0  0  0  0  0  0  0  0  0  0  0  0
  142.5384   78.7636  220.5544 H   0  0  0  0  0  0  0  0  0  0  0  0
  142.4500   78.8227  217.7401 H   0  0  0  0  0  0  0  0  0  0  0  0
  143.6412   78.0551  218.8403 H   0  0  0  0  0  0  0  0  0  0  0  0
  141.0175   76.8372  217.8594 H   0  0  0  0  0  0  0  0  0  0  0  0
  142.6629   76.3687  217.3400 H   0  0  0  0  0  0  0  0  0  0  0  0
  141.9625   74.7984  219.0995 H   0  0  0  0  0  0  0  0  0  0  0  0
  144.2804   76.1750  219.1550 H   0  0  0  0  0  0  0  0  0  0  0  0
  143.6737   76.3685  220.8210 H   0  0  0  0  0  0  0  0  0  0  0  0
  145.7857   74.2241  219.0840 H   0  0  0  0  0  0  0  0  0  0  0  0
  145.7840   71.6751  219.8961 H   0  0  0  0  0  0  0  0  0  0  0  0
  143.5223   71.3498  221.3418 H   0  0  0  0  0  0  0  0  0  0  0  0
  139.1623   69.5829  222.5739 H   0  0  0  0  0  0  0  0  0  0  0  0
  138.8398   68.2081  224.5932 H   0  0  0  0  0  0  0  0  0  0  0  0
  139.1506   67.9146  226.8922 H   0  0  0  0  0  0  0  0  0  0  0  0
  141.2085   70.9226  229.1513 H   0  0  0  0  0  0  0  0  0  0  0  0
  141.5234   72.2828  227.1260 H   0  0  0  0  0  0  0  0  0  0  0  0
  1  2  2  0
  2  3  1  0
  3  4  1  0
  4  5  1  0
  5  6  2  0
  5  7  1  0
  7  8  1  0
  8  9  1  0
  9 10  1  0
 10 11  1  0
 11 12  1  0
 12 13  1  0
 13 14  1  0
 14 15  1  0
 15 16  2  0
 16 17  1  0
 17 18  2  0
  2 19  1  0
 19 20  2  0
 20 21  1  0
 21 22  2  0
 22 23  1  0
 23 24  2  0
 24 25  1  0
 24 26  1  0
 26 27  2  0
 27 28  1  0
 28 29  2  0
 12  7  1  0
 18 14  1  0
 29 19  1  0
 28 22  1  0
  3 30  1  0
  4 31  1  0
  4 32  1  0
  8 33  1  0
  8 34  1  0
  9 35  1  0
  9 36  1  0
 10 37  1  0
 10 38  1  0
 11 39  1  0
 11 40  1  0
 12 41  1  6
 13 42  1  0
 13 43  1  0
 15 44  1  0
 16 45  1  0
 17 46  1  0
 20 47  1  0
 21 48  1  0
 23 49  1  0
 26 50  1  0
 27 51  1  0
M  END
>  <smiles>  (34) 
O=C(NCC(=O)N1CCCC[C@H]1Cn1cccn1)c1ccc2cc(F)ccc2n1

>  <score_type>  (34) 
oracle

>  <origin>  (34) 
autodockgpu

>  <m_score__min__energy>  (34) 
-8.3000000000000007

>  <m_primary>  (34) 
energy

>  <rmsd>  (34) 
3.6453913042637542

>  <m_score__min__rmsd>  (34) 
3.6453913042637542

>  <meeko>  (34) 
{"free_energy": -7.67, "intermolecular_energy": -9.46, "internal_energy": -2.01, "cluster_size": 17, "cluster_id": 2, "rank_in_cluster": 17}

>  <energy>  (34) 
-7.81

>  <cluster_rmsd>  (34) 
0.98

>  <cluster>  (34) 
2

$$$$

     RDKit          3D

 51 54  0  0  0  0  0  0  0  0999 V2000
  140.6560   71.5950  221.0850 O   0  0  0  0  0  0  0  0  0  0  0  0
  140.2590   72.1540  222.1620 C   0  0  0  0  0  0  0  0  0  0  0  0
  139.9050   73.5340  222.2070 N   0  0  0  0  0  0  0  0  0  0  0  0
  140.0100   74.3080  220.9630 C   0  0  0  0  0  0  0  0  0  0  0  0
  140.7060   75.5760  221.1730 C   0  0  0  0  0  0  0  0  0  0  0  0
  140.7970   76.0110  222.3570 O   0  0  0  0  0  0  0  0  0  0  0  0
  141.2950   76.3740  220.1610 N   0  0  0  0  0  0  0  0  0  0  0  0
  140.8670   77.7500  220.0670 C   0  0  0  0  0  0  0  0  0  0  0  0
  141.8230   78.6800  219.4190 C   0  0  0  0  0  0  0  0  0  0  0  0
  142.5980   78.1360  218.2610 C   0  0  0  0  0  0  0  0  0  0  0  0
  142.1250   76.7390  217.9640 C   0  0  0  0  0  0  0  0  0  0  0  0
  142.2810   75.9070  219.2180 C   0  0  1  0  0  0  0  0  0  0  0  0
  143.6920   75.9150  219.7240 C   0  0  0  0  0  0  0  0  0  0  0  0
  144.0220   74.5570  220.1400 N   0  0  0  0  0  0  0  0  0  0  0  0
  145.2770   74.1740  220.5210 C   0  0  0  0  0  0  0  0  0  0  0  0
  145.2770   72.8370  220.8540 C   0  0  0  0  0  0  0  0  0  0  0  0
  143.9810   72.4110  220.6670 C   0  0  0  0  0  0  0  0  0  0  0  0
  143.2950   73.4850  220.2430 N   0  0  0  0  0  0  0  0  0  0  0  0
  140.1640   71.3590  223.3850 C   0  0  0  0  0  0  0  0  0  0  0  0
  139.5830   70.1080  223.3560 C   0  0  0  0  0  0  0  0  0  0  0  0
  139.4550   69.2990  224.4570 C   0  0  0  0  0  0  0  0  0  0  0  0
  139.9410   69.7830  225.6550 C   0  0  0  0  0  0  0  0  0  0  0  0
  139.8130   68.9770  226.7580 C   0  0  0  0  0  0  0  0  0  0  0  0
  140.2900   69.4320  227.9790 C   0  0  0  0  0  0  0  0  0  0  0  0
  140.1720   68.6450  229.0790 F   0  0  0  0  0  0  0  0  0  0  0  0
  140.8740   70.6850  228.0110 C   0  0  0  0  0  0  0  0  0  0  0  0
  140.9950   71.4870  226.8930 C   0  0  0  0  0  0  0  0  0  0  0  0
  140.5200   71.0340  225.6760 C   0  0  0  0  0  0  0  0  0  0  0  0
  140.6340   71.8110  224.5770 N   0  0  0  0  0  0  0  0  0  0  0  0
  139.5800   73.9830  223.0960 H   0  0  0  0  0  0  0  0  0  0  0  0
  140.5644   73.7157  220.2202 H   0  0  0  0  0  0  0  0  0  0  0  0
  138.9921   74.5297  220.6098 H   0  0  0  0  0  0  0  0  0  0  0  0
  139.9301   77.7735  219.4910 H   0  0  0  0  0  0  0  0  0  0  0  0
  140.7635   78.1023  221.1039 H   0  0  0  0  0  0  0  0  0  0  0  0
  141.2532   79.5503  219.0613 H   0  0  0  0  0  0  0  0  0  0  0  0
  142.5729   78.9123  220.1895 H   0  0  0  0  0  0  0  0  0  0  0  0
  142.4389   78.7739  217.3791 H   0  0  0  0  0  0  0  0  0  0  0  0
  143.6698   78.1195  218.5077 H   0  0  0  0  0  0  0  0  0  0  0  0
  141.0676   76.7609  217.6615 H   0  0  0  0  0  0  0  0  0  0  0  0
  142.7175   76.3047  217.1453 H   0  0  0  0  0  0  0  0  0  0  0  0
  142.0938   74.8411  219.0208 H   0  0  0  0  0  0  0  0  0  0  0  0
  144.3748   76.2382  218.9244 H   0  0  0  0  0  0  0  0  0  0  0  0
  143.7942   76.6121  220.5688 H   0  0  0  0  0  0  0  0  0  0  0  0
  146.1560   74.8344  220.5566 H   0  0  0  0  0  0  0  0  0  0  0  0
  146.1323   72.2363  221.1970 H   0  0  0  0  0  0  0  0  0  0  0  0
  143.5875   71.3971  220.8315 H   0  0  0  0  0  0  0  0  0  0  0  0
  139.1999   69.7373  222.3938 H   0  0  0  0  0  0  0  0  0  0  0  0
  138.9850   68.3069  224.3879 H   0  0  0  0  0  0  0  0  0  0  0  0
  139.3404   67.9871  226.6757 H   0  0  0  0  0  0  0  0  0  0  0  0
  141.2597   71.0601  228.9704 H   0  0  0  0  0  0  0  0  0  0  0  0
  141.4655   72.4783  226.9702 H   0  0  0  0  0  0  0  0  0  0  0  0
  1  2  2  0
  2  3  1  0
  3  4  1  0
  4  5  1  0
  5  6  2  0
  5  7  1  0
  7  8  1  0
  8  9  1  0
  9 10  1  0
 10 11  1  0
 11 12  1  0
 12 13  1  0
 13 14  1  0
 14 15  1  0
 15 16  2  0
 16 17  1  0
 17 18  2  0
  2 19  1  0
 19 20  2  0
 20 21  1  0
 21 22  2  0
 22 23  1  0
 23 24  2  0
 24 25  1  0
 24 26  1  0
 26 27  2  0
 27 28  1  0
 28 29  2  0
 12  7  1  0
 18 14  1  0
 29 19  1  0
 28 22  1  0
  3 30  1  0
  4 31  1  0
  4 32  1  0
  8 33  1  0
  8 34  1  0
  9 35  1  0
  9 36  1  0
 10 37  1  0
 10 38  1  0
 11 39  1  0
 11 40  1  0
 12 41  1  6
 13 42  1  0
 13 43  1  0
 15 44  1  0
 16 45  1  0
 17 46  1  0
 20 47  1  0
 21 48  1  0
 23 49  1  0
 26 50  1  0
 27 51  1  0
M  END
>  <smiles>  (35) 
O=C(NCC(=O)N1CCCC[C@H]1Cn1cccn1)c1ccc2cc(F)ccc2n1

>  <score_type>  (35) 
oracle

>  <origin>  (35) 
autodockgpu

>  <m_score__min__energy>  (35) 
-8.3000000000000007

>  <m_primary>  (35) 
energy

>  <rmsd>  (35) 
3.5488606606398085

>  <m_score__min__rmsd>  (35) 
3.5488606606398085

>  <meeko>  (35) 
{"free_energy": -8.0, "intermolecular_energy": -9.79, "internal_energy": -1.86, "cluster_size": 17, "cluster_id": 2, "rank_in_cluster": 2}

>  <energy>  (35) 
-7.74

>  <cluster_rmsd>  (35) 
0.56

>  <cluster>  (35) 
2

$$$$

     RDKit          3D

 51 54  0  0  0  0  0  0  0  0999 V2000
  141.4130   72.2530  221.6480 O   0  0  0  0  0  0  0  0  0  0  0  0
  140.4870   72.4750  222.4970 C   0  0  0  0  0  0  0  0  0  0  0  0
  139.6100   73.5940  222.3790 N   0  0  0  0  0  0  0  0  0  0  0  0
  139.8060   74.4990  221.2380 C   0  0  0  0  0  0  0  0  0  0  0  0
  139.1940   75.8050  221.4730 C   0  0  0  0  0  0  0  0  0  0  0  0
  138.0840   75.8360  222.0790 O   0  0  0  0  0  0  0  0  0  0  0  0
  139.7330   77.0540  221.0790 N   0  0  0  0  0  0  0  0  0  0  0  0
  139.2420   77.6320  219.8490 C   0  0  0  0  0  0  0  0  0  0  0  0
  139.3810   79.1030  219.7270 C   0  0  0  0  0  0  0  0  0  0  0  0
  140.6230   79.7030  220.3030 C   0  0  0  0  0  0  0  0  0  0  0  0
  141.5160   78.6020  220.8060 C   0  0  0  0  0  0  0  0  0  0  0  0
  140.7390   77.7810  221.8120 C   0  0  1  0  0  0  0  0  0  0  0  0
  140.2160   78.6230  222.9370 C   0  0  0  0  0  0  0  0  0  0  0  0
  141.2580   79.5740  223.3020 N   0  0  0  0  0  0  0  0  0  0  0  0
  141.0230   80.9070  223.4950 C   0  0  0  0  0  0  0  0  0  0  0  0
  142.1980   81.5450  223.8270 C   0  0  0  0  0  0  0  0  0  0  0  0
  143.1620   80.5630  223.8320 C   0  0  0  0  0  0  0  0  0  0  0  0
  142.5320   79.4210  223.5120 N   0  0  0  0  0  0  0  0  0  0  0  0
  140.3150   71.5580  223.6220 C   0  0  0  0  0  0  0  0  0  0  0  0
  139.6700   70.3510  223.4410 C   0  0  0  0  0  0  0  0  0  0  0  0
  139.4680   69.4360  224.4430 C   0  0  0  0  0  0  0  0  0  0  0  0
  139.9440   69.7590  225.6980 C   0  0  0  0  0  0  0  0  0  0  0  0
  139.7430   68.8450  226.7020 C   0  0  0  0  0  0  0  0  0  0  0  0
  140.2070   69.1370  227.9760 C   0  0  0  0  0  0  0  0  0  0  0  0
  140.0160   68.2430  228.9800 F   0  0  0  0  0  0  0  0  0  0  0  0
  140.8530   70.3450  228.1610 C   0  0  0  0  0  0  0  0  0  0  0  0
  141.0490   71.2570  227.1410 C   0  0  0  0  0  0  0  0  0  0  0  0
  140.5860   70.9660  225.8710 C   0  0  0  0  0  0  0  0  0  0  0  0
  140.7720   71.8510  224.8670 N   0  0  0  0  0  0  0  0  0  0  0  0
  138.8520   73.7670  223.0810 H   0  0  0  0  0  0  0  0  0  0  0  0
  140.8849   74.6354  221.0724 H   0  0  0  0  0  0  0  0  0  0  0  0
  139.3259   74.0488  220.3567 H   0  0  0  0  0  0  0  0  0  0  0  0
  139.7926   77.1707  219.0159 H   0  0  0  0  0  0  0  0  0  0  0  0
  138.1604   77.4319  219.8356 H   0  0  0  0  0  0  0  0  0  0  0  0
  139.3533   79.3542  218.6564 H   0  0  0  0  0  0  0  0  0  0  0  0
  138.5527   79.5247  220.3153 H   0  0  0  0  0  0  0  0  0  0  0  0
  141.1488   80.2773  219.5260 H   0  0  0  0  0  0  0  0  0  0  0  0
  140.3588   80.3737  221.1339 H   0  0  0  0  0  0  0  0  0  0  0  0
  141.8278   77.9634  219.9664 H   0  0  0  0  0  0  0  0  0  0  0  0
  142.4136   79.0283  221.2777 H   0  0  0  0  0  0  0  0  0  0  0  0
  141.3855   77.0537  222.3249 H   0  0  0  0  0  0  0  0  0  0  0  0
  139.3138   79.1623  222.6128 H   0  0  0  0  0  0  0  0  0  0  0  0
  139.9517   77.9924  223.7987 H   0  0  0  0  0  0  0  0  0  0  0  0
  140.0426   81.3967  223.3995 H   0  0  0  0  0  0  0  0  0  0  0  0
  142.3365   82.6147  224.0428 H   0  0  0  0  0  0  0  0  0  0  0  0
  144.2322   80.6881  224.0534 H   0  0  0  0  0  0  0  0  0  0  0  0
  139.2964   70.1089  222.4351 H   0  0  0  0  0  0  0  0  0  0  0  0
  138.9486   68.4849  224.2544 H   0  0  0  0  0  0  0  0  0  0  0  0
  139.2228   67.8971  226.4997 H   0  0  0  0  0  0  0  0  0  0  0  0
  141.2280   70.5916  229.1653 H   0  0  0  0  0  0  0  0  0  0  0  0
  141.5689   72.2062  227.3379 H   0  0  0  0  0  0  0  0  0  0  0  0
  1  2  2  0
  2  3  1  0
  3  4  1  0
  4  5  1  0
  5  6  2  0
  5  7  1  0
  7  8  1  0
  8  9  1  0
  9 10  1  0
 10 11  1  0
 11 12  1  0
 12 13  1  0
 13 14  1  0
 14 15  1  0
 15 16  2  0
 16 17  1  0
 17 18  2  0
  2 19  1  0
 19 20  2  0
 20 21  1  0
 21 22  2  0
 22 23  1  0
 23 24  2  0
 24 25  1  0
 24 26  1  0
 26 27  2  0
 27 28  1  0
 28 29  2  0
 12  7  1  0
 18 14  1  0
 29 19  1  0
 28 22  1  0
  3 30  1  0
  4 31  1  0
  4 32  1  0
  8 33  1  0
  8 34  1  0
  9 35  1  0
  9 36  1  0
 10 37  1  0
 10 38  1  0
 11 39  1  0
 11 40  1  0
 12 41  1  1
 13 42  1  0
 13 43  1  0
 15 44  1  0
 16 45  1  0
 17 46  1  0
 20 47  1  0
 21 48  1  0
 23 49  1  0
 26 50  1  0
 27 51  1  0
M  END
>  <smiles>  (36) 
O=C(NCC(=O)N1CCCC[C@H]1Cn1cccn1)c1ccc2cc(F)ccc2n1

>  <score_type>  (36) 
oracle

>  <origin>  (36) 
autodockgpu

>  <m_score__min__energy>  (36) 
-8.3000000000000007

>  <m_primary>  (36) 
energy

>  <rmsd>  (36) 
2.4011864212624645

>  <m_score__min__rmsd>  (36) 
2.4011864212624645

>  <meeko>  (36) 
{"free_energy": -8.05, "intermolecular_energy": -9.83, "internal_energy": -1.49, "cluster_size": 21, "cluster_id": 1, "rank_in_cluster": 9}

>  <energy>  (36) 
-7.71

>  <cluster_rmsd>  (36) 
0.53

>  <cluster>  (36) 
2

$$$$

     RDKit          3D

 51 54  0  0  0  0  0  0  0  0999 V2000
  138.9160   70.1930  221.3760 O   0  0  0  0  0  0  0  0  0  0  0  0
  138.9360   71.0810  222.2910 C   0  0  0  0  0  0  0  0  0  0  0  0
  138.4540   72.4050  222.0670 N   0  0  0  0  0  0  0  0  0  0  0  0
  137.9280   72.7240  220.7330 C   0  0  0  0  0  0  0  0  0  0  0  0
  137.4140   74.0900  220.6670 C   0  0  0  0  0  0  0  0  0  0  0  0
  137.5760   74.7310  219.5890 O   0  0  0  0  0  0  0  0  0  0  0  0
  136.7420   74.7720  221.7120 N   0  0  0  0  0  0  0  0  0  0  0  0
  135.7740   74.0230  222.4790 C   0  0  0  0  0  0  0  0  0  0  0  0
  135.4950   74.5360  223.8420 C   0  0  0  0  0  0  0  0  0  0  0  0
  135.4750   76.0220  224.0010 C   0  0  0  0  0  0  0  0  0  0  0  0
  135.6570   76.6660  222.6540 C   0  0  0  0  0  0  0  0  0  0  0  0
  136.9510   76.1570  222.0550 C   0  0  1  0  0  0  0  0  0  0  0  0
  138.1240   76.4150  222.9520 C   0  0  0  0  0  0  0  0  0  0  0  0
  139.3120   75.8880  222.2930 N   0  0  0  0  0  0  0  0  0  0  0  0
  140.1010   76.6320  221.4610 C   0  0  0  0  0  0  0  0  0  0  0  0
  141.1420   75.8630  220.9920 C   0  0  0  0  0  0  0  0  0  0  0  0
  140.9690   74.6220  221.5610 C   0  0  0  0  0  0  0  0  0  0  0  0
  139.8640   74.7110  222.3190 N   0  0  0  0  0  0  0  0  0  0  0  0
  139.4650   70.7360  223.6100 C   0  0  0  0  0  0  0  0  0  0  0  0
  140.2140   71.6530  224.3180 C   0  0  0  0  0  0  0  0  0  0  0  0
  140.7470   71.4080  225.5590 C   0  0  0  0  0  0  0  0  0  0  0  0
  140.5080   70.1670  226.1140 C   0  0  0  0  0  0  0  0  0  0  0  0
  141.0400   69.9200  227.3550 C   0  0  0  0  0  0  0  0  0  0  0  0
  140.8210   68.6830  227.9430 C   0  0  0  0  0  0  0  0  0  0  0  0
  141.3400   68.4240  229.1700 F   0  0  0  0  0  0  0  0  0  0  0  0
  140.0700   67.7620  227.2360 C   0  0  0  0  0  0  0  0  0  0  0  0
  139.5410   68.0240  225.9870 C   0  0  0  0  0  0  0  0  0  0  0  0
  139.7590   69.2570  225.4000 C   0  0  0  0  0  0  0  0  0  0  0  0
  139.2460   69.5220  224.1790 N   0  0  0  0  0  0  0  0  0  0  0  0
  138.4750   73.1260  222.8260 H   0  0  0  0  0  0  0  0  0  0  0  0
  138.7358   72.6111  219.9950 H   0  0  0  0  0  0  0  0  0  0  0  0
  137.0982   72.0347  220.5179 H   0  0  0  0  0  0  0  0  0  0  0  0
  134.8275   74.0213  221.9186 H   0  0  0  0  0  0  0  0  0  0  0  0
  136.2122   73.0239  222.6194 H   0  0  0  0  0  0  0  0  0  0  0  0
  134.5104   74.1532  224.1487 H   0  0  0  0  0  0  0  0  0  0  0  0
  136.3329   74.1867  224.4632 H   0  0  0  0  0  0  0  0  0  0  0  0
  134.5112   76.3331  224.4304 H   0  0  0  0  0  0  0  0  0  0  0  0
  136.2891   76.3328  224.6723 H   0  0  0  0  0  0  0  0  0  0  0  0
  134.8142   76.4016  221.9984 H   0  0  0  0  0  0  0  0  0  0  0  0
  135.6924   77.7604  222.7587 H   0  0  0  0  0  0  0  0  0  0  0  0
  137.2142   76.7051  221.1383 H   0  0  0  0  0  0  0  0  0  0  0  0
  138.2370   77.4964  223.1187 H   0  0  0  0  0  0  0  0  0  0  0  0
  137.9770   75.9277  223.9271 H   0  0  0  0  0  0  0  0  0  0  0  0
  139.9297   77.6879  221.2044 H   0  0  0  0  0  0  0  0  0  0  0  0
  141.9437   76.1749  220.3065 H   0  0  0  0  0  0  0  0  0  0  0  0
  141.6067   73.7364  221.4229 H   0  0  0  0  0  0  0  0  0  0  0  0
  140.3946   72.6374  223.8616 H   0  0  0  0  0  0  0  0  0  0  0  0
  141.3395   72.1685  226.0888 H   0  0  0  0  0  0  0  0  0  0  0  0
  141.6298   70.6898  227.8742 H   0  0  0  0  0  0  0  0  0  0  0  0
  139.8855   66.7765  227.6884 H   0  0  0  0  0  0  0  0  0  0  0  0
  138.9508   67.2576  225.4633 H   0  0  0  0  0  0  0  0  0  0  0  0
  1  2  2  0
  2  3  1  0
  3  4  1  0
  4  5  1  0
  5  6  2  0
  5  7  1  0
  7  8  1  0
  8  9  1  0
  9 10  1  0
 10 11  1  0
 11 12  1  0
 12 13  1  0
 13 14  1  0
 14 15  1  0
 15 16  2  0
 16 17  1  0
 17 18  2  0
  2 19  1  0
 19 20  2  0
 20 21  1  0
 21 22  2  0
 22 23  1  0
 23 24  2  0
 24 25  1  0
 24 26  1  0
 26 27  2  0
 27 28  1  0
 28 29  2  0
 12  7  1  0
 18 14  1  0
 29 19  1  0
 28 22  1  0
  3 30  1  0
  4 31  1  0
  4 32  1  0
  8 33  1  0
  8 34  1  0
  9 35  1  0
  9 36  1  0
 10 37  1  0
 10 38  1  0
 11 39  1  0
 11 40  1  0
 12 41  1  6
 13 42  1  0
 13 43  1  0
 15 44  1  0
 16 45  1  0
 17 46  1  0
 20 47  1  0
 21 48  1  0
 23 49  1  0
 26 50  1  0
 27 51  1  0
M  END
>  <smiles>  (37) 
O=C(NCC(=O)N1CCCC[C@H]1Cn1cccn1)c1ccc2cc(F)ccc2n1

>  <score_type>  (37) 
oracle

>  <origin>  (37) 
autodockgpu

>  <m_score__min__energy>  (37) 
-8.3000000000000007

>  <m_primary>  (37) 
energy

>  <rmsd>  (37) 
4.480246193776464

>  <m_score__min__rmsd>  (37) 
4.480246193776464

>  <meeko>  (37) 
{"free_energy": -6.71, "intermolecular_energy": -8.5, "internal_energy": -2.55, "cluster_size": 3, "cluster_id": 7, "rank_in_cluster": 3}

>  <energy>  (37) 
-7.69

>  <cluster_rmsd>  (37) 
0.42

>  <cluster>  (37) 
2

$$$$

     RDKit          3D

 51 54  0  0  0  0  0  0  0  0999 V2000
  141.3660   72.2570  221.7340 O   0  0  0  0  0  0  0  0  0  0  0  0
  140.3240   72.3610  222.4620 C   0  0  0  0  0  0  0  0  0  0  0  0
  139.2780   73.2800  222.1520 N   0  0  0  0  0  0  0  0  0  0  0  0
  139.4350   74.1160  220.9550 C   0  0  0  0  0  0  0  0  0  0  0  0
  140.2420   75.3040  221.2270 C   0  0  0  0  0  0  0  0  0  0  0  0
  141.5000   75.1950  221.1440 O   0  0  0  0  0  0  0  0  0  0  0  0
  139.7410   76.5810  221.5800 N   0  0  0  0  0  0  0  0  0  0  0  0
  138.3110   76.7130  221.7370 C   0  0  0  0  0  0  0  0  0  0  0  0
  137.8570   77.8330  222.5970 C   0  0  0  0  0  0  0  0  0  0  0  0
  138.6440   79.1010  222.5050 C   0  0  0  0  0  0  0  0  0  0  0  0
  139.6960   78.9540  221.4410 C   0  0  0  0  0  0  0  0  0  0  0  0
  140.5540   77.7540  221.7830 C   0  0  1  0  0  0  0  0  0  0  0  0
  141.1630   77.8720  223.1470 C   0  0  0  0  0  0  0  0  0  0  0  0
  141.7230   79.2120  223.2690 N   0  0  0  0  0  0  0  0  0  0  0  0
  142.9470   79.5620  222.7710 C   0  0  0  0  0  0  0  0  0  0  0  0
  143.2000   80.8890  223.0430 C   0  0  0  0  0  0  0  0  0  0  0  0
  142.0930   81.3430  223.7240 C   0  0  0  0  0  0  0  0  0  0  0  0
  141.2600   80.2940  223.8220 N   0  0  0  0  0  0  0  0  0  0  0  0
  140.1950   71.5170  223.6490 C   0  0  0  0  0  0  0  0  0  0  0  0
  139.5520   70.2990  223.5660 C   0  0  0  0  0  0  0  0  0  0  0  0
  139.3880   69.4480  224.6300 C   0  0  0  0  0  0  0  0  0  0  0  0
  139.9030   69.8510  225.8450 C   0  0  0  0  0  0  0  0  0  0  0  0
  139.7410   69.0020  226.9110 C   0  0  0  0  0  0  0  0  0  0  0  0
  140.2460   69.3760  228.1480 C   0  0  0  0  0  0  0  0  0  0  0  0
  140.0930   68.5460  229.2120 F   0  0  0  0  0  0  0  0  0  0  0  0
  140.8920   70.5950  228.2340 C   0  0  0  0  0  0  0  0  0  0  0  0
  141.0480   71.4410  227.1520 C   0  0  0  0  0  0  0  0  0  0  0  0
  140.5450   71.0690  225.9200 C   0  0  0  0  0  0  0  0  0  0  0  0
  140.6930   71.8900  224.8560 N   0  0  0  0  0  0  0  0  0  0  0  0
  138.4260   73.3580  222.7570 H   0  0  0  0  0  0  0  0  0  0  0  0
  139.9260   73.5239  220.1686 H   0  0  0  0  0  0  0  0  0  0  0  0
  138.4360   74.4463  220.6341 H   0  0  0  0  0  0  0  0  0  0  0  0
  137.8735   76.8558  220.7379 H   0  0  0  0  0  0  0  0  0  0  0  0
  137.9798   75.7942  222.2432 H   0  0  0  0  0  0  0  0  0  0  0  0
  136.8166   78.0640  222.3247 H   0  0  0  0  0  0  0  0  0  0  0  0
  137.9889   77.4807  223.6307 H   0  0  0  0  0  0  0  0  0  0  0  0
  137.9724   79.9328  222.2459 H   0  0  0  0  0  0  0  0  0  0  0  0
  139.1238   79.3091  223.4727 H   0  0  0  0  0  0  0  0  0  0  0  0
  139.2168   78.8018  220.4626 H   0  0  0  0  0  0  0  0  0  0  0  0
  140.3157   79.8616  221.3929 H   0  0  0  0  0  0  0  0  0  0  0  0
  141.4319   77.6843  221.1239 H   0  0  0  0  0  0  0  0  0  0  0  0
  140.3919   77.7170  223.9160 H   0  0  0  0  0  0  0  0  0  0  0  0
  141.9472   77.1131  223.2852 H   0  0  0  0  0  0  0  0  0  0  0  0
  143.6280   78.8856  222.2336 H   0  0  0  0  0  0  0  0  0  0  0  0
  144.0977   81.4645  222.7728 H   0  0  0  0  0  0  0  0  0  0  0  0
  141.9248   82.3593  224.1098 H   0  0  0  0  0  0  0  0  0  0  0  0
  139.1473   69.9923  222.5902 H   0  0  0  0  0  0  0  0  0  0  0  0
  138.8679   68.4851  224.5189 H   0  0  0  0  0  0  0  0  0  0  0  0
  139.2197   68.0414  226.7868 H   0  0  0  0  0  0  0  0  0  0  0  0
  141.3002   70.9058  229.2070 H   0  0  0  0  0  0  0  0  0  0  0  0
  141.5685   72.4028  227.2708 H   0  0  0  0  0  0  0  0  0  0  0  0
  1  2  2  0
  2  3  1  0
  3  4  1  0
  4  5  1  0
  5  6  2  0
  5  7  1  0
  7  8  1  0
  8  9  1  0
  9 10  1  0
 10 11  1  0
 11 12  1  0
 12 13  1  0
 13 14  1  0
 14 15  1  0
 15 16  2  0
 16 17  1  0
 17 18  2  0
  2 19  1  0
 19 20  2  0
 20 21  1  0
 21 22  2  0
 22 23  1  0
 23 24  2  0
 24 25  1  0
 24 26  1  0
 26 27  2  0
 27 28  1  0
 28 29  2  0
 12  7  1  0
 18 14  1  0
 29 19  1  0
 28 22  1  0
  3 30  1  0
  4 31  1  0
  4 32  1  0
  8 33  1  0
  8 34  1  0
  9 35  1  0
  9 36  1  0
 10 37  1  0
 10 38  1  0
 11 39  1  0
 11 40  1  0
 12 41  1  6
 13 42  1  0
 13 43  1  0
 15 44  1  0
 16 45  1  0
 17 46  1  0
 20 47  1  0
 21 48  1  0
 23 49  1  0
 26 50  1  0
 27 51  1  0
M  END
>  <smiles>  (38) 
O=C(NCC(=O)N1CCCC[C@H]1Cn1cccn1)c1ccc2cc(F)ccc2n1

>  <score_type>  (38) 
oracle

>  <origin>  (38) 
autodockgpu

>  <m_score__min__energy>  (38) 
-8.3000000000000007

>  <m_primary>  (38) 
energy

>  <rmsd>  (38) 
2.7383847892714632

>  <m_score__min__rmsd>  (38) 
2.7383847892714632

>  <meeko>  (38) 
{"free_energy": -8.21, "intermolecular_energy": -10.0, "internal_energy": -1.32, "cluster_size": 21, "cluster_id": 1, "rank_in_cluster": 6}

>  <energy>  (38) 
-7.67

>  <cluster_rmsd>  (38) 
0.41

>  <cluster>  (38) 
2

$$$$

     RDKit          3D

 51 54  0  0  0  0  0  0  0  0999 V2000
  140.0960   70.9370  221.4540 O   0  0  0  0  0  0  0  0  0  0  0  0
  139.9720   71.5210  222.5810 C   0  0  0  0  0  0  0  0  0  0  0  0
  139.8450   72.9380  222.6850 N   0  0  0  0  0  0  0  0  0  0  0  0
  139.8610   73.7180  221.4410 C   0  0  0  0  0  0  0  0  0  0  0  0
  141.0800   74.5170  221.3210 C   0  0  0  0  0  0  0  0  0  0  0  0
  141.0390   75.7190  221.7110 O   0  0  0  0  0  0  0  0  0  0  0  0
  142.3170   74.0640  220.8000 N   0  0  0  0  0  0  0  0  0  0  0  0
  142.5660   72.6410  220.8220 C   0  0  0  0  0  0  0  0  0  0  0  0
  143.5530   72.1440  219.8330 C   0  0  0  0  0  0  0  0  0  0  0  0
  144.7290   73.0280  219.5660 C   0  0  0  0  0  0  0  0  0  0  0  0
  144.6680   74.2210  220.4810 C   0  0  0  0  0  0  0  0  0  0  0  0
  143.3440   74.9210  220.2620 C   0  0  1  0  0  0  0  0  0  0  0  0
  143.1490   75.3160  218.8290 C   0  0  0  0  0  0  0  0  0  0  0  0
  142.7480   76.7170  218.8050 N   0  0  0  0  0  0  0  0  0  0  0  0
  142.9600   77.5400  217.7350 C   0  0  0  0  0  0  0  0  0  0  0  0
  142.4750   78.8000  218.0110 C   0  0  0  0  0  0  0  0  0  0  0  0
  141.9570   78.7250  219.2840 C   0  0  0  0  0  0  0  0  0  0  0  0
  142.1540   77.4610  219.6910 N   0  0  0  0  0  0  0  0  0  0  0  0
  139.9590   70.7180  223.8030 C   0  0  0  0  0  0  0  0  0  0  0  0
  139.3460   69.4830  223.8150 C   0  0  0  0  0  0  0  0  0  0  0  0
  139.2890   68.6680  224.9170 C   0  0  0  0  0  0  0  0  0  0  0  0
  139.8860   69.1300  226.0730 C   0  0  0  0  0  0  0  0  0  0  0  0
  139.8300   68.3170  227.1780 C   0  0  0  0  0  0  0  0  0  0  0  0
  140.4190   68.7490  228.3580 C   0  0  0  0  0  0  0  0  0  0  0  0
  140.3730   67.9570  229.4590 F   0  0  0  0  0  0  0  0  0  0  0  0
  141.0350   69.9870  228.3490 C   0  0  0  0  0  0  0  0  0  0  0  0
  141.0840   70.7950  227.2290 C   0  0  0  0  0  0  0  0  0  0  0  0
  140.4970   70.3650  226.0540 C   0  0  0  0  0  0  0  0  0  0  0  0
  140.5380   71.1490  224.9540 N   0  0  0  0  0  0  0  0  0  0  0  0
  139.7430   73.4070  223.6160 H   0  0  0  0  0  0  0  0  0  0  0  0
  139.8011   73.0280  220.5864 H   0  0  0  0  0  0  0  0  0  0  0  0
  139.0008   74.4035  221.4541 H   0  0  0  0  0  0  0  0  0  0  0  0
  142.9316   72.3776  221.8255 H   0  0  0  0  0  0  0  0  0  0  0  0
  141.6103   72.1659  220.5556 H   0  0  0  0  0  0  0  0  0  0  0  0
  143.9354   71.1792  220.1975 H   0  0  0  0  0  0  0  0  0  0  0  0
  143.0078   72.0867  218.8793 H   0  0  0  0  0  0  0  0  0  0  0  0
  145.6586   72.4697  219.7507 H   0  0  0  0  0  0  0  0  0  0  0  0
  144.7092   73.3637  218.5187 H   0  0  0  0  0  0  0  0  0  0  0  0
  144.7458   73.8914  221.5276 H   0  0  0  0  0  0  0  0  0  0  0  0
  145.4999   74.9074  220.2646 H   0  0  0  0  0  0  0  0  0  0  0  0
  143.3048   75.8834  220.7933 H   0  0  0  0  0  0  0  0  0  0  0  0
  144.0895   75.1862  218.2735 H   0  0  0  0  0  0  0  0  0  0  0  0
  142.3791   74.6873  218.3579 H   0  0  0  0  0  0  0  0  0  0  0  0
  143.4452   77.2414  216.7941 H   0  0  0  0  0  0  0  0  0  0  0  0
  142.4972   79.6807  217.3523 H   0  0  0  0  0  0  0  0  0  0  0  0
  141.4787   79.5362  219.8525 H   0  0  0  0  0  0  0  0  0  0  0  0
  138.8747   69.1303  222.8858 H   0  0  0  0  0  0  0  0  0  0  0  0
  138.7893   67.6887  224.8812 H   0  0  0  0  0  0  0  0  0  0  0  0
  139.3269   67.3400  227.1288 H   0  0  0  0  0  0  0  0  0  0  0  0
  141.5076   70.3449  229.2756 H   0  0  0  0  0  0  0  0  0  0  0  0
  141.5862   71.7727  227.2723 H   0  0  0  0  0  0  0  0  0  0  0  0
  1  2  2  0
  2  3  1  0
  3  4  1  0
  4  5  1  0
  5  6  2  0
  5  7  1  0
  7  8  1  0
  8  9  1  0
  9 10  1  0
 10 11  1  0
 11 12  1  0
 12 13  1  0
 13 14  1  0
 14 15  1  0
 15 16  2  0
 16 17  1  0
 17 18  2  0
  2 19  1  0
 19 20  2  0
 20 21  1  0
 21 22  2  0
 22 23  1  0
 23 24  2  0
 24 25  1  0
 24 26  1  0
 26 27  2  0
 27 28  1  0
 28 29  2  0
 12  7  1  0
 18 14  1  0
 29 19  1  0
 28 22  1  0
  3 30  1  0
  4 31  1  0
  4 32  1  0
  8 33  1  0
  8 34  1  0
  9 35  1  0
  9 36  1  0
 10 37  1  0
 10 38  1  0
 11 39  1  0
 11 40  1  0
 12 41  1  1
 13 42  1  0
 13 43  1  0
 15 44  1  0
 16 45  1  0
 17 46  1  0
 20 47  1  0
 21 48  1  0
 23 49  1  0
 26 50  1  0
 27 51  1  0
M  END
>  <smiles>  (39) 
O=C(NCC(=O)N1CCCC[C@H]1Cn1cccn1)c1ccc2cc(F)ccc2n1

>  <score_type>  (39) 
oracle

>  <origin>  (39) 
autodockgpu

>  <m_score__min__energy>  (39) 
-8.3000000000000007

>  <m_primary>  (39) 
energy

>  <rmsd>  (39) 
3.2463184795464715

>  <m_score__min__rmsd>  (39) 
3.2463184795464715

>  <meeko>  (39) 
{"free_energy": -7.51, "intermolecular_energy": -9.3, "internal_energy": -1.51, "cluster_size": 1, "cluster_id": 4, "rank_in_cluster": 1}

>  <energy>  (39) 
-7.72

>  <cluster_rmsd>  (39) 
0.0

>  <cluster>  (39) 
3

$$$$

     RDKit          3D

 51 54  0  0  0  0  0  0  0  0999 V2000
  141.3130   72.4470  221.7380 O   0  0  0  0  0  0  0  0  0  0  0  0
  140.2650   72.4760  222.4640 C   0  0  0  0  0  0  0  0  0  0  0  0
  139.1700   73.3420  222.1730 N   0  0  0  0  0  0  0  0  0  0  0  0
  139.2840   74.2160  220.9970 C   0  0  0  0  0  0  0  0  0  0  0  0
  140.2550   75.2870  221.2120 C   0  0  0  0  0  0  0  0  0  0  0  0
  140.3770   75.7470  222.3840 O   0  0  0  0  0  0  0  0  0  0  0  0
  141.0820   75.8650  220.2180 N   0  0  0  0  0  0  0  0  0  0  0  0
  140.9670   75.3470  218.8750 C   0  0  0  0  0  0  0  0  0  0  0  0
  141.3920   76.2640  217.7900 C   0  0  0  0  0  0  0  0  0  0  0  0
  142.5790   77.1280  218.0790 C   0  0  0  0  0  0  0  0  0  0  0  0
  143.1350   76.7680  219.4290 C   0  0  0  0  0  0  0  0  0  0  0  0
  142.0320   76.9240  220.4540 C   0  0  1  0  0  0  0  0  0  0  0  0
  141.4510   78.3060  220.4480 C   0  0  0  0  0  0  0  0  0  0  0  0
  141.8000   78.9400  221.7130 N   0  0  0  0  0  0  0  0  0  0  0  0
  141.3440   78.4990  222.9240 C   0  0  0  0  0  0  0  0  0  0  0  0
  141.8410   79.2990  223.9290 C   0  0  0  0  0  0  0  0  0  0  0  0
  142.6170   80.2450  223.2990 C   0  0  0  0  0  0  0  0  0  0  0  0
  142.5450   79.9700  221.9870 N   0  0  0  0  0  0  0  0  0  0  0  0
  140.1790   71.5950  223.6280 C   0  0  0  0  0  0  0  0  0  0  0  0
  139.5730   70.3610  223.5210 C   0  0  0  0  0  0  0  0  0  0  0  0
  139.4510   69.4770  224.5630 C   0  0  0  0  0  0  0  0  0  0  0  0
  139.9720   69.8630  225.7820 C   0  0  0  0  0  0  0  0  0  0  0  0
  139.8520   68.9800  226.8260 C   0  0  0  0  0  0  0  0  0  0  0  0
  140.3640   69.3350  228.0660 C   0  0  0  0  0  0  0  0  0  0  0  0
  140.2520   68.4730  229.1080 F   0  0  0  0  0  0  0  0  0  0  0  0
  140.9730   70.5720  228.1760 C   0  0  0  0  0  0  0  0  0  0  0  0
  141.0870   71.4510  227.1160 C   0  0  0  0  0  0  0  0  0  0  0  0
  140.5770   71.0970  225.8810 C   0  0  0  0  0  0  0  0  0  0  0  0
  140.6830   71.9500  224.8390 N   0  0  0  0  0  0  0  0  0  0  0  0
  138.3140   73.3570  222.7760 H   0  0  0  0  0  0  0  0  0  0  0  0
  139.6034   73.6130  220.1342 H   0  0  0  0  0  0  0  0  0  0  0  0
  138.3013   74.6754  220.8144 H   0  0  0  0  0  0  0  0  0  0  0  0
  141.5839   74.4386  218.8099 H   0  0  0  0  0  0  0  0  0  0  0  0
  139.8931   75.1717  218.7138 H   0  0  0  0  0  0  0  0  0  0  0  0
  141.6301   75.6517  216.9077 H   0  0  0  0  0  0  0  0  0  0  0  0
  140.5513   76.9589  217.6472 H   0  0  0  0  0  0  0  0  0  0  0  0
  143.3480   76.9663  217.3093 H   0  0  0  0  0  0  0  0  0  0  0  0
  142.2766   78.1856  218.0737 H   0  0  0  0  0  0  0  0  0  0  0  0
  143.4896   75.7268  219.4197 H   0  0  0  0  0  0  0  0  0  0  0  0
  143.9803   77.4261  219.6786 H   0  0  0  0  0  0  0  0  0  0  0  0
  142.4175   76.8215  221.4791 H   0  0  0  0  0  0  0  0  0  0  0  0
  141.8695   78.8845  219.6112 H   0  0  0  0  0  0  0  0  0  0  0  0
  140.3585   78.2636  220.3273 H   0  0  0  0  0  0  0  0  0  0  0  0
  140.6798   77.6349  223.0733 H   0  0  0  0  0  0  0  0  0  0  0  0
  141.6564   79.2021  225.0091 H   0  0  0  0  0  0  0  0  0  0  0  0
  143.1816   81.0608  223.7740 H   0  0  0  0  0  0  0  0  0  0  0  0
  139.1634   70.0683  222.5429 H   0  0  0  0  0  0  0  0  0  0  0  0
  138.9589   68.5019  224.4328 H   0  0  0  0  0  0  0  0  0  0  0  0
  139.3584   68.0075  226.6822 H   0  0  0  0  0  0  0  0  0  0  0  0
  141.3852   70.8695  229.1515 H   0  0  0  0  0  0  0  0  0  0  0  0
  141.5797   72.4248  227.2539 H   0  0  0  0  0  0  0  0  0  0  0  0
  1  2  2  0
  2  3  1  0
  3  4  1  0
  4  5  1  0
  5  6  2  0
  5  7  1  0
  7  8  1  0
  8  9  1  0
  9 10  1  0
 10 11  1  0
 11 12  1  0
 12 13  1  0
 13 14  1  0
 14 15  1  0
 15 16  2  0
 16 17  1  0
 17 18  2  0
  2 19  1  0
 19 20  2  0
 20 21  1  0
 21 22  2  0
 22 23  1  0
 23 24  2  0
 24 25  1  0
 24 26  1  0
 26 27  2  0
 27 28  1  0
 28 29  2  0
 12  7  1  0
 18 14  1  0
 29 19  1  0
 28 22  1  0
  3 30  1  0
  4 31  1  0
  4 32  1  0
  8 33  1  0
  8 34  1  0
  9 35  1  0
  9 36  1  0
 10 37  1  0
 10 38  1  0
 11 39  1  0
 11 40  1  0
 12 41  1  1
 13 42  1  0
 13 43  1  0
 15 44  1  0
 16 45  1  0
 17 46  1  0
 20 47  1  0
 21 48  1  0
 23 49  1  0
 26 50  1  0
 27 51  1  0
M  END
>  <smiles>  (40) 
O=C(NCC(=O)N1CCCC[C@H]1Cn1cccn1)c1ccc2cc(F)ccc2n1

>  <score_type>  (40) 
oracle

>  <origin>  (40) 
autodockgpu

>  <m_score__min__energy>  (40) 
-8.3000000000000007

>  <m_primary>  (40) 
energy

>  <rmsd>  (40) 
1.7449980833045877

>  <m_score__min__rmsd>  (40) 
1.7449980833045877

>  <meeko>  (40) 
{"free_energy": -8.26, "intermolecular_energy": -10.05, "internal_energy": -1.44, "cluster_size": 21, "cluster_id": 1, "rank_in_cluster": 3}

>  <energy>  (40) 
-7.57

>  <cluster_rmsd>  (40) 
1.49

>  <cluster>  (40) 
3

$$$$

     RDKit          3D

 51 54  0  0  0  0  0  0  0  0999 V2000
  141.0090   71.5190  221.5150 O   0  0  0  0  0  0  0  0  0  0  0  0
  140.4380   71.9810  222.5580 C   0  0  0  0  0  0  0  0  0  0  0  0
  139.9140   73.3070  222.6050 N   0  0  0  0  0  0  0  0  0  0  0  0
  140.0530   74.1400  221.4030 C   0  0  0  0  0  0  0  0  0  0  0  0
  139.7280   75.5390  221.6740 C   0  0  0  0  0  0  0  0  0  0  0  0
  138.9480   75.7880  222.6380 O   0  0  0  0  0  0  0  0  0  0  0  0
  140.2120   76.6550  220.9490 N   0  0  0  0  0  0  0  0  0  0  0  0
  139.8580   76.7430  219.5510 C   0  0  0  0  0  0  0  0  0  0  0  0
  139.8880   78.1040  218.9620 C   0  0  0  0  0  0  0  0  0  0  0  0
  140.9780   79.0100  219.4380 C   0  0  0  0  0  0  0  0  0  0  0  0
  141.8790   78.2500  220.3730 C   0  0  0  0  0  0  0  0  0  0  0  0
  141.0350   77.7000  221.5040 C   0  0  1  0  0  0  0  0  0  0  0  0
  140.2850   78.7820  222.2200 C   0  0  0  0  0  0  0  0  0  0  0  0
  141.2640   79.6590  222.8510 N   0  0  0  0  0  0  0  0  0  0  0  0
  141.1220   81.0170  222.9180 C   0  0  0  0  0  0  0  0  0  0  0  0
  142.2040   81.5680  223.5690 C   0  0  0  0  0  0  0  0  0  0  0  0
  143.0160   80.5060  223.8990 C   0  0  0  0  0  0  0  0  0  0  0  0
  142.3940   79.4070  223.4420 N   0  0  0  0  0  0  0  0  0  0  0  0
  140.3140   71.1300  223.7400 C   0  0  0  0  0  0  0  0  0  0  0  0
  139.7060   69.8950  223.6450 C   0  0  0  0  0  0  0  0  0  0  0  0
  139.5490   69.0370  224.7040 C   0  0  0  0  0  0  0  0  0  0  0  0
  140.0350   69.4510  225.9280 C   0  0  0  0  0  0  0  0  0  0  0  0
  139.8800   68.5950  226.9890 C   0  0  0  0  0  0  0  0  0  0  0  0
  140.3560   68.9790  228.2350 C   0  0  0  0  0  0  0  0  0  0  0  0
  140.2100   68.1420  229.2940 F   0  0  0  0  0  0  0  0  0  0  0  0
  140.9650   70.2160  228.3330 C   0  0  0  0  0  0  0  0  0  0  0  0
  141.1150   71.0680  227.2560 C   0  0  0  0  0  0  0  0  0  0  0  0
  140.6410   70.6860  226.0150 C   0  0  0  0  0  0  0  0  0  0  0  0
  140.7820   71.5130  224.9560 N   0  0  0  0  0  0  0  0  0  0  0  0
  139.4460   73.6760  223.4660 H   0  0  0  0  0  0  0  0  0  0  0  0
  141.0911   74.0782  221.0446 H   0  0  0  0  0  0  0  0  0  0  0  0
  139.3507   73.7658  220.6435 H   0  0  0  0  0  0  0  0  0  0  0  0
  140.5610   76.1146  218.9846 H   0  0  0  0  0  0  0  0  0  0  0  0
  138.8108   76.4126  219.4866 H   0  0  0  0  0  0  0  0  0  0  0  0
  139.9951   77.9950  217.8727 H   0  0  0  0  0  0  0  0  0  0  0  0
  138.9502   78.5817  219.2818 H   0  0  0  0  0  0  0  0  0  0  0  0
  141.5603   79.3693  218.5767 H   0  0  0  0  0  0  0  0  0  0  0  0
  140.5400   79.8707  219.9646 H   0  0  0  0  0  0  0  0  0  0  0  0
  142.3624   77.4224  219.8331 H   0  0  0  0  0  0  0  0  0  0  0  0
  142.6597   78.9148  220.7712 H   0  0  0  0  0  0  0  0  0  0  0  0
  141.6590   77.2631  222.2976 H   0  0  0  0  0  0  0  0  0  0  0  0
  139.6774   79.3537  221.5031 H   0  0  0  0  0  0  0  0  0  0  0  0
  139.6131   78.3490  222.9756 H   0  0  0  0  0  0  0  0  0  0  0  0
  140.2713   81.5847  222.5129 H   0  0  0  0  0  0  0  0  0  0  0  0
  142.3819   82.6327  223.7807 H   0  0  0  0  0  0  0  0  0  0  0  0
  143.9788   80.5491  224.4293 H   0  0  0  0  0  0  0  0  0  0  0  0
  139.3248   69.5799  222.6625 H   0  0  0  0  0  0  0  0  0  0  0  0
  139.0568   68.0607  224.5829 H   0  0  0  0  0  0  0  0  0  0  0  0
  139.3869   67.6210  226.8545 H   0  0  0  0  0  0  0  0  0  0  0  0
  141.3476   70.5366  229.3132 H   0  0  0  0  0  0  0  0  0  0  0  0
  141.6079   72.0429  227.3850 H   0  0  0  0  0  0  0  0  0  0  0  0
  1  2  2  0
  2  3  1  0
  3  4  1  0
  4  5  1  0
  5  6  2  0
  5  7  1  0
  7  8  1  0
  8  9  1  0
  9 10  1  0
 10 11  1  0
 11 12  1  0
 12 13  1  0
 13 14  1  0
 14 15  1  0
 15 16  2  0
 16 17  1  0
 17 18  2  0
  2 19  1  0
 19 20  2  0
 20 21  1  0
 21 22  2  0
 22 23  1  0
 23 24  2  0
 24 25  1  0
 24 26  1  0
 26 27  2  0
 27 28  1  0
 28 29  2  0
 12  7  1  0
 18 14  1  0
 29 19  1  0
 28 22  1  0
  3 30  1  0
  4 31  1  0
  4 32  1  0
  8 33  1  0
  8 34  1  0
  9 35  1  0
  9 36  1  0
 10 37  1  0
 10 38  1  0
 11 39  1  0
 11 40  1  0
 12 41  1  1
 13 42  1  0
 13 43  1  0
 15 44  1  0
 16 45  1  0
 17 46  1  0
 20 47  1  0
 21 48  1  0
 23 49  1  0
 26 50  1  0
 27 51  1  0
M  END
>  <smiles>  (41) 
O=C(NCC(=O)N1CCCC[C@H]1Cn1cccn1)c1ccc2cc(F)ccc2n1

>  <score_type>  (41) 
oracle

>  <origin>  (41) 
autodockgpu

>  <m_score__min__energy>  (41) 
-8.3000000000000007

>  <m_primary>  (41) 
energy

>  <rmsd>  (41) 
2.096147583884813

>  <m_score__min__rmsd>  (41) 
2.096147583884813

>  <meeko>  (41) 
{"free_energy": -7.81, "intermolecular_energy": -9.6, "internal_energy": -1.65, "cluster_size": 21, "cluster_id": 1, "rank_in_cluster": 18}

>  <energy>  (41) 
-7.55

>  <cluster_rmsd>  (41) 
1.57

>  <cluster>  (41) 
3

$$$$

     RDKit          3D

 51 54  0  0  0  0  0  0  0  0999 V2000
  140.6240   71.6410  221.0820 O   0  0  0  0  0  0  0  0  0  0  0  0
  140.2310   72.2030  222.1580 C   0  0  0  0  0  0  0  0  0  0  0  0
  139.8770   73.5840  222.2010 N   0  0  0  0  0  0  0  0  0  0  0  0
  139.9810   74.3550  220.9550 C   0  0  0  0  0  0  0  0  0  0  0  0
  140.6940   75.6150  221.1560 C   0  0  0  0  0  0  0  0  0  0  0  0
  140.8140   76.0430  222.3410 O   0  0  0  0  0  0  0  0  0  0  0  0
  141.2710   76.4110  220.1360 N   0  0  0  0  0  0  0  0  0  0  0  0
  140.7910   77.7670  220.0010 C   0  0  0  0  0  0  0  0  0  0  0  0
  141.7230   78.7180  219.3480 C   0  0  0  0  0  0  0  0  0  0  0  0
  142.5390   78.1780  218.2180 C   0  0  0  0  0  0  0  0  0  0  0  0
  142.1270   76.7570  217.9460 C   0  0  0  0  0  0  0  0  0  0  0  0
  142.2910   75.9610  219.2230 C   0  0  1  0  0  0  0  0  0  0  0  0
  143.6910   76.0360  219.7540 C   0  0  0  0  0  0  0  0  0  0  0  0
  144.0880   74.6910  220.1530 N   0  0  0  0  0  0  0  0  0  0  0  0
  143.2190   73.6390  220.2090 C   0  0  0  0  0  0  0  0  0  0  0  0
  143.8840   72.5050  220.6200 C   0  0  0  0  0  0  0  0  0  0  0  0
  145.1900   72.8930  220.8140 C   0  0  0  0  0  0  0  0  0  0  0  0
  145.2360   74.2030  220.5180 N   0  0  0  0  0  0  0  0  0  0  0  0
  140.1370   71.4110  223.3840 C   0  0  0  0  0  0  0  0  0  0  0  0
  139.5380   70.1690  223.3620 C   0  0  0  0  0  0  0  0  0  0  0  0
  139.4100   69.3640  224.4660 C   0  0  0  0  0  0  0  0  0  0  0  0
  139.9160   69.8420  225.6580 C   0  0  0  0  0  0  0  0  0  0  0  0
  139.7890   69.0390  226.7640 C   0  0  0  0  0  0  0  0  0  0  0  0
  140.2860   69.4880  227.9780 C   0  0  0  0  0  0  0  0  0  0  0  0
  140.1690   68.7050  229.0810 F   0  0  0  0  0  0  0  0  0  0  0  0
  140.8880   70.7330  228.0020 C   0  0  0  0  0  0  0  0  0  0  0  0
  141.0090   71.5310  226.8820 C   0  0  0  0  0  0  0  0  0  0  0  0
  140.5130   71.0840  225.6710 C   0  0  0  0  0  0  0  0  0  0  0  0
  140.6270   71.8580  224.5690 N   0  0  0  0  0  0  0  0  0  0  0  0
  139.5540   74.0350  223.0900 H   0  0  0  0  0  0  0  0  0  0  0  0
  140.5218   73.7547  220.2086 H   0  0  0  0  0  0  0  0  0  0  0  0
  138.9627   74.5887  220.6108 H   0  0  0  0  0  0  0  0  0  0  0  0
  139.8652   77.7401  219.4076 H   0  0  0  0  0  0  0  0  0  0  0  0
  140.6533   78.1394  221.0268 H   0  0  0  0  0  0  0  0  0  0  0  0
  141.1273   79.5572  218.9596 H   0  0  0  0  0  0  0  0  0  0  0  0
  142.4490   78.9967  220.1260 H   0  0  0  0  0  0  0  0  0  0  0  0
  142.3713   78.7884  217.3184 H   0  0  0  0  0  0  0  0  0  0  0  0
  143.6058   78.2092  218.4843 H   0  0  0  0  0  0  0  0  0  0  0  0
  141.0757   76.7300  217.6234 H   0  0  0  0  0  0  0  0  0  0  0  0
  142.7520   76.3275  217.1492 H   0  0  0  0  0  0  0  0  0  0  0  0
  142.1484   74.8844  219.0483 H   0  0  0  0  0  0  0  0  0  0  0  0
  144.3684   76.4098  218.9721 H   0  0  0  0  0  0  0  0  0  0  0  0
  143.7406   76.7222  220.6123 H   0  0  0  0  0  0  0  0  0  0  0  0
  142.1481   73.6897  219.9627 H   0  0  0  0  0  0  0  0  0  0  0  0
  143.4601   71.5001  220.7631 H   0  0  0  0  0  0  0  0  0  0  0  0
  146.0264   72.2595  221.1443 H   0  0  0  0  0  0  0  0  0  0  0  0
  139.1399   69.8025  222.4043 H   0  0  0  0  0  0  0  0  0  0  0  0
  138.9245   68.3789  224.4036 H   0  0  0  0  0  0  0  0  0  0  0  0
  139.3012   68.0560  226.6885 H   0  0  0  0  0  0  0  0  0  0  0  0
  141.2886   71.1042  228.9569 H   0  0  0  0  0  0  0  0  0  0  0  0
  141.4962   72.5147  226.9523 H   0  0  0  0  0  0  0  0  0  0  0  0
  1  2  2  0
  2  3  1  0
  3  4  1  0
  4  5  1  0
  5  6  2  0
  5  7  1  0
  7  8  1  0
  8  9  1  0
  9 10  1  0
 10 11  1  0
 11 12  1  0
 12 13  1  0
 13 14  1  0
 14 15  1  0
 15 16  2  0
 16 17  1  0
 17 18  2  0
  2 19  1  0
 19 20  2  0
 20 21  1  0
 21 22  2  0
 22 23  1  0
 23 24  2  0
 24 25  1  0
 24 26  1  0
 26 27  2  0
 27 28  1  0
 28 29  2  0
 12  7  1  0
 18 14  1  0
 29 19  1  0
 28 22  1  0
  3 30  1  0
  4 31  1  0
  4 32  1  0
  8 33  1  0
  8 34  1  0
  9 35  1  0
  9 36  1  0
 10 37  1  0
 10 38  1  0
 11 39  1  0
 11 40  1  0
 12 41  1  6
 13 42  1  0
 13 43  1  0
 15 44  1  0
 16 45  1  0
 17 46  1  0
 20 47  1  0
 21 48  1  0
 23 49  1  0
 26 50  1  0
 27 51  1  0
M  END
>  <smiles>  (42) 
O=C(NCC(=O)N1CCCC[C@H]1Cn1cccn1)c1ccc2cc(F)ccc2n1

>  <score_type>  (42) 
oracle

>  <origin>  (42) 
autodockgpu

>  <m_score__min__energy>  (42) 
-8.3000000000000007

>  <m_primary>  (42) 
energy

>  <rmsd>  (42) 
3.4574626137687576

>  <m_score__min__rmsd>  (42) 
3.4574626137687576

>  <meeko>  (42) 
{"free_energy": -7.93, "intermolecular_energy": -9.72, "internal_energy": -1.96, "cluster_size": 17, "cluster_id": 2, "rank_in_cluster": 7}

>  <energy>  (42) 
-7.43

>  <cluster_rmsd>  (42) 
1.52

>  <cluster>  (42) 
3

$$$$

     RDKit          3D

 51 54  0  0  0  0  0  0  0  0999 V2000
  141.1570   71.4690  221.4290 O   0  0  0  0  0  0  0  0  0  0  0  0
  140.5580   72.0560  222.3910 C   0  0  0  0  0  0  0  0  0  0  0  0
  140.1230   73.4110  222.2920 N   0  0  0  0  0  0  0  0  0  0  0  0
  140.3880   74.1230  221.0350 C   0  0  0  0  0  0  0  0  0  0  0  0
  140.6710   75.5390  221.2660 C   0  0  0  0  0  0  0  0  0  0  0  0
  140.3960   76.0180  222.4030 O   0  0  0  0  0  0  0  0  0  0  0  0
  141.2320   76.4340  220.3220 N   0  0  0  0  0  0  0  0  0  0  0  0
  140.8680   77.8270  220.4300 C   0  0  0  0  0  0  0  0  0  0  0  0
  141.8250   78.7930  219.8370 C   0  0  0  0  0  0  0  0  0  0  0  0
  142.4950   78.3690  218.5700 C   0  0  0  0  0  0  0  0  0  0  0  0
  141.9360   77.0420  218.1340 C   0  0  0  0  0  0  0  0  0  0  0  0
  142.1310   76.0510  219.2620 C   0  0  1  0  0  0  0  0  0  0  0  0
  143.5710   75.9370  219.6640 C   0  0  0  0  0  0  0  0  0  0  0  0
  143.8450   74.5310  219.9360 N   0  0  0  0  0  0  0  0  0  0  0  0
  144.8100   74.1110  220.8080 C   0  0  0  0  0  0  0  0  0  0  0  0
  144.8330   72.7340  220.8510 C   0  0  0  0  0  0  0  0  0  0  0  0
  143.8520   72.3220  219.9790 C   0  0  0  0  0  0  0  0  0  0  0  0
  143.3090   73.4410  219.4730 N   0  0  0  0  0  0  0  0  0  0  0  0
  140.3080   71.3220  223.6310 C   0  0  0  0  0  0  0  0  0  0  0  0
  139.6730   70.0970  223.5960 C   0  0  0  0  0  0  0  0  0  0  0  0
  139.4020   69.3460  224.7110 C   0  0  0  0  0  0  0  0  0  0  0  0
  139.7940   69.8620  225.9300 C   0  0  0  0  0  0  0  0  0  0  0  0
  139.5230   69.1120  227.0470 C   0  0  0  0  0  0  0  0  0  0  0  0
  139.9020   69.6000  228.2890 C   0  0  0  0  0  0  0  0  0  0  0  0
  139.6420   68.8700  229.4040 F   0  0  0  0  0  0  0  0  0  0  0  0
  140.5390   70.8270  228.3270 C   0  0  0  0  0  0  0  0  0  0  0  0
  140.8050   71.5710  227.1940 C   0  0  0  0  0  0  0  0  0  0  0  0
  140.4270   71.0860  225.9570 C   0  0  0  0  0  0  0  0  0  0  0  0
  140.6830   71.8070  224.8430 N   0  0  0  0  0  0  0  0  0  0  0  0
  139.6320   73.8830  223.0880 H   0  0  0  0  0  0  0  0  0  0  0  0
  141.2554   73.6620  220.5400 H   0  0  0  0  0  0  0  0  0  0  0  0
  139.4902   74.0508  220.4036 H   0  0  0  0  0  0  0  0  0  0  0  0
  139.8982   77.9621  219.9288 H   0  0  0  0  0  0  0  0  0  0  0  0
  140.8500   78.0480  221.5074 H   0  0  0  0  0  0  0  0  0  0  0  0
  141.2768   79.7241  219.6308 H   0  0  0  0  0  0  0  0  0  0  0  0
  142.6334   78.8958  220.5759 H   0  0  0  0  0  0  0  0  0  0  0  0
  142.3115   79.1203  217.7877 H   0  0  0  0  0  0  0  0  0  0  0  0
  143.5781   78.2761  218.7383 H   0  0  0  0  0  0  0  0  0  0  0  0
  140.8639   77.1452  217.9106 H   0  0  0  0  0  0  0  0  0  0  0  0
  142.4526   76.6920  217.2281 H   0  0  0  0  0  0  0  0  0  0  0  0
  141.8787   75.0272  218.9486 H   0  0  0  0  0  0  0  0  0  0  0  0
  144.2171   76.2937  218.8483 H   0  0  0  0  0  0  0  0  0  0  0  0
  143.7716   76.5484  220.5562 H   0  0  0  0  0  0  0  0  0  0  0  0
  145.4694   74.7730  221.3884 H   0  0  0  0  0  0  0  0  0  0  0  0
  145.4963   72.0979  221.4555 H   0  0  0  0  0  0  0  0  0  0  0  0
  143.5695   71.2853  219.7438 H   0  0  0  0  0  0  0  0  0  0  0  0
  139.3665   69.7001  222.6169 H   0  0  0  0  0  0  0  0  0  0  0  0
  138.8936   68.3733  224.6372 H   0  0  0  0  0  0  0  0  0  0  0  0
  139.0141   68.1408  226.9589 H   0  0  0  0  0  0  0  0  0  0  0  0
  140.8477   71.2285  229.3035 H   0  0  0  0  0  0  0  0  0  0  0  0
  141.3141   72.5426  227.2761 H   0  0  0  0  0  0  0  0  0  0  0  0
  1  2  2  0
  2  3  1  0
  3  4  1  0
  4  5  1  0
  5  6  2  0
  5  7  1  0
  7  8  1  0
  8  9  1  0
  9 10  1  0
 10 11  1  0
 11 12  1  0
 12 13  1  0
 13 14  1  0
 14 15  1  0
 15 16  2  0
 16 17  1  0
 17 18  2  0
  2 19  1  0
 19 20  2  0
 20 21  1  0
 21 22  2  0
 22 23  1  0
 23 24  2  0
 24 25  1  0
 24 26  1  0
 26 27  2  0
 27 28  1  0
 28 29  2  0
 12  7  1  0
 18 14  1  0
 29 19  1  0
 28 22  1  0
  3 30  1  0
  4 31  1  0
  4 32  1  0
  8 33  1  0
  8 34  1  0
  9 35  1  0
  9 36  1  0
 10 37  1  0
 10 38  1  0
 11 39  1  0
 11 40  1  0
 12 41  1  6
 13 42  1  0
 13 43  1  0
 15 44  1  0
 16 45  1  0
 17 46  1  0
 20 47  1  0
 21 48  1  0
 23 49  1  0
 26 50  1  0
 27 51  1  0
M  END
>  <smiles>  (43) 
O=C(NCC(=O)N1CCCC[C@H]1Cn1cccn1)c1ccc2cc(F)ccc2n1

>  <score_type>  (43) 
oracle

>  <origin>  (43) 
autodockgpu

>  <m_score__min__energy>  (43) 
-8.3000000000000007

>  <m_primary>  (43) 
energy

>  <rmsd>  (43) 
3.5882597595525687

>  <m_score__min__rmsd>  (43) 
3.5882597595525687

>  <meeko>  (43) 
{"free_energy": -7.69, "intermolecular_energy": -9.48, "internal_energy": -2.02, "cluster_size": 17, "cluster_id": 2, "rank_in_cluster": 16}

>  <energy>  (43) 
-7.35

>  <cluster_rmsd>  (43) 
0.68

>  <cluster>  (43) 
3

$$$$

     RDKit          3D

 51 54  0  0  0  0  0  0  0  0999 V2000
  140.8330   71.2820  221.2530 O   0  0  0  0  0  0  0  0  0  0  0  0
  140.3980   71.8940  222.2840 C   0  0  0  0  0  0  0  0  0  0  0  0
  140.0640   73.2810  222.2510 N   0  0  0  0  0  0  0  0  0  0  0  0
  140.2380   73.9960  220.9800 C   0  0  0  0  0  0  0  0  0  0  0  0
  140.6240   75.3890  221.1930 C   0  0  0  0  0  0  0  0  0  0  0  0
  140.3820   75.9030  222.3230 O   0  0  0  0  0  0  0  0  0  0  0  0
  141.2520   76.2280  220.2390 N   0  0  0  0  0  0  0  0  0  0  0  0
  140.7540   77.5780  220.1120 C   0  0  0  0  0  0  0  0  0  0  0  0
  141.7080   78.5670  219.5530 C   0  0  0  0  0  0  0  0  0  0  0  0
  142.6110   78.0780  218.4670 C   0  0  0  0  0  0  0  0  0  0  0  0
  142.2480   76.6590  218.1240 C   0  0  0  0  0  0  0  0  0  0  0  0
  142.3420   75.8270  219.3850 C   0  0  1  0  0  0  0  0  0  0  0  0
  143.7010   75.9120  220.0130 C   0  0  0  0  0  0  0  0  0  0  0  0
  144.1640   74.5510  220.2560 N   0  0  0  0  0  0  0  0  0  0  0  0
  143.3470   73.4580  220.1950 C   0  0  0  0  0  0  0  0  0  0  0  0
  144.0690   72.3180  220.4710 C   0  0  0  0  0  0  0  0  0  0  0  0
  145.3570   72.7460  220.7040 C   0  0  0  0  0  0  0  0  0  0  0  0
  145.3380   74.0800  220.5590 N   0  0  0  0  0  0  0  0  0  0  0  0
  140.2350   71.1570  223.5360 C   0  0  0  0  0  0  0  0  0  0  0  0
  139.5890   69.9380  223.5440 C   0  0  0  0  0  0  0  0  0  0  0  0
  139.3950   69.1840  224.6730 C   0  0  0  0  0  0  0  0  0  0  0  0
  139.8810   69.6910  225.8610 C   0  0  0  0  0  0  0  0  0  0  0  0
  139.6890   68.9390  226.9930 C   0  0  0  0  0  0  0  0  0  0  0  0
  140.1640   69.4180  228.2050 C   0  0  0  0  0  0  0  0  0  0  0  0
  139.9810   68.6850  229.3330 F   0  0  0  0  0  0  0  0  0  0  0  0
  140.8120   70.6390  228.2000 C   0  0  0  0  0  0  0  0  0  0  0  0
  140.9990   71.3870  227.0530 C   0  0  0  0  0  0  0  0  0  0  0  0
  140.5260   70.9100  225.8460 C   0  0  0  0  0  0  0  0  0  0  0  0
  140.7040   71.6330  224.7190 N   0  0  0  0  0  0  0  0  0  0  0  0
  139.7060   73.7730  223.1040 H   0  0  0  0  0  0  0  0  0  0  0  0
  141.0216   73.4945  220.3931 H   0  0  0  0  0  0  0  0  0  0  0  0
  139.2769   73.9840  220.4450 H   0  0  0  0  0  0  0  0  0  0  0  0
  139.8714   77.5521  219.4560 H   0  0  0  0  0  0  0  0  0  0  0  0
  140.5393   77.9154  221.1367 H   0  0  0  0  0  0  0  0  0  0  0  0
  141.1222   79.4059  219.1490 H   0  0  0  0  0  0  0  0  0  0  0  0
  142.3727   78.8360  220.3871 H   0  0  0  0  0  0  0  0  0  0  0  0
  142.4935   78.7134  217.5768 H   0  0  0  0  0  0  0  0  0  0  0  0
  143.6560   78.1203  218.8080 H   0  0  0  0  0  0  0  0  0  0  0  0
  141.2217   76.6224  217.7297 H   0  0  0  0  0  0  0  0  0  0  0  0
  142.9337   76.2665  217.3587 H   0  0  0  0  0  0  0  0  0  0  0  0
  142.2351   74.7538  219.1689 H   0  0  0  0  0  0  0  0  0  0  0  0
  144.3956   76.4282  219.3340 H   0  0  0  0  0  0  0  0  0  0  0  0
  143.6547   76.4768  220.9558 H   0  0  0  0  0  0  0  0  0  0  0  0
  142.2726   73.4843  219.9604 H   0  0  0  0  0  0  0  0  0  0  0  0
  143.6955   71.2837  220.4993 H   0  0  0  0  0  0  0  0  0  0  0  0
  146.2258   72.1208  220.9577 H   0  0  0  0  0  0  0  0  0  0  0  0
  139.2072   69.5480  222.5889 H   0  0  0  0  0  0  0  0  0  0  0  0
  138.8740   68.2160  224.6333 H   0  0  0  0  0  0  0  0  0  0  0  0
  139.1669   67.9722  226.9400 H   0  0  0  0  0  0  0  0  0  0  0  0
  141.1963   71.0332  229.1523 H   0  0  0  0  0  0  0  0  0  0  0  0
  141.5203   72.3544  227.1009 H   0  0  0  0  0  0  0  0  0  0  0  0
  1  2  2  0
  2  3  1  0
  3  4  1  0
  4  5  1  0
  5  6  2  0
  5  7  1  0
  7  8  1  0
  8  9  1  0
  9 10  1  0
 10 11  1  0
 11 12  1  0
 12 13  1  0
 13 14  1  0
 14 15  1  0
 15 16  2  0
 16 17  1  0
 17 18  2  0
  2 19  1  0
 19 20  2  0
 20 21  1  0
 21 22  2  0
 22 23  1  0
 23 24  2  0
 24 25  1  0
 24 26  1  0
 26 27  2  0
 27 28  1  0
 28 29  2  0
 12  7  1  0
 18 14  1  0
 29 19  1  0
 28 22  1  0
  3 30  1  0
  4 31  1  0
  4 32  1  0
  8 33  1  0
  8 34  1  0
  9 35  1  0
  9 36  1  0
 10 37  1  0
 10 38  1  0
 11 39  1  0
 11 40  1  0
 12 41  1  6
 13 42  1  0
 13 43  1  0
 15 44  1  0
 16 45  1  0
 17 46  1  0
 20 47  1  0
 21 48  1  0
 23 49  1  0
 26 50  1  0
 27 51  1  0
M  END
>  <smiles>  (44) 
O=C(NCC(=O)N1CCCC[C@H]1Cn1cccn1)c1ccc2cc(F)ccc2n1

>  <score_type>  (44) 
oracle

>  <origin>  (44) 
autodockgpu

>  <m_score__min__energy>  (44) 
-8.3000000000000007

>  <m_primary>  (44) 
energy

>  <rmsd>  (44) 
3.521949168837194

>  <m_score__min__rmsd>  (44) 
3.521949168837194

>  <meeko>  (44) 
{"free_energy": -7.71, "intermolecular_energy": -9.5, "internal_energy": -2.0, "cluster_size": 17, "cluster_id": 2, "rank_in_cluster": 15}

>  <energy>  (44) 
-7.51

>  <cluster_rmsd>  (44) 
0.0

>  <cluster>  (44) 
4

$$$$

     RDKit          3D

 51 54  0  0  0  0  0  0  0  0999 V2000
  138.0720   70.3520  221.7090 O   0  0  0  0  0  0  0  0  0  0  0  0
  138.5050   71.2480  222.5070 C   0  0  0  0  0  0  0  0  0  0  0  0
  138.3750   72.6400  222.2190 N   0  0  0  0  0  0  0  0  0  0  0  0
  137.7210   73.0180  220.9600 C   0  0  0  0  0  0  0  0  0  0  0  0
  138.2330   74.2870  220.4450 C   0  0  0  0  0  0  0  0  0  0  0  0
  138.7240   74.2960  219.2800 O   0  0  0  0  0  0  0  0  0  0  0  0
  138.2300   75.5220  221.1380 N   0  0  0  0  0  0  0  0  0  0  0  0
  137.0880   75.8120  221.9740 C   0  0  0  0  0  0  0  0  0  0  0  0
  137.3210   76.7860  223.0690 C   0  0  0  0  0  0  0  0  0  0  0  0
  138.2340   77.9280  222.7580 C   0  0  0  0  0  0  0  0  0  0  0  0
  138.6390   77.8580  221.3110 C   0  0  0  0  0  0  0  0  0  0  0  0
  139.2790   76.5090  221.0610 C   0  0  1  0  0  0  0  0  0  0  0  0
  140.4440   76.2640  221.9720 C   0  0  0  0  0  0  0  0  0  0  0  0
  140.9940   74.9540  221.6470 N   0  0  0  0  0  0  0  0  0  0  0  0
  141.9650   74.7600  220.7040 C   0  0  0  0  0  0  0  0  0  0  0  0
  142.2760   73.4210  220.6220 C   0  0  0  0  0  0  0  0  0  0  0  0
  141.4660   72.7970  221.5430 C   0  0  0  0  0  0  0  0  0  0  0  0
  140.7340   73.7680  222.1120 N   0  0  0  0  0  0  0  0  0  0  0  0
  139.1530   70.8420  223.7540 C   0  0  0  0  0  0  0  0  0  0  0  0
  140.0420   71.6900  224.3810 C   0  0  0  0  0  0  0  0  0  0  0  0
  140.6910   71.3860  225.5510 C   0  0  0  0  0  0  0  0  0  0  0  0
  140.4260   70.1560  226.1180 C   0  0  0  0  0  0  0  0  0  0  0  0
  141.0740   69.8480  227.2890 C   0  0  0  0  0  0  0  0  0  0  0  0
  140.8320   68.6200  227.8860 C   0  0  0  0  0  0  0  0  0  0  0  0
  141.4650   68.3020  229.0440 F   0  0  0  0  0  0  0  0  0  0  0  0
  139.9400   67.7690  227.2590 C   0  0  0  0  0  0  0  0  0  0  0  0
  139.2950   68.0900  226.0810 C   0  0  0  0  0  0  0  0  0  0  0  0
  139.5360   69.3140  225.4850 C   0  0  0  0  0  0  0  0  0  0  0  0
  138.9100   69.6380  224.3320 N   0  0  0  0  0  0  0  0  0  0  0  0
  138.7340   73.3670  222.8820 H   0  0  0  0  0  0  0  0  0  0  0  0
  137.9027   72.2309  220.2134 H   0  0  0  0  0  0  0  0  0  0  0  0
  136.6447   73.1357  221.1543 H   0  0  0  0  0  0  0  0  0  0  0  0
  136.2910   76.2122  221.3300 H   0  0  0  0  0  0  0  0  0  0  0  0
  136.8299   74.8633  222.4674 H   0  0  0  0  0  0  0  0  0  0  0  0
  136.3459   77.2057  223.3571 H   0  0  0  0  0  0  0  0  0  0  0  0
  137.8243   76.2171  223.8647 H   0  0  0  0  0  0  0  0  0  0  0  0
  137.7131   78.8779  222.9486 H   0  0  0  0  0  0  0  0  0  0  0  0
  139.1287   77.8698  223.3953 H   0  0  0  0  0  0  0  0  0  0  0  0
  137.7521   77.9733  220.6706 H   0  0  0  0  0  0  0  0  0  0  0  0
  139.3502   78.6639  221.0772 H   0  0  0  0  0  0  0  0  0  0  0  0
  139.7310   76.4564  220.0595 H   0  0  0  0  0  0  0  0  0  0  0  0
  141.2087   77.0397  221.8188 H   0  0  0  0  0  0  0  0  0  0  0  0
  140.1236   76.2967  223.0238 H   0  0  0  0  0  0  0  0  0  0  0  0
  142.4284   75.5547  220.1010 H   0  0  0  0  0  0  0  0  0  0  0  0
  143.0165   72.9492  219.9594 H   0  0  0  0  0  0  0  0  0  0  0  0
  141.4263   71.7209  221.7675 H   0  0  0  0  0  0  0  0  0  0  0  0
  140.2423   72.6666  223.9161 H   0  0  0  0  0  0  0  0  0  0  0  0
  141.3930   72.0929  226.0174 H   0  0  0  0  0  0  0  0  0  0  0  0
  141.7735   70.5636  227.7458 H   0  0  0  0  0  0  0  0  0  0  0  0
  139.7350   66.7915  227.7200 H   0  0  0  0  0  0  0  0  0  0  0  0
  138.5949   67.3774  225.6204 H   0  0  0  0  0  0  0  0  0  0  0  0
  1  2  2  0
  2  3  1  0
  3  4  1  0
  4  5  1  0
  5  6  2  0
  5  7  1  0
  7  8  1  0
  8  9  1  0
  9 10  1  0
 10 11  1  0
 11 12  1  0
 12 13  1  0
 13 14  1  0
 14 15  1  0
 15 16  2  0
 16 17  1  0
 17 18  2  0
  2 19  1  0
 19 20  2  0
 20 21  1  0
 21 22  2  0
 22 23  1  0
 23 24  2  0
 24 25  1  0
 24 26  1  0
 26 27  2  0
 27 28  1  0
 28 29  2  0
 12  7  1  0
 18 14  1  0
 29 19  1  0
 28 22  1  0
  3 30  1  0
  4 31  1  0
  4 32  1  0
  8 33  1  0
  8 34  1  0
  9 35  1  0
  9 36  1  0
 10 37  1  0
 10 38  1  0
 11 39  1  0
 11 40  1  0
 12 41  1  6
 13 42  1  0
 13 43  1  0
 15 44  1  0
 16 45  1  0
 17 46  1  0
 20 47  1  0
 21 48  1  0
 23 49  1  0
 26 50  1  0
 27 51  1  0
M  END
>  <smiles>  (45) 
O=C(NCC(=O)N1CCCC[C@H]1Cn1cccn1)c1ccc2cc(F)ccc2n1

>  <score_type>  (45) 
oracle

>  <origin>  (45) 
autodockgpu

>  <m_score__min__energy>  (45) 
-8.3000000000000007

>  <m_primary>  (45) 
energy

>  <rmsd>  (45) 
4.074382247081556

>  <m_score__min__rmsd>  (45) 
4.074382247081556

>  <meeko>  (45) 
{"free_energy": -6.76, "intermolecular_energy": -8.55, "internal_energy": -2.54, "cluster_size": 3, "cluster_id": 7, "rank_in_cluster": 1}

>  <energy>  (45) 
-7.12

>  <cluster_rmsd>  (45) 
0.0

>  <cluster>  (45) 
5

$$$$

     RDKit          3D

 51 54  0  0  0  0  0  0  0  0999 V2000
  138.4600   72.2100  222.2730 O   0  0  0  0  0  0  0  0  0  0  0  0
  139.6100   72.0320  222.7970 C   0  0  0  0  0  0  0  0  0  0  0  0
  140.7720   72.6980  222.3080 N   0  0  0  0  0  0  0  0  0  0  0  0
  140.6080   73.6090  221.1670 C   0  0  0  0  0  0  0  0  0  0  0  0
  140.1640   74.9350  221.5940 C   0  0  0  0  0  0  0  0  0  0  0  0
  139.4510   75.0120  222.6350 O   0  0  0  0  0  0  0  0  0  0  0  0
  140.4630   76.1560  220.9410 N   0  0  0  0  0  0  0  0  0  0  0  0
  140.0880   76.2750  219.5510 C   0  0  0  0  0  0  0  0  0  0  0  0
  139.9010   77.6580  219.0490 C   0  0  0  0  0  0  0  0  0  0  0  0
  140.8420   78.6910  219.5830 C   0  0  0  0  0  0  0  0  0  0  0  0
  141.8570   78.0230  220.4690 C   0  0  0  0  0  0  0  0  0  0  0  0
  141.1190   77.2800  221.5620 C   0  0  1  0  0  0  0  0  0  0  0  0
  140.2160   78.1850  222.3440 C   0  0  0  0  0  0  0  0  0  0  0  0
  141.0150   79.3080  222.8190 N   0  0  0  0  0  0  0  0  0  0  0  0
  142.1610   79.1570  223.5480 C   0  0  0  0  0  0  0  0  0  0  0  0
  142.6880   80.3930  223.8500 C   0  0  0  0  0  0  0  0  0  0  0  0
  141.8300   81.3080  223.2840 C   0  0  0  0  0  0  0  0  0  0  0  0
  140.8620   80.5920  222.6900 N   0  0  0  0  0  0  0  0  0  0  0  0
  139.7440   71.1190  223.9320 C   0  0  0  0  0  0  0  0  0  0  0  0
  139.2440   69.8350  223.8520 C   0  0  0  0  0  0  0  0  0  0  0  0
  139.3290   68.9190  224.8690 C   0  0  0  0  0  0  0  0  0  0  0  0
  139.9530   69.3230  226.0320 C   0  0  0  0  0  0  0  0  0  0  0  0
  140.0390   68.4070  227.0520 C   0  0  0  0  0  0  0  0  0  0  0  0
  140.6590   68.7800  228.2350 C   0  0  0  0  0  0  0  0  0  0  0  0
  140.7510   67.8860  229.2520 F   0  0  0  0  0  0  0  0  0  0  0  0
  141.1600   70.0650  228.3180 C   0  0  0  0  0  0  0  0  0  0  0  0
  141.0670   70.9770  227.2840 C   0  0  0  0  0  0  0  0  0  0  0  0
  140.4490   70.6070  226.1040 C   0  0  0  0  0  0  0  0  0  0  0  0
  140.3530   71.4910  225.0870 N   0  0  0  0  0  0  0  0  0  0  0  0
  141.7110   72.5450  222.7460 H   0  0  0  0  0  0  0  0  0  0  0  0
  141.5723   73.7062  220.6468 H   0  0  0  0  0  0  0  0  0  0  0  0
  139.8411   73.1887  220.4997 H   0  0  0  0  0  0  0  0  0  0  0  0
  140.8755   75.8004  218.9472 H   0  0  0  0  0  0  0  0  0  0  0  0
  139.1044   75.7902  219.4644 H   0  0  0  0  0  0  0  0  0  0  0  0
  140.0142   77.6354  217.9551 H   0  0  0  0  0  0  0  0  0  0  0  0
  138.9031   77.9633  219.3968 H   0  0  0  0  0  0  0  0  0  0  0  0
  141.3544   79.1894  218.7469 H   0  0  0  0  0  0  0  0  0  0  0  0
  140.2805   79.4389  220.1621 H   0  0  0  0  0  0  0  0  0  0  0  0
  142.4576   77.3154  219.8786 H   0  0  0  0  0  0  0  0  0  0  0  0
  142.5287   78.7747  220.9091 H   0  0  0  0  0  0  0  0  0  0  0  0
  141.8104   76.8976  222.3273 H   0  0  0  0  0  0  0  0  0  0  0  0
  139.4027   78.5502  221.6997 H   0  0  0  0  0  0  0  0  0  0  0  0
  139.7700   77.6444  223.1918 H   0  0  0  0  0  0  0  0  0  0  0  0
  142.5971   78.1929  223.8485 H   0  0  0  0  0  0  0  0  0  0  0  0
  143.6027   80.6044  224.4233 H   0  0  0  0  0  0  0  0  0  0  0  0
  141.9192   82.4040  223.3125 H   0  0  0  0  0  0  0  0  0  0  0  0
  138.7488   69.5288  222.9187 H   0  0  0  0  0  0  0  0  0  0  0  0
  138.9171   67.9046  224.7624 H   0  0  0  0  0  0  0  0  0  0  0  0
  139.6234   67.3955  226.9325 H   0  0  0  0  0  0  0  0  0  0  0  0
  141.6554   70.3762  229.2495 H   0  0  0  0  0  0  0  0  0  0  0  0
  141.4814   71.9894  227.3989 H   0  0  0  0  0  0  0  0  0  0  0  0
  1  2  2  0
  2  3  1  0
  3  4  1  0
  4  5  1  0
  5  6  2  0
  5  7  1  0
  7  8  1  0
  8  9  1  0
  9 10  1  0
 10 11  1  0
 11 12  1  0
 12 13  1  0
 13 14  1  0
 14 15  1  0
 15 16  2  0
 16 17  1  0
 17 18  2  0
  2 19  1  0
 19 20  2  0
 20 21  1  0
 21 22  2  0
 22 23  1  0
 23 24  2  0
 24 25  1  0
 24 26  1  0
 26 27  2  0
 27 28  1  0
 28 29  2  0
 12  7  1  0
 18 14  1  0
 29 19  1  0
 28 22  1  0
  3 30  1  0
  4 31  1  0
  4 32  1  0
  8 33  1  0
  8 34  1  0
  9 35  1  0
  9 36  1  0
 10 37  1  0
 10 38  1  0
 11 39  1  0
 11 40  1  0
 12 41  1  1
 13 42  1  0
 13 43  1  0
 15 44  1  0
 16 45  1  0
 17 46  1  0
 20 47  1  0
 21 48  1  0
 23 49  1  0
 26 50  1  0
 27 51  1  0
M  END
>  <smiles>  (46) 
O=C(NCC(=O)N1CCCC[C@H]1Cn1cccn1)c1ccc2cc(F)ccc2n1

>  <score_type>  (46) 
oracle

>  <origin>  (46) 
autodockgpu

>  <m_score__min__energy>  (46) 
-8.3000000000000007

>  <m_primary>  (46) 
energy

>  <rmsd>  (46) 
2.003609460951083

>  <m_score__min__rmsd>  (46) 
2.003609460951083

>  <meeko>  (46) 
{"free_energy": -7.78, "intermolecular_energy": -9.56, "internal_energy": -1.35, "cluster_size": 21, "cluster_id": 1, "rank_in_cluster": 20}

>  <energy>  (46) 
-7.12

>  <cluster_rmsd>  (46) 
0.0

>  <cluster>  (46) 
6

$$$$

     RDKit          3D

 51 54  0  0  0  0  0  0  0  0999 V2000
  140.7180   71.4500  221.1920 O   0  0  0  0  0  0  0  0  0  0  0  0
  140.2910   72.0380  222.2400 C   0  0  0  0  0  0  0  0  0  0  0  0
  139.9380   73.4200  222.2370 N   0  0  0  0  0  0  0  0  0  0  0  0
  140.0830   74.1590  220.9760 C   0  0  0  0  0  0  0  0  0  0  0  0
  140.6910   75.4720  221.1870 C   0  0  0  0  0  0  0  0  0  0  0  0
  140.6860   75.9440  222.3600 O   0  0  0  0  0  0  0  0  0  0  0  0
  141.2910   76.2750  220.1860 N   0  0  0  0  0  0  0  0  0  0  0  0
  140.7680   77.6090  220.0030 C   0  0  0  0  0  0  0  0  0  0  0  0
  141.6970   78.5870  219.3850 C   0  0  0  0  0  0  0  0  0  0  0  0
  142.5930   78.0620  218.3090 C   0  0  0  0  0  0  0  0  0  0  0  0
  142.2510   76.6230  218.0390 C   0  0  0  0  0  0  0  0  0  0  0  0
  142.3760   75.8520  219.3360 C   0  0  1  0  0  0  0  0  0  0  0  0
  143.7410   75.9890  219.9400 C   0  0  0  0  0  0  0  0  0  0  0  0
  144.1960   74.6570  220.3160 N   0  0  0  0  0  0  0  0  0  0  0  0
  143.3570   73.5860  220.4450 C   0  0  0  0  0  0  0  0  0  0  0  0
  144.0770   72.4700  220.8110 C   0  0  0  0  0  0  0  0  0  0  0  0
  145.3850   72.8880  220.9020 C   0  0  0  0  0  0  0  0  0  0  0  0
  145.3800   74.1950  220.5950 N   0  0  0  0  0  0  0  0  0  0  0  0
  140.1560   71.2770  223.4820 C   0  0  0  0  0  0  0  0  0  0  0  0
  139.5320   70.0460  223.4770 C   0  0  0  0  0  0  0  0  0  0  0  0
  139.3660   69.2700  224.5950 C   0  0  0  0  0  0  0  0  0  0  0  0
  139.8580   69.7660  225.7860 C   0  0  0  0  0  0  0  0  0  0  0  0
  139.6920   68.9910  226.9070 C   0  0  0  0  0  0  0  0  0  0  0  0
  140.1740   69.4590  228.1210 C   0  0  0  0  0  0  0  0  0  0  0  0
  140.0180   68.7040  229.2390 F   0  0  0  0  0  0  0  0  0  0  0  0
  140.8010   70.6920  228.1290 C   0  0  0  0  0  0  0  0  0  0  0  0
  140.9600   71.4610  226.9930 C   0  0  0  0  0  0  0  0  0  0  0  0
  140.4800   70.9960  225.7830 C   0  0  0  0  0  0  0  0  0  0  0  0
  140.6310   71.7420  224.6660 N   0  0  0  0  0  0  0  0  0  0  0  0
  139.5870   73.8930  223.1040 H   0  0  0  0  0  0  0  0  0  0  0  0
  140.7189   73.5771  220.2926 H   0  0  0  0  0  0  0  0  0  0  0  0
  139.0806   74.3093  220.5487 H   0  0  0  0  0  0  0  0  0  0  0  0
  139.8774   77.5374  219.3614 H   0  0  0  0  0  0  0  0  0  0  0  0
  140.5613   77.9904  221.0138 H   0  0  0  0  0  0  0  0  0  0  0  0
  141.0914   79.3965  218.9514 H   0  0  0  0  0  0  0  0  0  0  0  0
  142.3685   78.9060  220.1957 H   0  0  0  0  0  0  0  0  0  0  0  0
  142.4512   78.6522  217.3917 H   0  0  0  0  0  0  0  0  0  0  0  0
  143.6418   78.1382  218.6317 H   0  0  0  0  0  0  0  0  0  0  0  0
  141.2205   76.5504  217.6612 H   0  0  0  0  0  0  0  0  0  0  0  0
  142.9342   76.2068  217.2839 H   0  0  0  0  0  0  0  0  0  0  0  0
  142.2845   74.7683  219.1713 H   0  0  0  0  0  0  0  0  0  0  0  0
  144.4329   76.4277  219.2060 H   0  0  0  0  0  0  0  0  0  0  0  0
  143.7077   76.6471  220.8208 H   0  0  0  0  0  0  0  0  0  0  0  0
  142.2696   73.6113  220.2811 H   0  0  0  0  0  0  0  0  0  0  0  0
  143.6880   71.4572  220.9925 H   0  0  0  0  0  0  0  0  0  0  0  0
  146.2579   72.2753  221.1716 H   0  0  0  0  0  0  0  0  0  0  0  0
  139.1453   69.6653  222.5202 H   0  0  0  0  0  0  0  0  0  0  0  0
  138.8621   68.2935  224.5453 H   0  0  0  0  0  0  0  0  0  0  0  0
  139.1859   68.0164  226.8438 H   0  0  0  0  0  0  0  0  0  0  0  0
  141.1904   71.0772  229.0829 H   0  0  0  0  0  0  0  0  0  0  0  0
  141.4650   72.4365  227.0506 H   0  0  0  0  0  0  0  0  0  0  0  0
  1  2  2  0
  2  3  1  0
  3  4  1  0
  4  5  1  0
  5  6  2  0
  5  7  1  0
  7  8  1  0
  8  9  1  0
  9 10  1  0
 10 11  1  0
 11 12  1  0
 12 13  1  0
 13 14  1  0
 14 15  1  0
 15 16  2  0
 16 17  1  0
 17 18  2  0
  2 19  1  0
 19 20  2  0
 20 21  1  0
 21 22  2  0
 22 23  1  0
 23 24  2  0
 24 25  1  0
 24 26  1  0
 26 27  2  0
 27 28  1  0
 28 29  2  0
 12  7  1  0
 18 14  1  0
 29 19  1  0
 28 22  1  0
  3 30  1  0
  4 31  1  0
  4 32  1  0
  8 33  1  0
  8 34  1  0
  9 35  1  0
  9 36  1  0
 10 37  1  0
 10 38  1  0
 11 39  1  0
 11 40  1  0
 12 41  1  6
 13 42  1  0
 13 43  1  0
 15 44  1  0
 16 45  1  0
 17 46  1  0
 20 47  1  0
 21 48  1  0
 23 49  1  0
 26 50  1  0
 27 51  1  0
M  END
>  <smiles>  (47) 
O=C(NCC(=O)N1CCCC[C@H]1Cn1cccn1)c1ccc2cc(F)ccc2n1

>  <score_type>  (47) 
oracle

>  <origin>  (47) 
autodockgpu

>  <m_score__min__energy>  (47) 
-8.3000000000000007

>  <m_primary>  (47) 
energy

>  <rmsd>  (47) 
3.461424003278013

>  <m_score__min__rmsd>  (47) 
3.461424003278013

>  <meeko>  (47) 
{"free_energy": -7.85, "intermolecular_energy": -9.63, "internal_energy": -1.97, "cluster_size": 17, "cluster_id": 2, "rank_in_cluster": 12}

>  <energy>  (47) 
-6.76

>  <cluster_rmsd>  (47) 
0.0

>  <cluster>  (47) 
7

$$$$

     RDKit          3D

 51 54  0  0  0  0  0  0  0  0999 V2000
  140.1540   71.3960  221.1410 O   0  0  0  0  0  0  0  0  0  0  0  0
  139.9530   71.9810  222.2570 C   0  0  0  0  0  0  0  0  0  0  0  0
  139.7380   73.3890  222.3410 N   0  0  0  0  0  0  0  0  0  0  0  0
  139.7560   74.1580  221.0900 C   0  0  0  0  0  0  0  0  0  0  0  0
  140.6240   75.3300  221.1890 C   0  0  0  0  0  0  0  0  0  0  0  0
  140.8970   75.7680  222.3440 O   0  0  0  0  0  0  0  0  0  0  0  0
  141.1960   76.0300  220.0980 N   0  0  0  0  0  0  0  0  0  0  0  0
  140.8570   75.5780  218.7680 C   0  0  0  0  0  0  0  0  0  0  0  0
  140.9940   76.5870  217.6900 C   0  0  0  0  0  0  0  0  0  0  0  0
  142.1480   77.5310  217.8060 C   0  0  0  0  0  0  0  0  0  0  0  0
  142.9830   77.1460  218.9970 C   0  0  0  0  0  0  0  0  0  0  0  0
  142.0940   77.1510  220.2220 C   0  0  1  0  0  0  0  0  0  0  0  0
  141.4250   78.4770  220.4240 C   0  0  0  0  0  0  0  0  0  0  0  0
  141.7030   78.9120  221.7870 N   0  0  0  0  0  0  0  0  0  0  0  0
  142.5000   79.9820  222.0850 C   0  0  0  0  0  0  0  0  0  0  0  0
  142.5740   80.1430  223.4510 C   0  0  0  0  0  0  0  0  0  0  0  0
  141.7970   79.1400  223.9830 C   0  0  0  0  0  0  0  0  0  0  0  0
  141.3130   78.4500  222.9380 N   0  0  0  0  0  0  0  0  0  0  0  0
  139.9410   71.1900  223.4860 C   0  0  0  0  0  0  0  0  0  0  0  0
  139.4230   69.9110  223.4830 C   0  0  0  0  0  0  0  0  0  0  0  0
  139.3740   69.1040  224.5910 C   0  0  0  0  0  0  0  0  0  0  0  0
  139.8780   69.6180  225.7680 C   0  0  0  0  0  0  0  0  0  0  0  0
  139.8310   68.8120  226.8790 C   0  0  0  0  0  0  0  0  0  0  0  0
  140.3280   69.2970  228.0800 C   0  0  0  0  0  0  0  0  0  0  0  0
  140.2880   68.5120  229.1860 F   0  0  0  0  0  0  0  0  0  0  0  0
  140.8480   70.5780  228.0860 C   0  0  0  0  0  0  0  0  0  0  0  0
  140.8900   71.3780  226.9610 C   0  0  0  0  0  0  0  0  0  0  0  0
  140.3940   70.8960  225.7640 C   0  0  0  0  0  0  0  0  0  0  0  0
  140.4300   71.6710  224.6580 N   0  0  0  0  0  0  0  0  0  0  0  0
  139.5730   73.8590  223.2630 H   0  0  0  0  0  0  0  0  0  0  0  0
  140.1215   73.5110  220.2789 H   0  0  0  0  0  0  0  0  0  0  0  0
  138.7324   74.5053  220.8859 H   0  0  0  0  0  0  0  0  0  0  0  0
  141.5130   74.7300  218.5221 H   0  0  0  0  0  0  0  0  0  0  0  0
  139.7881   75.3207  218.8029 H   0  0  0  0  0  0  0  0  0  0  0  0
  141.0978   76.0470  216.7373 H   0  0  0  0  0  0  0  0  0  0  0  0
  140.0940   77.2153  217.7616 H   0  0  0  0  0  0  0  0  0  0  0  0
  142.7607   77.4772  216.8940 H   0  0  0  0  0  0  0  0  0  0  0  0
  141.7747   78.5580  217.9323 H   0  0  0  0  0  0  0  0  0  0  0  0
  143.4039   76.1409  218.8469 H   0  0  0  0  0  0  0  0  0  0  0  0
  143.8105   77.8591  219.1262 H   0  0  0  0  0  0  0  0  0  0  0  0
  142.6788   77.0250  221.1451 H   0  0  0  0  0  0  0  0  0  0  0  0
  141.8241   79.2106  219.7081 H   0  0  0  0  0  0  0  0  0  0  0  0
  140.3406   78.3894  220.2618 H   0  0  0  0  0  0  0  0  0  0  0  0
  143.0063   80.6190  221.3448 H   0  0  0  0  0  0  0  0  0  0  0  0
  143.1363   80.9120  224.0010 H   0  0  0  0  0  0  0  0  0  0  0  0
  141.6101   78.9432  225.0490 H   0  0  0  0  0  0  0  0  0  0  0  0
  139.0261   69.5154  222.5364 H   0  0  0  0  0  0  0  0  0  0  0  0
  138.9507   68.0898  224.5432 H   0  0  0  0  0  0  0  0  0  0  0  0
  139.4065   67.7991  226.8176 H   0  0  0  0  0  0  0  0  0  0  0  0
  141.2465   70.9783  229.0299 H   0  0  0  0  0  0  0  0  0  0  0  0
  141.3149   72.3911  227.0170 H   0  0  0  0  0  0  0  0  0  0  0  0
  1  2  2  0
  2  3  1  0
  3  4  1  0
  4  5  1  0
  5  6  2  0
  5  7  1  0
  7  8  1  0
  8  9  1  0
  9 10  1  0
 10 11  1  0
 11 12  1  0
 12 13  1  0
 13 14  1  0
 14 15  1  0
 15 16  2  0
 16 17  1  0
 17 18  2  0
  2 19  1  0
 19 20  2  0
 20 21  1  0
 21 22  2  0
 22 23  1  0
 23 24  2  0
 24 25  1  0
 24 26  1  0
 26 27  2  0
 27 28  1  0
 28 29  2  0
 12  7  1  0
 18 14  1  0
 29 19  1  0
 28 22  1  0
  3 30  1  0
  4 31  1  0
  4 32  1  0
  8 33  1  0
  8 34  1  0
  9 35  1  0
  9 36  1  0
 10 37  1  0
 10 38  1  0
 11 39  1  0
 11 40  1  0
 12 41  1  1
 13 42  1  0
 13 43  1  0
 15 44  1  0
 16 45  1  0
 17 46  1  0
 20 47  1  0
 21 48  1  0
 23 49  1  0
 26 50  1  0
 27 51  1  0
M  END
>  <smiles>  (48) 
O=C(NCC(=O)N1CCCC[C@H]1Cn1cccn1)c1ccc2cc(F)ccc2n1

>  <score_type>  (48) 
oracle

>  <origin>  (48) 
autodockgpu

>  <m_score__min__energy>  (48) 
-8.3000000000000007

>  <m_primary>  (48) 
energy

>  <rmsd>  (48) 
1.8114355133375963

>  <m_score__min__rmsd>  (48) 
1.8114355133375963

>  <meeko>  (48) 
{"free_energy": -8.02, "intermolecular_energy": -9.81, "internal_energy": -1.64, "cluster_size": 21, "cluster_id": 1, "rank_in_cluster": 12}

>  <energy>  (48) 
-6.73

>  <cluster_rmsd>  (48) 
1.32

>  <cluster>  (48) 
7

$$$$

     RDKit          3D

 51 54  0  0  0  0  0  0  0  0999 V2000
  140.8240   71.6770  221.1780 O   0  0  0  0  0  0  0  0  0  0  0  0
  140.3540   72.2420  222.2210 C   0  0  0  0  0  0  0  0  0  0  0  0
  139.9790   73.6180  222.2270 N   0  0  0  0  0  0  0  0  0  0  0  0
  140.1510   74.3790  220.9830 C   0  0  0  0  0  0  0  0  0  0  0  0
  140.7510   75.6890  221.2290 C   0  0  0  0  0  0  0  0  0  0  0  0
  140.7830   76.1090  222.4220 O   0  0  0  0  0  0  0  0  0  0  0  0
  141.3070   76.5420  220.2440 N   0  0  0  0  0  0  0  0  0  0  0  0
  140.8650   77.9180  220.2320 C   0  0  0  0  0  0  0  0  0  0  0  0
  141.7970   78.8880  219.6070 C   0  0  0  0  0  0  0  0  0  0  0  0
  142.5440   78.4100  218.4040 C   0  0  0  0  0  0  0  0  0  0  0  0
  142.0740   77.0270  218.0470 C   0  0  0  0  0  0  0  0  0  0  0  0
  142.2700   76.1330  219.2540 C   0  0  1  0  0  0  0  0  0  0  0  0
  143.6940   76.1280  219.7220 C   0  0  0  0  0  0  0  0  0  0  0  0
  144.0280   74.7640  220.1150 N   0  0  0  0  0  0  0  0  0  0  0  0
  143.2540   73.6830  219.8010 C   0  0  0  0  0  0  0  0  0  0  0  0
  143.8250   72.5370  220.3090 C   0  0  0  0  0  0  0  0  0  0  0  0
  144.9750   72.9480  220.9440 C   0  0  0  0  0  0  0  0  0  0  0  0
  145.0300   74.2810  220.7880 N   0  0  0  0  0  0  0  0  0  0  0  0
  140.1940   71.4600  223.4460 C   0  0  0  0  0  0  0  0  0  0  0  0
  139.5410   70.2450  223.4130 C   0  0  0  0  0  0  0  0  0  0  0  0
  139.3490   69.4510  224.5150 C   0  0  0  0  0  0  0  0  0  0  0  0
  139.8440   69.9110  225.7180 C   0  0  0  0  0  0  0  0  0  0  0  0
  139.6530   69.1190  226.8220 C   0  0  0  0  0  0  0  0  0  0  0  0
  140.1380   69.5500  228.0480 C   0  0  0  0  0  0  0  0  0  0  0  0
  139.9570   68.7770  229.1500 F   0  0  0  0  0  0  0  0  0  0  0  0
  140.7930   70.7680  228.0850 C   0  0  0  0  0  0  0  0  0  0  0  0
  140.9780   71.5560  226.9650 C   0  0  0  0  0  0  0  0  0  0  0  0
  140.4950   71.1260  225.7440 C   0  0  0  0  0  0  0  0  0  0  0  0
  140.6710   71.8900  224.6430 N   0  0  0  0  0  0  0  0  0  0  0  0
  139.5930   74.0720  223.0890 H   0  0  0  0  0  0  0  0  0  0  0  0
  140.8033   73.8099  220.3043 H   0  0  0  0  0  0  0  0  0  0  0  0
  139.1579   74.5352  220.5365 H   0  0  0  0  0  0  0  0  0  0  0  0
  139.9129   77.9623  219.6828 H   0  0  0  0  0  0  0  0  0  0  0  0
  140.7856   78.2164  221.2878 H   0  0  0  0  0  0  0  0  0  0  0  0
  141.2117   79.7704  219.3089 H   0  0  0  0  0  0  0  0  0  0  0  0
  142.5654   79.0877  220.3683 H   0  0  0  0  0  0  0  0  0  0  0  0
  142.3575   79.0911  217.5606 H   0  0  0  0  0  0  0  0  0  0  0  0
  143.6218   78.3889  218.6227 H   0  0  0  0  0  0  0  0  0  0  0  0
  141.0089   77.0549  217.7736 H   0  0  0  0  0  0  0  0  0  0  0  0
  142.6472   76.6405  217.1914 H   0  0  0  0  0  0  0  0  0  0  0  0
  142.0856   75.0768  219.0081 H   0  0  0  0  0  0  0  0  0  0  0  0
  144.3569   76.4560  218.9077 H   0  0  0  0  0  0  0  0  0  0  0  0
  143.8223   76.8154  220.5711 H   0  0  0  0  0  0  0  0  0  0  0  0
  142.3156   73.7219  219.2284 H   0  0  0  0  0  0  0  0  0  0  0  0
  143.4423   71.5092  220.2249 H   0  0  0  0  0  0  0  0  0  0  0  0
  145.7018   72.3134  221.4722 H   0  0  0  0  0  0  0  0  0  0  0  0
  139.1516   69.8925  222.4465 H   0  0  0  0  0  0  0  0  0  0  0  0
  138.8225   68.4879  224.4427 H   0  0  0  0  0  0  0  0  0  0  0  0
  139.1241   68.1583  226.7363 H   0  0  0  0  0  0  0  0  0  0  0  0
  141.1840   71.1252  229.0491 H   0  0  0  0  0  0  0  0  0  0  0  0
  141.5056   72.5179  227.0449 H   0  0  0  0  0  0  0  0  0  0  0  0
  1  2  2  0
  2  3  1  0
  3  4  1  0
  4  5  1  0
  5  6  2  0
  5  7  1  0
  7  8  1  0
  8  9  1  0
  9 10  1  0
 10 11  1  0
 11 12  1  0
 12 13  1  0
 13 14  1  0
 14 15  1  0
 15 16  2  0
 16 17  1  0
 17 18  2  0
  2 19  1  0
 19 20  2  0
 20 21  1  0
 21 22  2  0
 22 23  1  0
 23 24  2  0
 24 25  1  0
 24 26  1  0
 26 27  2  0
 27 28  1  0
 28 29  2  0
 12  7  1  0
 18 14  1  0
 29 19  1  0
 28 22  1  0
  3 30  1  0
  4 31  1  0
  4 32  1  0
  8 33  1  0
  8 34  1  0
  9 35  1  0
  9 36  1  0
 10 37  1  0
 10 38  1  0
 11 39  1  0
 11 40  1  0
 12 41  1  6
 13 42  1  0
 13 43  1  0
 15 44  1  0
 16 45  1  0
 17 46  1  0
 20 47  1  0
 21 48  1  0
 23 49  1  0
 26 50  1  0
 27 51  1  0
M  END
>  <smiles>  (49) 
O=C(NCC(=O)N1CCCC[C@H]1Cn1cccn1)c1ccc2cc(F)ccc2n1

>  <score_type>  (49) 
oracle

>  <origin>  (49) 
autodockgpu

>  <m_score__min__energy>  (49) 
-8.3000000000000007

>  <m_primary>  (49) 
energy

>  <rmsd>  (49) 
3.522291889790014

>  <m_score__min__rmsd>  (49) 
3.522291889790014

>  <meeko>  (49) 
{"free_energy": -7.85, "intermolecular_energy": -9.64, "internal_energy": -2.01, "cluster_size": 17, "cluster_id": 2, "rank_in_cluster": 11}

>  <energy>  (49) 
-6.71

>  <cluster_rmsd>  (49) 
1.22

>  <cluster>  (49) 
7

$$$$

     RDKit          3D

 51 54  0  0  0  0  0  0  0  0999 V2000
  140.6120   71.5580  221.0690 O   0  0  0  0  0  0  0  0  0  0  0  0
  140.2370   72.1270  222.1470 C   0  0  0  0  0  0  0  0  0  0  0  0
  139.8960   73.5120  222.1880 N   0  0  0  0  0  0  0  0  0  0  0  0
  139.9890   74.2750  220.9370 C   0  0  0  0  0  0  0  0  0  0  0  0
  140.6720   75.5530  221.1340 C   0  0  0  0  0  0  0  0  0  0  0  0
  140.7440   76.0090  222.3110 O   0  0  0  0  0  0  0  0  0  0  0  0
  141.2680   76.3370  220.1160 N   0  0  0  0  0  0  0  0  0  0  0  0
  140.7840   77.6880  219.9490 C   0  0  0  0  0  0  0  0  0  0  0  0
  141.7260   78.6360  219.3040 C   0  0  0  0  0  0  0  0  0  0  0  0
  142.5720   78.0830  218.2020 C   0  0  0  0  0  0  0  0  0  0  0  0
  142.1740   76.6560  217.9410 C   0  0  0  0  0  0  0  0  0  0  0  0
  142.3130   75.8800  219.2340 C   0  0  1  0  0  0  0  0  0  0  0  0
  143.6990   75.9720  219.7960 C   0  0  0  0  0  0  0  0  0  0  0  0
  144.1220   74.6250  220.1590 N   0  0  0  0  0  0  0  0  0  0  0  0
  143.2540   73.5770  220.2920 C   0  0  0  0  0  0  0  0  0  0  0  0
  143.9470   72.4390  220.6420 C   0  0  0  0  0  0  0  0  0  0  0  0
  145.2670   72.8200  220.7210 C   0  0  0  0  0  0  0  0  0  0  0  0
  145.2940   74.1290  220.4220 N   0  0  0  0  0  0  0  0  0  0  0  0
  140.1540   71.3420  223.3780 C   0  0  0  0  0  0  0  0  0  0  0  0
  139.5640   70.0950  223.3660 C   0  0  0  0  0  0  0  0  0  0  0  0
  139.4450   69.2960  224.4750 C   0  0  0  0  0  0  0  0  0  0  0  0
  139.9510   69.7850  225.6620 C   0  0  0  0  0  0  0  0  0  0  0  0
  139.8340   68.9870  226.7730 C   0  0  0  0  0  0  0  0  0  0  0  0
  140.3310   69.4470  227.9830 C   0  0  0  0  0  0  0  0  0  0  0  0
  140.2230   68.6700  229.0910 F   0  0  0  0  0  0  0  0  0  0  0  0
  140.9240   70.6970  227.9980 C   0  0  0  0  0  0  0  0  0  0  0  0
  141.0350   71.4900  226.8720 C   0  0  0  0  0  0  0  0  0  0  0  0
  140.5390   71.0320  225.6660 C   0  0  0  0  0  0  0  0  0  0  0  0
  140.6430   71.8000  224.5590 N   0  0  0  0  0  0  0  0  0  0  0  0
  139.5880   73.9690  223.0790 H   0  0  0  0  0  0  0  0  0  0  0  0
  140.5479   73.6820  220.1982 H   0  0  0  0  0  0  0  0  0  0  0  0
  138.9679   74.4820  220.5842 H   0  0  0  0  0  0  0  0  0  0  0  0
  139.8729   77.6466  219.3341 H   0  0  0  0  0  0  0  0  0  0  0  0
  140.6202   78.0746  220.9657 H   0  0  0  0  0  0  0  0  0  0  0  0
  141.1348   79.4654  218.8886 H   0  0  0  0  0  0  0  0  0  0  0  0
  142.4312   78.9321  220.0946 H   0  0  0  0  0  0  0  0  0  0  0  0
  142.4233   78.6791  217.2896 H   0  0  0  0  0  0  0  0  0  0  0  0
  143.6318   78.1235  218.4940 H   0  0  0  0  0  0  0  0  0  0  0  0
  141.1306   76.6182  217.5947 H   0  0  0  0  0  0  0  0  0  0  0  0
  142.8190   76.2183  217.1649 H   0  0  0  0  0  0  0  0  0  0  0  0
  142.1816   74.7998  219.0727 H   0  0  0  0  0  0  0  0  0  0  0  0
  144.3822   76.3883  219.0411 H   0  0  0  0  0  0  0  0  0  0  0  0
  143.7139   76.6304  220.6771 H   0  0  0  0  0  0  0  0  0  0  0  0
  142.1658   73.6340  220.1421 H   0  0  0  0  0  0  0  0  0  0  0  0
  143.5322   71.4360  220.8208 H   0  0  0  0  0  0  0  0  0  0  0  0
  146.1257   72.1819  220.9770 H   0  0  0  0  0  0  0  0  0  0  0  0
  139.1658   69.7195  222.4118 H   0  0  0  0  0  0  0  0  0  0  0  0
  138.9663   68.3071  224.4202 H   0  0  0  0  0  0  0  0  0  0  0  0
  139.3542   67.9995  226.7044 H   0  0  0  0  0  0  0  0  0  0  0  0
  141.3252   71.0766  228.9493 H   0  0  0  0  0  0  0  0  0  0  0  0
  141.5144   72.4781  226.9349 H   0  0  0  0  0  0  0  0  0  0  0  0
  1  2  2  0
  2  3  1  0
  3  4  1  0
  4  5  1  0
  5  6  2  0
  5  7  1  0
  7  8  1  0
  8  9  1  0
  9 10  1  0
 10 11  1  0
 11 12  1  0
 12 13  1  0
 13 14  1  0
 14 15  1  0
 15 16  2  0
 16 17  1  0
 17 18  2  0
  2 19  1  0
 19 20  2  0
 20 21  1  0
 21 22  2  0
 22 23  1  0
 23 24  2  0
 24 25  1  0
 24 26  1  0
 26 27  2  0
 27 28  1  0
 28 29  2  0
 12  7  1  0
 18 14  1  0
 29 19  1  0
 28 22  1  0
  3 30  1  0
  4 31  1  0
  4 32  1  0
  8 33  1  0
  8 34  1  0
  9 35  1  0
  9 36  1  0
 10 37  1  0
 10 38  1  0
 11 39  1  0
 11 40  1  0
 12 41  1  6
 13 42  1  0
 13 43  1  0
 15 44  1  0
 16 45  1  0
 17 46  1  0
 20 47  1  0
 21 48  1  0
 23 49  1  0
 26 50  1  0
 27 51  1  0
M  END
>  <smiles>  (50) 
O=C(NCC(=O)N1CCCC[C@H]1Cn1cccn1)c1ccc2cc(F)ccc2n1

>  <score_type>  (50) 
oracle

>  <origin>  (50) 
autodockgpu

>  <m_score__min__energy>  (50) 
-8.3000000000000007

>  <m_primary>  (50) 
energy

>  <rmsd>  (50) 
3.461058328092946

>  <m_score__min__rmsd>  (50) 
3.461058328092946

>  <meeko>  (50) 
{"free_energy": -7.87, "intermolecular_energy": -9.66, "internal_energy": -1.97, "cluster_size": 17, "cluster_id": 2, "rank_in_cluster": 10}

>  <energy>  (50) 
-6.08

>  <cluster_rmsd>  (50) 
0.0

>  <cluster>  (50) 
8

$$$$
