
     RDKit          3D

 49 51  0  0  0  0  0  0  0  0999 V2000
  140.0310   67.5540  226.2630 C   0  0  0  0  0  0  0  0  0  0  0  0
  139.4000   68.8440  226.0820 N   0  0  0  0  0  0  0  0  0  0  0  0
  138.1390   68.8860  225.3720 C   0  0  0  0  0  0  0  0  0  0  0  0
  138.4430   69.1540  223.9200 C   0  0  0  0  0  0  0  0  0  0  0  0
  137.6480   70.1900  223.3250 N   0  0  0  0  0  0  0  0  0  0  0  0
  138.2460   71.3390  222.6860 C   0  0  0  0  0  0  0  0  0  0  0  0
  139.4960   71.4620  222.6350 O   0  0  0  0  0  0  0  0  0  0  0  0
  137.2990   72.3280  222.1160 C   0  0  0  0  0  0  0  0  0  0  0  0
  137.8270   73.6590  222.3300 N   0  0  0  0  0  0  0  0  0  0  0  0
  137.0650   74.8390  222.1570 C   0  0  0  0  0  0  0  0  0  0  0  0
  135.8460   74.7920  221.7920 O   0  0  0  0  0  0  0  0  0  0  0  0
  137.7320   76.1330  222.4140 C   0  0  0  0  0  0  0  0  0  0  0  0
  137.0140   77.2950  222.6060 C   0  0  0  0  0  0  0  0  0  0  0  0
  137.6680   78.5020  222.8520 C   0  0  0  0  0  0  0  0  0  0  0  0
  139.0500   78.5650  222.9090 C   0  0  0  0  0  0  0  0  0  0  0  0
  139.7030   79.7650  223.1560 C   0  0  0  0  0  0  0  0  0  0  0  0
  141.0810   79.7500  223.2000 C   0  0  0  0  0  0  0  0  0  0  0  0
  141.9620   81.2530  223.5100 Cl  0  0  0  0  0  0  0  0  0  0  0  0
  141.7610   78.5550  223.0000 C   0  0  0  0  0  0  0  0  0  0  0  0
  141.1000   77.3730  222.7570 C   0  0  0  0  0  0  0  0  0  0  0  0
  139.7250   77.3770  222.7110 C   0  0  0  0  0  0  0  0  0  0  0  0
  139.0720   76.2250  222.4750 N   0  0  0  0  0  0  0  0  0  0  0  0
  140.0520   69.9850  226.6120 C   0  0  0  0  0  0  0  0  0  0  0  0
  140.8460   70.7470  225.7810 C   0  0  0  0  0  0  0  0  0  0  0  0
  141.5060   71.8730  226.2580 C   0  0  0  0  0  0  0  0  0  0  0  0
  141.3800   72.2540  227.5770 C   0  0  0  0  0  0  0  0  0  0  0  0
  140.5910   71.5060  228.4270 C   0  0  0  0  0  0  0  0  0  0  0  0
  139.9490   70.3940  227.9230 C   0  0  0  0  0  0  0  0  0  0  0  0
  140.1339   67.3437  227.3378 H   0  0  0  0  0  0  0  0  0  0  0  0
  139.4126   66.7743  225.7944 H   0  0  0  0  0  0  0  0  0  0  0  0
  141.0261   67.5636  225.7944 H   0  0  0  0  0  0  0  0  0  0  0  0
  137.6183   67.9225  225.4747 H   0  0  0  0  0  0  0  0  0  0  0  0
  137.4900   69.6734  225.7828 H   0  0  0  0  0  0  0  0  0  0  0  0
  139.5010   69.4438  223.8387 H   0  0  0  0  0  0  0  0  0  0  0  0
  138.2065   68.2278  223.3757 H   0  0  0  0  0  0  0  0  0  0  0  0
  136.5850   70.1210  223.3500 H   0  0  0  0  0  0  0  0  0  0  0  0
  137.1802   72.1467  221.0376 H   0  0  0  0  0  0  0  0  0  0  0  0
  136.3192   72.2320  222.6066 H   0  0  0  0  0  0  0  0  0  0  0  0
  138.8380   73.7370  222.6320 H   0  0  0  0  0  0  0  0  0  0  0  0
  135.9151   77.2694  222.5647 H   0  0  0  0  0  0  0  0  0  0  0  0
  137.0772   79.4175  223.0030 H   0  0  0  0  0  0  0  0  0  0  0  0
  139.1397   80.6969  223.3115 H   0  0  0  0  0  0  0  0  0  0  0  0
  142.8604   78.5539  223.0370 H   0  0  0  0  0  0  0  0  0  0  0  0
  141.6618   76.4400  222.6020 H   0  0  0  0  0  0  0  0  0  0  0  0
  140.9585   70.4593  224.7253 H   0  0  0  0  0  0  0  0  0  0  0  0
  142.1346   72.4657  225.5771 H   0  0  0  0  0  0  0  0  0  0  0  0
  141.9041   73.1468  227.9488 H   0  0  0  0  0  0  0  0  0  0  0  0
  140.4766   71.7904  229.4834 H   0  0  0  0  0  0  0  0  0  0  0  0
  139.3209   69.8020  228.6050 H   0  0  0  0  0  0  0  0  0  0  0  0
  1  2  1  0
  2  3  1  0
  3  4  1  0
  4  5  1  0
  5  6  1  0
  6  7  2  0
  6  8  1  0
  8  9  1  0
  9 10  1  0
 10 11  2  0
 10 12  1  0
 12 13  2  0
 13 14  1  0
 14 15  2  0
 15 16  1  0
 16 17  2  0
 17 18  1  0
 17 19  1  0
 19 20  2  0
 20 21  1  0
 21 22  2  0
  2 23  1  0
 23 24  2  0
 24 25  1  0
 25 26  2  0
 26 27  1  0
 27 28  2  0
 22 12  1  0
 28 23  1  0
 21 15  1  0
  1 29  1  0
  1 30  1  0
  1 31  1  0
  3 32  1  0
  3 33  1  0
  4 34  1  0
  4 35  1  0
  5 36  1  0
  8 37  1  0
  8 38  1  0
  9 39  1  0
 13 40  1  0
 14 41  1  0
 16 42  1  0
 19 43  1  0
 20 44  1  0
 24 45  1  0
 25 46  1  0
 26 47  1  0
 27 48  1  0
 28 49  1  0
M  END
>  <smiles>  (1) 
CN(CCNC(=O)CNC(=O)c1ccc2cc(Cl)ccc2n1)c1ccccc1

>  <score_type>  (1) 
oracle

>  <origin>  (1) 
autodockgpu

>  <m_score__min__energy>  (1) 
-8.1899999999999995

>  <m_primary>  (1) 
energy

>  <rmsd>  (1) 
8.882683630003084

>  <m_score__min__rmsd>  (1) 
8.882683630003084

>  <meeko>  (1) 
{"free_energy": -7.96, "intermolecular_energy": -10.04, "internal_energy": -1.84, "cluster_size": 15, "cluster_id": 2, "rank_in_cluster": 3}

>  <energy>  (1) 
-8.19

>  <cluster_rmsd>  (1) 
0.0

>  <cluster>  (1) 
1

$$$$

     RDKit          3D

 49 51  0  0  0  0  0  0  0  0999 V2000
  137.9310   80.6670  223.2340 C   0  0  0  0  0  0  0  0  0  0  0  0
  138.8410   79.5520  223.0890 N   0  0  0  0  0  0  0  0  0  0  0  0
  138.2730   78.2440  222.8420 C   0  0  0  0  0  0  0  0  0  0  0  0
  138.5610   77.8850  221.4070 C   0  0  0  0  0  0  0  0  0  0  0  0
  138.2790   76.5200  221.0640 N   0  0  0  0  0  0  0  0  0  0  0  0
  138.9340   75.4160  221.7250 C   0  0  0  0  0  0  0  0  0  0  0  0
  139.7810   75.6260  222.6310 O   0  0  0  0  0  0  0  0  0  0  0  0
  138.5430   74.0620  221.2650 C   0  0  0  0  0  0  0  0  0  0  0  0
  138.8760   73.1020  222.2970 N   0  0  0  0  0  0  0  0  0  0  0  0
  138.5850   71.7210  222.2030 C   0  0  0  0  0  0  0  0  0  0  0  0
  137.9980   71.2360  221.1820 O   0  0  0  0  0  0  0  0  0  0  0  0
  138.9860   70.8540  223.3310 C   0  0  0  0  0  0  0  0  0  0  0  0
  138.7500   69.4940  223.3230 C   0  0  0  0  0  0  0  0  0  0  0  0
  139.1440   68.6990  224.3990 C   0  0  0  0  0  0  0  0  0  0  0  0
  139.7790   69.2510  225.4980 C   0  0  0  0  0  0  0  0  0  0  0  0
  140.1740   68.4600  226.5700 C   0  0  0  0  0  0  0  0  0  0  0  0
  140.8020   69.0790  227.6290 C   0  0  0  0  0  0  0  0  0  0  0  0
  141.3250   68.1170  229.0190 Cl  0  0  0  0  0  0  0  0  0  0  0  0
  141.0180   70.4510  227.5910 C   0  0  0  0  0  0  0  0  0  0  0  0
  140.6220   71.2220  226.5230 C   0  0  0  0  0  0  0  0  0  0  0  0
  139.9930   70.6140  225.4600 C   0  0  0  0  0  0  0  0  0  0  0  0
  139.6050   71.3610  224.4110 N   0  0  0  0  0  0  0  0  0  0  0  0
  140.2310   79.8080  223.1940 C   0  0  0  0  0  0  0  0  0  0  0  0
  140.6550   81.0870  223.4860 C   0  0  0  0  0  0  0  0  0  0  0  0
  142.0070   81.3840  223.5950 C   0  0  0  0  0  0  0  0  0  0  0  0
  142.9590   80.4030  223.4160 C   0  0  0  0  0  0  0  0  0  0  0  0
  142.5580   79.1150  223.1220 C   0  0  0  0  0  0  0  0  0  0  0  0
  141.2080   78.8530  223.0200 C   0  0  0  0  0  0  0  0  0  0  0  0
  137.7661   80.8691  224.3026 H   0  0  0  0  0  0  0  0  0  0  0  0
  138.3633   81.5578  222.7548 H   0  0  0  0  0  0  0  0  0  0  0  0
  136.9716   80.4220  222.7548 H   0  0  0  0  0  0  0  0  0  0  0  0
  138.7318   77.5031  223.5132 H   0  0  0  0  0  0  0  0  0  0  0  0
  137.1888   78.2526  223.0276 H   0  0  0  0  0  0  0  0  0  0  0  0
  137.9505   78.5339  220.7619 H   0  0  0  0  0  0  0  0  0  0  0  0
  139.6422   78.0258  221.2616 H   0  0  0  0  0  0  0  0  0  0  0  0
  137.5680   76.3020  220.3010 H   0  0  0  0  0  0  0  0  0  0  0  0
  137.4604   74.0359  221.0718 H   0  0  0  0  0  0  0  0  0  0  0  0
  139.0799   73.8138  220.3376 H   0  0  0  0  0  0  0  0  0  0  0  0
  139.3640   73.4690  223.1610 H   0  0  0  0  0  0  0  0  0  0  0  0
  138.2467   69.0332  222.4603 H   0  0  0  0  0  0  0  0  0  0  0  0
  138.9471   67.6170  224.3739 H   0  0  0  0  0  0  0  0  0  0  0  0
  139.9914   67.3753  226.5732 H   0  0  0  0  0  0  0  0  0  0  0  0
  141.5210   70.9354  228.4409 H   0  0  0  0  0  0  0  0  0  0  0  0
  140.8049   72.3067  226.5183 H   0  0  0  0  0  0  0  0  0  0  0  0
  139.9114   81.8838  223.6348 H   0  0  0  0  0  0  0  0  0  0  0  0
  142.3216   82.4123  223.8265 H   0  0  0  0  0  0  0  0  0  0  0  0
  144.0284   80.6443  223.5066 H   0  0  0  0  0  0  0  0  0  0  0  0
  143.2988   78.3157  222.9725 H   0  0  0  0  0  0  0  0  0  0  0  0
  140.8942   77.8248  222.7869 H   0  0  0  0  0  0  0  0  0  0  0  0
  1  2  1  0
  2  3  1  0
  3  4  1  0
  4  5  1  0
  5  6  1  0
  6  7  2  0
  6  8  1  0
  8  9  1  0
  9 10  1  0
 10 11  2  0
 10 12  1  0
 12 13  2  0
 13 14  1  0
 14 15  2  0
 15 16  1  0
 16 17  2  0
 17 18  1  0
 17 19  1  0
 19 20  2  0
 20 21  1  0
 21 22  2  0
  2 23  1  0
 23 24  2  0
 24 25  1  0
 25 26  2  0
 26 27  1  0
 27 28  2  0
 22 12  1  0
 28 23  1  0
 21 15  1  0
  1 29  1  0
  1 30  1  0
  1 31  1  0
  3 32  1  0
  3 33  1  0
  4 34  1  0
  4 35  1  0
  5 36  1  0
  8 37  1  0
  8 38  1  0
  9 39  1  0
 13 40  1  0
 14 41  1  0
 16 42  1  0
 19 43  1  0
 20 44  1  0
 24 45  1  0
 25 46  1  0
 26 47  1  0
 27 48  1  0
 28 49  1  0
M  END
>  <smiles>  (2) 
CN(CCNC(=O)CNC(=O)c1ccc2cc(Cl)ccc2n1)c1ccccc1

>  <score_type>  (2) 
oracle

>  <origin>  (2) 
autodockgpu

>  <m_score__min__energy>  (2) 
-8.1899999999999995

>  <m_primary>  (2) 
energy

>  <rmsd>  (2) 
5.358336577027519

>  <m_score__min__rmsd>  (2) 
5.358336577027519

>  <meeko>  (2) 
{"free_energy": -8.12, "intermolecular_energy": -10.2, "internal_energy": -1.89, "cluster_size": 27, "cluster_id": 1, "rank_in_cluster": 4}

>  <energy>  (2) 
-8.19

>  <cluster_rmsd>  (2) 
1.13

>  <cluster>  (2) 
1

$$$$

     RDKit          3D

 49 51  0  0  0  0  0  0  0  0999 V2000
  137.7510   80.1330  223.7360 C   0  0  0  0  0  0  0  0  0  0  0  0
  138.5020   79.6840  222.5830 N   0  0  0  0  0  0  0  0  0  0  0  0
  137.7600   79.3030  221.4010 C   0  0  0  0  0  0  0  0  0  0  0  0
  137.0280   78.0230  221.7140 C   0  0  0  0  0  0  0  0  0  0  0  0
  137.6370   76.8400  221.1750 N   0  0  0  0  0  0  0  0  0  0  0  0
  138.6380   76.0970  221.9040 C   0  0  0  0  0  0  0  0  0  0  0  0
  139.0070   76.4730  223.0460 O   0  0  0  0  0  0  0  0  0  0  0  0
  139.1770   74.8960  221.2210 C   0  0  0  0  0  0  0  0  0  0  0  0
  139.3650   73.8450  222.2000 N   0  0  0  0  0  0  0  0  0  0  0  0
  139.2860   72.4670  221.8910 C   0  0  0  0  0  0  0  0  0  0  0  0
  139.0370   72.0660  220.7080 O   0  0  0  0  0  0  0  0  0  0  0  0
  139.5030   71.5020  222.9900 C   0  0  0  0  0  0  0  0  0  0  0  0
  139.1590   70.1710  222.8670 C   0  0  0  0  0  0  0  0  0  0  0  0
  139.3790   69.2810  223.9170 C   0  0  0  0  0  0  0  0  0  0  0  0
  139.9470   69.7070  225.1060 C   0  0  0  0  0  0  0  0  0  0  0  0
  140.1700   68.8220  226.1520 C   0  0  0  0  0  0  0  0  0  0  0  0
  140.7410   69.3180  227.3050 C   0  0  0  0  0  0  0  0  0  0  0  0
  141.0450   68.2320  228.6680 Cl  0  0  0  0  0  0  0  0  0  0  0  0
  141.0700   70.6660  227.3810 C   0  0  0  0  0  0  0  0  0  0  0  0
  140.8450   71.5320  226.3360 C   0  0  0  0  0  0  0  0  0  0  0  0
  140.2750   71.0460  225.1810 C   0  0  0  0  0  0  0  0  0  0  0  0
  140.0530   71.8860  224.1540 N   0  0  0  0  0  0  0  0  0  0  0  0
  139.9150   79.6460  222.6820 C   0  0  0  0  0  0  0  0  0  0  0  0
  140.6700   79.9180  221.5610 C   0  0  0  0  0  0  0  0  0  0  0  0
  142.0580   79.8910  221.6100 C   0  0  0  0  0  0  0  0  0  0  0  0
  142.7130   79.5910  222.7860 C   0  0  0  0  0  0  0  0  0  0  0  0
  141.9770   79.3150  223.9210 C   0  0  0  0  0  0  0  0  0  0  0  0
  140.6010   79.3510  223.8390 C   0  0  0  0  0  0  0  0  0  0  0  0
  138.2698   79.8228  224.6550 H   0  0  0  0  0  0  0  0  0  0  0  0
  137.6671   81.2296  223.7146 H   0  0  0  0  0  0  0  0  0  0  0  0
  136.7453   79.6878  223.7146 H   0  0  0  0  0  0  0  0  0  0  0  0
  137.0399   80.0924  221.1397 H   0  0  0  0  0  0  0  0  0  0  0  0
  138.4397   79.1601  220.5481 H   0  0  0  0  0  0  0  0  0  0  0  0
  136.9773   77.9152  222.8075 H   0  0  0  0  0  0  0  0  0  0  0  0
  136.0376   78.1066  221.2427 H   0  0  0  0  0  0  0  0  0  0  0  0
  137.3510   76.4910  220.2100 H   0  0  0  0  0  0  0  0  0  0  0  0
  138.4679   74.5601  220.4500 H   0  0  0  0  0  0  0  0  0  0  0  0
  140.1384   75.1380  220.7443 H   0  0  0  0  0  0  0  0  0  0  0  0
  139.5720   74.1410  223.1950 H   0  0  0  0  0  0  0  0  0  0  0  0
  138.7070   69.8092  221.9317 H   0  0  0  0  0  0  0  0  0  0  0  0
  139.0972   68.2242  223.7994 H   0  0  0  0  0  0  0  0  0  0  0  0
  139.8999   67.7593  226.0639 H   0  0  0  0  0  0  0  0  0  0  0  0
  141.5244   71.0525  228.3052 H   0  0  0  0  0  0  0  0  0  0  0  0
  141.1159   72.5946  226.4219 H   0  0  0  0  0  0  0  0  0  0  0  0
  140.1658   80.1600  220.6138 H   0  0  0  0  0  0  0  0  0  0  0  0
  142.6399   80.1109  220.7027 H   0  0  0  0  0  0  0  0  0  0  0  0
  143.8123   79.5718  222.8194 H   0  0  0  0  0  0  0  0  0  0  0  0
  142.4773   79.0717  224.8699 H   0  0  0  0  0  0  0  0  0  0  0  0
  140.0198   79.1322  224.7470 H   0  0  0  0  0  0  0  0  0  0  0  0
  1  2  1  0
  2  3  1  0
  3  4  1  0
  4  5  1  0
  5  6  1  0
  6  7  2  0
  6  8  1  0
  8  9  1  0
  9 10  1  0
 10 11  2  0
 10 12  1  0
 12 13  2  0
 13 14  1  0
 14 15  2  0
 15 16  1  0
 16 17  2  0
 17 18  1  0
 17 19  1  0
 19 20  2  0
 20 21  1  0
 21 22  2  0
  2 23  1  0
 23 24  2  0
 24 25  1  0
 25 26  2  0
 26 27  1  0
 27 28  2  0
 22 12  1  0
 28 23  1  0
 21 15  1  0
  1 29  1  0
  1 30  1  0
  1 31  1  0
  3 32  1  0
  3 33  1  0
  4 34  1  0
  4 35  1  0
  5 36  1  0
  8 37  1  0
  8 38  1  0
  9 39  1  0
 13 40  1  0
 14 41  1  0
 16 42  1  0
 19 43  1  0
 20 44  1  0
 24 45  1  0
 25 46  1  0
 26 47  1  0
 27 48  1  0
 28 49  1  0
M  END
>  <smiles>  (3) 
CN(CCNC(=O)CNC(=O)c1ccc2cc(Cl)ccc2n1)c1ccccc1

>  <score_type>  (3) 
oracle

>  <origin>  (3) 
autodockgpu

>  <m_score__min__energy>  (3) 
-8.1899999999999995

>  <m_primary>  (3) 
energy

>  <rmsd>  (3) 
5.604439941631883

>  <m_score__min__rmsd>  (3) 
5.604439941631883

>  <meeko>  (3) 
{"free_energy": -7.44, "intermolecular_energy": -9.53, "internal_energy": -1.93, "cluster_size": 27, "cluster_id": 1, "rank_in_cluster": 27}

>  <energy>  (3) 
-8.15

>  <cluster_rmsd>  (3) 
1.06

>  <cluster>  (3) 
1

$$$$

     RDKit          3D

 49 51  0  0  0  0  0  0  0  0999 V2000
  140.5840   71.8150  223.4440 C   0  0  0  0  0  0  0  0  0  0  0  0
  139.7780   70.9840  224.3120 N   0  0  0  0  0  0  0  0  0  0  0  0
  138.6020   70.3580  223.7470 C   0  0  0  0  0  0  0  0  0  0  0  0
  137.4000   71.1340  224.2210 C   0  0  0  0  0  0  0  0  0  0  0  0
  137.0330   72.2380  223.3810 N   0  0  0  0  0  0  0  0  0  0  0  0
  135.6660   72.4700  222.9780 C   0  0  0  0  0  0  0  0  0  0  0  0
  134.7490   71.6970  223.3580 O   0  0  0  0  0  0  0  0  0  0  0  0
  135.4380   73.6500  222.1100 C   0  0  0  0  0  0  0  0  0  0  0  0
  136.5090   74.6010  222.3210 N   0  0  0  0  0  0  0  0  0  0  0  0
  137.7870   74.4850  221.7250 C   0  0  0  0  0  0  0  0  0  0  0  0
  138.0720   73.5120  220.9540 O   0  0  0  0  0  0  0  0  0  0  0  0
  138.7850   75.5320  222.0260 C   0  0  0  0  0  0  0  0  0  0  0  0
  140.1360   75.3260  221.8350 C   0  0  0  0  0  0  0  0  0  0  0  0
  141.0560   76.3340  222.1230 C   0  0  0  0  0  0  0  0  0  0  0  0
  140.6390   77.5630  222.6060 C   0  0  0  0  0  0  0  0  0  0  0  0
  141.5540   78.5680  222.8910 C   0  0  0  0  0  0  0  0  0  0  0  0
  141.0650   79.7660  223.3670 C   0  0  0  0  0  0  0  0  0  0  0  0
  142.1880   81.0800  223.7460 Cl  0  0  0  0  0  0  0  0  0  0  0  0
  139.6970   79.9270  223.5430 C   0  0  0  0  0  0  0  0  0  0  0  0
  138.8020   78.9220  223.2560 C   0  0  0  0  0  0  0  0  0  0  0  0
  139.2800   77.7220  222.7800 C   0  0  0  0  0  0  0  0  0  0  0  0
  138.4110   76.7350  222.4960 N   0  0  0  0  0  0  0  0  0  0  0  0
  140.1890   70.8330  225.6600 C   0  0  0  0  0  0  0  0  0  0  0  0
  140.0550   69.6010  226.2650 C   0  0  0  0  0  0  0  0  0  0  0  0
  140.4430   69.4070  227.5850 C   0  0  0  0  0  0  0  0  0  0  0  0
  140.9740   70.4450  228.3210 C   0  0  0  0  0  0  0  0  0  0  0  0
  141.1180   71.6870  227.7350 C   0  0  0  0  0  0  0  0  0  0  0  0
  140.7230   71.8470  226.4230 C   0  0  0  0  0  0  0  0  0  0  0  0
  141.2214   72.4722  224.0538 H   0  0  0  0  0  0  0  0  0  0  0  0
  141.2164   71.1770  222.8092 H   0  0  0  0  0  0  0  0  0  0  0  0
  139.9270   72.4276  222.8092 H   0  0  0  0  0  0  0  0  0  0  0  0
  138.6551   70.3828  222.6486 H   0  0  0  0  0  0  0  0  0  0  0  0
  138.5333   69.3072  224.0651 H   0  0  0  0  0  0  0  0  0  0  0  0
  136.5450   70.4439  224.2738 H   0  0  0  0  0  0  0  0  0  0  0  0
  137.6701   71.5616  225.1979 H   0  0  0  0  0  0  0  0  0  0  0  0
  137.7820   72.9140  223.0390 H   0  0  0  0  0  0  0  0  0  0  0  0
  135.4252   73.3361  221.0558 H   0  0  0  0  0  0  0  0  0  0  0  0
  134.4725   74.1147  222.3586 H   0  0  0  0  0  0  0  0  0  0  0  0
  136.3090   75.4220  222.9580 H   0  0  0  0  0  0  0  0  0  0  0  0
  140.4907   74.3577  221.4520 H   0  0  0  0  0  0  0  0  0  0  0  0
  142.1288   76.1500  221.9641 H   0  0  0  0  0  0  0  0  0  0  0  0
  142.6328   78.4134  222.7420 H   0  0  0  0  0  0  0  0  0  0  0  0
  139.3174   80.8868  223.9233 H   0  0  0  0  0  0  0  0  0  0  0  0
  137.7228   79.0749  223.4044 H   0  0  0  0  0  0  0  0  0  0  0  0
  139.6349   68.7597  225.6943 H   0  0  0  0  0  0  0  0  0  0  0  0
  140.3254   68.4158  228.0473 H   0  0  0  0  0  0  0  0  0  0  0  0
  141.2801   70.2852  229.3654 H   0  0  0  0  0  0  0  0  0  0  0  0
  141.5386   72.5305  228.3021 H   0  0  0  0  0  0  0  0  0  0  0  0
  140.8411   72.8385  225.9614 H   0  0  0  0  0  0  0  0  0  0  0  0
  1  2  1  0
  2  3  1  0
  3  4  1  0
  4  5  1  0
  5  6  1  0
  6  7  2  0
  6  8  1  0
  8  9  1  0
  9 10  1  0
 10 11  2  0
 10 12  1  0
 12 13  2  0
 13 14  1  0
 14 15  2  0
 15 16  1  0
 16 17  2  0
 17 18  1  0
 17 19  1  0
 19 20  2  0
 20 21  1  0
 21 22  2  0
  2 23  1  0
 23 24  2  0
 24 25  1  0
 25 26  2  0
 26 27  1  0
 27 28  2  0
 22 12  1  0
 28 23  1  0
 21 15  1  0
  1 29  1  0
  1 30  1  0
  1 31  1  0
  3 32  1  0
  3 33  1  0
  4 34  1  0
  4 35  1  0
  5 36  1  0
  8 37  1  0
  8 38  1  0
  9 39  1  0
 13 40  1  0
 14 41  1  0
 16 42  1  0
 19 43  1  0
 20 44  1  0
 24 45  1  0
 25 46  1  0
 26 47  1  0
 27 48  1  0
 28 49  1  0
M  END
>  <smiles>  (4) 
CN(CCNC(=O)CNC(=O)c1ccc2cc(Cl)ccc2n1)c1ccccc1

>  <score_type>  (4) 
oracle

>  <origin>  (4) 
autodockgpu

>  <m_score__min__energy>  (4) 
-8.1899999999999995

>  <m_primary>  (4) 
energy

>  <rmsd>  (4) 
8.043460768490867

>  <m_score__min__rmsd>  (4) 
8.043460768490867

>  <meeko>  (4) 
{"free_energy": -7.44, "intermolecular_energy": -9.53, "internal_energy": -2.11, "cluster_size": 15, "cluster_id": 2, "rank_in_cluster": 9}

>  <energy>  (4) 
-8.12

>  <cluster_rmsd>  (4) 
1.11

>  <cluster>  (4) 
1

$$$$

     RDKit          3D

 49 51  0  0  0  0  0  0  0  0999 V2000
  137.7560   80.1450  223.6410 C   0  0  0  0  0  0  0  0  0  0  0  0
  138.7370   80.0270  222.5840 N   0  0  0  0  0  0  0  0  0  0  0  0
  138.2550   79.8370  221.2330 C   0  0  0  0  0  0  0  0  0  0  0  0
  137.4630   78.5550  221.2070 C   0  0  0  0  0  0  0  0  0  0  0  0
  138.2090   77.4000  220.7940 N   0  0  0  0  0  0  0  0  0  0  0  0
  138.7180   76.4390  221.7450 C   0  0  0  0  0  0  0  0  0  0  0  0
  138.5160   76.5920  222.9770 O   0  0  0  0  0  0  0  0  0  0  0  0
  139.4690   75.2970  221.1710 C   0  0  0  0  0  0  0  0  0  0  0  0
  139.5060   74.2240  222.1430 N   0  0  0  0  0  0  0  0  0  0  0  0
  140.1440   72.9830  221.9140 C   0  0  0  0  0  0  0  0  0  0  0  0
  140.7340   72.7360  220.8120 O   0  0  0  0  0  0  0  0  0  0  0  0
  140.1070   71.9790  222.9970 C   0  0  0  0  0  0  0  0  0  0  0  0
  139.5920   70.7140  222.7990 C   0  0  0  0  0  0  0  0  0  0  0  0
  139.5730   69.7830  223.8370 C   0  0  0  0  0  0  0  0  0  0  0  0
  140.0690   70.1040  225.0900 C   0  0  0  0  0  0  0  0  0  0  0  0
  140.0530   69.1780  226.1250 C   0  0  0  0  0  0  0  0  0  0  0  0
  140.5650   69.5670  227.3440 C   0  0  0  0  0  0  0  0  0  0  0  0
  140.5690   68.4260  228.6970 Cl  0  0  0  0  0  0  0  0  0  0  0  0
  141.0730   70.8520  227.4960 C   0  0  0  0  0  0  0  0  0  0  0  0
  141.0830   71.7590  226.4620 C   0  0  0  0  0  0  0  0  0  0  0  0
  140.5730   71.3800  225.2400 C   0  0  0  0  0  0  0  0  0  0  0  0
  140.5810   72.2600  224.2230 N   0  0  0  0  0  0  0  0  0  0  0  0
  140.1070   80.1070  222.9360 C   0  0  0  0  0  0  0  0  0  0  0  0
  140.8140   78.9400  223.1420 C   0  0  0  0  0  0  0  0  0  0  0  0
  142.1580   78.9710  223.4900 C   0  0  0  0  0  0  0  0  0  0  0  0
  142.8190   80.1720  223.6370 C   0  0  0  0  0  0  0  0  0  0  0  0
  142.1320   81.3530  223.4350 C   0  0  0  0  0  0  0  0  0  0  0  0
  140.7980   81.2880  223.0900 C   0  0  0  0  0  0  0  0  0  0  0  0
  138.2596   80.0844  224.6171 H   0  0  0  0  0  0  0  0  0  0  0  0
  137.2386   81.1119  223.5548 H   0  0  0  0  0  0  0  0  0  0  0  0
  137.0240   79.3284  223.5548 H   0  0  0  0  0  0  0  0  0  0  0  0
  137.6121   80.6809  220.9421 H   0  0  0  0  0  0  0  0  0  0  0  0
  139.0966   79.7852  220.5266 H   0  0  0  0  0  0  0  0  0  0  0  0
  137.0767   78.3697  222.2201 H   0  0  0  0  0  0  0  0  0  0  0  0
  136.6671   78.6953  220.4608 H   0  0  0  0  0  0  0  0  0  0  0  0
  138.4000   77.2370  219.7590 H   0  0  0  0  0  0  0  0  0  0  0  0
  138.9686   74.9488  220.2554 H   0  0  0  0  0  0  0  0  0  0  0  0
  140.4937   75.6113  220.9236 H   0  0  0  0  0  0  0  0  0  0  0  0
  139.0240   74.3940  223.0710 H   0  0  0  0  0  0  0  0  0  0  0  0
  139.1924   70.4373  221.8122 H   0  0  0  0  0  0  0  0  0  0  0  0
  139.1584   68.7799  223.6584 H   0  0  0  0  0  0  0  0  0  0  0  0
  139.6450   68.1673  225.9767 H   0  0  0  0  0  0  0  0  0  0  0  0
  141.4794   71.1526  228.4730 H   0  0  0  0  0  0  0  0  0  0  0  0
  141.4913   72.7698  226.6085 H   0  0  0  0  0  0  0  0  0  0  0  0
  140.3056   77.9711  223.0289 H   0  0  0  0  0  0  0  0  0  0  0  0
  142.7008   78.0277  223.6500 H   0  0  0  0  0  0  0  0  0  0  0  0
  143.8838   80.1894  223.9126 H   0  0  0  0  0  0  0  0  0  0  0  0
  142.6373   82.3237  223.5467 H   0  0  0  0  0  0  0  0  0  0  0  0
  140.2563   82.2318  222.9290 H   0  0  0  0  0  0  0  0  0  0  0  0
  1  2  1  0
  2  3  1  0
  3  4  1  0
  4  5  1  0
  5  6  1  0
  6  7  2  0
  6  8  1  0
  8  9  1  0
  9 10  1  0
 10 11  2  0
 10 12  1  0
 12 13  2  0
 13 14  1  0
 14 15  2  0
 15 16  1  0
 16 17  2  0
 17 18  1  0
 17 19  1  0
 19 20  2  0
 20 21  1  0
 21 22  2  0
  2 23  1  0
 23 24  2  0
 24 25  1  0
 25 26  2  0
 26 27  1  0
 27 28  2  0
 22 12  1  0
 28 23  1  0
 21 15  1  0
  1 29  1  0
  1 30  1  0
  1 31  1  0
  3 32  1  0
  3 33  1  0
  4 34  1  0
  4 35  1  0
  5 36  1  0
  8 37  1  0
  8 38  1  0
  9 39  1  0
 13 40  1  0
 14 41  1  0
 16 42  1  0
 19 43  1  0
 20 44  1  0
 24 45  1  0
 25 46  1  0
 26 47  1  0
 27 48  1  0
 28 49  1  0
M  END
>  <smiles>  (5) 
CN(CCNC(=O)CNC(=O)c1ccc2cc(Cl)ccc2n1)c1ccccc1

>  <score_type>  (5) 
oracle

>  <origin>  (5) 
autodockgpu

>  <m_score__min__energy>  (5) 
-8.1899999999999995

>  <m_primary>  (5) 
energy

>  <rmsd>  (5) 
5.874622725671562

>  <m_score__min__rmsd>  (5) 
5.874622725671562

>  <meeko>  (5) 
{"free_energy": -8.01, "intermolecular_energy": -10.1, "internal_energy": -1.85, "cluster_size": 27, "cluster_id": 1, "rank_in_cluster": 12}

>  <energy>  (5) 
-8.12

>  <cluster_rmsd>  (5) 
0.72

>  <cluster>  (5) 
1

$$$$

     RDKit          3D

 49 51  0  0  0  0  0  0  0  0999 V2000
  141.0290   67.5280  226.6670 C   0  0  0  0  0  0  0  0  0  0  0  0
  140.0890   68.6090  226.4610 N   0  0  0  0  0  0  0  0  0  0  0  0
  138.8170   68.2910  225.8490 C   0  0  0  0  0  0  0  0  0  0  0  0
  139.0380   68.1960  224.3610 C   0  0  0  0  0  0  0  0  0  0  0  0
  138.3050   69.1560  223.5860 N   0  0  0  0  0  0  0  0  0  0  0  0
  138.8460   70.4570  223.2710 C   0  0  0  0  0  0  0  0  0  0  0  0
  139.9910   70.7870  223.6750 O   0  0  0  0  0  0  0  0  0  0  0  0
  137.9740   71.3420  222.4620 C   0  0  0  0  0  0  0  0  0  0  0  0
  137.0180   71.9870  223.3380 N   0  0  0  0  0  0  0  0  0  0  0  0
  135.9110   71.3200  223.9120 C   0  0  0  0  0  0  0  0  0  0  0  0
  135.6890   70.0870  223.6830 O   0  0  0  0  0  0  0  0  0  0  0  0
  135.0160   72.1010  224.7910 C   0  0  0  0  0  0  0  0  0  0  0  0
  134.0740   71.4930  225.5950 C   0  0  0  0  0  0  0  0  0  0  0  0
  133.2450   72.2550  226.4190 C   0  0  0  0  0  0  0  0  0  0  0  0
  133.3470   73.6350  226.4520 C   0  0  0  0  0  0  0  0  0  0  0  0
  132.5250   74.3950  227.2740 C   0  0  0  0  0  0  0  0  0  0  0  0
  132.6850   75.7640  227.2550 C   0  0  0  0  0  0  0  0  0  0  0  0
  131.6620   76.7780  228.2820 Cl  0  0  0  0  0  0  0  0  0  0  0  0
  133.6480   76.3310  226.4290 C   0  0  0  0  0  0  0  0  0  0  0  0
  134.4560   75.5660  225.6200 C   0  0  0  0  0  0  0  0  0  0  0  0
  134.3040   74.1980  225.6320 C   0  0  0  0  0  0  0  0  0  0  0  0
  135.0920   73.4420  224.8450 N   0  0  0  0  0  0  0  0  0  0  0  0
  140.4700   69.9100  226.8730 C   0  0  0  0  0  0  0  0  0  0  0  0
  141.3840   70.6110  226.1140 C   0  0  0  0  0  0  0  0  0  0  0  0
  141.7880   71.8890  226.4810 C   0  0  0  0  0  0  0  0  0  0  0  0
  141.2810   72.4870  227.6160 C   0  0  0  0  0  0  0  0  0  0  0  0
  140.3660   71.8040  228.3910 C   0  0  0  0  0  0  0  0  0  0  0  0
  139.9850   70.5370  227.9990 C   0  0  0  0  0  0  0  0  0  0  0  0
  141.1703   67.3655  227.7457 H   0  0  0  0  0  0  0  0  0  0  0  0
  140.6378   66.6091  226.2059 H   0  0  0  0  0  0  0  0  0  0  0  0
  141.9933   67.7878  226.2059 H   0  0  0  0  0  0  0  0  0  0  0  0
  138.4448   67.3305  226.2350 H   0  0  0  0  0  0  0  0  0  0  0  0
  138.0725   69.0670  226.0801 H   0  0  0  0  0  0  0  0  0  0  0  0
  140.1102   68.3421  224.1633 H   0  0  0  0  0  0  0  0  0  0  0  0
  138.6741   67.2043  224.0543 H   0  0  0  0  0  0  0  0  0  0  0  0
  137.3320   68.9130  223.2270 H   0  0  0  0  0  0  0  0  0  0  0  0
  138.5868   72.1045  221.9590 H   0  0  0  0  0  0  0  0  0  0  0  0
  137.4428   70.7490  221.7030 H   0  0  0  0  0  0  0  0  0  0  0  0
  137.1700   73.0130  223.5490 H   0  0  0  0  0  0  0  0  0  0  0  0
  133.9756   70.3974  225.5863 H   0  0  0  0  0  0  0  0  0  0  0  0
  132.4993   71.7515  227.0518 H   0  0  0  0  0  0  0  0  0  0  0  0
  131.7711   73.9201  227.9190 H   0  0  0  0  0  0  0  0  0  0  0  0
  133.7678   77.4244  226.4218 H   0  0  0  0  0  0  0  0  0  0  0  0
  135.2106   76.0394  224.9746 H   0  0  0  0  0  0  0  0  0  0  0  0
  141.7992   70.1516  225.2048 H   0  0  0  0  0  0  0  0  0  0  0  0
  142.5188   72.4287  225.8607 H   0  0  0  0  0  0  0  0  0  0  0  0
  141.6033   73.4994  227.9008 H   0  0  0  0  0  0  0  0  0  0  0  0
  139.9494   72.2596  229.3014 H   0  0  0  0  0  0  0  0  0  0  0  0
  139.2539   69.9984  228.6199 H   0  0  0  0  0  0  0  0  0  0  0  0
  1  2  1  0
  2  3  1  0
  3  4  1  0
  4  5  1  0
  5  6  1  0
  6  7  2  0
  6  8  1  0
  8  9  1  0
  9 10  1  0
 10 11  2  0
 10 12  1  0
 12 13  2  0
 13 14  1  0
 14 15  2  0
 15 16  1  0
 16 17  2  0
 17 18  1  0
 17 19  1  0
 19 20  2  0
 20 21  1  0
 21 22  2  0
  2 23  1  0
 23 24  2  0
 24 25  1  0
 25 26  2  0
 26 27  1  0
 27 28  2  0
 22 12  1  0
 28 23  1  0
 21 15  1  0
  1 29  1  0
  1 30  1  0
  1 31  1  0
  3 32  1  0
  3 33  1  0
  4 34  1  0
  4 35  1  0
  5 36  1  0
  8 37  1  0
  8 38  1  0
  9 39  1  0
 13 40  1  0
 14 41  1  0
 16 42  1  0
 19 43  1  0
 20 44  1  0
 24 45  1  0
 25 46  1  0
 26 47  1  0
 27 48  1  0
 28 49  1  0
M  END
>  <smiles>  (6) 
CN(CCNC(=O)CNC(=O)c1ccc2cc(Cl)ccc2n1)c1ccccc1

>  <score_type>  (6) 
oracle

>  <origin>  (6) 
autodockgpu

>  <m_score__min__energy>  (6) 
-8.1899999999999995

>  <m_primary>  (6) 
energy

>  <rmsd>  (6) 
8.593172046773951

>  <m_score__min__rmsd>  (6) 
8.593172046773951

>  <meeko>  (6) 
{"free_energy": -7.71, "intermolecular_energy": -9.8, "internal_energy": -2.37, "cluster_size": 4, "cluster_id": 3, "rank_in_cluster": 2}

>  <energy>  (6) 
-8.04

>  <cluster_rmsd>  (6) 
0.6

>  <cluster>  (6) 
1

$$$$

     RDKit          3D

 49 51  0  0  0  0  0  0  0  0999 V2000
  139.1880   68.3740  224.8990 C   0  0  0  0  0  0  0  0  0  0  0  0
  139.6410   69.7420  224.7690 N   0  0  0  0  0  0  0  0  0  0  0  0
  139.5750   70.3540  223.4590 C   0  0  0  0  0  0  0  0  0  0  0  0
  138.1650   70.1930  222.9520 C   0  0  0  0  0  0  0  0  0  0  0  0
  137.5530   71.4080  222.4940 N   0  0  0  0  0  0  0  0  0  0  0  0
  136.4110   71.9870  223.1610 C   0  0  0  0  0  0  0  0  0  0  0  0
  135.9160   71.4330  224.1760 O   0  0  0  0  0  0  0  0  0  0  0  0
  135.8860   73.2440  222.5740 C   0  0  0  0  0  0  0  0  0  0  0  0
  136.9070   74.2670  222.6680 N   0  0  0  0  0  0  0  0  0  0  0  0
  137.9170   74.4540  221.6970 C   0  0  0  0  0  0  0  0  0  0  0  0
  137.9870   73.7140  220.6620 O   0  0  0  0  0  0  0  0  0  0  0  0
  138.8940   75.5420  221.9190 C   0  0  0  0  0  0  0  0  0  0  0  0
  140.2180   75.4160  221.5550 C   0  0  0  0  0  0  0  0  0  0  0  0
  141.1170   76.4600  221.7720 C   0  0  0  0  0  0  0  0  0  0  0  0
  140.7050   77.6460  222.3560 C   0  0  0  0  0  0  0  0  0  0  0  0
  141.5980   78.6870  222.5710 C   0  0  0  0  0  0  0  0  0  0  0  0
  141.1150   79.8380  223.1560 C   0  0  0  0  0  0  0  0  0  0  0  0
  142.2110   81.1950  223.4520 Cl  0  0  0  0  0  0  0  0  0  0  0  0
  139.7720   79.9180  223.5050 C   0  0  0  0  0  0  0  0  0  0  0  0
  138.8990   78.8790  223.2860 C   0  0  0  0  0  0  0  0  0  0  0  0
  139.3710   77.7250  222.7030 C   0  0  0  0  0  0  0  0  0  0  0  0
  138.5230   76.7040  222.4830 N   0  0  0  0  0  0  0  0  0  0  0  0
  140.1180   70.3990  225.9300 C   0  0  0  0  0  0  0  0  0  0  0  0
  140.8670   71.5490  225.7880 C   0  0  0  0  0  0  0  0  0  0  0  0
  141.3570   72.2250  226.8990 C   0  0  0  0  0  0  0  0  0  0  0  0
  141.1030   71.7610  228.1720 C   0  0  0  0  0  0  0  0  0  0  0  0
  140.3560   70.6110  228.3380 C   0  0  0  0  0  0  0  0  0  0  0  0
  139.8840   69.9640  227.2160 C   0  0  0  0  0  0  0  0  0  0  0  0
  139.1025   68.1158  225.9648 H   0  0  0  0  0  0  0  0  0  0  0  0
  138.2059   68.2654  224.4155 H   0  0  0  0  0  0  0  0  0  0  0  0
  139.9112   67.7008  224.4155 H   0  0  0  0  0  0  0  0  0  0  0  0
  139.8283   71.4220  223.5307 H   0  0  0  0  0  0  0  0  0  0  0  0
  140.2895   69.8761  222.7726 H   0  0  0  0  0  0  0  0  0  0  0  0
  138.1806   69.4798  222.1147 H   0  0  0  0  0  0  0  0  0  0  0  0
  137.5647   69.8434  223.8049 H   0  0  0  0  0  0  0  0  0  0  0  0
  137.9440   71.9070  221.6370 H   0  0  0  0  0  0  0  0  0  0  0  0
  135.6254   73.0781  221.5183 H   0  0  0  0  0  0  0  0  0  0  0  0
  134.9863   73.5636  223.1203 H   0  0  0  0  0  0  0  0  0  0  0  0
  136.8810   74.9000  223.5160 H   0  0  0  0  0  0  0  0  0  0  0  0
  140.5685   74.4832  221.0890 H   0  0  0  0  0  0  0  0  0  0  0  0
  142.1692   76.3394  221.4748 H   0  0  0  0  0  0  0  0  0  0  0  0
  142.6560   78.5964  222.2840 H   0  0  0  0  0  0  0  0  0  0  0  0
  139.3962   80.8410  223.9707 H   0  0  0  0  0  0  0  0  0  0  0  0
  137.8406   78.9684  223.5720 H   0  0  0  0  0  0  0  0  0  0  0  0
  141.0794   71.9365  224.7806 H   0  0  0  0  0  0  0  0  0  0  0  0
  141.9532   73.1391  226.7613 H   0  0  0  0  0  0  0  0  0  0  0  0
  141.4916   72.3016  229.0476 H   0  0  0  0  0  0  0  0  0  0  0  0
  140.1424   70.2200  229.3437 H   0  0  0  0  0  0  0  0  0  0  0  0
  139.2878   69.0501  227.3552 H   0  0  0  0  0  0  0  0  0  0  0  0
  1  2  1  0
  2  3  1  0
  3  4  1  0
  4  5  1  0
  5  6  1  0
  6  7  2  0
  6  8  1  0
  8  9  1  0
  9 10  1  0
 10 11  2  0
 10 12  1  0
 12 13  2  0
 13 14  1  0
 14 15  2  0
 15 16  1  0
 16 17  2  0
 17 18  1  0
 17 19  1  0
 19 20  2  0
 20 21  1  0
 21 22  2  0
  2 23  1  0
 23 24  2  0
 24 25  1  0
 25 26  2  0
 26 27  1  0
 27 28  2  0
 22 12  1  0
 28 23  1  0
 21 15  1  0
  1 29  1  0
  1 30  1  0
  1 31  1  0
  3 32  1  0
  3 33  1  0
  4 34  1  0
  4 35  1  0
  5 36  1  0
  8 37  1  0
  8 38  1  0
  9 39  1  0
 13 40  1  0
 14 41  1  0
 16 42  1  0
 19 43  1  0
 20 44  1  0
 24 45  1  0
 25 46  1  0
 26 47  1  0
 27 48  1  0
 28 49  1  0
M  END
>  <smiles>  (7) 
CN(CCNC(=O)CNC(=O)c1ccc2cc(Cl)ccc2n1)c1ccccc1

>  <score_type>  (7) 
oracle

>  <origin>  (7) 
autodockgpu

>  <m_score__min__energy>  (7) 
-8.1899999999999995

>  <m_primary>  (7) 
energy

>  <rmsd>  (7) 
8.57792516657917

>  <m_score__min__rmsd>  (7) 
8.57792516657917

>  <meeko>  (7) 
{"free_energy": -7.61, "intermolecular_energy": -9.69, "internal_energy": -2.07, "cluster_size": 15, "cluster_id": 2, "rank_in_cluster": 7}

>  <energy>  (7) 
-8.04

>  <cluster_rmsd>  (7) 
1.68

>  <cluster>  (7) 
1

$$$$

     RDKit          3D

 49 51  0  0  0  0  0  0  0  0999 V2000
  137.7590   79.9720  223.2740 C   0  0  0  0  0  0  0  0  0  0  0  0
  138.6790   79.0300  222.6740 N   0  0  0  0  0  0  0  0  0  0  0  0
  138.1290   77.8210  222.0990 C   0  0  0  0  0  0  0  0  0  0  0  0
  138.4470   76.6850  223.0370 C   0  0  0  0  0  0  0  0  0  0  0  0
  139.0170   75.5300  222.4050 N   0  0  0  0  0  0  0  0  0  0  0  0
  140.1530   75.6260  221.5190 C   0  0  0  0  0  0  0  0  0  0  0  0
  140.6780   76.7430  221.2750 O   0  0  0  0  0  0  0  0  0  0  0  0
  140.6330   74.3490  220.9400 C   0  0  0  0  0  0  0  0  0  0  0  0
  140.6480   73.3390  221.9780 N   0  0  0  0  0  0  0  0  0  0  0  0
  139.5390   72.5160  222.2820 C   0  0  0  0  0  0  0  0  0  0  0  0
  138.4410   72.6220  221.6460 O   0  0  0  0  0  0  0  0  0  0  0  0
  139.6950   71.5230  223.3670 C   0  0  0  0  0  0  0  0  0  0  0  0
  139.2730   70.2180  223.2240 C   0  0  0  0  0  0  0  0  0  0  0  0
  139.4370   69.3000  224.2610 C   0  0  0  0  0  0  0  0  0  0  0  0
  140.0260   69.6750  225.4570 C   0  0  0  0  0  0  0  0  0  0  0  0
  140.1930   68.7620  226.4910 C   0  0  0  0  0  0  0  0  0  0  0  0
  140.7880   69.2070  227.6510 C   0  0  0  0  0  0  0  0  0  0  0  0
  141.0240   68.0850  228.9990 Cl  0  0  0  0  0  0  0  0  0  0  0  0
  141.1970   70.5310  227.7480 C   0  0  0  0  0  0  0  0  0  0  0  0
  141.0270   71.4240  226.7160 C   0  0  0  0  0  0  0  0  0  0  0  0
  140.4320   70.9900  225.5530 C   0  0  0  0  0  0  0  0  0  0  0  0
  140.2630   71.8570  224.5380 N   0  0  0  0  0  0  0  0  0  0  0  0
  140.0590   79.3490  222.6820 C   0  0  0  0  0  0  0  0  0  0  0  0
  140.7990   79.0850  223.8160 C   0  0  0  0  0  0  0  0  0  0  0  0
  142.1550   79.3840  223.8700 C   0  0  0  0  0  0  0  0  0  0  0  0
  142.7930   79.9510  222.7880 C   0  0  0  0  0  0  0  0  0  0  0  0
  142.0720   80.2240  221.6420 C   0  0  0  0  0  0  0  0  0  0  0  0
  140.7280   79.9160  221.6200 C   0  0  0  0  0  0  0  0  0  0  0  0
  137.8263   79.9030  224.3698 H   0  0  0  0  0  0  0  0  0  0  0  0
  138.0182   80.9921  222.9542 H   0  0  0  0  0  0  0  0  0  0  0  0
  136.7331   79.7370  222.9542 H   0  0  0  0  0  0  0  0  0  0  0  0
  137.0393   77.9210  221.9868 H   0  0  0  0  0  0  0  0  0  0  0  0
  138.5618   77.6342  221.1051 H   0  0  0  0  0  0  0  0  0  0  0  0
  139.1605   77.0513  223.7899 H   0  0  0  0  0  0  0  0  0  0  0  0
  137.4893   76.3619  223.4711 H   0  0  0  0  0  0  0  0  0  0  0  0
  138.5990   74.5670  222.5880 H   0  0  0  0  0  0  0  0  0  0  0  0
  139.9593   74.0350  220.1291 H   0  0  0  0  0  0  0  0  0  0  0  0
  141.6470   74.4816  220.5347 H   0  0  0  0  0  0  0  0  0  0  0  0
  141.5440   73.2240  222.5290 H   0  0  0  0  0  0  0  0  0  0  0  0
  138.8024   69.8979  222.2827 H   0  0  0  0  0  0  0  0  0  0  0  0
  139.0937   68.2636  224.1271 H   0  0  0  0  0  0  0  0  0  0  0  0
  139.8611   67.7185  226.3868 H   0  0  0  0  0  0  0  0  0  0  0  0
  141.6714   70.8757  228.6787 H   0  0  0  0  0  0  0  0  0  0  0  0
  141.3607   72.4672  226.8182 H   0  0  0  0  0  0  0  0  0  0  0  0
  140.3086   78.6313  224.6899 H   0  0  0  0  0  0  0  0  0  0  0  0
  142.7247   79.1660  224.7854 H   0  0  0  0  0  0  0  0  0  0  0  0
  143.8669   80.1841  222.8366 H   0  0  0  0  0  0  0  0  0  0  0  0
  142.5592   80.6772  220.7660 H   0  0  0  0  0  0  0  0  0  0  0  0
  140.1592   80.1351  220.7043 H   0  0  0  0  0  0  0  0  0  0  0  0
  1  2  1  0
  2  3  1  0
  3  4  1  0
  4  5  1  0
  5  6  1  0
  6  7  2  0
  6  8  1  0
  8  9  1  0
  9 10  1  0
 10 11  2  0
 10 12  1  0
 12 13  2  0
 13 14  1  0
 14 15  2  0
 15 16  1  0
 16 17  2  0
 17 18  1  0
 17 19  1  0
 19 20  2  0
 20 21  1  0
 21 22  2  0
  2 23  1  0
 23 24  2  0
 24 25  1  0
 25 26  2  0
 26 27  1  0
 27 28  2  0
 22 12  1  0
 28 23  1  0
 21 15  1  0
  1 29  1  0
  1 30  1  0
  1 31  1  0
  3 32  1  0
  3 33  1  0
  4 34  1  0
  4 35  1  0
  5 36  1  0
  8 37  1  0
  8 38  1  0
  9 39  1  0
 13 40  1  0
 14 41  1  0
 16 42  1  0
 19 43  1  0
 20 44  1  0
 24 45  1  0
 25 46  1  0
 26 47  1  0
 27 48  1  0
 28 49  1  0
M  END
>  <smiles>  (8) 
CN(CCNC(=O)CNC(=O)c1ccc2cc(Cl)ccc2n1)c1ccccc1

>  <score_type>  (8) 
oracle

>  <origin>  (8) 
autodockgpu

>  <m_score__min__energy>  (8) 
-8.1899999999999995

>  <m_primary>  (8) 
energy

>  <rmsd>  (8) 
5.049720074350919

>  <m_score__min__rmsd>  (8) 
5.049720074350919

>  <meeko>  (8) 
{"free_energy": -7.62, "intermolecular_energy": -9.71, "internal_energy": -2.08, "cluster_size": 27, "cluster_id": 1, "rank_in_cluster": 25}

>  <energy>  (8) 
-8.04

>  <cluster_rmsd>  (8) 
0.72

>  <cluster>  (8) 
1

$$$$

     RDKit          3D

 49 51  0  0  0  0  0  0  0  0999 V2000
  137.7730   80.5910  224.5010 C   0  0  0  0  0  0  0  0  0  0  0  0
  138.5220   79.8910  223.4790 N   0  0  0  0  0  0  0  0  0  0  0  0
  137.7820   79.0890  222.5290 C   0  0  0  0  0  0  0  0  0  0  0  0
  138.6870   78.8250  221.3530 C   0  0  0  0  0  0  0  0  0  0  0  0
  138.6180   77.4890  220.8340 N   0  0  0  0  0  0  0  0  0  0  0  0
  138.9050   76.3350  221.6540 C   0  0  0  0  0  0  0  0  0  0  0  0
  139.2280   76.4750  222.8620 O   0  0  0  0  0  0  0  0  0  0  0  0
  138.7930   75.0180  220.9810 C   0  0  0  0  0  0  0  0  0  0  0  0
  138.9080   73.9720  221.9760 N   0  0  0  0  0  0  0  0  0  0  0  0
  139.9340   72.9990  221.9720 C   0  0  0  0  0  0  0  0  0  0  0  0
  140.8330   72.9880  221.0700 O   0  0  0  0  0  0  0  0  0  0  0  0
  139.9300   71.9900  223.0520 C   0  0  0  0  0  0  0  0  0  0  0  0
  139.3970   70.7300  222.8700 C   0  0  0  0  0  0  0  0  0  0  0  0
  139.4110   69.7960  223.9050 C   0  0  0  0  0  0  0  0  0  0  0  0
  139.9590   70.1070  225.1380 C   0  0  0  0  0  0  0  0  0  0  0  0
  139.9770   69.1770  226.1690 C   0  0  0  0  0  0  0  0  0  0  0  0
  140.5400   69.5570  227.3690 C   0  0  0  0  0  0  0  0  0  0  0  0
  140.5870   68.4100  228.7150 Cl  0  0  0  0  0  0  0  0  0  0  0  0
  141.0650   70.8360  227.5050 C   0  0  0  0  0  0  0  0  0  0  0  0
  141.0420   71.7470  226.4740 C   0  0  0  0  0  0  0  0  0  0  0  0
  140.4810   71.3780  225.2730 C   0  0  0  0  0  0  0  0  0  0  0  0
  140.4560   72.2620  224.2600 N   0  0  0  0  0  0  0  0  0  0  0  0
  139.9320   80.0350  223.4700 C   0  0  0  0  0  0  0  0  0  0  0  0
  140.4770   81.2440  223.0920 C   0  0  0  0  0  0  0  0  0  0  0  0
  141.8540   81.4300  223.0660 C   0  0  0  0  0  0  0  0  0  0  0  0
  142.7080   80.4070  223.4200 C   0  0  0  0  0  0  0  0  0  0  0  0
  142.1840   79.1880  223.8020 C   0  0  0  0  0  0  0  0  0  0  0  0
  140.8130   79.0360  223.8180 C   0  0  0  0  0  0  0  0  0  0  0  0
  138.1182   80.2684  225.4943 H   0  0  0  0  0  0  0  0  0  0  0  0
  137.9291   81.6745  224.3926 H   0  0  0  0  0  0  0  0  0  0  0  0
  136.7025   80.3621  224.3926 H   0  0  0  0  0  0  0  0  0  0  0  0
  137.4834   78.1377  222.9935 H   0  0  0  0  0  0  0  0  0  0  0  0
  136.8717   79.6151  222.2056 H   0  0  0  0  0  0  0  0  0  0  0  0
  138.4132   79.5210  220.5464 H   0  0  0  0  0  0  0  0  0  0  0  0
  139.7164   78.9663  221.7140 H   0  0  0  0  0  0  0  0  0  0  0  0
  138.3490   77.3300  219.8160 H   0  0  0  0  0  0  0  0  0  0  0  0
  137.8183   74.9426  220.4768 H   0  0  0  0  0  0  0  0  0  0  0  0
  139.5934   74.9117  220.2340 H   0  0  0  0  0  0  0  0  0  0  0  0
  138.1760   73.9490  222.7410 H   0  0  0  0  0  0  0  0  0  0  0  0
  138.9568   70.4600  221.8987 H   0  0  0  0  0  0  0  0  0  0  0  0
  138.9804   68.7974  223.7397 H   0  0  0  0  0  0  0  0  0  0  0  0
  139.5559   68.1700  226.0329 H   0  0  0  0  0  0  0  0  0  0  0  0
  141.5127   71.1293  228.4660 H   0  0  0  0  0  0  0  0  0  0  0  0
  141.4651   72.7535  226.6077 H   0  0  0  0  0  0  0  0  0  0  0  0
  139.8124   82.0729  222.8070 H   0  0  0  0  0  0  0  0  0  0  0  0
  142.2666   82.4027  222.7601 H   0  0  0  0  0  0  0  0  0  0  0  0
  143.7970   80.5606  223.3983 H   0  0  0  0  0  0  0  0  0  0  0  0
  142.8452   78.3564  224.0873 H   0  0  0  0  0  0  0  0  0  0  0  0
  140.4012   78.0635  224.1256 H   0  0  0  0  0  0  0  0  0  0  0  0
  1  2  1  0
  2  3  1  0
  3  4  1  0
  4  5  1  0
  5  6  1  0
  6  7  2  0
  6  8  1  0
  8  9  1  0
  9 10  1  0
 10 11  2  0
 10 12  1  0
 12 13  2  0
 13 14  1  0
 14 15  2  0
 15 16  1  0
 16 17  2  0
 17 18  1  0
 17 19  1  0
 19 20  2  0
 20 21  1  0
 21 22  2  0
  2 23  1  0
 23 24  2  0
 24 25  1  0
 25 26  2  0
 26 27  1  0
 27 28  2  0
 22 12  1  0
 28 23  1  0
 21 15  1  0
  1 29  1  0
  1 30  1  0
  1 31  1  0
  3 32  1  0
  3 33  1  0
  4 34  1  0
  4 35  1  0
  5 36  1  0
  8 37  1  0
  8 38  1  0
  9 39  1  0
 13 40  1  0
 14 41  1  0
 16 42  1  0
 19 43  1  0
 20 44  1  0
 24 45  1  0
 25 46  1  0
 26 47  1  0
 27 48  1  0
 28 49  1  0
M  END
>  <smiles>  (9) 
CN(CCNC(=O)CNC(=O)c1ccc2cc(Cl)ccc2n1)c1ccccc1

>  <score_type>  (9) 
oracle

>  <origin>  (9) 
autodockgpu

>  <m_score__min__energy>  (9) 
-8.1899999999999995

>  <m_primary>  (9) 
energy

>  <rmsd>  (9) 
5.916421211658523

>  <m_score__min__rmsd>  (9) 
5.916421211658523

>  <meeko>  (9) 
{"free_energy": -8.19, "intermolecular_energy": -10.28, "internal_energy": -1.31, "cluster_size": 27, "cluster_id": 1, "rank_in_cluster": 1}

>  <energy>  (9) 
-8.01

>  <cluster_rmsd>  (9) 
0.64

>  <cluster>  (9) 
1

$$$$

     RDKit          3D

 49 51  0  0  0  0  0  0  0  0999 V2000
  140.1410   71.4820  223.3500 C   0  0  0  0  0  0  0  0  0  0  0  0
  139.4960   70.6920  224.3770 N   0  0  0  0  0  0  0  0  0  0  0  0
  138.3840   69.8530  223.9860 C   0  0  0  0  0  0  0  0  0  0  0  0
  137.1180   70.6390  224.2150 C   0  0  0  0  0  0  0  0  0  0  0  0
  136.8460   71.6360  223.2190 N   0  0  0  0  0  0  0  0  0  0  0  0
  135.7420   72.5590  223.3440 C   0  0  0  0  0  0  0  0  0  0  0  0
  134.9800   72.5100  224.3430 O   0  0  0  0  0  0  0  0  0  0  0  0
  135.5850   73.5340  222.2380 C   0  0  0  0  0  0  0  0  0  0  0  0
  136.6220   74.5380  222.3470 N   0  0  0  0  0  0  0  0  0  0  0  0
  137.9350   74.3640  221.8490 C   0  0  0  0  0  0  0  0  0  0  0  0
  138.2840   73.2870  221.2650 O   0  0  0  0  0  0  0  0  0  0  0  0
  138.8920   75.4750  222.0270 C   0  0  0  0  0  0  0  0  0  0  0  0
  140.2180   75.3590  221.6610 C   0  0  0  0  0  0  0  0  0  0  0  0
  141.0990   76.4260  221.8360 C   0  0  0  0  0  0  0  0  0  0  0  0
  140.6680   77.6250  222.3780 C   0  0  0  0  0  0  0  0  0  0  0  0
  141.5440   78.6890  222.5510 C   0  0  0  0  0  0  0  0  0  0  0  0
  141.0430   79.8520  223.0960 C   0  0  0  0  0  0  0  0  0  0  0  0
  142.1160   81.2380  223.3370 Cl  0  0  0  0  0  0  0  0  0  0  0  0
  139.7010   79.9220  223.4480 C   0  0  0  0  0  0  0  0  0  0  0  0
  138.8440   78.8600  223.2710 C   0  0  0  0  0  0  0  0  0  0  0  0
  139.3350   77.6940  222.7280 C   0  0  0  0  0  0  0  0  0  0  0  0
  138.5030   76.6510  222.5500 N   0  0  0  0  0  0  0  0  0  0  0  0
  139.9940   70.7870  225.7010 C   0  0  0  0  0  0  0  0  0  0  0  0
  140.7410   71.8890  226.0570 C   0  0  0  0  0  0  0  0  0  0  0  0
  141.2510   72.0220  227.3420 C   0  0  0  0  0  0  0  0  0  0  0  0
  141.0190   71.0530  228.2940 C   0  0  0  0  0  0  0  0  0  0  0  0
  140.2730   69.9400  227.9600 C   0  0  0  0  0  0  0  0  0  0  0  0
  139.7810   69.8380  226.6750 C   0  0  0  0  0  0  0  0  0  0  0  0
  140.7698   72.2522  223.8206 H   0  0  0  0  0  0  0  0  0  0  0  0
  140.7674   70.8291  222.7244 H   0  0  0  0  0  0  0  0  0  0  0  0
  139.3760   71.9651  222.7244 H   0  0  0  0  0  0  0  0  0  0  0  0
  138.4720   69.5849  222.9228 H   0  0  0  0  0  0  0  0  0  0  0  0
  138.3744   68.9244  224.5756 H   0  0  0  0  0  0  0  0  0  0  0  0
  136.2744   69.9333  224.2335 H   0  0  0  0  0  0  0  0  0  0  0  0
  137.2518   71.1760  225.1656 H   0  0  0  0  0  0  0  0  0  0  0  0
  137.4700   71.7080  222.3580 H   0  0  0  0  0  0  0  0  0  0  0  0
  135.6741   73.0146  221.2725 H   0  0  0  0  0  0  0  0  0  0  0  0
  134.5960   74.0116  222.2999 H   0  0  0  0  0  0  0  0  0  0  0  0
  136.3690   75.4460  222.8280 H   0  0  0  0  0  0  0  0  0  0  0  0
  140.5831   74.4163  221.2273 H   0  0  0  0  0  0  0  0  0  0  0  0
  142.1521   76.3133  221.5389 H   0  0  0  0  0  0  0  0  0  0  0  0
  142.6023   78.6064  222.2627 H   0  0  0  0  0  0  0  0  0  0  0  0
  139.3115   80.8549  223.8815 H   0  0  0  0  0  0  0  0  0  0  0  0
  137.7853   78.9412  223.5583 H   0  0  0  0  0  0  0  0  0  0  0  0
  140.9362   72.6749  225.3125 H   0  0  0  0  0  0  0  0  0  0  0  0
  141.8461   72.9097  227.6024 H   0  0  0  0  0  0  0  0  0  0  0  0
  141.4243   71.1651  229.3105 H   0  0  0  0  0  0  0  0  0  0  0  0
  140.0754   69.1523  228.7019 H   0  0  0  0  0  0  0  0  0  0  0  0
  139.1862   68.9500  226.4148 H   0  0  0  0  0  0  0  0  0  0  0  0
  1  2  1  0
  2  3  1  0
  3  4  1  0
  4  5  1  0
  5  6  1  0
  6  7  2  0
  6  8  1  0
  8  9  1  0
  9 10  1  0
 10 11  2  0
 10 12  1  0
 12 13  2  0
 13 14  1  0
 14 15  2  0
 15 16  1  0
 16 17  2  0
 17 18  1  0
 17 19  1  0
 19 20  2  0
 20 21  1  0
 21 22  2  0
  2 23  1  0
 23 24  2  0
 24 25  1  0
 25 26  2  0
 26 27  1  0
 27 28  2  0
 22 12  1  0
 28 23  1  0
 21 15  1  0
  1 29  1  0
  1 30  1  0
  1 31  1  0
  3 32  1  0
  3 33  1  0
  4 34  1  0
  4 35  1  0
  5 36  1  0
  8 37  1  0
  8 38  1  0
  9 39  1  0
 13 40  1  0
 14 41  1  0
 16 42  1  0
 19 43  1  0
 20 44  1  0
 24 45  1  0
 25 46  1  0
 26 47  1  0
 27 48  1  0
 28 49  1  0
M  END
>  <smiles>  (10) 
CN(CCNC(=O)CNC(=O)c1ccc2cc(Cl)ccc2n1)c1ccccc1

>  <score_type>  (10) 
oracle

>  <origin>  (10) 
autodockgpu

>  <m_score__min__energy>  (10) 
-8.1899999999999995

>  <m_primary>  (10) 
energy

>  <rmsd>  (10) 
8.317231580522915

>  <m_score__min__rmsd>  (10) 
8.317231580522915

>  <meeko>  (10) 
{"free_energy": -7.21, "intermolecular_energy": -9.3, "internal_energy": -2.39, "cluster_size": 15, "cluster_id": 2, "rank_in_cluster": 15}

>  <energy>  (10) 
-8.01

>  <cluster_rmsd>  (10) 
0.59

>  <cluster>  (10) 
1

$$$$

     RDKit          3D

 49 51  0  0  0  0  0  0  0  0999 V2000
  137.8100   80.1710  223.8650 C   0  0  0  0  0  0  0  0  0  0  0  0
  138.7220   80.0810  222.7460 N   0  0  0  0  0  0  0  0  0  0  0  0
  138.1550   79.9640  221.4200 C   0  0  0  0  0  0  0  0  0  0  0  0
  137.4950   78.6110  221.3240 C   0  0  0  0  0  0  0  0  0  0  0  0
  138.3830   77.5370  220.9820 N   0  0  0  0  0  0  0  0  0  0  0  0
  138.4190   76.3050  221.7340 C   0  0  0  0  0  0  0  0  0  0  0  0
  137.6600   76.1410  222.7240 O   0  0  0  0  0  0  0  0  0  0  0  0
  139.3860   75.2860  221.2630 C   0  0  0  0  0  0  0  0  0  0  0  0
  139.4210   74.1960  222.2170 N   0  0  0  0  0  0  0  0  0  0  0  0
  140.1990   73.0280  222.0400 C   0  0  0  0  0  0  0  0  0  0  0  0
  140.9270   72.8670  221.0080 O   0  0  0  0  0  0  0  0  0  0  0  0
  140.1420   71.9960  223.0970 C   0  0  0  0  0  0  0  0  0  0  0  0
  139.6200   70.7410  222.8610 C   0  0  0  0  0  0  0  0  0  0  0  0
  139.5830   69.7850  223.8750 C   0  0  0  0  0  0  0  0  0  0  0  0
  140.0670   70.0690  225.1410 C   0  0  0  0  0  0  0  0  0  0  0  0
  140.0330   69.1170  226.1520 C   0  0  0  0  0  0  0  0  0  0  0  0
  140.5350   69.4720  227.3860 C   0  0  0  0  0  0  0  0  0  0  0  0
  140.5140   68.2960  228.7090 Cl  0  0  0  0  0  0  0  0  0  0  0  0
  141.0500   70.7480  227.5760 C   0  0  0  0  0  0  0  0  0  0  0  0
  141.0780   71.6810  226.5650 C   0  0  0  0  0  0  0  0  0  0  0  0
  140.5800   71.3370  225.3290 C   0  0  0  0  0  0  0  0  0  0  0  0
  140.6050   72.2430  224.3350 N   0  0  0  0  0  0  0  0  0  0  0  0
  140.1130   80.1150  223.0150 C   0  0  0  0  0  0  0  0  0  0  0  0
  140.7890   78.9260  223.1930 C   0  0  0  0  0  0  0  0  0  0  0  0
  142.1520   78.9120  223.4610 C   0  0  0  0  0  0  0  0  0  0  0  0
  142.8620   80.0900  223.5540 C   0  0  0  0  0  0  0  0  0  0  0  0
  142.2050   81.2930  223.3800 C   0  0  0  0  0  0  0  0  0  0  0  0
  140.8520   81.2720  223.1150 C   0  0  0  0  0  0  0  0  0  0  0  0
  138.3773   80.1150  224.8058 H   0  0  0  0  0  0  0  0  0  0  0  0
  137.2678   81.1270  223.8201 H   0  0  0  0  0  0  0  0  0  0  0  0
  137.0914   79.3394  223.8201 H   0  0  0  0  0  0  0  0  0  0  0  0
  137.4099   80.7571  221.2593 H   0  0  0  0  0  0  0  0  0  0  0  0
  138.9382   80.0670  220.6545 H   0  0  0  0  0  0  0  0  0  0  0  0
  137.0384   78.3819  222.2982 H   0  0  0  0  0  0  0  0  0  0  0  0
  136.7596   78.6796  220.5088 H   0  0  0  0  0  0  0  0  0  0  0  0
  139.0410   77.6400  220.1490 H   0  0  0  0  0  0  0  0  0  0  0  0
  139.0724   74.9060  220.2795 H   0  0  0  0  0  0  0  0  0  0  0  0
  140.3862   75.7348  221.1730 H   0  0  0  0  0  0  0  0  0  0  0  0
  138.8270   74.2950  223.0870 H   0  0  0  0  0  0  0  0  0  0  0  0
  139.2293   70.4923  221.8633 H   0  0  0  0  0  0  0  0  0  0  0  0
  139.1630   68.7900  223.6663 H   0  0  0  0  0  0  0  0  0  0  0  0
  139.6194   68.1134  225.9740 H   0  0  0  0  0  0  0  0  0  0  0  0
  141.4475   71.0209  228.5647 H   0  0  0  0  0  0  0  0  0  0  0  0
  141.4915   72.6849  226.7417 H   0  0  0  0  0  0  0  0  0  0  0  0
  140.2409   77.9750  223.1217 H   0  0  0  0  0  0  0  0  0  0  0  0
  142.6698   77.9516  223.6004 H   0  0  0  0  0  0  0  0  0  0  0  0
  143.9415   80.0724  223.7648 H   0  0  0  0  0  0  0  0  0  0  0  0
  142.7492   82.2463  223.4513 H   0  0  0  0  0  0  0  0  0  0  0  0
  140.3347   82.2328  222.9759 H   0  0  0  0  0  0  0  0  0  0  0  0
  1  2  1  0
  2  3  1  0
  3  4  1  0
  4  5  1  0
  5  6  1  0
  6  7  2  0
  6  8  1  0
  8  9  1  0
  9 10  1  0
 10 11  2  0
 10 12  1  0
 12 13  2  0
 13 14  1  0
 14 15  2  0
 15 16  1  0
 16 17  2  0
 17 18  1  0
 17 19  1  0
 19 20  2  0
 20 21  1  0
 21 22  2  0
  2 23  1  0
 23 24  2  0
 24 25  1  0
 25 26  2  0
 26 27  1  0
 27 28  2  0
 22 12  1  0
 28 23  1  0
 21 15  1  0
  1 29  1  0
  1 30  1  0
  1 31  1  0
  3 32  1  0
  3 33  1  0
  4 34  1  0
  4 35  1  0
  5 36  1  0
  8 37  1  0
  8 38  1  0
  9 39  1  0
 13 40  1  0
 14 41  1  0
 16 42  1  0
 19 43  1  0
 20 44  1  0
 24 45  1  0
 25 46  1  0
 26 47  1  0
 27 48  1  0
 28 49  1  0
M  END
>  <smiles>  (11) 
CN(CCNC(=O)CNC(=O)c1ccc2cc(Cl)ccc2n1)c1ccccc1

>  <score_type>  (11) 
oracle

>  <origin>  (11) 
autodockgpu

>  <m_score__min__energy>  (11) 
-8.1899999999999995

>  <m_primary>  (11) 
energy

>  <rmsd>  (11) 
5.87738184165225

>  <m_score__min__rmsd>  (11) 
5.87738184165225

>  <meeko>  (11) 
{"free_energy": -7.97, "intermolecular_energy": -10.06, "internal_energy": -1.84, "cluster_size": 27, "cluster_id": 1, "rank_in_cluster": 15}

>  <energy>  (11) 
-8.01

>  <cluster_rmsd>  (11) 
1.87

>  <cluster>  (11) 
1

$$$$

     RDKit          3D

 49 51  0  0  0  0  0  0  0  0999 V2000
  137.7120   80.5580  224.2440 C   0  0  0  0  0  0  0  0  0  0  0  0
  138.5420   79.7810  223.3490 N   0  0  0  0  0  0  0  0  0  0  0  0
  137.8860   78.8490  222.4570 C   0  0  0  0  0  0  0  0  0  0  0  0
  138.8590   78.5100  221.3570 C   0  0  0  0  0  0  0  0  0  0  0  0
  138.7790   77.1570  220.8850 N   0  0  0  0  0  0  0  0  0  0  0  0
  139.1160   76.0330  221.7260 C   0  0  0  0  0  0  0  0  0  0  0  0
  139.4940   76.2140  222.9120 O   0  0  0  0  0  0  0  0  0  0  0  0
  138.9850   74.6950  221.1010 C   0  0  0  0  0  0  0  0  0  0  0  0
  139.1940   73.6810  222.1150 N   0  0  0  0  0  0  0  0  0  0  0  0
  139.1240   72.2930  221.8570 C   0  0  0  0  0  0  0  0  0  0  0  0
  138.8650   71.8470  220.6920 O   0  0  0  0  0  0  0  0  0  0  0  0
  139.3620   71.3700  222.9870 C   0  0  0  0  0  0  0  0  0  0  0  0
  138.9950   70.0410  222.9310 C   0  0  0  0  0  0  0  0  0  0  0  0
  139.2360   69.1910  224.0090 C   0  0  0  0  0  0  0  0  0  0  0  0
  139.8490   69.6570  225.1610 C   0  0  0  0  0  0  0  0  0  0  0  0
  140.0920   68.8110  226.2350 C   0  0  0  0  0  0  0  0  0  0  0  0
  140.7070   69.3450  227.3470 C   0  0  0  0  0  0  0  0  0  0  0  0
  141.0390   68.3110  228.7450 Cl  0  0  0  0  0  0  0  0  0  0  0  0
  141.0580   70.6890  227.3580 C   0  0  0  0  0  0  0  0  0  0  0  0
  140.8110   71.5150  226.2860 C   0  0  0  0  0  0  0  0  0  0  0  0
  140.1980   70.9920  225.1700 C   0  0  0  0  0  0  0  0  0  0  0  0
  139.9550   71.7930  224.1170 N   0  0  0  0  0  0  0  0  0  0  0  0
  139.9440   79.9810  223.3990 C   0  0  0  0  0  0  0  0  0  0  0  0
  140.4610   81.1940  222.9970 C   0  0  0  0  0  0  0  0  0  0  0  0
  141.8290   81.4340  223.0270 C   0  0  0  0  0  0  0  0  0  0  0  0
  142.7040   80.4610  223.4620 C   0  0  0  0  0  0  0  0  0  0  0  0
  142.2090   79.2380  223.8690 C   0  0  0  0  0  0  0  0  0  0  0  0
  140.8450   79.0320  223.8280 C   0  0  0  0  0  0  0  0  0  0  0  0
  137.9700   80.3165  225.2857 H   0  0  0  0  0  0  0  0  0  0  0  0
  137.8813   81.6298  224.0634 H   0  0  0  0  0  0  0  0  0  0  0  0
  136.6537   80.3184  224.0634 H   0  0  0  0  0  0  0  0  0  0  0  0
  137.6075   77.9372  223.0057 H   0  0  0  0  0  0  0  0  0  0  0  0
  136.9701   79.2929  222.0397 H   0  0  0  0  0  0  0  0  0  0  0  0
  138.6646   79.1817  220.5079 H   0  0  0  0  0  0  0  0  0  0  0  0
  139.8659   78.6329  221.7824 H   0  0  0  0  0  0  0  0  0  0  0  0
  138.4630   76.9640  219.8860 H   0  0  0  0  0  0  0  0  0  0  0  0
  137.9785   74.5852  220.6709 H   0  0  0  0  0  0  0  0  0  0  0  0
  139.7321   74.5822  220.3015 H   0  0  0  0  0  0  0  0  0  0  0  0
  139.4090   74.0150  223.0960 H   0  0  0  0  0  0  0  0  0  0  0  0
  138.5073   69.6485  222.0265 H   0  0  0  0  0  0  0  0  0  0  0  0
  138.9352   68.1349  223.9443 H   0  0  0  0  0  0  0  0  0  0  0  0
  139.8033   67.7501  226.1995 H   0  0  0  0  0  0  0  0  0  0  0  0
  141.5481   71.1052  228.2505 H   0  0  0  0  0  0  0  0  0  0  0  0
  141.0987   72.5762  226.3201 H   0  0  0  0  0  0  0  0  0  0  0  0
  139.7800   81.9839  222.6472 H   0  0  0  0  0  0  0  0  0  0  0  0
  142.2180   82.4097  222.7005 H   0  0  0  0  0  0  0  0  0  0  0  0
  143.7861   80.6573  223.4845 H   0  0  0  0  0  0  0  0  0  0  0  0
  142.8869   78.4453  224.2183 H   0  0  0  0  0  0  0  0  0  0  0  0
  140.4563   78.0566  224.1559 H   0  0  0  0  0  0  0  0  0  0  0  0
  1  2  1  0
  2  3  1  0
  3  4  1  0
  4  5  1  0
  5  6  1  0
  6  7  2  0
  6  8  1  0
  8  9  1  0
  9 10  1  0
 10 11  2  0
 10 12  1  0
 12 13  2  0
 13 14  1  0
 14 15  2  0
 15 16  1  0
 16 17  2  0
 17 18  1  0
 17 19  1  0
 19 20  2  0
 20 21  1  0
 21 22  2  0
  2 23  1  0
 23 24  2  0
 24 25  1  0
 25 26  2  0
 26 27  1  0
 27 28  2  0
 22 12  1  0
 28 23  1  0
 21 15  1  0
  1 29  1  0
  1 30  1  0
  1 31  1  0
  3 32  1  0
  3 33  1  0
  4 34  1  0
  4 35  1  0
  5 36  1  0
  8 37  1  0
  8 38  1  0
  9 39  1  0
 13 40  1  0
 14 41  1  0
 16 42  1  0
 19 43  1  0
 20 44  1  0
 24 45  1  0
 25 46  1  0
 26 47  1  0
 27 48  1  0
 28 49  1  0
M  END
>  <smiles>  (12) 
CN(CCNC(=O)CNC(=O)c1ccc2cc(Cl)ccc2n1)c1ccccc1

>  <score_type>  (12) 
oracle

>  <origin>  (12) 
autodockgpu

>  <m_score__min__energy>  (12) 
-8.1899999999999995

>  <m_primary>  (12) 
energy

>  <rmsd>  (12) 
5.7805937879802745

>  <m_score__min__rmsd>  (12) 
5.7805937879802745

>  <meeko>  (12) 
{"free_energy": -8.01, "intermolecular_energy": -10.1, "internal_energy": -2.0, "cluster_size": 27, "cluster_id": 1, "rank_in_cluster": 9}

>  <energy>  (12) 
-8.01

>  <cluster_rmsd>  (12) 
0.55

>  <cluster>  (12) 
1

$$$$

     RDKit          3D

 49 51  0  0  0  0  0  0  0  0999 V2000
  138.7090   69.6960  223.9630 C   0  0  0  0  0  0  0  0  0  0  0  0
  139.7790   70.6240  224.2610 N   0  0  0  0  0  0  0  0  0  0  0  0
  140.4150   71.3010  223.1520 C   0  0  0  0  0  0  0  0  0  0  0  0
  139.3710   71.5060  222.0840 C   0  0  0  0  0  0  0  0  0  0  0  0
  138.3910   72.5080  222.3920 N   0  0  0  0  0  0  0  0  0  0  0  0
  137.0310   72.4190  221.9160 C   0  0  0  0  0  0  0  0  0  0  0  0
  136.6650   71.4460  221.2080 O   0  0  0  0  0  0  0  0  0  0  0  0
  136.1310   73.5290  222.3140 C   0  0  0  0  0  0  0  0  0  0  0  0
  136.9260   74.7150  222.5510 N   0  0  0  0  0  0  0  0  0  0  0  0
  136.4890   76.0240  222.2400 C   0  0  0  0  0  0  0  0  0  0  0  0
  135.3460   76.2340  221.7190 O   0  0  0  0  0  0  0  0  0  0  0  0
  137.4050   77.1450  222.5390 C   0  0  0  0  0  0  0  0  0  0  0  0
  136.9360   78.4160  222.8040 C   0  0  0  0  0  0  0  0  0  0  0  0
  137.8220   79.4550  223.0890 C   0  0  0  0  0  0  0  0  0  0  0  0
  139.1890   79.2390  223.1140 C   0  0  0  0  0  0  0  0  0  0  0  0
  140.0730   80.2710  223.3990 C   0  0  0  0  0  0  0  0  0  0  0  0
  141.4200   79.9810  223.4070 C   0  0  0  0  0  0  0  0  0  0  0  0
  142.5890   81.2610  223.7640 Cl  0  0  0  0  0  0  0  0  0  0  0  0
  141.8450   78.6870  223.1340 C   0  0  0  0  0  0  0  0  0  0  0  0
  140.9580   77.6730  222.8530 C   0  0  0  0  0  0  0  0  0  0  0  0
  139.6100   77.9520  222.8430 C   0  0  0  0  0  0  0  0  0  0  0  0
  138.7370   76.9660  222.5710 N   0  0  0  0  0  0  0  0  0  0  0  0
  140.1360   70.8150  225.6190 C   0  0  0  0  0  0  0  0  0  0  0  0
  140.9540   71.8730  225.9530 C   0  0  0  0  0  0  0  0  0  0  0  0
  141.3310   72.0980  227.2710 C   0  0  0  0  0  0  0  0  0  0  0  0
  140.8930   71.2640  228.2780 C   0  0  0  0  0  0  0  0  0  0  0  0
  140.0740   70.1970  227.9680 C   0  0  0  0  0  0  0  0  0  0  0  0
  139.7170   70.0020  226.6490 C   0  0  0  0  0  0  0  0  0  0  0  0
  138.2766   69.3210  224.9024 H   0  0  0  0  0  0  0  0  0  0  0  0
  137.9301   70.2094  223.3801 H   0  0  0  0  0  0  0  0  0  0  0  0
  139.1071   68.8523  223.3801 H   0  0  0  0  0  0  0  0  0  0  0  0
  140.8095   72.2732  223.4824 H   0  0  0  0  0  0  0  0  0  0  0  0
  141.2528   70.7033  222.7636 H   0  0  0  0  0  0  0  0  0  0  0  0
  139.8827   71.8002  221.1558 H   0  0  0  0  0  0  0  0  0  0  0  0
  138.8265   70.5545  221.9931 H   0  0  0  0  0  0  0  0  0  0  0  0
  138.6630   73.3480  222.9890 H   0  0  0  0  0  0  0  0  0  0  0  0
  135.4073   73.7243  221.5090 H   0  0  0  0  0  0  0  0  0  0  0  0
  135.5857   73.2567  223.2297 H   0  0  0  0  0  0  0  0  0  0  0  0
  137.8840   74.5790  222.9820 H   0  0  0  0  0  0  0  0  0  0  0  0
  135.8536   78.6113  222.7903 H   0  0  0  0  0  0  0  0  0  0  0  0
  137.4285   80.4609  223.2970 H   0  0  0  0  0  0  0  0  0  0  0  0
  139.7098   81.2873  223.6116 H   0  0  0  0  0  0  0  0  0  0  0  0
  142.9226   78.4662  223.1427 H   0  0  0  0  0  0  0  0  0  0  0  0
  141.3201   76.6564  222.6399 H   0  0  0  0  0  0  0  0  0  0  0  0
  141.3138   72.5495  225.1638 H   0  0  0  0  0  0  0  0  0  0  0  0
  141.9846   72.9489  227.5134 H   0  0  0  0  0  0  0  0  0  0  0  0
  141.1939   71.4475  229.3200 H   0  0  0  0  0  0  0  0  0  0  0  0
  139.7139   69.5174  228.7544 H   0  0  0  0  0  0  0  0  0  0  0  0
  139.0626   69.1515  226.4073 H   0  0  0  0  0  0  0  0  0  0  0  0
  1  2  1  0
  2  3  1  0
  3  4  1  0
  4  5  1  0
  5  6  1  0
  6  7  2  0
  6  8  1  0
  8  9  1  0
  9 10  1  0
 10 11  2  0
 10 12  1  0
 12 13  2  0
 13 14  1  0
 14 15  2  0
 15 16  1  0
 16 17  2  0
 17 18  1  0
 17 19  1  0
 19 20  2  0
 20 21  1  0
 21 22  2  0
  2 23  1  0
 23 24  2  0
 24 25  1  0
 25 26  2  0
 26 27  1  0
 27 28  2  0
 22 12  1  0
 28 23  1  0
 21 15  1  0
  1 29  1  0
  1 30  1  0
  1 31  1  0
  3 32  1  0
  3 33  1  0
  4 34  1  0
  4 35  1  0
  5 36  1  0
  8 37  1  0
  8 38  1  0
  9 39  1  0
 13 40  1  0
 14 41  1  0
 16 42  1  0
 19 43  1  0
 20 44  1  0
 24 45  1  0
 25 46  1  0
 26 47  1  0
 27 48  1  0
 28 49  1  0
M  END
>  <smiles>  (13) 
CN(CCNC(=O)CNC(=O)c1ccc2cc(Cl)ccc2n1)c1ccccc1

>  <score_type>  (13) 
oracle

>  <origin>  (13) 
autodockgpu

>  <m_score__min__energy>  (13) 
-8.1899999999999995

>  <m_primary>  (13) 
energy

>  <rmsd>  (13) 
8.37794803495855

>  <m_score__min__rmsd>  (13) 
8.37794803495855

>  <meeko>  (13) 
{"free_energy": -7.97, "intermolecular_energy": -10.06, "internal_energy": -1.37, "cluster_size": 15, "cluster_id": 2, "rank_in_cluster": 2}

>  <energy>  (13) 
-8.0

>  <cluster_rmsd>  (13) 
1.62

>  <cluster>  (13) 
1

$$$$

     RDKit          3D

 49 51  0  0  0  0  0  0  0  0999 V2000
  138.8750   78.6930  220.9530 C   0  0  0  0  0  0  0  0  0  0  0  0
  140.3130   78.7400  220.7910 N   0  0  0  0  0  0  0  0  0  0  0  0
  140.8690   78.2550  219.5470 C   0  0  0  0  0  0  0  0  0  0  0  0
  141.3220   76.8350  219.7740 C   0  0  0  0  0  0  0  0  0  0  0  0
  140.2580   75.8910  219.9600 N   0  0  0  0  0  0  0  0  0  0  0  0
  140.0370   75.2280  221.2240 C   0  0  0  0  0  0  0  0  0  0  0  0
  140.7840   75.4650  222.2080 O   0  0  0  0  0  0  0  0  0  0  0  0
  138.8990   74.2790  221.2670 C   0  0  0  0  0  0  0  0  0  0  0  0
  139.1450   73.2980  222.3040 N   0  0  0  0  0  0  0  0  0  0  0  0
  138.7680   71.9390  222.1990 C   0  0  0  0  0  0  0  0  0  0  0  0
  138.1750   71.4940  221.1640 O   0  0  0  0  0  0  0  0  0  0  0  0
  139.0850   71.0470  223.3340 C   0  0  0  0  0  0  0  0  0  0  0  0
  138.7230   69.7160  223.3370 C   0  0  0  0  0  0  0  0  0  0  0  0
  139.0390   68.8950  224.4190 C   0  0  0  0  0  0  0  0  0  0  0  0
  139.7240   69.3930  225.5150 C   0  0  0  0  0  0  0  0  0  0  0  0
  140.0420   68.5770  226.5920 C   0  0  0  0  0  0  0  0  0  0  0  0
  140.7260   69.1420  227.6470 C   0  0  0  0  0  0  0  0  0  0  0  0
  141.1550   68.1460  229.0460 Cl  0  0  0  0  0  0  0  0  0  0  0  0
  141.0690   70.4880  227.6000 C   0  0  0  0  0  0  0  0  0  0  0  0
  140.7480   71.2840  226.5250 C   0  0  0  0  0  0  0  0  0  0  0  0
  140.0650   70.7300  225.4670 C   0  0  0  0  0  0  0  0  0  0  0  0
  139.7490   71.5020  224.4120 N   0  0  0  0  0  0  0  0  0  0  0  0
  141.0860   79.2610  221.8580 C   0  0  0  0  0  0  0  0  0  0  0  0
  141.0760   78.6070  223.0720 C   0  0  0  0  0  0  0  0  0  0  0  0
  141.8170   79.0830  224.1470 C   0  0  0  0  0  0  0  0  0  0  0  0
  142.5830   80.2220  224.0220 C   0  0  0  0  0  0  0  0  0  0  0  0
  142.6090   80.8930  222.8150 C   0  0  0  0  0  0  0  0  0  0  0  0
  141.8620   80.3950  221.7680 C   0  0  0  0  0  0  0  0  0  0  0  0
  138.6268   78.6849  222.0246 H   0  0  0  0  0  0  0  0  0  0  0  0
  138.4235   79.5769  220.4787 H   0  0  0  0  0  0  0  0  0  0  0  0
  138.4822   77.7815  220.4787 H   0  0  0  0  0  0  0  0  0  0  0  0
  140.1034   78.2830  218.7576 H   0  0  0  0  0  0  0  0  0  0  0  0
  141.7136   78.8842  219.2296 H   0  0  0  0  0  0  0  0  0  0  0  0
  141.9119   76.5194  218.9009 H   0  0  0  0  0  0  0  0  0  0  0  0
  141.9023   76.8386  220.7085 H   0  0  0  0  0  0  0  0  0  0  0  0
  139.6040   75.6640  219.1490 H   0  0  0  0  0  0  0  0  0  0  0  0
  137.9705   74.8257  221.4886 H   0  0  0  0  0  0  0  0  0  0  0  0
  138.7967   73.7755  220.2944 H   0  0  0  0  0  0  0  0  0  0  0  0
  139.6350   73.6330  223.1800 H   0  0  0  0  0  0  0  0  0  0  0  0
  138.1794   69.2978  222.4770 H   0  0  0  0  0  0  0  0  0  0  0  0
  138.7399   67.8366  224.4018 H   0  0  0  0  0  0  0  0  0  0  0  0
  139.7575   67.5145  226.6032 H   0  0  0  0  0  0  0  0  0  0  0  0
  141.6133   70.9299  228.4476 H   0  0  0  0  0  0  0  0  0  0  0  0
  141.0328   72.3464  226.5115 H   0  0  0  0  0  0  0  0  0  0  0  0
  140.4726   77.6951  223.1913 H   0  0  0  0  0  0  0  0  0  0  0  0
  141.7920   78.5458  225.1066 H   0  0  0  0  0  0  0  0  0  0  0  0
  143.1685   80.5934  224.8760 H   0  0  0  0  0  0  0  0  0  0  0  0
  143.2122   81.8045  222.6915 H   0  0  0  0  0  0  0  0  0  0  0  0
  141.8875   80.9329  220.8089 H   0  0  0  0  0  0  0  0  0  0  0  0
  1  2  1  0
  2  3  1  0
  3  4  1  0
  4  5  1  0
  5  6  1  0
  6  7  2  0
  6  8  1  0
  8  9  1  0
  9 10  1  0
 10 11  2  0
 10 12  1  0
 12 13  2  0
 13 14  1  0
 14 15  2  0
 15 16  1  0
 16 17  2  0
 17 18  1  0
 17 19  1  0
 19 20  2  0
 20 21  1  0
 21 22  2  0
  2 23  1  0
 23 24  2  0
 24 25  1  0
 25 26  2  0
 26 27  1  0
 27 28  2  0
 22 12  1  0
 28 23  1  0
 21 15  1  0
  1 29  1  0
  1 30  1  0
  1 31  1  0
  3 32  1  0
  3 33  1  0
  4 34  1  0
  4 35  1  0
  5 36  1  0
  8 37  1  0
  8 38  1  0
  9 39  1  0
 13 40  1  0
 14 41  1  0
 16 42  1  0
 19 43  1  0
 20 44  1  0
 24 45  1  0
 25 46  1  0
 26 47  1  0
 27 48  1  0
 28 49  1  0
M  END
>  <smiles>  (14) 
CN(CCNC(=O)CNC(=O)c1ccc2cc(Cl)ccc2n1)c1ccccc1

>  <score_type>  (14) 
oracle

>  <origin>  (14) 
autodockgpu

>  <m_score__min__energy>  (14) 
-8.1899999999999995

>  <m_primary>  (14) 
energy

>  <rmsd>  (14) 
5.024350243445337

>  <m_score__min__rmsd>  (14) 
5.024350243445337

>  <meeko>  (14) 
{"free_energy": -7.88, "intermolecular_energy": -9.97, "internal_energy": -1.99, "cluster_size": 27, "cluster_id": 1, "rank_in_cluster": 20}

>  <energy>  (14) 
-7.99

>  <cluster_rmsd>  (14) 
1.41

>  <cluster>  (14) 
1

$$$$

     RDKit          3D

 49 51  0  0  0  0  0  0  0  0999 V2000
  140.8900   80.0180  219.3360 C   0  0  0  0  0  0  0  0  0  0  0  0
  140.2570   80.1310  220.6320 N   0  0  0  0  0  0  0  0  0  0  0  0
  138.8110   80.1240  220.6810 C   0  0  0  0  0  0  0  0  0  0  0  0
  138.3870   78.9100  221.4670 C   0  0  0  0  0  0  0  0  0  0  0  0
  138.9160   77.6680  220.9790 N   0  0  0  0  0  0  0  0  0  0  0  0
  138.9410   76.4760  221.7930 C   0  0  0  0  0  0  0  0  0  0  0  0
  138.4940   76.4960  222.9690 O   0  0  0  0  0  0  0  0  0  0  0  0
  139.5160   75.2680  221.1540 C   0  0  0  0  0  0  0  0  0  0  0  0
  139.5960   74.2090  222.1390 N   0  0  0  0  0  0  0  0  0  0  0  0
  139.8810   72.8620  221.8170 C   0  0  0  0  0  0  0  0  0  0  0  0
  140.0860   72.4970  220.6140 O   0  0  0  0  0  0  0  0  0  0  0  0
  139.9350   71.8850  222.9260 C   0  0  0  0  0  0  0  0  0  0  0  0
  139.5230   70.5780  222.7640 C   0  0  0  0  0  0  0  0  0  0  0  0
  139.5900   69.6760  223.8260 C   0  0  0  0  0  0  0  0  0  0  0  0
  140.0700   70.0680  225.0650 C   0  0  0  0  0  0  0  0  0  0  0  0
  140.1390   69.1700  226.1220 C   0  0  0  0  0  0  0  0  0  0  0  0
  140.6280   69.6310  227.3260 C   0  0  0  0  0  0  0  0  0  0  0  0
  140.7370   68.5290  228.7060 Cl  0  0  0  0  0  0  0  0  0  0  0  0
  141.0310   70.9560  227.4400 C   0  0  0  0  0  0  0  0  0  0  0  0
  140.9580   71.8340  226.3830 C   0  0  0  0  0  0  0  0  0  0  0  0
  140.4700   71.3840  225.1770 C   0  0  0  0  0  0  0  0  0  0  0  0
  140.3960   72.2360  224.1390 N   0  0  0  0  0  0  0  0  0  0  0  0
  141.0910   80.2380  221.7730 C   0  0  0  0  0  0  0  0  0  0  0  0
  141.2520   81.4700  222.3700 C   0  0  0  0  0  0  0  0  0  0  0  0
  142.0610   81.6220  223.4890 C   0  0  0  0  0  0  0  0  0  0  0  0
  142.7220   80.5400  224.0300 C   0  0  0  0  0  0  0  0  0  0  0  0
  142.5760   79.2960  223.4490 C   0  0  0  0  0  0  0  0  0  0  0  0
  141.7650   79.1790  222.3390 C   0  0  0  0  0  0  0  0  0  0  0  0
  141.9650   79.8261  219.4685 H   0  0  0  0  0  0  0  0  0  0  0  0
  140.4353   79.1868  218.7771 H   0  0  0  0  0  0  0  0  0  0  0  0
  140.7510   80.9552  218.7771 H   0  0  0  0  0  0  0  0  0  0  0  0
  138.4482   81.0368  221.1761 H   0  0  0  0  0  0  0  0  0  0  0  0
  138.3904   80.0924  219.6651 H   0  0  0  0  0  0  0  0  0  0  0  0
  138.7212   79.0405  222.5068 H   0  0  0  0  0  0  0  0  0  0  0  0
  137.2933   78.8425  221.3709 H   0  0  0  0  0  0  0  0  0  0  0  0
  139.3040   77.6120  219.9880 H   0  0  0  0  0  0  0  0  0  0  0  0
  138.8725   74.9493  220.3207 H   0  0  0  0  0  0  0  0  0  0  0  0
  140.5207   75.4936  220.7670 H   0  0  0  0  0  0  0  0  0  0  0  0
  139.4300   74.4750  223.1500 H   0  0  0  0  0  0  0  0  0  0  0  0
  139.1384   70.2445  221.7889 H   0  0  0  0  0  0  0  0  0  0  0  0
  139.2568   68.6383  223.6775 H   0  0  0  0  0  0  0  0  0  0  0  0
  139.8144   68.1258  226.0027 H   0  0  0  0  0  0  0  0  0  0  0  0
  141.4202   71.3139  228.4046 H   0  0  0  0  0  0  0  0  0  0  0  0
  141.2841   72.8780  226.4997 H   0  0  0  0  0  0  0  0  0  0  0  0
  140.7322   82.3457  221.9542 H   0  0  0  0  0  0  0  0  0  0  0  0
  142.1753   82.6152  223.9478 H   0  0  0  0  0  0  0  0  0  0  0  0
  143.3603   80.6666  224.9169 H   0  0  0  0  0  0  0  0  0  0  0  0
  143.0946   78.4181  223.8618 H   0  0  0  0  0  0  0  0  0  0  0  0
  141.6506   78.1854  221.8811 H   0  0  0  0  0  0  0  0  0  0  0  0
  1  2  1  0
  2  3  1  0
  3  4  1  0
  4  5  1  0
  5  6  1  0
  6  7  2  0
  6  8  1  0
  8  9  1  0
  9 10  1  0
 10 11  2  0
 10 12  1  0
 12 13  2  0
 13 14  1  0
 14 15  2  0
 15 16  1  0
 16 17  2  0
 17 18  1  0
 17 19  1  0
 19 20  2  0
 20 21  1  0
 21 22  2  0
  2 23  1  0
 23 24  2  0
 24 25  1  0
 25 26  2  0
 26 27  1  0
 27 28  2  0
 22 12  1  0
 28 23  1  0
 21 15  1  0
  1 29  1  0
  1 30  1  0
  1 31  1  0
  3 32  1  0
  3 33  1  0
  4 34  1  0
  4 35  1  0
  5 36  1  0
  8 37  1  0
  8 38  1  0
  9 39  1  0
 13 40  1  0
 14 41  1  0
 16 42  1  0
 19 43  1  0
 20 44  1  0
 24 45  1  0
 25 46  1  0
 26 47  1  0
 27 48  1  0
 28 49  1  0
M  END
>  <smiles>  (15) 
CN(CCNC(=O)CNC(=O)c1ccc2cc(Cl)ccc2n1)c1ccccc1

>  <score_type>  (15) 
oracle

>  <origin>  (15) 
autodockgpu

>  <m_score__min__energy>  (15) 
-8.1899999999999995

>  <m_primary>  (15) 
energy

>  <rmsd>  (15) 
5.406356824929777

>  <m_score__min__rmsd>  (15) 
5.406356824929777

>  <meeko>  (15) 
{"free_energy": -7.71, "intermolecular_energy": -9.79, "internal_energy": -1.98, "cluster_size": 27, "cluster_id": 1, "rank_in_cluster": 24}

>  <energy>  (15) 
-7.97

>  <cluster_rmsd>  (15) 
0.61

>  <cluster>  (15) 
1

$$$$

     RDKit          3D

 49 51  0  0  0  0  0  0  0  0999 V2000
  139.1720   68.2440  225.1930 C   0  0  0  0  0  0  0  0  0  0  0  0
  139.6370   69.5820  224.8980 N   0  0  0  0  0  0  0  0  0  0  0  0
  139.5890   70.0260  223.5210 C   0  0  0  0  0  0  0  0  0  0  0  0
  138.1760   69.8390  223.0310 C   0  0  0  0  0  0  0  0  0  0  0  0
  137.5510   71.0330  222.5380 N   0  0  0  0  0  0  0  0  0  0  0  0
  136.4840   71.6900  223.2560 C   0  0  0  0  0  0  0  0  0  0  0  0
  136.0690   71.2240  224.3480 O   0  0  0  0  0  0  0  0  0  0  0  0
  135.9370   72.9140  222.6240 C   0  0  0  0  0  0  0  0  0  0  0  0
  136.9230   73.9710  222.7150 N   0  0  0  0  0  0  0  0  0  0  0  0
  137.9590   74.1570  221.7710 C   0  0  0  0  0  0  0  0  0  0  0  0
  138.0840   73.3850  220.7650 O   0  0  0  0  0  0  0  0  0  0  0  0
  138.8940   75.2800  221.9870 C   0  0  0  0  0  0  0  0  0  0  0  0
  140.2360   75.1800  221.6780 C   0  0  0  0  0  0  0  0  0  0  0  0
  141.0960   76.2570  221.8880 C   0  0  0  0  0  0  0  0  0  0  0  0
  140.6270   77.4520  222.4090 C   0  0  0  0  0  0  0  0  0  0  0  0
  141.4820   78.5270  222.6160 C   0  0  0  0  0  0  0  0  0  0  0  0
  140.9440   79.6840  223.1360 C   0  0  0  0  0  0  0  0  0  0  0  0
  141.9900   81.0840  223.4200 Cl  0  0  0  0  0  0  0  0  0  0  0  0
  139.5880   79.7380  223.4310 C   0  0  0  0  0  0  0  0  0  0  0  0
  138.7530   78.6660  223.2200 C   0  0  0  0  0  0  0  0  0  0  0  0
  139.2800   77.5050  222.7010 C   0  0  0  0  0  0  0  0  0  0  0  0
  138.4690   76.4520  222.4900 N   0  0  0  0  0  0  0  0  0  0  0  0
  140.1080   70.3760  225.9730 C   0  0  0  0  0  0  0  0  0  0  0  0
  139.7550   70.0340  227.2610 C   0  0  0  0  0  0  0  0  0  0  0  0
  140.1910   70.7850  228.3460 C   0  0  0  0  0  0  0  0  0  0  0  0
  140.9920   71.8910  228.1570 C   0  0  0  0  0  0  0  0  0  0  0  0
  141.3580   72.2530  226.8760 C   0  0  0  0  0  0  0  0  0  0  0  0
  140.9080   71.4860  225.8210 C   0  0  0  0  0  0  0  0  0  0  0  0
  139.1236   68.1047  226.2831 H   0  0  0  0  0  0  0  0  0  0  0  0
  138.1711   68.0999  224.7601 H   0  0  0  0  0  0  0  0  0  0  0  0
  139.8678   67.5102  224.7601 H   0  0  0  0  0  0  0  0  0  0  0  0
  139.8700   71.0877  223.4592 H   0  0  0  0  0  0  0  0  0  0  0  0
  140.2918   69.4472  222.9037 H   0  0  0  0  0  0  0  0  0  0  0  0
  138.1902   69.0984  222.2178 H   0  0  0  0  0  0  0  0  0  0  0  0
  137.5853   69.5145  223.9004 H   0  0  0  0  0  0  0  0  0  0  0  0
  137.8760   71.4570  221.6160 H   0  0  0  0  0  0  0  0  0  0  0  0
  135.7081   72.7128  221.5670 H   0  0  0  0  0  0  0  0  0  0  0  0
  135.0151   73.2195  223.1405 H   0  0  0  0  0  0  0  0  0  0  0  0
  136.8500   74.6310  223.5400 H   0  0  0  0  0  0  0  0  0  0  0  0
  140.6305   74.2412  221.2620 H   0  0  0  0  0  0  0  0  0  0  0  0
  142.1621   76.1565  221.6365 H   0  0  0  0  0  0  0  0  0  0  0  0
  142.5525   78.4570  222.3730 H   0  0  0  0  0  0  0  0  0  0  0  0
  139.1691   80.6666  223.8461 H   0  0  0  0  0  0  0  0  0  0  0  0
  137.6821   78.7350  223.4618 H   0  0  0  0  0  0  0  0  0  0  0  0
  139.1186   69.1533  227.4325 H   0  0  0  0  0  0  0  0  0  0  0  0
  139.8943   70.4944  229.3646 H   0  0  0  0  0  0  0  0  0  0  0  0
  141.3366   72.4801  229.0197 H   0  0  0  0  0  0  0  0  0  0  0  0
  141.9941   73.1331  226.7004 H   0  0  0  0  0  0  0  0  0  0  0  0
  141.2047   71.7774  224.8027 H   0  0  0  0  0  0  0  0  0  0  0  0
  1  2  1  0
  2  3  1  0
  3  4  1  0
  4  5  1  0
  5  6  1  0
  6  7  2  0
  6  8  1  0
  8  9  1  0
  9 10  1  0
 10 11  2  0
 10 12  1  0
 12 13  2  0
 13 14  1  0
 14 15  2  0
 15 16  1  0
 16 17  2  0
 17 18  1  0
 17 19  1  0
 19 20  2  0
 20 21  1  0
 21 22  2  0
  2 23  1  0
 23 24  2  0
 24 25  1  0
 25 26  2  0
 26 27  1  0
 27 28  2  0
 22 12  1  0
 28 23  1  0
 21 15  1  0
  1 29  1  0
  1 30  1  0
  1 31  1  0
  3 32  1  0
  3 33  1  0
  4 34  1  0
  4 35  1  0
  5 36  1  0
  8 37  1  0
  8 38  1  0
  9 39  1  0
 13 40  1  0
 14 41  1  0
 16 42  1  0
 19 43  1  0
 20 44  1  0
 24 45  1  0
 25 46  1  0
 26 47  1  0
 27 48  1  0
 28 49  1  0
M  END
>  <smiles>  (16) 
CN(CCNC(=O)CNC(=O)c1ccc2cc(Cl)ccc2n1)c1ccccc1

>  <score_type>  (16) 
oracle

>  <origin>  (16) 
autodockgpu

>  <m_score__min__energy>  (16) 
-8.1899999999999995

>  <m_primary>  (16) 
energy

>  <rmsd>  (16) 
8.167860277567131

>  <m_score__min__rmsd>  (16) 
8.167860277567131

>  <meeko>  (16) 
{"free_energy": -7.58, "intermolecular_energy": -9.67, "internal_energy": -2.13, "cluster_size": 15, "cluster_id": 2, "rank_in_cluster": 8}

>  <energy>  (16) 
-7.97

>  <cluster_rmsd>  (16) 
1.88

>  <cluster>  (16) 
1

$$$$

     RDKit          3D

 49 51  0  0  0  0  0  0  0  0999 V2000
  141.6120   79.4810  219.3010 C   0  0  0  0  0  0  0  0  0  0  0  0
  141.3520   78.6450  220.4530 N   0  0  0  0  0  0  0  0  0  0  0  0
  140.7590   77.3450  220.2240 C   0  0  0  0  0  0  0  0  0  0  0  0
  139.3180   77.4180  220.6600 C   0  0  0  0  0  0  0  0  0  0  0  0
  138.6220   76.1630  220.6370 N   0  0  0  0  0  0  0  0  0  0  0  0
  139.0770   75.0230  221.3980 C   0  0  0  0  0  0  0  0  0  0  0  0
  140.1100   75.1030  222.1120 O   0  0  0  0  0  0  0  0  0  0  0  0
  138.2570   73.7940  221.2760 C   0  0  0  0  0  0  0  0  0  0  0  0
  138.6360   72.8710  222.3250 N   0  0  0  0  0  0  0  0  0  0  0  0
  138.2390   71.5130  222.3530 C   0  0  0  0  0  0  0  0  0  0  0  0
  137.5070   71.0190  221.4350 O   0  0  0  0  0  0  0  0  0  0  0  0
  138.7030   70.6830  223.4840 C   0  0  0  0  0  0  0  0  0  0  0  0
  138.4260   69.3330  223.5580 C   0  0  0  0  0  0  0  0  0  0  0  0
  138.8800   68.5720  224.6340 C   0  0  0  0  0  0  0  0  0  0  0  0
  139.6200   69.1490  225.6530 C   0  0  0  0  0  0  0  0  0  0  0  0
  140.0750   68.3920  226.7240 C   0  0  0  0  0  0  0  0  0  0  0  0
  140.8060   69.0340  227.7000 C   0  0  0  0  0  0  0  0  0  0  0  0
  141.4100   68.1160  229.0880 Cl  0  0  0  0  0  0  0  0  0  0  0  0
  141.0610   70.3950  227.5830 C   0  0  0  0  0  0  0  0  0  0  0  0
  140.6040   71.1320  226.5150 C   0  0  0  0  0  0  0  0  0  0  0  0
  139.8720   70.5010  225.5350 C   0  0  0  0  0  0  0  0  0  0  0  0
  139.4230   71.2140  224.4870 N   0  0  0  0  0  0  0  0  0  0  0  0
  141.6950   79.1480  221.7330 C   0  0  0  0  0  0  0  0  0  0  0  0
  142.2870   80.3900  221.8260 C   0  0  0  0  0  0  0  0  0  0  0  0
  142.6430   80.9220  223.0590 C   0  0  0  0  0  0  0  0  0  0  0  0
  142.4080   80.2180  224.2210 C   0  0  0  0  0  0  0  0  0  0  0  0
  141.8160   78.9730  224.1520 C   0  0  0  0  0  0  0  0  0  0  0  0
  141.4760   78.4730  222.9120 C   0  0  0  0  0  0  0  0  0  0  0  0
  141.9231   80.4813  219.6366 H   0  0  0  0  0  0  0  0  0  0  0  0
  142.4129   79.0319  218.6953 H   0  0  0  0  0  0  0  0  0  0  0  0
  140.6977   79.5653  218.6953 H   0  0  0  0  0  0  0  0  0  0  0  0
  140.8151   77.0902  219.1554 H   0  0  0  0  0  0  0  0  0  0  0  0
  141.2955   76.5704  220.7916 H   0  0  0  0  0  0  0  0  0  0  0  0
  139.2901   77.8069  221.6886 H   0  0  0  0  0  0  0  0  0  0  0  0
  138.8066   78.0711  219.9375 H   0  0  0  0  0  0  0  0  0  0  0  0
  137.7440   76.0570  220.0440 H   0  0  0  0  0  0  0  0  0  0  0  0
  137.1918   74.0495  221.3761 H   0  0  0  0  0  0  0  0  0  0  0  0
  138.4251   73.3301  220.2929 H   0  0  0  0  0  0  0  0  0  0  0  0
  139.2440   73.2470  223.1050 H   0  0  0  0  0  0  0  0  0  0  0  0
  137.8410   68.8527  222.7598 H   0  0  0  0  0  0  0  0  0  0  0  0
  138.6473   67.4977  224.6745 H   0  0  0  0  0  0  0  0  0  0  0  0
  139.8592   67.3155  226.7914 H   0  0  0  0  0  0  0  0  0  0  0  0
  141.6455   70.8979  228.3675 H   0  0  0  0  0  0  0  0  0  0  0  0
  140.8202   72.2083  226.4454 H   0  0  0  0  0  0  0  0  0  0  0  0
  142.4802   80.9681  220.9103 H   0  0  0  0  0  0  0  0  0  0  0  0
  143.1165   81.9136  223.1087 H   0  0  0  0  0  0  0  0  0  0  0  0
  142.6899   80.6449  225.1948 H   0  0  0  0  0  0  0  0  0  0  0  0
  141.6197   78.3924  225.0654 H   0  0  0  0  0  0  0  0  0  0  0  0
  141.0041   77.4806  222.8631 H   0  0  0  0  0  0  0  0  0  0  0  0
  1  2  1  0
  2  3  1  0
  3  4  1  0
  4  5  1  0
  5  6  1  0
  6  7  2  0
  6  8  1  0
  8  9  1  0
  9 10  1  0
 10 11  2  0
 10 12  1  0
 12 13  2  0
 13 14  1  0
 14 15  2  0
 15 16  1  0
 16 17  2  0
 17 18  1  0
 17 19  1  0
 19 20  2  0
 20 21  1  0
 21 22  2  0
  2 23  1  0
 23 24  2  0
 24 25  1  0
 25 26  2  0
 26 27  1  0
 27 28  2  0
 22 12  1  0
 28 23  1  0
 21 15  1  0
  1 29  1  0
  1 30  1  0
  1 31  1  0
  3 32  1  0
  3 33  1  0
  4 34  1  0
  4 35  1  0
  5 36  1  0
  8 37  1  0
  8 38  1  0
  9 39  1  0
 13 40  1  0
 14 41  1  0
 16 42  1  0
 19 43  1  0
 20 44  1  0
 24 45  1  0
 25 46  1  0
 26 47  1  0
 27 48  1  0
 28 49  1  0
M  END
>  <smiles>  (17) 
CN(CCNC(=O)CNC(=O)c1ccc2cc(Cl)ccc2n1)c1ccccc1

>  <score_type>  (17) 
oracle

>  <origin>  (17) 
autodockgpu

>  <m_score__min__energy>  (17) 
-8.1899999999999995

>  <m_primary>  (17) 
energy

>  <rmsd>  (17) 
4.979787348027583

>  <m_score__min__rmsd>  (17) 
4.979787348027583

>  <meeko>  (17) 
{"free_energy": -8.04, "intermolecular_energy": -10.13, "internal_energy": -1.86, "cluster_size": 27, "cluster_id": 1, "rank_in_cluster": 7}

>  <energy>  (17) 
-7.95

>  <cluster_rmsd>  (17) 
1.53

>  <cluster>  (17) 
1

$$$$

     RDKit          3D

 49 51  0  0  0  0  0  0  0  0999 V2000
  141.8330   77.2890  220.1420 C   0  0  0  0  0  0  0  0  0  0  0  0
  140.9200   78.2410  220.7370 N   0  0  0  0  0  0  0  0  0  0  0  0
  139.5830   78.3270  220.1910 C   0  0  0  0  0  0  0  0  0  0  0  0
  138.6440   77.6900  221.1840 C   0  0  0  0  0  0  0  0  0  0  0  0
  138.3140   76.3220  220.9010 N   0  0  0  0  0  0  0  0  0  0  0  0
  138.9620   75.2240  221.5770 C   0  0  0  0  0  0  0  0  0  0  0  0
  139.8470   75.4420  222.4440 O   0  0  0  0  0  0  0  0  0  0  0  0
  138.5180   73.8660  221.1810 C   0  0  0  0  0  0  0  0  0  0  0  0
  138.8480   72.9370  222.2410 N   0  0  0  0  0  0  0  0  0  0  0  0
  138.5870   71.5480  222.1730 C   0  0  0  0  0  0  0  0  0  0  0  0
  138.0330   71.0280  221.1510 O   0  0  0  0  0  0  0  0  0  0  0  0
  138.9810   70.7150  223.3290 C   0  0  0  0  0  0  0  0  0  0  0  0
  138.7030   69.3650  223.3800 C   0  0  0  0  0  0  0  0  0  0  0  0
  139.0900   68.6010  224.4810 C   0  0  0  0  0  0  0  0  0  0  0  0
  139.7610   69.1770  225.5470 C   0  0  0  0  0  0  0  0  0  0  0  0
  140.1490   68.4180  226.6440 C   0  0  0  0  0  0  0  0  0  0  0  0
  140.8140   69.0600  227.6660 C   0  0  0  0  0  0  0  0  0  0  0  0
  141.3310   68.1390  229.0870 Cl  0  0  0  0  0  0  0  0  0  0  0  0
  141.0710   70.4220  227.5690 C   0  0  0  0  0  0  0  0  0  0  0  0
  140.6810   71.1610  226.4770 C   0  0  0  0  0  0  0  0  0  0  0  0
  140.0160   70.5300  225.4500 C   0  0  0  0  0  0  0  0  0  0  0  0
  139.6330   71.2460  224.3780 N   0  0  0  0  0  0  0  0  0  0  0  0
  141.3900   79.0290  221.8170 C   0  0  0  0  0  0  0  0  0  0  0  0
  141.7980   80.3230  221.5730 C   0  0  0  0  0  0  0  0  0  0  0  0
  142.2680   81.1310  222.6010 C   0  0  0  0  0  0  0  0  0  0  0  0
  142.3350   80.6550  223.8930 C   0  0  0  0  0  0  0  0  0  0  0  0
  141.9320   79.3620  224.1610 C   0  0  0  0  0  0  0  0  0  0  0  0
  141.4700   78.5860  223.1190 C   0  0  0  0  0  0  0  0  0  0  0  0
  142.3595   76.7400  220.9366 H   0  0  0  0  0  0  0  0  0  0  0  0
  141.2685   76.5800  219.5185 H   0  0  0  0  0  0  0  0  0  0  0  0
  142.5650   77.8233  219.5185 H   0  0  0  0  0  0  0  0  0  0  0  0
  139.3077   79.3808  220.0369 H   0  0  0  0  0  0  0  0  0  0  0  0
  139.5276   77.8115  219.2209 H   0  0  0  0  0  0  0  0  0  0  0  0
  139.1153   77.7310  222.1771 H   0  0  0  0  0  0  0  0  0  0  0  0
  137.7022   78.2557  221.1300 H   0  0  0  0  0  0  0  0  0  0  0  0
  137.5690   76.0980  220.1720 H   0  0  0  0  0  0  0  0  0  0  0  0
  137.4305   73.8666  221.0159 H   0  0  0  0  0  0  0  0  0  0  0  0
  139.0230   73.5652  220.2512 H   0  0  0  0  0  0  0  0  0  0  0  0
  139.3080   73.3340  223.1080 H   0  0  0  0  0  0  0  0  0  0  0  0
  138.1711   68.8863  222.5446 H   0  0  0  0  0  0  0  0  0  0  0  0
  138.8590   67.5258  224.5030 H   0  0  0  0  0  0  0  0  0  0  0  0
  139.9326   67.3407  226.6951 H   0  0  0  0  0  0  0  0  0  0  0  0
  141.6026   70.9243  228.3907 H   0  0  0  0  0  0  0  0  0  0  0  0
  140.8968   72.2384  226.4249 H   0  0  0  0  0  0  0  0  0  0  0  0
  141.7508   80.7219  220.5490 H   0  0  0  0  0  0  0  0  0  0  0  0
  142.5896   82.1599  222.3819 H   0  0  0  0  0  0  0  0  0  0  0  0
  142.7063   81.2997  224.7033 H   0  0  0  0  0  0  0  0  0  0  0  0
  141.9785   78.9595  225.1837 H   0  0  0  0  0  0  0  0  0  0  0  0
  141.1479   77.5576  223.3393 H   0  0  0  0  0  0  0  0  0  0  0  0
  1  2  1  0
  2  3  1  0
  3  4  1  0
  4  5  1  0
  5  6  1  0
  6  7  2  0
  6  8  1  0
  8  9  1  0
  9 10  1  0
 10 11  2  0
 10 12  1  0
 12 13  2  0
 13 14  1  0
 14 15  2  0
 15 16  1  0
 16 17  2  0
 17 18  1  0
 17 19  1  0
 19 20  2  0
 20 21  1  0
 21 22  2  0
  2 23  1  0
 23 24  2  0
 24 25  1  0
 25 26  2  0
 26 27  1  0
 27 28  2  0
 22 12  1  0
 28 23  1  0
 21 15  1  0
  1 29  1  0
  1 30  1  0
  1 31  1  0
  3 32  1  0
  3 33  1  0
  4 34  1  0
  4 35  1  0
  5 36  1  0
  8 37  1  0
  8 38  1  0
  9 39  1  0
 13 40  1  0
 14 41  1  0
 16 42  1  0
 19 43  1  0
 20 44  1  0
 24 45  1  0
 25 46  1  0
 26 47  1  0
 27 48  1  0
 28 49  1  0
M  END
>  <smiles>  (18) 
CN(CCNC(=O)CNC(=O)c1ccc2cc(Cl)ccc2n1)c1ccccc1

>  <score_type>  (18) 
oracle

>  <origin>  (18) 
autodockgpu

>  <m_score__min__energy>  (18) 
-8.1899999999999995

>  <m_primary>  (18) 
energy

>  <rmsd>  (18) 
4.863658582797436

>  <m_score__min__rmsd>  (18) 
4.863658582797436

>  <meeko>  (18) 
{"free_energy": -7.92, "intermolecular_energy": -10.01, "internal_energy": -2.01, "cluster_size": 27, "cluster_id": 1, "rank_in_cluster": 18}

>  <energy>  (18) 
-7.92

>  <cluster_rmsd>  (18) 
1.48

>  <cluster>  (18) 
1

$$$$

     RDKit          3D

 49 51  0  0  0  0  0  0  0  0999 V2000
  140.0430   77.9220  219.8190 C   0  0  0  0  0  0  0  0  0  0  0  0
  141.4080   77.9460  220.2970 N   0  0  0  0  0  0  0  0  0  0  0  0
  142.4010   77.2090  219.5440 C   0  0  0  0  0  0  0  0  0  0  0  0
  142.5240   75.8430  220.1690 C   0  0  0  0  0  0  0  0  0  0  0  0
  141.2940   75.1070  220.2420 N   0  0  0  0  0  0  0  0  0  0  0  0
  141.0010   74.0160  219.3420 C   0  0  0  0  0  0  0  0  0  0  0  0
  141.8300   73.6800  218.4570 O   0  0  0  0  0  0  0  0  0  0  0  0
  139.6920   73.3490  219.5370 C   0  0  0  0  0  0  0  0  0  0  0  0
  139.7810   72.4660  220.6810 N   0  0  0  0  0  0  0  0  0  0  0  0
  139.7260   72.9160  222.0210 C   0  0  0  0  0  0  0  0  0  0  0  0
  139.5940   74.1510  222.3000 O   0  0  0  0  0  0  0  0  0  0  0  0
  139.8270   71.9020  223.0920 C   0  0  0  0  0  0  0  0  0  0  0  0
  139.4220   70.5970  222.8990 C   0  0  0  0  0  0  0  0  0  0  0  0
  139.5320   69.6590  223.9250 C   0  0  0  0  0  0  0  0  0  0  0  0
  140.0490   70.0130  225.1600 C   0  0  0  0  0  0  0  0  0  0  0  0
  140.1620   69.0800  226.1830 C   0  0  0  0  0  0  0  0  0  0  0  0
  140.6880   69.5040  227.3850 C   0  0  0  0  0  0  0  0  0  0  0  0
  140.8520   68.3550  228.7210 Cl  0  0  0  0  0  0  0  0  0  0  0  0
  141.0820   70.8280  227.5320 C   0  0  0  0  0  0  0  0  0  0  0  0
  140.9650   71.7410  226.5100 C   0  0  0  0  0  0  0  0  0  0  0  0
  140.4410   71.3280  225.3060 C   0  0  0  0  0  0  0  0  0  0  0  0
  140.3250   72.2150  224.3010 N   0  0  0  0  0  0  0  0  0  0  0  0
  141.6900   78.6900  221.4700 C   0  0  0  0  0  0  0  0  0  0  0  0
  141.4380   78.1200  222.7000 C   0  0  0  0  0  0  0  0  0  0  0  0
  141.6970   78.8130  223.8760 C   0  0  0  0  0  0  0  0  0  0  0  0
  142.2160   80.0900  223.8380 C   0  0  0  0  0  0  0  0  0  0  0  0
  142.4770   80.6810  222.6180 C   0  0  0  0  0  0  0  0  0  0  0  0
  142.2080   79.9660  221.4690 C   0  0  0  0  0  0  0  0  0  0  0  0
  139.3543   77.9099  220.6767 H   0  0  0  0  0  0  0  0  0  0  0  0
  139.8525   78.8169  219.2084 H   0  0  0  0  0  0  0  0  0  0  0  0
  139.8841   77.0209  219.2084 H   0  0  0  0  0  0  0  0  0  0  0  0
  142.0828   77.1146  218.4953 H   0  0  0  0  0  0  0  0  0  0  0  0
  143.3685   77.7321  219.5642 H   0  0  0  0  0  0  0  0  0  0  0  0
  143.2400   75.2567  219.5744 H   0  0  0  0  0  0  0  0  0  0  0  0
  142.8539   76.0030  221.2061 H   0  0  0  0  0  0  0  0  0  0  0  0
  140.5670   75.3630  220.9780 H   0  0  0  0  0  0  0  0  0  0  0  0
  138.9145   74.1065  219.7149 H   0  0  0  0  0  0  0  0  0  0  0  0
  139.4315   72.7699  218.6388 H   0  0  0  0  0  0  0  0  0  0  0  0
  139.8940   71.4320  220.4870 H   0  0  0  0  0  0  0  0  0  0  0  0
  139.0082   70.2936  221.9260 H   0  0  0  0  0  0  0  0  0  0  0  0
  139.2036   68.6237  223.7510 H   0  0  0  0  0  0  0  0  0  0  0  0
  139.8424   68.0374  226.0389 H   0  0  0  0  0  0  0  0  0  0  0  0
  141.5003   71.1562  228.4950 H   0  0  0  0  0  0  0  0  0  0  0  0
  141.2848   72.7838  226.6524 H   0  0  0  0  0  0  0  0  0  0  0  0
  141.0258   77.1014  222.7509 H   0  0  0  0  0  0  0  0  0  0  0  0
  141.4862   78.3388  224.8459 H   0  0  0  0  0  0  0  0  0  0  0  0
  142.4204   80.6334  224.7723 H   0  0  0  0  0  0  0  0  0  0  0  0
  142.8901   81.6990  222.5631 H   0  0  0  0  0  0  0  0  0  0  0  0
  142.4187   80.4410  220.4995 H   0  0  0  0  0  0  0  0  0  0  0  0
  1  2  1  0
  2  3  1  0
  3  4  1  0
  4  5  1  0
  5  6  1  0
  6  7  2  0
  6  8  1  0
  8  9  1  0
  9 10  1  0
 10 11  2  0
 10 12  1  0
 12 13  2  0
 13 14  1  0
 14 15  2  0
 15 16  1  0
 16 17  2  0
 17 18  1  0
 17 19  1  0
 19 20  2  0
 20 21  1  0
 21 22  2  0
  2 23  1  0
 23 24  2  0
 24 25  1  0
 25 26  2  0
 26 27  1  0
 27 28  2  0
 22 12  1  0
 28 23  1  0
 21 15  1  0
  1 29  1  0
  1 30  1  0
  1 31  1  0
  3 32  1  0
  3 33  1  0
  4 34  1  0
  4 35  1  0
  5 36  1  0
  8 37  1  0
  8 38  1  0
  9 39  1  0
 13 40  1  0
 14 41  1  0
 16 42  1  0
 19 43  1  0
 20 44  1  0
 24 45  1  0
 25 46  1  0
 26 47  1  0
 27 48  1  0
 28 49  1  0
M  END
>  <smiles>  (19) 
CN(CCNC(=O)CNC(=O)c1ccc2cc(Cl)ccc2n1)c1ccccc1

>  <score_type>  (19) 
oracle

>  <origin>  (19) 
autodockgpu

>  <m_score__min__energy>  (19) 
-8.1899999999999995

>  <m_primary>  (19) 
energy

>  <rmsd>  (19) 
4.9258846549339195

>  <m_score__min__rmsd>  (19) 
4.9258846549339195

>  <meeko>  (19) 
{"free_energy": -7.64, "intermolecular_energy": -9.73, "internal_energy": -1.92, "cluster_size": 1, "cluster_id": 4, "rank_in_cluster": 1}

>  <energy>  (19) 
-7.9

>  <cluster_rmsd>  (19) 
1.64

>  <cluster>  (19) 
1

$$$$

     RDKit          3D

 49 51  0  0  0  0  0  0  0  0999 V2000
  141.7390   78.3000  219.8820 C   0  0  0  0  0  0  0  0  0  0  0  0
  141.4930   78.1500  221.3000 N   0  0  0  0  0  0  0  0  0  0  0  0
  141.0400   76.8600  221.7750 C   0  0  0  0  0  0  0  0  0  0  0  0
  140.9110   75.9540  220.5770 C   0  0  0  0  0  0  0  0  0  0  0  0
  139.8350   75.0080  220.6570 N   0  0  0  0  0  0  0  0  0  0  0  0
  138.5870   75.3230  221.3120 C   0  0  0  0  0  0  0  0  0  0  0  0
  138.4100   76.4520  221.8370 O   0  0  0  0  0  0  0  0  0  0  0  0
  137.5680   74.2470  221.3160 C   0  0  0  0  0  0  0  0  0  0  0  0
  137.9400   73.2520  222.3010 N   0  0  0  0  0  0  0  0  0  0  0  0
  138.9860   72.3190  222.1120 C   0  0  0  0  0  0  0  0  0  0  0  0
  139.6730   72.3020  221.0400 O   0  0  0  0  0  0  0  0  0  0  0  0
  139.2590   71.3610  223.2040 C   0  0  0  0  0  0  0  0  0  0  0  0
  138.9220   70.0270  223.1030 C   0  0  0  0  0  0  0  0  0  0  0  0
  139.1960   69.1440  224.1470 C   0  0  0  0  0  0  0  0  0  0  0  0
  139.8120   69.5810  225.3070 C   0  0  0  0  0  0  0  0  0  0  0  0
  140.0880   68.7030  226.3470 C   0  0  0  0  0  0  0  0  0  0  0  0
  140.7050   69.2100  227.4710 C   0  0  0  0  0  0  0  0  0  0  0  0
  141.0780   68.1330  228.8240 Cl  0  0  0  0  0  0  0  0  0  0  0  0
  141.0260   70.5600  227.5260 C   0  0  0  0  0  0  0  0  0  0  0  0
  140.7470   71.4190  226.4890 C   0  0  0  0  0  0  0  0  0  0  0  0
  140.1310   70.9230  225.3620 C   0  0  0  0  0  0  0  0  0  0  0  0
  139.8570   71.7560  224.3420 N   0  0  0  0  0  0  0  0  0  0  0  0
  141.7130   79.2720  222.1370 C   0  0  0  0  0  0  0  0  0  0  0  0
  142.3160   79.0840  223.3630 C   0  0  0  0  0  0  0  0  0  0  0  0
  142.5490   80.1550  224.2170 C   0  0  0  0  0  0  0  0  0  0  0  0
  142.1820   81.4340  223.8560 C   0  0  0  0  0  0  0  0  0  0  0  0
  141.5760   81.6460  222.6330 C   0  0  0  0  0  0  0  0  0  0  0  0
  141.3590   80.5620  221.8080 C   0  0  0  0  0  0  0  0  0  0  0  0
  142.6691   78.8671  219.7292 H   0  0  0  0  0  0  0  0  0  0  0  0
  141.8351   77.3066  219.4194 H   0  0  0  0  0  0  0  0  0  0  0  0
  140.8999   78.8403  219.4194 H   0  0  0  0  0  0  0  0  0  0  0  0
  141.7708   76.4433  222.4837 H   0  0  0  0  0  0  0  0  0  0  0  0
  140.0744   76.9559  222.2931 H   0  0  0  0  0  0  0  0  0  0  0  0
  140.7508   76.5815  219.6878 H   0  0  0  0  0  0  0  0  0  0  0  0
  141.8398   75.3666  220.5287 H   0  0  0  0  0  0  0  0  0  0  0  0
  139.9480   74.0410  220.2240 H   0  0  0  0  0  0  0  0  0  0  0  0
  136.5853   74.6701  221.5715 H   0  0  0  0  0  0  0  0  0  0  0  0
  137.5121   73.7829  220.3202 H   0  0  0  0  0  0  0  0  0  0  0  0
  137.3890   73.2360  223.2050 H   0  0  0  0  0  0  0  0  0  0  0  0
  138.4325   69.6564  222.1903 H   0  0  0  0  0  0  0  0  0  0  0  0
  138.9184   68.0843  224.0472 H   0  0  0  0  0  0  0  0  0  0  0  0
  139.8230   67.6377  226.2763 H   0  0  0  0  0  0  0  0  0  0  0  0
  141.5187   70.9544  228.4269 H   0  0  0  0  0  0  0  0  0  0  0  0
  141.0115   72.4844  226.5587 H   0  0  0  0  0  0  0  0  0  0  0  0
  142.6169   78.0713  223.6693 H   0  0  0  0  0  0  0  0  0  0  0  0
  143.0309   79.9808  225.1904 H   0  0  0  0  0  0  0  0  0  0  0  0
  142.3701   82.2780  224.5359 H   0  0  0  0  0  0  0  0  0  0  0  0
  141.2731   82.6572  222.3237 H   0  0  0  0  0  0  0  0  0  0  0  0
  140.8772   80.7371  220.8348 H   0  0  0  0  0  0  0  0  0  0  0  0
  1  2  1  0
  2  3  1  0
  3  4  1  0
  4  5  1  0
  5  6  1  0
  6  7  2  0
  6  8  1  0
  8  9  1  0
  9 10  1  0
 10 11  2  0
 10 12  1  0
 12 13  2  0
 13 14  1  0
 14 15  2  0
 15 16  1  0
 16 17  2  0
 17 18  1  0
 17 19  1  0
 19 20  2  0
 20 21  1  0
 21 22  2  0
  2 23  1  0
 23 24  2  0
 24 25  1  0
 25 26  2  0
 26 27  1  0
 27 28  2  0
 22 12  1  0
 28 23  1  0
 21 15  1  0
  1 29  1  0
  1 30  1  0
  1 31  1  0
  3 32  1  0
  3 33  1  0
  4 34  1  0
  4 35  1  0
  5 36  1  0
  8 37  1  0
  8 38  1  0
  9 39  1  0
 13 40  1  0
 14 41  1  0
 16 42  1  0
 19 43  1  0
 20 44  1  0
 24 45  1  0
 25 46  1  0
 26 47  1  0
 27 48  1  0
 28 49  1  0
M  END
>  <smiles>  (20) 
CN(CCNC(=O)CNC(=O)c1ccc2cc(Cl)ccc2n1)c1ccccc1

>  <score_type>  (20) 
oracle

>  <origin>  (20) 
autodockgpu

>  <m_score__min__energy>  (20) 
-8.1899999999999995

>  <m_primary>  (20) 
energy

>  <rmsd>  (20) 
4.934992724378248

>  <m_score__min__rmsd>  (20) 
4.934992724378248

>  <meeko>  (20) 
{"free_energy": -7.85, "intermolecular_energy": -9.94, "internal_energy": -1.63, "cluster_size": 27, "cluster_id": 1, "rank_in_cluster": 21}

>  <energy>  (20) 
-7.88

>  <cluster_rmsd>  (20) 
1.52

>  <cluster>  (20) 
1

$$$$

     RDKit          3D

 49 51  0  0  0  0  0  0  0  0999 V2000
  137.6980   80.2040  223.8840 C   0  0  0  0  0  0  0  0  0  0  0  0
  138.7050   79.6770  222.9880 N   0  0  0  0  0  0  0  0  0  0  0  0
  138.2660   78.8320  221.8990 C   0  0  0  0  0  0  0  0  0  0  0  0
  139.4960   78.2730  221.2310 C   0  0  0  0  0  0  0  0  0  0  0  0
  139.3640   76.9200  220.7710 N   0  0  0  0  0  0  0  0  0  0  0  0
  138.8890   75.8630  221.6330 C   0  0  0  0  0  0  0  0  0  0  0  0
  138.5740   76.1060  222.8270 O   0  0  0  0  0  0  0  0  0  0  0  0
  138.8040   74.5160  221.0190 C   0  0  0  0  0  0  0  0  0  0  0  0
  139.0390   73.5190  222.0430 N   0  0  0  0  0  0  0  0  0  0  0  0
  139.0900   72.1300  221.7830 C   0  0  0  0  0  0  0  0  0  0  0  0
  138.9270   71.6690  220.6070 O   0  0  0  0  0  0  0  0  0  0  0  0
  139.3420   71.2250  222.9240 C   0  0  0  0  0  0  0  0  0  0  0  0
  138.9930   69.8900  222.8850 C   0  0  0  0  0  0  0  0  0  0  0  0
  139.2470   69.0570  223.9740 C   0  0  0  0  0  0  0  0  0  0  0  0
  139.8540   69.5460  225.1190 C   0  0  0  0  0  0  0  0  0  0  0  0
  140.1090   68.7170  226.2040 C   0  0  0  0  0  0  0  0  0  0  0  0
  140.7170   69.2740  227.3090 C   0  0  0  0  0  0  0  0  0  0  0  0
  141.0650   68.2620  228.7190 Cl  0  0  0  0  0  0  0  0  0  0  0  0
  141.0500   70.6230  227.3020 C   0  0  0  0  0  0  0  0  0  0  0  0
  140.7920   71.4320  226.2200 C   0  0  0  0  0  0  0  0  0  0  0  0
  140.1850   70.8860  225.1110 C   0  0  0  0  0  0  0  0  0  0  0  0
  139.9300   71.6700  224.0480 N   0  0  0  0  0  0  0  0  0  0  0  0
  140.0580   80.0230  223.2300 C   0  0  0  0  0  0  0  0  0  0  0  0
  140.8840   79.1040  223.8430 C   0  0  0  0  0  0  0  0  0  0  0  0
  142.2160   79.4010  224.1020 C   0  0  0  0  0  0  0  0  0  0  0  0
  142.7440   80.6250  223.7490 C   0  0  0  0  0  0  0  0  0  0  0  0
  141.9360   81.5610  223.1340 C   0  0  0  0  0  0  0  0  0  0  0  0
  140.6180   81.2350  222.8910 C   0  0  0  0  0  0  0  0  0  0  0  0
  138.0117   80.0398  224.9254 H   0  0  0  0  0  0  0  0  0  0  0  0
  137.5749   81.2821  223.7038 H   0  0  0  0  0  0  0  0  0  0  0  0
  136.7420   79.6906  223.7038 H   0  0  0  0  0  0  0  0  0  0  0  0
  137.6448   78.0117  222.2878 H   0  0  0  0  0  0  0  0  0  0  0  0
  137.6649   79.4089  221.1807 H   0  0  0  0  0  0  0  0  0  0  0  0
  139.7346   78.9080  220.3650 H   0  0  0  0  0  0  0  0  0  0  0  0
  140.2889   78.2668  221.9934 H   0  0  0  0  0  0  0  0  0  0  0  0
  139.6210   76.6760  219.7670 H   0  0  0  0  0  0  0  0  0  0  0  0
  137.8040   74.3706  220.5844 H   0  0  0  0  0  0  0  0  0  0  0  0
  139.5586   74.4198  220.2245 H   0  0  0  0  0  0  0  0  0  0  0  0
  139.1780   73.8650  223.0340 H   0  0  0  0  0  0  0  0  0  0  0  0
  138.5098   69.4794  221.9861 H   0  0  0  0  0  0  0  0  0  0  0  0
  138.9611   67.9960  223.9230 H   0  0  0  0  0  0  0  0  0  0  0  0
  139.8350   67.6519  226.1823 H   0  0  0  0  0  0  0  0  0  0  0  0
  141.5348   71.0572  228.1889 H   0  0  0  0  0  0  0  0  0  0  0  0
  141.0659   72.4972  226.2402 H   0  0  0  0  0  0  0  0  0  0  0  0
  140.4820   78.1214  224.1310 H   0  0  0  0  0  0  0  0  0  0  0  0
  142.8555   78.6529  224.5933 H   0  0  0  0  0  0  0  0  0  0  0  0
  143.7999   80.8539  223.9555 H   0  0  0  0  0  0  0  0  0  0  0  0
  142.3346   82.5445  222.8444 H   0  0  0  0  0  0  0  0  0  0  0  0
  139.9792   81.9837  222.3997 H   0  0  0  0  0  0  0  0  0  0  0  0
  1  2  1  0
  2  3  1  0
  3  4  1  0
  4  5  1  0
  5  6  1  0
  6  7  2  0
  6  8  1  0
  8  9  1  0
  9 10  1  0
 10 11  2  0
 10 12  1  0
 12 13  2  0
 13 14  1  0
 14 15  2  0
 15 16  1  0
 16 17  2  0
 17 18  1  0
 17 19  1  0
 19 20  2  0
 20 21  1  0
 21 22  2  0
  2 23  1  0
 23 24  2  0
 24 25  1  0
 25 26  2  0
 26 27  1  0
 27 28  2  0
 22 12  1  0
 28 23  1  0
 21 15  1  0
  1 29  1  0
  1 30  1  0
  1 31  1  0
  3 32  1  0
  3 33  1  0
  4 34  1  0
  4 35  1  0
  5 36  1  0
  8 37  1  0
  8 38  1  0
  9 39  1  0
 13 40  1  0
 14 41  1  0
 16 42  1  0
 19 43  1  0
 20 44  1  0
 24 45  1  0
 25 46  1  0
 26 47  1  0
 27 48  1  0
 28 49  1  0
M  END
>  <smiles>  (21) 
CN(CCNC(=O)CNC(=O)c1ccc2cc(Cl)ccc2n1)c1ccccc1

>  <score_type>  (21) 
oracle

>  <origin>  (21) 
autodockgpu

>  <m_score__min__energy>  (21) 
-8.1899999999999995

>  <m_primary>  (21) 
energy

>  <rmsd>  (21) 
5.745385356225041

>  <m_score__min__rmsd>  (21) 
5.745385356225041

>  <meeko>  (21) 
{"free_energy": -7.83, "intermolecular_energy": -9.92, "internal_energy": -1.71, "cluster_size": 27, "cluster_id": 1, "rank_in_cluster": 22}

>  <energy>  (21) 
-7.85

>  <cluster_rmsd>  (21) 
1.48

>  <cluster>  (21) 
1

$$$$

     RDKit          3D

 49 51  0  0  0  0  0  0  0  0999 V2000
  140.3490   71.7360  223.3990 C   0  0  0  0  0  0  0  0  0  0  0  0
  139.7740   70.7740  224.3140 N   0  0  0  0  0  0  0  0  0  0  0  0
  138.8210   69.8220  223.7830 C   0  0  0  0  0  0  0  0  0  0  0  0
  137.4400   70.3390  224.0940 C   0  0  0  0  0  0  0  0  0  0  0  0
  137.0170   71.4410  223.2780 N   0  0  0  0  0  0  0  0  0  0  0  0
  135.8440   72.2210  223.5960 C   0  0  0  0  0  0  0  0  0  0  0  0
  135.1530   71.9490  224.6110 O   0  0  0  0  0  0  0  0  0  0  0  0
  135.5300   73.3280  222.6620 C   0  0  0  0  0  0  0  0  0  0  0  0
  136.5960   74.3070  222.7190 N   0  0  0  0  0  0  0  0  0  0  0  0
  137.7600   74.2410  221.9190 C   0  0  0  0  0  0  0  0  0  0  0  0
  137.9390   73.2950  221.0860 O   0  0  0  0  0  0  0  0  0  0  0  0
  138.7670   75.3110  222.0790 C   0  0  0  0  0  0  0  0  0  0  0  0
  140.0900   75.1240  221.7320 C   0  0  0  0  0  0  0  0  0  0  0  0
  141.0180   76.1520  221.8890 C   0  0  0  0  0  0  0  0  0  0  0  0
  140.6380   77.3840  222.3950 C   0  0  0  0  0  0  0  0  0  0  0  0
  141.5610   78.4100  222.5500 C   0  0  0  0  0  0  0  0  0  0  0  0
  141.1100   79.6090  223.0590 C   0  0  0  0  0  0  0  0  0  0  0  0
  142.2450   80.9490  223.2770 Cl  0  0  0  0  0  0  0  0  0  0  0  0
  139.7690   79.7510  223.3940 C   0  0  0  0  0  0  0  0  0  0  0  0
  138.8660   78.7260  223.2350 C   0  0  0  0  0  0  0  0  0  0  0  0
  139.3060   77.5240  222.7280 C   0  0  0  0  0  0  0  0  0  0  0  0
  138.4290   76.5170  222.5670 N   0  0  0  0  0  0  0  0  0  0  0  0
  140.1800   70.8190  225.6710 C   0  0  0  0  0  0  0  0  0  0  0  0
  140.9580   71.8730  226.1000 C   0  0  0  0  0  0  0  0  0  0  0  0
  141.3810   71.9580  227.4210 C   0  0  0  0  0  0  0  0  0  0  0  0
  141.0290   70.9870  228.3350 C   0  0  0  0  0  0  0  0  0  0  0  0
  140.2510   69.9220  227.9270 C   0  0  0  0  0  0  0  0  0  0  0  0
  139.8470   69.8680  226.6090 C   0  0  0  0  0  0  0  0  0  0  0  0
  140.8312   72.5428  223.9705 H   0  0  0  0  0  0  0  0  0  0  0  0
  141.0974   71.2375  222.7654 H   0  0  0  0  0  0  0  0  0  0  0  0
  139.5555   72.1591  222.7654 H   0  0  0  0  0  0  0  0  0  0  0  0
  138.9505   69.7288  222.6946 H   0  0  0  0  0  0  0  0  0  0  0  0
  138.9731   68.8302  224.2339 H   0  0  0  0  0  0  0  0  0  0  0  0
  136.7254   69.5145  223.9543 H   0  0  0  0  0  0  0  0  0  0  0  0
  137.4721   70.7114  225.1285 H   0  0  0  0  0  0  0  0  0  0  0  0
  137.5760   71.7010  222.4100 H   0  0  0  0  0  0  0  0  0  0  0  0
  135.4446   72.9344  221.6384 H   0  0  0  0  0  0  0  0  0  0  0  0
  134.5772   73.7976  222.9478 H   0  0  0  0  0  0  0  0  0  0  0  0
  136.4820   75.1080  223.4020 H   0  0  0  0  0  0  0  0  0  0  0  0
  140.4150   74.1541  221.3276 H   0  0  0  0  0  0  0  0  0  0  0  0
  142.0676   75.9824  221.6069 H   0  0  0  0  0  0  0  0  0  0  0  0
  142.6171   78.2705  222.2757 H   0  0  0  0  0  0  0  0  0  0  0  0
  139.4191   80.7122  223.7986 H   0  0  0  0  0  0  0  0  0  0  0  0
  137.8095   78.8642  223.5084 H   0  0  0  0  0  0  0  0  0  0  0  0
  141.2482   72.6582  225.3864 H   0  0  0  0  0  0  0  0  0  0  0  0
  142.0023   72.8076  227.7406 H   0  0  0  0  0  0  0  0  0  0  0  0
  141.3652   71.0605  229.3798 H   0  0  0  0  0  0  0  0  0  0  0  0
  139.9597   69.1340  228.6371 H   0  0  0  0  0  0  0  0  0  0  0  0
  139.2248   69.0187  226.2902 H   0  0  0  0  0  0  0  0  0  0  0  0
  1  2  1  0
  2  3  1  0
  3  4  1  0
  4  5  1  0
  5  6  1  0
  6  7  2  0
  6  8  1  0
  8  9  1  0
  9 10  1  0
 10 11  2  0
 10 12  1  0
 12 13  2  0
 13 14  1  0
 14 15  2  0
 15 16  1  0
 16 17  2  0
 17 18  1  0
 17 19  1  0
 19 20  2  0
 20 21  1  0
 21 22  2  0
  2 23  1  0
 23 24  2  0
 24 25  1  0
 25 26  2  0
 26 27  1  0
 27 28  2  0
 22 12  1  0
 28 23  1  0
 21 15  1  0
  1 29  1  0
  1 30  1  0
  1 31  1  0
  3 32  1  0
  3 33  1  0
  4 34  1  0
  4 35  1  0
  5 36  1  0
  8 37  1  0
  8 38  1  0
  9 39  1  0
 13 40  1  0
 14 41  1  0
 16 42  1  0
 19 43  1  0
 20 44  1  0
 24 45  1  0
 25 46  1  0
 26 47  1  0
 27 48  1  0
 28 49  1  0
M  END
>  <smiles>  (22) 
CN(CCNC(=O)CNC(=O)c1ccc2cc(Cl)ccc2n1)c1ccccc1

>  <score_type>  (22) 
oracle

>  <origin>  (22) 
autodockgpu

>  <m_score__min__energy>  (22) 
-8.1899999999999995

>  <m_primary>  (22) 
energy

>  <rmsd>  (22) 
8.232050774525195

>  <m_score__min__rmsd>  (22) 
8.232050774525195

>  <meeko>  (22) 
{"free_energy": -7.37, "intermolecular_energy": -9.46, "internal_energy": -2.37, "cluster_size": 15, "cluster_id": 2, "rank_in_cluster": 11}

>  <energy>  (22) 
-7.83

>  <cluster_rmsd>  (22) 
0.8

>  <cluster>  (22) 
1

$$$$

     RDKit          3D

 49 51  0  0  0  0  0  0  0  0999 V2000
  139.5940   70.5580  223.6020 C   0  0  0  0  0  0  0  0  0  0  0  0
  139.2350   70.0780  224.9190 N   0  0  0  0  0  0  0  0  0  0  0  0
  138.1620   69.1110  225.0170 C   0  0  0  0  0  0  0  0  0  0  0  0
  137.8110   68.6780  223.6170 C   0  0  0  0  0  0  0  0  0  0  0  0
  136.7440   69.4230  223.0110 N   0  0  0  0  0  0  0  0  0  0  0  0
  135.3570   69.1550  223.3130 C   0  0  0  0  0  0  0  0  0  0  0  0
  135.0460   68.2470  224.1260 O   0  0  0  0  0  0  0  0  0  0  0  0
  134.3660   70.0050  222.6110 C   0  0  0  0  0  0  0  0  0  0  0  0
  134.1270   71.1950  223.4000 N   0  0  0  0  0  0  0  0  0  0  0  0
  135.1130   72.1780  223.6500 C   0  0  0  0  0  0  0  0  0  0  0  0
  136.2940   72.0650  223.1850 O   0  0  0  0  0  0  0  0  0  0  0  0
  134.7290   73.3460  224.4710 C   0  0  0  0  0  0  0  0  0  0  0  0
  135.4770   74.5060  224.4800 C   0  0  0  0  0  0  0  0  0  0  0  0
  135.0890   75.5950  225.2590 C   0  0  0  0  0  0  0  0  0  0  0  0
  133.9480   75.5410  226.0420 C   0  0  0  0  0  0  0  0  0  0  0  0
  133.5590   76.6250  226.8170 C   0  0  0  0  0  0  0  0  0  0  0  0
  132.4100   76.4990  227.5690 C   0  0  0  0  0  0  0  0  0  0  0  0
  131.8710   77.8510  228.5750 Cl  0  0  0  0  0  0  0  0  0  0  0  0
  131.6910   75.3110  227.5270 C   0  0  0  0  0  0  0  0  0  0  0  0
  132.0880   74.2450  226.7540 C   0  0  0  0  0  0  0  0  0  0  0  0
  133.2330   74.3610  226.0000 C   0  0  0  0  0  0  0  0  0  0  0  0
  133.6270   73.3230  225.2390 N   0  0  0  0  0  0  0  0  0  0  0  0
  139.9560   70.5800  226.0310 C   0  0  0  0  0  0  0  0  0  0  0  0
  140.6950   71.7340  225.8820 C   0  0  0  0  0  0  0  0  0  0  0  0
  141.4190   72.2620  226.9440 C   0  0  0  0  0  0  0  0  0  0  0  0
  141.4130   71.6420  228.1750 C   0  0  0  0  0  0  0  0  0  0  0  0
  140.6800   70.4840  228.3480 C   0  0  0  0  0  0  0  0  0  0  0  0
  139.9720   69.9870  227.2730 C   0  0  0  0  0  0  0  0  0  0  0  0
  140.2503   71.4355  223.6979 H   0  0  0  0  0  0  0  0  0  0  0  0
  140.1215   69.7638  223.0535 H   0  0  0  0  0  0  0  0  0  0  0  0
  138.6831   70.8396  223.0535 H   0  0  0  0  0  0  0  0  0  0  0  0
  138.4918   68.2430  225.6067 H   0  0  0  0  0  0  0  0  0  0  0  0
  137.2871   69.5534  225.5158 H   0  0  0  0  0  0  0  0  0  0  0  0
  138.7070   68.7891  222.9887 H   0  0  0  0  0  0  0  0  0  0  0  0
  137.4621   67.6374  223.6907 H   0  0  0  0  0  0  0  0  0  0  0  0
  136.9690   70.1990  222.3170 H   0  0  0  0  0  0  0  0  0  0  0  0
  134.7573   70.2893  221.6230 H   0  0  0  0  0  0  0  0  0  0  0  0
  133.4255   69.4499  222.4791 H   0  0  0  0  0  0  0  0  0  0  0  0
  133.1570   71.3220  223.8050 H   0  0  0  0  0  0  0  0  0  0  0  0
  136.3878   74.5717  223.8667 H   0  0  0  0  0  0  0  0  0  0  0  0
  135.6982   76.5109  225.2517 H   0  0  0  0  0  0  0  0  0  0  0  0
  134.1480   77.5540  226.8308 H   0  0  0  0  0  0  0  0  0  0  0  0
  130.7759   75.2202  228.1306 H   0  0  0  0  0  0  0  0  0  0  0  0
  131.5001   73.3154  226.7388 H   0  0  0  0  0  0  0  0  0  0  0  0
  140.7119   72.2446  224.9078 H   0  0  0  0  0  0  0  0  0  0  0  0
  142.0025   73.1835  226.8009 H   0  0  0  0  0  0  0  0  0  0  0  0
  141.9869   72.0656  229.0124 H   0  0  0  0  0  0  0  0  0  0  0  0
  140.6611   69.9700  229.3203 H   0  0  0  0  0  0  0  0  0  0  0  0
  139.3881   69.0659  227.4165 H   0  0  0  0  0  0  0  0  0  0  0  0
  1  2  1  0
  2  3  1  0
  3  4  1  0
  4  5  1  0
  5  6  1  0
  6  7  2  0
  6  8  1  0
  8  9  1  0
  9 10  1  0
 10 11  2  0
 10 12  1  0
 12 13  2  0
 13 14  1  0
 14 15  2  0
 15 16  1  0
 16 17  2  0
 17 18  1  0
 17 19  1  0
 19 20  2  0
 20 21  1  0
 21 22  2  0
  2 23  1  0
 23 24  2  0
 24 25  1  0
 25 26  2  0
 26 27  1  0
 27 28  2  0
 22 12  1  0
 28 23  1  0
 21 15  1  0
  1 29  1  0
  1 30  1  0
  1 31  1  0
  3 32  1  0
  3 33  1  0
  4 34  1  0
  4 35  1  0
  5 36  1  0
  8 37  1  0
  8 38  1  0
  9 39  1  0
 13 40  1  0
 14 41  1  0
 16 42  1  0
 19 43  1  0
 20 44  1  0
 24 45  1  0
 25 46  1  0
 26 47  1  0
 27 48  1  0
 28 49  1  0
M  END
>  <smiles>  (23) 
CN(CCNC(=O)CNC(=O)c1ccc2cc(Cl)ccc2n1)c1ccccc1

>  <score_type>  (23) 
oracle

>  <origin>  (23) 
autodockgpu

>  <m_score__min__energy>  (23) 
-8.1899999999999995

>  <m_primary>  (23) 
energy

>  <rmsd>  (23) 
8.336627435699178

>  <m_score__min__rmsd>  (23) 
8.336627435699178

>  <meeko>  (23) 
{"free_energy": -6.79, "intermolecular_energy": -8.87, "internal_energy": -2.18, "cluster_size": 4, "cluster_id": 3, "rank_in_cluster": 4}

>  <energy>  (23) 
-7.77

>  <cluster_rmsd>  (23) 
0.74

>  <cluster>  (23) 
1

$$$$

     RDKit          3D

 49 51  0  0  0  0  0  0  0  0999 V2000
  139.5050   67.8310  225.0680 C   0  0  0  0  0  0  0  0  0  0  0  0
  139.3450   69.2660  224.9810 N   0  0  0  0  0  0  0  0  0  0  0  0
  138.6050   69.7960  223.8560 C   0  0  0  0  0  0  0  0  0  0  0  0
  137.7160   70.8980  224.3750 C   0  0  0  0  0  0  0  0  0  0  0  0
  137.3620   71.8890  223.3990 N   0  0  0  0  0  0  0  0  0  0  0  0
  136.0210   72.0020  222.8750 C   0  0  0  0  0  0  0  0  0  0  0  0
  135.1160   71.2220  223.2670 O   0  0  0  0  0  0  0  0  0  0  0  0
  135.8050   73.0730  221.8740 C   0  0  0  0  0  0  0  0  0  0  0  0
  136.7840   74.1190  222.0870 N   0  0  0  0  0  0  0  0  0  0  0  0
  138.1140   74.0540  221.6090 C   0  0  0  0  0  0  0  0  0  0  0  0
  138.5330   73.0460  220.9530 O   0  0  0  0  0  0  0  0  0  0  0  0
  139.0060   75.1970  221.8970 C   0  0  0  0  0  0  0  0  0  0  0  0
  140.3650   75.1350  221.6660 C   0  0  0  0  0  0  0  0  0  0  0  0
  141.1830   76.2300  221.9420 C   0  0  0  0  0  0  0  0  0  0  0  0
  140.6540   77.4030  222.4530 C   0  0  0  0  0  0  0  0  0  0  0  0
  141.4670   78.4960  222.7260 C   0  0  0  0  0  0  0  0  0  0  0  0
  140.8700   79.6310  223.2320 C   0  0  0  0  0  0  0  0  0  0  0  0
  141.8610   81.0510  223.5980 Cl  0  0  0  0  0  0  0  0  0  0  0  0
  139.4980   79.6460  223.4480 C   0  0  0  0  0  0  0  0  0  0  0  0
  138.7050   78.5560  223.1720 C   0  0  0  0  0  0  0  0  0  0  0  0
  139.2910   77.4180  222.6670 C   0  0  0  0  0  0  0  0  0  0  0  0
  138.5220   76.3490  222.3930 N   0  0  0  0  0  0  0  0  0  0  0  0
  139.9200   70.0640  226.0010 C   0  0  0  0  0  0  0  0  0  0  0  0
  140.7700   71.0900  225.6480 C   0  0  0  0  0  0  0  0  0  0  0  0
  141.3580   71.8960  226.6150 C   0  0  0  0  0  0  0  0  0  0  0  0
  141.1020   71.6870  227.9540 C   0  0  0  0  0  0  0  0  0  0  0  0
  140.2540   70.6650  228.3310 C   0  0  0  0  0  0  0  0  0  0  0  0
  139.6860   69.8830  227.3460 C   0  0  0  0  0  0  0  0  0  0  0  0
  139.5387   67.5292  226.1253 H   0  0  0  0  0  0  0  0  0  0  0  0
  138.6564   67.3367  224.5724 H   0  0  0  0  0  0  0  0  0  0  0  0
  140.4416   67.5358  224.5724 H   0  0  0  0  0  0  0  0  0  0  0  0
  139.3009   70.1976  223.1047 H   0  0  0  0  0  0  0  0  0  0  0  0
  138.0047   69.0060  223.3811 H   0  0  0  0  0  0  0  0  0  0  0  0
  136.7890   70.4419  224.7528 H   0  0  0  0  0  0  0  0  0  0  0  0
  138.2892   71.4197  225.1556 H   0  0  0  0  0  0  0  0  0  0  0  0
  138.1020   72.5680  223.0420 H   0  0  0  0  0  0  0  0  0  0  0  0
  135.9202   72.6602  220.8609 H   0  0  0  0  0  0  0  0  0  0  0  0
  134.7906   73.4846  221.9817 H   0  0  0  0  0  0  0  0  0  0  0  0
  136.4710   74.9720  222.6310 H   0  0  0  0  0  0  0  0  0  0  0  0
  140.8072   74.2131  221.2603 H   0  0  0  0  0  0  0  0  0  0  0  0
  142.2641   76.1609  221.7510 H   0  0  0  0  0  0  0  0  0  0  0  0
  142.5512   78.4571  222.5444 H   0  0  0  0  0  0  0  0  0  0  0  0
  139.0314   80.5566  223.8518 H   0  0  0  0  0  0  0  0  0  0  0  0
  137.6205   78.5937  223.3521 H   0  0  0  0  0  0  0  0  0  0  0  0
  140.9860   71.2734  224.5851 H   0  0  0  0  0  0  0  0  0  0  0  0
  142.0340   72.7084  226.3098 H   0  0  0  0  0  0  0  0  0  0  0  0
  141.5695   72.3291  228.7150 H   0  0  0  0  0  0  0  0  0  0  0  0
  140.0359   70.4782  229.3928 H   0  0  0  0  0  0  0  0  0  0  0  0
  139.0097   69.0711  227.6517 H   0  0  0  0  0  0  0  0  0  0  0  0
  1  2  1  0
  2  3  1  0
  3  4  1  0
  4  5  1  0
  5  6  1  0
  6  7  2  0
  6  8  1  0
  8  9  1  0
  9 10  1  0
 10 11  2  0
 10 12  1  0
 12 13  2  0
 13 14  1  0
 14 15  2  0
 15 16  1  0
 16 17  2  0
 17 18  1  0
 17 19  1  0
 19 20  2  0
 20 21  1  0
 21 22  2  0
  2 23  1  0
 23 24  2  0
 24 25  1  0
 25 26  2  0
 26 27  1  0
 27 28  2  0
 22 12  1  0
 28 23  1  0
 21 15  1  0
  1 29  1  0
  1 30  1  0
  1 31  1  0
  3 32  1  0
  3 33  1  0
  4 34  1  0
  4 35  1  0
  5 36  1  0
  8 37  1  0
  8 38  1  0
  9 39  1  0
 13 40  1  0
 14 41  1  0
 16 42  1  0
 19 43  1  0
 20 44  1  0
 24 45  1  0
 25 46  1  0
 26 47  1  0
 27 48  1  0
 28 49  1  0
M  END
>  <smiles>  (24) 
CN(CCNC(=O)CNC(=O)c1ccc2cc(Cl)ccc2n1)c1ccccc1

>  <score_type>  (24) 
oracle

>  <origin>  (24) 
autodockgpu

>  <m_score__min__energy>  (24) 
-8.1899999999999995

>  <m_primary>  (24) 
energy

>  <rmsd>  (24) 
8.620513712864977

>  <m_score__min__rmsd>  (24) 
8.620513712864977

>  <meeko>  (24) 
{"free_energy": -7.26, "intermolecular_energy": -9.34, "internal_energy": -1.97, "cluster_size": 15, "cluster_id": 2, "rank_in_cluster": 14}

>  <energy>  (24) 
-7.71

>  <cluster_rmsd>  (24) 
1.09

>  <cluster>  (24) 
1

$$$$

     RDKit          3D

 49 51  0  0  0  0  0  0  0  0999 V2000
  141.7570   76.0330  218.2570 C   0  0  0  0  0  0  0  0  0  0  0  0
  142.2630   76.0040  219.6120 N   0  0  0  0  0  0  0  0  0  0  0  0
  141.9470   77.1220  220.4750 C   0  0  0  0  0  0  0  0  0  0  0  0
  140.4830   77.4330  220.3010 C   0  0  0  0  0  0  0  0  0  0  0  0
  139.6230   76.2840  220.3100 N   0  0  0  0  0  0  0  0  0  0  0  0
  139.7440   75.2460  221.3070 C   0  0  0  0  0  0  0  0  0  0  0  0
  140.6190   75.3260  222.2070 O   0  0  0  0  0  0  0  0  0  0  0  0
  138.7870   74.1200  221.1890 C   0  0  0  0  0  0  0  0  0  0  0  0
  139.0670   73.1560  222.2330 N   0  0  0  0  0  0  0  0  0  0  0  0
  138.7130   71.7890  222.1490 C   0  0  0  0  0  0  0  0  0  0  0  0
  138.1140   71.3210  221.1270 O   0  0  0  0  0  0  0  0  0  0  0  0
  139.0640   70.9160  223.2890 C   0  0  0  0  0  0  0  0  0  0  0  0
  138.7740   69.5670  223.2880 C   0  0  0  0  0  0  0  0  0  0  0  0
  139.1210   68.7650  224.3750 C   0  0  0  0  0  0  0  0  0  0  0  0
  139.7630   69.3000  225.4790 C   0  0  0  0  0  0  0  0  0  0  0  0
  140.1110   68.5020  226.5620 C   0  0  0  0  0  0  0  0  0  0  0  0
  140.7490   69.1040  227.6250 C   0  0  0  0  0  0  0  0  0  0  0  0
  141.2140   68.1330  229.0290 Cl  0  0  0  0  0  0  0  0  0  0  0  0
  141.0210   70.4660  227.5800 C   0  0  0  0  0  0  0  0  0  0  0  0
  140.6700   71.2440  226.5010 C   0  0  0  0  0  0  0  0  0  0  0  0
  140.0320   70.6530  225.4340 C   0  0  0  0  0  0  0  0  0  0  0  0
  139.6880   71.4060  224.3740 N   0  0  0  0  0  0  0  0  0  0  0  0
  143.0320   74.8830  220.0120 C   0  0  0  0  0  0  0  0  0  0  0  0
  142.3880   73.7000  220.3030 C   0  0  0  0  0  0  0  0  0  0  0  0
  143.1020   72.5760  220.7010 C   0  0  0  0  0  0  0  0  0  0  0  0
  144.4750   72.6200  220.8130 C   0  0  0  0  0  0  0  0  0  0  0  0
  145.1420   73.7950  220.5270 C   0  0  0  0  0  0  0  0  0  0  0  0
  144.4040   74.8920  220.1340 C   0  0  0  0  0  0  0  0  0  0  0  0
  140.6590   76.0959  218.2769 H   0  0  0  0  0  0  0  0  0  0  0  0
  142.1650   76.9092  217.7319 H   0  0  0  0  0  0  0  0  0  0  0  0
  142.0623   75.1159  217.7319 H   0  0  0  0  0  0  0  0  0  0  0  0
  142.1521   76.8567  221.5227 H   0  0  0  0  0  0  0  0  0  0  0  0
  142.5611   77.9966  220.2143 H   0  0  0  0  0  0  0  0  0  0  0  0
  140.1741   78.0992  221.1199 H   0  0  0  0  0  0  0  0  0  0  0  0
  140.3780   77.8933  219.3075 H   0  0  0  0  0  0  0  0  0  0  0  0
  138.8700   76.1810  219.5630 H   0  0  0  0  0  0  0  0  0  0  0  0
  137.7591   74.4958  221.2992 H   0  0  0  0  0  0  0  0  0  0  0  0
  138.8916   73.6433  220.2032 H   0  0  0  0  0  0  0  0  0  0  0  0
  139.5630   73.5100  223.0990 H   0  0  0  0  0  0  0  0  0  0  0  0
  138.2644   69.1199  222.4217 H   0  0  0  0  0  0  0  0  0  0  0  0
  138.8811   67.6917  224.3550 H   0  0  0  0  0  0  0  0  0  0  0  0
  139.8848   67.4255  226.5706 H   0  0  0  0  0  0  0  0  0  0  0  0
  141.5324   70.9363  228.4328 H   0  0  0  0  0  0  0  0  0  0  0  0
  140.8955   72.3206  226.4911 H   0  0  0  0  0  0  0  0  0  0  0  0
  141.2926   73.6445  220.2190 H   0  0  0  0  0  0  0  0  0  0  0  0
  142.5664   71.6426  220.9287 H   0  0  0  0  0  0  0  0  0  0  0  0
  145.0348   71.7268  221.1275 H   0  0  0  0  0  0  0  0  0  0  0  0
  146.2372   73.8547  220.6107 H   0  0  0  0  0  0  0  0  0  0  0  0
  144.9403   75.8248  219.9056 H   0  0  0  0  0  0  0  0  0  0  0  0
  1  2  1  0
  2  3  1  0
  3  4  1  0
  4  5  1  0
  5  6  1  0
  6  7  2  0
  6  8  1  0
  8  9  1  0
  9 10  1  0
 10 11  2  0
 10 12  1  0
 12 13  2  0
 13 14  1  0
 14 15  2  0
 15 16  1  0
 16 17  2  0
 17 18  1  0
 17 19  1  0
 19 20  2  0
 20 21  1  0
 21 22  2  0
  2 23  1  0
 23 24  2  0
 24 25  1  0
 25 26  2  0
 26 27  1  0
 27 28  2  0
 22 12  1  0
 28 23  1  0
 21 15  1  0
  1 29  1  0
  1 30  1  0
  1 31  1  0
  3 32  1  0
  3 33  1  0
  4 34  1  0
  4 35  1  0
  5 36  1  0
  8 37  1  0
  8 38  1  0
  9 39  1  0
 13 40  1  0
 14 41  1  0
 16 42  1  0
 19 43  1  0
 20 44  1  0
 24 45  1  0
 25 46  1  0
 26 47  1  0
 27 48  1  0
 28 49  1  0
M  END
>  <smiles>  (25) 
CN(CCNC(=O)CNC(=O)c1ccc2cc(Cl)ccc2n1)c1ccccc1

>  <score_type>  (25) 
oracle

>  <origin>  (25) 
autodockgpu

>  <m_score__min__energy>  (25) 
-8.1899999999999995

>  <m_primary>  (25) 
energy

>  <rmsd>  (25) 
4.588624539770921

>  <m_score__min__rmsd>  (25) 
4.588624539770921

>  <meeko>  (25) 
{"free_energy": -7.27, "intermolecular_energy": -9.36, "internal_energy": -2.27, "cluster_size": 3, "cluster_id": 5, "rank_in_cluster": 1}

>  <energy>  (25) 
-7.62

>  <cluster_rmsd>  (25) 
1.35

>  <cluster>  (25) 
1

$$$$

     RDKit          3D

 49 51  0  0  0  0  0  0  0  0999 V2000
  138.3570   80.2840  224.0320 C   0  0  0  0  0  0  0  0  0  0  0  0
  139.2230   80.1610  222.8790 N   0  0  0  0  0  0  0  0  0  0  0  0
  138.6040   79.9500  221.5880 C   0  0  0  0  0  0  0  0  0  0  0  0
  137.7840   78.6880  221.6780 C   0  0  0  0  0  0  0  0  0  0  0  0
  138.4420   77.5120  221.1860 N   0  0  0  0  0  0  0  0  0  0  0  0
  138.3750   76.2500  221.8850 C   0  0  0  0  0  0  0  0  0  0  0  0
  137.7280   76.1490  222.9590 O   0  0  0  0  0  0  0  0  0  0  0  0
  139.1040   75.1220  221.2570 C   0  0  0  0  0  0  0  0  0  0  0  0
  139.2060   74.0390  222.2130 N   0  0  0  0  0  0  0  0  0  0  0  0
  140.0940   72.9480  222.0650 C   0  0  0  0  0  0  0  0  0  0  0  0
  140.8680   72.8550  221.0580 O   0  0  0  0  0  0  0  0  0  0  0  0
  140.0960   71.9140  223.1220 C   0  0  0  0  0  0  0  0  0  0  0  0
  139.6320   70.6350  222.8890 C   0  0  0  0  0  0  0  0  0  0  0  0
  139.6490   69.6780  223.9020 C   0  0  0  0  0  0  0  0  0  0  0  0
  140.1320   69.9840  225.1640 C   0  0  0  0  0  0  0  0  0  0  0  0
  140.1530   69.0310  226.1740 C   0  0  0  0  0  0  0  0  0  0  0  0
  140.6490   69.4080  227.4030 C   0  0  0  0  0  0  0  0  0  0  0  0
  140.6970   68.2320  228.7250 Cl  0  0  0  0  0  0  0  0  0  0  0  0
  141.1060   70.7070  227.5900 C   0  0  0  0  0  0  0  0  0  0  0  0
  141.0800   71.6410  226.5800 C   0  0  0  0  0  0  0  0  0  0  0  0
  140.5860   71.2740  225.3480 C   0  0  0  0  0  0  0  0  0  0  0  0
  140.5580   72.1810  224.3550 N   0  0  0  0  0  0  0  0  0  0  0  0
  140.6220   80.2580  223.0830 C   0  0  0  0  0  0  0  0  0  0  0  0
  141.4480   79.3150  222.5100 C   0  0  0  0  0  0  0  0  0  0  0  0
  142.8260   79.3700  222.6850 C   0  0  0  0  0  0  0  0  0  0  0  0
  143.3990   80.3730  223.4380 C   0  0  0  0  0  0  0  0  0  0  0  0
  142.5910   81.3280  224.0210 C   0  0  0  0  0  0  0  0  0  0  0  0
  141.2270   81.2460  223.8280 C   0  0  0  0  0  0  0  0  0  0  0  0
  138.9556   80.1990  224.9509 H   0  0  0  0  0  0  0  0  0  0  0  0
  137.8549   81.2625  224.0107 H   0  0  0  0  0  0  0  0  0  0  0  0
  137.6023   79.4840  224.0107 H   0  0  0  0  0  0  0  0  0  0  0  0
  137.9549   80.8025  221.3392 H   0  0  0  0  0  0  0  0  0  0  0  0
  139.3687   79.8593  220.8025 H   0  0  0  0  0  0  0  0  0  0  0  0
  137.5266   78.5206  222.7343 H   0  0  0  0  0  0  0  0  0  0  0  0
  136.9025   78.8427  221.0384 H   0  0  0  0  0  0  0  0  0  0  0  0
  138.9990   77.5580  220.2790 H   0  0  0  0  0  0  0  0  0  0  0  0
  138.5566   74.7785  220.3669 H   0  0  0  0  0  0  0  0  0  0  0  0
  140.1101   75.4497  220.9565 H   0  0  0  0  0  0  0  0  0  0  0  0
  138.5760   74.0820  223.0620 H   0  0  0  0  0  0  0  0  0  0  0  0
  139.2452   70.3686  221.8943 H   0  0  0  0  0  0  0  0  0  0  0  0
  139.2734   68.6647  223.6965 H   0  0  0  0  0  0  0  0  0  0  0  0
  139.7858   68.0090  225.9986 H   0  0  0  0  0  0  0  0  0  0  0  0
  141.5004   70.9972  228.5750 H   0  0  0  0  0  0  0  0  0  0  0  0
  141.4474   72.6632  226.7536 H   0  0  0  0  0  0  0  0  0  0  0  0
  141.0104   78.5070  221.9053 H   0  0  0  0  0  0  0  0  0  0  0  0
  143.4653   78.6061  222.2183 H   0  0  0  0  0  0  0  0  0  0  0  0
  144.4900   80.4116  223.5728 H   0  0  0  0  0  0  0  0  0  0  0  0
  143.0250   82.1373  224.6266 H   0  0  0  0  0  0  0  0  0  0  0  0
  140.5886   82.0109  224.2943 H   0  0  0  0  0  0  0  0  0  0  0  0
  1  2  1  0
  2  3  1  0
  3  4  1  0
  4  5  1  0
  5  6  1  0
  6  7  2  0
  6  8  1  0
  8  9  1  0
  9 10  1  0
 10 11  2  0
 10 12  1  0
 12 13  2  0
 13 14  1  0
 14 15  2  0
 15 16  1  0
 16 17  2  0
 17 18  1  0
 17 19  1  0
 19 20  2  0
 20 21  1  0
 21 22  2  0
  2 23  1  0
 23 24  2  0
 24 25  1  0
 25 26  2  0
 26 27  1  0
 27 28  2  0
 22 12  1  0
 28 23  1  0
 21 15  1  0
  1 29  1  0
  1 30  1  0
  1 31  1  0
  3 32  1  0
  3 33  1  0
  4 34  1  0
  4 35  1  0
  5 36  1  0
  8 37  1  0
  8 38  1  0
  9 39  1  0
 13 40  1  0
 14 41  1  0
 16 42  1  0
 19 43  1  0
 20 44  1  0
 24 45  1  0
 25 46  1  0
 26 47  1  0
 27 48  1  0
 28 49  1  0
M  END
>  <smiles>  (26) 
CN(CCNC(=O)CNC(=O)c1ccc2cc(Cl)ccc2n1)c1ccccc1

>  <score_type>  (26) 
oracle

>  <origin>  (26) 
autodockgpu

>  <m_score__min__energy>  (26) 
-8.1899999999999995

>  <m_primary>  (26) 
energy

>  <rmsd>  (26) 
6.017755304081706

>  <m_score__min__rmsd>  (26) 
6.017755304081706

>  <meeko>  (26) 
{"free_energy": -8.12, "intermolecular_energy": -10.2, "internal_energy": -1.68, "cluster_size": 27, "cluster_id": 1, "rank_in_cluster": 5}

>  <energy>  (26) 
-7.45

>  <cluster_rmsd>  (26) 
1.37

>  <cluster>  (26) 
1

$$$$

     RDKit          3D

 49 51  0  0  0  0  0  0  0  0999 V2000
  141.4140   81.7460  221.1880 C   0  0  0  0  0  0  0  0  0  0  0  0
  141.0390   80.5750  221.9510 N   0  0  0  0  0  0  0  0  0  0  0  0
  142.0090   79.5080  222.0720 C   0  0  0  0  0  0  0  0  0  0  0  0
  141.3960   78.4310  222.9310 C   0  0  0  0  0  0  0  0  0  0  0  0
  141.0950   77.2120  222.2360 N   0  0  0  0  0  0  0  0  0  0  0  0
  139.7530   76.6850  222.1640 C   0  0  0  0  0  0  0  0  0  0  0  0
  138.7990   77.2900  222.7180 O   0  0  0  0  0  0  0  0  0  0  0  0
  139.5950   75.4170  221.4120 C   0  0  0  0  0  0  0  0  0  0  0  0
  139.6160   74.3110  222.3470 N   0  0  0  0  0  0  0  0  0  0  0  0
  140.1040   73.0240  222.0230 C   0  0  0  0  0  0  0  0  0  0  0  0
  140.5590   72.7600  220.8630 O   0  0  0  0  0  0  0  0  0  0  0  0
  140.0690   71.9880  223.0780 C   0  0  0  0  0  0  0  0  0  0  0  0
  139.5500   70.7310  222.8460 C   0  0  0  0  0  0  0  0  0  0  0  0
  139.5340   69.7720  223.8580 C   0  0  0  0  0  0  0  0  0  0  0  0
  140.0380   70.0550  225.1170 C   0  0  0  0  0  0  0  0  0  0  0  0
  140.0250   69.1000  226.1250 C   0  0  0  0  0  0  0  0  0  0  0  0
  140.5450   69.4540  227.3520 C   0  0  0  0  0  0  0  0  0  0  0  0
  140.5520   68.2740  228.6710 Cl  0  0  0  0  0  0  0  0  0  0  0  0
  141.0570   70.7320  227.5370 C   0  0  0  0  0  0  0  0  0  0  0  0
  141.0630   71.6680  226.5290 C   0  0  0  0  0  0  0  0  0  0  0  0
  140.5470   71.3250  225.3000 C   0  0  0  0  0  0  0  0  0  0  0  0
  140.5510   72.2340  224.3090 N   0  0  0  0  0  0  0  0  0  0  0  0
  139.7480   80.5460  222.5350 C   0  0  0  0  0  0  0  0  0  0  0  0
  138.6690   80.1920  221.7530 C   0  0  0  0  0  0  0  0  0  0  0  0
  137.3850   80.1530  222.2820 C   0  0  0  0  0  0  0  0  0  0  0  0
  137.1610   80.4660  223.6060 C   0  0  0  0  0  0  0  0  0  0  0  0
  138.2260   80.8230  224.4080 C   0  0  0  0  0  0  0  0  0  0  0  0
  139.4890   80.8530  223.8520 C   0  0  0  0  0  0  0  0  0  0  0  0
  141.6758   82.5635  221.8759 H   0  0  0  0  0  0  0  0  0  0  0  0
  142.2810   81.5084  220.5541 H   0  0  0  0  0  0  0  0  0  0  0  0
  140.5703   82.0562  220.5541 H   0  0  0  0  0  0  0  0  0  0  0  0
  142.2483   79.1038  221.0773 H   0  0  0  0  0  0  0  0  0  0  0  0
  142.9395   79.8809  222.5248 H   0  0  0  0  0  0  0  0  0  0  0  0
  142.0999   78.1979  223.7435 H   0  0  0  0  0  0  0  0  0  0  0  0
  140.4364   78.8290  223.2926 H   0  0  0  0  0  0  0  0  0  0  0  0
  141.8770   76.6710  221.7550 H   0  0  0  0  0  0  0  0  0  0  0  0
  138.6371   75.4253  220.8714 H   0  0  0  0  0  0  0  0  0  0  0  0
  140.4160   75.3084  220.6880 H   0  0  0  0  0  0  0  0  0  0  0  0
  139.2440   74.4930  223.3210 H   0  0  0  0  0  0  0  0  0  0  0  0
  139.1452   70.4831  221.8537 H   0  0  0  0  0  0  0  0  0  0  0  0
  139.1149   68.7757  223.6536 H   0  0  0  0  0  0  0  0  0  0  0  0
  139.6137   68.0948  225.9505 H   0  0  0  0  0  0  0  0  0  0  0  0
  141.4703   71.0038  228.5195 H   0  0  0  0  0  0  0  0  0  0  0  0
  141.4733   72.6738  226.7023 H   0  0  0  0  0  0  0  0  0  0  0  0
  138.8272   79.9367  220.6948 H   0  0  0  0  0  0  0  0  0  0  0  0
  136.5390   79.8697  221.6385 H   0  0  0  0  0  0  0  0  0  0  0  0
  136.1423   80.4315  224.0195 H   0  0  0  0  0  0  0  0  0  0  0  0
  138.0717   81.0780  225.4669 H   0  0  0  0  0  0  0  0  0  0  0  0
  140.3343   81.1375  224.4959 H   0  0  0  0  0  0  0  0  0  0  0  0
  1  2  1  0
  2  3  1  0
  3  4  1  0
  4  5  1  0
  5  6  1  0
  6  7  2  0
  6  8  1  0
  8  9  1  0
  9 10  1  0
 10 11  2  0
 10 12  1  0
 12 13  2  0
 13 14  1  0
 14 15  2  0
 15 16  1  0
 16 17  2  0
 17 18  1  0
 17 19  1  0
 19 20  2  0
 20 21  1  0
 21 22  2  0
  2 23  1  0
 23 24  2  0
 24 25  1  0
 25 26  2  0
 26 27  1  0
 27 28  2  0
 22 12  1  0
 28 23  1  0
 21 15  1  0
  1 29  1  0
  1 30  1  0
  1 31  1  0
  3 32  1  0
  3 33  1  0
  4 34  1  0
  4 35  1  0
  5 36  1  0
  8 37  1  0
  8 38  1  0
  9 39  1  0
 13 40  1  0
 14 41  1  0
 16 42  1  0
 19 43  1  0
 20 44  1  0
 24 45  1  0
 25 46  1  0
 26 47  1  0
 27 48  1  0
 28 49  1  0
M  END
>  <smiles>  (27) 
CN(CCNC(=O)CNC(=O)c1ccc2cc(Cl)ccc2n1)c1ccccc1

>  <score_type>  (27) 
oracle

>  <origin>  (27) 
autodockgpu

>  <m_score__min__energy>  (27) 
-8.1899999999999995

>  <m_primary>  (27) 
energy

>  <rmsd>  (27) 
6.182995133784068

>  <m_score__min__rmsd>  (27) 
6.182995133784068

>  <meeko>  (27) 
{"free_energy": -8.01, "intermolecular_energy": -10.1, "internal_energy": -1.46, "cluster_size": 27, "cluster_id": 1, "rank_in_cluster": 11}

>  <energy>  (27) 
-7.44

>  <cluster_rmsd>  (27) 
0.98

>  <cluster>  (27) 
1

$$$$

     RDKit          3D

 49 51  0  0  0  0  0  0  0  0999 V2000
  138.4960   79.4580  223.4570 C   0  0  0  0  0  0  0  0  0  0  0  0
  139.6760   79.0750  222.7110 N   0  0  0  0  0  0  0  0  0  0  0  0
  139.5180   78.1050  221.6490 C   0  0  0  0  0  0  0  0  0  0  0  0
  140.0760   76.7950  222.1420 C   0  0  0  0  0  0  0  0  0  0  0  0
  139.1390   75.7070  222.1410 N   0  0  0  0  0  0  0  0  0  0  0  0
  139.1510   74.6890  221.1170 C   0  0  0  0  0  0  0  0  0  0  0  0
  139.9960   74.7310  220.1860 O   0  0  0  0  0  0  0  0  0  0  0  0
  138.1230   73.6290  221.2460 C   0  0  0  0  0  0  0  0  0  0  0  0
  138.5150   72.7220  222.3050 N   0  0  0  0  0  0  0  0  0  0  0  0
  138.3590   71.3180  222.2300 C   0  0  0  0  0  0  0  0  0  0  0  0
  137.8500   70.7630  221.2030 O   0  0  0  0  0  0  0  0  0  0  0  0
  138.8070   70.5120  223.3850 C   0  0  0  0  0  0  0  0  0  0  0  0
  138.5460   69.1600  223.4740 C   0  0  0  0  0  0  0  0  0  0  0  0
  138.9850   68.4230  224.5730 C   0  0  0  0  0  0  0  0  0  0  0  0
  139.6920   69.0260  225.5990 C   0  0  0  0  0  0  0  0  0  0  0  0
  140.1310   68.2920  226.6940 C   0  0  0  0  0  0  0  0  0  0  0  0
  140.8300   68.9600  227.6760 C   0  0  0  0  0  0  0  0  0  0  0  0
  141.4130   68.0730  229.0920 Cl  0  0  0  0  0  0  0  0  0  0  0  0
  141.0690   70.3220  227.5430 C   0  0  0  0  0  0  0  0  0  0  0  0
  140.6280   71.0360  226.4530 C   0  0  0  0  0  0  0  0  0  0  0  0
  139.9290   70.3790  225.4660 C   0  0  0  0  0  0  0  0  0  0  0  0
  139.4950   71.0700  224.3960 N   0  0  0  0  0  0  0  0  0  0  0  0
  140.9100   79.6740  223.0630 C   0  0  0  0  0  0  0  0  0  0  0  0
  140.9020   80.8340  223.8090 C   0  0  0  0  0  0  0  0  0  0  0  0
  142.0890   81.4570  224.1750 C   0  0  0  0  0  0  0  0  0  0  0  0
  143.3050   80.9260  223.8010 C   0  0  0  0  0  0  0  0  0  0  0  0
  143.3380   79.7660  223.0530 C   0  0  0  0  0  0  0  0  0  0  0  0
  142.1420   79.1720  222.7060 C   0  0  0  0  0  0  0  0  0  0  0  0
  138.7055   79.3900  224.5347 H   0  0  0  0  0  0  0  0  0  0  0  0
  138.2202   80.4918  223.2016 H   0  0  0  0  0  0  0  0  0  0  0  0
  137.6657   78.7832  223.2016 H   0  0  0  0  0  0  0  0  0  0  0  0
  138.4524   77.9896  221.4019 H   0  0  0  0  0  0  0  0  0  0  0  0
  140.0479   78.4342  220.7430 H   0  0  0  0  0  0  0  0  0  0  0  0
  140.9231   76.5186  221.4970 H   0  0  0  0  0  0  0  0  0  0  0  0
  140.3660   76.9552  223.1909 H   0  0  0  0  0  0  0  0  0  0  0  0
  138.4080   75.6390  222.9130 H   0  0  0  0  0  0  0  0  0  0  0  0
  137.1518   74.0842  221.4903 H   0  0  0  0  0  0  0  0  0  0  0  0
  138.0340   73.0787  220.2977 H   0  0  0  0  0  0  0  0  0  0  0  0
  138.9410   73.1490  223.1750 H   0  0  0  0  0  0  0  0  0  0  0  0
  137.9864   68.6590  222.6704 H   0  0  0  0  0  0  0  0  0  0  0  0
  138.7663   67.3462  224.6256 H   0  0  0  0  0  0  0  0  0  0  0  0
  139.9275   67.2140  226.7744 H   0  0  0  0  0  0  0  0  0  0  0  0
  141.6277   70.8452  228.3330 H   0  0  0  0  0  0  0  0  0  0  0  0
  140.8306   72.1141  226.3716 H   0  0  0  0  0  0  0  0  0  0  0  0
  139.9419   81.2725  224.1188 H   0  0  0  0  0  0  0  0  0  0  0  0
  142.0581   82.3825  224.7687 H   0  0  0  0  0  0  0  0  0  0  0  0
  144.2412   81.4224  224.0961 H   0  0  0  0  0  0  0  0  0  0  0  0
  144.2963   79.3253  222.7407 H   0  0  0  0  0  0  0  0  0  0  0  0
  142.1741   78.2469  222.1117 H   0  0  0  0  0  0  0  0  0  0  0  0
  1  2  1  0
  2  3  1  0
  3  4  1  0
  4  5  1  0
  5  6  1  0
  6  7  2  0
  6  8  1  0
  8  9  1  0
  9 10  1  0
 10 11  2  0
 10 12  1  0
 12 13  2  0
 13 14  1  0
 14 15  2  0
 15 16  1  0
 16 17  2  0
 17 18  1  0
 17 19  1  0
 19 20  2  0
 20 21  1  0
 21 22  2  0
  2 23  1  0
 23 24  2  0
 24 25  1  0
 25 26  2  0
 26 27  1  0
 27 28  2  0
 22 12  1  0
 28 23  1  0
 21 15  1  0
  1 29  1  0
  1 30  1  0
  1 31  1  0
  3 32  1  0
  3 33  1  0
  4 34  1  0
  4 35  1  0
  5 36  1  0
  8 37  1  0
  8 38  1  0
  9 39  1  0
 13 40  1  0
 14 41  1  0
 16 42  1  0
 19 43  1  0
 20 44  1  0
 24 45  1  0
 25 46  1  0
 26 47  1  0
 27 48  1  0
 28 49  1  0
M  END
>  <smiles>  (28) 
CN(CCNC(=O)CNC(=O)c1ccc2cc(Cl)ccc2n1)c1ccccc1

>  <score_type>  (28) 
oracle

>  <origin>  (28) 
autodockgpu

>  <m_score__min__energy>  (28) 
-8.1899999999999995

>  <m_primary>  (28) 
energy

>  <rmsd>  (28) 
5.126751765328283

>  <m_score__min__rmsd>  (28) 
5.126751765328283

>  <meeko>  (28) 
{"free_energy": -7.99, "intermolecular_energy": -10.08, "internal_energy": -1.25, "cluster_size": 27, "cluster_id": 1, "rank_in_cluster": 14}

>  <energy>  (28) 
-8.04

>  <cluster_rmsd>  (28) 
0.0

>  <cluster>  (28) 
2

$$$$

     RDKit          3D

 49 51  0  0  0  0  0  0  0  0999 V2000
  142.3000   75.9250  217.8860 C   0  0  0  0  0  0  0  0  0  0  0  0
  142.6980   75.8930  219.2770 N   0  0  0  0  0  0  0  0  0  0  0  0
  142.5810   77.1160  220.0410 C   0  0  0  0  0  0  0  0  0  0  0  0
  141.1120   77.4100  220.2080 C   0  0  0  0  0  0  0  0  0  0  0  0
  140.2590   76.2590  220.1220 N   0  0  0  0  0  0  0  0  0  0  0  0
  139.9330   75.4610  221.2810 C   0  0  0  0  0  0  0  0  0  0  0  0
  140.3960   75.7600  222.4120 O   0  0  0  0  0  0  0  0  0  0  0  0
  139.0410   74.3030  221.0390 C   0  0  0  0  0  0  0  0  0  0  0  0
  139.2520   73.3220  222.0840 N   0  0  0  0  0  0  0  0  0  0  0  0
  139.0850   71.9310  221.8940 C   0  0  0  0  0  0  0  0  0  0  0  0
  138.7300   71.4530  220.7680 O   0  0  0  0  0  0  0  0  0  0  0  0
  139.3380   71.0430  223.0490 C   0  0  0  0  0  0  0  0  0  0  0  0
  138.9750   69.7120  223.0370 C   0  0  0  0  0  0  0  0  0  0  0  0
  139.2300   68.8960  224.1380 C   0  0  0  0  0  0  0  0  0  0  0  0
  139.8530   69.3980  225.2680 C   0  0  0  0  0  0  0  0  0  0  0  0
  140.1100   68.5860  226.3660 C   0  0  0  0  0  0  0  0  0  0  0  0
  140.7340   69.1560  227.4550 C   0  0  0  0  0  0  0  0  0  0  0  0
  141.0840   68.1660  228.8790 Cl  0  0  0  0  0  0  0  0  0  0  0  0
  141.0810   70.5010  227.4210 C   0  0  0  0  0  0  0  0  0  0  0  0
  140.8200   71.2930  226.3270 C   0  0  0  0  0  0  0  0  0  0  0  0
  140.1970   70.7340  225.2340 C   0  0  0  0  0  0  0  0  0  0  0  0
  139.9410   71.5020  224.1600 N   0  0  0  0  0  0  0  0  0  0  0  0
  143.1750   74.6680  219.8060 C   0  0  0  0  0  0  0  0  0  0  0  0
  144.4970   74.5740  220.1860 C   0  0  0  0  0  0  0  0  0  0  0  0
  145.0090   73.3920  220.7070 C   0  0  0  0  0  0  0  0  0  0  0  0
  144.2030   72.2840  220.8580 C   0  0  0  0  0  0  0  0  0  0  0  0
  142.8760   72.3550  220.4830 C   0  0  0  0  0  0  0  0  0  0  0  0
  142.3990   73.5430  219.9690 C   0  0  0  0  0  0  0  0  0  0  0  0
  141.2055   76.0130  217.8197 H   0  0  0  0  0  0  0  0  0  0  0  0
  142.7680   76.7884  217.3905 H   0  0  0  0  0  0  0  0  0  0  0  0
  142.6240   74.9979  217.3905 H   0  0  0  0  0  0  0  0  0  0  0  0
  143.0526   76.9892  221.0266 H   0  0  0  0  0  0  0  0  0  0  0  0
  143.0845   77.9452  219.5225 H   0  0  0  0  0  0  0  0  0  0  0  0
  140.9648   77.8733  221.1948 H   0  0  0  0  0  0  0  0  0  0  0  0
  140.8295   78.0705  219.3749 H   0  0  0  0  0  0  0  0  0  0  0  0
  139.8490   75.9750  219.1810 H   0  0  0  0  0  0  0  0  0  0  0  0
  137.9926   74.6356  221.0509 H   0  0  0  0  0  0  0  0  0  0  0  0
  139.2659   73.8576  220.0587 H   0  0  0  0  0  0  0  0  0  0  0  0
  139.5460   73.6830  223.0340 H   0  0  0  0  0  0  0  0  0  0  0  0
  138.4795   69.2906  222.1499 H   0  0  0  0  0  0  0  0  0  0  0  0
  138.9318   67.8376  224.1086 H   0  0  0  0  0  0  0  0  0  0  0  0
  139.8250   67.5236  226.3662 H   0  0  0  0  0  0  0  0  0  0  0  0
  141.5793   70.9458  228.2950 H   0  0  0  0  0  0  0  0  0  0  0  0
  141.1044   72.3556  226.3255 H   0  0  0  0  0  0  0  0  0  0  0  0
  145.1561   75.4476  220.0751 H   0  0  0  0  0  0  0  0  0  0  0  0
  146.0675   73.3400  221.0017 H   0  0  0  0  0  0  0  0  0  0  0  0
  144.6132   71.3517  221.2735 H   0  0  0  0  0  0  0  0  0  0  0  0
  142.2138   71.4834  220.5917 H   0  0  0  0  0  0  0  0  0  0  0  0
  141.3407   73.5940  219.6733 H   0  0  0  0  0  0  0  0  0  0  0  0
  1  2  1  0
  2  3  1  0
  3  4  1  0
  4  5  1  0
  5  6  1  0
  6  7  2  0
  6  8  1  0
  8  9  1  0
  9 10  1  0
 10 11  2  0
 10 12  1  0
 12 13  2  0
 13 14  1  0
 14 15  2  0
 15 16  1  0
 16 17  2  0
 17 18  1  0
 17 19  1  0
 19 20  2  0
 20 21  1  0
 21 22  2  0
  2 23  1  0
 23 24  2  0
 24 25  1  0
 25 26  2  0
 26 27  1  0
 27 28  2  0
 22 12  1  0
 28 23  1  0
 21 15  1  0
  1 29  1  0
  1 30  1  0
  1 31  1  0
  3 32  1  0
  3 33  1  0
  4 34  1  0
  4 35  1  0
  5 36  1  0
  8 37  1  0
  8 38  1  0
  9 39  1  0
 13 40  1  0
 14 41  1  0
 16 42  1  0
 19 43  1  0
 20 44  1  0
 24 45  1  0
 25 46  1  0
 26 47  1  0
 27 48  1  0
 28 49  1  0
M  END
>  <smiles>  (29) 
CN(CCNC(=O)CNC(=O)c1ccc2cc(Cl)ccc2n1)c1ccccc1

>  <score_type>  (29) 
oracle

>  <origin>  (29) 
autodockgpu

>  <m_score__min__energy>  (29) 
-8.1899999999999995

>  <m_primary>  (29) 
energy

>  <rmsd>  (29) 
4.623637600021923

>  <m_score__min__rmsd>  (29) 
4.623637600021923

>  <meeko>  (29) 
{"free_energy": -7.16, "intermolecular_energy": -9.24, "internal_energy": -2.45, "cluster_size": 3, "cluster_id": 5, "rank_in_cluster": 2}

>  <energy>  (29) 
-7.97

>  <cluster_rmsd>  (29) 
1.25

>  <cluster>  (29) 
2

$$$$

     RDKit          3D

 49 51  0  0  0  0  0  0  0  0999 V2000
  140.4390   71.8580  223.3940 C   0  0  0  0  0  0  0  0  0  0  0  0
  139.9390   70.7640  224.1980 N   0  0  0  0  0  0  0  0  0  0  0  0
  139.2020   69.7140  223.5270 C   0  0  0  0  0  0  0  0  0  0  0  0
  137.7340   69.9890  223.7270 C   0  0  0  0  0  0  0  0  0  0  0  0
  137.2390   71.1360  223.0190 N   0  0  0  0  0  0  0  0  0  0  0  0
  136.0940   71.8840  223.4810 C   0  0  0  0  0  0  0  0  0  0  0  0
  135.4920   71.5440  224.5320 O   0  0  0  0  0  0  0  0  0  0  0  0
  135.6980   73.0430  222.6460 C   0  0  0  0  0  0  0  0  0  0  0  0
  136.7370   74.0490  222.7180 N   0  0  0  0  0  0  0  0  0  0  0  0
  137.8480   74.0890  221.8430 C   0  0  0  0  0  0  0  0  0  0  0  0
  137.9990   73.2200  220.9240 O   0  0  0  0  0  0  0  0  0  0  0  0
  138.8320   75.1760  222.0290 C   0  0  0  0  0  0  0  0  0  0  0  0
  140.1670   75.0090  221.7200 C   0  0  0  0  0  0  0  0  0  0  0  0
  141.0740   76.0530  221.9000 C   0  0  0  0  0  0  0  0  0  0  0  0
  140.6590   77.2800  222.3920 C   0  0  0  0  0  0  0  0  0  0  0  0
  141.5610   78.3220  222.5700 C   0  0  0  0  0  0  0  0  0  0  0  0
  141.0750   79.5140  223.0620 C   0  0  0  0  0  0  0  0  0  0  0  0
  142.1820   80.8730  223.3080 Cl  0  0  0  0  0  0  0  0  0  0  0  0
  139.7230   79.6350  223.3580 C   0  0  0  0  0  0  0  0  0  0  0  0
  138.8420   78.5940  223.1760 C   0  0  0  0  0  0  0  0  0  0  0  0
  139.3160   77.3990  222.6860 C   0  0  0  0  0  0  0  0  0  0  0  0
  138.4600   76.3770  222.5030 N   0  0  0  0  0  0  0  0  0  0  0  0
  140.2030   70.7850  225.5900 C   0  0  0  0  0  0  0  0  0  0  0  0
  140.8540   71.8740  226.1310 C   0  0  0  0  0  0  0  0  0  0  0  0
  141.1350   71.9360  227.4900 C   0  0  0  0  0  0  0  0  0  0  0  0
  140.7670   70.9080  228.3310 C   0  0  0  0  0  0  0  0  0  0  0  0
  140.1140   69.8080  227.8120 C   0  0  0  0  0  0  0  0  0  0  0  0
  139.8490   69.7760  226.4590 C   0  0  0  0  0  0  0  0  0  0  0  0
  140.8053   72.6594  224.0525 H   0  0  0  0  0  0  0  0  0  0  0  0
  141.2628   71.4998  222.7591 H   0  0  0  0  0  0  0  0  0  0  0  0
  139.6291   72.2465  222.7591 H   0  0  0  0  0  0  0  0  0  0  0  0
  139.4410   69.7151  222.4533 H   0  0  0  0  0  0  0  0  0  0  0  0
  139.4704   68.7298  223.9384 H   0  0  0  0  0  0  0  0  0  0  0  0
  137.1704   69.1071  223.3883 H   0  0  0  0  0  0  0  0  0  0  0  0
  137.5996   70.2016  224.7979 H   0  0  0  0  0  0  0  0  0  0  0  0
  137.7230   71.4530  222.1240 H   0  0  0  0  0  0  0  0  0  0  0  0
  135.5687   72.7195  221.6026 H   0  0  0  0  0  0  0  0  0  0  0  0
  134.7488   73.4603  223.0132 H   0  0  0  0  0  0  0  0  0  0  0  0
  136.6460   74.7870  223.4710 H   0  0  0  0  0  0  0  0  0  0  0  0
  140.5188   74.0433  221.3281 H   0  0  0  0  0  0  0  0  0  0  0  0
  142.1338   75.9002  221.6478 H   0  0  0  0  0  0  0  0  0  0  0  0
  142.6267   78.1995  222.3265 H   0  0  0  0  0  0  0  0  0  0  0  0
  139.3458   80.5913  223.7494 H   0  0  0  0  0  0  0  0  0  0  0  0
  137.7759   78.7152  223.4183 H   0  0  0  0  0  0  0  0  0  0  0  0
  141.1551   72.7055  225.4768 H   0  0  0  0  0  0  0  0  0  0  0  0
  141.6563   72.8141  227.8989 H   0  0  0  0  0  0  0  0  0  0  0  0
  140.9916   70.9635  229.4064 H   0  0  0  0  0  0  0  0  0  0  0  0
  139.8116   68.9750  228.4636 H   0  0  0  0  0  0  0  0  0  0  0  0
  139.3269   68.8977  226.0516 H   0  0  0  0  0  0  0  0  0  0  0  0
  1  2  1  0
  2  3  1  0
  3  4  1  0
  4  5  1  0
  5  6  1  0
  6  7  2  0
  6  8  1  0
  8  9  1  0
  9 10  1  0
 10 11  2  0
 10 12  1  0
 12 13  2  0
 13 14  1  0
 14 15  2  0
 15 16  1  0
 16 17  2  0
 17 18  1  0
 17 19  1  0
 19 20  2  0
 20 21  1  0
 21 22  2  0
  2 23  1  0
 23 24  2  0
 24 25  1  0
 25 26  2  0
 26 27  1  0
 27 28  2  0
 22 12  1  0
 28 23  1  0
 21 15  1  0
  1 29  1  0
  1 30  1  0
  1 31  1  0
  3 32  1  0
  3 33  1  0
  4 34  1  0
  4 35  1  0
  5 36  1  0
  8 37  1  0
  8 38  1  0
  9 39  1  0
 13 40  1  0
 14 41  1  0
 16 42  1  0
 19 43  1  0
 20 44  1  0
 24 45  1  0
 25 46  1  0
 26 47  1  0
 27 48  1  0
 28 49  1  0
M  END
>  <smiles>  (30) 
CN(CCNC(=O)CNC(=O)c1ccc2cc(Cl)ccc2n1)c1ccccc1

>  <score_type>  (30) 
oracle

>  <origin>  (30) 
autodockgpu

>  <m_score__min__energy>  (30) 
-8.1899999999999995

>  <m_primary>  (30) 
energy

>  <rmsd>  (30) 
8.155762603237088

>  <m_score__min__rmsd>  (30) 
8.155762603237088

>  <meeko>  (30) 
{"free_energy": -7.41, "intermolecular_energy": -9.5, "internal_energy": -2.39, "cluster_size": 15, "cluster_id": 2, "rank_in_cluster": 10}

>  <energy>  (30) 
-7.96

>  <cluster_rmsd>  (30) 
0.59

>  <cluster>  (30) 
2

$$$$

     RDKit          3D

 49 51  0  0  0  0  0  0  0  0999 V2000
  140.2100   67.4230  226.4350 C   0  0  0  0  0  0  0  0  0  0  0  0
  139.6390   68.6740  225.9840 N   0  0  0  0  0  0  0  0  0  0  0  0
  138.5960   68.6170  224.9820 C   0  0  0  0  0  0  0  0  0  0  0  0
  139.1950   69.0710  223.6750 C   0  0  0  0  0  0  0  0  0  0  0  0
  138.4190   70.0520  222.9710 N   0  0  0  0  0  0  0  0  0  0  0  0
  138.8400   71.4300  222.8720 C   0  0  0  0  0  0  0  0  0  0  0  0
  139.9120   71.8100  223.4080 O   0  0  0  0  0  0  0  0  0  0  0  0
  137.9370   72.3300  222.1140 C   0  0  0  0  0  0  0  0  0  0  0  0
  138.3630   73.6990  222.3150 N   0  0  0  0  0  0  0  0  0  0  0  0
  137.6730   74.8170  221.7900 C   0  0  0  0  0  0  0  0  0  0  0  0
  136.6160   74.6760  221.0940 O   0  0  0  0  0  0  0  0  0  0  0  0
  138.2190   76.1600  222.0760 C   0  0  0  0  0  0  0  0  0  0  0  0
  137.4420   77.2970  221.9830 C   0  0  0  0  0  0  0  0  0  0  0  0
  137.9820   78.5510  222.2640 C   0  0  0  0  0  0  0  0  0  0  0  0
  139.3060   78.6890  222.6430 C   0  0  0  0  0  0  0  0  0  0  0  0
  139.8450   79.9380  222.9250 C   0  0  0  0  0  0  0  0  0  0  0  0
  141.1710   79.9970  223.2970 C   0  0  0  0  0  0  0  0  0  0  0  0
  141.9070   81.5630  223.6670 Cl  0  0  0  0  0  0  0  0  0  0  0  0
  141.9140   78.8250  223.3770 C   0  0  0  0  0  0  0  0  0  0  0  0
  141.3670   77.5950  223.0960 C   0  0  0  0  0  0  0  0  0  0  0  0
  140.0440   77.5250  222.7230 C   0  0  0  0  0  0  0  0  0  0  0  0
  139.5010   76.3250  222.4470 N   0  0  0  0  0  0  0  0  0  0  0  0
  140.1330   69.8750  226.5500 C   0  0  0  0  0  0  0  0  0  0  0  0
  140.9710   70.6730  225.8000 C   0  0  0  0  0  0  0  0  0  0  0  0
  141.4810   71.8580  226.3150 C   0  0  0  0  0  0  0  0  0  0  0  0
  141.1580   72.2650  227.5920 C   0  0  0  0  0  0  0  0  0  0  0  0
  140.3210   71.4820  228.3620 C   0  0  0  0  0  0  0  0  0  0  0  0
  139.8310   70.3110  227.8210 C   0  0  0  0  0  0  0  0  0  0  0  0
  140.2205   67.4001  227.5347 H   0  0  0  0  0  0  0  0  0  0  0  0
  139.6047   66.5861  226.0565 H   0  0  0  0  0  0  0  0  0  0  0  0
  141.2388   67.3320  226.0565 H   0  0  0  0  0  0  0  0  0  0  0  0
  138.2237   67.5864  224.8862 H   0  0  0  0  0  0  0  0  0  0  0  0
  137.7519   69.2629  225.2654 H   0  0  0  0  0  0  0  0  0  0  0  0
  140.1856   69.5017  223.8828 H   0  0  0  0  0  0  0  0  0  0  0  0
  139.2379   68.1834  223.0267 H   0  0  0  0  0  0  0  0  0  0  0  0
  137.5050   69.7680  222.5050 H   0  0  0  0  0  0  0  0  0  0  0  0
  137.9826   72.0825  221.0432 H   0  0  0  0  0  0  0  0  0  0  0  0
  136.9031   72.2054  222.4682 H   0  0  0  0  0  0  0  0  0  0  0  0
  139.2390   73.8550  222.8880 H   0  0  0  0  0  0  0  0  0  0  0  0
  136.3867   77.2128  221.6843 H   0  0  0  0  0  0  0  0  0  0  0  0
  137.3459   79.4448  222.1833 H   0  0  0  0  0  0  0  0  0  0  0  0
  139.2338   80.8498  222.8538 H   0  0  0  0  0  0  0  0  0  0  0  0
  142.9715   78.8831  223.6741 H   0  0  0  0  0  0  0  0  0  0  0  0
  141.9767   76.6823  223.1681 H   0  0  0  0  0  0  0  0  0  0  0  0
  141.2397   70.3665  224.7783 H   0  0  0  0  0  0  0  0  0  0  0  0
  142.1488   72.4774  225.6982 H   0  0  0  0  0  0  0  0  0  0  0  0
  141.5635   73.2052  227.9939 H   0  0  0  0  0  0  0  0  0  0  0  0
  140.0507   71.7851  229.3843 H   0  0  0  0  0  0  0  0  0  0  0  0
  139.1630   69.6923  228.4383 H   0  0  0  0  0  0  0  0  0  0  0  0
  1  2  1  0
  2  3  1  0
  3  4  1  0
  4  5  1  0
  5  6  1  0
  6  7  2  0
  6  8  1  0
  8  9  1  0
  9 10  1  0
 10 11  2  0
 10 12  1  0
 12 13  2  0
 13 14  1  0
 14 15  2  0
 15 16  1  0
 16 17  2  0
 17 18  1  0
 17 19  1  0
 19 20  2  0
 20 21  1  0
 21 22  2  0
  2 23  1  0
 23 24  2  0
 24 25  1  0
 25 26  2  0
 26 27  1  0
 27 28  2  0
 22 12  1  0
 28 23  1  0
 21 15  1  0
  1 29  1  0
  1 30  1  0
  1 31  1  0
  3 32  1  0
  3 33  1  0
  4 34  1  0
  4 35  1  0
  5 36  1  0
  8 37  1  0
  8 38  1  0
  9 39  1  0
 13 40  1  0
 14 41  1  0
 16 42  1  0
 19 43  1  0
 20 44  1  0
 24 45  1  0
 25 46  1  0
 26 47  1  0
 27 48  1  0
 28 49  1  0
M  END
>  <smiles>  (31) 
CN(CCNC(=O)CNC(=O)c1ccc2cc(Cl)ccc2n1)c1ccccc1

>  <score_type>  (31) 
oracle

>  <origin>  (31) 
autodockgpu

>  <m_score__min__energy>  (31) 
-8.1899999999999995

>  <m_primary>  (31) 
energy

>  <rmsd>  (31) 
8.98413174613213

>  <m_score__min__rmsd>  (31) 
8.98413174613213

>  <meeko>  (31) 
{"free_energy": -8.04, "intermolecular_energy": -10.13, "internal_energy": -2.0, "cluster_size": 15, "cluster_id": 2, "rank_in_cluster": 1}

>  <energy>  (31) 
-7.87

>  <cluster_rmsd>  (31) 
1.33

>  <cluster>  (31) 
2

$$$$

     RDKit          3D

 49 51  0  0  0  0  0  0  0  0999 V2000
  139.7080   71.8870  223.1380 C   0  0  0  0  0  0  0  0  0  0  0  0
  139.7690   70.6260  223.8450 N   0  0  0  0  0  0  0  0  0  0  0  0
  139.5680   69.4130  223.0820 C   0  0  0  0  0  0  0  0  0  0  0  0
  138.2030   69.4950  222.4470 C   0  0  0  0  0  0  0  0  0  0  0  0
  137.1110   69.2580  223.3480 N   0  0  0  0  0  0  0  0  0  0  0  0
  136.1760   70.2990  223.7060 C   0  0  0  0  0  0  0  0  0  0  0  0
  136.2980   71.4570  223.2300 O   0  0  0  0  0  0  0  0  0  0  0  0
  135.0990   69.9070  224.6460 C   0  0  0  0  0  0  0  0  0  0  0  0
  134.4890   71.1050  225.1860 N   0  0  0  0  0  0  0  0  0  0  0  0
  133.5700   71.0970  226.2610 C   0  0  0  0  0  0  0  0  0  0  0  0
  133.2200   70.0100  226.8250 O   0  0  0  0  0  0  0  0  0  0  0  0
  133.0280   72.3960  226.7130 C   0  0  0  0  0  0  0  0  0  0  0  0
  131.8520   72.4830  227.4300 C   0  0  0  0  0  0  0  0  0  0  0  0
  131.3650   73.7210  227.8480 C   0  0  0  0  0  0  0  0  0  0  0  0
  132.0470   74.8900  227.5550 C   0  0  0  0  0  0  0  0  0  0  0  0
  131.5640   76.1240  227.9730 C   0  0  0  0  0  0  0  0  0  0  0  0
  132.2970   77.2450  227.6460 C   0  0  0  0  0  0  0  0  0  0  0  0
  131.7270   78.8420  228.1530 Cl  0  0  0  0  0  0  0  0  0  0  0  0
  133.4750   77.1070  226.9220 C   0  0  0  0  0  0  0  0  0  0  0  0
  133.9410   75.8780  226.5150 C   0  0  0  0  0  0  0  0  0  0  0  0
  133.2170   74.7530  226.8370 C   0  0  0  0  0  0  0  0  0  0  0  0
  133.6670   73.5470  226.4440 N   0  0  0  0  0  0  0  0  0  0  0  0
  140.0230   70.6550  225.2390 C   0  0  0  0  0  0  0  0  0  0  0  0
  139.5150   69.6480  226.0320 C   0  0  0  0  0  0  0  0  0  0  0  0
  139.7380   69.6370  227.4040 C   0  0  0  0  0  0  0  0  0  0  0  0
  140.4750   70.6350  228.0030 C   0  0  0  0  0  0  0  0  0  0  0  0
  140.9940   71.6540  227.2290 C   0  0  0  0  0  0  0  0  0  0  0  0
  140.7550   71.6360  225.8700 C   0  0  0  0  0  0  0  0  0  0  0  0
  139.6680   72.7127  223.8637 H   0  0  0  0  0  0  0  0  0  0  0  0
  140.6019   71.9969  222.5064 H   0  0  0  0  0  0  0  0  0  0  0  0
  138.8077   71.9101  222.5064 H   0  0  0  0  0  0  0  0  0  0  0  0
  140.3397   69.3278  222.3028 H   0  0  0  0  0  0  0  0  0  0  0  0
  139.6383   68.5301  223.7343 H   0  0  0  0  0  0  0  0  0  0  0  0
  138.0831   70.5014  222.0194 H   0  0  0  0  0  0  0  0  0  0  0  0
  138.1622   68.6978  221.6902 H   0  0  0  0  0  0  0  0  0  0  0  0
  136.9750   68.2900  223.7710 H   0  0  0  0  0  0  0  0  0  0  0  0
  134.3408   69.3147  224.1127 H   0  0  0  0  0  0  0  0  0  0  0  0
  135.5190   69.3017  225.4628 H   0  0  0  0  0  0  0  0  0  0  0  0
  134.7550   72.0270  224.7400 H   0  0  0  0  0  0  0  0  0  0  0  0
  131.2936   71.5672  227.6740 H   0  0  0  0  0  0  0  0  0  0  0  0
  130.4258   73.7696  228.4186 H   0  0  0  0  0  0  0  0  0  0  0  0
  130.6282   76.2038  228.5456 H   0  0  0  0  0  0  0  0  0  0  0  0
  134.0525   78.0076  226.6665 H   0  0  0  0  0  0  0  0  0  0  0  0
  134.8764   75.7962  225.9420 H   0  0  0  0  0  0  0  0  0  0  0  0
  138.9247   68.8416  225.5723 H   0  0  0  0  0  0  0  0  0  0  0  0
  139.3222   68.8239  228.0171 H   0  0  0  0  0  0  0  0  0  0  0  0
  140.6486   70.6202  229.0891 H   0  0  0  0  0  0  0  0  0  0  0  0
  141.5847   72.4619  227.6855 H   0  0  0  0  0  0  0  0  0  0  0  0
  141.1717   72.4492  225.2576 H   0  0  0  0  0  0  0  0  0  0  0  0
  1  2  1  0
  2  3  1  0
  3  4  1  0
  4  5  1  0
  5  6  1  0
  6  7  2  0
  6  8  1  0
  8  9  1  0
  9 10  1  0
 10 11  2  0
 10 12  1  0
 12 13  2  0
 13 14  1  0
 14 15  2  0
 15 16  1  0
 16 17  2  0
 17 18  1  0
 17 19  1  0
 19 20  2  0
 20 21  1  0
 21 22  2  0
  2 23  1  0
 23 24  2  0
 24 25  1  0
 25 26  2  0
 26 27  1  0
 27 28  2  0
 22 12  1  0
 28 23  1  0
 21 15  1  0
  1 29  1  0
  1 30  1  0
  1 31  1  0
  3 32  1  0
  3 33  1  0
  4 34  1  0
  4 35  1  0
  5 36  1  0
  8 37  1  0
  8 38  1  0
  9 39  1  0
 13 40  1  0
 14 41  1  0
 16 42  1  0
 19 43  1  0
 20 44  1  0
 24 45  1  0
 25 46  1  0
 26 47  1  0
 27 48  1  0
 28 49  1  0
M  END
>  <smiles>  (32) 
CN(CCNC(=O)CNC(=O)c1ccc2cc(Cl)ccc2n1)c1ccccc1

>  <score_type>  (32) 
oracle

>  <origin>  (32) 
autodockgpu

>  <m_score__min__energy>  (32) 
-8.1899999999999995

>  <m_primary>  (32) 
energy

>  <rmsd>  (32) 
7.945041505903669

>  <m_score__min__rmsd>  (32) 
7.945041505903669

>  <meeko>  (32) 
{"free_energy": -7.34, "intermolecular_energy": -9.43, "internal_energy": -2.08, "cluster_size": 4, "cluster_id": 3, "rank_in_cluster": 3}

>  <energy>  (32) 
-7.84

>  <cluster_rmsd>  (32) 
0.55

>  <cluster>  (32) 
2

$$$$

     RDKit          3D

 49 51  0  0  0  0  0  0  0  0999 V2000
  139.9620   67.3920  226.4280 C   0  0  0  0  0  0  0  0  0  0  0  0
  139.7720   68.6580  225.7530 N   0  0  0  0  0  0  0  0  0  0  0  0
  139.1780   68.6370  224.4330 C   0  0  0  0  0  0  0  0  0  0  0  0
  137.7720   69.1660  224.5580 C   0  0  0  0  0  0  0  0  0  0  0  0
  137.3770   70.0650  223.5110 N   0  0  0  0  0  0  0  0  0  0  0  0
  138.0630   71.3140  223.2770 C   0  0  0  0  0  0  0  0  0  0  0  0
  139.0390   71.6500  223.9960 O   0  0  0  0  0  0  0  0  0  0  0  0
  137.5440   72.1390  222.1600 C   0  0  0  0  0  0  0  0  0  0  0  0
  138.0010   73.5020  222.3310 N   0  0  0  0  0  0  0  0  0  0  0  0
  137.2760   74.6310  221.8860 C   0  0  0  0  0  0  0  0  0  0  0  0
  136.1550   74.5080  221.2940 O   0  0  0  0  0  0  0  0  0  0  0  0
  137.8620   75.9670  222.1310 C   0  0  0  0  0  0  0  0  0  0  0  0
  137.0940   77.1130  222.1100 C   0  0  0  0  0  0  0  0  0  0  0  0
  137.6710   78.3590  222.3490 C   0  0  0  0  0  0  0  0  0  0  0  0
  139.0250   78.4780  222.6130 C   0  0  0  0  0  0  0  0  0  0  0  0
  139.6020   79.7190  222.8540 C   0  0  0  0  0  0  0  0  0  0  0  0
  140.9550   79.7600  223.1110 C   0  0  0  0  0  0  0  0  0  0  0  0
  141.7400   81.3150  223.4240 Cl  0  0  0  0  0  0  0  0  0  0  0  0
  141.6870   78.5790  223.1220 C   0  0  0  0  0  0  0  0  0  0  0  0
  141.1030   77.3570  222.8820 C   0  0  0  0  0  0  0  0  0  0  0  0
  139.7520   77.3050  222.6240 C   0  0  0  0  0  0  0  0  0  0  0  0
  139.1730   76.1140  222.3900 N   0  0  0  0  0  0  0  0  0  0  0  0
  140.1750   69.8390  226.4250 C   0  0  0  0  0  0  0  0  0  0  0  0
  141.0200   70.7180  225.7820 C   0  0  0  0  0  0  0  0  0  0  0  0
  141.4420   71.8870  226.4030 C   0  0  0  0  0  0  0  0  0  0  0  0
  141.0230   72.1950  227.6790 C   0  0  0  0  0  0  0  0  0  0  0  0
  140.1770   71.3290  228.3430 C   0  0  0  0  0  0  0  0  0  0  0  0
  139.7760   70.1770  227.6990 C   0  0  0  0  0  0  0  0  0  0  0  0
  139.9384   67.5496  227.5164 H   0  0  0  0  0  0  0  0  0  0  0  0
  139.1578   66.6988  226.1403 H   0  0  0  0  0  0  0  0  0  0  0  0
  140.9342   66.9654  226.1403 H   0  0  0  0  0  0  0  0  0  0  0  0
  139.7591   69.2739  223.7499 H   0  0  0  0  0  0  0  0  0  0  0  0
  139.1716   67.6142  224.0282 H   0  0  0  0  0  0  0  0  0  0  0  0
  137.0815   68.3097  224.5538 H   0  0  0  0  0  0  0  0  0  0  0  0
  137.7378   69.7429  225.4940 H   0  0  0  0  0  0  0  0  0  0  0  0
  136.5550   69.8140  222.8810 H   0  0  0  0  0  0  0  0  0  0  0  0
  137.9162   71.7421  221.2040 H   0  0  0  0  0  0  0  0  0  0  0  0
  136.4443   72.1126  222.1573 H   0  0  0  0  0  0  0  0  0  0  0  0
  138.9310   73.6430  222.8180 H   0  0  0  0  0  0  0  0  0  0  0  0
  136.0160   77.0426  221.9027 H   0  0  0  0  0  0  0  0  0  0  0  0
  137.0416   79.2609  222.3276 H   0  0  0  0  0  0  0  0  0  0  0  0
  138.9983   80.6385  222.8401 H   0  0  0  0  0  0  0  0  0  0  0  0
  142.7665   78.6227  223.3289 H   0  0  0  0  0  0  0  0  0  0  0  0
  141.7055   76.4368  222.8960 H   0  0  0  0  0  0  0  0  0  0  0  0
  141.3651   70.4906  224.7626 H   0  0  0  0  0  0  0  0  0  0  0  0
  142.1171   72.5733  225.8709 H   0  0  0  0  0  0  0  0  0  0  0  0
  141.3596   73.1229  228.1645 H   0  0  0  0  0  0  0  0  0  0  0  0
  139.8306   71.5528  229.3628 H   0  0  0  0  0  0  0  0  0  0  0  0
  139.1010   69.4912  228.2319 H   0  0  0  0  0  0  0  0  0  0  0  0
  1  2  1  0
  2  3  1  0
  3  4  1  0
  4  5  1  0
  5  6  1  0
  6  7  2  0
  6  8  1  0
  8  9  1  0
  9 10  1  0
 10 11  2  0
 10 12  1  0
 12 13  2  0
 13 14  1  0
 14 15  2  0
 15 16  1  0
 16 17  2  0
 17 18  1  0
 17 19  1  0
 19 20  2  0
 20 21  1  0
 21 22  2  0
  2 23  1  0
 23 24  2  0
 24 25  1  0
 25 26  2  0
 26 27  1  0
 27 28  2  0
 22 12  1  0
 28 23  1  0
 21 15  1  0
  1 29  1  0
  1 30  1  0
  1 31  1  0
  3 32  1  0
  3 33  1  0
  4 34  1  0
  4 35  1  0
  5 36  1  0
  8 37  1  0
  8 38  1  0
  9 39  1  0
 13 40  1  0
 14 41  1  0
 16 42  1  0
 19 43  1  0
 20 44  1  0
 24 45  1  0
 25 46  1  0
 26 47  1  0
 27 48  1  0
 28 49  1  0
M  END
>  <smiles>  (33) 
CN(CCNC(=O)CNC(=O)c1ccc2cc(Cl)ccc2n1)c1ccccc1

>  <score_type>  (33) 
oracle

>  <origin>  (33) 
autodockgpu

>  <m_score__min__energy>  (33) 
-8.1899999999999995

>  <m_primary>  (33) 
energy

>  <rmsd>  (33) 
8.944825617335084

>  <m_score__min__rmsd>  (33) 
8.944825617335084

>  <meeko>  (33) 
{"free_energy": -7.84, "intermolecular_energy": -9.93, "internal_energy": -1.94, "cluster_size": 15, "cluster_id": 2, "rank_in_cluster": 5}

>  <energy>  (33) 
-7.67

>  <cluster_rmsd>  (33) 
1.41

>  <cluster>  (33) 
2

$$$$

     RDKit          3D

 49 51  0  0  0  0  0  0  0  0999 V2000
  138.3150   80.1140  223.8110 C   0  0  0  0  0  0  0  0  0  0  0  0
  139.2230   80.0720  222.6860 N   0  0  0  0  0  0  0  0  0  0  0  0
  138.6540   79.9070  221.3650 C   0  0  0  0  0  0  0  0  0  0  0  0
  137.7580   78.6960  221.4030 C   0  0  0  0  0  0  0  0  0  0  0  0
  138.3660   77.4880  220.9230 N   0  0  0  0  0  0  0  0  0  0  0  0
  138.8840   76.4830  221.8210 C   0  0  0  0  0  0  0  0  0  0  0  0
  138.8140   76.6450  223.0670 O   0  0  0  0  0  0  0  0  0  0  0  0
  139.4830   75.2880  221.1810 C   0  0  0  0  0  0  0  0  0  0  0  0
  139.5700   74.2250  222.1600 N   0  0  0  0  0  0  0  0  0  0  0  0
  139.8550   72.8800  221.8300 C   0  0  0  0  0  0  0  0  0  0  0  0
  140.0530   72.5210  220.6240 O   0  0  0  0  0  0  0  0  0  0  0  0
  139.9170   71.8980  222.9330 C   0  0  0  0  0  0  0  0  0  0  0  0
  139.4890   70.5960  222.7730 C   0  0  0  0  0  0  0  0  0  0  0  0
  139.5630   69.6880  223.8290 C   0  0  0  0  0  0  0  0  0  0  0  0
  140.0680   70.0690  225.0620 C   0  0  0  0  0  0  0  0  0  0  0  0
  140.1450   69.1670  226.1140 C   0  0  0  0  0  0  0  0  0  0  0  0
  140.6590   69.6170  227.3110 C   0  0  0  0  0  0  0  0  0  0  0  0
  140.7790   68.5070  228.6840 Cl  0  0  0  0  0  0  0  0  0  0  0  0
  141.0780   70.9370  227.4240 C   0  0  0  0  0  0  0  0  0  0  0  0
  140.9960   71.8200  226.3730 C   0  0  0  0  0  0  0  0  0  0  0  0
  140.4840   71.3810  225.1730 C   0  0  0  0  0  0  0  0  0  0  0  0
  140.4020   72.2380  224.1400 N   0  0  0  0  0  0  0  0  0  0  0  0
  140.6110   80.1980  222.9440 C   0  0  0  0  0  0  0  0  0  0  0  0
  141.0530   81.2450  223.7230 C   0  0  0  0  0  0  0  0  0  0  0  0
  142.4050   81.4090  224.0000 C   0  0  0  0  0  0  0  0  0  0  0  0
  143.3360   80.5240  223.5010 C   0  0  0  0  0  0  0  0  0  0  0  0
  142.9160   79.4670  222.7180 C   0  0  0  0  0  0  0  0  0  0  0  0
  141.5670   79.3330  222.4610 C   0  0  0  0  0  0  0  0  0  0  0  0
  138.8906   80.0874  224.7480 H   0  0  0  0  0  0  0  0  0  0  0  0
  137.7234   81.0405  223.7703 H   0  0  0  0  0  0  0  0  0  0  0  0
  137.6404   79.2461  223.7703 H   0  0  0  0  0  0  0  0  0  0  0  0
  138.0688   80.7983  221.0946 H   0  0  0  0  0  0  0  0  0  0  0  0
  139.4486   79.7764  220.6156 H   0  0  0  0  0  0  0  0  0  0  0  0
  137.4460   78.5325  222.4451 H   0  0  0  0  0  0  0  0  0  0  0  0
  136.9154   78.9102  220.7290 H   0  0  0  0  0  0  0  0  0  0  0  0
  138.4430   77.3160  219.8740 H   0  0  0  0  0  0  0  0  0  0  0  0
  138.8522   74.9645  220.3399 H   0  0  0  0  0  0  0  0  0  0  0  0
  140.4877   75.5311  220.8049 H   0  0  0  0  0  0  0  0  0  0  0  0
  139.4090   74.4850  223.1730 H   0  0  0  0  0  0  0  0  0  0  0  0
  139.0853   70.2709  221.8027 H   0  0  0  0  0  0  0  0  0  0  0  0
  139.2156   68.6548  223.6811 H   0  0  0  0  0  0  0  0  0  0  0  0
  139.8069   68.1269  225.9963 H   0  0  0  0  0  0  0  0  0  0  0  0
  141.4877   71.2862  228.3832 H   0  0  0  0  0  0  0  0  0  0  0  0
  141.3341   72.8603  226.4893 H   0  0  0  0  0  0  0  0  0  0  0  0
  140.3252   81.9615  224.1316 H   0  0  0  0  0  0  0  0  0  0  0  0
  142.7350   82.2531  224.6234 H   0  0  0  0  0  0  0  0  0  0  0  0
  144.4046   80.6584  223.7245 H   0  0  0  0  0  0  0  0  0  0  0  0
  143.6406   78.7479  222.3083 H   0  0  0  0  0  0  0  0  0  0  0  0
  141.2376   78.4895  221.8365 H   0  0  0  0  0  0  0  0  0  0  0  0
  1  2  1  0
  2  3  1  0
  3  4  1  0
  4  5  1  0
  5  6  1  0
  6  7  2  0
  6  8  1  0
  8  9  1  0
  9 10  1  0
 10 11  2  0
 10 12  1  0
 12 13  2  0
 13 14  1  0
 14 15  2  0
 15 16  1  0
 16 17  2  0
 17 18  1  0
 17 19  1  0
 19 20  2  0
 20 21  1  0
 21 22  2  0
  2 23  1  0
 23 24  2  0
 24 25  1  0
 25 26  2  0
 26 27  1  0
 27 28  2  0
 22 12  1  0
 28 23  1  0
 21 15  1  0
  1 29  1  0
  1 30  1  0
  1 31  1  0
  3 32  1  0
  3 33  1  0
  4 34  1  0
  4 35  1  0
  5 36  1  0
  8 37  1  0
  8 38  1  0
  9 39  1  0
 13 40  1  0
 14 41  1  0
 16 42  1  0
 19 43  1  0
 20 44  1  0
 24 45  1  0
 25 46  1  0
 26 47  1  0
 27 48  1  0
 28 49  1  0
M  END
>  <smiles>  (34) 
CN(CCNC(=O)CNC(=O)c1ccc2cc(Cl)ccc2n1)c1ccccc1

>  <score_type>  (34) 
oracle

>  <origin>  (34) 
autodockgpu

>  <m_score__min__energy>  (34) 
-8.1899999999999995

>  <m_primary>  (34) 
energy

>  <rmsd>  (34) 
5.656541328257032

>  <m_score__min__rmsd>  (34) 
5.656541328257032

>  <meeko>  (34) 
{"free_energy": -8.04, "intermolecular_energy": -10.13, "internal_energy": -1.92, "cluster_size": 27, "cluster_id": 1, "rank_in_cluster": 8}

>  <energy>  (34) 
-7.61

>  <cluster_rmsd>  (34) 
1.53

>  <cluster>  (34) 
2

$$$$

     RDKit          3D

 49 51  0  0  0  0  0  0  0  0999 V2000
  138.2700   80.1900  223.7700 C   0  0  0  0  0  0  0  0  0  0  0  0
  139.2700   79.6660  222.8640 N   0  0  0  0  0  0  0  0  0  0  0  0
  138.8190   78.8380  221.7660 C   0  0  0  0  0  0  0  0  0  0  0  0
  137.7340   77.9340  222.2930 C   0  0  0  0  0  0  0  0  0  0  0  0
  137.7540   76.6020  221.7590 N   0  0  0  0  0  0  0  0  0  0  0  0
  138.8880   75.7260  221.9350 C   0  0  0  0  0  0  0  0  0  0  0  0
  139.9020   76.1150  222.5710 O   0  0  0  0  0  0  0  0  0  0  0  0
  138.7660   74.3790  221.3290 C   0  0  0  0  0  0  0  0  0  0  0  0
  139.0500   73.3810  222.3400 N   0  0  0  0  0  0  0  0  0  0  0  0
  138.7910   72.0010  222.1700 C   0  0  0  0  0  0  0  0  0  0  0  0
  138.2810   71.5500  221.0940 O   0  0  0  0  0  0  0  0  0  0  0  0
  139.1350   71.0940  223.2860 C   0  0  0  0  0  0  0  0  0  0  0  0
  138.8590   69.7430  223.2360 C   0  0  0  0  0  0  0  0  0  0  0  0
  139.1980   68.9090  224.3010 C   0  0  0  0  0  0  0  0  0  0  0  0
  139.8190   69.4130  225.4310 C   0  0  0  0  0  0  0  0  0  0  0  0
  140.1600   68.5840  226.4920 C   0  0  0  0  0  0  0  0  0  0  0  0
  140.7770   69.1560  227.5830 C   0  0  0  0  0  0  0  0  0  0  0  0
  141.2320   68.1440  228.9620 Cl  0  0  0  0  0  0  0  0  0  0  0  0
  141.0340   70.5220  227.5880 C   0  0  0  0  0  0  0  0  0  0  0  0
  140.6920   71.3310  226.5300 C   0  0  0  0  0  0  0  0  0  0  0  0
  140.0750   70.7700  225.4350 C   0  0  0  0  0  0  0  0  0  0  0  0
  139.7380   71.5540  224.3960 N   0  0  0  0  0  0  0  0  0  0  0  0
  140.6270   79.9970  223.1050 C   0  0  0  0  0  0  0  0  0  0  0  0
  141.6120   79.1380  222.6680 C   0  0  0  0  0  0  0  0  0  0  0  0
  142.9550   79.4200  222.8840 C   0  0  0  0  0  0  0  0  0  0  0  0
  143.3330   80.5710  223.5420 C   0  0  0  0  0  0  0  0  0  0  0  0
  142.3630   81.4460  223.9900 C   0  0  0  0  0  0  0  0  0  0  0  0
  141.0390   81.1360  223.7590 C   0  0  0  0  0  0  0  0  0  0  0  0
  138.5917   80.0215  224.8083 H   0  0  0  0  0  0  0  0  0  0  0  0
  138.1461   81.2689  223.5951 H   0  0  0  0  0  0  0  0  0  0  0  0
  137.3124   79.6778  223.5951 H   0  0  0  0  0  0  0  0  0  0  0  0
  138.4213   79.4700  220.9583 H   0  0  0  0  0  0  0  0  0  0  0  0
  139.6527   78.2456  221.3609 H   0  0  0  0  0  0  0  0  0  0  0  0
  137.8436   77.8673  223.3855 H   0  0  0  0  0  0  0  0  0  0  0  0
  136.7780   78.3802  221.9816 H   0  0  0  0  0  0  0  0  0  0  0  0
  136.9140   76.2380  221.2150 H   0  0  0  0  0  0  0  0  0  0  0  0
  137.7442   74.2372  220.9472 H   0  0  0  0  0  0  0  0  0  0  0  0
  139.4786   74.2792  220.4969 H   0  0  0  0  0  0  0  0  0  0  0  0
  139.4740   73.7200  223.2490 H   0  0  0  0  0  0  0  0  0  0  0  0
  138.3670   69.3199  222.3478 H   0  0  0  0  0  0  0  0  0  0  0  0
  138.9686   67.8348  224.2423 H   0  0  0  0  0  0  0  0  0  0  0  0
  139.9444   67.5057  226.4622 H   0  0  0  0  0  0  0  0  0  0  0  0
  141.5257   70.9692  228.4645 H   0  0  0  0  0  0  0  0  0  0  0  0
  140.9081   72.4092  226.5583 H   0  0  0  0  0  0  0  0  0  0  0  0
  141.3305   78.2149  222.1401 H   0  0  0  0  0  0  0  0  0  0  0  0
  143.7236   78.7188  222.5269 H   0  0  0  0  0  0  0  0  0  0  0  0
  144.3979   80.7905  223.7087 H   0  0  0  0  0  0  0  0  0  0  0  0
  142.6401   82.3696  224.5193 H   0  0  0  0  0  0  0  0  0  0  0  0
  140.2706   81.8371  224.1168 H   0  0  0  0  0  0  0  0  0  0  0  0
  1  2  1  0
  2  3  1  0
  3  4  1  0
  4  5  1  0
  5  6  1  0
  6  7  2  0
  6  8  1  0
  8  9  1  0
  9 10  1  0
 10 11  2  0
 10 12  1  0
 12 13  2  0
 13 14  1  0
 14 15  2  0
 15 16  1  0
 16 17  2  0
 17 18  1  0
 17 19  1  0
 19 20  2  0
 20 21  1  0
 21 22  2  0
  2 23  1  0
 23 24  2  0
 24 25  1  0
 25 26  2  0
 26 27  1  0
 27 28  2  0
 22 12  1  0
 28 23  1  0
 21 15  1  0
  1 29  1  0
  1 30  1  0
  1 31  1  0
  3 32  1  0
  3 33  1  0
  4 34  1  0
  4 35  1  0
  5 36  1  0
  8 37  1  0
  8 38  1  0
  9 39  1  0
 13 40  1  0
 14 41  1  0
 16 42  1  0
 19 43  1  0
 20 44  1  0
 24 45  1  0
 25 46  1  0
 26 47  1  0
 27 48  1  0
 28 49  1  0
M  END
>  <smiles>  (35) 
CN(CCNC(=O)CNC(=O)c1ccc2cc(Cl)ccc2n1)c1ccccc1

>  <score_type>  (35) 
oracle

>  <origin>  (35) 
autodockgpu

>  <m_score__min__energy>  (35) 
-8.1899999999999995

>  <m_primary>  (35) 
energy

>  <rmsd>  (35) 
5.7452885054992455

>  <m_score__min__rmsd>  (35) 
5.7452885054992455

>  <meeko>  (35) 
{"free_energy": -8.19, "intermolecular_energy": -10.28, "internal_energy": -1.64, "cluster_size": 27, "cluster_id": 1, "rank_in_cluster": 2}

>  <energy>  (35) 
-7.58

>  <cluster_rmsd>  (35) 
1.49

>  <cluster>  (35) 
2

$$$$

     RDKit          3D

 49 51  0  0  0  0  0  0  0  0999 V2000
  139.1740   67.5680  226.3040 C   0  0  0  0  0  0  0  0  0  0  0  0
  139.1010   68.8760  225.6890 N   0  0  0  0  0  0  0  0  0  0  0  0
  138.3400   69.0060  224.4650 C   0  0  0  0  0  0  0  0  0  0  0  0
  137.4780   70.2350  224.5940 C   0  0  0  0  0  0  0  0  0  0  0  0
  136.1300   69.9790  225.0170 N   0  0  0  0  0  0  0  0  0  0  0  0
  135.2950   69.0020  224.3580 C   0  0  0  0  0  0  0  0  0  0  0  0
  135.7350   68.3420  223.3810 O   0  0  0  0  0  0  0  0  0  0  0  0
  133.9270   68.8450  224.9050 C   0  0  0  0  0  0  0  0  0  0  0  0
  133.4250   70.1470  225.2950 N   0  0  0  0  0  0  0  0  0  0  0  0
  133.6600   70.7260  226.5640 C   0  0  0  0  0  0  0  0  0  0  0  0
  134.3390   70.1200  227.4540 O   0  0  0  0  0  0  0  0  0  0  0  0
  133.0900   72.0650  226.8250 C   0  0  0  0  0  0  0  0  0  0  0  0
  131.8630   72.2270  227.4360 C   0  0  0  0  0  0  0  0  0  0  0  0
  131.3510   73.5020  227.6750 C   0  0  0  0  0  0  0  0  0  0  0  0
  132.0590   74.6340  227.3080 C   0  0  0  0  0  0  0  0  0  0  0  0
  131.5520   75.9050  227.5480 C   0  0  0  0  0  0  0  0  0  0  0  0
  132.3140   76.9850  227.1560 C   0  0  0  0  0  0  0  0  0  0  0  0
  131.7140   78.6260  227.4370 Cl  0  0  0  0  0  0  0  0  0  0  0  0
  133.5430   76.7720  226.5450 C   0  0  0  0  0  0  0  0  0  0  0  0
  134.0330   75.5080  226.3150 C   0  0  0  0  0  0  0  0  0  0  0  0
  133.2810   74.4220  226.7020 C   0  0  0  0  0  0  0  0  0  0  0  0
  133.7540   73.1820  226.4810 N   0  0  0  0  0  0  0  0  0  0  0  0
  139.7760   69.9490  226.3230 C   0  0  0  0  0  0  0  0  0  0  0  0
  139.6120   70.1340  227.6790 C   0  0  0  0  0  0  0  0  0  0  0  0
  140.2520   71.1740  228.3410 C   0  0  0  0  0  0  0  0  0  0  0  0
  141.0710   72.0450  227.6550 C   0  0  0  0  0  0  0  0  0  0  0  0
  141.2510   71.8790  226.2960 C   0  0  0  0  0  0  0  0  0  0  0  0
  140.6010   70.8370  225.6680 C   0  0  0  0  0  0  0  0  0  0  0  0
  139.1679   67.6766  227.3986 H   0  0  0  0  0  0  0  0  0  0  0  0
  138.3080   66.9665  225.9904 H   0  0  0  0  0  0  0  0  0  0  0  0
  140.1015   67.0666  225.9904 H   0  0  0  0  0  0  0  0  0  0  0  0
  139.0220   69.1142  223.6088 H   0  0  0  0  0  0  0  0  0  0  0  0
  137.7187   68.1135  224.2993 H   0  0  0  0  0  0  0  0  0  0  0  0
  137.9462   70.9067  225.3286 H   0  0  0  0  0  0  0  0  0  0  0  0
  137.4104   70.6748  223.5880 H   0  0  0  0  0  0  0  0  0  0  0  0
  135.7230   70.5180  225.8400 H   0  0  0  0  0  0  0  0  0  0  0  0
  133.2699   68.4108  224.1371 H   0  0  0  0  0  0  0  0  0  0  0  0
  133.9495   68.1773  225.7789 H   0  0  0  0  0  0  0  0  0  0  0  0
  132.8550   70.6800  224.5810 H   0  0  0  0  0  0  0  0  0  0  0  0
  131.2834   71.3420  227.7373 H   0  0  0  0  0  0  0  0  0  0  0  0
  130.3706   73.6100  228.1621 H   0  0  0  0  0  0  0  0  0  0  0  0
  130.5754   76.0449  228.0345 H   0  0  0  0  0  0  0  0  0  0  0  0
  134.1425   77.6409  226.2357 H   0  0  0  0  0  0  0  0  0  0  0  0
  135.0100   75.3670  225.8297 H   0  0  0  0  0  0  0  0  0  0  0  0
  138.9648   69.4480  228.2452 H   0  0  0  0  0  0  0  0  0  0  0  0
  140.1038   71.3038  229.4232 H   0  0  0  0  0  0  0  0  0  0  0  0
  141.5768   72.8652  228.1855 H   0  0  0  0  0  0  0  0  0  0  0  0
  141.8983   72.5625  225.7269 H   0  0  0  0  0  0  0  0  0  0  0  0
  140.7493   70.7081  224.5857 H   0  0  0  0  0  0  0  0  0  0  0  0
  1  2  1  0
  2  3  1  0
  3  4  1  0
  4  5  1  0
  5  6  1  0
  6  7  2  0
  6  8  1  0
  8  9  1  0
  9 10  1  0
 10 11  2  0
 10 12  1  0
 12 13  2  0
 13 14  1  0
 14 15  2  0
 15 16  1  0
 16 17  2  0
 17 18  1  0
 17 19  1  0
 19 20  2  0
 20 21  1  0
 21 22  2  0
  2 23  1  0
 23 24  2  0
 24 25  1  0
 25 26  2  0
 26 27  1  0
 27 28  2  0
 22 12  1  0
 28 23  1  0
 21 15  1  0
  1 29  1  0
  1 30  1  0
  1 31  1  0
  3 32  1  0
  3 33  1  0
  4 34  1  0
  4 35  1  0
  5 36  1  0
  8 37  1  0
  8 38  1  0
  9 39  1  0
 13 40  1  0
 14 41  1  0
 16 42  1  0
 19 43  1  0
 20 44  1  0
 24 45  1  0
 25 46  1  0
 26 47  1  0
 27 48  1  0
 28 49  1  0
M  END
>  <smiles>  (36) 
CN(CCNC(=O)CNC(=O)c1ccc2cc(Cl)ccc2n1)c1ccccc1

>  <score_type>  (36) 
oracle

>  <origin>  (36) 
autodockgpu

>  <m_score__min__energy>  (36) 
-8.1899999999999995

>  <m_primary>  (36) 
energy

>  <rmsd>  (36) 
8.542839010807826

>  <m_score__min__rmsd>  (36) 
8.542839010807826

>  <meeko>  (36) 
{"free_energy": -7.98, "intermolecular_energy": -10.07, "internal_energy": -1.83, "cluster_size": 4, "cluster_id": 3, "rank_in_cluster": 1}

>  <energy>  (36) 
-7.44

>  <cluster_rmsd>  (36) 
1.71

>  <cluster>  (36) 
2

$$$$

     RDKit          3D

 49 51  0  0  0  0  0  0  0  0999 V2000
  141.8120   79.2610  219.3450 C   0  0  0  0  0  0  0  0  0  0  0  0
  141.5770   78.7770  220.6880 N   0  0  0  0  0  0  0  0  0  0  0  0
  141.1450   77.4040  220.8450 C   0  0  0  0  0  0  0  0  0  0  0  0
  139.6690   77.3530  220.5440 C   0  0  0  0  0  0  0  0  0  0  0  0
  139.1370   76.0300  220.3860 N   0  0  0  0  0  0  0  0  0  0  0  0
  139.0480   75.1050  221.4910 C   0  0  0  0  0  0  0  0  0  0  0  0
  139.4410   75.4410  222.6380 O   0  0  0  0  0  0  0  0  0  0  0  0
  138.4770   73.7730  221.1770 C   0  0  0  0  0  0  0  0  0  0  0  0
  138.8270   72.8510  222.2370 N   0  0  0  0  0  0  0  0  0  0  0  0
  138.5760   71.4600  222.1760 C   0  0  0  0  0  0  0  0  0  0  0  0
  138.0140   70.9320  221.1630 O   0  0  0  0  0  0  0  0  0  0  0  0
  138.9900   70.6350  223.3310 C   0  0  0  0  0  0  0  0  0  0  0  0
  138.7480   69.2780  223.3790 C   0  0  0  0  0  0  0  0  0  0  0  0
  139.1540   68.5220  224.4790 C   0  0  0  0  0  0  0  0  0  0  0  0
  139.8090   69.1120  225.5460 C   0  0  0  0  0  0  0  0  0  0  0  0
  140.2160   68.3610  226.6410 C   0  0  0  0  0  0  0  0  0  0  0  0
  140.8640   69.0170  227.6660 C   0  0  0  0  0  0  0  0  0  0  0  0
  141.4030   68.1070  229.0840 Cl  0  0  0  0  0  0  0  0  0  0  0  0
  141.0860   70.3850  227.5720 C   0  0  0  0  0  0  0  0  0  0  0  0
  140.6780   71.1170  226.4810 C   0  0  0  0  0  0  0  0  0  0  0  0
  140.0300   70.4720  225.4520 C   0  0  0  0  0  0  0  0  0  0  0  0
  139.6290   71.1800  224.3810 N   0  0  0  0  0  0  0  0  0  0  0  0
  141.7840   79.6730  221.7660 C   0  0  0  0  0  0  0  0  0  0  0  0
  142.1770   79.1690  222.9880 C   0  0  0  0  0  0  0  0  0  0  0  0
  142.3900   80.0110  224.0730 C   0  0  0  0  0  0  0  0  0  0  0  0
  142.2140   81.3720  223.9510 C   0  0  0  0  0  0  0  0  0  0  0  0
  141.8200   81.8990  222.7360 C   0  0  0  0  0  0  0  0  0  0  0  0
  141.6180   81.0370  221.6790 C   0  0  0  0  0  0  0  0  0  0  0  0
  142.2920   80.2497  219.3903 H   0  0  0  0  0  0  0  0  0  0  0  0
  142.4693   78.5584  218.8118 H   0  0  0  0  0  0  0  0  0  0  0  0
  140.8534   79.3429  218.8118 H   0  0  0  0  0  0  0  0  0  0  0  0
  141.6931   76.7561  220.1451 H   0  0  0  0  0  0  0  0  0  0  0  0
  141.3429   77.0515  221.8680 H   0  0  0  0  0  0  0  0  0  0  0  0
  139.1331   77.8418  221.3710 H   0  0  0  0  0  0  0  0  0  0  0  0
  139.5299   77.8622  219.5790 H   0  0  0  0  0  0  0  0  0  0  0  0
  138.7950   75.7090  219.4290 H   0  0  0  0  0  0  0  0  0  0  0  0
  137.3823   73.8493  221.1004 H   0  0  0  0  0  0  0  0  0  0  0  0
  138.8803   73.4109  220.2198 H   0  0  0  0  0  0  0  0  0  0  0  0
  139.2950   73.2550  223.0950 H   0  0  0  0  0  0  0  0  0  0  0  0
  138.2299   68.7871  222.5420 H   0  0  0  0  0  0  0  0  0  0  0  0
  138.9506   67.4412  224.4986 H   0  0  0  0  0  0  0  0  0  0  0  0
  140.0276   67.2783  226.6890 H   0  0  0  0  0  0  0  0  0  0  0  0
  141.6040   70.8988  228.3952 H   0  0  0  0  0  0  0  0  0  0  0  0
  140.8664   72.1996  226.4318 H   0  0  0  0  0  0  0  0  0  0  0  0
  142.3240   78.0852  223.1057 H   0  0  0  0  0  0  0  0  0  0  0  0
  142.7022   79.5866  225.0386 H   0  0  0  0  0  0  0  0  0  0  0  0
  142.3856   82.0332  224.8132 H   0  0  0  0  0  0  0  0  0  0  0  0
  141.6708   82.9821  222.6147 H   0  0  0  0  0  0  0  0  0  0  0  0
  141.3072   81.4624  220.7134 H   0  0  0  0  0  0  0  0  0  0  0  0
  1  2  1  0
  2  3  1  0
  3  4  1  0
  4  5  1  0
  5  6  1  0
  6  7  2  0
  6  8  1  0
  8  9  1  0
  9 10  1  0
 10 11  2  0
 10 12  1  0
 12 13  2  0
 13 14  1  0
 14 15  2  0
 15 16  1  0
 16 17  2  0
 17 18  1  0
 17 19  1  0
 19 20  2  0
 20 21  1  0
 21 22  2  0
  2 23  1  0
 23 24  2  0
 24 25  1  0
 25 26  2  0
 26 27  1  0
 27 28  2  0
 22 12  1  0
 28 23  1  0
 21 15  1  0
  1 29  1  0
  1 30  1  0
  1 31  1  0
  3 32  1  0
  3 33  1  0
  4 34  1  0
  4 35  1  0
  5 36  1  0
  8 37  1  0
  8 38  1  0
  9 39  1  0
 13 40  1  0
 14 41  1  0
 16 42  1  0
 19 43  1  0
 20 44  1  0
 24 45  1  0
 25 46  1  0
 26 47  1  0
 27 48  1  0
 28 49  1  0
M  END
>  <smiles>  (37) 
CN(CCNC(=O)CNC(=O)c1ccc2cc(Cl)ccc2n1)c1ccccc1

>  <score_type>  (37) 
oracle

>  <origin>  (37) 
autodockgpu

>  <m_score__min__energy>  (37) 
-8.1899999999999995

>  <m_primary>  (37) 
energy

>  <rmsd>  (37) 
5.092735205722599

>  <m_score__min__rmsd>  (37) 
5.092735205722599

>  <meeko>  (37) 
{"free_energy": -7.9, "intermolecular_energy": -9.99, "internal_energy": -1.85, "cluster_size": 27, "cluster_id": 1, "rank_in_cluster": 19}

>  <energy>  (37) 
-7.41

>  <cluster_rmsd>  (37) 
1.65

>  <cluster>  (37) 
2

$$$$

     RDKit          3D

 49 51  0  0  0  0  0  0  0  0999 V2000
  138.0030   80.5140  222.6440 C   0  0  0  0  0  0  0  0  0  0  0  0
  138.9500   79.4670  222.3250 N   0  0  0  0  0  0  0  0  0  0  0  0
  138.4350   78.2400  221.7550 C   0  0  0  0  0  0  0  0  0  0  0  0
  138.7740   77.1190  222.7030 C   0  0  0  0  0  0  0  0  0  0  0  0
  139.2430   75.9210  222.0680 N   0  0  0  0  0  0  0  0  0  0  0  0
  140.5320   75.8530  221.4210 C   0  0  0  0  0  0  0  0  0  0  0  0
  141.2880   76.8580  221.3970 O   0  0  0  0  0  0  0  0  0  0  0  0
  140.8810   74.5490  220.8080 C   0  0  0  0  0  0  0  0  0  0  0  0
  140.8300   73.5220  221.8280 N   0  0  0  0  0  0  0  0  0  0  0  0
  139.6700   72.7700  222.1230 C   0  0  0  0  0  0  0  0  0  0  0  0
  138.5790   72.9600  221.4930 O   0  0  0  0  0  0  0  0  0  0  0  0
  139.7620   71.7500  223.1880 C   0  0  0  0  0  0  0  0  0  0  0  0
  139.2910   70.4660  223.0090 C   0  0  0  0  0  0  0  0  0  0  0  0
  139.3950   69.5210  224.0300 C   0  0  0  0  0  0  0  0  0  0  0  0
  139.9740   69.8470  225.2460 C   0  0  0  0  0  0  0  0  0  0  0  0
  140.0810   68.9080  226.2630 C   0  0  0  0  0  0  0  0  0  0  0  0
  140.6690   69.3040  227.4450 C   0  0  0  0  0  0  0  0  0  0  0  0
  140.8300   68.1460  228.7730 Cl  0  0  0  0  0  0  0  0  0  0  0  0
  141.1300   70.6080  227.5780 C   0  0  0  0  0  0  0  0  0  0  0  0
  141.0170   71.5280  226.5620 C   0  0  0  0  0  0  0  0  0  0  0  0
  140.4310   71.1430  225.3780 C   0  0  0  0  0  0  0  0  0  0  0  0
  140.3190   72.0360  224.3780 N   0  0  0  0  0  0  0  0  0  0  0  0
  140.3220   79.7060  222.5870 C   0  0  0  0  0  0  0  0  0  0  0  0
  140.8370   79.3620  223.8190 C   0  0  0  0  0  0  0  0  0  0  0  0
  142.1760   79.5810  224.1200 C   0  0  0  0  0  0  0  0  0  0  0  0
  143.0210   80.1470  223.1910 C   0  0  0  0  0  0  0  0  0  0  0  0
  142.5270   80.5010  221.9510 C   0  0  0  0  0  0  0  0  0  0  0  0
  141.1940   80.2700  221.6820 C   0  0  0  0  0  0  0  0  0  0  0  0
  137.9164   80.6097  223.7364 H   0  0  0  0  0  0  0  0  0  0  0  0
  138.3525   81.4665  222.2190 H   0  0  0  0  0  0  0  0  0  0  0  0
  137.0203   80.2615  222.2190 H   0  0  0  0  0  0  0  0  0  0  0  0
  137.3440   78.3117  221.6340 H   0  0  0  0  0  0  0  0  0  0  0  0
  138.8803   78.0571  220.7660 H   0  0  0  0  0  0  0  0  0  0  0  0
  139.5584   77.4740  223.3876 H   0  0  0  0  0  0  0  0  0  0  0  0
  137.8393   76.8532  223.2184 H   0  0  0  0  0  0  0  0  0  0  0  0
  138.6310   75.0490  222.0670 H   0  0  0  0  0  0  0  0  0  0  0  0
  140.1624   74.3123  220.0095 H   0  0  0  0  0  0  0  0  0  0  0  0
  141.8927   74.5980  220.3789 H   0  0  0  0  0  0  0  0  0  0  0  0
  141.7190   73.3380  222.3730 H   0  0  0  0  0  0  0  0  0  0  0  0
  138.8287   70.1843  222.0515 H   0  0  0  0  0  0  0  0  0  0  0  0
  139.0120   68.5027  223.8675 H   0  0  0  0  0  0  0  0  0  0  0  0
  139.7087   67.8815  226.1298 H   0  0  0  0  0  0  0  0  0  0  0  0
  141.5996   70.9138  228.5246 H   0  0  0  0  0  0  0  0  0  0  0  0
  141.3890   72.5548  226.6937 H   0  0  0  0  0  0  0  0  0  0  0  0
  140.1787   78.9078  224.5742 H   0  0  0  0  0  0  0  0  0  0  0  0
  142.5648   79.2996  225.1098 H   0  0  0  0  0  0  0  0  0  0  0  0
  144.0803   80.3156  223.4348 H   0  0  0  0  0  0  0  0  0  0  0  0
  143.1822   80.9572  221.1943 H   0  0  0  0  0  0  0  0  0  0  0  0
  140.8065   80.5512  220.6917 H   0  0  0  0  0  0  0  0  0  0  0  0
  1  2  1  0
  2  3  1  0
  3  4  1  0
  4  5  1  0
  5  6  1  0
  6  7  2  0
  6  8  1  0
  8  9  1  0
  9 10  1  0
 10 11  2  0
 10 12  1  0
 12 13  2  0
 13 14  1  0
 14 15  2  0
 15 16  1  0
 16 17  2  0
 17 18  1  0
 17 19  1  0
 19 20  2  0
 20 21  1  0
 21 22  2  0
  2 23  1  0
 23 24  2  0
 24 25  1  0
 25 26  2  0
 26 27  1  0
 27 28  2  0
 22 12  1  0
 28 23  1  0
 21 15  1  0
  1 29  1  0
  1 30  1  0
  1 31  1  0
  3 32  1  0
  3 33  1  0
  4 34  1  0
  4 35  1  0
  5 36  1  0
  8 37  1  0
  8 38  1  0
  9 39  1  0
 13 40  1  0
 14 41  1  0
 16 42  1  0
 19 43  1  0
 20 44  1  0
 24 45  1  0
 25 46  1  0
 26 47  1  0
 27 48  1  0
 28 49  1  0
M  END
>  <smiles>  (38) 
CN(CCNC(=O)CNC(=O)c1ccc2cc(Cl)ccc2n1)c1ccccc1

>  <score_type>  (38) 
oracle

>  <origin>  (38) 
autodockgpu

>  <m_score__min__energy>  (38) 
-8.1899999999999995

>  <m_primary>  (38) 
energy

>  <rmsd>  (38) 
5.242479223246766

>  <m_score__min__rmsd>  (38) 
5.242479223246766

>  <meeko>  (38) 
{"free_energy": -7.45, "intermolecular_energy": -9.54, "internal_energy": -2.11, "cluster_size": 27, "cluster_id": 1, "rank_in_cluster": 26}

>  <energy>  (38) 
-7.37

>  <cluster_rmsd>  (38) 
1.72

>  <cluster>  (38) 
2

$$$$

     RDKit          3D

 49 51  0  0  0  0  0  0  0  0999 V2000
  140.3000   71.9100  223.3140 C   0  0  0  0  0  0  0  0  0  0  0  0
  140.0230   70.7180  224.0850 N   0  0  0  0  0  0  0  0  0  0  0  0
  139.5750   69.5410  223.3720 C   0  0  0  0  0  0  0  0  0  0  0  0
  138.0680   69.5480  223.3840 C   0  0  0  0  0  0  0  0  0  0  0  0
  137.4710   70.7000  222.7680 N   0  0  0  0  0  0  0  0  0  0  0  0
  136.4570   71.4830  223.4340 C   0  0  0  0  0  0  0  0  0  0  0  0
  136.0650   71.1710  224.5880 O   0  0  0  0  0  0  0  0  0  0  0  0
  135.9340   72.6440  222.6750 C   0  0  0  0  0  0  0  0  0  0  0  0
  136.9150   73.7080  222.7090 N   0  0  0  0  0  0  0  0  0  0  0  0
  138.0020   73.7980  221.8080 C   0  0  0  0  0  0  0  0  0  0  0  0
  138.1810   72.9260  220.8980 O   0  0  0  0  0  0  0  0  0  0  0  0
  138.9270   74.9410  221.9570 C   0  0  0  0  0  0  0  0  0  0  0  0
  140.2580   74.8500  221.6050 C   0  0  0  0  0  0  0  0  0  0  0  0
  141.1080   75.9470  221.7500 C   0  0  0  0  0  0  0  0  0  0  0  0
  140.6390   77.1500  222.2490 C   0  0  0  0  0  0  0  0  0  0  0  0
  141.4830   78.2440  222.3930 C   0  0  0  0  0  0  0  0  0  0  0  0
  140.9460   79.4090  222.8950 C   0  0  0  0  0  0  0  0  0  0  0  0
  141.9780   80.8320  223.0990 Cl  0  0  0  0  0  0  0  0  0  0  0  0
  139.5990   79.4530  223.2350 C   0  0  0  0  0  0  0  0  0  0  0  0
  138.7750   78.3620  223.0870 C   0  0  0  0  0  0  0  0  0  0  0  0
  139.3020   77.1930  222.5870 C   0  0  0  0  0  0  0  0  0  0  0  0
  138.5010   76.1220  222.4380 N   0  0  0  0  0  0  0  0  0  0  0  0
  140.2100   70.7740  225.4890 C   0  0  0  0  0  0  0  0  0  0  0  0
  140.9030   71.8370  226.0290 C   0  0  0  0  0  0  0  0  0  0  0  0
  141.1120   71.9310  227.3990 C   0  0  0  0  0  0  0  0  0  0  0  0
  140.6280   70.9630  228.2520 C   0  0  0  0  0  0  0  0  0  0  0  0
  139.9310   69.8900  227.7340 C   0  0  0  0  0  0  0  0  0  0  0  0
  139.7400   69.8250  226.3690 C   0  0  0  0  0  0  0  0  0  0  0  0
  140.4954   72.7507  223.9960 H   0  0  0  0  0  0  0  0  0  0  0  0
  141.1825   71.7396  222.6798 H   0  0  0  0  0  0  0  0  0  0  0  0
  139.4328   72.1462  222.6798 H   0  0  0  0  0  0  0  0  0  0  0  0
  139.9421   69.5679  222.3354 H   0  0  0  0  0  0  0  0  0  0  0  0
  139.9612   68.6288  223.8503 H   0  0  0  0  0  0  0  0  0  0  0  0
  137.7164   68.6526  222.8505 H   0  0  0  0  0  0  0  0  0  0  0  0
  137.7645   69.5670  224.4411 H   0  0  0  0  0  0  0  0  0  0  0  0
  137.7770   70.9950  221.7910 H   0  0  0  0  0  0  0  0  0  0  0  0
  135.7458   72.3487  221.6322 H   0  0  0  0  0  0  0  0  0  0  0  0
  134.9929   72.9907  223.1267 H   0  0  0  0  0  0  0  0  0  0  0  0
  136.7990   74.4510  223.4550 H   0  0  0  0  0  0  0  0  0  0  0  0
  140.6527   73.9038  221.2063 H   0  0  0  0  0  0  0  0  0  0  0  0
  142.1660   75.8545  221.4637 H   0  0  0  0  0  0  0  0  0  0  0  0
  142.5455   78.1820  222.1152 H   0  0  0  0  0  0  0  0  0  0  0  0
  139.1796   80.3883  223.6343 H   0  0  0  0  0  0  0  0  0  0  0  0
  137.7121   78.4226  223.3637 H   0  0  0  0  0  0  0  0  0  0  0  0
  141.2958   72.6215  225.3655 H   0  0  0  0  0  0  0  0  0  0  0  0
  141.6695   72.7869  227.8072 H   0  0  0  0  0  0  0  0  0  0  0  0
  140.7956   71.0446  229.3361 H   0  0  0  0  0  0  0  0  0  0  0  0
  139.5365   69.1041  228.3948 H   0  0  0  0  0  0  0  0  0  0  0  0
  139.1822   68.9688  225.9619 H   0  0  0  0  0  0  0  0  0  0  0  0
  1  2  1  0
  2  3  1  0
  3  4  1  0
  4  5  1  0
  5  6  1  0
  6  7  2  0
  6  8  1  0
  8  9  1  0
  9 10  1  0
 10 11  2  0
 10 12  1  0
 12 13  2  0
 13 14  1  0
 14 15  2  0
 15 16  1  0
 16 17  2  0
 17 18  1  0
 17 19  1  0
 19 20  2  0
 20 21  1  0
 21 22  2  0
  2 23  1  0
 23 24  2  0
 24 25  1  0
 25 26  2  0
 26 27  1  0
 27 28  2  0
 22 12  1  0
 28 23  1  0
 21 15  1  0
  1 29  1  0
  1 30  1  0
  1 31  1  0
  3 32  1  0
  3 33  1  0
  4 34  1  0
  4 35  1  0
  5 36  1  0
  8 37  1  0
  8 38  1  0
  9 39  1  0
 13 40  1  0
 14 41  1  0
 16 42  1  0
 19 43  1  0
 20 44  1  0
 24 45  1  0
 25 46  1  0
 26 47  1  0
 27 48  1  0
 28 49  1  0
M  END
>  <smiles>  (39) 
CN(CCNC(=O)CNC(=O)c1ccc2cc(Cl)ccc2n1)c1ccccc1

>  <score_type>  (39) 
oracle

>  <origin>  (39) 
autodockgpu

>  <m_score__min__energy>  (39) 
-8.1899999999999995

>  <m_primary>  (39) 
energy

>  <rmsd>  (39) 
8.056805265673635

>  <m_score__min__rmsd>  (39) 
8.056805265673635

>  <meeko>  (39) 
{"free_energy": -7.26, "intermolecular_energy": -9.35, "internal_energy": -2.5, "cluster_size": 15, "cluster_id": 2, "rank_in_cluster": 13}

>  <energy>  (39) 
-7.34

>  <cluster_rmsd>  (39) 
1.6

>  <cluster>  (39) 
2

$$$$

     RDKit          3D

 49 51  0  0  0  0  0  0  0  0999 V2000
  137.9620   80.6250  223.4550 C   0  0  0  0  0  0  0  0  0  0  0  0
  138.8620   79.5190  223.2080 N   0  0  0  0  0  0  0  0  0  0  0  0
  138.2800   78.2300  222.8990 C   0  0  0  0  0  0  0  0  0  0  0  0
  138.5220   77.9600  221.4360 C   0  0  0  0  0  0  0  0  0  0  0  0
  138.3410   76.5910  221.0440 N   0  0  0  0  0  0  0  0  0  0  0  0
  138.9940   75.5060  221.7370 C   0  0  0  0  0  0  0  0  0  0  0  0
  139.7490   75.7360  222.7170 O   0  0  0  0  0  0  0  0  0  0  0  0
  138.7140   74.1450  221.2200 C   0  0  0  0  0  0  0  0  0  0  0  0
  139.0180   73.1780  222.2540 N   0  0  0  0  0  0  0  0  0  0  0  0
  138.6670   71.8100  222.1720 C   0  0  0  0  0  0  0  0  0  0  0  0
  138.0480   71.3440  221.1610 O   0  0  0  0  0  0  0  0  0  0  0  0
  139.0440   70.9340  223.3010 C   0  0  0  0  0  0  0  0  0  0  0  0
  138.7870   69.5780  223.2870 C   0  0  0  0  0  0  0  0  0  0  0  0
  139.1580   68.7730  224.3640 C   0  0  0  0  0  0  0  0  0  0  0  0
  139.7910   69.3120  225.4710 C   0  0  0  0  0  0  0  0  0  0  0  0
  140.1640   68.5120  226.5440 C   0  0  0  0  0  0  0  0  0  0  0  0
  140.7920   69.1180  227.6110 C   0  0  0  0  0  0  0  0  0  0  0  0
  141.2860   68.1440  229.0030 Cl  0  0  0  0  0  0  0  0  0  0  0  0
  141.0290   70.4870  227.5790 C   0  0  0  0  0  0  0  0  0  0  0  0
  140.6560   71.2670  226.5100 C   0  0  0  0  0  0  0  0  0  0  0  0
  140.0270   70.6720  225.4390 C   0  0  0  0  0  0  0  0  0  0  0  0
  139.6600   71.4280  224.3890 N   0  0  0  0  0  0  0  0  0  0  0  0
  140.2560   79.7650  223.2790 C   0  0  0  0  0  0  0  0  0  0  0  0
  140.6960   81.0440  223.5500 C   0  0  0  0  0  0  0  0  0  0  0  0
  142.0530   81.3320  223.6270 C   0  0  0  0  0  0  0  0  0  0  0  0
  142.9930   80.3410  223.4360 C   0  0  0  0  0  0  0  0  0  0  0  0
  142.5760   79.0540  223.1640 C   0  0  0  0  0  0  0  0  0  0  0  0
  141.2210   78.8010  223.0940 C   0  0  0  0  0  0  0  0  0  0  0  0
  137.8457   80.7679  224.5395 H   0  0  0  0  0  0  0  0  0  0  0  0
  138.3747   81.5408  223.0067 H   0  0  0  0  0  0  0  0  0  0  0  0
  136.9815   80.4070  223.0067 H   0  0  0  0  0  0  0  0  0  0  0  0
  138.7558   77.4477  223.5086 H   0  0  0  0  0  0  0  0  0  0  0  0
  137.2022   78.2299  223.1189 H   0  0  0  0  0  0  0  0  0  0  0  0
  137.8246   78.5792  220.8527 H   0  0  0  0  0  0  0  0  0  0  0  0
  139.5776   78.2027  221.2442 H   0  0  0  0  0  0  0  0  0  0  0  0
  137.7100   76.3560  220.2190 H   0  0  0  0  0  0  0  0  0  0  0  0
  137.6526   74.0668  220.9421 H   0  0  0  0  0  0  0  0  0  0  0  0
  139.3340   73.9488  220.3328 H   0  0  0  0  0  0  0  0  0  0  0  0
  139.5310   73.5300  223.1100 H   0  0  0  0  0  0  0  0  0  0  0  0
  138.2847   69.1278  222.4181 H   0  0  0  0  0  0  0  0  0  0  0  0
  138.9446   67.6943  224.3333 H   0  0  0  0  0  0  0  0  0  0  0  0
  139.9646   67.4302  226.5421 H   0  0  0  0  0  0  0  0  0  0  0  0
  141.5306   70.9612  228.4355 H   0  0  0  0  0  0  0  0  0  0  0  0
  140.8567   72.3485  226.5101 H   0  0  0  0  0  0  0  0  0  0  0  0
  139.9617   81.8477  223.7075 H   0  0  0  0  0  0  0  0  0  0  0  0
  142.3806   82.3598  223.8423 H   0  0  0  0  0  0  0  0  0  0  0  0
  144.0660   80.5745  223.5000 H   0  0  0  0  0  0  0  0  0  0  0  0
  143.3073   78.2476  223.0065 H   0  0  0  0  0  0  0  0  0  0  0  0
  140.8944   77.7729  222.8786 H   0  0  0  0  0  0  0  0  0  0  0  0
  1  2  1  0
  2  3  1  0
  3  4  1  0
  4  5  1  0
  5  6  1  0
  6  7  2  0
  6  8  1  0
  8  9  1  0
  9 10  1  0
 10 11  2  0
 10 12  1  0
 12 13  2  0
 13 14  1  0
 14 15  2  0
 15 16  1  0
 16 17  2  0
 17 18  1  0
 17 19  1  0
 19 20  2  0
 20 21  1  0
 21 22  2  0
  2 23  1  0
 23 24  2  0
 24 25  1  0
 25 26  2  0
 26 27  1  0
 27 28  2  0
 22 12  1  0
 28 23  1  0
 21 15  1  0
  1 29  1  0
  1 30  1  0
  1 31  1  0
  3 32  1  0
  3 33  1  0
  4 34  1  0
  4 35  1  0
  5 36  1  0
  8 37  1  0
  8 38  1  0
  9 39  1  0
 13 40  1  0
 14 41  1  0
 16 42  1  0
 19 43  1  0
 20 44  1  0
 24 45  1  0
 25 46  1  0
 26 47  1  0
 27 48  1  0
 28 49  1  0
M  END
>  <smiles>  (40) 
CN(CCNC(=O)CNC(=O)c1ccc2cc(Cl)ccc2n1)c1ccccc1

>  <score_type>  (40) 
oracle

>  <origin>  (40) 
autodockgpu

>  <m_score__min__energy>  (40) 
-8.1899999999999995

>  <m_primary>  (40) 
energy

>  <rmsd>  (40) 
5.40179645087046

>  <m_score__min__rmsd>  (40) 
5.40179645087046

>  <meeko>  (40) 
{"free_energy": -8.15, "intermolecular_energy": -10.24, "internal_energy": -1.91, "cluster_size": 27, "cluster_id": 1, "rank_in_cluster": 3}

>  <energy>  (40) 
-7.26

>  <cluster_rmsd>  (40) 
1.57

>  <cluster>  (40) 
2

$$$$

     RDKit          3D

 49 51  0  0  0  0  0  0  0  0999 V2000
  138.6970   69.9220  223.8720 C   0  0  0  0  0  0  0  0  0  0  0  0
  139.9150   70.5060  224.3910 N   0  0  0  0  0  0  0  0  0  0  0  0
  140.6680   71.3820  223.5200 C   0  0  0  0  0  0  0  0  0  0  0  0
  139.8270   71.6390  222.2950 C   0  0  0  0  0  0  0  0  0  0  0  0
  138.7960   72.6210  222.4740 N   0  0  0  0  0  0  0  0  0  0  0  0
  137.5730   72.5940  221.7060 C   0  0  0  0  0  0  0  0  0  0  0  0
  137.3800   71.6960  220.8470 O   0  0  0  0  0  0  0  0  0  0  0  0
  136.5990   73.6720  222.0000 C   0  0  0  0  0  0  0  0  0  0  0  0
  137.3240   74.8810  222.3330 N   0  0  0  0  0  0  0  0  0  0  0  0
  136.7880   76.1810  222.1790 C   0  0  0  0  0  0  0  0  0  0  0  0
  135.6120   76.3630  221.7260 O   0  0  0  0  0  0  0  0  0  0  0  0
  137.6400   77.3270  222.5630 C   0  0  0  0  0  0  0  0  0  0  0  0
  137.1070   78.5700  222.8340 C   0  0  0  0  0  0  0  0  0  0  0  0
  137.9330   79.6330  223.1980 C   0  0  0  0  0  0  0  0  0  0  0  0
  139.3040   79.4680  223.2980 C   0  0  0  0  0  0  0  0  0  0  0  0
  140.1280   80.5240  223.6640 C   0  0  0  0  0  0  0  0  0  0  0  0
  141.4830   80.2850  223.7440 C   0  0  0  0  0  0  0  0  0  0  0  0
  142.5780   81.5970  224.2040 Cl  0  0  0  0  0  0  0  0  0  0  0  0
  141.9730   79.0160  223.4620 C   0  0  0  0  0  0  0  0  0  0  0  0
  141.1450   77.9780  223.1010 C   0  0  0  0  0  0  0  0  0  0  0  0
  139.7900   78.2070  223.0180 C   0  0  0  0  0  0  0  0  0  0  0  0
  138.9740   77.1970  222.6680 N   0  0  0  0  0  0  0  0  0  0  0  0
  140.2940   70.1870  225.7190 C   0  0  0  0  0  0  0  0  0  0  0  0
  140.6440   71.2080  226.5770 C   0  0  0  0  0  0  0  0  0  0  0  0
  141.0250   70.9420  227.8860 C   0  0  0  0  0  0  0  0  0  0  0  0
  141.0590   69.6480  228.3590 C   0  0  0  0  0  0  0  0  0  0  0  0
  140.7130   68.6090  227.5170 C   0  0  0  0  0  0  0  0  0  0  0  0
  140.3400   68.9070  226.2230 C   0  0  0  0  0  0  0  0  0  0  0  0
  138.0530   69.6132  224.7086 H   0  0  0  0  0  0  0  0  0  0  0  0
  138.1678   70.6643  223.2564 H   0  0  0  0  0  0  0  0  0  0  0  0
  138.9444   69.0446  223.2564 H   0  0  0  0  0  0  0  0  0  0  0  0
  140.8808   72.3305  224.0348 H   0  0  0  0  0  0  0  0  0  0  0  0
  141.6262   70.9193  223.2410 H   0  0  0  0  0  0  0  0  0  0  0  0
  140.4915   71.9822  221.4883 H   0  0  0  0  0  0  0  0  0  0  0  0
  139.3186   70.6919  222.0613 H   0  0  0  0  0  0  0  0  0  0  0  0
  138.9240   73.3970  223.1920 H   0  0  0  0  0  0  0  0  0  0  0  0
  135.9684   73.8510  221.1166 H   0  0  0  0  0  0  0  0  0  0  0  0
  135.9593   73.3763  222.8446 H   0  0  0  0  0  0  0  0  0  0  0  0
  138.3060   74.7680  222.7120 H   0  0  0  0  0  0  0  0  0  0  0  0
  136.0202   78.7242  222.7623 H   0  0  0  0  0  0  0  0  0  0  0  0
  137.4888   80.6170  223.4087 H   0  0  0  0  0  0  0  0  0  0  0  0
  139.7129   81.5189  223.8829 H   0  0  0  0  0  0  0  0  0  0  0  0
  143.0560   78.8355  223.5294 H   0  0  0  0  0  0  0  0  0  0  0  0
  141.5586   76.9824  222.8825 H   0  0  0  0  0  0  0  0  0  0  0  0
  140.6212   72.2481  226.2197 H   0  0  0  0  0  0  0  0  0  0  0  0
  141.3024   71.7725  228.5518 H   0  0  0  0  0  0  0  0  0  0  0  0
  141.3589   69.4444  229.3975 H   0  0  0  0  0  0  0  0  0  0  0  0
  140.7345   67.5676  227.8705 H   0  0  0  0  0  0  0  0  0  0  0  0
  140.0641   68.0760  225.5572 H   0  0  0  0  0  0  0  0  0  0  0  0
  1  2  1  0
  2  3  1  0
  3  4  1  0
  4  5  1  0
  5  6  1  0
  6  7  2  0
  6  8  1  0
  8  9  1  0
  9 10  1  0
 10 11  2  0
 10 12  1  0
 12 13  2  0
 13 14  1  0
 14 15  2  0
 15 16  1  0
 16 17  2  0
 17 18  1  0
 17 19  1  0
 19 20  2  0
 20 21  1  0
 21 22  2  0
  2 23  1  0
 23 24  2  0
 24 25  1  0
 25 26  2  0
 26 27  1  0
 27 28  2  0
 22 12  1  0
 28 23  1  0
 21 15  1  0
  1 29  1  0
  1 30  1  0
  1 31  1  0
  3 32  1  0
  3 33  1  0
  4 34  1  0
  4 35  1  0
  5 36  1  0
  8 37  1  0
  8 38  1  0
  9 39  1  0
 13 40  1  0
 14 41  1  0
 16 42  1  0
 19 43  1  0
 20 44  1  0
 24 45  1  0
 25 46  1  0
 26 47  1  0
 27 48  1  0
 28 49  1  0
M  END
>  <smiles>  (41) 
CN(CCNC(=O)CNC(=O)c1ccc2cc(Cl)ccc2n1)c1ccccc1

>  <score_type>  (41) 
oracle

>  <origin>  (41) 
autodockgpu

>  <m_score__min__energy>  (41) 
-8.1899999999999995

>  <m_primary>  (41) 
energy

>  <rmsd>  (41) 
8.571449669417147

>  <m_score__min__rmsd>  (41) 
8.571449669417147

>  <meeko>  (41) 
{"free_energy": -7.87, "intermolecular_energy": -9.95, "internal_energy": -1.33, "cluster_size": 15, "cluster_id": 2, "rank_in_cluster": 4}

>  <energy>  (41) 
-7.26

>  <cluster_rmsd>  (41) 
1.63

>  <cluster>  (41) 
2

$$$$

     RDKit          3D

 49 51  0  0  0  0  0  0  0  0999 V2000
  142.1650   77.1240  220.1290 C   0  0  0  0  0  0  0  0  0  0  0  0
  141.2310   78.0870  220.6720 N   0  0  0  0  0  0  0  0  0  0  0  0
  139.9510   78.2330  220.0130 C   0  0  0  0  0  0  0  0  0  0  0  0
  138.8970   77.6810  220.9380 C   0  0  0  0  0  0  0  0  0  0  0  0
  138.5330   76.3160  220.6820 N   0  0  0  0  0  0  0  0  0  0  0  0
  138.9030   75.2460  221.5770 C   0  0  0  0  0  0  0  0  0  0  0  0
  139.5640   75.4870  222.6200 O   0  0  0  0  0  0  0  0  0  0  0  0
  138.4580   73.8880  221.1830 C   0  0  0  0  0  0  0  0  0  0  0  0
  138.7980   72.9570  222.2390 N   0  0  0  0  0  0  0  0  0  0  0  0
  138.5250   71.5710  222.1770 C   0  0  0  0  0  0  0  0  0  0  0  0
  137.9490   71.0540  221.1650 O   0  0  0  0  0  0  0  0  0  0  0  0
  138.9310   70.7370  223.3270 C   0  0  0  0  0  0  0  0  0  0  0  0
  138.6510   69.3870  223.3810 C   0  0  0  0  0  0  0  0  0  0  0  0
  139.0500   68.6220  224.4770 C   0  0  0  0  0  0  0  0  0  0  0  0
  139.7360   69.1960  225.5350 C   0  0  0  0  0  0  0  0  0  0  0  0
  140.1360   68.4350  226.6260 C   0  0  0  0  0  0  0  0  0  0  0  0
  140.8150   69.0740  227.6410 C   0  0  0  0  0  0  0  0  0  0  0  0
  141.3480   68.1520  229.0540 Cl  0  0  0  0  0  0  0  0  0  0  0  0
  141.0740   70.4360  227.5410 C   0  0  0  0  0  0  0  0  0  0  0  0
  140.6720   71.1770  226.4540 C   0  0  0  0  0  0  0  0  0  0  0  0
  139.9930   70.5480  225.4350 C   0  0  0  0  0  0  0  0  0  0  0  0
  139.5970   71.2650  224.3680 N   0  0  0  0  0  0  0  0  0  0  0  0
  141.6250   78.8260  221.8150 C   0  0  0  0  0  0  0  0  0  0  0  0
  141.4430   78.2720  223.0650 C   0  0  0  0  0  0  0  0  0  0  0  0
  141.8120   78.9610  224.2130 C   0  0  0  0  0  0  0  0  0  0  0  0
  142.3730   80.2180  224.1280 C   0  0  0  0  0  0  0  0  0  0  0  0
  142.5650   80.7930  222.8880 C   0  0  0  0  0  0  0  0  0  0  0  0
  142.1870   80.0820  221.7670 C   0  0  0  0  0  0  0  0  0  0  0  0
  142.6725   76.6007  220.9528 H   0  0  0  0  0  0  0  0  0  0  0  0
  141.6215   76.3944  219.5108 H   0  0  0  0  0  0  0  0  0  0  0  0
  142.9109   77.6450  219.5108 H   0  0  0  0  0  0  0  0  0  0  0  0
  139.7526   79.2958  219.8100 H   0  0  0  0  0  0  0  0  0  0  0  0
  139.9457   77.6926  219.0549 H   0  0  0  0  0  0  0  0  0  0  0  0
  139.2759   77.7476  221.9685 H   0  0  0  0  0  0  0  0  0  0  0  0
  137.9907   78.2818  220.7720 H   0  0  0  0  0  0  0  0  0  0  0  0
  137.9740   76.0730  219.8080 H   0  0  0  0  0  0  0  0  0  0  0  0
  137.3691   73.8873  221.0268 H   0  0  0  0  0  0  0  0  0  0  0  0
  138.9562   73.5894  220.2488 H   0  0  0  0  0  0  0  0  0  0  0  0
  139.2760   73.3520  223.0970 H   0  0  0  0  0  0  0  0  0  0  0  0
  138.1081   68.9096  222.5520 H   0  0  0  0  0  0  0  0  0  0  0  0
  138.8166   67.5473  224.5017 H   0  0  0  0  0  0  0  0  0  0  0  0
  139.9181   67.3581  226.6782 H   0  0  0  0  0  0  0  0  0  0  0  0
  141.6171   70.9367  228.3561 H   0  0  0  0  0  0  0  0  0  0  0  0
  140.8894   72.2539  226.3999 H   0  0  0  0  0  0  0  0  0  0  0  0
  140.9990   77.2695  223.1539 H   0  0  0  0  0  0  0  0  0  0  0  0
  141.6553   78.4998  225.1993 H   0  0  0  0  0  0  0  0  0  0  0  0
  142.6650   80.7579  225.0409 H   0  0  0  0  0  0  0  0  0  0  0  0
  143.0092   81.7951  222.7953 H   0  0  0  0  0  0  0  0  0  0  0  0
  142.3433   80.5442  220.7811 H   0  0  0  0  0  0  0  0  0  0  0  0
  1  2  1  0
  2  3  1  0
  3  4  1  0
  4  5  1  0
  5  6  1  0
  6  7  2  0
  6  8  1  0
  8  9  1  0
  9 10  1  0
 10 11  2  0
 10 12  1  0
 12 13  2  0
 13 14  1  0
 14 15  2  0
 15 16  1  0
 16 17  2  0
 17 18  1  0
 17 19  1  0
 19 20  2  0
 20 21  1  0
 21 22  2  0
  2 23  1  0
 23 24  2  0
 24 25  1  0
 25 26  2  0
 26 27  1  0
 27 28  2  0
 22 12  1  0
 28 23  1  0
 21 15  1  0
  1 29  1  0
  1 30  1  0
  1 31  1  0
  3 32  1  0
  3 33  1  0
  4 34  1  0
  4 35  1  0
  5 36  1  0
  8 37  1  0
  8 38  1  0
  9 39  1  0
 13 40  1  0
 14 41  1  0
 16 42  1  0
 19 43  1  0
 20 44  1  0
 24 45  1  0
 25 46  1  0
 26 47  1  0
 27 48  1  0
 28 49  1  0
M  END
>  <smiles>  (42) 
CN(CCNC(=O)CNC(=O)c1ccc2cc(Cl)ccc2n1)c1ccccc1

>  <score_type>  (42) 
oracle

>  <origin>  (42) 
autodockgpu

>  <m_score__min__energy>  (42) 
-8.1899999999999995

>  <m_primary>  (42) 
energy

>  <rmsd>  (42) 
4.819931348239778

>  <m_score__min__rmsd>  (42) 
4.819931348239778

>  <meeko>  (42) 
{"free_energy": -7.95, "intermolecular_energy": -10.04, "internal_energy": -2.09, "cluster_size": 27, "cluster_id": 1, "rank_in_cluster": 17}

>  <energy>  (42) 
-7.21

>  <cluster_rmsd>  (42) 
1.7

>  <cluster>  (42) 
2

$$$$

     RDKit          3D

 49 51  0  0  0  0  0  0  0  0999 V2000
  140.3180   72.1070  223.3990 C   0  0  0  0  0  0  0  0  0  0  0  0
  140.0430   70.8890  224.1300 N   0  0  0  0  0  0  0  0  0  0  0  0
  139.5810   69.7400  223.3800 C   0  0  0  0  0  0  0  0  0  0  0  0
  138.0740   69.7680  223.3860 C   0  0  0  0  0  0  0  0  0  0  0  0
  137.4960   70.9380  222.7880 N   0  0  0  0  0  0  0  0  0  0  0  0
  136.2800   71.5320  223.2900 C   0  0  0  0  0  0  0  0  0  0  0  0
  135.6870   71.0300  224.2800 O   0  0  0  0  0  0  0  0  0  0  0  0
  135.8020   72.7370  222.5710 C   0  0  0  0  0  0  0  0  0  0  0  0
  136.8150   73.7680  222.6590 N   0  0  0  0  0  0  0  0  0  0  0  0
  137.8560   73.9230  221.7140 C   0  0  0  0  0  0  0  0  0  0  0  0
  137.9620   73.1450  220.7120 O   0  0  0  0  0  0  0  0  0  0  0  0
  138.8210   75.0230  221.9270 C   0  0  0  0  0  0  0  0  0  0  0  0
  140.1640   74.8770  221.6460 C   0  0  0  0  0  0  0  0  0  0  0  0
  141.0510   75.9320  221.8510 C   0  0  0  0  0  0  0  0  0  0  0  0
  140.6090   77.1500  222.3400 C   0  0  0  0  0  0  0  0  0  0  0  0
  141.4920   78.2040  222.5430 C   0  0  0  0  0  0  0  0  0  0  0  0
  140.9790   79.3870  223.0300 C   0  0  0  0  0  0  0  0  0  0  0  0
  142.0600   80.7600  223.3070 Cl  0  0  0  0  0  0  0  0  0  0  0  0
  139.6190   79.4860  223.2980 C   0  0  0  0  0  0  0  0  0  0  0  0
  138.7570   78.4350  223.0920 C   0  0  0  0  0  0  0  0  0  0  0  0
  139.2580   77.2490  222.6050 C   0  0  0  0  0  0  0  0  0  0  0  0
  138.4210   76.2160  222.3990 N   0  0  0  0  0  0  0  0  0  0  0  0
  140.2450   70.8940  225.5330 C   0  0  0  0  0  0  0  0  0  0  0  0
  141.0230   71.8840  226.0920 C   0  0  0  0  0  0  0  0  0  0  0  0
  141.2500   71.9270  227.4630 C   0  0  0  0  0  0  0  0  0  0  0  0
  140.6980   70.9770  228.2960 C   0  0  0  0  0  0  0  0  0  0  0  0
  139.9150   69.9760  227.7570 C   0  0  0  0  0  0  0  0  0  0  0  0
  139.7090   69.9610  226.3930 C   0  0  0  0  0  0  0  0  0  0  0  0
  140.5031   72.9268  224.1088 H   0  0  0  0  0  0  0  0  0  0  0  0
  141.2061   71.9623  222.7663 H   0  0  0  0  0  0  0  0  0  0  0  0
  139.4539   72.3579  222.7663 H   0  0  0  0  0  0  0  0  0  0  0  0
  139.9530   69.7926  222.3462 H   0  0  0  0  0  0  0  0  0  0  0  0
  139.9519   68.8086  223.8326 H   0  0  0  0  0  0  0  0  0  0  0  0
  137.7122   68.8870  222.8357 H   0  0  0  0  0  0  0  0  0  0  0  0
  137.7663   69.7731  224.4421 H   0  0  0  0  0  0  0  0  0  0  0  0
  137.9700   71.3910  221.9480 H   0  0  0  0  0  0  0  0  0  0  0  0
  135.6186   72.4886  221.5152 H   0  0  0  0  0  0  0  0  0  0  0  0
  134.8657   73.0947  223.0242 H   0  0  0  0  0  0  0  0  0  0  0  0
  136.7600   74.4330  223.4810 H   0  0  0  0  0  0  0  0  0  0  0  0
  140.5380   73.9187  221.2564 H   0  0  0  0  0  0  0  0  0  0  0  0
  142.1180   75.7954  221.6210 H   0  0  0  0  0  0  0  0  0  0  0  0
  142.5644   78.0976  222.3224 H   0  0  0  0  0  0  0  0  0  0  0  0
  139.2199   80.4344  223.6869 H   0  0  0  0  0  0  0  0  0  0  0  0
  137.6845   78.5401  223.3127 H   0  0  0  0  0  0  0  0  0  0  0  0
  141.4712   72.6517  225.4441 H   0  0  0  0  0  0  0  0  0  0  0  0
  141.8757   72.7262  227.8870 H   0  0  0  0  0  0  0  0  0  0  0  0
  140.8799   71.0164  229.3801 H   0  0  0  0  0  0  0  0  0  0  0  0
  139.4648   69.2066  228.4015 H   0  0  0  0  0  0  0  0  0  0  0  0
  139.0834   69.1614  225.9696 H   0  0  0  0  0  0  0  0  0  0  0  0
  1  2  1  0
  2  3  1  0
  3  4  1  0
  4  5  1  0
  5  6  1  0
  6  7  2  0
  6  8  1  0
  8  9  1  0
  9 10  1  0
 10 11  2  0
 10 12  1  0
 12 13  2  0
 13 14  1  0
 14 15  2  0
 15 16  1  0
 16 17  2  0
 17 18  1  0
 17 19  1  0
 19 20  2  0
 20 21  1  0
 21 22  2  0
  2 23  1  0
 23 24  2  0
 24 25  1  0
 25 26  2  0
 26 27  1  0
 27 28  2  0
 22 12  1  0
 28 23  1  0
 21 15  1  0
  1 29  1  0
  1 30  1  0
  1 31  1  0
  3 32  1  0
  3 33  1  0
  4 34  1  0
  4 35  1  0
  5 36  1  0
  8 37  1  0
  8 38  1  0
  9 39  1  0
 13 40  1  0
 14 41  1  0
 16 42  1  0
 19 43  1  0
 20 44  1  0
 24 45  1  0
 25 46  1  0
 26 47  1  0
 27 48  1  0
 28 49  1  0
M  END
>  <smiles>  (43) 
CN(CCNC(=O)CNC(=O)c1ccc2cc(Cl)ccc2n1)c1ccccc1

>  <score_type>  (43) 
oracle

>  <origin>  (43) 
autodockgpu

>  <m_score__min__energy>  (43) 
-8.1899999999999995

>  <m_primary>  (43) 
energy

>  <rmsd>  (43) 
8.042129210862907

>  <m_score__min__rmsd>  (43) 
8.042129210862907

>  <meeko>  (43) 
{"free_energy": -7.34, "intermolecular_energy": -9.43, "internal_energy": -2.37, "cluster_size": 15, "cluster_id": 2, "rank_in_cluster": 12}

>  <energy>  (43) 
-7.98

>  <cluster_rmsd>  (43) 
0.0

>  <cluster>  (43) 
3

$$$$

     RDKit          3D

 49 51  0  0  0  0  0  0  0  0999 V2000
  140.2590   67.4360  226.2040 C   0  0  0  0  0  0  0  0  0  0  0  0
  139.7530   68.7090  225.7360 N   0  0  0  0  0  0  0  0  0  0  0  0
  138.8440   68.7020  224.6100 C   0  0  0  0  0  0  0  0  0  0  0  0
  139.5750   69.2920  223.4310 C   0  0  0  0  0  0  0  0  0  0  0  0
  138.8220   70.2610  222.6860 N   0  0  0  0  0  0  0  0  0  0  0  0
  137.8760   71.1480  223.3220 C   0  0  0  0  0  0  0  0  0  0  0  0
  137.6850   71.0920  224.5650 O   0  0  0  0  0  0  0  0  0  0  0  0
  137.1730   72.0960  222.4260 C   0  0  0  0  0  0  0  0  0  0  0  0
  137.9580   73.3080  222.3160 N   0  0  0  0  0  0  0  0  0  0  0  0
  139.2010   73.3750  221.6460 C   0  0  0  0  0  0  0  0  0  0  0  0
  139.7120   72.3490  221.0910 O   0  0  0  0  0  0  0  0  0  0  0  0
  139.8940   74.6810  221.6090 C   0  0  0  0  0  0  0  0  0  0  0  0
  141.0410   74.8750  220.8670 C   0  0  0  0  0  0  0  0  0  0  0  0
  141.6710   76.1190  220.8450 C   0  0  0  0  0  0  0  0  0  0  0  0
  141.1630   77.1880  221.5650 C   0  0  0  0  0  0  0  0  0  0  0  0
  141.7880   78.4280  221.5430 C   0  0  0  0  0  0  0  0  0  0  0  0
  141.2240   79.4450  222.2840 C   0  0  0  0  0  0  0  0  0  0  0  0
  141.9810   81.0450  222.2910 Cl  0  0  0  0  0  0  0  0  0  0  0  0
  140.0680   79.2020  223.0150 C   0  0  0  0  0  0  0  0  0  0  0  0
  139.4590   77.9680  223.0270 C   0  0  0  0  0  0  0  0  0  0  0  0
  140.0140   76.9450  222.2910 C   0  0  0  0  0  0  0  0  0  0  0  0
  139.4240   75.7370  222.2970 N   0  0  0  0  0  0  0  0  0  0  0  0
  140.1750   69.8820  226.4100 C   0  0  0  0  0  0  0  0  0  0  0  0
  140.9960   70.7720  225.7510 C   0  0  0  0  0  0  0  0  0  0  0  0
  141.4360   71.9340  226.3730 C   0  0  0  0  0  0  0  0  0  0  0  0
  141.0590   72.2240  227.6670 C   0  0  0  0  0  0  0  0  0  0  0  0
  140.2380   71.3470  228.3460 C   0  0  0  0  0  0  0  0  0  0  0  0
  139.8180   70.2020  227.7010 C   0  0  0  0  0  0  0  0  0  0  0  0
  140.2633   67.4251  227.3039 H   0  0  0  0  0  0  0  0  0  0  0  0
  139.6145   66.6260  225.8318 H   0  0  0  0  0  0  0  0  0  0  0  0
  141.2837   67.2895  225.8318 H   0  0  0  0  0  0  0  0  0  0  0  0
  138.5362   67.6707  224.3827 H   0  0  0  0  0  0  0  0  0  0  0  0
  137.9416   69.2883  224.8381 H   0  0  0  0  0  0  0  0  0  0  0  0
  140.4888   69.7790  223.8023 H   0  0  0  0  0  0  0  0  0  0  0  0
  139.7799   68.4592  222.7422 H   0  0  0  0  0  0  0  0  0  0  0  0
  138.9560   70.3380  221.6320 H   0  0  0  0  0  0  0  0  0  0  0  0
  137.0521   71.6429  221.4310 H   0  0  0  0  0  0  0  0  0  0  0  0
  136.1804   72.3312  222.8375 H   0  0  0  0  0  0  0  0  0  0  0  0
  137.5650   74.1810  222.7670 H   0  0  0  0  0  0  0  0  0  0  0  0
  141.4625   74.0405  220.2873 H   0  0  0  0  0  0  0  0  0  0  0  0
  142.5846   76.2534  220.2473 H   0  0  0  0  0  0  0  0  0  0  0  0
  142.7023   78.5933  220.9542 H   0  0  0  0  0  0  0  0  0  0  0  0
  139.6261   80.0207  223.6020 H   0  0  0  0  0  0  0  0  0  0  0  0
  138.5442   77.8016  223.6147 H   0  0  0  0  0  0  0  0  0  0  0  0
  141.3073   70.5592  224.7177 H   0  0  0  0  0  0  0  0  0  0  0  0
  142.0914   72.6291  225.8278 H   0  0  0  0  0  0  0  0  0  0  0  0
  141.4095   73.1461  228.1538 H   0  0  0  0  0  0  0  0  0  0  0  0
  139.9251   71.5564  229.3795 H   0  0  0  0  0  0  0  0  0  0  0  0
  139.1628   69.5075  228.2472 H   0  0  0  0  0  0  0  0  0  0  0  0
  1  2  1  0
  2  3  1  0
  3  4  1  0
  4  5  1  0
  5  6  1  0
  6  7  2  0
  6  8  1  0
  8  9  1  0
  9 10  1  0
 10 11  2  0
 10 12  1  0
 12 13  2  0
 13 14  1  0
 14 15  2  0
 15 16  1  0
 16 17  2  0
 17 18  1  0
 17 19  1  0
 19 20  2  0
 20 21  1  0
 21 22  2  0
  2 23  1  0
 23 24  2  0
 24 25  1  0
 25 26  2  0
 26 27  1  0
 27 28  2  0
 22 12  1  0
 28 23  1  0
 21 15  1  0
  1 29  1  0
  1 30  1  0
  1 31  1  0
  3 32  1  0
  3 33  1  0
  4 34  1  0
  4 35  1  0
  5 36  1  0
  8 37  1  0
  8 38  1  0
  9 39  1  0
 13 40  1  0
 14 41  1  0
 16 42  1  0
 19 43  1  0
 20 44  1  0
 24 45  1  0
 25 46  1  0
 26 47  1  0
 27 48  1  0
 28 49  1  0
M  END
>  <smiles>  (44) 
CN(CCNC(=O)CNC(=O)c1ccc2cc(Cl)ccc2n1)c1ccccc1

>  <score_type>  (44) 
oracle

>  <origin>  (44) 
autodockgpu

>  <m_score__min__energy>  (44) 
-8.1899999999999995

>  <m_primary>  (44) 
energy

>  <rmsd>  (44) 
8.740716183763919

>  <m_score__min__rmsd>  (44) 
8.740716183763919

>  <meeko>  (44) 
{"free_energy": -7.67, "intermolecular_energy": -9.76, "internal_energy": -2.11, "cluster_size": 15, "cluster_id": 2, "rank_in_cluster": 6}

>  <energy>  (44) 
-7.71

>  <cluster_rmsd>  (44) 
1.96

>  <cluster>  (44) 
3

$$$$

     RDKit          3D

 49 51  0  0  0  0  0  0  0  0999 V2000
  137.6750   79.8500  223.5750 C   0  0  0  0  0  0  0  0  0  0  0  0
  138.7060   79.6940  222.5720 N   0  0  0  0  0  0  0  0  0  0  0  0
  138.2930   79.3740  221.2230 C   0  0  0  0  0  0  0  0  0  0  0  0
  137.3070   78.2380  221.3060 C   0  0  0  0  0  0  0  0  0  0  0  0
  137.8000   76.9820  220.8170 N   0  0  0  0  0  0  0  0  0  0  0  0
  138.5320   76.0680  221.6610 C   0  0  0  0  0  0  0  0  0  0  0  0
  138.7600   76.3540  222.8650 O   0  0  0  0  0  0  0  0  0  0  0  0
  138.9790   74.8090  221.0180 C   0  0  0  0  0  0  0  0  0  0  0  0
  139.1680   73.8010  222.0410 N   0  0  0  0  0  0  0  0  0  0  0  0
  139.2830   72.4190  221.7650 C   0  0  0  0  0  0  0  0  0  0  0  0
  139.2240   71.9750  220.5720 O   0  0  0  0  0  0  0  0  0  0  0  0
  139.4760   71.5010  222.9070 C   0  0  0  0  0  0  0  0  0  0  0  0
  139.0760   70.1820  222.8570 C   0  0  0  0  0  0  0  0  0  0  0  0
  139.2750   69.3360  223.9480 C   0  0  0  0  0  0  0  0  0  0  0  0
  139.8770   69.7980  225.1060 C   0  0  0  0  0  0  0  0  0  0  0  0
  140.0780   68.9570  226.1930 C   0  0  0  0  0  0  0  0  0  0  0  0
  140.6850   69.4860  227.3120 C   0  0  0  0  0  0  0  0  0  0  0  0
  140.9640   68.4580  228.7250 Cl  0  0  0  0  0  0  0  0  0  0  0  0
  141.0710   70.8210  227.3160 C   0  0  0  0  0  0  0  0  0  0  0  0
  140.8660   71.6430  226.2320 C   0  0  0  0  0  0  0  0  0  0  0  0
  140.2600   71.1240  225.1100 C   0  0  0  0  0  0  0  0  0  0  0  0
  140.0580   71.9200  224.0450 N   0  0  0  0  0  0  0  0  0  0  0  0
  140.0550   79.8670  222.9710 C   0  0  0  0  0  0  0  0  0  0  0  0
  140.5470   81.1450  223.1290 C   0  0  0  0  0  0  0  0  0  0  0  0
  141.8640   81.3610  223.5170 C   0  0  0  0  0  0  0  0  0  0  0  0
  142.7090   80.2990  223.7540 C   0  0  0  0  0  0  0  0  0  0  0  0
  142.2390   79.0100  223.6020 C   0  0  0  0  0  0  0  0  0  0  0  0
  140.9270   78.8290  223.2160 C   0  0  0  0  0  0  0  0  0  0  0  0
  138.1246   79.7820  224.5766 H   0  0  0  0  0  0  0  0  0  0  0  0
  137.1927   80.8314  223.4555 H   0  0  0  0  0  0  0  0  0  0  0  0
  136.9239   79.0553  223.4555 H   0  0  0  0  0  0  0  0  0  0  0  0
  137.8174   80.2503  220.7585 H   0  0  0  0  0  0  0  0  0  0  0  0
  139.1610   79.0883  220.6107 H   0  0  0  0  0  0  0  0  0  0  0  0
  137.0218   78.1076  222.3603 H   0  0  0  0  0  0  0  0  0  0  0  0
  136.4597   78.5129  220.6606 H   0  0  0  0  0  0  0  0  0  0  0  0
  137.6270   76.7050  219.8030 H   0  0  0  0  0  0  0  0  0  0  0  0
  138.2166   74.4694  220.3014 H   0  0  0  0  0  0  0  0  0  0  0  0
  139.9251   74.9792  220.4832 H   0  0  0  0  0  0  0  0  0  0  0  0
  139.2200   74.1330  223.0450 H   0  0  0  0  0  0  0  0  0  0  0  0
  138.5951   69.7932  221.9473 H   0  0  0  0  0  0  0  0  0  0  0  0
  138.9491   68.2871  223.8875 H   0  0  0  0  0  0  0  0  0  0  0  0
  139.7632   67.9035  226.1620 H   0  0  0  0  0  0  0  0  0  0  0  0
  141.5554   71.2332  228.2135 H   0  0  0  0  0  0  0  0  0  0  0  0
  141.1808   72.6966  226.2612 H   0  0  0  0  0  0  0  0  0  0  0  0
  139.8878   82.0062  222.9454 H   0  0  0  0  0  0  0  0  0  0  0  0
  142.2352   82.3896  223.6360 H   0  0  0  0  0  0  0  0  0  0  0  0
  143.7499   80.4768  224.0619 H   0  0  0  0  0  0  0  0  0  0  0  0
  142.8958   78.1467  223.7845 H   0  0  0  0  0  0  0  0  0  0  0  0
  140.5570   77.7999  223.0974 H   0  0  0  0  0  0  0  0  0  0  0  0
  1  2  1  0
  2  3  1  0
  3  4  1  0
  4  5  1  0
  5  6  1  0
  6  7  2  0
  6  8  1  0
  8  9  1  0
  9 10  1  0
 10 11  2  0
 10 12  1  0
 12 13  2  0
 13 14  1  0
 14 15  2  0
 15 16  1  0
 16 17  2  0
 17 18  1  0
 17 19  1  0
 19 20  2  0
 20 21  1  0
 21 22  2  0
  2 23  1  0
 23 24  2  0
 24 25  1  0
 25 26  2  0
 26 27  1  0
 27 28  2  0
 22 12  1  0
 28 23  1  0
 21 15  1  0
  1 29  1  0
  1 30  1  0
  1 31  1  0
  3 32  1  0
  3 33  1  0
  4 34  1  0
  4 35  1  0
  5 36  1  0
  8 37  1  0
  8 38  1  0
  9 39  1  0
 13 40  1  0
 14 41  1  0
 16 42  1  0
 19 43  1  0
 20 44  1  0
 24 45  1  0
 25 46  1  0
 26 47  1  0
 27 48  1  0
 28 49  1  0
M  END
>  <smiles>  (45) 
CN(CCNC(=O)CNC(=O)c1ccc2cc(Cl)ccc2n1)c1ccccc1

>  <score_type>  (45) 
oracle

>  <origin>  (45) 
autodockgpu

>  <m_score__min__energy>  (45) 
-8.1899999999999995

>  <m_primary>  (45) 
energy

>  <rmsd>  (45) 
5.54587690500214

>  <m_score__min__rmsd>  (45) 
5.54587690500214

>  <meeko>  (45) 
{"free_energy": -7.77, "intermolecular_energy": -9.86, "internal_energy": -1.92, "cluster_size": 27, "cluster_id": 1, "rank_in_cluster": 23}

>  <energy>  (45) 
-7.34

>  <cluster_rmsd>  (45) 
1.49

>  <cluster>  (45) 
3

$$$$

     RDKit          3D

 49 51  0  0  0  0  0  0  0  0999 V2000
  137.8260   80.2730  223.9190 C   0  0  0  0  0  0  0  0  0  0  0  0
  138.7130   80.1070  222.7870 N   0  0  0  0  0  0  0  0  0  0  0  0
  138.1160   79.9670  221.4760 C   0  0  0  0  0  0  0  0  0  0  0  0
  137.4260   78.6270  221.4300 C   0  0  0  0  0  0  0  0  0  0  0  0
  138.2690   77.5350  221.0330 N   0  0  0  0  0  0  0  0  0  0  0  0
  138.5820   76.4470  221.9290 C   0  0  0  0  0  0  0  0  0  0  0  0
  138.1170   76.4280  223.0970 O   0  0  0  0  0  0  0  0  0  0  0  0
  139.4640   75.3890  221.3790 C   0  0  0  0  0  0  0  0  0  0  0  0
  139.5350   74.2980  222.3280 N   0  0  0  0  0  0  0  0  0  0  0  0
  139.9490   72.9900  221.9850 C   0  0  0  0  0  0  0  0  0  0  0  0
  140.2880   72.6930  220.7940 O   0  0  0  0  0  0  0  0  0  0  0  0
  139.9770   71.9720  223.0570 C   0  0  0  0  0  0  0  0  0  0  0  0
  139.5210   70.6860  222.8520 C   0  0  0  0  0  0  0  0  0  0  0  0
  139.5640   69.7450  223.8800 C   0  0  0  0  0  0  0  0  0  0  0  0
  140.0630   70.0750  225.1290 C   0  0  0  0  0  0  0  0  0  0  0  0
  140.1080   69.1380  226.1530 C   0  0  0  0  0  0  0  0  0  0  0  0
  140.6190   69.5390  227.3690 C   0  0  0  0  0  0  0  0  0  0  0  0
  140.6990   68.3850  228.7080 Cl  0  0  0  0  0  0  0  0  0  0  0  0
  141.0660   70.8450  227.5280 C   0  0  0  0  0  0  0  0  0  0  0  0
  141.0160   71.7630  226.5040 C   0  0  0  0  0  0  0  0  0  0  0  0
  140.5070   71.3730  225.2860 C   0  0  0  0  0  0  0  0  0  0  0  0
  140.4560   72.2630  224.2790 N   0  0  0  0  0  0  0  0  0  0  0  0
  140.1090   80.0930  223.0310 C   0  0  0  0  0  0  0  0  0  0  0  0
  140.7900   81.2910  223.0830 C   0  0  0  0  0  0  0  0  0  0  0  0
  142.1590   81.3260  223.3170 C   0  0  0  0  0  0  0  0  0  0  0  0
  142.8690   80.1590  223.5040 C   0  0  0  0  0  0  0  0  0  0  0  0
  142.2080   78.9480  223.4560 C   0  0  0  0  0  0  0  0  0  0  0  0
  140.8480   78.9480  223.2220 C   0  0  0  0  0  0  0  0  0  0  0  0
  138.3985   80.1659  224.8522 H   0  0  0  0  0  0  0  0  0  0  0  0
  137.3680   81.2725  223.8825 H   0  0  0  0  0  0  0  0  0  0  0  0
  137.0376   79.5068  223.8825 H   0  0  0  0  0  0  0  0  0  0  0  0
  137.3846   80.7715  221.3091 H   0  0  0  0  0  0  0  0  0  0  0  0
  138.8851   80.0326  220.6923 H   0  0  0  0  0  0  0  0  0  0  0  0
  137.0319   78.4092  222.4336 H   0  0  0  0  0  0  0  0  0  0  0  0
  136.6387   78.7074  220.6659 H   0  0  0  0  0  0  0  0  0  0  0  0
  138.6810   77.5160  220.0510 H   0  0  0  0  0  0  0  0  0  0  0  0
  139.0528   75.0237  220.4264 H   0  0  0  0  0  0  0  0  0  0  0  0
  140.4705   75.7966  221.2035 H   0  0  0  0  0  0  0  0  0  0  0  0
  139.2590   74.5070  223.3290 H   0  0  0  0  0  0  0  0  0  0  0  0
  139.1198   70.4005  221.8684 H   0  0  0  0  0  0  0  0  0  0  0  0
  139.1959   68.7249  223.6961 H   0  0  0  0  0  0  0  0  0  0  0  0
  139.7479   68.1101  225.9990 H   0  0  0  0  0  0  0  0  0  0  0  0
  141.4723   71.1546  228.5022 H   0  0  0  0  0  0  0  0  0  0  0  0
  141.3767   72.7910  226.6562 H   0  0  0  0  0  0  0  0  0  0  0  0
  140.2411   82.2330  222.9370 H   0  0  0  0  0  0  0  0  0  0  0  0
  142.6812   82.2935  223.3534 H   0  0  0  0  0  0  0  0  0  0  0  0
  143.9527   80.1926  223.6898 H   0  0  0  0  0  0  0  0  0  0  0  0
  142.7534   78.0038  223.6011 H   0  0  0  0  0  0  0  0  0  0  0  0
  140.3264   77.9802  223.1862 H   0  0  0  0  0  0  0  0  0  0  0  0
  1  2  1  0
  2  3  1  0
  3  4  1  0
  4  5  1  0
  5  6  1  0
  6  7  2  0
  6  8  1  0
  8  9  1  0
  9 10  1  0
 10 11  2  0
 10 12  1  0
 12 13  2  0
 13 14  1  0
 14 15  2  0
 15 16  1  0
 16 17  2  0
 17 18  1  0
 17 19  1  0
 19 20  2  0
 20 21  1  0
 21 22  2  0
  2 23  1  0
 23 24  2  0
 24 25  1  0
 25 26  2  0
 26 27  1  0
 27 28  2  0
 22 12  1  0
 28 23  1  0
 21 15  1  0
  1 29  1  0
  1 30  1  0
  1 31  1  0
  3 32  1  0
  3 33  1  0
  4 34  1  0
  4 35  1  0
  5 36  1  0
  8 37  1  0
  8 38  1  0
  9 39  1  0
 13 40  1  0
 14 41  1  0
 16 42  1  0
 19 43  1  0
 20 44  1  0
 24 45  1  0
 25 46  1  0
 26 47  1  0
 27 48  1  0
 28 49  1  0
M  END
>  <smiles>  (46) 
CN(CCNC(=O)CNC(=O)c1ccc2cc(Cl)ccc2n1)c1ccccc1

>  <score_type>  (46) 
oracle

>  <origin>  (46) 
autodockgpu

>  <m_score__min__energy>  (46) 
-8.1899999999999995

>  <m_primary>  (46) 
energy

>  <rmsd>  (46) 
5.723449010763872

>  <m_score__min__rmsd>  (46) 
5.723449010763872

>  <meeko>  (46) 
{"free_energy": -8.04, "intermolecular_energy": -10.13, "internal_energy": -1.94, "cluster_size": 27, "cluster_id": 1, "rank_in_cluster": 6}

>  <energy>  (46) 
-6.79

>  <cluster_rmsd>  (46) 
1.74

>  <cluster>  (46) 
3

$$$$

     RDKit          3D

 49 51  0  0  0  0  0  0  0  0999 V2000
  139.4150   78.8680  220.2210 C   0  0  0  0  0  0  0  0  0  0  0  0
  140.8440   78.9860  220.4170 N   0  0  0  0  0  0  0  0  0  0  0  0
  141.7130   78.4130  219.4110 C   0  0  0  0  0  0  0  0  0  0  0  0
  142.0260   77.0000  219.8310 C   0  0  0  0  0  0  0  0  0  0  0  0
  140.8810   76.1420  219.9430 N   0  0  0  0  0  0  0  0  0  0  0  0
  140.4190   75.6470  221.2190 C   0  0  0  0  0  0  0  0  0  0  0  0
  141.0190   75.9590  222.2790 O   0  0  0  0  0  0  0  0  0  0  0  0
  139.2240   74.7710  221.1790 C   0  0  0  0  0  0  0  0  0  0  0  0
  139.3700   73.7320  222.1780 N   0  0  0  0  0  0  0  0  0  0  0  0
  139.2660   72.3520  221.8900 C   0  0  0  0  0  0  0  0  0  0  0  0
  139.0320   71.9370  220.7090 O   0  0  0  0  0  0  0  0  0  0  0  0
  139.4410   71.4000  223.0080 C   0  0  0  0  0  0  0  0  0  0  0  0
  139.0090   70.0920  222.9240 C   0  0  0  0  0  0  0  0  0  0  0  0
  139.1910   69.2140  223.9920 C   0  0  0  0  0  0  0  0  0  0  0  0
  139.8070   69.6310  225.1600 C   0  0  0  0  0  0  0  0  0  0  0  0
  139.9910   68.7570  226.2240 C   0  0  0  0  0  0  0  0  0  0  0  0
  140.6140   69.2430  227.3540 C   0  0  0  0  0  0  0  0  0  0  0  0
  140.8720   68.1710  228.7390 Cl  0  0  0  0  0  0  0  0  0  0  0  0
  141.0310   70.5680  227.3920 C   0  0  0  0  0  0  0  0  0  0  0  0
  140.8430   71.4220  226.3300 C   0  0  0  0  0  0  0  0  0  0  0  0
  140.2220   70.9470  225.1970 C   0  0  0  0  0  0  0  0  0  0  0  0
  140.0360   71.7750  224.1530 N   0  0  0  0  0  0  0  0  0  0  0  0
  141.3050   79.6560  221.5770 C   0  0  0  0  0  0  0  0  0  0  0  0
  141.7100   78.9090  222.6630 C   0  0  0  0  0  0  0  0  0  0  0  0
  142.1660   79.5240  223.8230 C   0  0  0  0  0  0  0  0  0  0  0  0
  142.2270   80.8980  223.9130 C   0  0  0  0  0  0  0  0  0  0  0  0
  141.8260   81.6660  222.8370 C   0  0  0  0  0  0  0  0  0  0  0  0
  141.3780   81.0250  221.7010 C   0  0  0  0  0  0  0  0  0  0  0  0
  138.9130   78.8265  221.1989 H   0  0  0  0  0  0  0  0  0  0  0  0
  139.0490   79.7390  219.6576 H   0  0  0  0  0  0  0  0  0  0  0  0
  139.1968   77.9488  219.6576 H   0  0  0  0  0  0  0  0  0  0  0  0
  141.2062   78.4106  218.4347 H   0  0  0  0  0  0  0  0  0  0  0  0
  142.6372   79.0022  219.3177 H   0  0  0  0  0  0  0  0  0  0  0  0
  142.7095   76.5645  219.0872 H   0  0  0  0  0  0  0  0  0  0  0  0
  142.4667   77.0643  220.8368 H   0  0  0  0  0  0  0  0  0  0  0  0
  140.3470   75.8560  219.0670 H   0  0  0  0  0  0  0  0  0  0  0  0
  138.3233   75.3651  221.3931 H   0  0  0  0  0  0  0  0  0  0  0  0
  139.1274   74.3178  220.1814 H   0  0  0  0  0  0  0  0  0  0  0  0
  139.5630   74.0400  223.1720 H   0  0  0  0  0  0  0  0  0  0  0  0
  138.5165   69.7387  222.0060 H   0  0  0  0  0  0  0  0  0  0  0  0
  138.8401   68.1751  223.9054 H   0  0  0  0  0  0  0  0  0  0  0  0
  139.6511   67.7124  226.1670 H   0  0  0  0  0  0  0  0  0  0  0  0
  141.5264   70.9454  228.2987 H   0  0  0  0  0  0  0  0  0  0  0  0
  141.1831   72.4666  226.3852 H   0  0  0  0  0  0  0  0  0  0  0  0
  141.6717   77.8109  222.6105 H   0  0  0  0  0  0  0  0  0  0  0  0
  142.4814   78.9079  224.6779 H   0  0  0  0  0  0  0  0  0  0  0  0
  142.5916   81.3785  224.8329 H   0  0  0  0  0  0  0  0  0  0  0  0
  141.8632   82.7643  222.8852 H   0  0  0  0  0  0  0  0  0  0  0  0
  141.0616   81.6418  220.8469 H   0  0  0  0  0  0  0  0  0  0  0  0
  1  2  1  0
  2  3  1  0
  3  4  1  0
  4  5  1  0
  5  6  1  0
  6  7  2  0
  6  8  1  0
  8  9  1  0
  9 10  1  0
 10 11  2  0
 10 12  1  0
 12 13  2  0
 13 14  1  0
 14 15  2  0
 15 16  1  0
 16 17  2  0
 17 18  1  0
 17 19  1  0
 19 20  2  0
 20 21  1  0
 21 22  2  0
  2 23  1  0
 23 24  2  0
 24 25  1  0
 25 26  2  0
 26 27  1  0
 27 28  2  0
 22 12  1  0
 28 23  1  0
 21 15  1  0
  1 29  1  0
  1 30  1  0
  1 31  1  0
  3 32  1  0
  3 33  1  0
  4 34  1  0
  4 35  1  0
  5 36  1  0
  8 37  1  0
  8 38  1  0
  9 39  1  0
 13 40  1  0
 14 41  1  0
 16 42  1  0
 19 43  1  0
 20 44  1  0
 24 45  1  0
 25 46  1  0
 26 47  1  0
 27 48  1  0
 28 49  1  0
M  END
>  <smiles>  (47) 
CN(CCNC(=O)CNC(=O)c1ccc2cc(Cl)ccc2n1)c1ccccc1

>  <score_type>  (47) 
oracle

>  <origin>  (47) 
autodockgpu

>  <m_score__min__energy>  (47) 
-8.1899999999999995

>  <m_primary>  (47) 
energy

>  <rmsd>  (47) 
5.2606475411880105

>  <m_score__min__rmsd>  (47) 
5.2606475411880105

>  <meeko>  (47) 
{"free_energy": -8.0, "intermolecular_energy": -10.09, "internal_energy": -1.74, "cluster_size": 27, "cluster_id": 1, "rank_in_cluster": 13}

>  <energy>  (47) 
-7.64

>  <cluster_rmsd>  (47) 
0.0

>  <cluster>  (47) 
4

$$$$

     RDKit          3D

 49 51  0  0  0  0  0  0  0  0999 V2000
  141.4800   81.7950  222.4350 C   0  0  0  0  0  0  0  0  0  0  0  0
  140.8330   80.5010  222.4440 N   0  0  0  0  0  0  0  0  0  0  0  0
  141.5840   79.3670  221.9490 C   0  0  0  0  0  0  0  0  0  0  0  0
  141.3050   78.2020  222.8630 C   0  0  0  0  0  0  0  0  0  0  0  0
  141.0420   76.9630  222.1880 N   0  0  0  0  0  0  0  0  0  0  0  0
  139.7100   76.4110  222.0960 C   0  0  0  0  0  0  0  0  0  0  0  0
  138.7340   77.0120  222.6130 O   0  0  0  0  0  0  0  0  0  0  0  0
  139.5910   75.1250  221.3680 C   0  0  0  0  0  0  0  0  0  0  0  0
  139.6520   74.0380  222.3240 N   0  0  0  0  0  0  0  0  0  0  0  0
  139.8870   72.6910  221.9610 C   0  0  0  0  0  0  0  0  0  0  0  0
  140.0600   72.3530  220.7460 O   0  0  0  0  0  0  0  0  0  0  0  0
  139.9270   71.6840  223.0420 C   0  0  0  0  0  0  0  0  0  0  0  0
  139.4780   70.3930  222.8510 C   0  0  0  0  0  0  0  0  0  0  0  0
  139.5320   69.4610  223.8870 C   0  0  0  0  0  0  0  0  0  0  0  0
  140.0360   69.8060  225.1300 C   0  0  0  0  0  0  0  0  0  0  0  0
  140.0930   68.8790  226.1630 C   0  0  0  0  0  0  0  0  0  0  0  0
  140.6080   69.2940  227.3720 C   0  0  0  0  0  0  0  0  0  0  0  0
  140.7020   68.1520  228.7210 Cl  0  0  0  0  0  0  0  0  0  0  0  0
  141.0480   70.6040  227.5170 C   0  0  0  0  0  0  0  0  0  0  0  0
  140.9860   71.5120  226.4850 C   0  0  0  0  0  0  0  0  0  0  0  0
  140.4730   71.1080  225.2730 C   0  0  0  0  0  0  0  0  0  0  0  0
  140.4110   71.9890  224.2590 N   0  0  0  0  0  0  0  0  0  0  0  0
  139.5070   80.4220  222.9380 C   0  0  0  0  0  0  0  0  0  0  0  0
  138.5060   79.9800  222.0990 C   0  0  0  0  0  0  0  0  0  0  0  0
  137.1920   79.8890  222.5400 C   0  0  0  0  0  0  0  0  0  0  0  0
  136.8590   80.2370  223.8320 C   0  0  0  0  0  0  0  0  0  0  0  0
  137.8450   80.6820  224.6900 C   0  0  0  0  0  0  0  0  0  0  0  0
  139.1400   80.7610  224.2210 C   0  0  0  0  0  0  0  0  0  0  0  0
  141.6469   82.1287  223.4698 H   0  0  0  0  0  0  0  0  0  0  0  0
  142.4459   81.7184  221.9142 H   0  0  0  0  0  0  0  0  0  0  0  0
  140.8392   82.5217  221.9142 H   0  0  0  0  0  0  0  0  0  0  0  0
  141.2656   79.1246  220.9244 H   0  0  0  0  0  0  0  0  0  0  0  0
  142.6601   79.5945  221.9305 H   0  0  0  0  0  0  0  0  0  0  0  0
  142.1802   78.0592  223.5138 H   0  0  0  0  0  0  0  0  0  0  0  0
  140.3903   78.4543  223.4195 H   0  0  0  0  0  0  0  0  0  0  0  0
  141.8440   76.4250  221.7380 H   0  0  0  0  0  0  0  0  0  0  0  0
  138.6313   75.0917  220.8315 H   0  0  0  0  0  0  0  0  0  0  0  0
  140.4120   75.0299  220.6421 H   0  0  0  0  0  0  0  0  0  0  0  0
  139.5110   74.2820  223.3440 H   0  0  0  0  0  0  0  0  0  0  0  0
  139.0736   70.0963  221.8720 H   0  0  0  0  0  0  0  0  0  0  0  0
  139.1690   68.4370  223.7144 H   0  0  0  0  0  0  0  0  0  0  0  0
  139.7387   67.8474  226.0206 H   0  0  0  0  0  0  0  0  0  0  0  0
  141.4582   70.9248  228.4859 H   0  0  0  0  0  0  0  0  0  0  0  0
  141.3405   72.5437  226.6261 H   0  0  0  0  0  0  0  0  0  0  0  0
  138.7516   79.6953  221.0653 H   0  0  0  0  0  0  0  0  0  0  0  0
  136.4097   79.5360  221.8520 H   0  0  0  0  0  0  0  0  0  0  0  0
  135.8170   80.1608  224.1761 H   0  0  0  0  0  0  0  0  0  0  0  0
  137.6033   80.9672  225.7245 H   0  0  0  0  0  0  0  0  0  0  0  0
  139.9219   81.1140  224.9095 H   0  0  0  0  0  0  0  0  0  0  0  0
  1  2  1  0
  2  3  1  0
  3  4  1  0
  4  5  1  0
  5  6  1  0
  6  7  2  0
  6  8  1  0
  8  9  1  0
  9 10  1  0
 10 11  2  0
 10 12  1  0
 12 13  2  0
 13 14  1  0
 14 15  2  0
 15 16  1  0
 16 17  2  0
 17 18  1  0
 17 19  1  0
 19 20  2  0
 20 21  1  0
 21 22  2  0
  2 23  1  0
 23 24  2  0
 24 25  1  0
 25 26  2  0
 26 27  1  0
 27 28  2  0
 22 12  1  0
 28 23  1  0
 21 15  1  0
  1 29  1  0
  1 30  1  0
  1 31  1  0
  3 32  1  0
  3 33  1  0
  4 34  1  0
  4 35  1  0
  5 36  1  0
  8 37  1  0
  8 38  1  0
  9 39  1  0
 13 40  1  0
 14 41  1  0
 16 42  1  0
 19 43  1  0
 20 44  1  0
 24 45  1  0
 25 46  1  0
 26 47  1  0
 27 48  1  0
 28 49  1  0
M  END
>  <smiles>  (48) 
CN(CCNC(=O)CNC(=O)c1ccc2cc(Cl)ccc2n1)c1ccccc1

>  <score_type>  (48) 
oracle

>  <origin>  (48) 
autodockgpu

>  <m_score__min__energy>  (48) 
-8.1899999999999995

>  <m_primary>  (48) 
energy

>  <rmsd>  (48) 
6.226742462832794

>  <m_score__min__rmsd>  (48) 
6.226742462832794

>  <meeko>  (48) 
{"free_energy": -7.97, "intermolecular_energy": -10.05, "internal_energy": -1.49, "cluster_size": 27, "cluster_id": 1, "rank_in_cluster": 16}

>  <energy>  (48) 
-7.27

>  <cluster_rmsd>  (48) 
0.0

>  <cluster>  (48) 
5

$$$$

     RDKit          3D

 49 51  0  0  0  0  0  0  0  0999 V2000
  137.7680   80.2210  223.8130 C   0  0  0  0  0  0  0  0  0  0  0  0
  138.6950   80.0410  222.7170 N   0  0  0  0  0  0  0  0  0  0  0  0
  138.1470   79.8740  221.3890 C   0  0  0  0  0  0  0  0  0  0  0  0
  137.3720   78.5810  221.3750 C   0  0  0  0  0  0  0  0  0  0  0  0
  138.1220   77.4400  220.9330 N   0  0  0  0  0  0  0  0  0  0  0  0
  138.6340   76.4570  221.8580 C   0  0  0  0  0  0  0  0  0  0  0  0
  138.4330   76.5780  223.0940 O   0  0  0  0  0  0  0  0  0  0  0  0
  139.3900   75.3320  221.2550 C   0  0  0  0  0  0  0  0  0  0  0  0
  139.4810   74.2570  222.2210 N   0  0  0  0  0  0  0  0  0  0  0  0
  139.8480   72.9340  221.8850 C   0  0  0  0  0  0  0  0  0  0  0  0
  140.1230   72.6070  220.6850 O   0  0  0  0  0  0  0  0  0  0  0  0
  139.9040   71.9360  222.9740 C   0  0  0  0  0  0  0  0  0  0  0  0
  139.4750   70.6370  222.7940 C   0  0  0  0  0  0  0  0  0  0  0  0
  139.5430   69.7150  223.8380 C   0  0  0  0  0  0  0  0  0  0  0  0
  140.0430   70.0780  225.0780 C   0  0  0  0  0  0  0  0  0  0  0  0
  140.1140   69.1610  226.1180 C   0  0  0  0  0  0  0  0  0  0  0  0
  140.6240   69.5940  227.3230 C   0  0  0  0  0  0  0  0  0  0  0  0
  140.7360   68.4650  228.6820 Cl  0  0  0  0  0  0  0  0  0  0  0  0
  141.0440   70.9110  227.4570 C   0  0  0  0  0  0  0  0  0  0  0  0
  140.9680   71.8090  226.4180 C   0  0  0  0  0  0  0  0  0  0  0  0
  140.4600   71.3870  225.2100 C   0  0  0  0  0  0  0  0  0  0  0  0
  140.3840   72.2590  224.1880 N   0  0  0  0  0  0  0  0  0  0  0  0
  140.0820   80.0430  223.0100 C   0  0  0  0  0  0  0  0  0  0  0  0
  140.7390   81.2490  223.1260 C   0  0  0  0  0  0  0  0  0  0  0  0
  142.0980   81.2990  223.4100 C   0  0  0  0  0  0  0  0  0  0  0  0
  142.8220   80.1380  223.5850 C   0  0  0  0  0  0  0  0  0  0  0  0
  142.1840   78.9180  223.4720 C   0  0  0  0  0  0  0  0  0  0  0  0
  140.8340   78.9040  223.1900 C   0  0  0  0  0  0  0  0  0  0  0  0
  138.3043   80.1169  224.7677 H   0  0  0  0  0  0  0  0  0  0  0  0
  137.3186   81.2232  223.7523 H   0  0  0  0  0  0  0  0  0  0  0  0
  136.9762   79.4598  223.7523 H   0  0  0  0  0  0  0  0  0  0  0  0
  137.4786   80.7145  221.1506 H   0  0  0  0  0  0  0  0  0  0  0  0
  138.9516   79.8503  220.6393 H   0  0  0  0  0  0  0  0  0  0  0  0
  137.0164   78.3830  222.3969 H   0  0  0  0  0  0  0  0  0  0  0  0
  136.5539   78.7156  220.6521 H   0  0  0  0  0  0  0  0  0  0  0  0
  138.3130   77.3040  219.8930 H   0  0  0  0  0  0  0  0  0  0  0  0
  138.8673   74.9763  220.3548 H   0  0  0  0  0  0  0  0  0  0  0  0
  140.3993   75.6685  220.9756 H   0  0  0  0  0  0  0  0  0  0  0  0
  139.2580   74.4920  223.2290 H   0  0  0  0  0  0  0  0  0  0  0  0
  139.0755   70.3257  221.8175 H   0  0  0  0  0  0  0  0  0  0  0  0
  139.1946   68.6845  223.6746 H   0  0  0  0  0  0  0  0  0  0  0  0
  139.7745   68.1232  225.9847 H   0  0  0  0  0  0  0  0  0  0  0  0
  141.4496   71.2460  228.4231 H   0  0  0  0  0  0  0  0  0  0  0  0
  141.3074   72.8470  226.5500 H   0  0  0  0  0  0  0  0  0  0  0  0
  140.1788   82.1861  222.9917 H   0  0  0  0  0  0  0  0  0  0  0  0
  142.6013   82.2733  223.4961 H   0  0  0  0  0  0  0  0  0  0  0  0
  143.8973   80.1832  223.8124 H   0  0  0  0  0  0  0  0  0  0  0  0
  142.7404   77.9783  223.6040 H   0  0  0  0  0  0  0  0  0  0  0  0
  140.3307   77.9296  223.1043 H   0  0  0  0  0  0  0  0  0  0  0  0
  1  2  1  0
  2  3  1  0
  3  4  1  0
  4  5  1  0
  5  6  1  0
  6  7  2  0
  6  8  1  0
  8  9  1  0
  9 10  1  0
 10 11  2  0
 10 12  1  0
 12 13  2  0
 13 14  1  0
 14 15  2  0
 15 16  1  0
 16 17  2  0
 17 18  1  0
 17 19  1  0
 19 20  2  0
 20 21  1  0
 21 22  2  0
  2 23  1  0
 23 24  2  0
 24 25  1  0
 25 26  2  0
 26 27  1  0
 27 28  2  0
 22 12  1  0
 28 23  1  0
 21 15  1  0
  1 29  1  0
  1 30  1  0
  1 31  1  0
  3 32  1  0
  3 33  1  0
  4 34  1  0
  4 35  1  0
  5 36  1  0
  8 37  1  0
  8 38  1  0
  9 39  1  0
 13 40  1  0
 14 41  1  0
 16 42  1  0
 19 43  1  0
 20 44  1  0
 24 45  1  0
 25 46  1  0
 26 47  1  0
 27 48  1  0
 28 49  1  0
M  END
>  <smiles>  (49) 
CN(CCNC(=O)CNC(=O)c1ccc2cc(Cl)ccc2n1)c1ccccc1

>  <score_type>  (49) 
oracle

>  <origin>  (49) 
autodockgpu

>  <m_score__min__energy>  (49) 
-8.1899999999999995

>  <m_primary>  (49) 
energy

>  <rmsd>  (49) 
5.70351182370112

>  <m_score__min__rmsd>  (49) 
5.70351182370112

>  <meeko>  (49) 
{"free_energy": -8.01, "intermolecular_energy": -10.1, "internal_energy": -1.96, "cluster_size": 27, "cluster_id": 1, "rank_in_cluster": 10}

>  <energy>  (49) 
-7.16

>  <cluster_rmsd>  (49) 
0.46

>  <cluster>  (49) 
5

$$$$

     RDKit          3D

 49 51  0  0  0  0  0  0  0  0999 V2000
  141.5880   75.9890  217.9280 C   0  0  0  0  0  0  0  0  0  0  0  0
  142.2580   76.1520  219.2000 N   0  0  0  0  0  0  0  0  0  0  0  0
  142.1970   77.4510  219.8340 C   0  0  0  0  0  0  0  0  0  0  0  0
  140.8160   77.6090  220.4180 C   0  0  0  0  0  0  0  0  0  0  0  0
  139.9920   76.4370  220.3260 N   0  0  0  0  0  0  0  0  0  0  0  0
  140.0050   75.4110  221.3410 C   0  0  0  0  0  0  0  0  0  0  0  0
  140.7510   75.5200  222.3480 O   0  0  0  0  0  0  0  0  0  0  0  0
  139.1000   74.2600  221.1100 C   0  0  0  0  0  0  0  0  0  0  0  0
  139.3090   73.2820  222.1580 N   0  0  0  0  0  0  0  0  0  0  0  0
  139.0010   71.9080  222.0170 C   0  0  0  0  0  0  0  0  0  0  0  0
  138.5090   71.4470  220.9370 O   0  0  0  0  0  0  0  0  0  0  0  0
  139.2690   71.0210  223.1680 C   0  0  0  0  0  0  0  0  0  0  0  0
  138.9140   69.6870  223.1570 C   0  0  0  0  0  0  0  0  0  0  0  0
  139.1840   68.8710  224.2550 C   0  0  0  0  0  0  0  0  0  0  0  0
  139.8120   69.3760  225.3810 C   0  0  0  0  0  0  0  0  0  0  0  0
  140.0840   68.5640  226.4750 C   0  0  0  0  0  0  0  0  0  0  0  0
  140.7130   69.1370  227.5600 C   0  0  0  0  0  0  0  0  0  0  0  0
  141.0810   68.1460  228.9800 Cl  0  0  0  0  0  0  0  0  0  0  0  0
  141.0510   70.4840  227.5250 C   0  0  0  0  0  0  0  0  0  0  0  0
  140.7760   71.2760  226.4340 C   0  0  0  0  0  0  0  0  0  0  0  0
  140.1480   70.7150  225.3460 C   0  0  0  0  0  0  0  0  0  0  0  0
  139.8780   71.4820  224.2750 N   0  0  0  0  0  0  0  0  0  0  0  0
  142.9300   75.0310  219.7470 C   0  0  0  0  0  0  0  0  0  0  0  0
  144.2490   75.1620  220.1250 C   0  0  0  0  0  0  0  0  0  0  0  0
  144.9480   74.0890  220.6640 C   0  0  0  0  0  0  0  0  0  0  0  0
  144.3350   72.8660  220.8350 C   0  0  0  0  0  0  0  0  0  0  0  0
  143.0140   72.7120  220.4640 C   0  0  0  0  0  0  0  0  0  0  0  0
  142.3480   73.7960  219.9320 C   0  0  0  0  0  0  0  0  0  0  0  0
  140.5323   75.7322  218.0999 H   0  0  0  0  0  0  0  0  0  0  0  0
  141.6488   76.9281  217.3585 H   0  0  0  0  0  0  0  0  0  0  0  0
  142.0735   75.1828  217.3585 H   0  0  0  0  0  0  0  0  0  0  0  0
  142.9513   77.5146  220.6321 H   0  0  0  0  0  0  0  0  0  0  0  0
  142.4008   78.2475  219.1032 H   0  0  0  0  0  0  0  0  0  0  0  0
  140.9207   77.8726  221.4808 H   0  0  0  0  0  0  0  0  0  0  0  0
  140.3148   78.3904  219.8279 H   0  0  0  0  0  0  0  0  0  0  0  0
  139.3470   76.3100  219.4870 H   0  0  0  0  0  0  0  0  0  0  0  0
  138.0549   74.6026  221.1275 H   0  0  0  0  0  0  0  0  0  0  0  0
  139.3138   73.8082  220.1301 H   0  0  0  0  0  0  0  0  0  0  0  0
  139.7150   73.6290  223.0710 H   0  0  0  0  0  0  0  0  0  0  0  0
  138.4134   69.2637  222.2737 H   0  0  0  0  0  0  0  0  0  0  0  0
  138.8938   67.8104  224.2262 H   0  0  0  0  0  0  0  0  0  0  0  0
  139.8068   67.4995  226.4756 H   0  0  0  0  0  0  0  0  0  0  0  0
  141.5535   70.9308  228.3955 H   0  0  0  0  0  0  0  0  0  0  0  0
  141.0537   72.3404  226.4317 H   0  0  0  0  0  0  0  0  0  0  0  0
  144.7556   76.1301  219.9981 H   0  0  0  0  0  0  0  0  0  0  0  0
  146.0005   74.2165  220.9571 H   0  0  0  0  0  0  0  0  0  0  0  0
  144.8933   72.0205  221.2632 H   0  0  0  0  0  0  0  0  0  0  0  0
  142.5039   71.7456  220.5901 H   0  0  0  0  0  0  0  0  0  0  0  0
  141.2954   73.6677  219.6396 H   0  0  0  0  0  0  0  0  0  0  0  0
  1  2  1  0
  2  3  1  0
  3  4  1  0
  4  5  1  0
  5  6  1  0
  6  7  2  0
  6  8  1  0
  8  9  1  0
  9 10  1  0
 10 11  2  0
 10 12  1  0
 12 13  2  0
 13 14  1  0
 14 15  2  0
 15 16  1  0
 16 17  2  0
 17 18  1  0
 17 19  1  0
 19 20  2  0
 20 21  1  0
 21 22  2  0
  2 23  1  0
 23 24  2  0
 24 25  1  0
 25 26  2  0
 26 27  1  0
 27 28  2  0
 22 12  1  0
 28 23  1  0
 21 15  1  0
  1 29  1  0
  1 30  1  0
  1 31  1  0
  3 32  1  0
  3 33  1  0
  4 34  1  0
  4 35  1  0
  5 36  1  0
  8 37  1  0
  8 38  1  0
  9 39  1  0
 13 40  1  0
 14 41  1  0
 16 42  1  0
 19 43  1  0
 20 44  1  0
 24 45  1  0
 25 46  1  0
 26 47  1  0
 27 48  1  0
 28 49  1  0
M  END
>  <smiles>  (50) 
CN(CCNC(=O)CNC(=O)c1ccc2cc(Cl)ccc2n1)c1ccccc1

>  <score_type>  (50) 
oracle

>  <origin>  (50) 
autodockgpu

>  <m_score__min__energy>  (50) 
-8.1899999999999995

>  <m_primary>  (50) 
energy

>  <rmsd>  (50) 
4.485874734943571

>  <m_score__min__rmsd>  (50) 
4.485874734943571

>  <meeko>  (50) 
{"free_energy": -7.1, "intermolecular_energy": -9.19, "internal_energy": -2.42, "cluster_size": 3, "cluster_id": 5, "rank_in_cluster": 3}

>  <energy>  (50) 
-7.1

>  <cluster_rmsd>  (50) 
0.33

>  <cluster>  (50) 
5

$$$$
