
     RDKit          3D

 54 58  0  0  0  0  0  0  0  0999 V2000
  137.5720   72.0560  220.3420 O   0  0  0  0  0  0  0  0  0  0  0  0
  138.2780   72.7460  221.1540 C   0  0  0  0  0  0  0  0  0  0  0  0
  137.6140   73.5220  222.1140 N   0  0  0  0  0  0  0  0  0  0  0  0
  136.1680   73.5800  222.2250 C   0  0  0  0  0  0  0  0  0  0  0  0
  135.7170   74.7330  223.0290 C   0  0  0  0  0  0  0  0  0  0  0  0
  134.9160   74.6520  223.9960 O   0  0  0  0  0  0  0  0  0  0  0  0
  136.2260   76.0150  222.6820 N   0  0  0  0  0  0  0  0  0  0  0  0
  135.9760   77.2350  223.4580 C   0  0  0  0  0  0  0  0  0  0  0  0
  136.1030   78.3890  222.4860 C   0  0  0  0  0  0  0  0  0  0  0  0
  136.3930   77.7030  221.1470 C   0  0  0  0  0  0  0  0  0  0  0  0
  137.0530   76.3910  221.5560 C   0  0  1  0  0  0  0  0  0  0  0  0
  138.4400   76.6390  222.0320 C   0  0  0  0  0  0  0  0  0  0  0  0
  138.9170   77.8900  222.2300 N   0  0  0  0  0  0  0  0  0  0  0  0
  140.1960   77.7950  222.6600 C   0  0  0  0  0  0  0  0  0  0  0  0
  141.0030   78.9670  222.9660 C   0  0  0  0  0  0  0  0  0  0  0  0
  140.3920   80.0550  223.5520 C   0  0  0  0  0  0  0  0  0  0  0  0
  141.1160   81.2100  223.8700 C   0  0  0  0  0  0  0  0  0  0  0  0
  142.4660   81.2560  223.5900 C   0  0  0  0  0  0  0  0  0  0  0  0
  143.0830   80.1750  223.0050 C   0  0  0  0  0  0  0  0  0  0  0  0
  142.3490   79.0370  222.6960 C   0  0  0  0  0  0  0  0  0  0  0  0
  140.4750   76.4670  222.7160 C   0  0  0  0  0  0  0  0  0  0  0  0
  139.3950   75.8120  222.3320 O   0  0  0  0  0  0  0  0  0  0  0  0
  139.7350   72.7080  221.0670 C   0  0  0  0  0  0  0  0  0  0  0  0
  140.3970   71.5060  221.2790 C   0  0  0  0  0  0  0  0  0  0  0  0
  141.7750   71.4430  221.2020 C   0  0  0  0  0  0  0  0  0  0  0  0
  142.4920   72.5960  220.9100 C   0  0  0  0  0  0  0  0  0  0  0  0
  143.8760   72.5840  220.8210 C   0  0  0  0  0  0  0  0  0  0  0  0
  144.5610   73.7520  220.5280 C   0  0  0  0  0  0  0  0  0  0  0  0
  146.3230   73.6540  220.4340 Cl  0  0  0  0  0  0  0  0  0  0  0  0
  143.8880   74.9390  220.3210 C   0  0  0  0  0  0  0  0  0  0  0  0
  142.5020   74.9570  220.4090 C   0  0  0  0  0  0  0  0  0  0  0  0
  141.8160   73.7970  220.7000 C   0  0  0  0  0  0  0  0  0  0  0  0
  140.4810   73.7910  220.7880 N   0  0  0  0  0  0  0  0  0  0  0  0
  138.1660   74.0900  222.7850 H   0  0  0  0  0  0  0  0  0  0  0  0
  135.7381   73.6618  221.2158 H   0  0  0  0  0  0  0  0  0  0  0  0
  135.8307   72.6630  222.7303 H   0  0  0  0  0  0  0  0  0  0  0  0
  134.9650   77.2108  223.8909 H   0  0  0  0  0  0  0  0  0  0  0  0
  136.6882   77.3328  224.2906 H   0  0  0  0  0  0  0  0  0  0  0  0
  135.1677   78.9659  222.4371 H   0  0  0  0  0  0  0  0  0  0  0  0
  136.8839   79.1075  222.7757 H   0  0  0  0  0  0  0  0  0  0  0  0
  135.4626   77.5184  220.5900 H   0  0  0  0  0  0  0  0  0  0  0  0
  137.0234   78.3109  220.4814 H   0  0  0  0  0  0  0  0  0  0  0  0
  137.1228   75.6457  220.7500 H   0  0  0  0  0  0  0  0  0  0  0  0
  139.3154   80.0147  223.7738 H   0  0  0  0  0  0  0  0  0  0  0  0
  140.6147   82.0704  224.3374 H   0  0  0  0  0  0  0  0  0  0  0  0
  143.0485   82.1565  223.8344 H   0  0  0  0  0  0  0  0  0  0  0  0
  144.1594   80.2117  222.7815 H   0  0  0  0  0  0  0  0  0  0  0  0
  142.8527   78.1784  222.2279 H   0  0  0  0  0  0  0  0  0  0  0  0
  141.4300   76.0176  223.0259 H   0  0  0  0  0  0  0  0  0  0  0  0
  139.8205   70.5980  221.5098 H   0  0  0  0  0  0  0  0  0  0  0  0
  142.2984   70.4902  221.3701 H   0  0  0  0  0  0  0  0  0  0  0  0
  144.4296   71.6474  220.9830 H   0  0  0  0  0  0  0  0  0  0  0  0
  144.4428   75.8601  220.0890 H   0  0  0  0  0  0  0  0  0  0  0  0
  141.9522   75.8958  220.2467 H   0  0  0  0  0  0  0  0  0  0  0  0
  1  2  2  0
  2  3  1  0
  3  4  1  0
  4  5  1  0
  5  6  2  0
  5  7  1  0
  7  8  1  0
  8  9  1  0
  9 10  1  0
 10 11  1  0
 11 12  1  0
 12 13  2  0
 13 14  1  0
 14 15  1  0
 15 16  2  0
 16 17  1  0
 17 18  2  0
 18 19  1  0
 19 20  2  0
 14 21  2  0
 21 22  1  0
  2 23  1  0
 23 24  2  0
 24 25  1  0
 25 26  2  0
 26 27  1  0
 27 28  2  0
 28 29  1  0
 28 30  1  0
 30 31  2  0
 31 32  1  0
 32 33  2  0
 11  7  1  0
 22 12  1  0
 33 23  1  0
 20 15  1  0
 32 26  1  0
  3 34  1  0
  4 35  1  0
  4 36  1  0
  8 37  1  0
  8 38  1  0
  9 39  1  0
  9 40  1  0
 10 41  1  0
 10 42  1  0
 11 43  1  6
 16 44  1  0
 17 45  1  0
 18 46  1  0
 19 47  1  0
 20 48  1  0
 21 49  1  0
 24 50  1  0
 25 51  1  0
 27 52  1  0
 30 53  1  0
 31 54  1  0
M  END
>  <smiles>  (1) 
O=C(NCC(=O)N1CCC[C@H]1c1nc(-c2ccccc2)co1)c1ccc2cc(Cl)ccc2n1

>  <score_type>  (1) 
oracle

>  <origin>  (1) 
autodockgpu

>  <m_score__min__energy>  (1) 
-9.4000000000000004

>  <m_primary>  (1) 
energy

>  <rmsd>  (1) 
5.302052440142123

>  <m_score__min__rmsd>  (1) 
5.302052440142123

>  <meeko>  (1) 
{"free_energy": -7.24, "intermolecular_energy": -9.03, "internal_energy": -2.96, "cluster_size": 1, "cluster_id": 8, "rank_in_cluster": 1}

>  <energy>  (1) 
-9.4

>  <cluster_rmsd>  (1) 
0.0

>  <cluster>  (1) 
1

$$$$

     RDKit          3D

 54 58  0  0  0  0  0  0  0  0999 V2000
  143.3170   76.5960  218.7500 O   0  0  0  0  0  0  0  0  0  0  0  0
  142.4720   77.0680  219.5850 C   0  0  0  0  0  0  0  0  0  0  0  0
  141.8420   76.1770  220.4640 N   0  0  0  0  0  0  0  0  0  0  0  0
  142.1030   74.7500  220.4690 C   0  0  0  0  0  0  0  0  0  0  0  0
  141.0950   74.0030  221.2480 C   0  0  0  0  0  0  0  0  0  0  0  0
  140.3050   74.5290  222.0740 O   0  0  0  0  0  0  0  0  0  0  0  0
  141.0180   72.5970  221.0450 N   0  0  0  0  0  0  0  0  0  0  0  0
  142.1880   71.7270  220.8740 C   0  0  0  0  0  0  0  0  0  0  0  0
  141.7110   70.5300  220.0790 C   0  0  0  0  0  0  0  0  0  0  0  0
  140.2360   70.8390  219.8080 C   0  0  0  0  0  0  0  0  0  0  0  0
  139.8460   71.7530  220.9640 C   0  0  1  0  0  0  0  0  0  0  0  0
  139.7240   70.9680  222.2210 C   0  0  0  0  0  0  0  0  0  0  0  0
  140.1960   71.4300  223.4030 N   0  0  0  0  0  0  0  0  0  0  0  0
  139.9410   70.5030  224.3540 C   0  0  0  0  0  0  0  0  0  0  0  0
  140.3230   70.6920  225.7470 C   0  0  0  0  0  0  0  0  0  0  0  0
  140.9680   71.8570  226.1020 C   0  0  0  0  0  0  0  0  0  0  0  0
  141.3600   72.0950  227.4250 C   0  0  0  0  0  0  0  0  0  0  0  0
  141.0930   71.1430  228.3870 C   0  0  0  0  0  0  0  0  0  0  0  0
  140.4490   69.9780  228.0400 C   0  0  0  0  0  0  0  0  0  0  0  0
  140.0680   69.7580  226.7230 C   0  0  0  0  0  0  0  0  0  0  0  0
  139.3100   69.4790  223.7220 C   0  0  0  0  0  0  0  0  0  0  0  0
  139.2010   69.8010  222.4460 O   0  0  0  0  0  0  0  0  0  0  0  0
  142.1890   78.5010  219.6040 C   0  0  0  0  0  0  0  0  0  0  0  0
  142.3610   79.2420  218.4430 C   0  0  0  0  0  0  0  0  0  0  0  0
  142.0990   80.6000  218.4350 C   0  0  0  0  0  0  0  0  0  0  0  0
  141.6630   81.2130  219.6020 C   0  0  0  0  0  0  0  0  0  0  0  0
  141.3870   82.5720  219.6440 C   0  0  0  0  0  0  0  0  0  0  0  0
  140.9530   83.1540  220.8240 C   0  0  0  0  0  0  0  0  0  0  0  0
  140.6230   84.8910  220.7960 Cl  0  0  0  0  0  0  0  0  0  0  0  0
  140.7880   82.4020  221.9700 C   0  0  0  0  0  0  0  0  0  0  0  0
  141.0630   81.0420  221.9330 C   0  0  0  0  0  0  0  0  0  0  0  0
  141.4950   80.4580  220.7610 C   0  0  0  0  0  0  0  0  0  0  0  0
  141.7640   79.1490  220.7040 N   0  0  0  0  0  0  0  0  0  0  0  0
  141.1530   76.5380  221.1510 H   0  0  0  0  0  0  0  0  0  0  0  0
  142.0922   74.3839  219.4318 H   0  0  0  0  0  0  0  0  0  0  0  0
  143.0836   74.5869  220.9399 H   0  0  0  0  0  0  0  0  0  0  0  0
  142.9809   72.2573  220.3262 H   0  0  0  0  0  0  0  0  0  0  0  0
  142.6069   71.4228  221.8446 H   0  0  0  0  0  0  0  0  0  0  0  0
  142.2716   70.4359  219.1372 H   0  0  0  0  0  0  0  0  0  0  0  0
  141.8564   69.5788  220.6119 H   0  0  0  0  0  0  0  0  0  0  0  0
  140.1125   71.3515  218.8426 H   0  0  0  0  0  0  0  0  0  0  0  0
  139.6127   69.9346  219.7476 H   0  0  0  0  0  0  0  0  0  0  0  0
  138.8910   72.2810  220.8252 H   0  0  0  0  0  0  0  0  0  0  0  0
  141.1787   72.6137  225.3320 H   0  0  0  0  0  0  0  0  0  0  0  0
  141.8744   73.0294  227.6939 H   0  0  0  0  0  0  0  0  0  0  0  0
  141.3948   71.3153  229.4307 H   0  0  0  0  0  0  0  0  0  0  0  0
  140.2355   69.2193  228.8073 H   0  0  0  0  0  0  0  0  0  0  0  0
  139.5544   68.8224  226.4566 H   0  0  0  0  0  0  0  0  0  0  0  0
  138.9540   68.5490  224.1893 H   0  0  0  0  0  0  0  0  0  0  0  0
  142.7076   78.7464  217.5242 H   0  0  0  0  0  0  0  0  0  0  0  0
  142.2345   81.1875  217.5149 H   0  0  0  0  0  0  0  0  0  0  0  0
  141.5127   83.1872  218.7408 H   0  0  0  0  0  0  0  0  0  0  0  0
  140.4427   82.8749  222.9012 H   0  0  0  0  0  0  0  0  0  0  0  0
  140.9364   80.4303  222.8384 H   0  0  0  0  0  0  0  0  0  0  0  0
  1  2  2  0
  2  3  1  0
  3  4  1  0
  4  5  1  0
  5  6  2  0
  5  7  1  0
  7  8  1  0
  8  9  1  0
  9 10  1  0
 10 11  1  0
 11 12  1  0
 12 13  2  0
 13 14  1  0
 14 15  1  0
 15 16  2  0
 16 17  1  0
 17 18  2  0
 18 19  1  0
 19 20  2  0
 14 21  2  0
 21 22  1  0
  2 23  1  0
 23 24  2  0
 24 25  1  0
 25 26  2  0
 26 27  1  0
 27 28  2  0
 28 29  1  0
 28 30  1  0
 30 31  2  0
 31 32  1  0
 32 33  2  0
 11  7  1  0
 22 12  1  0
 33 23  1  0
 20 15  1  0
 32 26  1  0
  3 34  1  0
  4 35  1  0
  4 36  1  0
  8 37  1  0
  8 38  1  0
  9 39  1  0
  9 40  1  0
 10 41  1  0
 10 42  1  0
 11 43  1  6
 16 44  1  0
 17 45  1  0
 18 46  1  0
 19 47  1  0
 20 48  1  0
 21 49  1  0
 24 50  1  0
 25 51  1  0
 27 52  1  0
 30 53  1  0
 31 54  1  0
M  END
>  <smiles>  (2) 
O=C(NCC(=O)N1CCC[C@H]1c1nc(-c2ccccc2)co1)c1ccc2cc(Cl)ccc2n1

>  <score_type>  (2) 
oracle

>  <origin>  (2) 
autodockgpu

>  <m_score__min__energy>  (2) 
-9.4000000000000004

>  <m_primary>  (2) 
energy

>  <rmsd>  (2) 
10.255607806737965

>  <m_score__min__rmsd>  (2) 
10.255607806737965

>  <meeko>  (2) 
{"free_energy": -8.26, "intermolecular_energy": -10.05, "internal_energy": -2.04, "cluster_size": 1, "cluster_id": 6, "rank_in_cluster": 1}

>  <energy>  (2) 
-9.17

>  <cluster_rmsd>  (2) 
0.3

>  <cluster>  (2) 
1

$$$$

     RDKit          3D

 54 58  0  0  0  0  0  0  0  0999 V2000
  135.7180   75.5500  221.6120 O   0  0  0  0  0  0  0  0  0  0  0  0
  136.8900   75.4180  222.1060 C   0  0  0  0  0  0  0  0  0  0  0  0
  137.3790   74.1210  222.3160 N   0  0  0  0  0  0  0  0  0  0  0  0
  136.6170   72.9270  222.0020 C   0  0  0  0  0  0  0  0  0  0  0  0
  136.7890   71.8730  223.0210 C   0  0  0  0  0  0  0  0  0  0  0  0
  135.8760   71.4760  223.7900 O   0  0  0  0  0  0  0  0  0  0  0  0
  138.0730   71.2730  223.1360 N   0  0  0  0  0  0  0  0  0  0  0  0
  138.3950   69.9240  222.6550 C   0  0  0  0  0  0  0  0  0  0  0  0
  139.5600   69.4430  223.4950 C   0  0  0  0  0  0  0  0  0  0  0  0
  139.8060   70.5990  224.4690 C   0  0  0  0  0  0  0  0  0  0  0  0
  139.2830   71.8160  223.7160 C   0  0  1  0  0  0  0  0  0  0  0  0
  140.2220   72.1870  222.6230 C   0  0  0  0  0  0  0  0  0  0  0  0
  140.3860   73.4700  222.2240 N   0  0  0  0  0  0  0  0  0  0  0  0
  141.2950   73.4920  221.2240 C   0  0  0  0  0  0  0  0  0  0  0  0
  141.7020   74.7260  220.5670 C   0  0  0  0  0  0  0  0  0  0  0  0
  143.0440   74.9420  220.3400 C   0  0  0  0  0  0  0  0  0  0  0  0
  143.4960   76.1090  219.7130 C   0  0  0  0  0  0  0  0  0  0  0  0
  142.5760   77.0580  219.3160 C   0  0  0  0  0  0  0  0  0  0  0  0
  141.2340   76.8500  219.5390 C   0  0  0  0  0  0  0  0  0  0  0  0
  140.8050   75.6860  220.1630 C   0  0  0  0  0  0  0  0  0  0  0  0
  141.6720   72.2010  221.0300 C   0  0  0  0  0  0  0  0  0  0  0  0
  141.0030   71.4540  221.8900 O   0  0  0  0  0  0  0  0  0  0  0  0
  137.6810   76.6020  222.4310 C   0  0  0  0  0  0  0  0  0  0  0  0
  137.0320   77.7990  222.7020 C   0  0  0  0  0  0  0  0  0  0  0  0
  137.7570   78.9330  223.0140 C   0  0  0  0  0  0  0  0  0  0  0  0
  139.1430   78.8630  223.0530 C   0  0  0  0  0  0  0  0  0  0  0  0
  139.9150   79.9740  223.3610 C   0  0  0  0  0  0  0  0  0  0  0  0
  141.2960   79.8700  223.3920 C   0  0  0  0  0  0  0  0  0  0  0  0
  142.2080   81.3310  223.7920 Cl  0  0  0  0  0  0  0  0  0  0  0  0
  141.9260   78.6720  223.1200 C   0  0  0  0  0  0  0  0  0  0  0  0
  141.1590   77.5580  222.8110 C   0  0  0  0  0  0  0  0  0  0  0  0
  139.7830   77.6560  222.7790 C   0  0  0  0  0  0  0  0  0  0  0  0
  139.0250   76.5940  222.4850 N   0  0  0  0  0  0  0  0  0  0  0  0
  138.3270   73.9900  222.7150 H   0  0  0  0  0  0  0  0  0  0  0  0
  135.5511   73.1922  221.9427 H   0  0  0  0  0  0  0  0  0  0  0  0
  136.9850   72.5335  221.0430 H   0  0  0  0  0  0  0  0  0  0  0  0
  137.5303   69.2565  222.7844 H   0  0  0  0  0  0  0  0  0  0  0  0
  138.6480   69.9298  221.5845 H   0  0  0  0  0  0  0  0  0  0  0  0
  139.2991   68.5220  224.0370 H   0  0  0  0  0  0  0  0  0  0  0  0
  140.4469   69.1964  222.8929 H   0  0  0  0  0  0  0  0  0  0  0  0
  139.2507   70.4482  225.4065 H   0  0  0  0  0  0  0  0  0  0  0  0
  140.8623   70.6966  224.7600 H   0  0  0  0  0  0  0  0  0  0  0  0
  139.1487   72.7132  224.3381 H   0  0  0  0  0  0  0  0  0  0  0  0
  143.7739   74.1828  220.6576 H   0  0  0  0  0  0  0  0  0  0  0  0
  144.5705   76.2676  219.5390 H   0  0  0  0  0  0  0  0  0  0  0  0
  142.9152   77.9802  218.8216 H   0  0  0  0  0  0  0  0  0  0  0  0
  140.5006   77.6064  219.2227 H   0  0  0  0  0  0  0  0  0  0  0  0
  139.7301   75.5297  220.3368 H   0  0  0  0  0  0  0  0  0  0  0  0
  142.4027   71.8425  220.2901 H   0  0  0  0  0  0  0  0  0  0  0  0
  135.9335   77.8449  222.6681 H   0  0  0  0  0  0  0  0  0  0  0  0
  137.2418   79.8808  223.2291 H   0  0  0  0  0  0  0  0  0  0  0  0
  139.4306   80.9369  223.5804 H   0  0  0  0  0  0  0  0  0  0  0  0
  143.0234   78.6016  223.1479 H   0  0  0  0  0  0  0  0  0  0  0  0
  141.6475   76.5971  222.5916 H   0  0  0  0  0  0  0  0  0  0  0  0
  1  2  2  0
  2  3  1  0
  3  4  1  0
  4  5  1  0
  5  6  2  0
  5  7  1  0
  7  8  1  0
  8  9  1  0
  9 10  1  0
 10 11  1  0
 11 12  1  0
 12 13  2  0
 13 14  1  0
 14 15  1  0
 15 16  2  0
 16 17  1  0
 17 18  2  0
 18 19  1  0
 19 20  2  0
 14 21  2  0
 21 22  1  0
  2 23  1  0
 23 24  2  0
 24 25  1  0
 25 26  2  0
 26 27  1  0
 27 28  2  0
 28 29  1  0
 28 30  1  0
 30 31  2  0
 31 32  1  0
 32 33  2  0
 11  7  1  0
 22 12  1  0
 33 23  1  0
 20 15  1  0
 32 26  1  0
  3 34  1  0
  4 35  1  0
  4 36  1  0
  8 37  1  0
  8 38  1  0
  9 39  1  0
  9 40  1  0
 10 41  1  0
 10 42  1  0
 11 43  1  1
 16 44  1  0
 17 45  1  0
 18 46  1  0
 19 47  1  0
 20 48  1  0
 21 49  1  0
 24 50  1  0
 25 51  1  0
 27 52  1  0
 30 53  1  0
 31 54  1  0
M  END
>  <smiles>  (3) 
O=C(NCC(=O)N1CCC[C@H]1c1nc(-c2ccccc2)co1)c1ccc2cc(Cl)ccc2n1

>  <score_type>  (3) 
oracle

>  <origin>  (3) 
autodockgpu

>  <m_score__min__energy>  (3) 
-9.4000000000000004

>  <m_primary>  (3) 
energy

>  <rmsd>  (3) 
7.699013496020002

>  <m_score__min__rmsd>  (3) 
7.699013496020002

>  <meeko>  (3) 
{"free_energy": -7.3, "intermolecular_energy": -9.09, "internal_energy": -3.56, "cluster_size": 2, "cluster_id": 7, "rank_in_cluster": 1}

>  <energy>  (3) 
-9.06

>  <cluster_rmsd>  (3) 
0.68

>  <cluster>  (3) 
1

$$$$

     RDKit          3D

 54 58  0  0  0  0  0  0  0  0999 V2000
  139.9630   75.0670  222.1360 O   0  0  0  0  0  0  0  0  0  0  0  0
  139.4410   76.1380  221.6740 C   0  0  0  0  0  0  0  0  0  0  0  0
  138.0890   76.3860  221.9470 N   0  0  0  0  0  0  0  0  0  0  0  0
  137.2590   75.4860  222.7250 C   0  0  0  0  0  0  0  0  0  0  0  0
  135.8240   75.8120  222.6100 C   0  0  0  0  0  0  0  0  0  0  0  0
  134.9550   75.0320  222.1420 O   0  0  0  0  0  0  0  0  0  0  0  0
  135.4030   77.0950  223.0590 N   0  0  0  0  0  0  0  0  0  0  0  0
  134.7350   77.3360  224.3430 C   0  0  0  0  0  0  0  0  0  0  0  0
  133.9170   78.5990  224.1630 C   0  0  0  0  0  0  0  0  0  0  0  0
  134.1630   78.9830  222.7010 C   0  0  0  0  0  0  0  0  0  0  0  0
  135.5280   78.3760  222.3980 C   0  0  1  0  0  0  0  0  0  0  0  0
  136.6000   79.1640  223.0620 C   0  0  0  0  0  0  0  0  0  0  0  0
  137.9020   79.0390  222.7130 N   0  0  0  0  0  0  0  0  0  0  0  0
  138.6320   79.8750  223.4850 C   0  0  0  0  0  0  0  0  0  0  0  0
  140.0790   79.9840  223.3630 C   0  0  0  0  0  0  0  0  0  0  0  0
  140.6210   81.1980  222.9960 C   0  0  0  0  0  0  0  0  0  0  0  0
  142.0040   81.3640  222.8620 C   0  0  0  0  0  0  0  0  0  0  0  0
  142.8370   80.2910  223.1040 C   0  0  0  0  0  0  0  0  0  0  0  0
  142.3040   79.0770  223.4710 C   0  0  0  0  0  0  0  0  0  0  0  0
  140.9280   78.9300  223.5980 C   0  0  0  0  0  0  0  0  0  0  0  0
  137.7460   80.5020  224.3020 C   0  0  0  0  0  0  0  0  0  0  0  0
  136.5400   80.0450  224.0140 O   0  0  0  0  0  0  0  0  0  0  0  0
  140.2520   77.0640  220.8880 C   0  0  0  0  0  0  0  0  0  0  0  0
  141.4890   76.6490  220.4140 C   0  0  0  0  0  0  0  0  0  0  0  0
  142.2750   77.5060  219.6670 C   0  0  0  0  0  0  0  0  0  0  0  0
  141.8130   78.7870  219.3960 C   0  0  0  0  0  0  0  0  0  0  0  0
  142.5650   79.6830  218.6500 C   0  0  0  0  0  0  0  0  0  0  0  0
  142.0750   80.9550  218.3970 C   0  0  0  0  0  0  0  0  0  0  0  0
  143.0940   82.0380  217.4400 Cl  0  0  0  0  0  0  0  0  0  0  0  0
  140.8430   81.3520  218.8760 C   0  0  0  0  0  0  0  0  0  0  0  0
  140.0870   80.4580  219.6230 C   0  0  0  0  0  0  0  0  0  0  0  0
  140.5690   79.1910  219.8770 C   0  0  0  0  0  0  0  0  0  0  0  0
  139.8560   78.3150  220.5940 N   0  0  0  0  0  0  0  0  0  0  0  0
  137.6430   77.2500  221.5830 H   0  0  0  0  0  0  0  0  0  0  0  0
  137.4187   74.4582  222.3670 H   0  0  0  0  0  0  0  0  0  0  0  0
  137.5456   75.5907  223.7818 H   0  0  0  0  0  0  0  0  0  0  0  0
  134.0794   76.4899  224.5966 H   0  0  0  0  0  0  0  0  0  0  0  0
  135.4635   77.4431  225.1602 H   0  0  0  0  0  0  0  0  0  0  0  0
  132.8495   78.4045  224.3436 H   0  0  0  0  0  0  0  0  0  0  0  0
  134.2001   79.3952  224.8672 H   0  0  0  0  0  0  0  0  0  0  0  0
  133.3888   78.5557  222.0467 H   0  0  0  0  0  0  0  0  0  0  0  0
  134.1305   80.0695  222.5323 H   0  0  0  0  0  0  0  0  0  0  0  0
  135.7812   78.3344  221.3283 H   0  0  0  0  0  0  0  0  0  0  0  0
  139.9538   82.0515  222.8051 H   0  0  0  0  0  0  0  0  0  0  0  0
  142.4219   82.3379  222.5674 H   0  0  0  0  0  0  0  0  0  0  0  0
  143.9263   80.4062  223.0036 H   0  0  0  0  0  0  0  0  0  0  0  0
  142.9679   78.2215  223.6642 H   0  0  0  0  0  0  0  0  0  0  0  0
  140.5123   77.9547  223.8912 H   0  0  0  0  0  0  0  0  0  0  0  0
  137.9889   81.2550  225.0662 H   0  0  0  0  0  0  0  0  0  0  0  0
  141.8458   75.6320  220.6342 H   0  0  0  0  0  0  0  0  0  0  0  0
  143.2552   77.1770  219.2915 H   0  0  0  0  0  0  0  0  0  0  0  0
  143.5491   79.3844  218.2596 H   0  0  0  0  0  0  0  0  0  0  0  0
  140.4646   82.3639  218.6687 H   0  0  0  0  0  0  0  0  0  0  0  0
  139.1036   80.7605  220.0121 H   0  0  0  0  0  0  0  0  0  0  0  0
  1  2  2  0
  2  3  1  0
  3  4  1  0
  4  5  1  0
  5  6  2  0
  5  7  1  0
  7  8  1  0
  8  9  1  0
  9 10  1  0
 10 11  1  0
 11 12  1  0
 12 13  2  0
 13 14  1  0
 14 15  1  0
 15 16  2  0
 16 17  1  0
 17 18  2  0
 18 19  1  0
 19 20  2  0
 14 21  2  0
 21 22  1  0
  2 23  1  0
 23 24  2  0
 24 25  1  0
 25 26  2  0
 26 27  1  0
 27 28  2  0
 28 29  1  0
 28 30  1  0
 30 31  2  0
 31 32  1  0
 32 33  2  0
 11  7  1  0
 22 12  1  0
 33 23  1  0
 20 15  1  0
 32 26  1  0
  3 34  1  0
  4 35  1  0
  4 36  1  0
  8 37  1  0
  8 38  1  0
  9 39  1  0
  9 40  1  0
 10 41  1  0
 10 42  1  0
 11 43  1  6
 16 44  1  0
 17 45  1  0
 18 46  1  0
 19 47  1  0
 20 48  1  0
 21 49  1  0
 24 50  1  0
 25 51  1  0
 27 52  1  0
 30 53  1  0
 31 54  1  0
M  END
>  <smiles>  (4) 
O=C(NCC(=O)N1CCC[C@H]1c1nc(-c2ccccc2)co1)c1ccc2cc(Cl)ccc2n1

>  <score_type>  (4) 
oracle

>  <origin>  (4) 
autodockgpu

>  <m_score__min__energy>  (4) 
-9.4000000000000004

>  <m_primary>  (4) 
energy

>  <rmsd>  (4) 
8.086828920593062

>  <m_score__min__rmsd>  (4) 
8.086828920593062

>  <meeko>  (4) 
{"free_energy": -6.35, "intermolecular_energy": -8.14, "internal_energy": -4.25, "cluster_size": 3, "cluster_id": 14, "rank_in_cluster": 3}

>  <energy>  (4) 
-9.0

>  <cluster_rmsd>  (4) 
0.49

>  <cluster>  (4) 
1

$$$$

     RDKit          3D

 54 58  0  0  0  0  0  0  0  0999 V2000
  135.9170   76.1250  221.7010 O   0  0  0  0  0  0  0  0  0  0  0  0
  137.0880   75.9450  222.1800 C   0  0  0  0  0  0  0  0  0  0  0  0
  137.5430   74.6280  222.3390 N   0  0  0  0  0  0  0  0  0  0  0  0
  136.7470   73.4670  221.9870 C   0  0  0  0  0  0  0  0  0  0  0  0
  136.9280   72.3580  222.9450 C   0  0  0  0  0  0  0  0  0  0  0  0
  136.1100   72.0690  223.8560 O   0  0  0  0  0  0  0  0  0  0  0  0
  138.1060   71.5700  222.8230 N   0  0  0  0  0  0  0  0  0  0  0  0
  138.2180   70.3900  221.9580 C   0  0  0  0  0  0  0  0  0  0  0  0
  139.2960   69.5190  222.5690 C   0  0  0  0  0  0  0  0  0  0  0  0
  139.7150   70.2890  223.8250 C   0  0  0  0  0  0  0  0  0  0  0  0
  139.3840   71.7370  223.4810 C   0  0  1  0  0  0  0  0  0  0  0  0
  140.3680   72.2710  222.5020 C   0  0  0  0  0  0  0  0  0  0  0  0
  140.3560   73.5660  222.1070 N   0  0  0  0  0  0  0  0  0  0  0  0
  141.3610   73.7500  221.2210 C   0  0  0  0  0  0  0  0  0  0  0  0
  141.6250   75.0400  220.6000 C   0  0  0  0  0  0  0  0  0  0  0  0
  140.5640   75.8910  220.3720 C   0  0  0  0  0  0  0  0  0  0  0  0
  140.7550   77.1450  219.7780 C   0  0  0  0  0  0  0  0  0  0  0  0
  142.0290   77.5310  219.4180 C   0  0  0  0  0  0  0  0  0  0  0  0
  143.0920   76.6880  219.6420 C   0  0  0  0  0  0  0  0  0  0  0  0
  142.8850   75.4470  220.2320 C   0  0  0  0  0  0  0  0  0  0  0  0
  141.9740   72.5440  221.0920 C   0  0  0  0  0  0  0  0  0  0  0  0
  141.3460   71.6880  221.8780 O   0  0  0  0  0  0  0  0  0  0  0  0
  137.9130   77.0940  222.5420 C   0  0  0  0  0  0  0  0  0  0  0  0
  137.3070   78.3260  222.7490 C   0  0  0  0  0  0  0  0  0  0  0  0
  138.0660   79.4290  223.0940 C   0  0  0  0  0  0  0  0  0  0  0  0
  139.4400   79.2920  223.2300 C   0  0  0  0  0  0  0  0  0  0  0  0
  140.2440   80.3690  223.5750 C   0  0  0  0  0  0  0  0  0  0  0  0
  141.6130   80.1980  223.7040 C   0  0  0  0  0  0  0  0  0  0  0  0
  142.5670   81.6200  224.1440 Cl  0  0  0  0  0  0  0  0  0  0  0  0
  142.1990   78.9660  223.4940 C   0  0  0  0  0  0  0  0  0  0  0  0
  141.4000   77.8850  223.1490 C   0  0  0  0  0  0  0  0  0  0  0  0
  140.0360   78.0500  223.0200 C   0  0  0  0  0  0  0  0  0  0  0  0
  139.2480   77.0210  222.6890 N   0  0  0  0  0  0  0  0  0  0  0  0
  138.4910   74.4570  222.7250 H   0  0  0  0  0  0  0  0  0  0  0  0
  135.6855   73.7553  221.9746 H   0  0  0  0  0  0  0  0  0  0  0  0
  137.0772   73.1173  220.9978 H   0  0  0  0  0  0  0  0  0  0  0  0
  137.2615   69.8476  221.9271 H   0  0  0  0  0  0  0  0  0  0  0  0
  138.4687   70.6726  220.9249 H   0  0  0  0  0  0  0  0  0  0  0  0
  138.8978   68.5276  222.8310 H   0  0  0  0  0  0  0  0  0  0  0  0
  140.1351   69.3338  221.8823 H   0  0  0  0  0  0  0  0  0  0  0  0
  139.1426   69.9524  224.7019 H   0  0  0  0  0  0  0  0  0  0  0  0
  140.7736   70.1414  224.0851 H   0  0  0  0  0  0  0  0  0  0  0  0
  139.3883   72.4219  224.3418 H   0  0  0  0  0  0  0  0  0  0  0  0
  139.5496   75.5794  220.6618 H   0  0  0  0  0  0  0  0  0  0  0  0
  139.8996   77.8135  219.6009 H   0  0  0  0  0  0  0  0  0  0  0  0
  142.1949   78.5133  218.9516 H   0  0  0  0  0  0  0  0  0  0  0  0
  144.1077   76.9965  219.3537 H   0  0  0  0  0  0  0  0  0  0  0  0
  143.7424   74.7805  220.4071 H   0  0  0  0  0  0  0  0  0  0  0  0
  142.8379   72.3208  220.4487 H   0  0  0  0  0  0  0  0  0  0  0  0
  136.2171   78.4250  222.6379 H   0  0  0  0  0  0  0  0  0  0  0  0
  137.5856   80.4047  223.2589 H   0  0  0  0  0  0  0  0  0  0  0  0
  139.7947   81.3584  223.7461 H   0  0  0  0  0  0  0  0  0  0  0  0
  143.2870   78.8424  223.5989 H   0  0  0  0  0  0  0  0  0  0  0  0
  141.8536   76.8975  222.9785 H   0  0  0  0  0  0  0  0  0  0  0  0
  1  2  2  0
  2  3  1  0
  3  4  1  0
  4  5  1  0
  5  6  2  0
  5  7  1  0
  7  8  1  0
  8  9  1  0
  9 10  1  0
 10 11  1  0
 11 12  1  0
 12 13  2  0
 13 14  1  0
 14 15  1  0
 15 16  2  0
 16 17  1  0
 17 18  2  0
 18 19  1  0
 19 20  2  0
 14 21  2  0
 21 22  1  0
  2 23  1  0
 23 24  2  0
 24 25  1  0
 25 26  2  0
 26 27  1  0
 27 28  2  0
 28 29  1  0
 28 30  1  0
 30 31  2  0
 31 32  1  0
 32 33  2  0
 11  7  1  0
 22 12  1  0
 33 23  1  0
 20 15  1  0
 32 26  1  0
  3 34  1  0
  4 35  1  0
  4 36  1  0
  8 37  1  0
  8 38  1  0
  9 39  1  0
  9 40  1  0
 10 41  1  0
 10 42  1  0
 11 43  1  1
 16 44  1  0
 17 45  1  0
 18 46  1  0
 19 47  1  0
 20 48  1  0
 21 49  1  0
 24 50  1  0
 25 51  1  0
 27 52  1  0
 30 53  1  0
 31 54  1  0
M  END
>  <smiles>  (5) 
O=C(NCC(=O)N1CCC[C@H]1c1nc(-c2ccccc2)co1)c1ccc2cc(Cl)ccc2n1

>  <score_type>  (5) 
oracle

>  <origin>  (5) 
autodockgpu

>  <m_score__min__energy>  (5) 
-9.4000000000000004

>  <m_primary>  (5) 
energy

>  <rmsd>  (5) 
7.5830665509200745

>  <m_score__min__rmsd>  (5) 
7.5830665509200745

>  <meeko>  (5) 
{"free_energy": -7.23, "intermolecular_energy": -9.02, "internal_energy": -3.65, "cluster_size": 2, "cluster_id": 7, "rank_in_cluster": 2}

>  <energy>  (5) 
-9.13

>  <cluster_rmsd>  (5) 
0.0

>  <cluster>  (5) 
2

$$$$

     RDKit          3D

 54 58  0  0  0  0  0  0  0  0999 V2000
  140.3030   73.9650  221.8640 O   0  0  0  0  0  0  0  0  0  0  0  0
  140.6370   75.1890  221.7070 C   0  0  0  0  0  0  0  0  0  0  0  0
  141.9090   75.4670  221.1900 N   0  0  0  0  0  0  0  0  0  0  0  0
  142.8610   74.4340  220.8290 C   0  0  0  0  0  0  0  0  0  0  0  0
  143.0330   74.3220  219.3670 C   0  0  0  0  0  0  0  0  0  0  0  0
  143.8370   73.5330  218.8060 O   0  0  0  0  0  0  0  0  0  0  0  0
  142.2340   75.1640  218.5450 N   0  0  0  0  0  0  0  0  0  0  0  0
  140.8680   74.8390  218.1190 C   0  0  0  0  0  0  0  0  0  0  0  0
  140.6380   75.5920  216.8250 C   0  0  0  0  0  0  0  0  0  0  0  0
  141.9730   76.2990  216.5760 C   0  0  0  0  0  0  0  0  0  0  0  0
  142.5600   76.4530  217.9740 C   0  0  1  0  0  0  0  0  0  0  0  0
  141.8350   77.5140  218.7230 C   0  0  0  0  0  0  0  0  0  0  0  0
  142.3810   78.1370  219.7940 N   0  0  0  0  0  0  0  0  0  0  0  0
  141.4920   79.0430  220.2580 C   0  0  0  0  0  0  0  0  0  0  0  0
  141.7710   79.8870  221.4110 C   0  0  0  0  0  0  0  0  0  0  0  0
  142.5660   79.3860  222.4190 C   0  0  0  0  0  0  0  0  0  0  0  0
  142.8700   80.1500  223.5520 C   0  0  0  0  0  0  0  0  0  0  0  0
  142.3620   81.4280  223.6570 C   0  0  0  0  0  0  0  0  0  0  0  0
  141.5680   81.9360  222.6550 C   0  0  0  0  0  0  0  0  0  0  0  0
  141.2770   81.1630  221.5380 C   0  0  0  0  0  0  0  0  0  0  0  0
  140.4050   78.9530  219.4480 C   0  0  0  0  0  0  0  0  0  0  0  0
  140.6540   78.0240  218.5430 O   0  0  0  0  0  0  0  0  0  0  0  0
  139.6990   76.2520  222.0620 C   0  0  0  0  0  0  0  0  0  0  0  0
  138.3750   76.1520  221.6570 C   0  0  0  0  0  0  0  0  0  0  0  0
  137.4680   77.1430  221.9810 C   0  0  0  0  0  0  0  0  0  0  0  0
  137.8970   78.2410  222.7150 C   0  0  0  0  0  0  0  0  0  0  0  0
  137.0250   79.2620  223.0640 C   0  0  0  0  0  0  0  0  0  0  0  0
  137.4840   80.3440  223.7980 C   0  0  0  0  0  0  0  0  0  0  0  0
  136.3110   81.6030  224.2030 Cl  0  0  0  0  0  0  0  0  0  0  0  0
  138.8040   80.4280  224.1930 C   0  0  0  0  0  0  0  0  0  0  0  0
  139.6810   79.4090  223.8450 C   0  0  0  0  0  0  0  0  0  0  0  0
  139.2290   78.3300  223.1150 C   0  0  0  0  0  0  0  0  0  0  0  0
  140.0570   77.3370  222.7710 N   0  0  0  0  0  0  0  0  0  0  0  0
  142.2030   76.4530  221.0540 H   0  0  0  0  0  0  0  0  0  0  0  0
  143.8337   74.6741  221.2830 H   0  0  0  0  0  0  0  0  0  0  0  0
  142.4737   73.4731  221.1985 H   0  0  0  0  0  0  0  0  0  0  0  0
  140.7679   73.7562  217.9530 H   0  0  0  0  0  0  0  0  0  0  0  0
  140.1312   75.1236  218.8846 H   0  0  0  0  0  0  0  0  0  0  0  0
  140.4019   74.8988  216.0042 H   0  0  0  0  0  0  0  0  0  0  0  0
  139.7896   76.2898  216.8822 H   0  0  0  0  0  0  0  0  0  0  0  0
  142.6291   75.6874  215.9392 H   0  0  0  0  0  0  0  0  0  0  0  0
  141.8582   77.2590  216.0513 H   0  0  0  0  0  0  0  0  0  0  0  0
  143.6261   76.7235  217.9926 H   0  0  0  0  0  0  0  0  0  0  0  0
  142.9694   78.3664  222.3317 H   0  0  0  0  0  0  0  0  0  0  0  0
  143.5060   79.7363  224.3485 H   0  0  0  0  0  0  0  0  0  0  0  0
  142.5916   82.0406  224.5413 H   0  0  0  0  0  0  0  0  0  0  0  0
  141.1631   82.9554  222.7384 H   0  0  0  0  0  0  0  0  0  0  0  0
  140.6411   81.5789  220.7426 H   0  0  0  0  0  0  0  0  0  0  0  0
  139.4830   79.5472  219.5311 H   0  0  0  0  0  0  0  0  0  0  0  0
  138.0459   75.2787  221.0747 H   0  0  0  0  0  0  0  0  0  0  0  0
  136.4185   77.0630  221.6612 H   0  0  0  0  0  0  0  0  0  0  0  0
  135.9695   79.2127  222.7581 H   0  0  0  0  0  0  0  0  0  0  0  0
  139.1568   81.2914  224.7762 H   0  0  0  0  0  0  0  0  0  0  0  0
  140.7360   79.4626  224.1516 H   0  0  0  0  0  0  0  0  0  0  0  0
  1  2  2  0
  2  3  1  0
  3  4  1  0
  4  5  1  0
  5  6  2  0
  5  7  1  0
  7  8  1  0
  8  9  1  0
  9 10  1  0
 10 11  1  0
 11 12  1  0
 12 13  2  0
 13 14  1  0
 14 15  1  0
 15 16  2  0
 16 17  1  0
 17 18  2  0
 18 19  1  0
 19 20  2  0
 14 21  2  0
 21 22  1  0
  2 23  1  0
 23 24  2  0
 24 25  1  0
 25 26  2  0
 26 27  1  0
 27 28  2  0
 28 29  1  0
 28 30  1  0
 30 31  2  0
 31 32  1  0
 32 33  2  0
 11  7  1  0
 22 12  1  0
 33 23  1  0
 20 15  1  0
 32 26  1  0
  3 34  1  0
  4 35  1  0
  4 36  1  0
  8 37  1  0
  8 38  1  0
  9 39  1  0
  9 40  1  0
 10 41  1  0
 10 42  1  0
 11 43  1  6
 16 44  1  0
 17 45  1  0
 18 46  1  0
 19 47  1  0
 20 48  1  0
 21 49  1  0
 24 50  1  0
 25 51  1  0
 27 52  1  0
 30 53  1  0
 31 54  1  0
M  END
>  <smiles>  (6) 
O=C(NCC(=O)N1CCC[C@H]1c1nc(-c2ccccc2)co1)c1ccc2cc(Cl)ccc2n1

>  <score_type>  (6) 
oracle

>  <origin>  (6) 
autodockgpu

>  <m_score__min__energy>  (6) 
-9.4000000000000004

>  <m_primary>  (6) 
energy

>  <rmsd>  (6) 
6.064522518352701

>  <m_score__min__rmsd>  (6) 
6.064522518352701

>  <meeko>  (6) 
{"free_energy": -6.81, "intermolecular_energy": -8.6, "internal_energy": -4.28, "cluster_size": 9, "cluster_id": 12, "rank_in_cluster": 2}

>  <energy>  (6) 
-9.07

>  <cluster_rmsd>  (6) 
1.88

>  <cluster>  (6) 
2

$$$$

     RDKit          3D

 54 58  0  0  0  0  0  0  0  0999 V2000
  139.6730   74.4020  221.9660 O   0  0  0  0  0  0  0  0  0  0  0  0
  140.2480   75.5220  221.7460 C   0  0  0  0  0  0  0  0  0  0  0  0
  141.5910   75.5090  221.3470 N   0  0  0  0  0  0  0  0  0  0  0  0
  142.3560   74.2880  221.1750 C   0  0  0  0  0  0  0  0  0  0  0  0
  142.3500   73.8210  219.7740 C   0  0  0  0  0  0  0  0  0  0  0  0
  142.5560   72.6300  219.4240 O   0  0  0  0  0  0  0  0  0  0  0  0
  142.0950   74.7860  218.7610 N   0  0  0  0  0  0  0  0  0  0  0  0
  140.9270   74.7550  217.8730 C   0  0  0  0  0  0  0  0  0  0  0  0
  141.3350   75.4880  216.6120 C   0  0  0  0  0  0  0  0  0  0  0  0
  142.7950   75.8700  216.8720 C   0  0  0  0  0  0  0  0  0  0  0  0
  142.8780   75.9460  218.3920 C   0  0  1  0  0  0  0  0  0  0  0  0
  142.1920   77.1710  218.8840 C   0  0  0  0  0  0  0  0  0  0  0  0
  142.5640   77.7890  220.0300 N   0  0  0  0  0  0  0  0  0  0  0  0
  141.7640   78.8640  220.2120 C   0  0  0  0  0  0  0  0  0  0  0  0
  141.8990   79.7490  221.3600 C   0  0  0  0  0  0  0  0  0  0  0  0
  141.3420   81.0080  221.2920 C   0  0  0  0  0  0  0  0  0  0  0  0
  141.4390   81.9040  222.3630 C   0  0  0  0  0  0  0  0  0  0  0  0
  142.1060   81.5150  223.5060 C   0  0  0  0  0  0  0  0  0  0  0  0
  142.6650   80.2600  223.5820 C   0  0  0  0  0  0  0  0  0  0  0  0
  142.5590   79.3850  222.5090 C   0  0  0  0  0  0  0  0  0  0  0  0
  140.9070   78.8780  219.1570 C   0  0  0  0  0  0  0  0  0  0  0  0
  141.2010   77.8460  218.3870 O   0  0  0  0  0  0  0  0  0  0  0  0
  139.5040   76.7680  221.9110 C   0  0  0  0  0  0  0  0  0  0  0  0
  138.4820   77.0710  221.0220 C   0  0  0  0  0  0  0  0  0  0  0  0
  137.7620   78.2430  221.1570 C   0  0  0  0  0  0  0  0  0  0  0  0
  138.0740   79.1150  222.1910 C   0  0  0  0  0  0  0  0  0  0  0  0
  137.3810   80.3040  222.3680 C   0  0  0  0  0  0  0  0  0  0  0  0
  137.7160   81.1530  223.4110 C   0  0  0  0  0  0  0  0  0  0  0  0
  136.7860   82.6470  223.5680 Cl  0  0  0  0  0  0  0  0  0  0  0  0
  138.7360   80.8360  224.2860 C   0  0  0  0  0  0  0  0  0  0  0  0
  139.4330   79.6480  224.1130 C   0  0  0  0  0  0  0  0  0  0  0  0
  139.1020   78.8000  223.0770 C   0  0  0  0  0  0  0  0  0  0  0  0
  139.7600   77.6500  222.8930 N   0  0  0  0  0  0  0  0  0  0  0  0
  142.0790   76.4060  221.1630 H   0  0  0  0  0  0  0  0  0  0  0  0
  143.3956   74.4746  221.4822 H   0  0  0  0  0  0  0  0  0  0  0  0
  141.8908   73.5069  221.7943 H   0  0  0  0  0  0  0  0  0  0  0  0
  140.6539   73.7156  217.6384 H   0  0  0  0  0  0  0  0  0  0  0  0
  140.0521   75.2260  218.3450 H   0  0  0  0  0  0  0  0  0  0  0  0
  141.2515   74.8325  215.7326 H   0  0  0  0  0  0  0  0  0  0  0  0
  140.6974   76.3588  216.3993 H   0  0  0  0  0  0  0  0  0  0  0  0
  143.4781   75.1027  216.4789 H   0  0  0  0  0  0  0  0  0  0  0  0
  143.0861   76.8096  216.3797 H   0  0  0  0  0  0  0  0  0  0  0  0
  143.9027   75.9731  218.7912 H   0  0  0  0  0  0  0  0  0  0  0  0
  140.8111   81.3145  220.3786 H   0  0  0  0  0  0  0  0  0  0  0  0
  140.9891   82.9054  222.2941 H   0  0  0  0  0  0  0  0  0  0  0  0
  142.1910   82.2077  224.3563 H   0  0  0  0  0  0  0  0  0  0  0  0
  143.1964   79.9495  224.4937 H   0  0  0  0  0  0  0  0  0  0  0  0
  143.0106   78.3845  222.5799 H   0  0  0  0  0  0  0  0  0  0  0  0
  140.1116   79.6162  218.9769 H   0  0  0  0  0  0  0  0  0  0  0  0
  138.2436   76.3741  220.2050 H   0  0  0  0  0  0  0  0  0  0  0  0
  136.9511   78.4820  220.4532 H   0  0  0  0  0  0  0  0  0  0  0  0
  136.5656   80.5728  221.6804 H   0  0  0  0  0  0  0  0  0  0  0  0
  138.9933   81.5170  225.1107 H   0  0  0  0  0  0  0  0  0  0  0  0
  140.2488   79.3832  224.8018 H   0  0  0  0  0  0  0  0  0  0  0  0
  1  2  2  0
  2  3  1  0
  3  4  1  0
  4  5  1  0
  5  6  2  0
  5  7  1  0
  7  8  1  0
  8  9  1  0
  9 10  1  0
 10 11  1  0
 11 12  1  0
 12 13  2  0
 13 14  1  0
 14 15  1  0
 15 16  2  0
 16 17  1  0
 17 18  2  0
 18 19  1  0
 19 20  2  0
 14 21  2  0
 21 22  1  0
  2 23  1  0
 23 24  2  0
 24 25  1  0
 25 26  2  0
 26 27  1  0
 27 28  2  0
 28 29  1  0
 28 30  1  0
 30 31  2  0
 31 32  1  0
 32 33  2  0
 11  7  1  0
 22 12  1  0
 33 23  1  0
 20 15  1  0
 32 26  1  0
  3 34  1  0
  4 35  1  0
  4 36  1  0
  8 37  1  0
  8 38  1  0
  9 39  1  0
  9 40  1  0
 10 41  1  0
 10 42  1  0
 11 43  1  6
 16 44  1  0
 17 45  1  0
 18 46  1  0
 19 47  1  0
 20 48  1  0
 21 49  1  0
 24 50  1  0
 25 51  1  0
 27 52  1  0
 30 53  1  0
 31 54  1  0
M  END
>  <smiles>  (7) 
O=C(NCC(=O)N1CCC[C@H]1c1nc(-c2ccccc2)co1)c1ccc2cc(Cl)ccc2n1

>  <score_type>  (7) 
oracle

>  <origin>  (7) 
autodockgpu

>  <m_score__min__energy>  (7) 
-9.4000000000000004

>  <m_primary>  (7) 
energy

>  <rmsd>  (7) 
6.416078801748107

>  <m_score__min__rmsd>  (7) 
6.416078801748107

>  <meeko>  (7) 
{"free_energy": -6.16, "intermolecular_energy": -7.95, "internal_energy": -4.47, "cluster_size": 9, "cluster_id": 12, "rank_in_cluster": 9}

>  <energy>  (7) 
-9.07

>  <cluster_rmsd>  (7) 
1.72

>  <cluster>  (7) 
2

$$$$

     RDKit          3D

 54 58  0  0  0  0  0  0  0  0999 V2000
  139.7540   73.9340  222.3050 O   0  0  0  0  0  0  0  0  0  0  0  0
  139.6420   72.6830  222.0670 C   0  0  0  0  0  0  0  0  0  0  0  0
  139.3920   72.2800  220.7480 N   0  0  0  0  0  0  0  0  0  0  0  0
  139.2520   73.2130  219.6460 C   0  0  0  0  0  0  0  0  0  0  0  0
  140.4160   73.1810  218.7390 C   0  0  0  0  0  0  0  0  0  0  0  0
  140.4820   72.4790  217.6960 O   0  0  0  0  0  0  0  0  0  0  0  0
  141.5320   73.9980  219.0710 N   0  0  0  0  0  0  0  0  0  0  0  0
  142.6090   74.3370  218.1340 C   0  0  0  0  0  0  0  0  0  0  0  0
  143.8300   74.6280  218.9810 C   0  0  0  0  0  0  0  0  0  0  0  0
  143.3440   74.3840  220.4130 C   0  0  0  0  0  0  0  0  0  0  0  0
  141.8440   74.6430  220.3280 C   0  0  1  0  0  0  0  0  0  0  0  0
  141.5810   76.1020  220.2050 C   0  0  0  0  0  0  0  0  0  0  0  0
  141.8280   76.9630  221.2200 N   0  0  0  0  0  0  0  0  0  0  0  0
  141.4910   78.2080  220.8130 C   0  0  0  0  0  0  0  0  0  0  0  0
  141.6350   79.3730  221.6730 C   0  0  0  0  0  0  0  0  0  0  0  0
  142.1630   79.2010  222.9350 C   0  0  0  0  0  0  0  0  0  0  0  0
  142.3250   80.2830  223.8080 C   0  0  0  0  0  0  0  0  0  0  0  0
  141.9500   81.5440  223.3930 C   0  0  0  0  0  0  0  0  0  0  0  0
  141.4230   81.7250  222.1350 C   0  0  0  0  0  0  0  0  0  0  0  0
  141.2680   80.6390  221.2820 C   0  0  0  0  0  0  0  0  0  0  0  0
  141.0380   78.0770  219.5390 C   0  0  0  0  0  0  0  0  0  0  0  0
  141.1100   76.7980  219.2160 O   0  0  0  0  0  0  0  0  0  0  0  0
  139.7780   71.7190  223.1560 C   0  0  0  0  0  0  0  0  0  0  0  0
  139.3400   70.4150  222.9660 C   0  0  0  0  0  0  0  0  0  0  0  0
  139.4580   69.4840  223.9800 C   0  0  0  0  0  0  0  0  0  0  0  0
  140.0190   69.8660  225.1910 C   0  0  0  0  0  0  0  0  0  0  0  0
  140.1590   68.9680  226.2390 C   0  0  0  0  0  0  0  0  0  0  0  0
  140.7230   69.3820  227.4350 C   0  0  0  0  0  0  0  0  0  0  0  0
  140.8660   68.1770  228.7210 Cl  0  0  0  0  0  0  0  0  0  0  0  0
  141.1530   70.6830  227.6070 C   0  0  0  0  0  0  0  0  0  0  0  0
  141.0150   71.5850  226.5610 C   0  0  0  0  0  0  0  0  0  0  0  0
  140.4540   71.1780  225.3690 C   0  0  0  0  0  0  0  0  0  0  0  0
  140.3130   72.0320  224.3490 N   0  0  0  0  0  0  0  0  0  0  0  0
  139.2980   71.2690  220.5310 H   0  0  0  0  0  0  0  0  0  0  0  0
  138.3493   72.9528  219.0737 H   0  0  0  0  0  0  0  0  0  0  0  0
  139.1794   74.2263  220.0677 H   0  0  0  0  0  0  0  0  0  0  0  0
  142.8064   73.4919  217.4581 H   0  0  0  0  0  0  0  0  0  0  0  0
  142.3394   75.2013  217.5092 H   0  0  0  0  0  0  0  0  0  0  0  0
  144.6559   73.9478  218.7257 H   0  0  0  0  0  0  0  0  0  0  0  0
  144.2210   75.6451  218.8306 H   0  0  0  0  0  0  0  0  0  0  0  0
  143.5473   73.3494  220.7264 H   0  0  0  0  0  0  0  0  0  0  0  0
  143.8484   75.0241  221.1518 H   0  0  0  0  0  0  0  0  0  0  0  0
  141.2702   74.2888  221.1970 H   0  0  0  0  0  0  0  0  0  0  0  0
  142.4626   78.1943  223.2619 H   0  0  0  0  0  0  0  0  0  0  0  0
  142.7461   80.1297  224.8126 H   0  0  0  0  0  0  0  0  0  0  0  0
  142.0722   82.4043  224.0675 H   0  0  0  0  0  0  0  0  0  0  0  0
  141.1240   82.7305  221.8041 H   0  0  0  0  0  0  0  0  0  0  0  0
  140.8452   80.7946  220.2785 H   0  0  0  0  0  0  0  0  0  0  0  0
  140.6762   78.8900  218.8924 H   0  0  0  0  0  0  0  0  0  0  0  0
  138.8967   70.1217  222.0030 H   0  0  0  0  0  0  0  0  0  0  0  0
  139.1111   68.4511  223.8293 H   0  0  0  0  0  0  0  0  0  0  0  0
  139.8223   67.9275  226.1206 H   0  0  0  0  0  0  0  0  0  0  0  0
  141.5993   71.0005  228.5609 H   0  0  0  0  0  0  0  0  0  0  0  0
  141.3532   72.6246  226.6830 H   0  0  0  0  0  0  0  0  0  0  0  0
  1  2  2  0
  2  3  1  0
  3  4  1  0
  4  5  1  0
  5  6  2  0
  5  7  1  0
  7  8  1  0
  8  9  1  0
  9 10  1  0
 10 11  1  0
 11 12  1  0
 12 13  2  0
 13 14  1  0
 14 15  1  0
 15 16  2  0
 16 17  1  0
 17 18  2  0
 18 19  1  0
 19 20  2  0
 14 21  2  0
 21 22  1  0
  2 23  1  0
 23 24  2  0
 24 25  1  0
 25 26  2  0
 26 27  1  0
 27 28  2  0
 28 29  1  0
 28 30  1  0
 30 31  2  0
 31 32  1  0
 32 33  2  0
 11  7  1  0
 22 12  1  0
 33 23  1  0
 20 15  1  0
 32 26  1  0
  3 34  1  0
  4 35  1  0
  4 36  1  0
  8 37  1  0
  8 38  1  0
  9 39  1  0
  9 40  1  0
 10 41  1  0
 10 42  1  0
 11 43  1  1
 16 44  1  0
 17 45  1  0
 18 46  1  0
 19 47  1  0
 20 48  1  0
 21 49  1  0
 24 50  1  0
 25 51  1  0
 27 52  1  0
 30 53  1  0
 31 54  1  0
M  END
>  <smiles>  (8) 
O=C(NCC(=O)N1CCC[C@H]1c1nc(-c2ccccc2)co1)c1ccc2cc(Cl)ccc2n1

>  <score_type>  (8) 
oracle

>  <origin>  (8) 
autodockgpu

>  <m_score__min__energy>  (8) 
-9.4000000000000004

>  <m_primary>  (8) 
energy

>  <rmsd>  (8) 
2.955749224103052

>  <m_score__min__rmsd>  (8) 
2.955749224103052

>  <meeko>  (8) 
{"free_energy": -8.63, "intermolecular_energy": -10.42, "internal_energy": -1.81, "cluster_size": 12, "cluster_id": 2, "rank_in_cluster": 8}

>  <energy>  (8) 
-8.94

>  <cluster_rmsd>  (8) 
1.77

>  <cluster>  (8) 
2

$$$$

     RDKit          3D

 54 58  0  0  0  0  0  0  0  0999 V2000
  142.7320   76.8000  217.7900 O   0  0  0  0  0  0  0  0  0  0  0  0
  142.5700   77.4380  218.8860 C   0  0  0  0  0  0  0  0  0  0  0  0
  142.6830   76.7280  220.0890 N   0  0  0  0  0  0  0  0  0  0  0  0
  142.9720   75.3080  220.1470 C   0  0  0  0  0  0  0  0  0  0  0  0
  141.8480   74.4900  219.6510 C   0  0  0  0  0  0  0  0  0  0  0  0
  141.8900   73.7850  218.6090 O   0  0  0  0  0  0  0  0  0  0  0  0
  140.6430   74.5030  220.4050 N   0  0  0  0  0  0  0  0  0  0  0  0
  140.3800   73.6230  221.5500 C   0  0  0  0  0  0  0  0  0  0  0  0
  138.8750   73.4850  221.6410 C   0  0  0  0  0  0  0  0  0  0  0  0
  138.3630   74.3090  220.4550 C   0  0  0  0  0  0  0  0  0  0  0  0
  139.4700   75.3330  220.2310 C   0  0  1  0  0  0  0  0  0  0  0  0
  139.4410   76.3650  221.3020 C   0  0  0  0  0  0  0  0  0  0  0  0
  140.4570   77.2410  221.4810 N   0  0  0  0  0  0  0  0  0  0  0  0
  140.1450   78.0470  222.5220 C   0  0  0  0  0  0  0  0  0  0  0  0
  141.0330   79.1070  222.9790 C   0  0  0  0  0  0  0  0  0  0  0  0
  142.3740   79.0230  222.6700 C   0  0  0  0  0  0  0  0  0  0  0  0
  143.2770   80.0100  223.0810 C   0  0  0  0  0  0  0  0  0  0  0  0
  142.8110   81.0870  223.8080 C   0  0  0  0  0  0  0  0  0  0  0  0
  141.4740   81.1780  224.1200 C   0  0  0  0  0  0  0  0  0  0  0  0
  140.5930   80.1880  223.7040 C   0  0  0  0  0  0  0  0  0  0  0  0
  138.9270   77.6390  222.9620 C   0  0  0  0  0  0  0  0  0  0  0  0
  138.5430   76.6290  222.2020 O   0  0  0  0  0  0  0  0  0  0  0  0
  142.2780   78.8690  218.8600 C   0  0  0  0  0  0  0  0  0  0  0  0
  142.8440   79.6590  217.8680 C   0  0  0  0  0  0  0  0  0  0  0  0
  142.5830   81.0160  217.8210 C   0  0  0  0  0  0  0  0  0  0  0  0
  141.7480   81.5790  218.7760 C   0  0  0  0  0  0  0  0  0  0  0  0
  141.4560   82.9350  218.7710 C   0  0  0  0  0  0  0  0  0  0  0  0
  140.6180   83.4670  219.7380 C   0  0  0  0  0  0  0  0  0  0  0  0
  140.2950   85.2030  219.6630 Cl  0  0  0  0  0  0  0  0  0  0  0  0
  140.0640   82.6670  220.7180 C   0  0  0  0  0  0  0  0  0  0  0  0
  140.3530   81.3090  220.7270 C   0  0  0  0  0  0  0  0  0  0  0  0
  141.1860   80.7750  219.7660 C   0  0  0  0  0  0  0  0  0  0  0  0
  141.4770   79.4700  219.7570 N   0  0  0  0  0  0  0  0  0  0  0  0
  142.5560   77.2250  220.9910 H   0  0  0  0  0  0  0  0  0  0  0  0
  143.8595   75.1016  219.5307 H   0  0  0  0  0  0  0  0  0  0  0  0
  143.1452   75.0412  221.2000 H   0  0  0  0  0  0  0  0  0  0  0  0
  140.8439   72.6387  221.3887 H   0  0  0  0  0  0  0  0  0  0  0  0
  140.8010   74.0369  222.4781 H   0  0  0  0  0  0  0  0  0  0  0  0
  138.5712   72.4319  221.5474 H   0  0  0  0  0  0  0  0  0  0  0  0
  138.4726   73.8294  222.6051 H   0  0  0  0  0  0  0  0  0  0  0  0
  138.2267   73.6760  219.5657 H   0  0  0  0  0  0  0  0  0  0  0  0
  137.3830   74.7711  220.6448 H   0  0  0  0  0  0  0  0  0  0  0  0
  139.4071   75.8685  219.2722 H   0  0  0  0  0  0  0  0  0  0  0  0
  142.7411   78.1639  222.0894 H   0  0  0  0  0  0  0  0  0  0  0  0
  144.3444   79.9286  222.8280 H   0  0  0  0  0  0  0  0  0  0  0  0
  143.5079   81.8717  224.1376 H   0  0  0  0  0  0  0  0  0  0  0  0
  141.1023   82.0359  224.6996 H   0  0  0  0  0  0  0  0  0  0  0  0
  139.5262   80.2707  223.9590 H   0  0  0  0  0  0  0  0  0  0  0  0
  138.3616   78.0717  223.8006 H   0  0  0  0  0  0  0  0  0  0  0  0
  143.5037   79.2026  217.1153 H   0  0  0  0  0  0  0  0  0  0  0  0
  143.0319   81.6421  217.0358 H   0  0  0  0  0  0  0  0  0  0  0  0
  141.8896   83.5881  217.9994 H   0  0  0  0  0  0  0  0  0  0  0  0
  139.4019   83.1004  221.4821 H   0  0  0  0  0  0  0  0  0  0  0  0
  139.9177   80.6591  221.5004 H   0  0  0  0  0  0  0  0  0  0  0  0
  1  2  2  0
  2  3  1  0
  3  4  1  0
  4  5  1  0
  5  6  2  0
  5  7  1  0
  7  8  1  0
  8  9  1  0
  9 10  1  0
 10 11  1  0
 11 12  1  0
 12 13  2  0
 13 14  1  0
 14 15  1  0
 15 16  2  0
 16 17  1  0
 17 18  2  0
 18 19  1  0
 19 20  2  0
 14 21  2  0
 21 22  1  0
  2 23  1  0
 23 24  2  0
 24 25  1  0
 25 26  2  0
 26 27  1  0
 27 28  2  0
 28 29  1  0
 28 30  1  0
 30 31  2  0
 31 32  1  0
 32 33  2  0
 11  7  1  0
 22 12  1  0
 33 23  1  0
 20 15  1  0
 32 26  1  0
  3 34  1  0
  4 35  1  0
  4 36  1  0
  8 37  1  0
  8 38  1  0
  9 39  1  0
  9 40  1  0
 10 41  1  0
 10 42  1  0
 11 43  1  6
 16 44  1  0
 17 45  1  0
 18 46  1  0
 19 47  1  0
 20 48  1  0
 21 49  1  0
 24 50  1  0
 25 51  1  0
 27 52  1  0
 30 53  1  0
 31 54  1  0
M  END
>  <smiles>  (9) 
O=C(NCC(=O)N1CCC[C@H]1c1nc(-c2ccccc2)co1)c1ccc2cc(Cl)ccc2n1

>  <score_type>  (9) 
oracle

>  <origin>  (9) 
autodockgpu

>  <m_score__min__energy>  (9) 
-9.4000000000000004

>  <m_primary>  (9) 
energy

>  <rmsd>  (9) 
8.573167643810054

>  <m_score__min__rmsd>  (9) 
8.573167643810054

>  <meeko>  (9) 
{"free_energy": -6.65, "intermolecular_energy": -8.44, "internal_energy": -3.93, "cluster_size": 2, "cluster_id": 13, "rank_in_cluster": 2}

>  <energy>  (9) 
-8.81

>  <cluster_rmsd>  (9) 
0.74

>  <cluster>  (9) 
2

$$$$

     RDKit          3D

 54 58  0  0  0  0  0  0  0  0999 V2000
  140.1930   74.2010  221.7920 O   0  0  0  0  0  0  0  0  0  0  0  0
  140.5350   75.4300  221.7230 C   0  0  0  0  0  0  0  0  0  0  0  0
  141.8200   75.7350  221.2520 N   0  0  0  0  0  0  0  0  0  0  0  0
  142.7740   74.7220  220.8420 C   0  0  0  0  0  0  0  0  0  0  0  0
  142.8550   74.5950  219.3730 C   0  0  0  0  0  0  0  0  0  0  0  0
  143.6600   73.8390  218.7710 O   0  0  0  0  0  0  0  0  0  0  0  0
  141.9620   75.3820  218.5950 N   0  0  0  0  0  0  0  0  0  0  0  0
  140.5290   75.1000  218.4550 C   0  0  0  0  0  0  0  0  0  0  0  0
  140.1060   75.7030  217.1320 C   0  0  0  0  0  0  0  0  0  0  0  0
  141.4070   76.2820  216.5670 C   0  0  0  0  0  0  0  0  0  0  0  0
  142.2400   76.5660  217.8110 C   0  0  1  0  0  0  0  0  0  0  0  0
  141.7080   77.7580  218.5250 C   0  0  0  0  0  0  0  0  0  0  0  0
  142.2350   78.1860  219.6960 N   0  0  0  0  0  0  0  0  0  0  0  0
  141.5480   79.2800  220.0970 C   0  0  0  0  0  0  0  0  0  0  0  0
  141.8640   79.9890  221.3290 C   0  0  0  0  0  0  0  0  0  0  0  0
  142.5730   79.3270  222.3080 C   0  0  0  0  0  0  0  0  0  0  0  0
  142.9070   79.9560  223.5130 C   0  0  0  0  0  0  0  0  0  0  0  0
  142.5170   81.2630  223.7200 C   0  0  0  0  0  0  0  0  0  0  0  0
  141.8090   81.9310  222.7480 C   0  0  0  0  0  0  0  0  0  0  0  0
  141.4860   81.2900  221.5580 C   0  0  0  0  0  0  0  0  0  0  0  0
  140.6010   79.4980  219.1480 C   0  0  0  0  0  0  0  0  0  0  0  0
  140.7340   78.5620  218.2250 O   0  0  0  0  0  0  0  0  0  0  0  0
  139.5960   76.4720  222.1280 C   0  0  0  0  0  0  0  0  0  0  0  0
  138.2430   76.3070  221.8620 C   0  0  0  0  0  0  0  0  0  0  0  0
  137.3330   77.2790  222.2360 C   0  0  0  0  0  0  0  0  0  0  0  0
  137.7870   78.4210  222.8810 C   0  0  0  0  0  0  0  0  0  0  0  0
  136.9140   79.4240  223.2750 C   0  0  0  0  0  0  0  0  0  0  0  0
  137.3990   80.5520  223.9170 C   0  0  0  0  0  0  0  0  0  0  0  0
  136.2220   81.7840  224.3880 Cl  0  0  0  0  0  0  0  0  0  0  0  0
  138.7480   80.7000  224.1740 C   0  0  0  0  0  0  0  0  0  0  0  0
  139.6260   79.7000  223.7800 C   0  0  0  0  0  0  0  0  0  0  0  0
  139.1480   78.5750  223.1410 C   0  0  0  0  0  0  0  0  0  0  0  0
  139.9770   77.5990  222.7550 N   0  0  0  0  0  0  0  0  0  0  0  0
  142.1200   76.7260  221.1870 H   0  0  0  0  0  0  0  0  0  0  0  0
  143.7672   74.9930  221.2296 H   0  0  0  0  0  0  0  0  0  0  0  0
  142.4365   73.7564  221.2466 H   0  0  0  0  0  0  0  0  0  0  0  0
  140.3527   74.0142  218.4527 H   0  0  0  0  0  0  0  0  0  0  0  0
  139.9538   75.5248  219.2908 H   0  0  0  0  0  0  0  0  0  0  0  0
  139.6958   74.9325  216.4626 H   0  0  0  0  0  0  0  0  0  0  0  0
  139.3139   76.4585  217.2406 H   0  0  0  0  0  0  0  0  0  0  0  0
  141.9107   75.5537  215.9144 H   0  0  0  0  0  0  0  0  0  0  0  0
  141.2443   77.1760  215.9471 H   0  0  0  0  0  0  0  0  0  0  0  0
  143.3037   76.7634  217.6118 H   0  0  0  0  0  0  0  0  0  0  0  0
  142.8822   78.2849  222.1393 H   0  0  0  0  0  0  0  0  0  0  0  0
  143.4734   79.4149  224.2853 H   0  0  0  0  0  0  0  0  0  0  0  0
  142.7721   81.7707  224.6619 H   0  0  0  0  0  0  0  0  0  0  0  0
  141.4983   82.9733  222.9128 H   0  0  0  0  0  0  0  0  0  0  0  0
  140.9188   81.8327  220.7874 H   0  0  0  0  0  0  0  0  0  0  0  0
  139.8570   80.3082  219.1479 H   0  0  0  0  0  0  0  0  0  0  0  0
  137.8931   75.3980  221.3509 H   0  0  0  0  0  0  0  0  0  0  0  0
  136.2614   77.1485  222.0246 H   0  0  0  0  0  0  0  0  0  0  0  0
  135.8365   79.3240  223.0778 H   0  0  0  0  0  0  0  0  0  0  0  0
  139.1219   81.5996  224.6848 H   0  0  0  0  0  0  0  0  0  0  0  0
  140.7031   79.8046  223.9773 H   0  0  0  0  0  0  0  0  0  0  0  0
  1  2  2  0
  2  3  1  0
  3  4  1  0
  4  5  1  0
  5  6  2  0
  5  7  1  0
  7  8  1  0
  8  9  1  0
  9 10  1  0
 10 11  1  0
 11 12  1  0
 12 13  2  0
 13 14  1  0
 14 15  1  0
 15 16  2  0
 16 17  1  0
 17 18  2  0
 18 19  1  0
 19 20  2  0
 14 21  2  0
 21 22  1  0
  2 23  1  0
 23 24  2  0
 24 25  1  0
 25 26  2  0
 26 27  1  0
 27 28  2  0
 28 29  1  0
 28 30  1  0
 30 31  2  0
 31 32  1  0
 32 33  2  0
 11  7  1  0
 22 12  1  0
 33 23  1  0
 20 15  1  0
 32 26  1  0
  3 34  1  0
  4 35  1  0
  4 36  1  0
  8 37  1  0
  8 38  1  0
  9 39  1  0
  9 40  1  0
 10 41  1  0
 10 42  1  0
 11 43  1  6
 16 44  1  0
 17 45  1  0
 18 46  1  0
 19 47  1  0
 20 48  1  0
 21 49  1  0
 24 50  1  0
 25 51  1  0
 27 52  1  0
 30 53  1  0
 31 54  1  0
M  END
>  <smiles>  (10) 
O=C(NCC(=O)N1CCC[C@H]1c1nc(-c2ccccc2)co1)c1ccc2cc(Cl)ccc2n1

>  <score_type>  (10) 
oracle

>  <origin>  (10) 
autodockgpu

>  <m_score__min__energy>  (10) 
-9.4000000000000004

>  <m_primary>  (10) 
energy

>  <rmsd>  (10) 
6.152762996783778

>  <m_score__min__rmsd>  (10) 
6.152762996783778

>  <meeko>  (10) 
{"free_energy": -6.76, "intermolecular_energy": -8.55, "internal_energy": -4.18, "cluster_size": 9, "cluster_id": 12, "rank_in_cluster": 5}

>  <energy>  (10) 
-8.76

>  <cluster_rmsd>  (10) 
1.18

>  <cluster>  (10) 
2

$$$$

     RDKit          3D

 54 58  0  0  0  0  0  0  0  0999 V2000
  137.0130   74.0720  220.8420 O   0  0  0  0  0  0  0  0  0  0  0  0
  137.9560   73.9730  221.6990 C   0  0  0  0  0  0  0  0  0  0  0  0
  138.1070   72.7570  222.3800 N   0  0  0  0  0  0  0  0  0  0  0  0
  137.2450   71.6120  222.1580 C   0  0  0  0  0  0  0  0  0  0  0  0
  137.7570   70.7270  221.0930 C   0  0  0  0  0  0  0  0  0  0  0  0
  137.7990   71.0370  219.8740 O   0  0  0  0  0  0  0  0  0  0  0  0
  138.2310   69.4430  221.4770 N   0  0  0  0  0  0  0  0  0  0  0  0
  139.4580   68.8300  220.9550 C   0  0  0  0  0  0  0  0  0  0  0  0
  139.2680   67.3330  221.0780 C   0  0  0  0  0  0  0  0  0  0  0  0
  137.8570   67.1930  221.6560 C   0  0  0  0  0  0  0  0  0  0  0  0
  137.6510   68.5010  222.4110 C   0  0  1  0  0  0  0  0  0  0  0  0
  138.4510   68.5040  223.6640 C   0  0  0  0  0  0  0  0  0  0  0  0
  138.8880   69.6520  224.2340 N   0  0  0  0  0  0  0  0  0  0  0  0
  139.5810   69.3360  225.3510 C   0  0  0  0  0  0  0  0  0  0  0  0
  140.1890   70.3480  226.2020 C   0  0  0  0  0  0  0  0  0  0  0  0
  139.9100   70.3310  227.5520 C   0  0  0  0  0  0  0  0  0  0  0  0
  140.4650   71.2780  228.4200 C   0  0  0  0  0  0  0  0  0  0  0  0
  141.3080   72.2450  227.9110 C   0  0  0  0  0  0  0  0  0  0  0  0
  141.5920   72.2690  226.5650 C   0  0  0  0  0  0  0  0  0  0  0  0
  141.0310   71.3210  225.7180 C   0  0  0  0  0  0  0  0  0  0  0  0
  139.5520   67.9800  225.4410 C   0  0  0  0  0  0  0  0  0  0  0  0
  138.8650   67.5240  224.4090 O   0  0  0  0  0  0  0  0  0  0  0  0
  138.8410   75.1090  221.9430 C   0  0  0  0  0  0  0  0  0  0  0  0
  140.2030   74.9710  221.7100 C   0  0  0  0  0  0  0  0  0  0  0  0
  141.0610   76.0310  221.9330 C   0  0  0  0  0  0  0  0  0  0  0  0
  140.5470   77.2360  222.3930 C   0  0  0  0  0  0  0  0  0  0  0  0
  141.3680   78.3280  222.6310 C   0  0  0  0  0  0  0  0  0  0  0  0
  140.8230   79.5170  223.0900 C   0  0  0  0  0  0  0  0  0  0  0  0
  141.9350   80.8620  223.3700 Cl  0  0  0  0  0  0  0  0  0  0  0  0
  139.4660   79.6370  223.3170 C   0  0  0  0  0  0  0  0  0  0  0  0
  138.6400   78.5460  223.0810 C   0  0  0  0  0  0  0  0  0  0  0  0
  139.1780   77.3610  222.6230 C   0  0  0  0  0  0  0  0  0  0  0  0
  138.4000   76.2990  222.3880 N   0  0  0  0  0  0  0  0  0  0  0  0
  138.8660   72.6530  223.0800 H   0  0  0  0  0  0  0  0  0  0  0  0
  137.1727   71.0365  223.0926 H   0  0  0  0  0  0  0  0  0  0  0  0
  136.2604   71.9867  221.8416 H   0  0  0  0  0  0  0  0  0  0  0  0
  139.6059   69.1103  219.9016 H   0  0  0  0  0  0  0  0  0  0  0  0
  140.3437   69.1687  221.5126 H   0  0  0  0  0  0  0  0  0  0  0  0
  139.3390   66.8463  220.0941 H   0  0  0  0  0  0  0  0  0  0  0  0
  140.0352   66.8559  221.7055 H   0  0  0  0  0  0  0  0  0  0  0  0
  137.1128   67.0805  220.8538 H   0  0  0  0  0  0  0  0  0  0  0  0
  137.7421   66.3059  222.2961 H   0  0  0  0  0  0  0  0  0  0  0  0
  136.6085   68.7005  222.6999 H   0  0  0  0  0  0  0  0  0  0  0  0
  139.2384   69.5584  227.9545 H   0  0  0  0  0  0  0  0  0  0  0  0
  140.2322   71.2520  229.4948 H   0  0  0  0  0  0  0  0  0  0  0  0
  141.7524   72.9959  228.5809 H   0  0  0  0  0  0  0  0  0  0  0  0
  142.2639   73.0395  226.1589 H   0  0  0  0  0  0  0  0  0  0  0  0
  141.2643   71.3495  224.6434 H   0  0  0  0  0  0  0  0  0  0  0  0
  140.0169   67.3719  226.2310 H   0  0  0  0  0  0  0  0  0  0  0  0
  140.6012   74.0124  221.3459 H   0  0  0  0  0  0  0  0  0  0  0  0
  142.1398   75.9213  221.7480 H   0  0  0  0  0  0  0  0  0  0  0  0
  142.4512   78.2507  222.4556 H   0  0  0  0  0  0  0  0  0  0  0  0
  139.0444   80.5858  223.6805 H   0  0  0  0  0  0  0  0  0  0  0  0
  137.5575   78.6265  223.2591 H   0  0  0  0  0  0  0  0  0  0  0  0
  1  2  2  0
  2  3  1  0
  3  4  1  0
  4  5  1  0
  5  6  2  0
  5  7  1  0
  7  8  1  0
  8  9  1  0
  9 10  1  0
 10 11  1  0
 11 12  1  0
 12 13  2  0
 13 14  1  0
 14 15  1  0
 15 16  2  0
 16 17  1  0
 17 18  2  0
 18 19  1  0
 19 20  2  0
 14 21  2  0
 21 22  1  0
  2 23  1  0
 23 24  2  0
 24 25  1  0
 25 26  2  0
 26 27  1  0
 27 28  2  0
 28 29  1  0
 28 30  1  0
 30 31  2  0
 31 32  1  0
 32 33  2  0
 11  7  1  0
 22 12  1  0
 33 23  1  0
 20 15  1  0
 32 26  1  0
  3 34  1  0
  4 35  1  0
  4 36  1  0
  8 37  1  0
  8 38  1  0
  9 39  1  0
  9 40  1  0
 10 41  1  0
 10 42  1  0
 11 43  1  1
 16 44  1  0
 17 45  1  0
 18 46  1  0
 19 47  1  0
 20 48  1  0
 21 49  1  0
 24 50  1  0
 25 51  1  0
 27 52  1  0
 30 53  1  0
 31 54  1  0
M  END
>  <smiles>  (11) 
O=C(NCC(=O)N1CCC[C@H]1c1nc(-c2ccccc2)co1)c1ccc2cc(Cl)ccc2n1

>  <score_type>  (11) 
oracle

>  <origin>  (11) 
autodockgpu

>  <m_score__min__energy>  (11) 
-9.4000000000000004

>  <m_primary>  (11) 
energy

>  <rmsd>  (11) 
9.193288941840448

>  <m_score__min__rmsd>  (11) 
9.193288941840448

>  <meeko>  (11) 
{"free_energy": -8.95, "intermolecular_energy": -10.74, "internal_energy": -1.77, "cluster_size": 2, "cluster_id": 5, "rank_in_cluster": 1}

>  <energy>  (11) 
-8.65

>  <cluster_rmsd>  (11) 
1.1

>  <cluster>  (11) 
2

$$$$

     RDKit          3D

 54 58  0  0  0  0  0  0  0  0999 V2000
  140.9210   75.0150  221.7660 O   0  0  0  0  0  0  0  0  0  0  0  0
  140.2600   75.9980  221.2850 C   0  0  0  0  0  0  0  0  0  0  0  0
  138.8860   76.0660  221.5530 N   0  0  0  0  0  0  0  0  0  0  0  0
  138.1830   75.0760  222.3470 C   0  0  0  0  0  0  0  0  0  0  0  0
  136.7190   75.1650  222.1780 C   0  0  0  0  0  0  0  0  0  0  0  0
  136.0170   74.2900  221.6080 O   0  0  0  0  0  0  0  0  0  0  0  0
  136.0660   76.3170  222.6970 N   0  0  0  0  0  0  0  0  0  0  0  0
  135.4260   76.3740  224.0160 C   0  0  0  0  0  0  0  0  0  0  0  0
  134.3590   77.4440  223.9230 C   0  0  0  0  0  0  0  0  0  0  0  0
  134.4480   77.9180  222.4690 C   0  0  0  0  0  0  0  0  0  0  0  0
  135.8920   77.6160  222.0850 C   0  0  1  0  0  0  0  0  0  0  0  0
  136.8110   78.5880  222.7360 C   0  0  0  0  0  0  0  0  0  0  0  0
  138.1510   78.5440  222.5480 N   0  0  0  0  0  0  0  0  0  0  0  0
  138.7140   79.5450  223.2630 C   0  0  0  0  0  0  0  0  0  0  0  0
  140.1510   79.7760  223.2790 C   0  0  0  0  0  0  0  0  0  0  0  0
  140.6130   81.0670  223.1370 C   0  0  0  0  0  0  0  0  0  0  0  0
  141.9840   81.3520  223.1450 C   0  0  0  0  0  0  0  0  0  0  0  0
  142.8850   80.3190  223.3000 C   0  0  0  0  0  0  0  0  0  0  0  0
  142.4310   79.0280  223.4430 C   0  0  0  0  0  0  0  0  0  0  0  0
  141.0670   78.7630  223.4320 C   0  0  0  0  0  0  0  0  0  0  0  0
  137.6890   80.1880  223.8810 C   0  0  0  0  0  0  0  0  0  0  0  0
  136.5670   79.5810  223.5370 O   0  0  0  0  0  0  0  0  0  0  0  0
  140.9400   77.0110  220.4820 C   0  0  0  0  0  0  0  0  0  0  0  0
  142.0390   76.6440  219.7170 C   0  0  0  0  0  0  0  0  0  0  0  0
  142.7000   77.5840  218.9480 C   0  0  0  0  0  0  0  0  0  0  0  0
  142.2530   78.8980  218.9500 C   0  0  0  0  0  0  0  0  0  0  0  0
  142.8820   79.8770  218.1950 C   0  0  0  0  0  0  0  0  0  0  0  0
  142.4110   81.1800  218.2190 C   0  0  0  0  0  0  0  0  0  0  0  0
  143.2680   82.3680  217.2300 Cl  0  0  0  0  0  0  0  0  0  0  0  0
  141.3170   81.5270  218.9870 C   0  0  0  0  0  0  0  0  0  0  0  0
  140.6840   80.5510  219.7440 C   0  0  0  0  0  0  0  0  0  0  0  0
  141.1490   79.2530  219.7240 C   0  0  0  0  0  0  0  0  0  0  0  0
  140.5530   78.2980  220.4450 N   0  0  0  0  0  0  0  0  0  0  0  0
  138.3290   76.8550  221.1730 H   0  0  0  0  0  0  0  0  0  0  0  0
  138.5152   74.0736  222.0390 H   0  0  0  0  0  0  0  0  0  0  0  0
  138.4135   75.2655  223.4057 H   0  0  0  0  0  0  0  0  0  0  0  0
  134.9715   75.4028  224.2614 H   0  0  0  0  0  0  0  0  0  0  0  0
  136.1562   76.6043  224.8058 H   0  0  0  0  0  0  0  0  0  0  0  0
  133.3646   77.0266  224.1396 H   0  0  0  0  0  0  0  0  0  0  0  0
  134.5070   78.2585  224.6473 H   0  0  0  0  0  0  0  0  0  0  0  0
  133.7465   77.3614  221.8302 H   0  0  0  0  0  0  0  0  0  0  0  0
  134.1848   78.9791  222.3470 H   0  0  0  0  0  0  0  0  0  0  0  0
  136.0951   77.6612  221.0049 H   0  0  0  0  0  0  0  0  0  0  0  0
  139.8915   81.8883  223.0151 H   0  0  0  0  0  0  0  0  0  0  0  0
  142.3382   82.3870  223.0291 H   0  0  0  0  0  0  0  0  0  0  0  0
  143.9651   80.5271  223.3093 H   0  0  0  0  0  0  0  0  0  0  0  0
  143.1493   78.2040  223.5662 H   0  0  0  0  0  0  0  0  0  0  0  0
  140.7152   77.7272  223.5475 H   0  0  0  0  0  0  0  0  0  0  0  0
  137.7774   81.0581  224.5482 H   0  0  0  0  0  0  0  0  0  0  0  0
  142.3856   75.6001  219.7227 H   0  0  0  0  0  0  0  0  0  0  0  0
  143.5705   77.2936  218.3414 H   0  0  0  0  0  0  0  0  0  0  0  0
  143.7548   79.6190  217.5772 H   0  0  0  0  0  0  0  0  0  0  0  0
  140.9517   82.5645  218.9986 H   0  0  0  0  0  0  0  0  0  0  0  0
  139.8112   80.8130  220.3601 H   0  0  0  0  0  0  0  0  0  0  0  0
  1  2  2  0
  2  3  1  0
  3  4  1  0
  4  5  1  0
  5  6  2  0
  5  7  1  0
  7  8  1  0
  8  9  1  0
  9 10  1  0
 10 11  1  0
 11 12  1  0
 12 13  2  0
 13 14  1  0
 14 15  1  0
 15 16  2  0
 16 17  1  0
 17 18  2  0
 18 19  1  0
 19 20  2  0
 14 21  2  0
 21 22  1  0
  2 23  1  0
 23 24  2  0
 24 25  1  0
 25 26  2  0
 26 27  1  0
 27 28  2  0
 28 29  1  0
 28 30  1  0
 30 31  2  0
 31 32  1  0
 32 33  2  0
 11  7  1  0
 22 12  1  0
 33 23  1  0
 20 15  1  0
 32 26  1  0
  3 34  1  0
  4 35  1  0
  4 36  1  0
  8 37  1  0
  8 38  1  0
  9 39  1  0
  9 40  1  0
 10 41  1  0
 10 42  1  0
 11 43  1  6
 16 44  1  0
 17 45  1  0
 18 46  1  0
 19 47  1  0
 20 48  1  0
 21 49  1  0
 24 50  1  0
 25 51  1  0
 27 52  1  0
 30 53  1  0
 31 54  1  0
M  END
>  <smiles>  (12) 
O=C(NCC(=O)N1CCC[C@H]1c1nc(-c2ccccc2)co1)c1ccc2cc(Cl)ccc2n1

>  <score_type>  (12) 
oracle

>  <origin>  (12) 
autodockgpu

>  <m_score__min__energy>  (12) 
-9.4000000000000004

>  <m_primary>  (12) 
energy

>  <rmsd>  (12) 
8.017172425935438

>  <m_score__min__rmsd>  (12) 
8.017172425935438

>  <meeko>  (12) 
{"free_energy": -6.55, "intermolecular_energy": -8.34, "internal_energy": -3.97, "cluster_size": 3, "cluster_id": 14, "rank_in_cluster": 1}

>  <energy>  (12) 
-8.63

>  <cluster_rmsd>  (12) 
1.85

>  <cluster>  (12) 
2

$$$$

     RDKit          3D

 54 58  0  0  0  0  0  0  0  0999 V2000
  138.7970   75.8280  223.0880 O   0  0  0  0  0  0  0  0  0  0  0  0
  139.5650   76.0900  222.1000 C   0  0  0  0  0  0  0  0  0  0  0  0
  139.4620   77.3510  221.4970 N   0  0  0  0  0  0  0  0  0  0  0  0
  138.5270   78.3680  221.9410 C   0  0  0  0  0  0  0  0  0  0  0  0
  139.1540   79.3350  222.8630 C   0  0  0  0  0  0  0  0  0  0  0  0
  138.5660   79.8620  223.8430 O   0  0  0  0  0  0  0  0  0  0  0  0
  140.5100   79.6900  222.6230 N   0  0  0  0  0  0  0  0  0  0  0  0
  141.6590   78.9570  223.1670 C   0  0  0  0  0  0  0  0  0  0  0  0
  142.7990   79.9510  223.2390 C   0  0  0  0  0  0  0  0  0  0  0  0
  142.1730   81.2570  222.7390 C   0  0  0  0  0  0  0  0  0  0  0  0
  141.0380   80.7840  221.8370 C   0  0  1  0  0  0  0  0  0  0  0  0
  141.5850   80.2480  220.5620 C   0  0  0  0  0  0  0  0  0  0  0  0
  141.4950   78.9360  220.2390 N   0  0  0  0  0  0  0  0  0  0  0  0
  142.0750   78.7550  219.0310 C   0  0  0  0  0  0  0  0  0  0  0  0
  142.1490   77.4490  218.3910 C   0  0  0  0  0  0  0  0  0  0  0  0
  143.3110   77.0990  217.7380 C   0  0  0  0  0  0  0  0  0  0  0  0
  143.4420   75.8570  217.1040 C   0  0  0  0  0  0  0  0  0  0  0  0
  142.3850   74.9710  217.1380 C   0  0  0  0  0  0  0  0  0  0  0  0
  141.2220   75.3130  217.7880 C   0  0  0  0  0  0  0  0  0  0  0  0
  141.1100   76.5500  218.4110 C   0  0  0  0  0  0  0  0  0  0  0  0
  142.5140   79.9790  218.6370 C   0  0  0  0  0  0  0  0  0  0  0  0
  142.1990   80.8430  219.5850 O   0  0  0  0  0  0  0  0  0  0  0  0
  140.5170   75.0860  221.6310 C   0  0  0  0  0  0  0  0  0  0  0  0
  140.1340   73.7520  221.5950 C   0  0  0  0  0  0  0  0  0  0  0  0
  141.0160   72.7830  221.1540 C   0  0  0  0  0  0  0  0  0  0  0  0
  142.2890   73.1590  220.7480 C   0  0  0  0  0  0  0  0  0  0  0  0
  143.2100   72.2240  220.2980 C   0  0  0  0  0  0  0  0  0  0  0  0
  144.4730   72.6320  219.8990 C   0  0  0  0  0  0  0  0  0  0  0  0
  145.5870   71.3800  219.3390 Cl  0  0  0  0  0  0  0  0  0  0  0  0
  144.8370   73.9630  219.9420 C   0  0  0  0  0  0  0  0  0  0  0  0
  143.9200   74.9030  220.3920 C   0  0  0  0  0  0  0  0  0  0  0  0
  142.6610   74.5020  220.7890 C   0  0  0  0  0  0  0  0  0  0  0  0
  141.7620   75.3910  221.2250 N   0  0  0  0  0  0  0  0  0  0  0  0
  140.0750   77.5860  220.6940 H   0  0  0  0  0  0  0  0  0  0  0  0
  138.1490   78.9103  221.0617 H   0  0  0  0  0  0  0  0  0  0  0  0
  137.7114   77.8652  222.4813 H   0  0  0  0  0  0  0  0  0  0  0  0
  141.4251   78.5718  224.1705 H   0  0  0  0  0  0  0  0  0  0  0  0
  141.9190   78.0941  222.5362 H   0  0  0  0  0  0  0  0  0  0  0  0
  143.1604   80.0594  224.2723 H   0  0  0  0  0  0  0  0  0  0  0  0
  143.6725   79.6421  222.6460 H   0  0  0  0  0  0  0  0  0  0  0  0
  141.7860   81.8542  223.5778 H   0  0  0  0  0  0  0  0  0  0  0  0
  142.8927   81.9057  222.2183 H   0  0  0  0  0  0  0  0  0  0  0  0
  140.3131   81.5663  221.5678 H   0  0  0  0  0  0  0  0  0  0  0  0
  144.1514   77.8084  217.7143 H   0  0  0  0  0  0  0  0  0  0  0  0
  144.3753   75.5915  216.5858 H   0  0  0  0  0  0  0  0  0  0  0  0
  142.4723   73.9913  216.6454 H   0  0  0  0  0  0  0  0  0  0  0  0
  140.3795   74.6063  217.8147 H   0  0  0  0  0  0  0  0  0  0  0  0
  140.1755   76.8135  218.9280 H   0  0  0  0  0  0  0  0  0  0  0  0
  143.0376   80.2090  217.6974 H   0  0  0  0  0  0  0  0  0  0  0  0
  139.1230   73.4644  221.9192 H   0  0  0  0  0  0  0  0  0  0  0  0
  140.7124   71.7261  221.1252 H   0  0  0  0  0  0  0  0  0  0  0  0
  142.9378   71.1590  220.2579 H   0  0  0  0  0  0  0  0  0  0  0  0
  145.8425   74.2752  219.6232 H   0  0  0  0  0  0  0  0  0  0  0  0
  144.1969   75.9668  220.4320 H   0  0  0  0  0  0  0  0  0  0  0  0
  1  2  2  0
  2  3  1  0
  3  4  1  0
  4  5  1  0
  5  6  2  0
  5  7  1  0
  7  8  1  0
  8  9  1  0
  9 10  1  0
 10 11  1  0
 11 12  1  0
 12 13  2  0
 13 14  1  0
 14 15  1  0
 15 16  2  0
 16 17  1  0
 17 18  2  0
 18 19  1  0
 19 20  2  0
 14 21  2  0
 21 22  1  0
  2 23  1  0
 23 24  2  0
 24 25  1  0
 25 26  2  0
 26 27  1  0
 27 28  2  0
 28 29  1  0
 28 30  1  0
 30 31  2  0
 31 32  1  0
 32 33  2  0
 11  7  1  0
 22 12  1  0
 33 23  1  0
 20 15  1  0
 32 26  1  0
  3 34  1  0
  4 35  1  0
  4 36  1  0
  8 37  1  0
  8 38  1  0
  9 39  1  0
  9 40  1  0
 10 41  1  0
 10 42  1  0
 11 43  1  6
 16 44  1  0
 17 45  1  0
 18 46  1  0
 19 47  1  0
 20 48  1  0
 21 49  1  0
 24 50  1  0
 25 51  1  0
 27 52  1  0
 30 53  1  0
 31 54  1  0
M  END
>  <smiles>  (13) 
O=C(NCC(=O)N1CCC[C@H]1c1nc(-c2ccccc2)co1)c1ccc2cc(Cl)ccc2n1

>  <score_type>  (13) 
oracle

>  <origin>  (13) 
autodockgpu

>  <m_score__min__energy>  (13) 
-9.4000000000000004

>  <m_primary>  (13) 
energy

>  <rmsd>  (13) 
6.60334559028036

>  <m_score__min__rmsd>  (13) 
6.60334559028036

>  <meeko>  (13) 
{"free_energy": -6.6, "intermolecular_energy": -8.39, "internal_energy": -4.22, "cluster_size": 9, "cluster_id": 11, "rank_in_cluster": 9}

>  <energy>  (13) 
-8.61

>  <cluster_rmsd>  (13) 
1.41

>  <cluster>  (13) 
2

$$$$

     RDKit          3D

 54 58  0  0  0  0  0  0  0  0999 V2000
  140.0200   74.5160  221.9120 O   0  0  0  0  0  0  0  0  0  0  0  0
  140.4980   75.6580  221.5950 C   0  0  0  0  0  0  0  0  0  0  0  0
  141.7940   75.7110  221.0640 N   0  0  0  0  0  0  0  0  0  0  0  0
  142.6150   74.5320  220.8600 C   0  0  0  0  0  0  0  0  0  0  0  0
  143.0820   74.4140  219.4640 C   0  0  0  0  0  0  0  0  0  0  0  0
  144.0080   73.6500  219.0890 O   0  0  0  0  0  0  0  0  0  0  0  0
  142.4380   75.2210  218.4860 N   0  0  0  0  0  0  0  0  0  0  0  0
  141.0740   74.9890  217.9980 C   0  0  0  0  0  0  0  0  0  0  0  0
  141.0140   75.5870  216.6080 C   0  0  0  0  0  0  0  0  0  0  0  0
  142.4350   76.1100  216.3780 C   0  0  0  0  0  0  0  0  0  0  0  0
  142.9460   76.3830  217.7880 C   0  0  1  0  0  0  0  0  0  0  0  0
  142.3010   77.6030  218.3420 C   0  0  0  0  0  0  0  0  0  0  0  0
  142.5420   78.0320  219.6030 N   0  0  0  0  0  0  0  0  0  0  0  0
  141.8180   79.1540  219.8170 C   0  0  0  0  0  0  0  0  0  0  0  0
  141.8510   79.8720  221.0830 C   0  0  0  0  0  0  0  0  0  0  0  0
  141.2530   81.1120  221.1540 C   0  0  0  0  0  0  0  0  0  0  0  0
  141.2510   81.8500  222.3440 C   0  0  0  0  0  0  0  0  0  0  0  0
  141.8590   81.3210  223.4640 C   0  0  0  0  0  0  0  0  0  0  0  0
  142.4580   80.0840  223.4010 C   0  0  0  0  0  0  0  0  0  0  0  0
  142.4500   79.3660  222.2110 C   0  0  0  0  0  0  0  0  0  0  0  0
  141.1410   79.3900  218.6630 C   0  0  0  0  0  0  0  0  0  0  0  0
  141.4600   78.4360  217.8070 O   0  0  0  0  0  0  0  0  0  0  0  0
  139.6950   76.8630  221.7900 C   0  0  0  0  0  0  0  0  0  0  0  0
  138.7590   77.2170  220.8270 C   0  0  0  0  0  0  0  0  0  0  0  0
  137.9870   78.3520  220.9880 C   0  0  0  0  0  0  0  0  0  0  0  0
  138.1570   79.1340  222.1220 C   0  0  0  0  0  0  0  0  0  0  0  0
  137.4050   80.2810  222.3280 C   0  0  0  0  0  0  0  0  0  0  0  0
  137.5990   81.0400  223.4720 C   0  0  0  0  0  0  0  0  0  0  0  0
  136.6030   82.4880  223.6600 Cl  0  0  0  0  0  0  0  0  0  0  0  0
  138.5350   80.6730  224.4190 C   0  0  0  0  0  0  0  0  0  0  0  0
  139.2900   79.5260  224.2170 C   0  0  0  0  0  0  0  0  0  0  0  0
  139.1000   78.7670  223.0810 C   0  0  0  0  0  0  0  0  0  0  0  0
  139.8160   77.6580  222.8670 N   0  0  0  0  0  0  0  0  0  0  0  0
  142.2030   76.6270  220.8000 H   0  0  0  0  0  0  0  0  0  0  0  0
  143.4908   74.5907  221.5230 H   0  0  0  0  0  0  0  0  0  0  0  0
  142.0005   73.6483  221.0871 H   0  0  0  0  0  0  0  0  0  0  0  0
  140.8617   73.9104  217.9584 H   0  0  0  0  0  0  0  0  0  0  0  0
  140.3274   75.4469  218.6635 H   0  0  0  0  0  0  0  0  0  0  0  0
  140.7519   74.8218  215.8625 H   0  0  0  0  0  0  0  0  0  0  0  0
  140.2495   76.3723  216.5137 H   0  0  0  0  0  0  0  0  0  0  0  0
  143.0555   75.3541  215.8744 H   0  0  0  0  0  0  0  0  0  0  0  0
  142.4648   76.9996  215.7317 H   0  0  0  0  0  0  0  0  0  0  0  0
  144.0327   76.5396  217.8561 H   0  0  0  0  0  0  0  0  0  0  0  0
  140.7683   81.5295  220.2591 H   0  0  0  0  0  0  0  0  0  0  0  0
  140.7709   82.8388  222.3854 H   0  0  0  0  0  0  0  0  0  0  0  0
  141.8648   81.8879  224.4066 H   0  0  0  0  0  0  0  0  0  0  0  0
  142.9438   79.6628  224.2935 H   0  0  0  0  0  0  0  0  0  0  0  0
  142.9307   78.3774  222.1718 H   0  0  0  0  0  0  0  0  0  0  0  0
  140.4509   80.2258  218.4752 H   0  0  0  0  0  0  0  0  0  0  0  0
  138.6314   76.5909  219.9316 H   0  0  0  0  0  0  0  0  0  0  0  0
  137.2456   78.6326  220.2254 H   0  0  0  0  0  0  0  0  0  0  0  0
  136.6551   80.5884  221.5842 H   0  0  0  0  0  0  0  0  0  0  0  0
  138.6804   81.2827  225.3229 H   0  0  0  0  0  0  0  0  0  0  0  0
  140.0396   79.2223  224.9626 H   0  0  0  0  0  0  0  0  0  0  0  0
  1  2  2  0
  2  3  1  0
  3  4  1  0
  4  5  1  0
  5  6  2  0
  5  7  1  0
  7  8  1  0
  8  9  1  0
  9 10  1  0
 10 11  1  0
 11 12  1  0
 12 13  2  0
 13 14  1  0
 14 15  1  0
 15 16  2  0
 16 17  1  0
 17 18  2  0
 18 19  1  0
 19 20  2  0
 14 21  2  0
 21 22  1  0
  2 23  1  0
 23 24  2  0
 24 25  1  0
 25 26  2  0
 26 27  1  0
 27 28  2  0
 28 29  1  0
 28 30  1  0
 30 31  2  0
 31 32  1  0
 32 33  2  0
 11  7  1  0
 22 12  1  0
 33 23  1  0
 20 15  1  0
 32 26  1  0
  3 34  1  0
  4 35  1  0
  4 36  1  0
  8 37  1  0
  8 38  1  0
  9 39  1  0
  9 40  1  0
 10 41  1  0
 10 42  1  0
 11 43  1  6
 16 44  1  0
 17 45  1  0
 18 46  1  0
 19 47  1  0
 20 48  1  0
 21 49  1  0
 24 50  1  0
 25 51  1  0
 27 52  1  0
 30 53  1  0
 31 54  1  0
M  END
>  <smiles>  (14) 
O=C(NCC(=O)N1CCC[C@H]1c1nc(-c2ccccc2)co1)c1ccc2cc(Cl)ccc2n1

>  <score_type>  (14) 
oracle

>  <origin>  (14) 
autodockgpu

>  <m_score__min__energy>  (14) 
-9.4000000000000004

>  <m_primary>  (14) 
energy

>  <rmsd>  (14) 
6.471363615840044

>  <m_score__min__rmsd>  (14) 
6.471363615840044

>  <meeko>  (14) 
{"free_energy": -6.35, "intermolecular_energy": -8.14, "internal_energy": -4.51, "cluster_size": 9, "cluster_id": 12, "rank_in_cluster": 8}

>  <energy>  (14) 
-8.54

>  <cluster_rmsd>  (14) 
1.25

>  <cluster>  (14) 
2

$$$$

     RDKit          3D

 54 58  0  0  0  0  0  0  0  0999 V2000
  137.4770   70.6220  221.0440 O   0  0  0  0  0  0  0  0  0  0  0  0
  137.6390   71.2390  222.1520 C   0  0  0  0  0  0  0  0  0  0  0  0
  137.2190   72.5740  222.2350 N   0  0  0  0  0  0  0  0  0  0  0  0
  136.6130   73.2840  221.1240 C   0  0  0  0  0  0  0  0  0  0  0  0
  137.6090   74.0330  220.3330 C   0  0  0  0  0  0  0  0  0  0  0  0
  137.3290   74.7430  219.3330 O   0  0  0  0  0  0  0  0  0  0  0  0
  138.9700   73.9400  220.7320 N   0  0  0  0  0  0  0  0  0  0  0  0
  140.0200   73.3040  219.9290 C   0  0  0  0  0  0  0  0  0  0  0  0
  141.0840   72.8490  220.9070 C   0  0  0  0  0  0  0  0  0  0  0  0
  140.5140   73.2480  222.2720 C   0  0  0  0  0  0  0  0  0  0  0  0
  139.5970   74.4200  221.9450 C   0  0  1  0  0  0  0  0  0  0  0  0
  140.4010   75.6310  221.6310 C   0  0  0  0  0  0  0  0  0  0  0  0
  140.4830   76.6790  222.4840 N   0  0  0  0  0  0  0  0  0  0  0  0
  141.2790   77.6200  221.9280 C   0  0  0  0  0  0  0  0  0  0  0  0
  141.5740   78.8810  222.5920 C   0  0  0  0  0  0  0  0  0  0  0  0
  140.5260   79.6280  223.0870 C   0  0  0  0  0  0  0  0  0  0  0  0
  140.7470   80.8490  223.7350 C   0  0  0  0  0  0  0  0  0  0  0  0
  142.0400   81.3090  223.8800 C   0  0  0  0  0  0  0  0  0  0  0  0
  143.0910   80.5690  223.3890 C   0  0  0  0  0  0  0  0  0  0  0  0
  142.8530   79.3600  222.7480 C   0  0  0  0  0  0  0  0  0  0  0  0
  141.6710   77.1180  220.7280 C   0  0  0  0  0  0  0  0  0  0  0  0
  141.1220   75.9250  220.5920 O   0  0  0  0  0  0  0  0  0  0  0  0
  138.2460   70.5500  223.2880 C   0  0  0  0  0  0  0  0  0  0  0  0
  138.0350   69.1870  223.4470 C   0  0  0  0  0  0  0  0  0  0  0  0
  138.5990   68.5120  224.5130 C   0  0  0  0  0  0  0  0  0  0  0  0
  139.3780   69.2120  225.4240 C   0  0  0  0  0  0  0  0  0  0  0  0
  139.9650   68.5790  226.5100 C   0  0  0  0  0  0  0  0  0  0  0  0
  140.7380   69.3060  227.4010 C   0  0  0  0  0  0  0  0  0  0  0  0
  141.4510   68.4270  228.7580 Cl  0  0  0  0  0  0  0  0  0  0  0  0
  140.9370   70.6620  227.2280 C   0  0  0  0  0  0  0  0  0  0  0  0
  140.3510   71.3000  226.1440 C   0  0  0  0  0  0  0  0  0  0  0  0
  139.5820   70.5800  225.2540 C   0  0  0  0  0  0  0  0  0  0  0  0
  139.0100   71.1760  224.2020 N   0  0  0  0  0  0  0  0  0  0  0  0
  137.3400   73.0950  223.1240 H   0  0  0  0  0  0  0  0  0  0  0  0
  136.1141   72.5557  220.4677 H   0  0  0  0  0  0  0  0  0  0  0  0
  135.8948   74.0079  221.5365 H   0  0  0  0  0  0  0  0  0  0  0  0
  139.6116   72.4417  219.3816 H   0  0  0  0  0  0  0  0  0  0  0  0
  140.4322   74.0009  219.1843 H   0  0  0  0  0  0  0  0  0  0  0  0
  141.2332   71.7608  220.8467 H   0  0  0  0  0  0  0  0  0  0  0  0
  142.0680   73.2982  220.7072 H   0  0  0  0  0  0  0  0  0  0  0  0
  139.9473   72.4181  222.7194 H   0  0  0  0  0  0  0  0  0  0  0  0
  141.2940   73.5052  223.0037 H   0  0  0  0  0  0  0  0  0  0  0  0
  138.9078   74.6984  222.7559 H   0  0  0  0  0  0  0  0  0  0  0  0
  139.4969   79.2574  222.9705 H   0  0  0  0  0  0  0  0  0  0  0  0
  139.9007   81.4344  224.1237 H   0  0  0  0  0  0  0  0  0  0  0  0
  142.2302   82.2662  224.3876 H   0  0  0  0  0  0  0  0  0  0  0  0
  144.1217   80.9356  223.5044 H   0  0  0  0  0  0  0  0  0  0  0  0
  143.7009   78.7769  222.3593 H   0  0  0  0  0  0  0  0  0  0  0  0
  142.3281   77.6163  220.0000 H   0  0  0  0  0  0  0  0  0  0  0  0
  137.4153   68.6412  222.7203 H   0  0  0  0  0  0  0  0  0  0  0  0
  138.4324   67.4319  224.6381 H   0  0  0  0  0  0  0  0  0  0  0  0
  139.8168   67.4999  226.6637 H   0  0  0  0  0  0  0  0  0  0  0  0
  141.5528   71.2294  227.9413 H   0  0  0  0  0  0  0  0  0  0  0  0
  140.4998   72.3796  225.9946 H   0  0  0  0  0  0  0  0  0  0  0  0
  1  2  2  0
  2  3  1  0
  3  4  1  0
  4  5  1  0
  5  6  2  0
  5  7  1  0
  7  8  1  0
  8  9  1  0
  9 10  1  0
 10 11  1  0
 11 12  1  0
 12 13  2  0
 13 14  1  0
 14 15  1  0
 15 16  2  0
 16 17  1  0
 17 18  2  0
 18 19  1  0
 19 20  2  0
 14 21  2  0
 21 22  1  0
  2 23  1  0
 23 24  2  0
 24 25  1  0
 25 26  2  0
 26 27  1  0
 27 28  2  0
 28 29  1  0
 28 30  1  0
 30 31  2  0
 31 32  1  0
 32 33  2  0
 11  7  1  0
 22 12  1  0
 33 23  1  0
 20 15  1  0
 32 26  1  0
  3 34  1  0
  4 35  1  0
  4 36  1  0
  8 37  1  0
  8 38  1  0
  9 39  1  0
  9 40  1  0
 10 41  1  0
 10 42  1  0
 11 43  1  1
 16 44  1  0
 17 45  1  0
 18 46  1  0
 19 47  1  0
 20 48  1  0
 21 49  1  0
 24 50  1  0
 25 51  1  0
 27 52  1  0
 30 53  1  0
 31 54  1  0
M  END
>  <smiles>  (15) 
O=C(NCC(=O)N1CCC[C@H]1c1nc(-c2ccccc2)co1)c1ccc2cc(Cl)ccc2n1

>  <score_type>  (15) 
oracle

>  <origin>  (15) 
autodockgpu

>  <m_score__min__energy>  (15) 
-9.4000000000000004

>  <m_primary>  (15) 
energy

>  <rmsd>  (15) 
3.0517987834116718

>  <m_score__min__rmsd>  (15) 
3.0517987834116718

>  <meeko>  (15) 
{"free_energy": -8.54, "intermolecular_energy": -10.33, "internal_energy": -2.18, "cluster_size": 12, "cluster_id": 2, "rank_in_cluster": 10}

>  <energy>  (15) 
-8.37

>  <cluster_rmsd>  (15) 
1.28

>  <cluster>  (15) 
2

$$$$

     RDKit          3D

 54 58  0  0  0  0  0  0  0  0999 V2000
  138.1750   75.6220  222.7990 O   0  0  0  0  0  0  0  0  0  0  0  0
  139.2180   76.0360  222.1850 C   0  0  0  0  0  0  0  0  0  0  0  0
  139.3780   77.4180  222.0110 N   0  0  0  0  0  0  0  0  0  0  0  0
  138.4190   78.3940  222.4920 C   0  0  0  0  0  0  0  0  0  0  0  0
  139.0660   79.4830  223.2510 C   0  0  0  0  0  0  0  0  0  0  0  0
  138.4920   80.1640  224.1390 O   0  0  0  0  0  0  0  0  0  0  0  0
  140.4260   79.7730  222.9540 N   0  0  0  0  0  0  0  0  0  0  0  0
  141.5570   78.9510  223.3980 C   0  0  0  0  0  0  0  0  0  0  0  0
  142.7560   79.8760  223.4560 C   0  0  0  0  0  0  0  0  0  0  0  0
  142.1810   81.2380  223.0550 C   0  0  0  0  0  0  0  0  0  0  0  0
  140.9760   80.8760  222.1950 C   0  0  1  0  0  0  0  0  0  0  0  0
  141.4230   80.3760  220.8670 C   0  0  0  0  0  0  0  0  0  0  0  0
  141.3120   79.0740  220.5160 N   0  0  0  0  0  0  0  0  0  0  0  0
  141.7980   78.9270  219.2630 C   0  0  0  0  0  0  0  0  0  0  0  0
  141.8260   77.6400  218.5840 C   0  0  0  0  0  0  0  0  0  0  0  0
  142.9830   77.2580  217.9410 C   0  0  0  0  0  0  0  0  0  0  0  0
  143.0710   76.0310  217.2710 C   0  0  0  0  0  0  0  0  0  0  0  0
  141.9760   75.1920  217.2590 C   0  0  0  0  0  0  0  0  0  0  0  0
  140.8170   75.5660  217.8990 C   0  0  0  0  0  0  0  0  0  0  0  0
  140.7480   76.7870  218.5580 C   0  0  0  0  0  0  0  0  0  0  0  0
  142.2010   80.1640  218.8690 C   0  0  0  0  0  0  0  0  0  0  0  0
  141.9570   81.0010  219.8610 O   0  0  0  0  0  0  0  0  0  0  0  0
  140.2020   75.0770  221.6900 C   0  0  0  0  0  0  0  0  0  0  0  0
  139.8600   73.7340  221.6120 C   0  0  0  0  0  0  0  0  0  0  0  0
  140.7730   72.8060  221.1460 C   0  0  0  0  0  0  0  0  0  0  0  0
  142.0350   73.2330  220.7570 C   0  0  0  0  0  0  0  0  0  0  0  0
  142.9850   72.3400  220.2830 C   0  0  0  0  0  0  0  0  0  0  0  0
  144.2370   72.7980  219.9030 C   0  0  0  0  0  0  0  0  0  0  0  0
  145.3920   71.5980  219.3110 Cl  0  0  0  0  0  0  0  0  0  0  0  0
  144.5610   74.1380  219.9880 C   0  0  0  0  0  0  0  0  0  0  0  0
  143.6130   75.0350  220.4630 C   0  0  0  0  0  0  0  0  0  0  0  0
  142.3660   74.5840  220.8420 C   0  0  0  0  0  0  0  0  0  0  0  0
  141.4390   75.4320  221.3000 N   0  0  0  0  0  0  0  0  0  0  0  0
  140.2170   77.7770  221.5160 H   0  0  0  0  0  0  0  0  0  0  0  0
  137.8918   78.8277  221.6295 H   0  0  0  0  0  0  0  0  0  0  0  0
  137.7218   77.8781  223.1686 H   0  0  0  0  0  0  0  0  0  0  0  0
  141.3534   78.5280  224.3928 H   0  0  0  0  0  0  0  0  0  0  0  0
  141.7336   78.1090  222.7126 H   0  0  0  0  0  0  0  0  0  0  0  0
  143.1761   79.9109  224.4720 H   0  0  0  0  0  0  0  0  0  0  0  0
  143.5786   79.5505  222.8022 H   0  0  0  0  0  0  0  0  0  0  0  0
  141.8731   81.8114  223.9418 H   0  0  0  0  0  0  0  0  0  0  0  0
  142.9089   81.8720  222.5275 H   0  0  0  0  0  0  0  0  0  0  0  0
  140.2858   81.7112  222.0048 H   0  0  0  0  0  0  0  0  0  0  0  0
  143.8543   77.9293  217.9540 H   0  0  0  0  0  0  0  0  0  0  0  0
  144.0012   75.7402  216.7610 H   0  0  0  0  0  0  0  0  0  0  0  0
  142.0295   74.2246  216.7381 H   0  0  0  0  0  0  0  0  0  0  0  0
  139.9437   74.8972  217.8889 H   0  0  0  0  0  0  0  0  0  0  0  0
  139.8165   77.0758  219.0669 H   0  0  0  0  0  0  0  0  0  0  0  0
  142.6497   80.4216  217.8983 H   0  0  0  0  0  0  0  0  0  0  0  0
  138.8570   73.4061  221.9227 H   0  0  0  0  0  0  0  0  0  0  0  0
  140.5022   71.7416  221.0843 H   0  0  0  0  0  0  0  0  0  0  0  0
  142.7449   71.2691  220.2087 H   0  0  0  0  0  0  0  0  0  0  0  0
  145.5575   74.4903  219.6833 H   0  0  0  0  0  0  0  0  0  0  0  0
  143.8568   76.1051  220.5369 H   0  0  0  0  0  0  0  0  0  0  0  0
  1  2  2  0
  2  3  1  0
  3  4  1  0
  4  5  1  0
  5  6  2  0
  5  7  1  0
  7  8  1  0
  8  9  1  0
  9 10  1  0
 10 11  1  0
 11 12  1  0
 12 13  2  0
 13 14  1  0
 14 15  1  0
 15 16  2  0
 16 17  1  0
 17 18  2  0
 18 19  1  0
 19 20  2  0
 14 21  2  0
 21 22  1  0
  2 23  1  0
 23 24  2  0
 24 25  1  0
 25 26  2  0
 26 27  1  0
 27 28  2  0
 28 29  1  0
 28 30  1  0
 30 31  2  0
 31 32  1  0
 32 33  2  0
 11  7  1  0
 22 12  1  0
 33 23  1  0
 20 15  1  0
 32 26  1  0
  3 34  1  0
  4 35  1  0
  4 36  1  0
  8 37  1  0
  8 38  1  0
  9 39  1  0
  9 40  1  0
 10 41  1  0
 10 42  1  0
 11 43  1  6
 16 44  1  0
 17 45  1  0
 18 46  1  0
 19 47  1  0
 20 48  1  0
 21 49  1  0
 24 50  1  0
 25 51  1  0
 27 52  1  0
 30 53  1  0
 31 54  1  0
M  END
>  <smiles>  (16) 
O=C(NCC(=O)N1CCC[C@H]1c1nc(-c2ccccc2)co1)c1ccc2cc(Cl)ccc2n1

>  <score_type>  (16) 
oracle

>  <origin>  (16) 
autodockgpu

>  <m_score__min__energy>  (16) 
-9.4000000000000004

>  <m_primary>  (16) 
energy

>  <rmsd>  (16) 
6.549257595777843

>  <m_score__min__rmsd>  (16) 
6.549257595777843

>  <meeko>  (16) 
{"free_energy": -6.66, "intermolecular_energy": -8.45, "internal_energy": -4.21, "cluster_size": 9, "cluster_id": 11, "rank_in_cluster": 8}

>  <energy>  (16) 
-8.33

>  <cluster_rmsd>  (16) 
0.96

>  <cluster>  (16) 
2

$$$$

     RDKit          3D

 54 58  0  0  0  0  0  0  0  0999 V2000
  139.5290   72.5570  220.7430 O   0  0  0  0  0  0  0  0  0  0  0  0
  139.4840   72.9130  221.9700 C   0  0  0  0  0  0  0  0  0  0  0  0
  139.2270   74.2600  222.2590 N   0  0  0  0  0  0  0  0  0  0  0  0
  139.0110   75.2640  221.2350 C   0  0  0  0  0  0  0  0  0  0  0  0
  138.9650   76.6300  221.7930 C   0  0  0  0  0  0  0  0  0  0  0  0
  137.9600   77.1290  222.3620 O   0  0  0  0  0  0  0  0  0  0  0  0
  140.1370   77.4270  221.6780 N   0  0  0  0  0  0  0  0  0  0  0  0
  141.0650   77.6880  222.7850 C   0  0  0  0  0  0  0  0  0  0  0  0
  141.7440   79.0040  222.4660 C   0  0  0  0  0  0  0  0  0  0  0  0
  141.0910   79.4380  221.1500 C   0  0  0  0  0  0  0  0  0  0  0  0
  140.6550   78.1210  220.5190 C   0  0  1  0  0  0  0  0  0  0  0  0
  141.8370   77.3830  219.9970 C   0  0  0  0  0  0  0  0  0  0  0  0
  142.1550   76.1410  220.4320 N   0  0  0  0  0  0  0  0  0  0  0  0
  143.2690   75.7360  219.7810 C   0  0  0  0  0  0  0  0  0  0  0  0
  143.8800   74.4360  220.0190 C   0  0  0  0  0  0  0  0  0  0  0  0
  143.1270   73.3020  219.7970 C   0  0  0  0  0  0  0  0  0  0  0  0
  143.6580   72.0250  220.0080 C   0  0  0  0  0  0  0  0  0  0  0  0
  144.9610   71.9030  220.4450 C   0  0  0  0  0  0  0  0  0  0  0  0
  145.7200   73.0290  220.6680 C   0  0  0  0  0  0  0  0  0  0  0  0
  145.1750   74.2890  220.4540 C   0  0  0  0  0  0  0  0  0  0  0  0
  143.6110   76.7550  218.9500 C   0  0  0  0  0  0  0  0  0  0  0  0
  142.7260   77.7220  219.1130 O   0  0  0  0  0  0  0  0  0  0  0  0
  139.6970   71.9250  223.0250 C   0  0  0  0  0  0  0  0  0  0  0  0
  139.3570   70.6000  222.7910 C   0  0  0  0  0  0  0  0  0  0  0  0
  139.5500   69.6450  223.7720 C   0  0  0  0  0  0  0  0  0  0  0  0
  140.0860   70.0270  224.9940 C   0  0  0  0  0  0  0  0  0  0  0  0
  140.2980   69.1060  226.0100 C   0  0  0  0  0  0  0  0  0  0  0  0
  140.8350   69.5200  227.2190 C   0  0  0  0  0  0  0  0  0  0  0  0
  141.0740   68.2860  228.4620 Cl  0  0  0  0  0  0  0  0  0  0  0  0
  141.1670   70.8430  227.4340 C   0  0  0  0  0  0  0  0  0  0  0  0
  140.9570   71.7680  226.4210 C   0  0  0  0  0  0  0  0  0  0  0  0
  140.4220   71.3610  225.2160 C   0  0  0  0  0  0  0  0  0  0  0  0
  140.2130   72.2360  224.2270 N   0  0  0  0  0  0  0  0  0  0  0  0
  139.1850   74.5730  223.2480 H   0  0  0  0  0  0  0  0  0  0  0  0
  139.8317   75.2073  220.5048 H   0  0  0  0  0  0  0  0  0  0  0  0
  138.0390   75.0599  220.7622 H   0  0  0  0  0  0  0  0  0  0  0  0
  140.5145   77.7633  223.7344 H   0  0  0  0  0  0  0  0  0  0  0  0
  141.7978   76.8749  222.8939 H   0  0  0  0  0  0  0  0  0  0  0  0
  141.5586   79.7436  223.2588 H   0  0  0  0  0  0  0  0  0  0  0  0
  142.8376   78.9128  222.3902 H   0  0  0  0  0  0  0  0  0  0  0  0
  140.2252   80.0903  221.3369 H   0  0  0  0  0  0  0  0  0  0  0  0
  141.7682   80.0185  220.5062 H   0  0  0  0  0  0  0  0  0  0  0  0
  139.9530   78.2293  219.6791 H   0  0  0  0  0  0  0  0  0  0  0  0
  142.0890   73.4036  219.4473 H   0  0  0  0  0  0  0  0  0  0  0  0
  143.0447   71.1298  219.8278 H   0  0  0  0  0  0  0  0  0  0  0  0
  145.3930   70.9058  220.6151 H   0  0  0  0  0  0  0  0  0  0  0  0
  146.7590   72.9314  221.0159 H   0  0  0  0  0  0  0  0  0  0  0  0
  145.7899   75.1828  220.6357 H   0  0  0  0  0  0  0  0  0  0  0  0
  144.4709   76.7718  218.2642 H   0  0  0  0  0  0  0  0  0  0  0  0
  138.9315   70.3079  221.8196 H   0  0  0  0  0  0  0  0  0  0  0  0
  139.2818   68.5945  223.5862 H   0  0  0  0  0  0  0  0  0  0  0  0
  140.0400   68.0478  225.8561 H   0  0  0  0  0  0  0  0  0  0  0  0
  141.5931   71.1601  228.3973 H   0  0  0  0  0  0  0  0  0  0  0  0
  141.2169   72.8252  226.5786 H   0  0  0  0  0  0  0  0  0  0  0  0
  1  2  2  0
  2  3  1  0
  3  4  1  0
  4  5  1  0
  5  6  2  0
  5  7  1  0
  7  8  1  0
  8  9  1  0
  9 10  1  0
 10 11  1  0
 11 12  1  0
 12 13  2  0
 13 14  1  0
 14 15  1  0
 15 16  2  0
 16 17  1  0
 17 18  2  0
 18 19  1  0
 19 20  2  0
 14 21  2  0
 21 22  1  0
  2 23  1  0
 23 24  2  0
 24 25  1  0
 25 26  2  0
 26 27  1  0
 27 28  2  0
 28 29  1  0
 28 30  1  0
 30 31  2  0
 31 32  1  0
 32 33  2  0
 11  7  1  0
 22 12  1  0
 33 23  1  0
 20 15  1  0
 32 26  1  0
  3 34  1  0
  4 35  1  0
  4 36  1  0
  8 37  1  0
  8 38  1  0
  9 39  1  0
  9 40  1  0
 10 41  1  0
 10 42  1  0
 11 43  1  6
 16 44  1  0
 17 45  1  0
 18 46  1  0
 19 47  1  0
 20 48  1  0
 21 49  1  0
 24 50  1  0
 25 51  1  0
 27 52  1  0
 30 53  1  0
 31 54  1  0
M  END
>  <smiles>  (17) 
O=C(NCC(=O)N1CCC[C@H]1c1nc(-c2ccccc2)co1)c1ccc2cc(Cl)ccc2n1

>  <score_type>  (17) 
oracle

>  <origin>  (17) 
autodockgpu

>  <m_score__min__energy>  (17) 
-9.4000000000000004

>  <m_primary>  (17) 
energy

>  <rmsd>  (17) 
5.323531109785208

>  <m_score__min__rmsd>  (17) 
5.323531109785208

>  <meeko>  (17) 
{"free_energy": -9.0, "intermolecular_energy": -10.79, "internal_energy": -2.15, "cluster_size": 4, "cluster_id": 1, "rank_in_cluster": 4}

>  <energy>  (17) 
-9.09

>  <cluster_rmsd>  (17) 
0.0

>  <cluster>  (17) 
3

$$$$

     RDKit          3D

 54 58  0  0  0  0  0  0  0  0999 V2000
  138.2460   70.4440  220.7300 O   0  0  0  0  0  0  0  0  0  0  0  0
  139.0740   71.1990  221.3440 C   0  0  0  0  0  0  0  0  0  0  0  0
  139.5520   72.3360  220.6780 N   0  0  0  0  0  0  0  0  0  0  0  0
  139.1530   72.6920  219.3300 C   0  0  0  0  0  0  0  0  0  0  0  0
  140.2920   73.1630  218.5170 C   0  0  0  0  0  0  0  0  0  0  0  0
  140.6170   72.6760  217.4030 O   0  0  0  0  0  0  0  0  0  0  0  0
  141.0690   74.2360  219.0350 N   0  0  0  0  0  0  0  0  0  0  0  0
  141.2650   75.5150  218.3440 C   0  0  0  0  0  0  0  0  0  0  0  0
  142.5780   76.0730  218.8500 C   0  0  0  0  0  0  0  0  0  0  0  0
  143.0810   74.9960  219.8160 C   0  0  0  0  0  0  0  0  0  0  0  0
  141.8010   74.3110  220.2810 C   0  0  1  0  0  0  0  0  0  0  0  0
  141.0620   75.1890  221.2270 C   0  0  0  0  0  0  0  0  0  0  0  0
  141.4440   76.4650  221.4680 N   0  0  0  0  0  0  0  0  0  0  0  0
  140.5860   77.0050  222.3630 C   0  0  0  0  0  0  0  0  0  0  0  0
  140.7180   78.3740  222.8400 C   0  0  0  0  0  0  0  0  0  0  0  0
  139.5760   79.0660  223.1820 C   0  0  0  0  0  0  0  0  0  0  0  0
  139.6390   80.3850  223.6480 C   0  0  0  0  0  0  0  0  0  0  0  0
  140.8690   80.9990  223.7650 C   0  0  0  0  0  0  0  0  0  0  0  0
  142.0130   80.3140  223.4260 C   0  0  0  0  0  0  0  0  0  0  0  0
  141.9320   79.0060  222.9650 C   0  0  0  0  0  0  0  0  0  0  0  0
  139.6840   76.0310  222.6530 C   0  0  0  0  0  0  0  0  0  0  0  0
  140.0070   74.9610  221.9490 O   0  0  0  0  0  0  0  0  0  0  0  0
  139.4940   70.8680  222.7030 C   0  0  0  0  0  0  0  0  0  0  0  0
  140.2090   71.8030  223.4390 C   0  0  0  0  0  0  0  0  0  0  0  0
  140.6170   71.5130  224.7280 C   0  0  0  0  0  0  0  0  0  0  0  0
  140.3050   70.2770  225.2770 C   0  0  0  0  0  0  0  0  0  0  0  0
  140.6930   69.9400  226.5650 C   0  0  0  0  0  0  0  0  0  0  0  0
  140.3650   68.6980  227.0850 C   0  0  0  0  0  0  0  0  0  0  0  0
  140.8960   68.3450  228.7330 Cl  0  0  0  0  0  0  0  0  0  0  0  0
  139.6540   67.7790  226.3380 C   0  0  0  0  0  0  0  0  0  0  0  0
  139.2640   68.1120  225.0480 C   0  0  0  0  0  0  0  0  0  0  0  0
  139.5880   69.3470  224.5270 C   0  0  0  0  0  0  0  0  0  0  0  0
  139.2200   69.6880  223.2870 N   0  0  0  0  0  0  0  0  0  0  0  0
  140.2250   72.9650  221.1570 H   0  0  0  0  0  0  0  0  0  0  0  0
  138.7137   71.8076  218.8454 H   0  0  0  0  0  0  0  0  0  0  0  0
  138.4250   73.5137  219.3993 H   0  0  0  0  0  0  0  0  0  0  0  0
  141.3118   75.3573  217.2564 H   0  0  0  0  0  0  0  0  0  0  0  0
  140.4334   76.2077  218.5404 H   0  0  0  0  0  0  0  0  0  0  0  0
  143.2872   76.2196  218.0220 H   0  0  0  0  0  0  0  0  0  0  0  0
  142.4671   77.0572  219.3286 H   0  0  0  0  0  0  0  0  0  0  0  0
  143.7434   74.2844  219.3014 H   0  0  0  0  0  0  0  0  0  0  0  0
  143.6733   75.4075  220.6465 H   0  0  0  0  0  0  0  0  0  0  0  0
  141.9593   73.3518  220.7957 H   0  0  0  0  0  0  0  0  0  0  0  0
  138.5972   78.5731  223.0871 H   0  0  0  0  0  0  0  0  0  0  0  0
  138.7193   80.9249  223.9174 H   0  0  0  0  0  0  0  0  0  0  0  0
  140.9349   82.0350  224.1289 H   0  0  0  0  0  0  0  0  0  0  0  0
  142.9938   80.8030  223.5202 H   0  0  0  0  0  0  0  0  0  0  0  0
  142.8531   78.4682  222.6961 H   0  0  0  0  0  0  0  0  0  0  0  0
  138.8368   76.1180  223.3492 H   0  0  0  0  0  0  0  0  0  0  0  0
  140.4522   72.7794  222.9946 H   0  0  0  0  0  0  0  0  0  0  0  0
  141.1827   72.2539  225.3120 H   0  0  0  0  0  0  0  0  0  0  0  0
  141.2611   70.6586  227.1740 H   0  0  0  0  0  0  0  0  0  0  0  0
  139.4000   66.7955  226.7601 H   0  0  0  0  0  0  0  0  0  0  0  0
  138.6966   67.3908  224.4415 H   0  0  0  0  0  0  0  0  0  0  0  0
  1  2  2  0
  2  3  1  0
  3  4  1  0
  4  5  1  0
  5  6  2  0
  5  7  1  0
  7  8  1  0
  8  9  1  0
  9 10  1  0
 10 11  1  0
 11 12  1  0
 12 13  2  0
 13 14  1  0
 14 15  1  0
 15 16  2  0
 16 17  1  0
 17 18  2  0
 18 19  1  0
 19 20  2  0
 14 21  2  0
 21 22  1  0
  2 23  1  0
 23 24  2  0
 24 25  1  0
 25 26  2  0
 26 27  1  0
 27 28  2  0
 28 29  1  0
 28 30  1  0
 30 31  2  0
 31 32  1  0
 32 33  2  0
 11  7  1  0
 22 12  1  0
 33 23  1  0
 20 15  1  0
 32 26  1  0
  3 34  1  0
  4 35  1  0
  4 36  1  0
  8 37  1  0
  8 38  1  0
  9 39  1  0
  9 40  1  0
 10 41  1  0
 10 42  1  0
 11 43  1  1
 16 44  1  0
 17 45  1  0
 18 46  1  0
 19 47  1  0
 20 48  1  0
 21 49  1  0
 24 50  1  0
 25 51  1  0
 27 52  1  0
 30 53  1  0
 31 54  1  0
M  END
>  <smiles>  (18) 
O=C(NCC(=O)N1CCC[C@H]1c1nc(-c2ccccc2)co1)c1ccc2cc(Cl)ccc2n1

>  <score_type>  (18) 
oracle

>  <origin>  (18) 
autodockgpu

>  <m_score__min__energy>  (18) 
-9.4000000000000004

>  <m_primary>  (18) 
energy

>  <rmsd>  (18) 
3.297888066031668

>  <m_score__min__rmsd>  (18) 
3.297888066031668

>  <meeko>  (18) 
{"free_energy": -8.37, "intermolecular_energy": -10.16, "internal_energy": -2.41, "cluster_size": 12, "cluster_id": 2, "rank_in_cluster": 11}

>  <energy>  (18) 
-8.83

>  <cluster_rmsd>  (18) 
0.31

>  <cluster>  (18) 
3

$$$$

     RDKit          3D

 54 58  0  0  0  0  0  0  0  0999 V2000
  138.7390   70.3290  220.6670 O   0  0  0  0  0  0  0  0  0  0  0  0
  139.0210   71.2400  221.5190 C   0  0  0  0  0  0  0  0  0  0  0  0
  138.8850   72.5780  221.1270 N   0  0  0  0  0  0  0  0  0  0  0  0
  138.4440   72.9760  219.8030 C   0  0  0  0  0  0  0  0  0  0  0  0
  139.5750   73.1820  218.8780 C   0  0  0  0  0  0  0  0  0  0  0  0
  139.8520   72.4180  217.9170 O   0  0  0  0  0  0  0  0  0  0  0  0
  140.4020   74.3190  219.0920 N   0  0  0  0  0  0  0  0  0  0  0  0
  140.3500   75.5370  218.2760 C   0  0  0  0  0  0  0  0  0  0  0  0
  141.7190   76.1770  218.3830 C   0  0  0  0  0  0  0  0  0  0  0  0
  142.5040   75.2040  219.2680 C   0  0  0  0  0  0  0  0  0  0  0  0
  141.4210   74.5260  220.0990 C   0  0  1  0  0  0  0  0  0  0  0  0
  140.9010   75.4630  221.1310 C   0  0  0  0  0  0  0  0  0  0  0  0
  141.4510   76.6830  221.3330 N   0  0  0  0  0  0  0  0  0  0  0  0
  140.7700   77.2970  222.3270 C   0  0  0  0  0  0  0  0  0  0  0  0
  141.1100   78.6340  222.7930 C   0  0  0  0  0  0  0  0  0  0  0  0
  142.4330   79.0210  222.7780 C   0  0  0  0  0  0  0  0  0  0  0  0
  142.8230   80.2930  223.2140 C   0  0  0  0  0  0  0  0  0  0  0  0
  141.8600   81.1730  223.6640 C   0  0  0  0  0  0  0  0  0  0  0  0
  140.5370   80.7940  223.6820 C   0  0  0  0  0  0  0  0  0  0  0  0
  140.1700   79.5270  223.2460 C   0  0  0  0  0  0  0  0  0  0  0  0
  139.8040   76.4240  222.7160 C   0  0  0  0  0  0  0  0  0  0  0  0
  139.9200   75.3390  221.9720 O   0  0  0  0  0  0  0  0  0  0  0  0
  139.4670   70.8700  222.8600 C   0  0  0  0  0  0  0  0  0  0  0  0
  140.2180   71.7750  223.5980 C   0  0  0  0  0  0  0  0  0  0  0  0
  140.6520   71.4500  224.8700 C   0  0  0  0  0  0  0  0  0  0  0  0
  140.3290   70.2080  225.4000 C   0  0  0  0  0  0  0  0  0  0  0  0
  140.7410   69.8360  226.6710 C   0  0  0  0  0  0  0  0  0  0  0  0
  140.4020   68.5890  227.1720 C   0  0  0  0  0  0  0  0  0  0  0  0
  140.9650   68.1900  228.7990 Cl  0  0  0  0  0  0  0  0  0  0  0  0
  139.6540   67.7010  226.4240 C   0  0  0  0  0  0  0  0  0  0  0  0
  139.2400   68.0690  225.1510 C   0  0  0  0  0  0  0  0  0  0  0  0
  139.5750   69.3090  224.6480 C   0  0  0  0  0  0  0  0  0  0  0  0
  139.1840   69.6830  223.4250 N   0  0  0  0  0  0  0  0  0  0  0  0
  139.1080   73.3350  221.8020 H   0  0  0  0  0  0  0  0  0  0  0  0
  137.7916   72.1896  219.3955 H   0  0  0  0  0  0  0  0  0  0  0  0
  137.9072   73.9314  219.8985 H   0  0  0  0  0  0  0  0  0  0  0  0
  140.1279   75.2849  217.2286 H   0  0  0  0  0  0  0  0  0  0  0  0
  139.5606   76.2192  218.6244 H   0  0  0  0  0  0  0  0  0  0  0  0
  142.1869   76.2712  217.3920 H   0  0  0  0  0  0  0  0  0  0  0  0
  141.6831   77.1960  218.7958 H   0  0  0  0  0  0  0  0  0  0  0  0
  143.0488   74.4691  218.6572 H   0  0  0  0  0  0  0  0  0  0  0  0
  143.2661   75.7043  219.8836 H   0  0  0  0  0  0  0  0  0  0  0  0
  141.7538   73.6220  220.6300 H   0  0  0  0  0  0  0  0  0  0  0  0
  143.1969   78.3169  222.4165 H   0  0  0  0  0  0  0  0  0  0  0  0
  143.8829   80.5870  223.1981 H   0  0  0  0  0  0  0  0  0  0  0  0
  142.1496   82.1768  224.0081 H   0  0  0  0  0  0  0  0  0  0  0  0
  139.7695   81.4950  224.0420 H   0  0  0  0  0  0  0  0  0  0  0  0
  139.1098   79.2344  223.2639 H   0  0  0  0  0  0  0  0  0  0  0  0
  139.0593   76.5910  223.5082 H   0  0  0  0  0  0  0  0  0  0  0  0
  140.4691   72.7560  223.1684 H   0  0  0  0  0  0  0  0  0  0  0  0
  141.2463   72.1671  225.4553 H   0  0  0  0  0  0  0  0  0  0  0  0
  141.3368   70.5306  227.2814 H   0  0  0  0  0  0  0  0  0  0  0  0
  139.3895   66.7142  226.8319 H   0  0  0  0  0  0  0  0  0  0  0  0
  138.6447   67.3716  224.5433 H   0  0  0  0  0  0  0  0  0  0  0  0
  1  2  2  0
  2  3  1  0
  3  4  1  0
  4  5  1  0
  5  6  2  0
  5  7  1  0
  7  8  1  0
  8  9  1  0
  9 10  1  0
 10 11  1  0
 11 12  1  0
 12 13  2  0
 13 14  1  0
 14 15  1  0
 15 16  2  0
 16 17  1  0
 17 18  2  0
 18 19  1  0
 19 20  2  0
 14 21  2  0
 21 22  1  0
  2 23  1  0
 23 24  2  0
 24 25  1  0
 25 26  2  0
 26 27  1  0
 27 28  2  0
 28 29  1  0
 28 30  1  0
 30 31  2  0
 31 32  1  0
 32 33  2  0
 11  7  1  0
 22 12  1  0
 33 23  1  0
 20 15  1  0
 32 26  1  0
  3 34  1  0
  4 35  1  0
  4 36  1  0
  8 37  1  0
  8 38  1  0
  9 39  1  0
  9 40  1  0
 10 41  1  0
 10 42  1  0
 11 43  1  1
 16 44  1  0
 17 45  1  0
 18 46  1  0
 19 47  1  0
 20 48  1  0
 21 49  1  0
 24 50  1  0
 25 51  1  0
 27 52  1  0
 30 53  1  0
 31 54  1  0
M  END
>  <smiles>  (19) 
O=C(NCC(=O)N1CCC[C@H]1c1nc(-c2ccccc2)co1)c1ccc2cc(Cl)ccc2n1

>  <score_type>  (19) 
oracle

>  <origin>  (19) 
autodockgpu

>  <m_score__min__energy>  (19) 
-9.4000000000000004

>  <m_primary>  (19) 
energy

>  <rmsd>  (19) 
3.2681383360711855

>  <m_score__min__rmsd>  (19) 
3.2681383360711855

>  <meeko>  (19) 
{"free_energy": -8.33, "intermolecular_energy": -10.12, "internal_energy": -2.51, "cluster_size": 12, "cluster_id": 2, "rank_in_cluster": 12}

>  <energy>  (19) 
-9.06

>  <cluster_rmsd>  (19) 
0.0

>  <cluster>  (19) 
4

$$$$

     RDKit          3D

 54 58  0  0  0  0  0  0  0  0999 V2000
  140.6230   72.6190  220.8660 O   0  0  0  0  0  0  0  0  0  0  0  0
  140.0930   72.9310  221.9870 C   0  0  0  0  0  0  0  0  0  0  0  0
  139.5220   74.2050  222.1170 N   0  0  0  0  0  0  0  0  0  0  0  0
  139.5060   75.1800  221.0440 C   0  0  0  0  0  0  0  0  0  0  0  0
  140.8000   75.8770  220.9060 C   0  0  0  0  0  0  0  0  0  0  0  0
  141.7890   75.4180  220.2790 O   0  0  0  0  0  0  0  0  0  0  0  0
  140.9300   77.1510  221.5270 N   0  0  0  0  0  0  0  0  0  0  0  0
  141.4250   78.3510  220.8430 C   0  0  0  0  0  0  0  0  0  0  0  0
  142.0020   79.2440  221.9210 C   0  0  0  0  0  0  0  0  0  0  0  0
  141.8190   78.4280  223.2040 C   0  0  0  0  0  0  0  0  0  0  0  0
  140.6250   77.5340  222.8890 C   0  0  1  0  0  0  0  0  0  0  0  0
  139.3690   78.3300  222.9000 C   0  0  0  0  0  0  0  0  0  0  0  0
  139.1890   79.3730  223.7430 N   0  0  0  0  0  0  0  0  0  0  0  0
  137.9600   79.8940  223.5200 C   0  0  0  0  0  0  0  0  0  0  0  0
  137.4510   81.0350  224.2680 C   0  0  0  0  0  0  0  0  0  0  0  0
  137.0750   82.1640  223.5720 C   0  0  0  0  0  0  0  0  0  0  0  0
  136.5780   83.2930  224.2350 C   0  0  0  0  0  0  0  0  0  0  0  0
  136.4630   83.2690  225.6100 C   0  0  0  0  0  0  0  0  0  0  0  0
  136.8360   82.1450  226.3110 C   0  0  0  0  0  0  0  0  0  0  0  0
  137.3280   81.0350  225.6360 C   0  0  0  0  0  0  0  0  0  0  0  0
  137.4090   79.1440  222.5300 C   0  0  0  0  0  0  0  0  0  0  0  0
  138.2880   78.2190  222.1890 O   0  0  0  0  0  0  0  0  0  0  0  0
  140.0920   71.9700  223.0860 C   0  0  0  0  0  0  0  0  0  0  0  0
  139.5700   70.7010  222.8770 C   0  0  0  0  0  0  0  0  0  0  0  0
  139.5580   69.7720  223.9010 C   0  0  0  0  0  0  0  0  0  0  0  0
  140.0750   70.1230  225.1410 C   0  0  0  0  0  0  0  0  0  0  0  0
  140.0860   69.2270  226.1990 C   0  0  0  0  0  0  0  0  0  0  0  0
  140.6100   69.6070  227.4250 C   0  0  0  0  0  0  0  0  0  0  0  0
  140.5870   68.4080  228.7230 Cl  0  0  0  0  0  0  0  0  0  0  0  0
  141.1250   70.8740  227.6150 C   0  0  0  0  0  0  0  0  0  0  0  0
  141.1160   71.7750  226.5590 C   0  0  0  0  0  0  0  0  0  0  0  0
  140.5970   71.4000  225.3380 C   0  0  0  0  0  0  0  0  0  0  0  0
  140.5790   72.2530  224.3070 N   0  0  0  0  0  0  0  0  0  0  0  0
  139.0850   74.4800  223.0170 H   0  0  0  0  0  0  0  0  0  0  0  0
  139.2789   74.6639  220.0995 H   0  0  0  0  0  0  0  0  0  0  0  0
  138.7402   75.9328  221.2825 H   0  0  0  0  0  0  0  0  0  0  0  0
  142.2036   78.0808  220.1145 H   0  0  0  0  0  0  0  0  0  0  0  0
  140.6203   78.8582  220.2906 H   0  0  0  0  0  0  0  0  0  0  0  0
  143.0667   79.4473  221.7338 H   0  0  0  0  0  0  0  0  0  0  0  0
  141.5118   80.2276  221.9676 H   0  0  0  0  0  0  0  0  0  0  0  0
  142.7147   77.8267  223.4188 H   0  0  0  0  0  0  0  0  0  0  0  0
  141.6614   79.0564  224.0930 H   0  0  0  0  0  0  0  0  0  0  0  0
  140.4801   76.7024  223.5944 H   0  0  0  0  0  0  0  0  0  0  0  0
  137.1670   82.1783  222.4760 H   0  0  0  0  0  0  0  0  0  0  0  0
  136.2830   84.1876  223.6670 H   0  0  0  0  0  0  0  0  0  0  0  0
  136.0735   84.1475  226.1452 H   0  0  0  0  0  0  0  0  0  0  0  0
  136.7445   82.1255  227.4070 H   0  0  0  0  0  0  0  0  0  0  0  0
  137.6238   80.1420  226.2061 H   0  0  0  0  0  0  0  0  0  0  0  0
  136.4099   79.2824  222.0911 H   0  0  0  0  0  0  0  0  0  0  0  0
  139.1634   70.4327  221.8907 H   0  0  0  0  0  0  0  0  0  0  0  0
  139.1437   68.7666  223.7353 H   0  0  0  0  0  0  0  0  0  0  0  0
  139.6787   68.2139  226.0656 H   0  0  0  0  0  0  0  0  0  0  0  0
  141.5377   71.1660  228.5920 H   0  0  0  0  0  0  0  0  0  0  0  0
  141.5228   72.7878  226.6963 H   0  0  0  0  0  0  0  0  0  0  0  0
  1  2  2  0
  2  3  1  0
  3  4  1  0
  4  5  1  0
  5  6  2  0
  5  7  1  0
  7  8  1  0
  8  9  1  0
  9 10  1  0
 10 11  1  0
 11 12  1  0
 12 13  2  0
 13 14  1  0
 14 15  1  0
 15 16  2  0
 16 17  1  0
 17 18  2  0
 18 19  1  0
 19 20  2  0
 14 21  2  0
 21 22  1  0
  2 23  1  0
 23 24  2  0
 24 25  1  0
 25 26  2  0
 26 27  1  0
 27 28  2  0
 28 29  1  0
 28 30  1  0
 30 31  2  0
 31 32  1  0
 32 33  2  0
 11  7  1  0
 22 12  1  0
 33 23  1  0
 20 15  1  0
 32 26  1  0
  3 34  1  0
  4 35  1  0
  4 36  1  0
  8 37  1  0
  8 38  1  0
  9 39  1  0
  9 40  1  0
 10 41  1  0
 10 42  1  0
 11 43  1  1
 16 44  1  0
 17 45  1  0
 18 46  1  0
 19 47  1  0
 20 48  1  0
 21 49  1  0
 24 50  1  0
 25 51  1  0
 27 52  1  0
 30 53  1  0
 31 54  1  0
M  END
>  <smiles>  (20) 
O=C(NCC(=O)N1CCC[C@H]1c1nc(-c2ccccc2)co1)c1ccc2cc(Cl)ccc2n1

>  <score_type>  (20) 
oracle

>  <origin>  (20) 
autodockgpu

>  <m_score__min__energy>  (20) 
-9.4000000000000004

>  <m_primary>  (20) 
energy

>  <rmsd>  (20) 
3.863722957382667

>  <m_score__min__rmsd>  (20) 
3.863722957382667

>  <meeko>  (20) 
{"free_energy": -8.83, "intermolecular_energy": -10.62, "internal_energy": -1.67, "cluster_size": 2, "cluster_id": 3, "rank_in_cluster": 2}

>  <energy>  (20) 
-8.95

>  <cluster_rmsd>  (20) 
0.0

>  <cluster>  (20) 
5

$$$$

     RDKit          3D

 54 58  0  0  0  0  0  0  0  0999 V2000
  138.1750   75.4700  222.4230 O   0  0  0  0  0  0  0  0  0  0  0  0
  139.3420   75.8800  222.1010 C   0  0  0  0  0  0  0  0  0  0  0  0
  139.6170   77.2490  222.2120 N   0  0  0  0  0  0  0  0  0  0  0  0
  138.6420   78.2190  222.6710 C   0  0  0  0  0  0  0  0  0  0  0  0
  139.2660   79.3190  223.4330 C   0  0  0  0  0  0  0  0  0  0  0  0
  138.7070   79.9340  224.3770 O   0  0  0  0  0  0  0  0  0  0  0  0
  140.5870   79.7030  223.0700 N   0  0  0  0  0  0  0  0  0  0  0  0
  141.7940   78.9740  223.4760 C   0  0  0  0  0  0  0  0  0  0  0  0
  142.9220   79.9850  223.4640 C   0  0  0  0  0  0  0  0  0  0  0  0
  142.2310   81.2930  223.0670 C   0  0  0  0  0  0  0  0  0  0  0  0
  141.0200   80.8270  222.2680 C   0  0  1  0  0  0  0  0  0  0  0  0
  141.4440   80.3360  220.9300 C   0  0  0  0  0  0  0  0  0  0  0  0
  141.3640   79.0290  220.5880 N   0  0  0  0  0  0  0  0  0  0  0  0
  141.8170   78.8920  219.3210 C   0  0  0  0  0  0  0  0  0  0  0  0
  141.8660   77.6030  218.6470 C   0  0  0  0  0  0  0  0  0  0  0  0
  140.7430   76.8030  218.6700 C   0  0  0  0  0  0  0  0  0  0  0  0
  140.7290   75.5530  218.0400 C   0  0  0  0  0  0  0  0  0  0  0  0
  141.8620   75.1190  217.3830 C   0  0  0  0  0  0  0  0  0  0  0  0
  142.9860   75.9110  217.3550 C   0  0  0  0  0  0  0  0  0  0  0  0
  142.9820   77.1480  217.9860 C   0  0  0  0  0  0  0  0  0  0  0  0
  142.1700   80.1390  218.9110 C   0  0  0  0  0  0  0  0  0  0  0  0
  141.9290   80.9720  219.9070 O   0  0  0  0  0  0  0  0  0  0  0  0
  140.3460   74.9260  221.6350 C   0  0  0  0  0  0  0  0  0  0  0  0
  140.0250   73.5770  221.5770 C   0  0  0  0  0  0  0  0  0  0  0  0
  140.9570   72.6550  221.1390 C   0  0  0  0  0  0  0  0  0  0  0  0
  142.2180   73.0930  220.7570 C   0  0  0  0  0  0  0  0  0  0  0  0
  143.1870   72.2070  220.3110 C   0  0  0  0  0  0  0  0  0  0  0  0
  144.4360   72.6760  219.9370 C   0  0  0  0  0  0  0  0  0  0  0  0
  145.6150   71.4840  219.3800 Cl  0  0  0  0  0  0  0  0  0  0  0  0
  144.7380   74.0220  220.0010 C   0  0  0  0  0  0  0  0  0  0  0  0
  143.7720   74.9130  220.4480 C   0  0  0  0  0  0  0  0  0  0  0  0
  142.5270   74.4510  220.8210 C   0  0  0  0  0  0  0  0  0  0  0  0
  141.5820   75.2920  221.2520 N   0  0  0  0  0  0  0  0  0  0  0  0
  140.5580   77.6050  221.9560 H   0  0  0  0  0  0  0  0  0  0  0  0
  138.1248   78.6421  221.7973 H   0  0  0  0  0  0  0  0  0  0  0  0
  137.9392   77.7009  223.3400 H   0  0  0  0  0  0  0  0  0  0  0  0
  141.6662   78.5571  224.4859 H   0  0  0  0  0  0  0  0  0  0  0  0
  142.0018   78.1333  222.7978 H   0  0  0  0  0  0  0  0  0  0  0  0
  143.3827   80.0708  224.4592 H   0  0  0  0  0  0  0  0  0  0  0  0
  143.7366   79.7076  222.7789 H   0  0  0  0  0  0  0  0  0  0  0  0
  141.9204   81.8596  223.9572 H   0  0  0  0  0  0  0  0  0  0  0  0
  142.8864   81.9681  222.4972 H   0  0  0  0  0  0  0  0  0  0  0  0
  140.2620   81.6050  222.0944 H   0  0  0  0  0  0  0  0  0  0  0  0
  139.8412   77.1537  219.1932 H   0  0  0  0  0  0  0  0  0  0  0  0
  139.8264   74.9249  218.0684 H   0  0  0  0  0  0  0  0  0  0  0  0
  141.8663   74.1398  216.8818 H   0  0  0  0  0  0  0  0  0  0  0  0
  143.8894   75.5641  216.8320 H   0  0  0  0  0  0  0  0  0  0  0  0
  143.8862   77.7737  217.9564 H   0  0  0  0  0  0  0  0  0  0  0  0
  142.5822   80.4062  217.9268 H   0  0  0  0  0  0  0  0  0  0  0  0
  139.0232   73.2397  221.8813 H   0  0  0  0  0  0  0  0  0  0  0  0
  140.7025   71.5858  221.0936 H   0  0  0  0  0  0  0  0  0  0  0  0
  142.9640   71.1313  220.2541 H   0  0  0  0  0  0  0  0  0  0  0  0
  145.7326   74.3839  219.7012 H   0  0  0  0  0  0  0  0  0  0  0  0
  143.9994   75.9877  220.5048 H   0  0  0  0  0  0  0  0  0  0  0  0
  1  2  2  0
  2  3  1  0
  3  4  1  0
  4  5  1  0
  5  6  2  0
  5  7  1  0
  7  8  1  0
  8  9  1  0
  9 10  1  0
 10 11  1  0
 11 12  1  0
 12 13  2  0
 13 14  1  0
 14 15  1  0
 15 16  2  0
 16 17  1  0
 17 18  2  0
 18 19  1  0
 19 20  2  0
 14 21  2  0
 21 22  1  0
  2 23  1  0
 23 24  2  0
 24 25  1  0
 25 26  2  0
 26 27  1  0
 27 28  2  0
 28 29  1  0
 28 30  1  0
 30 31  2  0
 31 32  1  0
 32 33  2  0
 11  7  1  0
 22 12  1  0
 33 23  1  0
 20 15  1  0
 32 26  1  0
  3 34  1  0
  4 35  1  0
  4 36  1  0
  8 37  1  0
  8 38  1  0
  9 39  1  0
  9 40  1  0
 10 41  1  0
 10 42  1  0
 11 43  1  6
 16 44  1  0
 17 45  1  0
 18 46  1  0
 19 47  1  0
 20 48  1  0
 21 49  1  0
 24 50  1  0
 25 51  1  0
 27 52  1  0
 30 53  1  0
 31 54  1  0
M  END
>  <smiles>  (21) 
O=C(NCC(=O)N1CCC[C@H]1c1nc(-c2ccccc2)co1)c1ccc2cc(Cl)ccc2n1

>  <score_type>  (21) 
oracle

>  <origin>  (21) 
autodockgpu

>  <m_score__min__energy>  (21) 
-9.4000000000000004

>  <m_primary>  (21) 
energy

>  <rmsd>  (21) 
6.4562934247640476

>  <m_score__min__rmsd>  (21) 
6.4562934247640476

>  <meeko>  (21) 
{"free_energy": -6.84, "intermolecular_energy": -8.63, "internal_energy": -4.18, "cluster_size": 9, "cluster_id": 11, "rank_in_cluster": 4}

>  <energy>  (21) 
-8.63

>  <cluster_rmsd>  (21) 
1.64

>  <cluster>  (21) 
5

$$$$

     RDKit          3D

 54 58  0  0  0  0  0  0  0  0999 V2000
  138.1320   75.6530  222.7320 O   0  0  0  0  0  0  0  0  0  0  0  0
  139.1960   76.0730  222.1620 C   0  0  0  0  0  0  0  0  0  0  0  0
  139.3560   77.4550  221.9960 N   0  0  0  0  0  0  0  0  0  0  0  0
  138.3740   78.4260  222.4390 C   0  0  0  0  0  0  0  0  0  0  0  0
  138.9670   79.4610  223.3090 C   0  0  0  0  0  0  0  0  0  0  0  0
  138.3650   80.0120  224.2670 O   0  0  0  0  0  0  0  0  0  0  0  0
  140.3070   79.8560  223.0410 N   0  0  0  0  0  0  0  0  0  0  0  0
  141.4880   79.1140  223.4980 C   0  0  0  0  0  0  0  0  0  0  0  0
  142.6130   80.1240  223.5880 C   0  0  0  0  0  0  0  0  0  0  0  0
  141.9460   81.4450  223.1920 C   0  0  0  0  0  0  0  0  0  0  0  0
  140.7870   81.0050  222.3050 C   0  0  1  0  0  0  0  0  0  0  0  0
  141.2940   80.5580  220.9800 C   0  0  0  0  0  0  0  0  0  0  0  0
  141.2100   79.2670  220.5790 N   0  0  0  0  0  0  0  0  0  0  0  0
  141.7490   79.1700  219.3430 C   0  0  0  0  0  0  0  0  0  0  0  0
  141.8170   77.9080  218.6210 C   0  0  0  0  0  0  0  0  0  0  0  0
  142.9710   77.6050  217.9290 C   0  0  0  0  0  0  0  0  0  0  0  0
  143.0960   76.4070  217.2160 C   0  0  0  0  0  0  0  0  0  0  0  0
  142.0430   75.5150  217.2100 C   0  0  0  0  0  0  0  0  0  0  0  0
  140.8890   75.8100  217.8980 C   0  0  0  0  0  0  0  0  0  0  0  0
  140.7820   77.0040  218.5990 C   0  0  0  0  0  0  0  0  0  0  0  0
  142.1570   80.4230  219.0110 C   0  0  0  0  0  0  0  0  0  0  0  0
  141.8640   81.2220  220.0210 O   0  0  0  0  0  0  0  0  0  0  0  0
  140.2040   75.1190  221.7040 C   0  0  0  0  0  0  0  0  0  0  0  0
  139.9320   73.7600  221.7740 C   0  0  0  0  0  0  0  0  0  0  0  0
  140.8690   72.8370  221.3470 C   0  0  0  0  0  0  0  0  0  0  0  0
  142.0840   73.2850  220.8480 C   0  0  0  0  0  0  0  0  0  0  0  0
  143.0560   72.3990  220.4080 C   0  0  0  0  0  0  0  0  0  0  0  0
  144.2590   72.8780  219.9140 C   0  0  0  0  0  0  0  0  0  0  0  0
  145.4440   71.6840  219.3730 Cl  0  0  0  0  0  0  0  0  0  0  0  0
  144.5120   74.2340  219.8520 C   0  0  0  0  0  0  0  0  0  0  0  0
  143.5430   75.1250  220.2920 C   0  0  0  0  0  0  0  0  0  0  0  0
  142.3440   74.6530  220.7840 C   0  0  0  0  0  0  0  0  0  0  0  0
  141.3970   75.4950  221.2120 N   0  0  0  0  0  0  0  0  0  0  0  0
  140.2120   77.8200  221.5360 H   0  0  0  0  0  0  0  0  0  0  0  0
  137.9350   78.9140  221.5563 H   0  0  0  0  0  0  0  0  0  0  0  0
  137.6096   77.8916  223.0222 H   0  0  0  0  0  0  0  0  0  0  0  0
  141.2984   78.6655  224.4844 H   0  0  0  0  0  0  0  0  0  0  0  0
  141.7388   78.2952  222.8076 H   0  0  0  0  0  0  0  0  0  0  0  0
  143.0117   80.1771  224.6118 H   0  0  0  0  0  0  0  0  0  0  0  0
  143.4684   79.8684  222.9454 H   0  0  0  0  0  0  0  0  0  0  0  0
  141.5803   81.9825  224.0793 H   0  0  0  0  0  0  0  0  0  0  0  0
  142.6341   82.1383  222.6862 H   0  0  0  0  0  0  0  0  0  0  0  0
  140.0395   81.7883  222.1107 H   0  0  0  0  0  0  0  0  0  0  0  0
  143.8086   78.3180  217.9376 H   0  0  0  0  0  0  0  0  0  0  0  0
  144.0219   76.1794  216.6674 H   0  0  0  0  0  0  0  0  0  0  0  0
  142.1265   74.5687  216.6554 H   0  0  0  0  0  0  0  0  0  0  0  0
  140.0496   75.0990  217.8929 H   0  0  0  0  0  0  0  0  0  0  0  0
  139.8543   77.2298  219.1452 H   0  0  0  0  0  0  0  0  0  0  0  0
  142.6439   80.7187  218.0700 H   0  0  0  0  0  0  0  0  0  0  0  0
  138.9659   73.4152  222.1713 H   0  0  0  0  0  0  0  0  0  0  0  0
  140.6537   71.7597  221.4022 H   0  0  0  0  0  0  0  0  0  0  0  0
  142.8720   71.3154  220.4511 H   0  0  0  0  0  0  0  0  0  0  0  0
  145.4703   74.6038  219.4585 H   0  0  0  0  0  0  0  0  0  0  0  0
  143.7313   76.2079  220.2483 H   0  0  0  0  0  0  0  0  0  0  0  0
  1  2  2  0
  2  3  1  0
  3  4  1  0
  4  5  1  0
  5  6  2  0
  5  7  1  0
  7  8  1  0
  8  9  1  0
  9 10  1  0
 10 11  1  0
 11 12  1  0
 12 13  2  0
 13 14  1  0
 14 15  1  0
 15 16  2  0
 16 17  1  0
 17 18  2  0
 18 19  1  0
 19 20  2  0
 14 21  2  0
 21 22  1  0
  2 23  1  0
 23 24  2  0
 24 25  1  0
 25 26  2  0
 26 27  1  0
 27 28  2  0
 28 29  1  0
 28 30  1  0
 30 31  2  0
 31 32  1  0
 32 33  2  0
 11  7  1  0
 22 12  1  0
 33 23  1  0
 20 15  1  0
 32 26  1  0
  3 34  1  0
  4 35  1  0
  4 36  1  0
  8 37  1  0
  8 38  1  0
  9 39  1  0
  9 40  1  0
 10 41  1  0
 10 42  1  0
 11 43  1  6
 16 44  1  0
 17 45  1  0
 18 46  1  0
 19 47  1  0
 20 48  1  0
 21 49  1  0
 24 50  1  0
 25 51  1  0
 27 52  1  0
 30 53  1  0
 31 54  1  0
M  END
>  <smiles>  (22) 
O=C(NCC(=O)N1CCC[C@H]1c1nc(-c2ccccc2)co1)c1ccc2cc(Cl)ccc2n1

>  <score_type>  (22) 
oracle

>  <origin>  (22) 
autodockgpu

>  <m_score__min__energy>  (22) 
-9.4000000000000004

>  <m_primary>  (22) 
energy

>  <rmsd>  (22) 
6.560009487962421

>  <m_score__min__rmsd>  (22) 
6.560009487962421

>  <meeko>  (22) 
{"free_energy": -6.82, "intermolecular_energy": -8.61, "internal_energy": -4.1, "cluster_size": 9, "cluster_id": 11, "rank_in_cluster": 5}

>  <energy>  (22) 
-8.26

>  <cluster_rmsd>  (22) 
0.0

>  <cluster>  (22) 
6

$$$$

     RDKit          3D

 54 58  0  0  0  0  0  0  0  0999 V2000
  140.5900   72.6790  220.9770 O   0  0  0  0  0  0  0  0  0  0  0  0
  140.1100   72.9770  222.1240 C   0  0  0  0  0  0  0  0  0  0  0  0
  139.6020   74.2690  222.3130 N   0  0  0  0  0  0  0  0  0  0  0  0
  139.5970   75.2800  221.2720 C   0  0  0  0  0  0  0  0  0  0  0  0
  140.8960   75.9720  221.1620 C   0  0  0  0  0  0  0  0  0  0  0  0
  141.9630   75.4200  220.7880 O   0  0  0  0  0  0  0  0  0  0  0  0
  140.9360   77.3520  221.5020 N   0  0  0  0  0  0  0  0  0  0  0  0
  141.0720   78.4360  220.5220 C   0  0  0  0  0  0  0  0  0  0  0  0
  141.7020   79.5980  221.2610 C   0  0  0  0  0  0  0  0  0  0  0  0
  141.9250   79.0500  222.6740 C   0  0  0  0  0  0  0  0  0  0  0  0
  140.8590   77.9690  222.8090 C   0  0  1  0  0  0  0  0  0  0  0  0
  139.5170   78.5890  222.9750 C   0  0  0  0  0  0  0  0  0  0  0  0
  139.3260   79.6930  223.7340 N   0  0  0  0  0  0  0  0  0  0  0  0
  138.0140   80.0170  223.6920 C   0  0  0  0  0  0  0  0  0  0  0  0
  137.4710   81.1630  224.4080 C   0  0  0  0  0  0  0  0  0  0  0  0
  137.1000   82.2770  223.6860 C   0  0  0  0  0  0  0  0  0  0  0  0
  136.5720   83.4090  224.3180 C   0  0  0  0  0  0  0  0  0  0  0  0
  136.4220   83.4050  225.6890 C   0  0  0  0  0  0  0  0  0  0  0  0
  136.7910   82.2970  226.4170 C   0  0  0  0  0  0  0  0  0  0  0  0
  137.3130   81.1820  225.7730 C   0  0  0  0  0  0  0  0  0  0  0  0
  137.4220   79.0880  222.8960 C   0  0  0  0  0  0  0  0  0  0  0  0
  138.3610   78.2520  222.4890 O   0  0  0  0  0  0  0  0  0  0  0  0
  140.1010   71.9800  223.1910 C   0  0  0  0  0  0  0  0  0  0  0  0
  139.5960   70.7130  222.9330 C   0  0  0  0  0  0  0  0  0  0  0  0
  139.5770   69.7520  223.9260 C   0  0  0  0  0  0  0  0  0  0  0  0
  140.0680   70.0680  225.1860 C   0  0  0  0  0  0  0  0  0  0  0  0
  140.0700   69.1380  226.2150 C   0  0  0  0  0  0  0  0  0  0  0  0
  140.5680   69.4850  227.4610 C   0  0  0  0  0  0  0  0  0  0  0  0
  140.5350   68.2440  228.7190 Cl  0  0  0  0  0  0  0  0  0  0  0  0
  141.0660   70.7510  227.7010 C   0  0  0  0  0  0  0  0  0  0  0  0
  141.0650   71.6850  226.6740 C   0  0  0  0  0  0  0  0  0  0  0  0
  140.5720   71.3440  225.4320 C   0  0  0  0  0  0  0  0  0  0  0  0
  140.5630   72.2290  224.4300 N   0  0  0  0  0  0  0  0  0  0  0  0
  139.2070   74.5340  223.2360 H   0  0  0  0  0  0  0  0  0  0  0  0
  139.3701   74.7971  220.3101 H   0  0  0  0  0  0  0  0  0  0  0  0
  138.8354   76.0298  221.5325 H   0  0  0  0  0  0  0  0  0  0  0  0
  141.7174   78.1187  219.6897 H   0  0  0  0  0  0  0  0  0  0  0  0
  140.0974   78.7142  220.0946 H   0  0  0  0  0  0  0  0  0  0  0  0
  142.6565   79.8871  220.7970 H   0  0  0  0  0  0  0  0  0  0  0  0
  141.0757   80.5022  221.2478 H   0  0  0  0  0  0  0  0  0  0  0  0
  142.9335   78.6225  222.7752 H   0  0  0  0  0  0  0  0  0  0  0  0
  141.8498   79.8251  223.4509 H   0  0  0  0  0  0  0  0  0  0  0  0
  141.0040   77.2904  223.6625 H   0  0  0  0  0  0  0  0  0  0  0  0
  137.2211   82.2765  222.5927 H   0  0  0  0  0  0  0  0  0  0  0  0
  136.2804   84.2907  223.7285 H   0  0  0  0  0  0  0  0  0  0  0  0
  136.0078   84.2866  226.2001 H   0  0  0  0  0  0  0  0  0  0  0  0
  136.6725   82.2941  227.5106 H   0  0  0  0  0  0  0  0  0  0  0  0
  137.6041   80.3014  226.3645 H   0  0  0  0  0  0  0  0  0  0  0  0
  136.3539   79.0406  222.6372 H   0  0  0  0  0  0  0  0  0  0  0  0
  139.2085   70.4724  221.9320 H   0  0  0  0  0  0  0  0  0  0  0  0
  139.1774   68.7479  223.7206 H   0  0  0  0  0  0  0  0  0  0  0  0
  139.6765   68.1254  226.0422 H   0  0  0  0  0  0  0  0  0  0  0  0
  141.4586   71.0158  228.6939 H   0  0  0  0  0  0  0  0  0  0  0  0
  141.4575   72.6972  226.8509 H   0  0  0  0  0  0  0  0  0  0  0  0
  1  2  2  0
  2  3  1  0
  3  4  1  0
  4  5  1  0
  5  6  2  0
  5  7  1  0
  7  8  1  0
  8  9  1  0
  9 10  1  0
 10 11  1  0
 11 12  1  0
 12 13  2  0
 13 14  1  0
 14 15  1  0
 15 16  2  0
 16 17  1  0
 17 18  2  0
 18 19  1  0
 19 20  2  0
 14 21  2  0
 21 22  1  0
  2 23  1  0
 23 24  2  0
 24 25  1  0
 25 26  2  0
 26 27  1  0
 27 28  2  0
 28 29  1  0
 28 30  1  0
 30 31  2  0
 31 32  1  0
 32 33  2  0
 11  7  1  0
 22 12  1  0
 33 23  1  0
 20 15  1  0
 32 26  1  0
  3 34  1  0
  4 35  1  0
  4 36  1  0
  8 37  1  0
  8 38  1  0
  9 39  1  0
  9 40  1  0
 10 41  1  0
 10 42  1  0
 11 43  1  1
 16 44  1  0
 17 45  1  0
 18 46  1  0
 19 47  1  0
 20 48  1  0
 21 49  1  0
 24 50  1  0
 25 51  1  0
 27 52  1  0
 30 53  1  0
 31 54  1  0
M  END
>  <smiles>  (23) 
O=C(NCC(=O)N1CCC[C@H]1c1nc(-c2ccccc2)co1)c1ccc2cc(Cl)ccc2n1

>  <score_type>  (23) 
oracle

>  <origin>  (23) 
autodockgpu

>  <m_score__min__energy>  (23) 
-9.4000000000000004

>  <m_primary>  (23) 
energy

>  <rmsd>  (23) 
3.817876665118007

>  <m_score__min__rmsd>  (23) 
3.817876665118007

>  <meeko>  (23) 
{"free_energy": -9.09, "intermolecular_energy": -10.88, "internal_energy": -1.64, "cluster_size": 2, "cluster_id": 3, "rank_in_cluster": 1}

>  <energy>  (23) 
-7.3

>  <cluster_rmsd>  (23) 
0.0

>  <cluster>  (23) 
7

$$$$

     RDKit          3D

 54 58  0  0  0  0  0  0  0  0999 V2000
  140.2630   73.3520  222.1430 O   0  0  0  0  0  0  0  0  0  0  0  0
  139.4020   72.4440  222.4020 C   0  0  0  0  0  0  0  0  0  0  0  0
  138.2450   72.3850  221.6130 N   0  0  0  0  0  0  0  0  0  0  0  0
  137.9810   73.3040  220.5220 C   0  0  0  0  0  0  0  0  0  0  0  0
  136.7540   74.0940  220.7430 C   0  0  0  0  0  0  0  0  0  0  0  0
  135.6100   73.7500  220.3470 O   0  0  0  0  0  0  0  0  0  0  0  0
  136.8800   75.3210  221.4500 N   0  0  0  0  0  0  0  0  0  0  0  0
  136.4870   75.5060  222.8520 C   0  0  0  0  0  0  0  0  0  0  0  0
  136.1710   76.9780  223.0120 C   0  0  0  0  0  0  0  0  0  0  0  0
  136.3820   77.5490  221.6070 C   0  0  0  0  0  0  0  0  0  0  0  0
  137.3910   76.5920  220.9820 C   0  0  1  0  0  0  0  0  0  0  0  0
  138.7410   76.8170  221.5640 C   0  0  0  0  0  0  0  0  0  0  0  0
  139.1800   78.0520  221.9020 N   0  0  0  0  0  0  0  0  0  0  0  0
  140.4320   77.9380  222.4000 C   0  0  0  0  0  0  0  0  0  0  0  0
  141.1950   79.0890  222.8590 C   0  0  0  0  0  0  0  0  0  0  0  0
  140.5150   80.1520  223.4160 C   0  0  0  0  0  0  0  0  0  0  0  0
  141.1940   81.2870  223.8760 C   0  0  0  0  0  0  0  0  0  0  0  0
  142.5680   81.3380  223.7680 C   0  0  0  0  0  0  0  0  0  0  0  0
  143.2540   80.2820  223.2130 C   0  0  0  0  0  0  0  0  0  0  0  0
  142.5640   79.1640  222.7620 C   0  0  0  0  0  0  0  0  0  0  0  0
  140.7350   76.6140  222.3540 C   0  0  0  0  0  0  0  0  0  0  0  0
  139.6940   75.9800  221.8460 O   0  0  0  0  0  0  0  0  0  0  0  0
  139.6390   71.5030  223.4940 C   0  0  0  0  0  0  0  0  0  0  0  0
  139.3490   70.1590  223.3060 C   0  0  0  0  0  0  0  0  0  0  0  0
  139.5660   69.2480  224.3240 C   0  0  0  0  0  0  0  0  0  0  0  0
  140.0760   69.6940  225.5360 C   0  0  0  0  0  0  0  0  0  0  0  0
  140.3100   68.8190  226.5860 C   0  0  0  0  0  0  0  0  0  0  0  0
  140.8200   69.2960  227.7840 C   0  0  0  0  0  0  0  0  0  0  0  0
  141.0900   68.1180  229.0740 Cl  0  0  0  0  0  0  0  0  0  0  0  0
  141.1020   70.6370  227.9530 C   0  0  0  0  0  0  0  0  0  0  0  0
  140.8690   71.5160  226.9050 C   0  0  0  0  0  0  0  0  0  0  0  0
  140.3620   71.0470  225.7110 C   0  0  0  0  0  0  0  0  0  0  0  0
  140.1310   71.8770  224.6880 N   0  0  0  0  0  0  0  0  0  0  0  0
  137.5310   71.6560  221.8040 H   0  0  0  0  0  0  0  0  0  0  0  0
  138.8331   73.9928  220.4250 H   0  0  0  0  0  0  0  0  0  0  0  0
  137.8400   72.7102  219.6069 H   0  0  0  0  0  0  0  0  0  0  0  0
  135.5995   74.8983  223.0825 H   0  0  0  0  0  0  0  0  0  0  0  0
  137.2878   75.1914  223.5374 H   0  0  0  0  0  0  0  0  0  0  0  0
  135.1317   77.1225  223.3422 H   0  0  0  0  0  0  0  0  0  0  0  0
  136.7986   77.4689  223.7704 H   0  0  0  0  0  0  0  0  0  0  0  0
  135.4401   77.5535  221.0388 H   0  0  0  0  0  0  0  0  0  0  0  0
  136.7299   78.5925  221.6163 H   0  0  0  0  0  0  0  0  0  0  0  0
  137.4949   76.6881  219.8911 H   0  0  0  0  0  0  0  0  0  0  0  0
  139.4192   80.1073  223.5004 H   0  0  0  0  0  0  0  0  0  0  0  0
  140.6385   82.1273  224.3179 H   0  0  0  0  0  0  0  0  0  0  0  0
  143.1154   82.2226  224.1254 H   0  0  0  0  0  0  0  0  0  0  0  0
  144.3498   80.3233  223.1264 H   0  0  0  0  0  0  0  0  0  0  0  0
  143.1221   78.3253  222.3202 H   0  0  0  0  0  0  0  0  0  0  0  0
  141.6786   76.1530  222.6814 H   0  0  0  0  0  0  0  0  0  0  0  0
  138.9444   69.8163  222.3422 H   0  0  0  0  0  0  0  0  0  0  0  0
  139.3371   68.1824  224.1751 H   0  0  0  0  0  0  0  0  0  0  0  0
  140.0912   67.7474  226.4687 H   0  0  0  0  0  0  0  0  0  0  0  0
  141.5068   71.0043  228.9076 H   0  0  0  0  0  0  0  0  0  0  0  0
  141.0886   72.5870  227.0264 H   0  0  0  0  0  0  0  0  0  0  0  0
  1  2  2  0
  2  3  1  0
  3  4  1  0
  4  5  1  0
  5  6  2  0
  5  7  1  0
  7  8  1  0
  8  9  1  0
  9 10  1  0
 10 11  1  0
 11 12  1  0
 12 13  2  0
 13 14  1  0
 14 15  1  0
 15 16  2  0
 16 17  1  0
 17 18  2  0
 18 19  1  0
 19 20  2  0
 14 21  2  0
 21 22  1  0
  2 23  1  0
 23 24  2  0
 24 25  1  0
 25 26  2  0
 26 27  1  0
 27 28  2  0
 28 29  1  0
 28 30  1  0
 30 31  2  0
 31 32  1  0
 32 33  2  0
 11  7  1  0
 22 12  1  0
 33 23  1  0
 20 15  1  0
 32 26  1  0
  3 34  1  0
  4 35  1  0
  4 36  1  0
  8 37  1  0
  8 38  1  0
  9 39  1  0
  9 40  1  0
 10 41  1  0
 10 42  1  0
 11 43  1  6
 16 44  1  0
 17 45  1  0
 18 46  1  0
 19 47  1  0
 20 48  1  0
 21 49  1  0
 24 50  1  0
 25 51  1  0
 27 52  1  0
 30 53  1  0
 31 54  1  0
M  END
>  <smiles>  (24) 
O=C(NCC(=O)N1CCC[C@H]1c1nc(-c2ccccc2)co1)c1ccc2cc(Cl)ccc2n1

>  <score_type>  (24) 
oracle

>  <origin>  (24) 
autodockgpu

>  <m_score__min__energy>  (24) 
-9.4000000000000004

>  <m_primary>  (24) 
energy

>  <rmsd>  (24) 
3.512846267195243

>  <m_score__min__rmsd>  (24) 
3.512846267195243

>  <meeko>  (24) 
{"free_energy": -9.07, "intermolecular_energy": -10.86, "internal_energy": -1.83, "cluster_size": 12, "cluster_id": 2, "rank_in_cluster": 2}

>  <energy>  (24) 
-7.23

>  <cluster_rmsd>  (24) 
0.56

>  <cluster>  (24) 
7

$$$$

     RDKit          3D

 54 58  0  0  0  0  0  0  0  0999 V2000
  140.3200   74.0390  221.9080 O   0  0  0  0  0  0  0  0  0  0  0  0
  140.6270   75.2660  221.7230 C   0  0  0  0  0  0  0  0  0  0  0  0
  141.8870   75.5600  221.1860 N   0  0  0  0  0  0  0  0  0  0  0  0
  142.8560   74.5390  220.8330 C   0  0  0  0  0  0  0  0  0  0  0  0
  142.9540   74.3450  219.3730 C   0  0  0  0  0  0  0  0  0  0  0  0
  143.7090   73.5050  218.8190 O   0  0  0  0  0  0  0  0  0  0  0  0
  142.1390   75.1660  218.5450 N   0  0  0  0  0  0  0  0  0  0  0  0
  140.7400   74.8690  218.2180 C   0  0  0  0  0  0  0  0  0  0  0  0
  140.4610   75.5490  216.8940 C   0  0  0  0  0  0  0  0  0  0  0  0
  141.8040   76.1870  216.5250 C   0  0  0  0  0  0  0  0  0  0  0  0
  142.4770   76.4030  217.8760 C   0  0  1  0  0  0  0  0  0  0  0  0
  141.8350   77.5360  218.5950 C   0  0  0  0  0  0  0  0  0  0  0  0
  142.3480   78.0400  219.7420 N   0  0  0  0  0  0  0  0  0  0  0  0
  141.5520   79.0530  220.1550 C   0  0  0  0  0  0  0  0  0  0  0  0
  141.8250   79.8120  221.3670 C   0  0  0  0  0  0  0  0  0  0  0  0
  142.5430   79.2070  222.3770 C   0  0  0  0  0  0  0  0  0  0  0  0
  142.8360   79.8860  223.5660 C   0  0  0  0  0  0  0  0  0  0  0  0
  142.3970   81.1840  223.7240 C   0  0  0  0  0  0  0  0  0  0  0  0
  141.6810   81.7950  222.7210 C   0  0  0  0  0  0  0  0  0  0  0  0
  141.3980   81.1050  221.5480 C   0  0  0  0  0  0  0  0  0  0  0  0
  140.5560   79.1460  219.2360 C   0  0  0  0  0  0  0  0  0  0  0  0
  140.7650   78.2190  218.3190 O   0  0  0  0  0  0  0  0  0  0  0  0
  139.6720   76.3170  222.0690 C   0  0  0  0  0  0  0  0  0  0  0  0
  138.3510   76.1940  221.6600 C   0  0  0  0  0  0  0  0  0  0  0  0
  137.4280   77.1740  221.9750 C   0  0  0  0  0  0  0  0  0  0  0  0
  137.8370   78.2820  222.7040 C   0  0  0  0  0  0  0  0  0  0  0  0
  136.9490   79.2920  223.0440 C   0  0  0  0  0  0  0  0  0  0  0  0
  137.3880   80.3850  223.7730 C   0  0  0  0  0  0  0  0  0  0  0  0
  136.1950   81.6280  224.1660 Cl  0  0  0  0  0  0  0  0  0  0  0  0
  138.7060   80.4910  224.1710 C   0  0  0  0  0  0  0  0  0  0  0  0
  139.6000   79.4840  223.8320 C   0  0  0  0  0  0  0  0  0  0  0  0
  139.1660   78.3930  223.1070 C   0  0  0  0  0  0  0  0  0  0  0  0
  140.0100   77.4120  222.7720 N   0  0  0  0  0  0  0  0  0  0  0  0
  142.1590   76.5490  221.0270 H   0  0  0  0  0  0  0  0  0  0  0  0
  143.8421   74.8383  221.2177 H   0  0  0  0  0  0  0  0  0  0  0  0
  142.5241   73.5896  221.2785 H   0  0  0  0  0  0  0  0  0  0  0  0
  140.5921   73.7828  218.1272 H   0  0  0  0  0  0  0  0  0  0  0  0
  140.0599   75.2289  219.0041 H   0  0  0  0  0  0  0  0  0  0  0  0
  140.1525   74.8163  216.1338 H   0  0  0  0  0  0  0  0  0  0  0  0
  139.6427   76.2816  216.9545 H   0  0  0  0  0  0  0  0  0  0  0  0
  142.3994   75.5124  215.8923 H   0  0  0  0  0  0  0  0  0  0  0  0
  141.6930   77.1166  215.9475 H   0  0  0  0  0  0  0  0  0  0  0  0
  143.5515   76.6314  217.8179 H   0  0  0  0  0  0  0  0  0  0  0  0
  142.8919   78.1720  222.2462 H   0  0  0  0  0  0  0  0  0  0  0  0
  143.4089   79.3907  224.3638 H   0  0  0  0  0  0  0  0  0  0  0  0
  142.6195   81.7306  224.6523 H   0  0  0  0  0  0  0  0  0  0  0  0
  141.3321   82.8305  222.8473 H   0  0  0  0  0  0  0  0  0  0  0  0
  140.8233   81.6020  220.7525 H   0  0  0  0  0  0  0  0  0  0  0  0
  139.7238   79.8652  219.2527 H   0  0  0  0  0  0  0  0  0  0  0  0
  138.0370   75.3122  221.0823 H   0  0  0  0  0  0  0  0  0  0  0  0
  136.3812   77.0767  221.6515 H   0  0  0  0  0  0  0  0  0  0  0  0
  135.8956   79.2249  222.7345 H   0  0  0  0  0  0  0  0  0  0  0  0
  139.0438   81.3631  224.7500 H   0  0  0  0  0  0  0  0  0  0  0  0
  140.6532   79.5559  224.1411 H   0  0  0  0  0  0  0  0  0  0  0  0
  1  2  2  0
  2  3  1  0
  3  4  1  0
  4  5  1  0
  5  6  2  0
  5  7  1  0
  7  8  1  0
  8  9  1  0
  9 10  1  0
 10 11  1  0
 11 12  1  0
 12 13  2  0
 13 14  1  0
 14 15  1  0
 15 16  2  0
 16 17  1  0
 17 18  2  0
 18 19  1  0
 19 20  2  0
 14 21  2  0
 21 22  1  0
  2 23  1  0
 23 24  2  0
 24 25  1  0
 25 26  2  0
 26 27  1  0
 27 28  2  0
 28 29  1  0
 28 30  1  0
 30 31  2  0
 31 32  1  0
 32 33  2  0
 11  7  1  0
 22 12  1  0
 33 23  1  0
 20 15  1  0
 32 26  1  0
  3 34  1  0
  4 35  1  0
  4 36  1  0
  8 37  1  0
  8 38  1  0
  9 39  1  0
  9 40  1  0
 10 41  1  0
 10 42  1  0
 11 43  1  6
 16 44  1  0
 17 45  1  0
 18 46  1  0
 19 47  1  0
 20 48  1  0
 21 49  1  0
 24 50  1  0
 25 51  1  0
 27 52  1  0
 30 53  1  0
 31 54  1  0
M  END
>  <smiles>  (25) 
O=C(NCC(=O)N1CCC[C@H]1c1nc(-c2ccccc2)co1)c1ccc2cc(Cl)ccc2n1

>  <score_type>  (25) 
oracle

>  <origin>  (25) 
autodockgpu

>  <m_score__min__energy>  (25) 
-9.4000000000000004

>  <m_primary>  (25) 
energy

>  <rmsd>  (25) 
6.106754590532218

>  <m_score__min__rmsd>  (25) 
6.106754590532218

>  <meeko>  (25) 
{"free_energy": -6.78, "intermolecular_energy": -8.57, "internal_energy": -4.24, "cluster_size": 9, "cluster_id": 12, "rank_in_cluster": 4}

>  <energy>  (25) 
-7.24

>  <cluster_rmsd>  (25) 
0.0

>  <cluster>  (25) 
8

$$$$

     RDKit          3D

 54 58  0  0  0  0  0  0  0  0999 V2000
  140.0860   74.4230  221.9370 O   0  0  0  0  0  0  0  0  0  0  0  0
  140.5390   75.5740  221.6150 C   0  0  0  0  0  0  0  0  0  0  0  0
  141.8240   75.6490  221.0620 N   0  0  0  0  0  0  0  0  0  0  0  0
  142.6620   74.4850  220.8410 C   0  0  0  0  0  0  0  0  0  0  0  0
  143.0740   74.3560  219.4300 C   0  0  0  0  0  0  0  0  0  0  0  0
  143.9640   73.5660  219.0220 O   0  0  0  0  0  0  0  0  0  0  0  0
  142.4180   75.1810  218.4750 N   0  0  0  0  0  0  0  0  0  0  0  0
  141.0510   74.9520  217.9940 C   0  0  0  0  0  0  0  0  0  0  0  0
  140.9750   75.5800  216.6180 C   0  0  0  0  0  0  0  0  0  0  0  0
  142.3910   76.1160  216.3870 C   0  0  0  0  0  0  0  0  0  0  0  0
  142.9130   76.3600  217.7990 C   0  0  1  0  0  0  0  0  0  0  0  0
  142.2670   77.5640  218.3850 C   0  0  0  0  0  0  0  0  0  0  0  0
  142.5650   78.0030  219.6310 N   0  0  0  0  0  0  0  0  0  0  0  0
  141.8250   79.1060  219.8810 C   0  0  0  0  0  0  0  0  0  0  0  0
  141.9060   79.8280  221.1430 C   0  0  0  0  0  0  0  0  0  0  0  0
  141.3390   81.0820  221.2240 C   0  0  0  0  0  0  0  0  0  0  0  0
  141.3850   81.8240  222.4100 C   0  0  0  0  0  0  0  0  0  0  0  0
  142.0100   81.2860  223.5160 C   0  0  0  0  0  0  0  0  0  0  0  0
  142.5780   80.0350  223.4440 C   0  0  0  0  0  0  0  0  0  0  0  0
  142.5230   79.3130  222.2580 C   0  0  0  0  0  0  0  0  0  0  0  0
  141.0800   79.3210  218.7660 C   0  0  0  0  0  0  0  0  0  0  0  0
  141.3770   78.3730  217.8950 O   0  0  0  0  0  0  0  0  0  0  0  0
  139.7180   76.7640  221.8240 C   0  0  0  0  0  0  0  0  0  0  0  0
  138.7040   77.0570  220.9230 C   0  0  0  0  0  0  0  0  0  0  0  0
  137.9130   78.1770  221.1000 C   0  0  0  0  0  0  0  0  0  0  0  0
  138.1450   79.0060  222.1880 C   0  0  0  0  0  0  0  0  0  0  0  0
  137.3790   80.1410  222.4080 C   0  0  0  0  0  0  0  0  0  0  0  0
  137.6360   80.9490  223.5050 C   0  0  0  0  0  0  0  0  0  0  0  0
  136.6150   82.3770  223.7150 Cl  0  0  0  0  0  0  0  0  0  0  0  0
  138.6490   80.6430  224.3920 C   0  0  0  0  0  0  0  0  0  0  0  0
  139.4190   79.5080  224.1760 C   0  0  0  0  0  0  0  0  0  0  0  0
  139.1670   78.7020  223.0860 C   0  0  0  0  0  0  0  0  0  0  0  0
  139.8960   77.6040  222.8600 N   0  0  0  0  0  0  0  0  0  0  0  0
  142.2120   76.5730  220.7920 H   0  0  0  0  0  0  0  0  0  0  0  0
  143.5625   74.5726  221.4666 H   0  0  0  0  0  0  0  0  0  0  0  0
  142.0769   73.5919  221.1055 H   0  0  0  0  0  0  0  0  0  0  0  0
  140.8443   73.8733  217.9325 H   0  0  0  0  0  0  0  0  0  0  0  0
  140.3079   75.3910  218.6760 H   0  0  0  0  0  0  0  0  0  0  0  0
  140.7104   74.8299  215.8582 H   0  0  0  0  0  0  0  0  0  0  0  0
  140.2054   76.3627  216.5477 H   0  0  0  0  0  0  0  0  0  0  0  0
  143.0111   75.3752  215.8610 H   0  0  0  0  0  0  0  0  0  0  0  0
  142.4105   77.0199  215.7605 H   0  0  0  0  0  0  0  0  0  0  0  0
  143.9994   76.5205  217.8615 H   0  0  0  0  0  0  0  0  0  0  0  0
  140.8412   81.5074  220.3401 H   0  0  0  0  0  0  0  0  0  0  0  0
  140.9285   82.8236  222.4596 H   0  0  0  0  0  0  0  0  0  0  0  0
  142.0542   81.8571  224.4551 H   0  0  0  0  0  0  0  0  0  0  0  0
  143.0761   79.6060  224.3260 H   0  0  0  0  0  0  0  0  0  0  0  0
  142.9804   78.3137  222.2108 H   0  0  0  0  0  0  0  0  0  0  0  0
  140.3588   80.1378  218.6152 H   0  0  0  0  0  0  0  0  0  0  0  0
  138.5285   76.3942  220.0629 H   0  0  0  0  0  0  0  0  0  0  0  0
  137.1087   78.4083  220.3862 H   0  0  0  0  0  0  0  0  0  0  0  0
  136.5675   80.4002  221.7121 H   0  0  0  0  0  0  0  0  0  0  0  0
  138.8437   81.2908  225.2595 H   0  0  0  0  0  0  0  0  0  0  0  0
  140.2296   79.2519  224.8741 H   0  0  0  0  0  0  0  0  0  0  0  0
  1  2  2  0
  2  3  1  0
  3  4  1  0
  4  5  1  0
  5  6  2  0
  5  7  1  0
  7  8  1  0
  8  9  1  0
  9 10  1  0
 10 11  1  0
 11 12  1  0
 12 13  2  0
 13 14  1  0
 14 15  1  0
 15 16  2  0
 16 17  1  0
 17 18  2  0
 18 19  1  0
 19 20  2  0
 14 21  2  0
 21 22  1  0
  2 23  1  0
 23 24  2  0
 24 25  1  0
 25 26  2  0
 26 27  1  0
 27 28  2  0
 28 29  1  0
 28 30  1  0
 30 31  2  0
 31 32  1  0
 32 33  2  0
 11  7  1  0
 22 12  1  0
 33 23  1  0
 20 15  1  0
 32 26  1  0
  3 34  1  0
  4 35  1  0
  4 36  1  0
  8 37  1  0
  8 38  1  0
  9 39  1  0
  9 40  1  0
 10 41  1  0
 10 42  1  0
 11 43  1  6
 16 44  1  0
 17 45  1  0
 18 46  1  0
 19 47  1  0
 20 48  1  0
 21 49  1  0
 24 50  1  0
 25 51  1  0
 27 52  1  0
 30 53  1  0
 31 54  1  0
M  END
>  <smiles>  (26) 
O=C(NCC(=O)N1CCC[C@H]1c1nc(-c2ccccc2)co1)c1ccc2cc(Cl)ccc2n1

>  <score_type>  (26) 
oracle

>  <origin>  (26) 
autodockgpu

>  <m_score__min__energy>  (26) 
-9.4000000000000004

>  <m_primary>  (26) 
energy

>  <rmsd>  (26) 
6.420548533752312

>  <m_score__min__rmsd>  (26) 
6.420548533752312

>  <meeko>  (26) 
{"free_energy": -6.44, "intermolecular_energy": -8.23, "internal_energy": -4.47, "cluster_size": 9, "cluster_id": 12, "rank_in_cluster": 6}

>  <energy>  (26) 
-7.17

>  <cluster_rmsd>  (26) 
0.0

>  <cluster>  (26) 
9

$$$$

     RDKit          3D

 54 58  0  0  0  0  0  0  0  0999 V2000
  143.7270   75.3940  217.7570 O   0  0  0  0  0  0  0  0  0  0  0  0
  143.4130   76.2900  218.6120 C   0  0  0  0  0  0  0  0  0  0  0  0
  143.5980   76.0030  219.9710 N   0  0  0  0  0  0  0  0  0  0  0  0
  144.1270   74.7400  220.4490 C   0  0  0  0  0  0  0  0  0  0  0  0
  143.2910   73.5950  220.0390 C   0  0  0  0  0  0  0  0  0  0  0  0
  143.7090   72.6180  219.3650 O   0  0  0  0  0  0  0  0  0  0  0  0
  141.9250   73.6040  220.4350 N   0  0  0  0  0  0  0  0  0  0  0  0
  141.3510   72.6850  221.4250 C   0  0  0  0  0  0  0  0  0  0  0  0
  139.8770   72.5730  221.0950 C   0  0  0  0  0  0  0  0  0  0  0  0
  139.7180   73.4530  219.8520 C   0  0  0  0  0  0  0  0  0  0  0  0
  140.8520   74.4630  219.9830 C   0  0  1  0  0  0  0  0  0  0  0  0
  140.5400   75.4520  221.0490 C   0  0  0  0  0  0  0  0  0  0  0  0
  141.2390   76.6030  221.1860 N   0  0  0  0  0  0  0  0  0  0  0  0
  140.7270   77.2900  222.2330 C   0  0  0  0  0  0  0  0  0  0  0  0
  141.2560   78.5800  222.6510 C   0  0  0  0  0  0  0  0  0  0  0  0
  140.4460   79.4190  223.3860 C   0  0  0  0  0  0  0  0  0  0  0  0
  140.8990   80.6720  223.8170 C   0  0  0  0  0  0  0  0  0  0  0  0
  142.1820   81.0690  223.4990 C   0  0  0  0  0  0  0  0  0  0  0  0
  142.9970   80.2370  222.7660 C   0  0  0  0  0  0  0  0  0  0  0  0
  142.5300   78.9980  222.3460 C   0  0  0  0  0  0  0  0  0  0  0  0
  139.7100   76.5310  222.7190 C   0  0  0  0  0  0  0  0  0  0  0  0
  139.6340   75.4390  221.9800 O   0  0  0  0  0  0  0  0  0  0  0  0
  142.8780   77.5720  218.1610 C   0  0  0  0  0  0  0  0  0  0  0  0
  142.6690   77.7810  216.8040 C   0  0  0  0  0  0  0  0  0  0  0  0
  142.1640   78.9850  216.3520 C   0  0  0  0  0  0  0  0  0  0  0  0
  141.8670   79.9840  217.2690 C   0  0  0  0  0  0  0  0  0  0  0  0
  141.3580   81.2090  216.8640 C   0  0  0  0  0  0  0  0  0  0  0  0
  141.0720   82.1860  217.8050 C   0  0  0  0  0  0  0  0  0  0  0  0
  140.4260   83.7190  217.2080 Cl  0  0  0  0  0  0  0  0  0  0  0  0
  141.2850   81.9620  219.1500 C   0  0  0  0  0  0  0  0  0  0  0  0
  141.7950   80.7370  219.5610 C   0  0  0  0  0  0  0  0  0  0  0  0
  142.0810   79.7620  218.6280 C   0  0  0  0  0  0  0  0  0  0  0  0
  142.5720   78.5760  219.0020 N   0  0  0  0  0  0  0  0  0  0  0  0
  143.3510   76.7160  220.6840 H   0  0  0  0  0  0  0  0  0  0  0  0
  145.1397   74.6031  220.0418 H   0  0  0  0  0  0  0  0  0  0  0  0
  144.1389   74.7731  221.5484 H   0  0  0  0  0  0  0  0  0  0  0  0
  141.8333   71.6989  221.3543 H   0  0  0  0  0  0  0  0  0  0  0  0
  141.5048   73.0537  222.4499 H   0  0  0  0  0  0  0  0  0  0  0  0
  139.6017   71.5307  220.8761 H   0  0  0  0  0  0  0  0  0  0  0  0
  139.2281   72.8863  221.9261 H   0  0  0  0  0  0  0  0  0  0  0  0
  139.8255   72.8582  218.9329 H   0  0  0  0  0  0  0  0  0  0  0  0
  138.7276   73.9272  219.7869 H   0  0  0  0  0  0  0  0  0  0  0  0
  141.0580   75.0369  219.0675 H   0  0  0  0  0  0  0  0  0  0  0  0
  139.4246   79.0982  223.6387 H   0  0  0  0  0  0  0  0  0  0  0  0
  140.2407   81.3314  224.4016 H   0  0  0  0  0  0  0  0  0  0  0  0
  142.5529   82.0499  223.8312 H   0  0  0  0  0  0  0  0  0  0  0  0
  144.0195   80.5535  222.5124 H   0  0  0  0  0  0  0  0  0  0  0  0
  143.1897   78.3410  221.7602 H   0  0  0  0  0  0  0  0  0  0  0  0
  139.0655   76.7812  223.5746 H   0  0  0  0  0  0  0  0  0  0  0  0
  142.9069   76.9833  216.0849 H   0  0  0  0  0  0  0  0  0  0  0  0
  141.9991   79.1502  215.2771 H   0  0  0  0  0  0  0  0  0  0  0  0
  141.1813   81.4053  215.7962 H   0  0  0  0  0  0  0  0  0  0  0  0
  141.0537   82.7443  219.8879 H   0  0  0  0  0  0  0  0  0  0  0  0
  141.9707   80.5446  220.6297 H   0  0  0  0  0  0  0  0  0  0  0  0
  1  2  2  0
  2  3  1  0
  3  4  1  0
  4  5  1  0
  5  6  2  0
  5  7  1  0
  7  8  1  0
  8  9  1  0
  9 10  1  0
 10 11  1  0
 11 12  1  0
 12 13  2  0
 13 14  1  0
 14 15  1  0
 15 16  2  0
 16 17  1  0
 17 18  2  0
 18 19  1  0
 19 20  2  0
 14 21  2  0
 21 22  1  0
  2 23  1  0
 23 24  2  0
 24 25  1  0
 25 26  2  0
 26 27  1  0
 27 28  2  0
 28 29  1  0
 28 30  1  0
 30 31  2  0
 31 32  1  0
 32 33  2  0
 11  7  1  0
 22 12  1  0
 33 23  1  0
 20 15  1  0
 32 26  1  0
  3 34  1  0
  4 35  1  0
  4 36  1  0
  8 37  1  0
  8 38  1  0
  9 39  1  0
  9 40  1  0
 10 41  1  0
 10 42  1  0
 11 43  1  6
 16 44  1  0
 17 45  1  0
 18 46  1  0
 19 47  1  0
 20 48  1  0
 21 49  1  0
 24 50  1  0
 25 51  1  0
 27 52  1  0
 30 53  1  0
 31 54  1  0
M  END
>  <smiles>  (27) 
O=C(NCC(=O)N1CCC[C@H]1c1nc(-c2ccccc2)co1)c1ccc2cc(Cl)ccc2n1

>  <score_type>  (27) 
oracle

>  <origin>  (27) 
autodockgpu

>  <m_score__min__energy>  (27) 
-9.4000000000000004

>  <m_primary>  (27) 
energy

>  <rmsd>  (27) 
8.365917213895889

>  <m_score__min__rmsd>  (27) 
8.365917213895889

>  <meeko>  (27) 
{"free_energy": -6.79, "intermolecular_energy": -8.58, "internal_energy": -3.71, "cluster_size": 2, "cluster_id": 13, "rank_in_cluster": 1}

>  <energy>  (27) 
-7.0

>  <cluster_rmsd>  (27) 
0.0

>  <cluster>  (27) 
10

$$$$

     RDKit          3D

 54 58  0  0  0  0  0  0  0  0999 V2000
  137.8160   70.6570  221.2690 O   0  0  0  0  0  0  0  0  0  0  0  0
  137.9650   71.2410  222.3960 C   0  0  0  0  0  0  0  0  0  0  0  0
  137.5750   72.5830  222.5030 N   0  0  0  0  0  0  0  0  0  0  0  0
  137.0130   73.3360  221.3970 C   0  0  0  0  0  0  0  0  0  0  0  0
  137.9580   73.4580  220.2700 C   0  0  0  0  0  0  0  0  0  0  0  0
  137.6170   73.4870  219.0600 O   0  0  0  0  0  0  0  0  0  0  0  0
  139.3430   73.5480  220.5810 N   0  0  0  0  0  0  0  0  0  0  0  0
  140.4160   73.1000  219.6860 C   0  0  0  0  0  0  0  0  0  0  0  0
  141.5970   72.7670  220.5740 C   0  0  0  0  0  0  0  0  0  0  0  0
  141.0700   73.0290  221.9880 C   0  0  0  0  0  0  0  0  0  0  0  0
  139.9760   74.0680  221.7740 C   0  0  1  0  0  0  0  0  0  0  0  0
  140.5780   75.3930  221.4670 C   0  0  0  0  0  0  0  0  0  0  0  0
  140.5610   76.4120  222.3580 N   0  0  0  0  0  0  0  0  0  0  0  0
  141.1780   77.4770  221.7990 C   0  0  0  0  0  0  0  0  0  0  0  0
  141.3300   78.7440  222.4990 C   0  0  0  0  0  0  0  0  0  0  0  0
  142.5460   79.3910  222.4360 C   0  0  0  0  0  0  0  0  0  0  0  0
  142.7530   80.6130  223.0880 C   0  0  0  0  0  0  0  0  0  0  0  0
  141.7180   81.1760  223.8040 C   0  0  0  0  0  0  0  0  0  0  0  0
  140.5010   80.5370  223.8720 C   0  0  0  0  0  0  0  0  0  0  0  0
  140.3140   79.3250  223.2190 C   0  0  0  0  0  0  0  0  0  0  0  0
  141.5640   77.0790  220.5580 C   0  0  0  0  0  0  0  0  0  0  0  0
  141.1840   75.8240  220.4020 O   0  0  0  0  0  0  0  0  0  0  0  0
  138.5270   70.5080  223.5280 C   0  0  0  0  0  0  0  0  0  0  0  0
  138.4020   69.1270  223.5710 C   0  0  0  0  0  0  0  0  0  0  0  0
  138.9260   68.4100  224.6310 C   0  0  0  0  0  0  0  0  0  0  0  0
  139.5790   69.0880  225.6520 C   0  0  0  0  0  0  0  0  0  0  0  0
  140.1220   68.4140  226.7360 C   0  0  0  0  0  0  0  0  0  0  0  0
  140.7680   69.1200  227.7380 C   0  0  0  0  0  0  0  0  0  0  0  0
  141.4310   68.1890  229.0850 Cl  0  0  0  0  0  0  0  0  0  0  0  0
  140.8830   70.4950  227.6780 C   0  0  0  0  0  0  0  0  0  0  0  0
  140.3410   71.1750  226.5960 C   0  0  0  0  0  0  0  0  0  0  0  0
  139.6980   70.4760  225.5960 C   0  0  0  0  0  0  0  0  0  0  0  0
  139.1700   71.1110  224.5440 N   0  0  0  0  0  0  0  0  0  0  0  0
  137.6860   73.0780  223.4080 H   0  0  0  0  0  0  0  0  0  0  0  0
  136.1053   72.8242  221.0447 H   0  0  0  0  0  0  0  0  0  0  0  0
  136.7855   74.3495  221.7589 H   0  0  0  0  0  0  0  0  0  0  0  0
  140.0975   72.2088  219.1254 H   0  0  0  0  0  0  0  0  0  0  0  0
  140.6743   73.8762  218.9506 H   0  0  0  0  0  0  0  0  0  0  0  0
  141.8939   71.7146  220.4543 H   0  0  0  0  0  0  0  0  0  0  0  0
  142.4920   73.3601  220.3349 H   0  0  0  0  0  0  0  0  0  0  0  0
  140.6581   72.1100  222.4305 H   0  0  0  0  0  0  0  0  0  0  0  0
  141.8538   73.3691  222.6808 H   0  0  0  0  0  0  0  0  0  0  0  0
  139.3110   74.2139  222.6380 H   0  0  0  0  0  0  0  0  0  0  0  0
  143.3689   78.9389  221.8629 H   0  0  0  0  0  0  0  0  0  0  0  0
  143.7289   81.1172  223.0296 H   0  0  0  0  0  0  0  0  0  0  0  0
  141.8649   82.1358  224.3209 H   0  0  0  0  0  0  0  0  0  0  0  0
  139.6756   80.9862  224.4438 H   0  0  0  0  0  0  0  0  0  0  0  0
  139.3373   78.8226  223.2793 H   0  0  0  0  0  0  0  0  0  0  0  0
  142.0972   77.6923  219.8167 H   0  0  0  0  0  0  0  0  0  0  0  0
  137.8831   68.5993  222.7572 H   0  0  0  0  0  0  0  0  0  0  0  0
  138.8267   67.3150  224.6651 H   0  0  0  0  0  0  0  0  0  0  0  0
  140.0397   67.3190  226.8001 H   0  0  0  0  0  0  0  0  0  0  0  0
  141.3985   71.0453  228.4789 H   0  0  0  0  0  0  0  0  0  0  0  0
  140.4243   72.2702  226.5362 H   0  0  0  0  0  0  0  0  0  0  0  0
  1  2  2  0
  2  3  1  0
  3  4  1  0
  4  5  1  0
  5  6  2  0
  5  7  1  0
  7  8  1  0
  8  9  1  0
  9 10  1  0
 10 11  1  0
 11 12  1  0
 12 13  2  0
 13 14  1  0
 14 15  1  0
 15 16  2  0
 16 17  1  0
 17 18  2  0
 18 19  1  0
 19 20  2  0
 14 21  2  0
 21 22  1  0
  2 23  1  0
 23 24  2  0
 24 25  1  0
 25 26  2  0
 26 27  1  0
 27 28  2  0
 28 29  1  0
 28 30  1  0
 30 31  2  0
 31 32  1  0
 32 33  2  0
 11  7  1  0
 22 12  1  0
 33 23  1  0
 20 15  1  0
 32 26  1  0
  3 34  1  0
  4 35  1  0
  4 36  1  0
  8 37  1  0
  8 38  1  0
  9 39  1  0
  9 40  1  0
 10 41  1  0
 10 42  1  0
 11 43  1  1
 16 44  1  0
 17 45  1  0
 18 46  1  0
 19 47  1  0
 20 48  1  0
 21 49  1  0
 24 50  1  0
 25 51  1  0
 27 52  1  0
 30 53  1  0
 31 54  1  0
M  END
>  <smiles>  (28) 
O=C(NCC(=O)N1CCC[C@H]1c1nc(-c2ccccc2)co1)c1ccc2cc(Cl)ccc2n1

>  <score_type>  (28) 
oracle

>  <origin>  (28) 
autodockgpu

>  <m_score__min__energy>  (28) 
-9.4000000000000004

>  <m_primary>  (28) 
energy

>  <rmsd>  (28) 
3.198855864267498

>  <m_score__min__rmsd>  (28) 
3.198855864267498

>  <meeko>  (28) 
{"free_energy": -8.76, "intermolecular_energy": -10.55, "internal_energy": -2.09, "cluster_size": 12, "cluster_id": 2, "rank_in_cluster": 6}

>  <energy>  (28) 
-6.88

>  <cluster_rmsd>  (28) 
0.0

>  <cluster>  (28) 
11

$$$$

     RDKit          3D

 54 58  0  0  0  0  0  0  0  0999 V2000
  135.6740   76.3180  223.0510 O   0  0  0  0  0  0  0  0  0  0  0  0
  136.3720   75.2550  223.1780 C   0  0  0  0  0  0  0  0  0  0  0  0
  137.6970   75.2750  222.7210 N   0  0  0  0  0  0  0  0  0  0  0  0
  138.3080   76.4410  222.1120 C   0  0  0  0  0  0  0  0  0  0  0  0
  139.7820   76.3520  222.0950 C   0  0  0  0  0  0  0  0  0  0  0  0
  140.5460   77.1400  222.7100 O   0  0  0  0  0  0  0  0  0  0  0  0
  140.3680   75.3060  221.3310 N   0  0  0  0  0  0  0  0  0  0  0  0
  141.8140   75.1360  221.1450 C   0  0  0  0  0  0  0  0  0  0  0  0
  141.9870   74.3880  219.8400 C   0  0  0  0  0  0  0  0  0  0  0  0
  140.5530   74.2110  219.3310 C   0  0  0  0  0  0  0  0  0  0  0  0
  139.7190   74.2350  220.6060 C   0  0  1  0  0  0  0  0  0  0  0  0
  139.8910   72.9640  221.3590 C   0  0  0  0  0  0  0  0  0  0  0  0
  139.8850   72.9250  222.7120 N   0  0  0  0  0  0  0  0  0  0  0  0
  140.0630   71.6420  223.1020 C   0  0  0  0  0  0  0  0  0  0  0  0
  140.1060   71.2540  224.5040 C   0  0  0  0  0  0  0  0  0  0  0  0
  139.2880   70.2290  224.9310 C   0  0  0  0  0  0  0  0  0  0  0  0
  139.2850   69.8110  226.2670 C   0  0  0  0  0  0  0  0  0  0  0  0
  140.1190   70.4390  227.1690 C   0  0  0  0  0  0  0  0  0  0  0  0
  140.9380   71.4620  226.7520 C   0  0  0  0  0  0  0  0  0  0  0  0
  140.9270   71.8640  225.4220 C   0  0  0  0  0  0  0  0  0  0  0  0
  140.1760   70.9140  221.9600 C   0  0  0  0  0  0  0  0  0  0  0  0
  140.0670   71.7470  220.9400 O   0  0  0  0  0  0  0  0  0  0  0  0
  135.7850   74.0640  223.7870 C   0  0  0  0  0  0  0  0  0  0  0  0
  134.7410   74.2090  224.6910 C   0  0  0  0  0  0  0  0  0  0  0  0
  134.1670   73.0990  225.2810 C   0  0  0  0  0  0  0  0  0  0  0  0
  134.6460   71.8360  224.9590 C   0  0  0  0  0  0  0  0  0  0  0  0
  134.1040   70.6910  225.5240 C   0  0  0  0  0  0  0  0  0  0  0  0
  134.6040   69.4460  225.1820 C   0  0  0  0  0  0  0  0  0  0  0  0
  133.8590   68.0360  225.9460 Cl  0  0  0  0  0  0  0  0  0  0  0  0
  135.6430   69.3190  224.2810 C   0  0  0  0  0  0  0  0  0  0  0  0
  136.1900   70.4620  223.7130 C   0  0  0  0  0  0  0  0  0  0  0  0
  135.6950   71.7040  224.0500 C   0  0  0  0  0  0  0  0  0  0  0  0
  136.2070   72.8170  223.5140 N   0  0  0  0  0  0  0  0  0  0  0  0
  138.2830   74.4230  222.8130 H   0  0  0  0  0  0  0  0  0  0  0  0
  137.9463   76.5310  221.0771 H   0  0  0  0  0  0  0  0  0  0  0  0
  138.0291   77.3207  222.7107 H   0  0  0  0  0  0  0  0  0  0  0  0
  142.3094   76.1166  221.0910 H   0  0  0  0  0  0  0  0  0  0  0  0
  142.2643   74.5864  221.9848 H   0  0  0  0  0  0  0  0  0  0  0  0
  142.5865   74.9744  219.1281 H   0  0  0  0  0  0  0  0  0  0  0  0
  142.5170   73.4320  219.9632 H   0  0  0  0  0  0  0  0  0  0  0  0
  140.2693   75.0350  218.6597 H   0  0  0  0  0  0  0  0  0  0  0  0
  140.4161   73.2895  218.7461 H   0  0  0  0  0  0  0  0  0  0  0  0
  138.6389   74.3615  220.4403 H   0  0  0  0  0  0  0  0  0  0  0  0
  138.6254   69.7305  224.2081 H   0  0  0  0  0  0  0  0  0  0  0  0
  138.6264   68.9926  226.5934 H   0  0  0  0  0  0  0  0  0  0  0  0
  140.1288   70.1213  228.2221 H   0  0  0  0  0  0  0  0  0  0  0  0
  141.6023   71.9624  227.4719 H   0  0  0  0  0  0  0  0  0  0  0  0
  141.5858   72.6834  225.0987 H   0  0  0  0  0  0  0  0  0  0  0  0
  140.3304   69.8268  221.8962 H   0  0  0  0  0  0  0  0  0  0  0  0
  134.3685   75.2138  224.9390 H   0  0  0  0  0  0  0  0  0  0  0  0
  133.3403   73.2146  225.9974 H   0  0  0  0  0  0  0  0  0  0  0  0
  133.2765   70.7722  226.2442 H   0  0  0  0  0  0  0  0  0  0  0  0
  136.0324   68.3248  224.0166 H   0  0  0  0  0  0  0  0  0  0  0  0
  137.0182   70.3766  222.9942 H   0  0  0  0  0  0  0  0  0  0  0  0
  1  2  2  0
  2  3  1  0
  3  4  1  0
  4  5  1  0
  5  6  2  0
  5  7  1  0
  7  8  1  0
  8  9  1  0
  9 10  1  0
 10 11  1  0
 11 12  1  0
 12 13  2  0
 13 14  1  0
 14 15  1  0
 15 16  2  0
 16 17  1  0
 17 18  2  0
 18 19  1  0
 19 20  2  0
 14 21  2  0
 21 22  1  0
  2 23  1  0
 23 24  2  0
 24 25  1  0
 25 26  2  0
 26 27  1  0
 27 28  2  0
 28 29  1  0
 28 30  1  0
 30 31  2  0
 31 32  1  0
 32 33  2  0
 11  7  1  0
 22 12  1  0
 33 23  1  0
 20 15  1  0
 32 26  1  0
  3 34  1  0
  4 35  1  0
  4 36  1  0
  8 37  1  0
  8 38  1  0
  9 39  1  0
  9 40  1  0
 10 41  1  0
 10 42  1  0
 11 43  1  6
 16 44  1  0
 17 45  1  0
 18 46  1  0
 19 47  1  0
 20 48  1  0
 21 49  1  0
 24 50  1  0
 25 51  1  0
 27 52  1  0
 30 53  1  0
 31 54  1  0
M  END
>  <smiles>  (29) 
O=C(NCC(=O)N1CCC[C@H]1c1nc(-c2ccccc2)co1)c1ccc2cc(Cl)ccc2n1

>  <score_type>  (29) 
oracle

>  <origin>  (29) 
autodockgpu

>  <m_score__min__energy>  (29) 
-9.4000000000000004

>  <m_primary>  (29) 
energy

>  <rmsd>  (29) 
7.230894616180654

>  <m_score__min__rmsd>  (29) 
7.230894616180654

>  <meeko>  (29) 
{"free_energy": -7.17, "intermolecular_energy": -8.95, "internal_energy": -3.42, "cluster_size": 1, "cluster_id": 9, "rank_in_cluster": 1}

>  <energy>  (29) 
-6.87

>  <cluster_rmsd>  (29) 
0.08

>  <cluster>  (29) 
11

$$$$

     RDKit          3D

 54 58  0  0  0  0  0  0  0  0999 V2000
  138.1970   76.0040  223.0870 O   0  0  0  0  0  0  0  0  0  0  0  0
  139.1680   76.3730  222.3430 C   0  0  0  0  0  0  0  0  0  0  0  0
  139.2850   77.7350  222.0330 N   0  0  0  0  0  0  0  0  0  0  0  0
  138.3580   78.7410  222.5170 C   0  0  0  0  0  0  0  0  0  0  0  0
  138.9950   79.6780  223.4620 C   0  0  0  0  0  0  0  0  0  0  0  0
  138.4260   80.1560  224.4780 O   0  0  0  0  0  0  0  0  0  0  0  0
  140.3400   80.0600  223.2020 N   0  0  0  0  0  0  0  0  0  0  0  0
  141.5120   79.2930  223.6410 C   0  0  0  0  0  0  0  0  0  0  0  0
  142.6500   80.2860  223.7530 C   0  0  0  0  0  0  0  0  0  0  0  0
  142.0000   81.6240  223.3880 C   0  0  0  0  0  0  0  0  0  0  0  0
  140.8350   81.2200  222.4920 C   0  0  1  0  0  0  0  0  0  0  0  0
  141.3350   80.7960  221.1570 C   0  0  0  0  0  0  0  0  0  0  0  0
  141.2530   79.5120  220.7360 N   0  0  0  0  0  0  0  0  0  0  0  0
  141.7850   79.4370  219.4940 C   0  0  0  0  0  0  0  0  0  0  0  0
  141.8520   78.1870  218.7510 C   0  0  0  0  0  0  0  0  0  0  0  0
  140.7630   77.3420  218.7800 C   0  0  0  0  0  0  0  0  0  0  0  0
  140.7690   76.1270  218.0860 C   0  0  0  0  0  0  0  0  0  0  0  0
  141.8870   75.7730  217.3590 C   0  0  0  0  0  0  0  0  0  0  0  0
  142.9780   76.6110  217.3250 C   0  0  0  0  0  0  0  0  0  0  0  0
  142.9550   77.8130  218.0210 C   0  0  0  0  0  0  0  0  0  0  0  0
  142.1860   80.6970  219.1810 C   0  0  0  0  0  0  0  0  0  0  0  0
  141.8970   81.4780  220.2060 O   0  0  0  0  0  0  0  0  0  0  0  0
  140.1190   75.3840  221.8410 C   0  0  0  0  0  0  0  0  0  0  0  0
  139.7890   74.0370  221.8980 C   0  0  0  0  0  0  0  0  0  0  0  0
  140.6710   73.0810  221.4290 C   0  0  0  0  0  0  0  0  0  0  0  0
  141.8910   73.4840  220.9020 C   0  0  0  0  0  0  0  0  0  0  0  0
  142.8090   72.5630  220.4190 C   0  0  0  0  0  0  0  0  0  0  0  0
  144.0170   72.9970  219.8980 C   0  0  0  0  0  0  0  0  0  0  0  0
  145.1330   71.7610  219.3040 Cl  0  0  0  0  0  0  0  0  0  0  0  0
  144.3290   74.3410  219.8500 C   0  0  0  0  0  0  0  0  0  0  0  0
  143.4140   75.2670  220.3320 C   0  0  0  0  0  0  0  0  0  0  0  0
  142.2100   74.8390  220.8510 C   0  0  0  0  0  0  0  0  0  0  0  0
  141.3140   75.7150  221.3200 N   0  0  0  0  0  0  0  0  0  0  0  0
  140.0660   78.0580  221.4310 H   0  0  0  0  0  0  0  0  0  0  0  0
  137.9736   79.3108  221.6582 H   0  0  0  0  0  0  0  0  0  0  0  0
  137.5467   78.2237  223.0500 H   0  0  0  0  0  0  0  0  0  0  0  0
  141.3173   78.8247  224.6171 H   0  0  0  0  0  0  0  0  0  0  0  0
  141.7519   78.4871  222.9318 H   0  0  0  0  0  0  0  0  0  0  0  0
  143.0500   80.3105  224.7774 H   0  0  0  0  0  0  0  0  0  0  0  0
  143.5016   80.0341  223.1039 H   0  0  0  0  0  0  0  0  0  0  0  0
  141.6417   82.1456  224.2877 H   0  0  0  0  0  0  0  0  0  0  0  0
  142.6969   82.3196  222.8976 H   0  0  0  0  0  0  0  0  0  0  0  0
  140.0984   82.0178  222.3164 H   0  0  0  0  0  0  0  0  0  0  0  0
  139.8729   77.6283  219.3595 H   0  0  0  0  0  0  0  0  0  0  0  0
  139.8932   75.4623  218.1196 H   0  0  0  0  0  0  0  0  0  0  0  0
  141.9062   74.8217  216.8070 H   0  0  0  0  0  0  0  0  0  0  0  0
  143.8696   76.3287  216.7459 H   0  0  0  0  0  0  0  0  0  0  0  0
  143.8326   78.4754  217.9874 H   0  0  0  0  0  0  0  0  0  0  0  0
  142.6655   81.0104  218.2419 H   0  0  0  0  0  0  0  0  0  0  0  0
  138.8206   73.7284  222.3185 H   0  0  0  0  0  0  0  0  0  0  0  0
  140.4093   72.0135  221.4728 H   0  0  0  0  0  0  0  0  0  0  0  0
  142.5777   71.4880  220.4497 H   0  0  0  0  0  0  0  0  0  0  0  0
  145.2915   74.6742  219.4346 H   0  0  0  0  0  0  0  0  0  0  0  0
  143.6490   76.3411  220.3000 H   0  0  0  0  0  0  0  0  0  0  0  0
  1  2  2  0
  2  3  1  0
  3  4  1  0
  4  5  1  0
  5  6  2  0
  5  7  1  0
  7  8  1  0
  8  9  1  0
  9 10  1  0
 10 11  1  0
 11 12  1  0
 12 13  2  0
 13 14  1  0
 14 15  1  0
 15 16  2  0
 16 17  1  0
 17 18  2  0
 18 19  1  0
 19 20  2  0
 14 21  2  0
 21 22  1  0
  2 23  1  0
 23 24  2  0
 24 25  1  0
 25 26  2  0
 26 27  1  0
 27 28  2  0
 28 29  1  0
 28 30  1  0
 30 31  2  0
 31 32  1  0
 32 33  2  0
 11  7  1  0
 22 12  1  0
 33 23  1  0
 20 15  1  0
 32 26  1  0
  3 34  1  0
  4 35  1  0
  4 36  1  0
  8 37  1  0
  8 38  1  0
  9 39  1  0
  9 40  1  0
 10 41  1  0
 10 42  1  0
 11 43  1  6
 16 44  1  0
 17 45  1  0
 18 46  1  0
 19 47  1  0
 20 48  1  0
 21 49  1  0
 24 50  1  0
 25 51  1  0
 27 52  1  0
 30 53  1  0
 31 54  1  0
M  END
>  <smiles>  (30) 
O=C(NCC(=O)N1CCC[C@H]1c1nc(-c2ccccc2)co1)c1ccc2cc(Cl)ccc2n1

>  <score_type>  (30) 
oracle

>  <origin>  (30) 
autodockgpu

>  <m_score__min__energy>  (30) 
-9.4000000000000004

>  <m_primary>  (30) 
energy

>  <rmsd>  (30) 
6.532635595200591

>  <m_score__min__rmsd>  (30) 
6.532635595200591

>  <meeko>  (30) 
{"free_energy": -6.8, "intermolecular_energy": -8.59, "internal_energy": -4.07, "cluster_size": 9, "cluster_id": 11, "rank_in_cluster": 6}

>  <energy>  (30) 
-6.85

>  <cluster_rmsd>  (30) 
0.1

>  <cluster>  (30) 
11

$$$$

     RDKit          3D

 54 58  0  0  0  0  0  0  0  0999 V2000
  138.1790   75.5140  222.3830 O   0  0  0  0  0  0  0  0  0  0  0  0
  139.3520   75.9090  222.0670 C   0  0  0  0  0  0  0  0  0  0  0  0
  139.6450   77.2750  222.1840 N   0  0  0  0  0  0  0  0  0  0  0  0
  138.6800   78.2560  222.6430 C   0  0  0  0  0  0  0  0  0  0  0  0
  139.3050   79.3050  223.4730 C   0  0  0  0  0  0  0  0  0  0  0  0
  138.7670   79.8200  224.4870 O   0  0  0  0  0  0  0  0  0  0  0  0
  140.5990   79.7580  223.0950 N   0  0  0  0  0  0  0  0  0  0  0  0
  141.8490   79.1080  223.5060 C   0  0  0  0  0  0  0  0  0  0  0  0
  142.9160   80.1820  223.4690 C   0  0  0  0  0  0  0  0  0  0  0  0
  142.1480   81.4410  223.0540 C   0  0  0  0  0  0  0  0  0  0  0  0
  140.9610   80.8910  222.2710 C   0  0  1  0  0  0  0  0  0  0  0  0
  141.4060   80.4020  220.9390 C   0  0  0  0  0  0  0  0  0  0  0  0
  141.3120   79.0980  220.5860 N   0  0  0  0  0  0  0  0  0  0  0  0
  141.7910   78.9620  219.3290 C   0  0  0  0  0  0  0  0  0  0  0  0
  141.8330   77.6770  218.6470 C   0  0  0  0  0  0  0  0  0  0  0  0
  142.9970   77.3050  218.0090 C   0  0  0  0  0  0  0  0  0  0  0  0
  143.0990   76.0820  217.3370 C   0  0  0  0  0  0  0  0  0  0  0  0
  142.0100   75.2340  217.3160 C   0  0  0  0  0  0  0  0  0  0  0  0
  140.8440   75.5970  217.9500 C   0  0  0  0  0  0  0  0  0  0  0  0
  140.7620   76.8160  218.6120 C   0  0  0  0  0  0  0  0  0  0  0  0
  142.1730   80.2050  218.9350 C   0  0  0  0  0  0  0  0  0  0  0  0
  141.9240   81.0360  219.9310 O   0  0  0  0  0  0  0  0  0  0  0  0
  140.3460   74.9450  221.6010 C   0  0  0  0  0  0  0  0  0  0  0  0
  140.0100   73.5990  221.5450 C   0  0  0  0  0  0  0  0  0  0  0  0
  140.9320   72.6660  221.1070 C   0  0  0  0  0  0  0  0  0  0  0  0
  142.1970   73.0910  220.7240 C   0  0  0  0  0  0  0  0  0  0  0  0
  143.1570   72.1940  220.2780 C   0  0  0  0  0  0  0  0  0  0  0  0
  144.4100   72.6500  219.9030 C   0  0  0  0  0  0  0  0  0  0  0  0
  145.5760   71.4440  219.3460 Cl  0  0  0  0  0  0  0  0  0  0  0  0
  144.7270   73.9920  219.9660 C   0  0  0  0  0  0  0  0  0  0  0  0
  143.7710   74.8940  220.4130 C   0  0  0  0  0  0  0  0  0  0  0  0
  142.5220   74.4450  220.7860 C   0  0  0  0  0  0  0  0  0  0  0  0
  141.5860   75.2970  221.2180 N   0  0  0  0  0  0  0  0  0  0  0  0
  140.5910   77.6190  221.9330 H   0  0  0  0  0  0  0  0  0  0  0  0
  138.2114   78.7290  221.7674 H   0  0  0  0  0  0  0  0  0  0  0  0
  137.9351   77.7341  223.2617 H   0  0  0  0  0  0  0  0  0  0  0  0
  141.7512   78.7026  224.5239 H   0  0  0  0  0  0  0  0  0  0  0  0
  142.1018   78.2689  222.8411 H   0  0  0  0  0  0  0  0  0  0  0  0
  143.3766   80.3119  224.4594 H   0  0  0  0  0  0  0  0  0  0  0  0
  143.7414   79.9401  222.7833 H   0  0  0  0  0  0  0  0  0  0  0  0
  141.8101   82.0043  223.9363 H   0  0  0  0  0  0  0  0  0  0  0  0
  142.7598   82.1429  222.4683 H   0  0  0  0  0  0  0  0  0  0  0  0
  140.1577   81.6201  222.0892 H   0  0  0  0  0  0  0  0  0  0  0  0
  143.8629   77.9832  218.0286 H   0  0  0  0  0  0  0  0  0  0  0  0
  144.0347   75.8000  216.8321 H   0  0  0  0  0  0  0  0  0  0  0  0
  142.0743   74.2686  216.7927 H   0  0  0  0  0  0  0  0  0  0  0  0
  139.9759   74.9216  217.9328 H   0  0  0  0  0  0  0  0  0  0  0  0
  139.8253   77.0964  219.1160 H   0  0  0  0  0  0  0  0  0  0  0  0
  142.6109   80.4713  217.9617 H   0  0  0  0  0  0  0  0  0  0  0  0
  139.0049   73.2730  221.8507 H   0  0  0  0  0  0  0  0  0  0  0  0
  140.6662   71.5995  221.0626 H   0  0  0  0  0  0  0  0  0  0  0  0
  142.9230   71.1206  220.2222 H   0  0  0  0  0  0  0  0  0  0  0  0
  145.7254   74.3426  219.6656 H   0  0  0  0  0  0  0  0  0  0  0  0
  144.0099   75.9663  220.4695 H   0  0  0  0  0  0  0  0  0  0  0  0
  1  2  2  0
  2  3  1  0
  3  4  1  0
  4  5  1  0
  5  6  2  0
  5  7  1  0
  7  8  1  0
  8  9  1  0
  9 10  1  0
 10 11  1  0
 11 12  1  0
 12 13  2  0
 13 14  1  0
 14 15  1  0
 15 16  2  0
 16 17  1  0
 17 18  2  0
 18 19  1  0
 19 20  2  0
 14 21  2  0
 21 22  1  0
  2 23  1  0
 23 24  2  0
 24 25  1  0
 25 26  2  0
 26 27  1  0
 27 28  2  0
 28 29  1  0
 28 30  1  0
 30 31  2  0
 31 32  1  0
 32 33  2  0
 11  7  1  0
 22 12  1  0
 33 23  1  0
 20 15  1  0
 32 26  1  0
  3 34  1  0
  4 35  1  0
  4 36  1  0
  8 37  1  0
  8 38  1  0
  9 39  1  0
  9 40  1  0
 10 41  1  0
 10 42  1  0
 11 43  1  6
 16 44  1  0
 17 45  1  0
 18 46  1  0
 19 47  1  0
 20 48  1  0
 21 49  1  0
 24 50  1  0
 25 51  1  0
 27 52  1  0
 30 53  1  0
 31 54  1  0
M  END
>  <smiles>  (31) 
O=C(NCC(=O)N1CCC[C@H]1c1nc(-c2ccccc2)co1)c1ccc2cc(Cl)ccc2n1

>  <score_type>  (31) 
oracle

>  <origin>  (31) 
autodockgpu

>  <m_score__min__energy>  (31) 
-9.4000000000000004

>  <m_primary>  (31) 
energy

>  <rmsd>  (31) 
6.559904034137852

>  <m_score__min__rmsd>  (31) 
6.559904034137852

>  <meeko>  (31) 
{"free_energy": -6.88, "intermolecular_energy": -8.67, "internal_energy": -4.16, "cluster_size": 9, "cluster_id": 11, "rank_in_cluster": 1}

>  <energy>  (31) 
-6.84

>  <cluster_rmsd>  (31) 
0.1

>  <cluster>  (31) 
11

$$$$

     RDKit          3D

 54 58  0  0  0  0  0  0  0  0999 V2000
  141.9600   77.8340  217.1090 O   0  0  0  0  0  0  0  0  0  0  0  0
  142.2000   78.1250  218.3300 C   0  0  0  0  0  0  0  0  0  0  0  0
  143.0100   77.2550  219.0720 N   0  0  0  0  0  0  0  0  0  0  0  0
  143.5860   76.0440  218.5190 C   0  0  0  0  0  0  0  0  0  0  0  0
  143.5690   74.9280  219.4850 C   0  0  0  0  0  0  0  0  0  0  0  0
  144.5750   74.2320  219.7820 O   0  0  0  0  0  0  0  0  0  0  0  0
  142.3320   74.6260  220.1190 N   0  0  0  0  0  0  0  0  0  0  0  0
  142.1850   73.6640  221.2170 C   0  0  0  0  0  0  0  0  0  0  0  0
  140.7550   73.1690  221.1580 C   0  0  0  0  0  0  0  0  0  0  0  0
  140.1710   73.8960  219.9420 C   0  0  0  0  0  0  0  0  0  0  0  0
  141.0160   75.1610  219.8450 C   0  0  1  0  0  0  0  0  0  0  0  0
  140.6440   76.1130  220.9260 C   0  0  0  0  0  0  0  0  0  0  0  0
  141.3960   77.2010  221.2140 N   0  0  0  0  0  0  0  0  0  0  0  0
  140.8090   77.8670  222.2340 C   0  0  0  0  0  0  0  0  0  0  0  0
  141.3690   79.0900  222.7900 C   0  0  0  0  0  0  0  0  0  0  0  0
  142.7310   79.2900  222.7070 C   0  0  0  0  0  0  0  0  0  0  0  0
  143.3280   80.4460  223.2220 C   0  0  0  0  0  0  0  0  0  0  0  0
  142.5340   81.4010  223.8230 C   0  0  0  0  0  0  0  0  0  0  0  0
  141.1740   81.2100  223.9100 C   0  0  0  0  0  0  0  0  0  0  0  0
  140.5990   80.0560  223.3930 C   0  0  0  0  0  0  0  0  0  0  0  0
  139.6920   77.1600  222.5510 C   0  0  0  0  0  0  0  0  0  0  0  0
  139.6330   76.1170  221.7420 O   0  0  0  0  0  0  0  0  0  0  0  0
  141.6340   79.3380  218.9140 C   0  0  0  0  0  0  0  0  0  0  0  0
  142.3400   80.5300  218.8200 C   0  0  0  0  0  0  0  0  0  0  0  0
  141.8260   81.6920  219.3650 C   0  0  0  0  0  0  0  0  0  0  0  0
  140.5960   81.6550  220.0060 C   0  0  0  0  0  0  0  0  0  0  0  0
  140.0390   82.7940  220.5680 C   0  0  0  0  0  0  0  0  0  0  0  0
  138.8080   82.7230  221.2010 C   0  0  0  0  0  0  0  0  0  0  0  0
  138.1670   84.2190  221.8910 Cl  0  0  0  0  0  0  0  0  0  0  0  0
  138.1190   81.5300  221.2860 C   0  0  0  0  0  0  0  0  0  0  0  0
  138.6730   80.3860  220.7260 C   0  0  0  0  0  0  0  0  0  0  0  0
  139.8970   80.4520  220.0940 C   0  0  0  0  0  0  0  0  0  0  0  0
  140.4470   79.3630  219.5470 N   0  0  0  0  0  0  0  0  0  0  0  0
  143.2190   77.4710  220.0650 H   0  0  0  0  0  0  0  0  0  0  0  0
  143.0092   75.7514  217.6292 H   0  0  0  0  0  0  0  0  0  0  0  0
  144.6351   76.2545  218.2640 H   0  0  0  0  0  0  0  0  0  0  0  0
  142.8844   72.8253  221.0850 H   0  0  0  0  0  0  0  0  0  0  0  0
  142.4081   74.1285  222.1888 H   0  0  0  0  0  0  0  0  0  0  0  0
  140.7225   72.0786  221.0165 H   0  0  0  0  0  0  0  0  0  0  0  0
  140.1956   73.3681  222.0840 H   0  0  0  0  0  0  0  0  0  0  0  0
  140.2717   73.2851  219.0328 H   0  0  0  0  0  0  0  0  0  0  0  0
  139.0959   74.1053  220.0432 H   0  0  0  0  0  0  0  0  0  0  0  0
  140.9139   75.7044  218.8940 H   0  0  0  0  0  0  0  0  0  0  0  0
  143.3601   78.5261  222.2267 H   0  0  0  0  0  0  0  0  0  0  0  0
  144.4159   80.5914  223.1487 H   0  0  0  0  0  0  0  0  0  0  0  0
  142.9882   82.3153  224.2327 H   0  0  0  0  0  0  0  0  0  0  0  0
  140.5416   81.9718  224.3894 H   0  0  0  0  0  0  0  0  0  0  0  0
  139.5109   79.9130  223.4673 H   0  0  0  0  0  0  0  0  0  0  0  0
  138.9673   77.4112  223.3395 H   0  0  0  0  0  0  0  0  0  0  0  0
  143.3139   80.5499  218.3090 H   0  0  0  0  0  0  0  0  0  0  0  0
  142.3862   82.6358  219.2912 H   0  0  0  0  0  0  0  0  0  0  0  0
  140.5740   83.7535  220.5114 H   0  0  0  0  0  0  0  0  0  0  0  0
  137.1429   81.4858  221.7912 H   0  0  0  0  0  0  0  0  0  0  0  0
  138.1358   79.4280  220.7866 H   0  0  0  0  0  0  0  0  0  0  0  0
  1  2  2  0
  2  3  1  0
  3  4  1  0
  4  5  1  0
  5  6  2  0
  5  7  1  0
  7  8  1  0
  8  9  1  0
  9 10  1  0
 10 11  1  0
 11 12  1  0
 12 13  2  0
 13 14  1  0
 14 15  1  0
 15 16  2  0
 16 17  1  0
 17 18  2  0
 18 19  1  0
 19 20  2  0
 14 21  2  0
 21 22  1  0
  2 23  1  0
 23 24  2  0
 24 25  1  0
 25 26  2  0
 26 27  1  0
 27 28  2  0
 28 29  1  0
 28 30  1  0
 30 31  2  0
 31 32  1  0
 32 33  2  0
 11  7  1  0
 22 12  1  0
 33 23  1  0
 20 15  1  0
 32 26  1  0
  3 34  1  0
  4 35  1  0
  4 36  1  0
  8 37  1  0
  8 38  1  0
  9 39  1  0
  9 40  1  0
 10 41  1  0
 10 42  1  0
 11 43  1  6
 16 44  1  0
 17 45  1  0
 18 46  1  0
 19 47  1  0
 20 48  1  0
 21 49  1  0
 24 50  1  0
 25 51  1  0
 27 52  1  0
 30 53  1  0
 31 54  1  0
M  END
>  <smiles>  (32) 
O=C(NCC(=O)N1CCC[C@H]1c1nc(-c2ccccc2)co1)c1ccc2cc(Cl)ccc2n1

>  <score_type>  (32) 
oracle

>  <origin>  (32) 
autodockgpu

>  <m_score__min__energy>  (32) 
-9.4000000000000004

>  <m_primary>  (32) 
energy

>  <rmsd>  (32) 
8.451126287241266

>  <m_score__min__rmsd>  (32) 
8.451126287241266

>  <meeko>  (32) 
{"free_energy": -6.4, "intermolecular_energy": -8.19, "internal_energy": -4.29, "cluster_size": 9, "cluster_id": 12, "rank_in_cluster": 7}

>  <energy>  (32) 
-6.82

>  <cluster_rmsd>  (32) 
0.31

>  <cluster>  (32) 
11

$$$$

     RDKit          3D

 54 58  0  0  0  0  0  0  0  0999 V2000
  137.8610   71.9960  222.0460 O   0  0  0  0  0  0  0  0  0  0  0  0
  139.0760   71.6110  222.1430 C   0  0  0  0  0  0  0  0  0  0  0  0
  139.8790   71.6570  220.9950 N   0  0  0  0  0  0  0  0  0  0  0  0
  139.3940   72.1170  219.7070 C   0  0  0  0  0  0  0  0  0  0  0  0
  140.4880   72.6060  218.8440 C   0  0  0  0  0  0  0  0  0  0  0  0
  140.8280   72.0680  217.7590 O   0  0  0  0  0  0  0  0  0  0  0  0
  141.1970   73.7620  219.2730 N   0  0  0  0  0  0  0  0  0  0  0  0
  141.3610   74.9730  218.4610 C   0  0  0  0  0  0  0  0  0  0  0  0
  142.6290   75.6410  218.9490 C   0  0  0  0  0  0  0  0  0  0  0  0
  143.1440   74.6910  220.0350 C   0  0  0  0  0  0  0  0  0  0  0  0
  141.8800   73.9970  220.5270 C   0  0  1  0  0  0  0  0  0  0  0  0
  141.0690   74.9290  221.3550 C   0  0  0  0  0  0  0  0  0  0  0  0
  141.4460   76.2120  221.5660 N   0  0  0  0  0  0  0  0  0  0  0  0
  140.5160   76.8050  222.3490 C   0  0  0  0  0  0  0  0  0  0  0  0
  140.6230   78.1960  222.7670 C   0  0  0  0  0  0  0  0  0  0  0  0
  141.7780   78.6100  223.3940 C   0  0  0  0  0  0  0  0  0  0  0  0
  141.9400   79.9340  223.8180 C   0  0  0  0  0  0  0  0  0  0  0  0
  140.9200   80.8380  223.6010 C   0  0  0  0  0  0  0  0  0  0  0  0
  139.7640   80.4330  222.9760 C   0  0  0  0  0  0  0  0  0  0  0  0
  139.6210   79.1150  222.5620 C   0  0  0  0  0  0  0  0  0  0  0  0
  139.5770   75.8560  222.6030 C   0  0  0  0  0  0  0  0  0  0  0  0
  139.9490   74.7480  221.9870 O   0  0  0  0  0  0  0  0  0  0  0  0
  139.5930   71.1420  223.4260 C   0  0  0  0  0  0  0  0  0  0  0  0
  140.4510   71.9580  224.1510 C   0  0  0  0  0  0  0  0  0  0  0  0
  140.9530   71.5370  225.3690 C   0  0  0  0  0  0  0  0  0  0  0  0
  140.5890   70.2910  225.8590 C   0  0  0  0  0  0  0  0  0  0  0  0
  141.0660   69.8250  227.0750 C   0  0  0  0  0  0  0  0  0  0  0  0
  140.6830   68.5760  227.5370 C   0  0  0  0  0  0  0  0  0  0  0  0
  141.3340   68.0550  229.0950 Cl  0  0  0  0  0  0  0  0  0  0  0  0
  139.8270   67.7770  226.8030 C   0  0  0  0  0  0  0  0  0  0  0  0
  139.3480   68.2390  225.5850 C   0  0  0  0  0  0  0  0  0  0  0  0
  139.7260   69.4820  225.1210 C   0  0  0  0  0  0  0  0  0  0  0  0
  139.2740   69.9460  223.9510 N   0  0  0  0  0  0  0  0  0  0  0  0
  140.8680   71.3500  221.0490 H   0  0  0  0  0  0  0  0  0  0  0  0
  138.8881   71.2823  219.1997 H   0  0  0  0  0  0  0  0  0  0  0  0
  138.7026   72.9539  219.8845 H   0  0  0  0  0  0  0  0  0  0  0  0
  141.4543   74.7090  217.3972 H   0  0  0  0  0  0  0  0  0  0  0  0
  140.4929   75.6415  218.5588 H   0  0  0  0  0  0  0  0  0  0  0  0
  143.3605   75.7378  218.1332 H   0  0  0  0  0  0  0  0  0  0  0  0
  142.4574   76.6617  219.3214 H   0  0  0  0  0  0  0  0  0  0  0  0
  143.8548   73.9633  219.6164 H   0  0  0  0  0  0  0  0  0  0  0  0
  143.6878   75.2111  220.8373 H   0  0  0  0  0  0  0  0  0  0  0  0
  142.0624   73.1033  221.1418 H   0  0  0  0  0  0  0  0  0  0  0  0
  142.5884   77.8860  223.5646 H   0  0  0  0  0  0  0  0  0  0  0  0
  142.8678   80.2498  224.3174 H   0  0  0  0  0  0  0  0  0  0  0  0
  141.0317   81.8823  223.9279 H   0  0  0  0  0  0  0  0  0  0  0  0
  138.9513   81.1540  222.8037 H   0  0  0  0  0  0  0  0  0  0  0  0
  138.6923   78.8017  222.0627 H   0  0  0  0  0  0  0  0  0  0  0  0
  138.6703   75.9868  223.2119 H   0  0  0  0  0  0  0  0  0  0  0  0
  140.7330   72.9446  223.7546 H   0  0  0  0  0  0  0  0  0  0  0  0
  141.6335   72.1830  225.9431 H   0  0  0  0  0  0  0  0  0  0  0  0
  141.7485   70.4470  227.6728 H   0  0  0  0  0  0  0  0  0  0  0  0
  139.5290   66.7873  227.1794 H   0  0  0  0  0  0  0  0  0  0  0  0
  138.6666   67.6137  224.9894 H   0  0  0  0  0  0  0  0  0  0  0  0
  1  2  2  0
  2  3  1  0
  3  4  1  0
  4  5  1  0
  5  6  2  0
  5  7  1  0
  7  8  1  0
  8  9  1  0
  9 10  1  0
 10 11  1  0
 11 12  1  0
 12 13  2  0
 13 14  1  0
 14 15  1  0
 15 16  2  0
 16 17  1  0
 17 18  2  0
 18 19  1  0
 19 20  2  0
 14 21  2  0
 21 22  1  0
  2 23  1  0
 23 24  2  0
 24 25  1  0
 25 26  2  0
 26 27  1  0
 27 28  2  0
 28 29  1  0
 28 30  1  0
 30 31  2  0
 31 32  1  0
 32 33  2  0
 11  7  1  0
 22 12  1  0
 33 23  1  0
 20 15  1  0
 32 26  1  0
  3 34  1  0
  4 35  1  0
  4 36  1  0
  8 37  1  0
  8 38  1  0
  9 39  1  0
  9 40  1  0
 10 41  1  0
 10 42  1  0
 11 43  1  1
 16 44  1  0
 17 45  1  0
 18 46  1  0
 19 47  1  0
 20 48  1  0
 21 49  1  0
 24 50  1  0
 25 51  1  0
 27 52  1  0
 30 53  1  0
 31 54  1  0
M  END
>  <smiles>  (33) 
O=C(NCC(=O)N1CCC[C@H]1c1nc(-c2ccccc2)co1)c1ccc2cc(Cl)ccc2n1

>  <score_type>  (33) 
oracle

>  <origin>  (33) 
autodockgpu

>  <m_score__min__energy>  (33) 
-9.4000000000000004

>  <m_primary>  (33) 
energy

>  <rmsd>  (33) 
3.518032734553781

>  <m_score__min__rmsd>  (33) 
3.518032734553781

>  <meeko>  (33) 
{"free_energy": -8.61, "intermolecular_energy": -10.4, "internal_energy": -1.98, "cluster_size": 12, "cluster_id": 2, "rank_in_cluster": 9}

>  <energy>  (33) 
-6.8

>  <cluster_rmsd>  (33) 
0.54

>  <cluster>  (33) 
11

$$$$

     RDKit          3D

 54 58  0  0  0  0  0  0  0  0999 V2000
  140.3310   73.9790  221.8810 O   0  0  0  0  0  0  0  0  0  0  0  0
  140.6310   75.2140  221.7420 C   0  0  0  0  0  0  0  0  0  0  0  0
  141.8940   75.5340  221.2260 N   0  0  0  0  0  0  0  0  0  0  0  0
  142.8720   74.5320  220.8460 C   0  0  0  0  0  0  0  0  0  0  0  0
  143.0290   74.4340  219.3810 C   0  0  0  0  0  0  0  0  0  0  0  0
  143.8660   73.6910  218.8060 O   0  0  0  0  0  0  0  0  0  0  0  0
  142.1750   75.2360  218.5740 N   0  0  0  0  0  0  0  0  0  0  0  0
  140.7700   74.9170  218.2970 C   0  0  0  0  0  0  0  0  0  0  0  0
  140.4370   75.5800  216.9770 C   0  0  0  0  0  0  0  0  0  0  0  0
  141.7580   76.2320  216.5570 C   0  0  0  0  0  0  0  0  0  0  0  0
  142.4740   76.4710  217.8820 C   0  0  1  0  0  0  0  0  0  0  0  0
  141.8410   77.6020  218.6110 C   0  0  0  0  0  0  0  0  0  0  0  0
  142.3470   78.0780  219.7730 N   0  0  0  0  0  0  0  0  0  0  0  0
  141.5630   79.0970  220.1930 C   0  0  0  0  0  0  0  0  0  0  0  0
  141.8320   79.8310  221.4210 C   0  0  0  0  0  0  0  0  0  0  0  0
  141.3360   81.1110  221.5480 C   0  0  0  0  0  0  0  0  0  0  0  0
  141.5610   81.8660  222.7040 C   0  0  0  0  0  0  0  0  0  0  0  0
  142.2940   81.3150  223.7350 C   0  0  0  0  0  0  0  0  0  0  0  0
  142.7930   80.0380  223.6170 C   0  0  0  0  0  0  0  0  0  0  0  0
  142.5600   79.3030  222.4610 C   0  0  0  0  0  0  0  0  0  0  0  0
  140.5810   79.2230  219.2630 C   0  0  0  0  0  0  0  0  0  0  0  0
  140.7870   78.3070  218.3340 O   0  0  0  0  0  0  0  0  0  0  0  0
  139.6670   76.2460  222.1150 C   0  0  0  0  0  0  0  0  0  0  0  0
  138.3290   76.0760  221.7850 C   0  0  0  0  0  0  0  0  0  0  0  0
  137.3970   77.0370  222.1280 C   0  0  0  0  0  0  0  0  0  0  0  0
  137.8130   78.1750  222.8060 C   0  0  0  0  0  0  0  0  0  0  0  0
  136.9160   79.1670  223.1720 C   0  0  0  0  0  0  0  0  0  0  0  0
  137.3630   80.2910  223.8480 C   0  0  0  0  0  0  0  0  0  0  0  0
  136.1580   81.5100  224.2780 Cl  0  0  0  0  0  0  0  0  0  0  0  0
  138.6980   80.4440  224.1680 C   0  0  0  0  0  0  0  0  0  0  0  0
  139.6000   79.4540  223.8040 C   0  0  0  0  0  0  0  0  0  0  0  0
  139.1590   78.3340  223.1310 C   0  0  0  0  0  0  0  0  0  0  0  0
  140.0120   77.3680  222.7720 N   0  0  0  0  0  0  0  0  0  0  0  0
  142.1610   76.5290  221.1030 H   0  0  0  0  0  0  0  0  0  0  0  0
  143.8428   74.7983  221.2894 H   0  0  0  0  0  0  0  0  0  0  0  0
  142.5180   73.5576  221.2139 H   0  0  0  0  0  0  0  0  0  0  0  0
  140.6342   73.8280  218.2214 H   0  0  0  0  0  0  0  0  0  0  0  0
  140.1119   75.2755  219.1022 H   0  0  0  0  0  0  0  0  0  0  0  0
  140.1130   74.8358  216.2346 H   0  0  0  0  0  0  0  0  0  0  0  0
  139.6112   76.3021  217.0581 H   0  0  0  0  0  0  0  0  0  0  0  0
  142.3408   75.5589  215.9110 H   0  0  0  0  0  0  0  0  0  0  0  0
  141.6146   77.1543  215.9750 H   0  0  0  0  0  0  0  0  0  0  0  0
  143.5426   76.7132  217.7854 H   0  0  0  0  0  0  0  0  0  0  0  0
  140.7519   81.5472  220.7243 H   0  0  0  0  0  0  0  0  0  0  0  0
  141.1586   82.8861  222.7900 H   0  0  0  0  0  0  0  0  0  0  0  0
  142.4793   81.8960  224.6505 H   0  0  0  0  0  0  0  0  0  0  0  0
  143.3771   79.5984  224.4389 H   0  0  0  0  0  0  0  0  0  0  0  0
  142.9641   78.2834  222.3767 H   0  0  0  0  0  0  0  0  0  0  0  0
  139.7613   79.9563  219.2804 H   0  0  0  0  0  0  0  0  0  0  0  0
  138.0090   75.1712  221.2475 H   0  0  0  0  0  0  0  0  0  0  0  0
  136.3371   76.9018  221.8667 H   0  0  0  0  0  0  0  0  0  0  0  0
  135.8491   79.0617  222.9256 H   0  0  0  0  0  0  0  0  0  0  0  0
  139.0422   81.3401  224.7051 H   0  0  0  0  0  0  0  0  0  0  0  0
  140.6661   79.5627  224.0522 H   0  0  0  0  0  0  0  0  0  0  0  0
  1  2  2  0
  2  3  1  0
  3  4  1  0
  4  5  1  0
  5  6  2  0
  5  7  1  0
  7  8  1  0
  8  9  1  0
  9 10  1  0
 10 11  1  0
 11 12  1  0
 12 13  2  0
 13 14  1  0
 14 15  1  0
 15 16  2  0
 16 17  1  0
 17 18  2  0
 18 19  1  0
 19 20  2  0
 14 21  2  0
 21 22  1  0
  2 23  1  0
 23 24  2  0
 24 25  1  0
 25 26  2  0
 26 27  1  0
 27 28  2  0
 28 29  1  0
 28 30  1  0
 30 31  2  0
 31 32  1  0
 32 33  2  0
 11  7  1  0
 22 12  1  0
 33 23  1  0
 20 15  1  0
 32 26  1  0
  3 34  1  0
  4 35  1  0
  4 36  1  0
  8 37  1  0
  8 38  1  0
  9 39  1  0
  9 40  1  0
 10 41  1  0
 10 42  1  0
 11 43  1  6
 16 44  1  0
 17 45  1  0
 18 46  1  0
 19 47  1  0
 20 48  1  0
 21 49  1  0
 24 50  1  0
 25 51  1  0
 27 52  1  0
 30 53  1  0
 31 54  1  0
M  END
>  <smiles>  (34) 
O=C(NCC(=O)N1CCC[C@H]1c1nc(-c2ccccc2)co1)c1ccc2cc(Cl)ccc2n1

>  <score_type>  (34) 
oracle

>  <origin>  (34) 
autodockgpu

>  <m_score__min__energy>  (34) 
-9.4000000000000004

>  <m_primary>  (34) 
energy

>  <rmsd>  (34) 
6.061544302475829

>  <m_score__min__rmsd>  (34) 
6.061544302475829

>  <meeko>  (34) 
{"free_energy": -6.83, "intermolecular_energy": -8.62, "internal_energy": -4.16, "cluster_size": 9, "cluster_id": 12, "rank_in_cluster": 1}

>  <energy>  (34) 
-6.67

>  <cluster_rmsd>  (34) 
0.56

>  <cluster>  (34) 
11

$$$$

     RDKit          3D

 54 58  0  0  0  0  0  0  0  0999 V2000
  137.2000   73.6520  221.1300 O   0  0  0  0  0  0  0  0  0  0  0  0
  137.9410   73.0250  221.9630 C   0  0  0  0  0  0  0  0  0  0  0  0
  137.3390   72.4870  223.1090 N   0  0  0  0  0  0  0  0  0  0  0  0
  135.9220   72.6090  223.3920 C   0  0  0  0  0  0  0  0  0  0  0  0
  135.1200   71.6060  222.6630 C   0  0  0  0  0  0  0  0  0  0  0  0
  133.9510   71.8040  222.2410 O   0  0  0  0  0  0  0  0  0  0  0  0
  135.7150   70.3360  222.4250 N   0  0  0  0  0  0  0  0  0  0  0  0
  136.3910   69.9670  221.1760 C   0  0  0  0  0  0  0  0  0  0  0  0
  136.2930   68.4590  221.0720 C   0  0  0  0  0  0  0  0  0  0  0  0
  135.4930   68.0620  222.3160 C   0  0  0  0  0  0  0  0  0  0  0  0
  135.7870   69.1870  223.3020 C   0  0  1  0  0  0  0  0  0  0  0  0
  137.1730   69.0620  223.8270 C   0  0  0  0  0  0  0  0  0  0  0  0
  137.6880   69.9520  224.7070 N   0  0  0  0  0  0  0  0  0  0  0  0
  138.9550   69.5780  224.9980 C   0  0  0  0  0  0  0  0  0  0  0  0
  139.7960   70.3280  225.9190 C   0  0  0  0  0  0  0  0  0  0  0  0
  139.7340   70.0280  227.2630 C   0  0  0  0  0  0  0  0  0  0  0  0
  140.5190   70.7140  228.1970 C   0  0  0  0  0  0  0  0  0  0  0  0
  141.3690   71.7090  227.7600 C   0  0  0  0  0  0  0  0  0  0  0  0
  141.4370   72.0150  226.4200 C   0  0  0  0  0  0  0  0  0  0  0  0
  140.6500   71.3230  225.5070 C   0  0  0  0  0  0  0  0  0  0  0  0
  139.1880   68.4500  224.2770 C   0  0  0  0  0  0  0  0  0  0  0  0
  138.0930   68.1780  223.5910 O   0  0  0  0  0  0  0  0  0  0  0  0
  139.3720   72.8860  221.7060 C   0  0  0  0  0  0  0  0  0  0  0  0
  139.9700   71.6420  221.8540 C   0  0  0  0  0  0  0  0  0  0  0  0
  141.3220   71.4840  221.6150 C   0  0  0  0  0  0  0  0  0  0  0  0
  142.0760   72.5830  221.2260 C   0  0  0  0  0  0  0  0  0  0  0  0
  143.4350   72.4740  220.9750 C   0  0  0  0  0  0  0  0  0  0  0  0
  144.1590   73.5910  220.5880 C   0  0  0  0  0  0  0  0  0  0  0  0
  145.8870   73.3700  220.2870 Cl  0  0  0  0  0  0  0  0  0  0  0  0
  143.5490   74.8210  220.4460 C   0  0  0  0  0  0  0  0  0  0  0  0
  142.1880   74.9350  220.6960 C   0  0  0  0  0  0  0  0  0  0  0  0
  141.4630   73.8260  221.0810 C   0  0  0  0  0  0  0  0  0  0  0  0
  140.1510   73.9140  221.3260 N   0  0  0  0  0  0  0  0  0  0  0  0
  137.9200   71.9740  223.8000 H   0  0  0  0  0  0  0  0  0  0  0  0
  135.7633   72.4728  224.4719 H   0  0  0  0  0  0  0  0  0  0  0  0
  135.5962   73.6067  223.0626 H   0  0  0  0  0  0  0  0  0  0  0  0
  135.8925   70.4416  220.3180 H   0  0  0  0  0  0  0  0  0  0  0  0
  137.4388   70.3017  221.1733 H   0  0  0  0  0  0  0  0  0  0  0  0
  135.7643   68.1624  220.1542 H   0  0  0  0  0  0  0  0  0  0  0  0
  137.2770   67.9697  221.0232 H   0  0  0  0  0  0  0  0  0  0  0  0
  134.4176   68.0073  222.0910 H   0  0  0  0  0  0  0  0  0  0  0  0
  135.7677   67.0699  222.7035 H   0  0  0  0  0  0  0  0  0  0  0  0
  135.1183   69.2142  224.1750 H   0  0  0  0  0  0  0  0  0  0  0  0
  139.0548   69.2345  227.6080 H   0  0  0  0  0  0  0  0  0  0  0  0
  140.4590   70.4629  229.2663 H   0  0  0  0  0  0  0  0  0  0  0  0
  141.9919   72.2573  228.4821 H   0  0  0  0  0  0  0  0  0  0  0  0
  142.1148   72.8080  226.0712 H   0  0  0  0  0  0  0  0  0  0  0  0
  140.7116   71.5756  224.4382 H   0  0  0  0  0  0  0  0  0  0  0  0
  140.1213   67.8679  224.2667 H   0  0  0  0  0  0  0  0  0  0  0  0
  139.3645   70.7773  222.1632 H   0  0  0  0  0  0  0  0  0  0  0  0
  141.7957   70.4981  221.7317 H   0  0  0  0  0  0  0  0  0  0  0  0
  143.9384   71.5019  221.0829 H   0  0  0  0  0  0  0  0  0  0  0  0
  144.1340   75.7003  220.1385 H   0  0  0  0  0  0  0  0  0  0  0  0
  141.6881   75.9088  220.5872 H   0  0  0  0  0  0  0  0  0  0  0  0
  1  2  2  0
  2  3  1  0
  3  4  1  0
  4  5  1  0
  5  6  2  0
  5  7  1  0
  7  8  1  0
  8  9  1  0
  9 10  1  0
 10 11  1  0
 11 12  1  0
 12 13  2  0
 13 14  1  0
 14 15  1  0
 15 16  2  0
 16 17  1  0
 17 18  2  0
 18 19  1  0
 19 20  2  0
 14 21  2  0
 21 22  1  0
  2 23  1  0
 23 24  2  0
 24 25  1  0
 25 26  2  0
 26 27  1  0
 27 28  2  0
 28 29  1  0
 28 30  1  0
 30 31  2  0
 31 32  1  0
 32 33  2  0
 11  7  1  0
 22 12  1  0
 33 23  1  0
 20 15  1  0
 32 26  1  0
  3 34  1  0
  4 35  1  0
  4 36  1  0
  8 37  1  0
  8 38  1  0
  9 39  1  0
  9 40  1  0
 10 41  1  0
 10 42  1  0
 11 43  1  1
 16 44  1  0
 17 45  1  0
 18 46  1  0
 19 47  1  0
 20 48  1  0
 21 49  1  0
 24 50  1  0
 25 51  1  0
 27 52  1  0
 30 53  1  0
 31 54  1  0
M  END
>  <smiles>  (35) 
O=C(NCC(=O)N1CCC[C@H]1c1nc(-c2ccccc2)co1)c1ccc2cc(Cl)ccc2n1

>  <score_type>  (35) 
oracle

>  <origin>  (35) 
autodockgpu

>  <m_score__min__energy>  (35) 
-9.4000000000000004

>  <m_primary>  (35) 
energy

>  <rmsd>  (35) 
8.71365166168121

>  <m_score__min__rmsd>  (35) 
8.71365166168121

>  <meeko>  (35) 
{"free_energy": -7.0, "intermolecular_energy": -8.79, "internal_energy": -3.28, "cluster_size": 1, "cluster_id": 10, "rank_in_cluster": 1}

>  <energy>  (35) 
-6.66

>  <cluster_rmsd>  (35) 
0.25

>  <cluster>  (35) 
11

$$$$

     RDKit          3D

 54 58  0  0  0  0  0  0  0  0999 V2000
  138.9440   70.9070  221.1740 O   0  0  0  0  0  0  0  0  0  0  0  0
  138.7830   71.5820  222.2470 C   0  0  0  0  0  0  0  0  0  0  0  0
  138.0320   72.7630  222.1800 N   0  0  0  0  0  0  0  0  0  0  0  0
  137.4320   73.2530  220.9530 C   0  0  0  0  0  0  0  0  0  0  0  0
  138.4290   73.4340  219.8800 C   0  0  0  0  0  0  0  0  0  0  0  0
  138.3210   72.9490  218.7240 O   0  0  0  0  0  0  0  0  0  0  0  0
  139.5840   74.2070  220.1800 N   0  0  0  0  0  0  0  0  0  0  0  0
  140.3470   74.9660  219.1820 C   0  0  0  0  0  0  0  0  0  0  0  0
  141.7550   75.0830  219.7250 C   0  0  0  0  0  0  0  0  0  0  0  0
  141.7000   74.3100  221.0460 C   0  0  0  0  0  0  0  0  0  0  0  0
  140.2350   74.4130  221.4560 C   0  0  1  0  0  0  0  0  0  0  0  0
  139.9320   75.7860  221.9410 C   0  0  0  0  0  0  0  0  0  0  0  0
  140.9070   76.6960  222.1720 N   0  0  0  0  0  0  0  0  0  0  0  0
  140.3280   77.8400  222.6010 C   0  0  0  0  0  0  0  0  0  0  0  0
  141.1030   79.0250  222.9410 C   0  0  0  0  0  0  0  0  0  0  0  0
  140.4510   80.1010  223.5040 C   0  0  0  0  0  0  0  0  0  0  0  0
  141.1420   81.2680  223.8520 C   0  0  0  0  0  0  0  0  0  0  0  0
  142.5020   81.3360  223.6270 C   0  0  0  0  0  0  0  0  0  0  0  0
  143.1600   80.2650  223.0670 C   0  0  0  0  0  0  0  0  0  0  0  0
  142.4580   79.1160  222.7270 C   0  0  0  0  0  0  0  0  0  0  0  0
  138.9910   77.6000  222.6230 C   0  0  0  0  0  0  0  0  0  0  0  0
  138.8000   76.3570  222.2190 O   0  0  0  0  0  0  0  0  0  0  0  0
  139.3740   71.1140  223.4980 C   0  0  0  0  0  0  0  0  0  0  0  0
  140.3190   71.9030  224.1400 C   0  0  0  0  0  0  0  0  0  0  0  0
  140.8930   71.4830  225.3250 C   0  0  0  0  0  0  0  0  0  0  0  0
  140.5140   70.2630  225.8670 C   0  0  0  0  0  0  0  0  0  0  0  0
  141.0610   69.7980  227.0540 C   0  0  0  0  0  0  0  0  0  0  0  0
  140.6610   68.5760  227.5690 C   0  0  0  0  0  0  0  0  0  0  0  0
  141.4050   68.0540  229.0860 Cl  0  0  0  0  0  0  0  0  0  0  0  0
  139.7200   67.8030  226.9180 C   0  0  0  0  0  0  0  0  0  0  0  0
  139.1700   68.2630  225.7300 C   0  0  0  0  0  0  0  0  0  0  0  0
  139.5650   69.4790  225.2130 C   0  0  0  0  0  0  0  0  0  0  0  0
  139.0460   69.9420  224.0700 N   0  0  0  0  0  0  0  0  0  0  0  0
  137.8870   73.3270  223.0390 H   0  0  0  0  0  0  0  0  0  0  0  0
  136.6750   72.5300  220.6152 H   0  0  0  0  0  0  0  0  0  0  0  0
  136.9814   74.2338  221.1650 H   0  0  0  0  0  0  0  0  0  0  0  0
  140.3526   74.4326  218.2200 H   0  0  0  0  0  0  0  0  0  0  0  0
  139.9020   75.9565  219.0062 H   0  0  0  0  0  0  0  0  0  0  0  0
  142.4807   74.6285  219.0345 H   0  0  0  0  0  0  0  0  0  0  0  0
  142.0764   76.1269  219.8550 H   0  0  0  0  0  0  0  0  0  0  0  0
  141.9949   73.2603  220.9002 H   0  0  0  0  0  0  0  0  0  0  0  0
  142.3874   74.7098  221.8060 H   0  0  0  0  0  0  0  0  0  0  0  0
  139.9366   73.7203  222.2567 H   0  0  0  0  0  0  0  0  0  0  0  0
  139.3673   80.0418  223.6833 H   0  0  0  0  0  0  0  0  0  0  0  0
  140.6079   82.1195  224.2989 H   0  0  0  0  0  0  0  0  0  0  0  0
  143.0595   82.2456  223.8951 H   0  0  0  0  0  0  0  0  0  0  0  0
  144.2440   80.3191  222.8883 H   0  0  0  0  0  0  0  0  0  0  0  0
  142.9941   78.2660  222.2798 H   0  0  0  0  0  0  0  0  0  0  0  0
  138.2085   78.3124  222.9232 H   0  0  0  0  0  0  0  0  0  0  0  0
  140.6127   72.8686  223.7026 H   0  0  0  0  0  0  0  0  0  0  0  0
  141.6418   72.1087  225.8328 H   0  0  0  0  0  0  0  0  0  0  0  0
  141.8124   70.3997  227.5862 H   0  0  0  0  0  0  0  0  0  0  0  0
  139.4101   66.8340  227.3363 H   0  0  0  0  0  0  0  0  0  0  0  0
  138.4191   67.6579  225.2007 H   0  0  0  0  0  0  0  0  0  0  0  0
  1  2  2  0
  2  3  1  0
  3  4  1  0
  4  5  1  0
  5  6  2  0
  5  7  1  0
  7  8  1  0
  8  9  1  0
  9 10  1  0
 10 11  1  0
 11 12  1  0
 12 13  2  0
 13 14  1  0
 14 15  1  0
 15 16  2  0
 16 17  1  0
 17 18  2  0
 18 19  1  0
 19 20  2  0
 14 21  2  0
 21 22  1  0
  2 23  1  0
 23 24  2  0
 24 25  1  0
 25 26  2  0
 26 27  1  0
 27 28  2  0
 28 29  1  0
 28 30  1  0
 30 31  2  0
 31 32  1  0
 32 33  2  0
 11  7  1  0
 22 12  1  0
 33 23  1  0
 20 15  1  0
 32 26  1  0
  3 34  1  0
  4 35  1  0
  4 36  1  0
  8 37  1  0
  8 38  1  0
  9 39  1  0
  9 40  1  0
 10 41  1  0
 10 42  1  0
 11 43  1  1
 16 44  1  0
 17 45  1  0
 18 46  1  0
 19 47  1  0
 20 48  1  0
 21 49  1  0
 24 50  1  0
 25 51  1  0
 27 52  1  0
 30 53  1  0
 31 54  1  0
M  END
>  <smiles>  (36) 
O=C(NCC(=O)N1CCC[C@H]1c1nc(-c2ccccc2)co1)c1ccc2cc(Cl)ccc2n1

>  <score_type>  (36) 
oracle

>  <origin>  (36) 
autodockgpu

>  <m_score__min__energy>  (36) 
-9.4000000000000004

>  <m_primary>  (36) 
energy

>  <rmsd>  (36) 
3.234167695256076

>  <m_score__min__rmsd>  (36) 
3.234167695256076

>  <meeko>  (36) 
{"free_energy": -9.13, "intermolecular_energy": -10.92, "internal_energy": -1.89, "cluster_size": 12, "cluster_id": 2, "rank_in_cluster": 1}

>  <energy>  (36) 
-6.6

>  <cluster_rmsd>  (36) 
0.49

>  <cluster>  (36) 
11

$$$$

     RDKit          3D

 54 58  0  0  0  0  0  0  0  0999 V2000
  140.4070   73.4520  222.0970 O   0  0  0  0  0  0  0  0  0  0  0  0
  139.6340   72.4380  222.1880 C   0  0  0  0  0  0  0  0  0  0  0  0
  138.6590   72.2570  221.1980 N   0  0  0  0  0  0  0  0  0  0  0  0
  138.4870   73.1640  220.0790 C   0  0  0  0  0  0  0  0  0  0  0  0
  137.2420   73.9500  220.1860 C   0  0  0  0  0  0  0  0  0  0  0  0
  136.2300   73.7760  219.4570 O   0  0  0  0  0  0  0  0  0  0  0  0
  137.1890   74.9670  221.1780 N   0  0  0  0  0  0  0  0  0  0  0  0
  136.7890   74.7350  222.5710 C   0  0  0  0  0  0  0  0  0  0  0  0
  136.2560   76.0560  223.0840 C   0  0  0  0  0  0  0  0  0  0  0  0
  136.3610   76.9840  221.8700 C   0  0  0  0  0  0  0  0  0  0  0  0
  137.4950   76.3760  221.0540 C   0  0  1  0  0  0  0  0  0  0  0  0
  138.8030   76.6480  221.7090 C   0  0  0  0  0  0  0  0  0  0  0  0
  139.2290   77.9070  221.9630 N   0  0  0  0  0  0  0  0  0  0  0  0
  140.4410   77.8350  222.5580 C   0  0  0  0  0  0  0  0  0  0  0  0
  141.1810   79.0210  222.9640 C   0  0  0  0  0  0  0  0  0  0  0  0
  140.4800   80.1000  223.4570 C   0  0  0  0  0  0  0  0  0  0  0  0
  141.1350   81.2680  223.8630 C   0  0  0  0  0  0  0  0  0  0  0  0
  142.5100   81.3350  223.7670 C   0  0  0  0  0  0  0  0  0  0  0  0
  143.2180   80.2630  223.2760 C   0  0  0  0  0  0  0  0  0  0  0  0
  142.5500   79.1120  222.8770 C   0  0  0  0  0  0  0  0  0  0  0  0
  140.7330   76.5110  222.6560 C   0  0  0  0  0  0  0  0  0  0  0  0
  139.7240   75.8370  222.1350 O   0  0  0  0  0  0  0  0  0  0  0  0
  139.7830   71.5060  223.3030 C   0  0  0  0  0  0  0  0  0  0  0  0
  139.3930   70.1840  223.1390 C   0  0  0  0  0  0  0  0  0  0  0  0
  139.5250   69.2820  224.1790 C   0  0  0  0  0  0  0  0  0  0  0  0
  140.0510   69.7140  225.3880 C   0  0  0  0  0  0  0  0  0  0  0  0
  140.2030   68.8470  226.4610 C   0  0  0  0  0  0  0  0  0  0  0  0
  140.7330   69.3090  227.6550 C   0  0  0  0  0  0  0  0  0  0  0  0
  140.8940   68.1420  228.9730 Cl  0  0  0  0  0  0  0  0  0  0  0  0
  141.1160   70.6270  227.8010 C   0  0  0  0  0  0  0  0  0  0  0  0
  140.9650   71.4990  226.7310 C   0  0  0  0  0  0  0  0  0  0  0  0
  140.4390   71.0440  225.5400 C   0  0  0  0  0  0  0  0  0  0  0  0
  140.2870   71.8670  224.4970 N   0  0  0  0  0  0  0  0  0  0  0  0
  138.0210   71.4410  221.2510 H   0  0  0  0  0  0  0  0  0  0  0  0
  139.3416   73.8560  220.0490 H   0  0  0  0  0  0  0  0  0  0  0  0
  138.4284   72.5610  219.1608 H   0  0  0  0  0  0  0  0  0  0  0  0
  136.0064   73.9636  222.6194 H   0  0  0  0  0  0  0  0  0  0  0  0
  137.6362   74.3823  223.1775 H   0  0  0  0  0  0  0  0  0  0  0  0
  135.2110   75.9566  223.4129 H   0  0  0  0  0  0  0  0  0  0  0  0
  136.8110   76.4303  223.9568 H   0  0  0  0  0  0  0  0  0  0  0  0
  135.4224   76.9885  221.2963 H   0  0  0  0  0  0  0  0  0  0  0  0
  136.5469   78.0322  222.1470 H   0  0  0  0  0  0  0  0  0  0  0  0
  137.5693   76.7560  220.0244 H   0  0  0  0  0  0  0  0  0  0  0  0
  139.3841   80.0421  223.5329 H   0  0  0  0  0  0  0  0  0  0  0  0
  140.5614   82.1215  224.2536 H   0  0  0  0  0  0  0  0  0  0  0  0
  143.0397   82.2457  224.0831 H   0  0  0  0  0  0  0  0  0  0  0  0
  144.3140   80.3170  223.1991 H   0  0  0  0  0  0  0  0  0  0  0  0
  143.1255   78.2602  222.4854 H   0  0  0  0  0  0  0  0  0  0  0  0
  141.6460   76.0786  223.0912 H   0  0  0  0  0  0  0  0  0  0  0  0
  138.9766   69.8519  222.1765 H   0  0  0  0  0  0  0  0  0  0  0  0
  139.2165   68.2342  224.0492 H   0  0  0  0  0  0  0  0  0  0  0  0
  139.9028   67.7933  226.3636 H   0  0  0  0  0  0  0  0  0  0  0  0
  141.5358   70.9823  228.7536 H   0  0  0  0  0  0  0  0  0  0  0  0
  141.2648   72.5524  226.8332 H   0  0  0  0  0  0  0  0  0  0  0  0
  1  2  2  0
  2  3  1  0
  3  4  1  0
  4  5  1  0
  5  6  2  0
  5  7  1  0
  7  8  1  0
  8  9  1  0
  9 10  1  0
 10 11  1  0
 11 12  1  0
 12 13  2  0
 13 14  1  0
 14 15  1  0
 15 16  2  0
 16 17  1  0
 17 18  2  0
 18 19  1  0
 19 20  2  0
 14 21  2  0
 21 22  1  0
  2 23  1  0
 23 24  2  0
 24 25  1  0
 25 26  2  0
 26 27  1  0
 27 28  2  0
 28 29  1  0
 28 30  1  0
 30 31  2  0
 31 32  1  0
 32 33  2  0
 11  7  1  0
 22 12  1  0
 33 23  1  0
 20 15  1  0
 32 26  1  0
  3 34  1  0
  4 35  1  0
  4 36  1  0
  8 37  1  0
  8 38  1  0
  9 39  1  0
  9 40  1  0
 10 41  1  0
 10 42  1  0
 11 43  1  6
 16 44  1  0
 17 45  1  0
 18 46  1  0
 19 47  1  0
 20 48  1  0
 21 49  1  0
 24 50  1  0
 25 51  1  0
 27 52  1  0
 30 53  1  0
 31 54  1  0
M  END
>  <smiles>  (37) 
O=C(NCC(=O)N1CCC[C@H]1c1nc(-c2ccccc2)co1)c1ccc2cc(Cl)ccc2n1

>  <score_type>  (37) 
oracle

>  <origin>  (37) 
autodockgpu

>  <m_score__min__energy>  (37) 
-9.4000000000000004

>  <m_primary>  (37) 
energy

>  <rmsd>  (37) 
3.495142606876751

>  <m_score__min__rmsd>  (37) 
3.495142606876751

>  <meeko>  (37) 
{"free_energy": -9.07, "intermolecular_energy": -10.86, "internal_energy": -1.83, "cluster_size": 12, "cluster_id": 2, "rank_in_cluster": 3}

>  <energy>  (37) 
-6.83

>  <cluster_rmsd>  (37) 
0.0

>  <cluster>  (37) 
12

$$$$

     RDKit          3D

 54 58  0  0  0  0  0  0  0  0999 V2000
  140.2920   72.5360  220.8820 O   0  0  0  0  0  0  0  0  0  0  0  0
  139.9480   72.8660  222.0680 C   0  0  0  0  0  0  0  0  0  0  0  0
  139.5250   74.1840  222.2930 N   0  0  0  0  0  0  0  0  0  0  0  0
  139.4620   75.1850  221.2450 C   0  0  0  0  0  0  0  0  0  0  0  0
  139.6160   76.5550  221.7740 C   0  0  0  0  0  0  0  0  0  0  0  0
  139.0130   76.9950  222.7870 O   0  0  0  0  0  0  0  0  0  0  0  0
  140.5060   77.4270  221.0900 N   0  0  0  0  0  0  0  0  0  0  0  0
  141.4820   78.2950  221.7590 C   0  0  0  0  0  0  0  0  0  0  0  0
  141.7350   79.4530  220.8160 C   0  0  0  0  0  0  0  0  0  0  0  0
  140.8070   79.1650  219.6320 C   0  0  0  0  0  0  0  0  0  0  0  0
  140.6460   77.6500  219.6670 C   0  0  1  0  0  0  0  0  0  0  0  0
  141.8920   76.9900  219.1920 C   0  0  0  0  0  0  0  0  0  0  0  0
  142.4490   75.9490  219.8540 N   0  0  0  0  0  0  0  0  0  0  0  0
  143.5610   75.5660  219.1880 C   0  0  0  0  0  0  0  0  0  0  0  0
  144.4000   74.4650  219.6400 C   0  0  0  0  0  0  0  0  0  0  0  0
  144.4650   73.3250  218.8670 C   0  0  0  0  0  0  0  0  0  0  0  0
  145.2530   72.2330  219.2490 C   0  0  0  0  0  0  0  0  0  0  0  0
  145.9780   72.3050  220.4210 C   0  0  0  0  0  0  0  0  0  0  0  0
  145.9180   73.4390  221.1980 C   0  0  0  0  0  0  0  0  0  0  0  0
  145.1300   74.5130  220.8030 C   0  0  0  0  0  0  0  0  0  0  0  0
  143.6610   76.3960  218.1160 C   0  0  0  0  0  0  0  0  0  0  0  0
  142.6400   77.2320  218.1590 O   0  0  0  0  0  0  0  0  0  0  0  0
  140.0010   71.8800  223.1440 C   0  0  0  0  0  0  0  0  0  0  0  0
  139.5560   70.5870  222.9010 C   0  0  0  0  0  0  0  0  0  0  0  0
  139.5960   69.6350  223.9020 C   0  0  0  0  0  0  0  0  0  0  0  0
  140.0860   69.9850  225.1530 C   0  0  0  0  0  0  0  0  0  0  0  0
  140.1470   69.0650  226.1890 C   0  0  0  0  0  0  0  0  0  0  0  0
  140.6420   69.4460  227.4260 C   0  0  0  0  0  0  0  0  0  0  0  0
  140.6860   68.2150  228.6940 Cl  0  0  0  0  0  0  0  0  0  0  0  0
  141.0800   70.7360  227.6500 C   0  0  0  0  0  0  0  0  0  0  0  0
  141.0210   71.6610  226.6160 C   0  0  0  0  0  0  0  0  0  0  0  0
  140.5300   71.2860  225.3830 C   0  0  0  0  0  0  0  0  0  0  0  0
  140.4650   72.1610  224.3740 N   0  0  0  0  0  0  0  0  0  0  0  0
  139.2410   74.4750  223.2470 H   0  0  0  0  0  0  0  0  0  0  0  0
  140.2676   74.9918  220.5214 H   0  0  0  0  0  0  0  0  0  0  0  0
  138.4725   75.1152  220.7696 H   0  0  0  0  0  0  0  0  0  0  0  0
  141.0750   78.6620  222.7128 H   0  0  0  0  0  0  0  0  0  0  0  0
  142.4117   77.7523  221.9854 H   0  0  0  0  0  0  0  0  0  0  0  0
  141.4777   80.4105  221.2924 H   0  0  0  0  0  0  0  0  0  0  0  0
  142.7908   79.5391  220.5196 H   0  0  0  0  0  0  0  0  0  0  0  0
  139.8367   79.6667  219.7618 H   0  0  0  0  0  0  0  0  0  0  0  0
  141.2068   79.5315  218.6750 H   0  0  0  0  0  0  0  0  0  0  0  0
  139.8245   77.2652  219.0448 H   0  0  0  0  0  0  0  0  0  0  0  0
  143.8868   73.2727  217.9327 H   0  0  0  0  0  0  0  0  0  0  0  0
  145.2938   71.3293  218.6232 H   0  0  0  0  0  0  0  0  0  0  0  0
  146.6036   71.4561  220.7340 H   0  0  0  0  0  0  0  0  0  0  0  0
  146.4946   73.4953  222.1331 H   0  0  0  0  0  0  0  0  0  0  0  0
  145.0900   75.4153  221.4308 H   0  0  0  0  0  0  0  0  0  0  0  0
  144.4506   76.3749  217.3504 H   0  0  0  0  0  0  0  0  0  0  0  0
  139.1697   70.3192  221.9065 H   0  0  0  0  0  0  0  0  0  0  0  0
  139.2434   68.6110  223.7097 H   0  0  0  0  0  0  0  0  0  0  0  0
  139.8024   68.0327  226.0288 H   0  0  0  0  0  0  0  0  0  0  0  0
  141.4711   71.0276  228.6359 H   0  0  0  0  0  0  0  0  0  0  0  0
  141.3658   72.6926  226.7803 H   0  0  0  0  0  0  0  0  0  0  0  0
  1  2  2  0
  2  3  1  0
  3  4  1  0
  4  5  1  0
  5  6  2  0
  5  7  1  0
  7  8  1  0
  8  9  1  0
  9 10  1  0
 10 11  1  0
 11 12  1  0
 12 13  2  0
 13 14  1  0
 14 15  1  0
 15 16  2  0
 16 17  1  0
 17 18  2  0
 18 19  1  0
 19 20  2  0
 14 21  2  0
 21 22  1  0
  2 23  1  0
 23 24  2  0
 24 25  1  0
 25 26  2  0
 26 27  1  0
 27 28  2  0
 28 29  1  0
 28 30  1  0
 30 31  2  0
 31 32  1  0
 32 33  2  0
 11  7  1  0
 22 12  1  0
 33 23  1  0
 20 15  1  0
 32 26  1  0
  3 34  1  0
  4 35  1  0
  4 36  1  0
  8 37  1  0
  8 38  1  0
  9 39  1  0
  9 40  1  0
 10 41  1  0
 10 42  1  0
 11 43  1  6
 16 44  1  0
 17 45  1  0
 18 46  1  0
 19 47  1  0
 20 48  1  0
 21 49  1  0
 24 50  1  0
 25 51  1  0
 27 52  1  0
 30 53  1  0
 31 54  1  0
M  END
>  <smiles>  (38) 
O=C(NCC(=O)N1CCC[C@H]1c1nc(-c2ccccc2)co1)c1ccc2cc(Cl)ccc2n1

>  <score_type>  (38) 
oracle

>  <origin>  (38) 
autodockgpu

>  <m_score__min__energy>  (38) 
-9.4000000000000004

>  <m_primary>  (38) 
energy

>  <rmsd>  (38) 
5.380773664770662

>  <m_score__min__rmsd>  (38) 
5.380773664770662

>  <meeko>  (38) 
{"free_energy": -9.06, "intermolecular_energy": -10.85, "internal_energy": -2.06, "cluster_size": 4, "cluster_id": 1, "rank_in_cluster": 3}

>  <energy>  (38) 
-6.81

>  <cluster_rmsd>  (38) 
0.16

>  <cluster>  (38) 
12

$$$$

     RDKit          3D

 54 58  0  0  0  0  0  0  0  0999 V2000
  140.2690   73.9780  221.8190 O   0  0  0  0  0  0  0  0  0  0  0  0
  140.6000   75.2080  221.7110 C   0  0  0  0  0  0  0  0  0  0  0  0
  141.8800   75.5090  221.2250 N   0  0  0  0  0  0  0  0  0  0  0  0
  142.8420   74.4930  220.8430 C   0  0  0  0  0  0  0  0  0  0  0  0
  142.6310   74.0180  219.4610 C   0  0  0  0  0  0  0  0  0  0  0  0
  142.7910   72.8270  219.0890 O   0  0  0  0  0  0  0  0  0  0  0  0
  142.2200   74.9760  218.4930 N   0  0  0  0  0  0  0  0  0  0  0  0
  140.9760   74.8810  217.7210 C   0  0  0  0  0  0  0  0  0  0  0  0
  141.2140   75.6530  216.4390 C   0  0  0  0  0  0  0  0  0  0  0  0
  142.6660   76.1240  216.5650 C   0  0  0  0  0  0  0  0  0  0  0  0
  142.8890   76.1880  218.0710 C   0  0  1  0  0  0  0  0  0  0  0  0
  142.1800   77.3610  218.6480 C   0  0  0  0  0  0  0  0  0  0  0  0
  142.5730   77.9390  219.8070 N   0  0  0  0  0  0  0  0  0  0  0  0
  141.7420   78.9720  220.0710 C   0  0  0  0  0  0  0  0  0  0  0  0
  141.8900   79.8070  221.2540 C   0  0  0  0  0  0  0  0  0  0  0  0
  142.5900   79.3080  222.3320 C   0  0  0  0  0  0  0  0  0  0  0  0
  142.7670   80.0630  223.4970 C   0  0  0  0  0  0  0  0  0  0  0  0
  142.2290   81.3320  223.5630 C   0  0  0  0  0  0  0  0  0  0  0  0
  141.5290   81.8380  222.4920 C   0  0  0  0  0  0  0  0  0  0  0  0
  141.3630   81.0730  221.3440 C   0  0  0  0  0  0  0  0  0  0  0  0
  140.8450   79.0030  219.0520 C   0  0  0  0  0  0  0  0  0  0  0  0
  141.1450   78.0200  218.2220 O   0  0  0  0  0  0  0  0  0  0  0  0
  139.6530   76.2540  222.0880 C   0  0  0  0  0  0  0  0  0  0  0  0
  138.3130   76.1090  221.7530 C   0  0  0  0  0  0  0  0  0  0  0  0
  137.3970   77.0840  222.0990 C   0  0  0  0  0  0  0  0  0  0  0  0
  137.8310   78.2100  222.7850 C   0  0  0  0  0  0  0  0  0  0  0  0
  136.9500   79.2160  223.1540 C   0  0  0  0  0  0  0  0  0  0  0  0
  137.4140   80.3280  223.8380 C   0  0  0  0  0  0  0  0  0  0  0  0
  136.2290   81.5650  224.2720 Cl  0  0  0  0  0  0  0  0  0  0  0  0
  138.7500   80.4560  224.1620 C   0  0  0  0  0  0  0  0  0  0  0  0
  139.6360   79.4530  223.7950 C   0  0  0  0  0  0  0  0  0  0  0  0
  139.1780   78.3440  223.1140 C   0  0  0  0  0  0  0  0  0  0  0  0
  140.0150   77.3660  222.7520 N   0  0  0  0  0  0  0  0  0  0  0  0
  142.1710   76.5000  221.1290 H   0  0  0  0  0  0  0  0  0  0  0  0
  143.8544   74.9160  220.9217 H   0  0  0  0  0  0  0  0  0  0  0  0
  142.7136   73.6347  221.5189 H   0  0  0  0  0  0  0  0  0  0  0  0
  140.7465   73.8291  217.4956 H   0  0  0  0  0  0  0  0  0  0  0  0
  140.1234   75.2901  218.2828 H   0  0  0  0  0  0  0  0  0  0  0  0
  141.0869   75.0036  215.5603 H   0  0  0  0  0  0  0  0  0  0  0  0
  140.5059   76.4838  216.3032 H   0  0  0  0  0  0  0  0  0  0  0  0
  143.3545   75.4060  216.0956 H   0  0  0  0  0  0  0  0  0  0  0  0
  142.8499   77.0854  216.0631 H   0  0  0  0  0  0  0  0  0  0  0  0
  143.9436   76.2761  218.3710 H   0  0  0  0  0  0  0  0  0  0  0  0
  143.0179   78.2962  222.2752 H   0  0  0  0  0  0  0  0  0  0  0  0
  143.3275   79.6503  224.3488 H   0  0  0  0  0  0  0  0  0  0  0  0
  142.3597   81.9386  224.4713 H   0  0  0  0  0  0  0  0  0  0  0  0
  141.1002   82.8496  222.5447 H   0  0  0  0  0  0  0  0  0  0  0  0
  140.8010   81.4872  220.4939 H   0  0  0  0  0  0  0  0  0  0  0  0
  140.0171   79.7183  218.9381 H   0  0  0  0  0  0  0  0  0  0  0  0
  137.9790   75.2130  221.2092 H   0  0  0  0  0  0  0  0  0  0  0  0
  136.3357   76.9691  221.8337 H   0  0  0  0  0  0  0  0  0  0  0  0
  135.8823   79.1308  222.9034 H   0  0  0  0  0  0  0  0  0  0  0  0
  139.1081   81.3431  224.7050 H   0  0  0  0  0  0  0  0  0  0  0  0
  140.7030   79.5421  224.0469 H   0  0  0  0  0  0  0  0  0  0  0  0
  1  2  2  0
  2  3  1  0
  3  4  1  0
  4  5  1  0
  5  6  2  0
  5  7  1  0
  7  8  1  0
  8  9  1  0
  9 10  1  0
 10 11  1  0
 11 12  1  0
 12 13  2  0
 13 14  1  0
 14 15  1  0
 15 16  2  0
 16 17  1  0
 17 18  2  0
 18 19  1  0
 19 20  2  0
 14 21  2  0
 21 22  1  0
  2 23  1  0
 23 24  2  0
 24 25  1  0
 25 26  2  0
 26 27  1  0
 27 28  2  0
 28 29  1  0
 28 30  1  0
 30 31  2  0
 31 32  1  0
 32 33  2  0
 11  7  1  0
 22 12  1  0
 33 23  1  0
 20 15  1  0
 32 26  1  0
  3 34  1  0
  4 35  1  0
  4 36  1  0
  8 37  1  0
  8 38  1  0
  9 39  1  0
  9 40  1  0
 10 41  1  0
 10 42  1  0
 11 43  1  6
 16 44  1  0
 17 45  1  0
 18 46  1  0
 19 47  1  0
 20 48  1  0
 21 49  1  0
 24 50  1  0
 25 51  1  0
 27 52  1  0
 30 53  1  0
 31 54  1  0
M  END
>  <smiles>  (39) 
O=C(NCC(=O)N1CCC[C@H]1c1nc(-c2ccccc2)co1)c1ccc2cc(Cl)ccc2n1

>  <score_type>  (39) 
oracle

>  <origin>  (39) 
autodockgpu

>  <m_score__min__energy>  (39) 
-9.4000000000000004

>  <m_primary>  (39) 
energy

>  <rmsd>  (39) 
6.072290240642129

>  <m_score__min__rmsd>  (39) 
6.072290240642129

>  <meeko>  (39) 
{"free_energy": -6.81, "intermolecular_energy": -8.6, "internal_energy": -4.06, "cluster_size": 9, "cluster_id": 12, "rank_in_cluster": 3}

>  <energy>  (39) 
-6.81

>  <cluster_rmsd>  (39) 
0.4

>  <cluster>  (39) 
12

$$$$

     RDKit          3D

 54 58  0  0  0  0  0  0  0  0999 V2000
  140.9210   72.9980  221.3600 O   0  0  0  0  0  0  0  0  0  0  0  0
  140.0760   73.0260  222.3180 C   0  0  0  0  0  0  0  0  0  0  0  0
  139.1180   74.0500  222.3260 N   0  0  0  0  0  0  0  0  0  0  0  0
  139.0450   75.0750  221.3030 C   0  0  0  0  0  0  0  0  0  0  0  0
  138.9600   76.4320  221.8780 C   0  0  0  0  0  0  0  0  0  0  0  0
  137.9800   76.8600  222.5390 O   0  0  0  0  0  0  0  0  0  0  0  0
  140.0630   77.3050  221.6680 N   0  0  0  0  0  0  0  0  0  0  0  0
  141.0410   77.6570  222.7040 C   0  0  0  0  0  0  0  0  0  0  0  0
  141.6020   79.0080  222.3130 C   0  0  0  0  0  0  0  0  0  0  0  0
  140.8350   79.3630  221.0360 C   0  0  0  0  0  0  0  0  0  0  0  0
  140.4520   78.0040  220.4620 C   0  0  1  0  0  0  0  0  0  0  0  0
  141.6460   77.3380  219.8770 C   0  0  0  0  0  0  0  0  0  0  0  0
  142.1420   76.1840  220.3820 N   0  0  0  0  0  0  0  0  0  0  0  0
  143.2190   75.8260  219.6460 C   0  0  0  0  0  0  0  0  0  0  0  0
  143.9890   74.6230  219.9280 C   0  0  0  0  0  0  0  0  0  0  0  0
  143.4740   73.4040  219.5440 C   0  0  0  0  0  0  0  0  0  0  0  0
  144.1680   72.2130  219.7870 C   0  0  0  0  0  0  0  0  0  0  0  0
  145.3910   72.2660  220.4240 C   0  0  0  0  0  0  0  0  0  0  0  0
  145.9130   73.4790  220.8110 C   0  0  0  0  0  0  0  0  0  0  0  0
  145.2090   74.6510  220.5610 C   0  0  0  0  0  0  0  0  0  0  0  0
  143.3590   76.7840  218.6930 C   0  0  0  0  0  0  0  0  0  0  0  0
  142.3950   77.6700  218.8690 O   0  0  0  0  0  0  0  0  0  0  0  0
  140.1240   72.0070  223.3630 C   0  0  0  0  0  0  0  0  0  0  0  0
  139.7020   70.7160  223.0730 C   0  0  0  0  0  0  0  0  0  0  0  0
  139.7390   69.7340  224.0450 C   0  0  0  0  0  0  0  0  0  0  0  0
  140.2020   70.0520  225.3140 C   0  0  0  0  0  0  0  0  0  0  0  0
  140.2590   69.1010  226.3220 C   0  0  0  0  0  0  0  0  0  0  0  0
  140.7260   69.4500  227.5790 C   0  0  0  0  0  0  0  0  0  0  0  0
  140.7660   68.1810  228.8090 Cl  0  0  0  0  0  0  0  0  0  0  0  0
  141.1420   70.7390  227.8500 C   0  0  0  0  0  0  0  0  0  0  0  0
  141.0870   71.6940  226.8450 C   0  0  0  0  0  0  0  0  0  0  0  0
  140.6230   71.3510  225.5920 C   0  0  0  0  0  0  0  0  0  0  0  0
  140.5630   72.2560  224.6100 N   0  0  0  0  0  0  0  0  0  0  0  0
  138.4210   74.0930  223.0940 H   0  0  0  0  0  0  0  0  0  0  0  0
  139.9453   75.0125  220.6741 H   0  0  0  0  0  0  0  0  0  0  0  0
  138.1324   74.9000  220.7143 H   0  0  0  0  0  0  0  0  0  0  0  0
  140.5505   77.7176  223.6867 H   0  0  0  0  0  0  0  0  0  0  0  0
  141.8351   76.8996  222.7798 H   0  0  0  0  0  0  0  0  0  0  0  0
  141.4174   79.7526  223.1014 H   0  0  0  0  0  0  0  0  0  0  0  0
  142.6919   78.9907  222.1651 H   0  0  0  0  0  0  0  0  0  0  0  0
  139.9396   79.9585  221.2677 H   0  0  0  0  0  0  0  0  0  0  0  0
  141.4260   79.9725  220.3365 H   0  0  0  0  0  0  0  0  0  0  0  0
  139.6899   78.0421  219.6697 H   0  0  0  0  0  0  0  0  0  0  0  0
  142.4987   73.3661  219.0367 H   0  0  0  0  0  0  0  0  0  0  0  0
  143.7440   71.2474  219.4743 H   0  0  0  0  0  0  0  0  0  0  0  0
  145.9485   71.3387  220.6224 H   0  0  0  0  0  0  0  0  0  0  0  0
  146.8880   73.5211  221.3185 H   0  0  0  0  0  0  0  0  0  0  0  0
  145.6345   75.6157  220.8744 H   0  0  0  0  0  0  0  0  0  0  0  0
  144.1356   76.8162  217.9146 H   0  0  0  0  0  0  0  0  0  0  0  0
  139.3363   70.4737  222.0643 H   0  0  0  0  0  0  0  0  0  0  0  0
  139.4050   68.7114  223.8151 H   0  0  0  0  0  0  0  0  0  0  0  0
  139.9333   68.0692  226.1235 H   0  0  0  0  0  0  0  0  0  0  0  0
  141.5125   71.0052  228.8509 H   0  0  0  0  0  0  0  0  0  0  0  0
  141.4134   72.7248  227.0474 H   0  0  0  0  0  0  0  0  0  0  0  0
  1  2  2  0
  2  3  1  0
  3  4  1  0
  4  5  1  0
  5  6  2  0
  5  7  1  0
  7  8  1  0
  8  9  1  0
  9 10  1  0
 10 11  1  0
 11 12  1  0
 12 13  2  0
 13 14  1  0
 14 15  1  0
 15 16  2  0
 16 17  1  0
 17 18  2  0
 18 19  1  0
 19 20  2  0
 14 21  2  0
 21 22  1  0
  2 23  1  0
 23 24  2  0
 24 25  1  0
 25 26  2  0
 26 27  1  0
 27 28  2  0
 28 29  1  0
 28 30  1  0
 30 31  2  0
 31 32  1  0
 32 33  2  0
 11  7  1  0
 22 12  1  0
 33 23  1  0
 20 15  1  0
 32 26  1  0
  3 34  1  0
  4 35  1  0
  4 36  1  0
  8 37  1  0
  8 38  1  0
  9 39  1  0
  9 40  1  0
 10 41  1  0
 10 42  1  0
 11 43  1  6
 16 44  1  0
 17 45  1  0
 18 46  1  0
 19 47  1  0
 20 48  1  0
 21 49  1  0
 24 50  1  0
 25 51  1  0
 27 52  1  0
 30 53  1  0
 31 54  1  0
M  END
>  <smiles>  (40) 
O=C(NCC(=O)N1CCC[C@H]1c1nc(-c2ccccc2)co1)c1ccc2cc(Cl)ccc2n1

>  <score_type>  (40) 
oracle

>  <origin>  (40) 
autodockgpu

>  <m_score__min__energy>  (40) 
-9.4000000000000004

>  <m_primary>  (40) 
energy

>  <rmsd>  (40) 
5.286814919462496

>  <m_score__min__rmsd>  (40) 
5.286814919462496

>  <meeko>  (40) 
{"free_energy": -9.4, "intermolecular_energy": -11.19, "internal_energy": -2.09, "cluster_size": 4, "cluster_id": 1, "rank_in_cluster": 1}

>  <energy>  (40) 
-6.78

>  <cluster_rmsd>  (40) 
0.11

>  <cluster>  (40) 
12

$$$$

     RDKit          3D

 54 58  0  0  0  0  0  0  0  0999 V2000
  140.5570   72.7190  220.9870 O   0  0  0  0  0  0  0  0  0  0  0  0
  139.8650   72.8800  222.0490 C   0  0  0  0  0  0  0  0  0  0  0  0
  139.0280   74.0010  222.1310 N   0  0  0  0  0  0  0  0  0  0  0  0
  138.9130   74.9840  221.0710 C   0  0  0  0  0  0  0  0  0  0  0  0
  138.7800   76.3570  221.5960 C   0  0  0  0  0  0  0  0  0  0  0  0
  137.7110   76.8410  222.0490 O   0  0  0  0  0  0  0  0  0  0  0  0
  139.9400   77.1800  221.5860 N   0  0  0  0  0  0  0  0  0  0  0  0
  140.8210   77.3700  222.7440 C   0  0  0  0  0  0  0  0  0  0  0  0
  141.4860   78.7170  222.5530 C   0  0  0  0  0  0  0  0  0  0  0  0
  140.8730   79.2410  221.2500 C   0  0  0  0  0  0  0  0  0  0  0  0
  140.4850   77.9700  220.5040 C   0  0  1  0  0  0  0  0  0  0  0  0
  141.6990   77.2950  219.9720 C   0  0  0  0  0  0  0  0  0  0  0  0
  142.0750   76.0630  220.3890 N   0  0  0  0  0  0  0  0  0  0  0  0
  143.2050   75.7180  219.7320 C   0  0  0  0  0  0  0  0  0  0  0  0
  143.8750   74.4440  219.9530 C   0  0  0  0  0  0  0  0  0  0  0  0
  143.2070   73.2820  219.6310 C   0  0  0  0  0  0  0  0  0  0  0  0
  143.7990   72.0280  219.8200 C   0  0  0  0  0  0  0  0  0  0  0  0
  145.0760   71.9590  220.3380 C   0  0  0  0  0  0  0  0  0  0  0  0
  145.7500   73.1130  220.6620 C   0  0  0  0  0  0  0  0  0  0  0  0
  145.1460   74.3500  220.4680 C   0  0  0  0  0  0  0  0  0  0  0  0
  143.5000   76.7630  218.9150 C   0  0  0  0  0  0  0  0  0  0  0  0
  142.5700   77.6850  219.0920 O   0  0  0  0  0  0  0  0  0  0  0  0
  139.9590   71.9060  223.1350 C   0  0  0  0  0  0  0  0  0  0  0  0
  139.5520   70.5980  222.9100 C   0  0  0  0  0  0  0  0  0  0  0  0
  139.6320   69.6580  223.9200 C   0  0  0  0  0  0  0  0  0  0  0  0
  140.1230   70.0370  225.1620 C   0  0  0  0  0  0  0  0  0  0  0  0
  140.2220   69.1300  226.2070 C   0  0  0  0  0  0  0  0  0  0  0  0
  140.7170   69.5390  227.4350 C   0  0  0  0  0  0  0  0  0  0  0  0
  140.8120   68.3240  228.7150 Cl  0  0  0  0  0  0  0  0  0  0  0  0
  141.1170   70.8450  227.6410 C   0  0  0  0  0  0  0  0  0  0  0  0
  141.0200   71.7560  226.5990 C   0  0  0  0  0  0  0  0  0  0  0  0
  140.5280   71.3530  225.3750 C   0  0  0  0  0  0  0  0  0  0  0  0
  140.4270   72.2150  224.3570 N   0  0  0  0  0  0  0  0  0  0  0  0
  138.4560   74.1520  222.9840 H   0  0  0  0  0  0  0  0  0  0  0  0
  139.8126   74.9316  220.4401 H   0  0  0  0  0  0  0  0  0  0  0  0
  138.0053   74.7537  220.4939 H   0  0  0  0  0  0  0  0  0  0  0  0
  140.2344   77.3630  223.6745 H   0  0  0  0  0  0  0  0  0  0  0  0
  141.5647   76.5629  222.8183 H   0  0  0  0  0  0  0  0  0  0  0  0
  141.2579   79.3900  223.3926 H   0  0  0  0  0  0  0  0  0  0  0  0
  142.5832   78.6496  222.5120 H   0  0  0  0  0  0  0  0  0  0  0  0
  139.9889   79.8630  221.4535 H   0  0  0  0  0  0  0  0  0  0  0  0
  141.5622   79.8801  220.6786 H   0  0  0  0  0  0  0  0  0  0  0  0
  139.8112   78.1312  219.6496 H   0  0  0  0  0  0  0  0  0  0  0  0
  142.1894   73.3415  219.2176 H   0  0  0  0  0  0  0  0  0  0  0  0
  143.2533   71.1093  219.5590 H   0  0  0  0  0  0  0  0  0  0  0  0
  145.5550   70.9808  220.4918 H   0  0  0  0  0  0  0  0  0  0  0  0
  146.7680   73.0573  221.0751 H   0  0  0  0  0  0  0  0  0  0  0  0
  145.6934   75.2673  220.7306 H   0  0  0  0  0  0  0  0  0  0  0  0
  144.3581   76.8295  218.2299 H   0  0  0  0  0  0  0  0  0  0  0  0
  139.1637   70.3081  221.9225 H   0  0  0  0  0  0  0  0  0  0  0  0
  139.3103   68.6213  223.7418 H   0  0  0  0  0  0  0  0  0  0  0  0
  139.9076   68.0861  226.0608 H   0  0  0  0  0  0  0  0  0  0  0  0
  141.5080   71.1592  228.6200 H   0  0  0  0  0  0  0  0  0  0  0  0
  141.3353   72.7991  226.7489 H   0  0  0  0  0  0  0  0  0  0  0  0
  1  2  2  0
  2  3  1  0
  3  4  1  0
  4  5  1  0
  5  6  2  0
  5  7  1  0
  7  8  1  0
  8  9  1  0
  9 10  1  0
 10 11  1  0
 11 12  1  0
 12 13  2  0
 13 14  1  0
 14 15  1  0
 15 16  2  0
 16 17  1  0
 17 18  2  0
 18 19  1  0
 19 20  2  0
 14 21  2  0
 21 22  1  0
  2 23  1  0
 23 24  2  0
 24 25  1  0
 25 26  2  0
 26 27  1  0
 27 28  2  0
 28 29  1  0
 28 30  1  0
 30 31  2  0
 31 32  1  0
 32 33  2  0
 11  7  1  0
 22 12  1  0
 33 23  1  0
 20 15  1  0
 32 26  1  0
  3 34  1  0
  4 35  1  0
  4 36  1  0
  8 37  1  0
  8 38  1  0
  9 39  1  0
  9 40  1  0
 10 41  1  0
 10 42  1  0
 11 43  1  6
 16 44  1  0
 17 45  1  0
 18 46  1  0
 19 47  1  0
 20 48  1  0
 21 49  1  0
 24 50  1  0
 25 51  1  0
 27 52  1  0
 30 53  1  0
 31 54  1  0
M  END
>  <smiles>  (41) 
O=C(NCC(=O)N1CCC[C@H]1c1nc(-c2ccccc2)co1)c1ccc2cc(Cl)ccc2n1

>  <score_type>  (41) 
oracle

>  <origin>  (41) 
autodockgpu

>  <m_score__min__energy>  (41) 
-9.4000000000000004

>  <m_primary>  (41) 
energy

>  <rmsd>  (41) 
5.2915513814986435

>  <m_score__min__rmsd>  (41) 
5.2915513814986435

>  <meeko>  (41) 
{"free_energy": -9.17, "intermolecular_energy": -10.96, "internal_energy": -2.13, "cluster_size": 4, "cluster_id": 1, "rank_in_cluster": 2}

>  <energy>  (41) 
-6.76

>  <cluster_rmsd>  (41) 
0.26

>  <cluster>  (41) 
12

$$$$

     RDKit          3D

 54 58  0  0  0  0  0  0  0  0999 V2000
  137.5840   70.9570  221.1130 O   0  0  0  0  0  0  0  0  0  0  0  0
  137.9800   71.5470  222.1760 C   0  0  0  0  0  0  0  0  0  0  0  0
  137.8840   72.9440  222.2340 N   0  0  0  0  0  0  0  0  0  0  0  0
  137.3580   73.7480  221.1460 C   0  0  0  0  0  0  0  0  0  0  0  0
  138.2610   73.7630  219.9790 C   0  0  0  0  0  0  0  0  0  0  0  0
  137.8880   73.5750  218.7920 O   0  0  0  0  0  0  0  0  0  0  0  0
  139.6420   74.0070  220.2190 N   0  0  0  0  0  0  0  0  0  0  0  0
  140.7020   73.7650  219.2330 C   0  0  0  0  0  0  0  0  0  0  0  0
  141.9690   73.5240  220.0260 C   0  0  0  0  0  0  0  0  0  0  0  0
  141.5070   73.6140  221.4840 C   0  0  0  0  0  0  0  0  0  0  0  0
  140.2810   74.5170  221.4120 C   0  0  1  0  0  0  0  0  0  0  0  0
  140.6940   75.9270  221.1780 C   0  0  0  0  0  0  0  0  0  0  0  0
  140.9230   76.7860  222.2000 N   0  0  0  0  0  0  0  0  0  0  0  0
  141.2790   77.9810  221.6780 C   0  0  0  0  0  0  0  0  0  0  0  0
  141.5960   79.1310  222.5130 C   0  0  0  0  0  0  0  0  0  0  0  0
  142.9200   79.4060  222.7840 C   0  0  0  0  0  0  0  0  0  0  0  0
  143.2860   80.4970  223.5800 C   0  0  0  0  0  0  0  0  0  0  0  0
  142.3010   81.3110  224.1000 C   0  0  0  0  0  0  0  0  0  0  0  0
  140.9780   81.0440  223.8340 C   0  0  0  0  0  0  0  0  0  0  0  0
  140.6330   79.9560  223.0420 C   0  0  0  0  0  0  0  0  0  0  0  0
  141.2590   77.8240  220.3290 C   0  0  0  0  0  0  0  0  0  0  0  0
  140.9030   76.5780  220.0740 O   0  0  0  0  0  0  0  0  0  0  0  0
  138.5140   70.7640  223.2880 C   0  0  0  0  0  0  0  0  0  0  0  0
  138.3090   69.3910  223.3110 C   0  0  0  0  0  0  0  0  0  0  0  0
  138.8040   68.6280  224.3520 C   0  0  0  0  0  0  0  0  0  0  0  0
  139.5090   69.2500  225.3740 C   0  0  0  0  0  0  0  0  0  0  0  0
  140.0250   68.5270  226.4390 C   0  0  0  0  0  0  0  0  0  0  0  0
  140.7240   69.1770  227.4440 C   0  0  0  0  0  0  0  0  0  0  0  0
  141.3500   68.1860  228.7660 Cl  0  0  0  0  0  0  0  0  0  0  0  0
  140.9180   70.5440  227.4050 C   0  0  0  0  0  0  0  0  0  0  0  0
  140.4030   71.2720  226.3410 C   0  0  0  0  0  0  0  0  0  0  0  0
  139.7070   70.6290  225.3390 C   0  0  0  0  0  0  0  0  0  0  0  0
  139.2030   71.3110  224.3050 N   0  0  0  0  0  0  0  0  0  0  0  0
  138.1990   73.4440  223.0870 H   0  0  0  0  0  0  0  0  0  0  0  0
  136.3865   73.3347  220.8373 H   0  0  0  0  0  0  0  0  0  0  0  0
  137.2556   74.7817  221.5079 H   0  0  0  0  0  0  0  0  0  0  0  0
  140.4606   72.8825  218.6224 H   0  0  0  0  0  0  0  0  0  0  0  0
  140.8142   74.6178  218.5474 H   0  0  0  0  0  0  0  0  0  0  0  0
  142.3857   72.5298  219.8071 H   0  0  0  0  0  0  0  0  0  0  0  0
  142.7657   74.2434  219.7859 H   0  0  0  0  0  0  0  0  0  0  0  0
  141.2416   72.6206  221.8746 H   0  0  0  0  0  0  0  0  0  0  0  0
  142.2858   74.0007  222.1578 H   0  0  0  0  0  0  0  0  0  0  0  0
  139.6596   74.5144  222.3197 H   0  0  0  0  0  0  0  0  0  0  0  0
  143.7028   78.7556  222.3666 H   0  0  0  0  0  0  0  0  0  0  0  0
  144.3462   80.7031  223.7886 H   0  0  0  0  0  0  0  0  0  0  0  0
  142.5733   82.1729  224.7269 H   0  0  0  0  0  0  0  0  0  0  0  0
  140.1924   81.6927  224.2488 H   0  0  0  0  0  0  0  0  0  0  0  0
  139.5721   79.7518  222.8352 H   0  0  0  0  0  0  0  0  0  0  0  0
  141.4967   78.5963  219.5826 H   0  0  0  0  0  0  0  0  0  0  0  0
  137.7496   68.9077  222.4964 H   0  0  0  0  0  0  0  0  0  0  0  0
  138.6413   67.5403  224.3706 H   0  0  0  0  0  0  0  0  0  0  0  0
  139.8795   67.4377  226.4862 H   0  0  0  0  0  0  0  0  0  0  0  0
  141.4742   71.0500  228.2078 H   0  0  0  0  0  0  0  0  0  0  0  0
  140.5500   72.3613  226.2972 H   0  0  0  0  0  0  0  0  0  0  0  0
  1  2  2  0
  2  3  1  0
  3  4  1  0
  4  5  1  0
  5  6  2  0
  5  7  1  0
  7  8  1  0
  8  9  1  0
  9 10  1  0
 10 11  1  0
 11 12  1  0
 12 13  2  0
 13 14  1  0
 14 15  1  0
 15 16  2  0
 16 17  1  0
 17 18  2  0
 18 19  1  0
 19 20  2  0
 14 21  2  0
 21 22  1  0
  2 23  1  0
 23 24  2  0
 24 25  1  0
 25 26  2  0
 26 27  1  0
 27 28  2  0
 28 29  1  0
 28 30  1  0
 30 31  2  0
 31 32  1  0
 32 33  2  0
 11  7  1  0
 22 12  1  0
 33 23  1  0
 20 15  1  0
 32 26  1  0
  3 34  1  0
  4 35  1  0
  4 36  1  0
  8 37  1  0
  8 38  1  0
  9 39  1  0
  9 40  1  0
 10 41  1  0
 10 42  1  0
 11 43  1  1
 16 44  1  0
 17 45  1  0
 18 46  1  0
 19 47  1  0
 20 48  1  0
 21 49  1  0
 24 50  1  0
 25 51  1  0
 27 52  1  0
 30 53  1  0
 31 54  1  0
M  END
>  <smiles>  (42) 
O=C(NCC(=O)N1CCC[C@H]1c1nc(-c2ccccc2)co1)c1ccc2cc(Cl)ccc2n1

>  <score_type>  (42) 
oracle

>  <origin>  (42) 
autodockgpu

>  <m_score__min__energy>  (42) 
-9.4000000000000004

>  <m_primary>  (42) 
energy

>  <rmsd>  (42) 
3.002580506618836

>  <m_score__min__rmsd>  (42) 
3.002580506618836

>  <meeko>  (42) 
{"free_energy": -8.65, "intermolecular_energy": -10.44, "internal_energy": -1.99, "cluster_size": 12, "cluster_id": 2, "rank_in_cluster": 7}

>  <energy>  (42) 
-6.44

>  <cluster_rmsd>  (42) 
0.65

>  <cluster>  (42) 
12

$$$$

     RDKit          3D

 54 58  0  0  0  0  0  0  0  0999 V2000
  138.1800   75.4860  222.4320 O   0  0  0  0  0  0  0  0  0  0  0  0
  139.3500   75.8910  222.1150 C   0  0  0  0  0  0  0  0  0  0  0  0
  139.6310   77.2590  222.2290 N   0  0  0  0  0  0  0  0  0  0  0  0
  138.6580   78.2330  222.6870 C   0  0  0  0  0  0  0  0  0  0  0  0
  139.2840   79.3210  223.4640 C   0  0  0  0  0  0  0  0  0  0  0  0
  138.7300   79.9120  224.4270 O   0  0  0  0  0  0  0  0  0  0  0  0
  140.5970   79.7220  223.0940 N   0  0  0  0  0  0  0  0  0  0  0  0
  141.8170   79.0200  223.5090 C   0  0  0  0  0  0  0  0  0  0  0  0
  142.9280   80.0490  223.4820 C   0  0  0  0  0  0  0  0  0  0  0  0
  142.2140   81.3400  223.0680 C   0  0  0  0  0  0  0  0  0  0  0  0
  141.0100   80.8430  222.2770 C   0  0  1  0  0  0  0  0  0  0  0  0
  141.4410   80.3410  220.9450 C   0  0  0  0  0  0  0  0  0  0  0  0
  141.3510   79.0320  220.6090 N   0  0  0  0  0  0  0  0  0  0  0  0
  141.8140   78.8850  219.3470 C   0  0  0  0  0  0  0  0  0  0  0  0
  141.8560   77.5920  218.6790 C   0  0  0  0  0  0  0  0  0  0  0  0
  143.0240   77.2080  218.0550 C   0  0  0  0  0  0  0  0  0  0  0  0
  143.1250   75.9770  217.3970 C   0  0  0  0  0  0  0  0  0  0  0  0
  142.0330   75.1340  217.3770 C   0  0  0  0  0  0  0  0  0  0  0  0
  140.8640   75.5090  217.9970 C   0  0  0  0  0  0  0  0  0  0  0  0
  140.7820   76.7350  218.6450 C   0  0  0  0  0  0  0  0  0  0  0  0
  142.1830   80.1260  218.9340 C   0  0  0  0  0  0  0  0  0  0  0  0
  141.9410   80.9670  219.9240 O   0  0  0  0  0  0  0  0  0  0  0  0
  140.3510   74.9340  221.6500 C   0  0  0  0  0  0  0  0  0  0  0  0
  140.0260   73.5860  221.5930 C   0  0  0  0  0  0  0  0  0  0  0  0
  140.9550   72.6600  221.1560 C   0  0  0  0  0  0  0  0  0  0  0  0
  142.2170   73.0940  220.7750 C   0  0  0  0  0  0  0  0  0  0  0  0
  143.1830   72.2040  220.3290 C   0  0  0  0  0  0  0  0  0  0  0  0
  144.4340   72.6700  219.9560 C   0  0  0  0  0  0  0  0  0  0  0  0
  145.6100   71.4730  219.4000 Cl  0  0  0  0  0  0  0  0  0  0  0  0
  144.7410   74.0150  220.0190 C   0  0  0  0  0  0  0  0  0  0  0  0
  143.7770   74.9090  220.4640 C   0  0  0  0  0  0  0  0  0  0  0  0
  142.5310   74.4510  220.8370 C   0  0  0  0  0  0  0  0  0  0  0  0
  141.5880   75.2960  221.2680 N   0  0  0  0  0  0  0  0  0  0  0  0
  140.5740   77.6110  221.9770 H   0  0  0  0  0  0  0  0  0  0  0  0
  138.1525   78.6676  221.8120 H   0  0  0  0  0  0  0  0  0  0  0  0
  137.9441   77.7150  223.3443 H   0  0  0  0  0  0  0  0  0  0  0  0
  141.6970   78.6153  224.5248 H   0  0  0  0  0  0  0  0  0  0  0  0
  142.0386   78.1739  222.8419 H   0  0  0  0  0  0  0  0  0  0  0  0
  143.3883   80.1561  224.4753 H   0  0  0  0  0  0  0  0  0  0  0  0
  143.7467   79.7760  222.8000 H   0  0  0  0  0  0  0  0  0  0  0  0
  141.8949   81.9133  223.9509 H   0  0  0  0  0  0  0  0  0  0  0  0
  142.8572   82.0181  222.4880 H   0  0  0  0  0  0  0  0  0  0  0  0
  140.2388   81.6059  222.0946 H   0  0  0  0  0  0  0  0  0  0  0  0
  143.8930   77.8821  218.0747 H   0  0  0  0  0  0  0  0  0  0  0  0
  144.0631   75.6853  216.9021 H   0  0  0  0  0  0  0  0  0  0  0  0
  142.0973   74.1623  216.8654 H   0  0  0  0  0  0  0  0  0  0  0  0
  139.9930   74.8374  217.9797 H   0  0  0  0  0  0  0  0  0  0  0  0
  139.8426   77.0245  219.1387 H   0  0  0  0  0  0  0  0  0  0  0  0
  142.6069   80.3839  217.9523 H   0  0  0  0  0  0  0  0  0  0  0  0
  139.0230   73.2522  221.8974 H   0  0  0  0  0  0  0  0  0  0  0  0
  140.6969   71.5917  221.1108 H   0  0  0  0  0  0  0  0  0  0  0  0
  142.9564   71.1291  220.2714 H   0  0  0  0  0  0  0  0  0  0  0  0
  145.7371   74.3734  219.7202 H   0  0  0  0  0  0  0  0  0  0  0  0
  144.0071   75.9833  220.5191 H   0  0  0  0  0  0  0  0  0  0  0  0
  1  2  2  0
  2  3  1  0
  3  4  1  0
  4  5  1  0
  5  6  2  0
  5  7  1  0
  7  8  1  0
  8  9  1  0
  9 10  1  0
 10 11  1  0
 11 12  1  0
 12 13  2  0
 13 14  1  0
 14 15  1  0
 15 16  2  0
 16 17  1  0
 17 18  2  0
 18 19  1  0
 19 20  2  0
 14 21  2  0
 21 22  1  0
  2 23  1  0
 23 24  2  0
 24 25  1  0
 25 26  2  0
 26 27  1  0
 27 28  2  0
 28 29  1  0
 28 30  1  0
 30 31  2  0
 31 32  1  0
 32 33  2  0
 11  7  1  0
 22 12  1  0
 33 23  1  0
 20 15  1  0
 32 26  1  0
  3 34  1  0
  4 35  1  0
  4 36  1  0
  8 37  1  0
  8 38  1  0
  9 39  1  0
  9 40  1  0
 10 41  1  0
 10 42  1  0
 11 43  1  6
 16 44  1  0
 17 45  1  0
 18 46  1  0
 19 47  1  0
 20 48  1  0
 21 49  1  0
 24 50  1  0
 25 51  1  0
 27 52  1  0
 30 53  1  0
 31 54  1  0
M  END
>  <smiles>  (43) 
O=C(NCC(=O)N1CCC[C@H]1c1nc(-c2ccccc2)co1)c1ccc2cc(Cl)ccc2n1

>  <score_type>  (43) 
oracle

>  <origin>  (43) 
autodockgpu

>  <m_score__min__energy>  (43) 
-9.4000000000000004

>  <m_primary>  (43) 
energy

>  <rmsd>  (43) 
6.550593490981115

>  <m_score__min__rmsd>  (43) 
6.550593490981115

>  <meeko>  (43) 
{"free_energy": -6.87, "intermolecular_energy": -8.66, "internal_energy": -4.17, "cluster_size": 9, "cluster_id": 11, "rank_in_cluster": 2}

>  <energy>  (43) 
-6.4

>  <cluster_rmsd>  (43) 
1.91

>  <cluster>  (43) 
12

$$$$

     RDKit          3D

 54 58  0  0  0  0  0  0  0  0999 V2000
  139.9440   75.0850  222.1560 O   0  0  0  0  0  0  0  0  0  0  0  0
  139.4240   76.1480  221.6740 C   0  0  0  0  0  0  0  0  0  0  0  0
  138.0680   76.3970  221.9300 N   0  0  0  0  0  0  0  0  0  0  0  0
  137.2330   75.5050  222.7110 C   0  0  0  0  0  0  0  0  0  0  0  0
  135.8010   75.8490  222.6050 C   0  0  0  0  0  0  0  0  0  0  0  0
  134.9170   75.0720  222.1590 O   0  0  0  0  0  0  0  0  0  0  0  0
  135.4020   77.1430  223.0380 N   0  0  0  0  0  0  0  0  0  0  0  0
  134.7170   77.4100  224.3080 C   0  0  0  0  0  0  0  0  0  0  0  0
  133.9330   78.6900  224.1050 C   0  0  0  0  0  0  0  0  0  0  0  0
  134.2120   79.0570  222.6440 C   0  0  0  0  0  0  0  0  0  0  0  0
  135.5680   78.4160  222.3700 C   0  0  1  0  0  0  0  0  0  0  0  0
  136.6470   79.1840  223.0470 C   0  0  0  0  0  0  0  0  0  0  0  0
  137.9480   79.0550  222.6960 N   0  0  0  0  0  0  0  0  0  0  0  0
  138.6840   79.8720  223.4830 C   0  0  0  0  0  0  0  0  0  0  0  0
  140.1320   79.9710  223.3630 C   0  0  0  0  0  0  0  0  0  0  0  0
  140.6840   81.1870  223.0220 C   0  0  0  0  0  0  0  0  0  0  0  0
  142.0690   81.3440  222.8910 C   0  0  0  0  0  0  0  0  0  0  0  0
  142.8920   80.2590  223.1110 C   0  0  0  0  0  0  0  0  0  0  0  0
  142.3490   79.0420  223.4520 C   0  0  0  0  0  0  0  0  0  0  0  0
  140.9720   78.9050  223.5760 C   0  0  0  0  0  0  0  0  0  0  0  0
  137.8030   80.4920  224.3100 C   0  0  0  0  0  0  0  0  0  0  0  0
  136.5940   80.0500  224.0130 O   0  0  0  0  0  0  0  0  0  0  0  0
  140.2410   77.0660  220.8840 C   0  0  0  0  0  0  0  0  0  0  0  0
  141.4790   76.6440  220.4190 C   0  0  0  0  0  0  0  0  0  0  0  0
  142.2700   77.4940  219.6690 C   0  0  0  0  0  0  0  0  0  0  0  0
  141.8130   78.7730  219.3850 C   0  0  0  0  0  0  0  0  0  0  0  0
  142.5700   79.6620  218.6360 C   0  0  0  0  0  0  0  0  0  0  0  0
  142.0860   80.9320  218.3700 C   0  0  0  0  0  0  0  0  0  0  0  0
  143.1110   82.0050  217.4100 Cl  0  0  0  0  0  0  0  0  0  0  0  0
  140.8520   81.3360  218.8410 C   0  0  0  0  0  0  0  0  0  0  0  0
  140.0900   80.4510  219.5910 C   0  0  0  0  0  0  0  0  0  0  0  0
  140.5680   79.1850  219.8580 C   0  0  0  0  0  0  0  0  0  0  0  0
  139.8500   78.3160  220.5780 N   0  0  0  0  0  0  0  0  0  0  0  0
  137.6240   77.2540  221.5490 H   0  0  0  0  0  0  0  0  0  0  0  0
  137.3783   74.4762  222.3497 H   0  0  0  0  0  0  0  0  0  0  0  0
  137.5275   75.6030  223.7663 H   0  0  0  0  0  0  0  0  0  0  0  0
  134.0370   76.5817  224.5558 H   0  0  0  0  0  0  0  0  0  0  0  0
  135.4335   77.5063  225.1371 H   0  0  0  0  0  0  0  0  0  0  0  0
  132.8583   78.5223  224.2693 H   0  0  0  0  0  0  0  0  0  0  0  0
  134.2237   79.4847  224.8078 H   0  0  0  0  0  0  0  0  0  0  0  0
  133.4394   78.6423  221.9798 H   0  0  0  0  0  0  0  0  0  0  0  0
  134.2069   80.1425  222.4659 H   0  0  0  0  0  0  0  0  0  0  0  0
  135.8386   78.3606  221.3052 H   0  0  0  0  0  0  0  0  0  0  0  0
  140.0242   82.0501  222.8496 H   0  0  0  0  0  0  0  0  0  0  0  0
  142.4955   82.3200  222.6162 H   0  0  0  0  0  0  0  0  0  0  0  0
  143.9824   80.3670  223.0137 H   0  0  0  0  0  0  0  0  0  0  0  0
  143.0054   78.1768  223.6266 H   0  0  0  0  0  0  0  0  0  0  0  0
  140.5477   77.9276  223.8490 H   0  0  0  0  0  0  0  0  0  0  0  0
  138.0514   81.2296  225.0873 H   0  0  0  0  0  0  0  0  0  0  0  0
  141.8324   75.6279  220.6486 H   0  0  0  0  0  0  0  0  0  0  0  0
  143.2514   77.1600  219.3012 H   0  0  0  0  0  0  0  0  0  0  0  0
  143.5554   79.3580  218.2531 H   0  0  0  0  0  0  0  0  0  0  0  0
  140.4776   82.3473  218.6242 H   0  0  0  0  0  0  0  0  0  0  0  0
  139.1053   80.7591  219.9723 H   0  0  0  0  0  0  0  0  0  0  0  0
  1  2  2  0
  2  3  1  0
  3  4  1  0
  4  5  1  0
  5  6  2  0
  5  7  1  0
  7  8  1  0
  8  9  1  0
  9 10  1  0
 10 11  1  0
 11 12  1  0
 12 13  2  0
 13 14  1  0
 14 15  1  0
 15 16  2  0
 16 17  1  0
 17 18  2  0
 18 19  1  0
 19 20  2  0
 14 21  2  0
 21 22  1  0
  2 23  1  0
 23 24  2  0
 24 25  1  0
 25 26  2  0
 26 27  1  0
 27 28  2  0
 28 29  1  0
 28 30  1  0
 30 31  2  0
 31 32  1  0
 32 33  2  0
 11  7  1  0
 22 12  1  0
 33 23  1  0
 20 15  1  0
 32 26  1  0
  3 34  1  0
  4 35  1  0
  4 36  1  0
  8 37  1  0
  8 38  1  0
  9 39  1  0
  9 40  1  0
 10 41  1  0
 10 42  1  0
 11 43  1  6
 16 44  1  0
 17 45  1  0
 18 46  1  0
 19 47  1  0
 20 48  1  0
 21 49  1  0
 24 50  1  0
 25 51  1  0
 27 52  1  0
 30 53  1  0
 31 54  1  0
M  END
>  <smiles>  (44) 
O=C(NCC(=O)N1CCC[C@H]1c1nc(-c2ccccc2)co1)c1ccc2cc(Cl)ccc2n1

>  <score_type>  (44) 
oracle

>  <origin>  (44) 
autodockgpu

>  <m_score__min__energy>  (44) 
-9.4000000000000004

>  <m_primary>  (44) 
energy

>  <rmsd>  (44) 
8.083005029590307

>  <m_score__min__rmsd>  (44) 
8.083005029590307

>  <meeko>  (44) 
{"free_energy": -6.37, "intermolecular_energy": -8.16, "internal_energy": -4.25, "cluster_size": 3, "cluster_id": 14, "rank_in_cluster": 2}

>  <energy>  (44) 
-6.35

>  <cluster_rmsd>  (44) 
0.74

>  <cluster>  (44) 
12

$$$$

     RDKit          3D

 54 58  0  0  0  0  0  0  0  0999 V2000
  140.0190   72.4520  220.7210 O   0  0  0  0  0  0  0  0  0  0  0  0
  139.7790   72.8380  221.9160 C   0  0  0  0  0  0  0  0  0  0  0  0
  139.4290   74.1790  222.1210 N   0  0  0  0  0  0  0  0  0  0  0  0
  139.3290   75.1460  221.0440 C   0  0  0  0  0  0  0  0  0  0  0  0
  137.9270   75.4930  220.7360 C   0  0  0  0  0  0  0  0  0  0  0  0
  137.3480   75.2090  219.6560 O   0  0  0  0  0  0  0  0  0  0  0  0
  137.1900   76.1940  221.7300 N   0  0  0  0  0  0  0  0  0  0  0  0
  136.9420   75.6820  223.0820 C   0  0  0  0  0  0  0  0  0  0  0  0
  135.6700   76.3490  223.5610 C   0  0  0  0  0  0  0  0  0  0  0  0
  135.2420   77.2100  222.3680 C   0  0  0  0  0  0  0  0  0  0  0  0
  136.5540   77.4910  221.6450 C   0  0  1  0  0  0  0  0  0  0  0  0
  137.3620   78.4800  222.4080 C   0  0  0  0  0  0  0  0  0  0  0  0
  138.7100   78.5370  222.3050 N   0  0  0  0  0  0  0  0  0  0  0  0
  139.1570   79.5270  223.1110 C   0  0  0  0  0  0  0  0  0  0  0  0
  140.5710   79.8520  223.2330 C   0  0  0  0  0  0  0  0  0  0  0  0
  140.9250   81.0370  223.8430 C   0  0  0  0  0  0  0  0  0  0  0  0
  142.2680   81.4040  223.9900 C   0  0  0  0  0  0  0  0  0  0  0  0
  143.2510   80.5610  223.5160 C   0  0  0  0  0  0  0  0  0  0  0  0
  142.9060   79.3770  222.9060 C   0  0  0  0  0  0  0  0  0  0  0  0
  141.5680   79.0290  222.7680 C   0  0  0  0  0  0  0  0  0  0  0  0
  138.0540   80.0610  223.6980 C   0  0  0  0  0  0  0  0  0  0  0  0
  137.0010   79.4030  223.2480 O   0  0  0  0  0  0  0  0  0  0  0  0
  139.8720   71.8870  223.0210 C   0  0  0  0  0  0  0  0  0  0  0  0
  139.4380   70.5820  222.8310 C   0  0  0  0  0  0  0  0  0  0  0  0
  139.5160   69.6630  223.8610 C   0  0  0  0  0  0  0  0  0  0  0  0
  140.0320   70.0600  225.0870 C   0  0  0  0  0  0  0  0  0  0  0  0
  140.1300   69.1750  226.1510 C   0  0  0  0  0  0  0  0  0  0  0  0
  140.6500   69.6020  227.3620 C   0  0  0  0  0  0  0  0  0  0  0  0
  140.7410   68.4140  228.6670 Cl  0  0  0  0  0  0  0  0  0  0  0  0
  141.0760   70.9050  227.5330 C   0  0  0  0  0  0  0  0  0  0  0  0
  140.9790   71.7940  226.4720 C   0  0  0  0  0  0  0  0  0  0  0  0
  140.4630   71.3730  225.2650 C   0  0  0  0  0  0  0  0  0  0  0  0
  140.3620   72.2140  224.2290 N   0  0  0  0  0  0  0  0  0  0  0  0
  139.2290   74.5150  223.0820 H   0  0  0  0  0  0  0  0  0  0  0  0
  139.8642   76.0609  221.3382 H   0  0  0  0  0  0  0  0  0  0  0  0
  139.7719   74.6961  220.1432 H   0  0  0  0  0  0  0  0  0  0  0  0
  136.8139   74.5897  223.0583 H   0  0  0  0  0  0  0  0  0  0  0  0
  137.7856   75.8998  223.7535 H   0  0  0  0  0  0  0  0  0  0  0  0
  134.9006   75.6004  223.8009 H   0  0  0  0  0  0  0  0  0  0  0  0
  135.8154   76.9353  224.4803 H   0  0  0  0  0  0  0  0  0  0  0  0
  134.5440   76.6623  221.7178 H   0  0  0  0  0  0  0  0  0  0  0  0
  134.7128   78.1264  222.6682 H   0  0  0  0  0  0  0  0  0  0  0  0
  136.4356   77.8950  220.6288 H   0  0  0  0  0  0  0  0  0  0  0  0
  140.1379   81.7060  224.2209 H   0  0  0  0  0  0  0  0  0  0  0  0
  142.5358   82.3530  224.4775 H   0  0  0  0  0  0  0  0  0  0  0  0
  144.3107   80.8351  223.6256 H   0  0  0  0  0  0  0  0  0  0  0  0
  143.6903   78.7052  222.5272 H   0  0  0  0  0  0  0  0  0  0  0  0
  141.3029   78.0800  222.2790 H   0  0  0  0  0  0  0  0  0  0  0  0
  138.0405   80.8920  224.4186 H   0  0  0  0  0  0  0  0  0  0  0  0
  139.0300   70.2776  221.8559 H   0  0  0  0  0  0  0  0  0  0  0  0
  139.1730   68.6287  223.7106 H   0  0  0  0  0  0  0  0  0  0  0  0
  139.7947   68.1340  226.0330 H   0  0  0  0  0  0  0  0  0  0  0  0
  141.4872   71.2339  228.4988 H   0  0  0  0  0  0  0  0  0  0  0  0
  141.3139   72.8347  226.5940 H   0  0  0  0  0  0  0  0  0  0  0  0
  1  2  2  0
  2  3  1  0
  3  4  1  0
  4  5  1  0
  5  6  2  0
  5  7  1  0
  7  8  1  0
  8  9  1  0
  9 10  1  0
 10 11  1  0
 11 12  1  0
 12 13  2  0
 13 14  1  0
 14 15  1  0
 15 16  2  0
 16 17  1  0
 17 18  2  0
 18 19  1  0
 19 20  2  0
 14 21  2  0
 21 22  1  0
  2 23  1  0
 23 24  2  0
 24 25  1  0
 25 26  2  0
 26 27  1  0
 27 28  2  0
 28 29  1  0
 28 30  1  0
 30 31  2  0
 31 32  1  0
 32 33  2  0
 11  7  1  0
 22 12  1  0
 33 23  1  0
 20 15  1  0
 32 26  1  0
  3 34  1  0
  4 35  1  0
  4 36  1  0
  8 37  1  0
  8 38  1  0
  9 39  1  0
  9 40  1  0
 10 41  1  0
 10 42  1  0
 11 43  1  6
 16 44  1  0
 17 45  1  0
 18 46  1  0
 19 47  1  0
 20 48  1  0
 21 49  1  0
 24 50  1  0
 25 51  1  0
 27 52  1  0
 30 53  1  0
 31 54  1  0
M  END
>  <smiles>  (45) 
O=C(NCC(=O)N1CCC[C@H]1c1nc(-c2ccccc2)co1)c1ccc2cc(Cl)ccc2n1

>  <score_type>  (45) 
oracle

>  <origin>  (45) 
autodockgpu

>  <m_score__min__energy>  (45) 
-9.4000000000000004

>  <m_primary>  (45) 
energy

>  <rmsd>  (45) 
3.912646795438647

>  <m_score__min__rmsd>  (45) 
3.912646795438647

>  <meeko>  (45) 
{"free_energy": -9.06, "intermolecular_energy": -10.85, "internal_energy": -1.77, "cluster_size": 1, "cluster_id": 4, "rank_in_cluster": 1}

>  <energy>  (45) 
-6.16

>  <cluster_rmsd>  (45) 
0.81

>  <cluster>  (45) 
12

$$$$

     RDKit          3D

 54 58  0  0  0  0  0  0  0  0999 V2000
  139.9480   73.6710  222.3980 O   0  0  0  0  0  0  0  0  0  0  0  0
  139.4310   72.5030  222.3400 C   0  0  0  0  0  0  0  0  0  0  0  0
  138.6660   72.1730  221.2130 N   0  0  0  0  0  0  0  0  0  0  0  0
  138.4330   73.0930  220.1150 C   0  0  0  0  0  0  0  0  0  0  0  0
  137.1820   73.8570  220.2850 C   0  0  0  0  0  0  0  0  0  0  0  0
  136.0850   73.5480  219.7510 O   0  0  0  0  0  0  0  0  0  0  0  0
  137.2270   75.0170  221.1070 N   0  0  0  0  0  0  0  0  0  0  0  0
  136.9260   75.0180  222.5430 C   0  0  0  0  0  0  0  0  0  0  0  0
  136.4630   76.4200  222.8780 C   0  0  0  0  0  0  0  0  0  0  0  0
  136.5000   77.1450  221.5290 C   0  0  0  0  0  0  0  0  0  0  0  0
  137.5570   76.3780  220.7420 C   0  0  1  0  0  0  0  0  0  0  0  0
  138.9150   76.7020  221.2540 C   0  0  0  0  0  0  0  0  0  0  0  0
  139.2180   77.9200  221.7610 N   0  0  0  0  0  0  0  0  0  0  0  0
  140.5160   77.9120  222.1400 C   0  0  0  0  0  0  0  0  0  0  0  0
  141.1620   79.0770  222.7290 C   0  0  0  0  0  0  0  0  0  0  0  0
  142.5370   79.1660  222.6760 C   0  0  0  0  0  0  0  0  0  0  0  0
  143.2150   80.2610  223.2240 C   0  0  0  0  0  0  0  0  0  0  0  0
  142.4890   81.2680  223.8260 C   0  0  0  0  0  0  0  0  0  0  0  0
  141.1170   81.1870  223.8830 C   0  0  0  0  0  0  0  0  0  0  0  0
  140.4610   80.0920  223.3340 C   0  0  0  0  0  0  0  0  0  0  0  0
  140.9840   76.6700  221.8530 C   0  0  0  0  0  0  0  0  0  0  0  0
  139.9910   75.9780  221.3230 O   0  0  0  0  0  0  0  0  0  0  0  0
  139.6480   71.5550  223.4290 C   0  0  0  0  0  0  0  0  0  0  0  0
  139.3160   70.2200  223.2440 C   0  0  0  0  0  0  0  0  0  0  0  0
  139.5120   69.3030  224.2590 C   0  0  0  0  0  0  0  0  0  0  0  0
  140.0460   69.7320  225.4670 C   0  0  0  0  0  0  0  0  0  0  0  0
  140.2620   68.8500  226.5160 C   0  0  0  0  0  0  0  0  0  0  0  0
  140.7960   69.3100  227.7090 C   0  0  0  0  0  0  0  0  0  0  0  0
  141.0400   68.1240  228.9960 Cl  0  0  0  0  0  0  0  0  0  0  0  0
  141.1210   70.6410  227.8760 C   0  0  0  0  0  0  0  0  0  0  0  0
  140.9070   71.5280  226.8300 C   0  0  0  0  0  0  0  0  0  0  0  0
  140.3750   71.0750  225.6410 C   0  0  0  0  0  0  0  0  0  0  0  0
  140.1620   71.9130  224.6200 N   0  0  0  0  0  0  0  0  0  0  0  0
  138.2370   71.2310  221.1440 H   0  0  0  0  0  0  0  0  0  0  0  0
  139.2747   73.7990  220.0595 H   0  0  0  0  0  0  0  0  0  0  0  0
  138.3453   72.5019  219.1915 H   0  0  0  0  0  0  0  0  0  0  0  0
  136.1315   74.2907  222.7663 H   0  0  0  0  0  0  0  0  0  0  0  0
  137.8075   74.7350  223.1369 H   0  0  0  0  0  0  0  0  0  0  0  0
  135.4430   76.4087  223.2897 H   0  0  0  0  0  0  0  0  0  0  0  0
  137.0893   76.9055  223.6409 H   0  0  0  0  0  0  0  0  0  0  0  0
  135.5221   77.0934  221.0279 H   0  0  0  0  0  0  0  0  0  0  0  0
  136.7302   78.2164  221.6244 H   0  0  0  0  0  0  0  0  0  0  0  0
  137.5648   76.5909  219.6628 H   0  0  0  0  0  0  0  0  0  0  0  0
  143.1118   78.3614  222.1940 H   0  0  0  0  0  0  0  0  0  0  0  0
  144.3124   80.3180  223.1753 H   0  0  0  0  0  0  0  0  0  0  0  0
  143.0073   82.1356  224.2604 H   0  0  0  0  0  0  0  0  0  0  0  0
  140.5386   81.9898  224.3636 H   0  0  0  0  0  0  0  0  0  0  0  0
  139.3635   80.0370  223.3845 H   0  0  0  0  0  0  0  0  0  0  0  0
  142.0066   76.3053  222.0300 H   0  0  0  0  0  0  0  0  0  0  0  0
  138.8942   69.8899  222.2832 H   0  0  0  0  0  0  0  0  0  0  0  0
  139.2480   68.2453  224.1118 H   0  0  0  0  0  0  0  0  0  0  0  0
  140.0093   67.7856  226.4006 H   0  0  0  0  0  0  0  0  0  0  0  0
  141.5449   70.9949  228.8274 H   0  0  0  0  0  0  0  0  0  0  0  0
  141.1615   72.5915  226.9493 H   0  0  0  0  0  0  0  0  0  0  0  0
  1  2  2  0
  2  3  1  0
  3  4  1  0
  4  5  1  0
  5  6  2  0
  5  7  1  0
  7  8  1  0
  8  9  1  0
  9 10  1  0
 10 11  1  0
 11 12  1  0
 12 13  2  0
 13 14  1  0
 14 15  1  0
 15 16  2  0
 16 17  1  0
 17 18  2  0
 18 19  1  0
 19 20  2  0
 14 21  2  0
 21 22  1  0
  2 23  1  0
 23 24  2  0
 24 25  1  0
 25 26  2  0
 26 27  1  0
 27 28  2  0
 28 29  1  0
 28 30  1  0
 30 31  2  0
 31 32  1  0
 32 33  2  0
 11  7  1  0
 22 12  1  0
 33 23  1  0
 20 15  1  0
 32 26  1  0
  3 34  1  0
  4 35  1  0
  4 36  1  0
  8 37  1  0
  8 38  1  0
  9 39  1  0
  9 40  1  0
 10 41  1  0
 10 42  1  0
 11 43  1  6
 16 44  1  0
 17 45  1  0
 18 46  1  0
 19 47  1  0
 20 48  1  0
 21 49  1  0
 24 50  1  0
 25 51  1  0
 27 52  1  0
 30 53  1  0
 31 54  1  0
M  END
>  <smiles>  (46) 
O=C(NCC(=O)N1CCC[C@H]1c1nc(-c2ccccc2)co1)c1ccc2cc(Cl)ccc2n1

>  <score_type>  (46) 
oracle

>  <origin>  (46) 
autodockgpu

>  <m_score__min__energy>  (46) 
-9.4000000000000004

>  <m_primary>  (46) 
energy

>  <rmsd>  (46) 
3.574420274631101

>  <m_score__min__rmsd>  (46) 
3.574420274631101

>  <meeko>  (46) 
{"free_energy": -8.94, "intermolecular_energy": -10.73, "internal_energy": -1.87, "cluster_size": 12, "cluster_id": 2, "rank_in_cluster": 4}

>  <energy>  (46) 
-6.79

>  <cluster_rmsd>  (46) 
0.0

>  <cluster>  (46) 
13

$$$$

     RDKit          3D

 54 58  0  0  0  0  0  0  0  0999 V2000
  138.3090   75.4880  222.6810 O   0  0  0  0  0  0  0  0  0  0  0  0
  139.4120   75.8950  222.1810 C   0  0  0  0  0  0  0  0  0  0  0  0
  139.6410   77.2770  222.1200 N   0  0  0  0  0  0  0  0  0  0  0  0
  138.6860   78.2600  222.5950 C   0  0  0  0  0  0  0  0  0  0  0  0
  139.3190   79.2810  223.4530 C   0  0  0  0  0  0  0  0  0  0  0  0
  138.7820   79.7790  224.4760 O   0  0  0  0  0  0  0  0  0  0  0  0
  140.6220   79.7260  223.0940 N   0  0  0  0  0  0  0  0  0  0  0  0
  141.8610   79.0650  223.5190 C   0  0  0  0  0  0  0  0  0  0  0  0
  142.9370   80.1320  223.5000 C   0  0  0  0  0  0  0  0  0  0  0  0
  142.1830   81.3980  223.0800 C   0  0  0  0  0  0  0  0  0  0  0  0
  141.0030   80.8600  222.2800 C   0  0  1  0  0  0  0  0  0  0  0  0
  141.4620   80.3720  220.9510 C   0  0  0  0  0  0  0  0  0  0  0  0
  141.3920   79.0660  220.6040 N   0  0  0  0  0  0  0  0  0  0  0  0
  141.8780   78.9330  219.3490 C   0  0  0  0  0  0  0  0  0  0  0  0
  141.9450   77.6450  218.6730 C   0  0  0  0  0  0  0  0  0  0  0  0
  140.8310   76.8320  218.6910 C   0  0  0  0  0  0  0  0  0  0  0  0
  140.8350   75.5830  218.0590 C   0  0  0  0  0  0  0  0  0  0  0  0
  141.9750   75.1630  217.4060 C   0  0  0  0  0  0  0  0  0  0  0  0
  143.0900   75.9680  217.3830 C   0  0  0  0  0  0  0  0  0  0  0  0
  143.0690   77.2050  218.0170 C   0  0  0  0  0  0  0  0  0  0  0  0
  142.2400   80.1800  218.9520 C   0  0  0  0  0  0  0  0  0  0  0  0
  141.9730   81.0110  219.9430 O   0  0  0  0  0  0  0  0  0  0  0  0
  140.3930   74.9290  221.6950 C   0  0  0  0  0  0  0  0  0  0  0  0
  140.0480   73.5860  221.6300 C   0  0  0  0  0  0  0  0  0  0  0  0
  140.9580   72.6510  221.1720 C   0  0  0  0  0  0  0  0  0  0  0  0
  142.2220   73.0710  220.7790 C   0  0  0  0  0  0  0  0  0  0  0  0
  143.1690   72.1720  220.3130 C   0  0  0  0  0  0  0  0  0  0  0  0
  144.4220   72.6230  219.9270 C   0  0  0  0  0  0  0  0  0  0  0  0
  145.5730   71.4140  219.3460 Cl  0  0  0  0  0  0  0  0  0  0  0  0
  144.7490   73.9620  219.9990 C   0  0  0  0  0  0  0  0  0  0  0  0
  143.8040   74.8660  220.4650 C   0  0  0  0  0  0  0  0  0  0  0  0
  142.5560   74.4220  220.8490 C   0  0  0  0  0  0  0  0  0  0  0  0
  141.6310   75.2770  221.3000 N   0  0  0  0  0  0  0  0  0  0  0  0
  140.5300   77.6310  221.7180 H   0  0  0  0  0  0  0  0  0  0  0  0
  138.2299   78.7593  221.7274 H   0  0  0  0  0  0  0  0  0  0  0  0
  137.9299   77.7341  223.1965 H   0  0  0  0  0  0  0  0  0  0  0  0
  141.7466   78.6567  224.5340 H   0  0  0  0  0  0  0  0  0  0  0  0
  142.1162   78.2263  222.8547 H   0  0  0  0  0  0  0  0  0  0  0  0
  143.3857   80.2548  224.4968 H   0  0  0  0  0  0  0  0  0  0  0  0
  143.7696   79.8869  222.8242 H   0  0  0  0  0  0  0  0  0  0  0  0
  141.8377   81.9603  223.9601 H   0  0  0  0  0  0  0  0  0  0  0  0
  142.8073   82.0977  222.5049 H   0  0  0  0  0  0  0  0  0  0  0  0
  140.2077   81.5961  222.0911 H   0  0  0  0  0  0  0  0  0  0  0  0
  139.9231   77.1712  219.2113 H   0  0  0  0  0  0  0  0  0  0  0  0
  139.9398   74.9442  218.0829 H   0  0  0  0  0  0  0  0  0  0  0  0
  141.9924   74.1845  216.9038 H   0  0  0  0  0  0  0  0  0  0  0  0
  143.9992   75.6327  216.8624 H   0  0  0  0  0  0  0  0  0  0  0  0
  143.9660   77.8412  217.9930 H   0  0  0  0  0  0  0  0  0  0  0  0
  142.6773   80.4497  217.9793 H   0  0  0  0  0  0  0  0  0  0  0  0
  139.0445   73.2636  221.9448 H   0  0  0  0  0  0  0  0  0  0  0  0
  140.6839   71.5870  221.1196 H   0  0  0  0  0  0  0  0  0  0  0  0
  142.9263   71.1010  220.2495 H   0  0  0  0  0  0  0  0  0  0  0  0
  145.7464   74.3087  219.6908 H   0  0  0  0  0  0  0  0  0  0  0  0
  144.0506   75.9362  220.5279 H   0  0  0  0  0  0  0  0  0  0  0  0
  1  2  2  0
  2  3  1  0
  3  4  1  0
  4  5  1  0
  5  6  2  0
  5  7  1  0
  7  8  1  0
  8  9  1  0
  9 10  1  0
 10 11  1  0
 11 12  1  0
 12 13  2  0
 13 14  1  0
 14 15  1  0
 15 16  2  0
 16 17  1  0
 17 18  2  0
 18 19  1  0
 19 20  2  0
 14 21  2  0
 21 22  1  0
  2 23  1  0
 23 24  2  0
 24 25  1  0
 25 26  2  0
 26 27  1  0
 27 28  2  0
 28 29  1  0
 28 30  1  0
 30 31  2  0
 31 32  1  0
 32 33  2  0
 11  7  1  0
 22 12  1  0
 33 23  1  0
 20 15  1  0
 32 26  1  0
  3 34  1  0
  4 35  1  0
  4 36  1  0
  8 37  1  0
  8 38  1  0
  9 39  1  0
  9 40  1  0
 10 41  1  0
 10 42  1  0
 11 43  1  6
 16 44  1  0
 17 45  1  0
 18 46  1  0
 19 47  1  0
 20 48  1  0
 21 49  1  0
 24 50  1  0
 25 51  1  0
 27 52  1  0
 30 53  1  0
 31 54  1  0
M  END
>  <smiles>  (47) 
O=C(NCC(=O)N1CCC[C@H]1c1nc(-c2ccccc2)co1)c1ccc2cc(Cl)ccc2n1

>  <score_type>  (47) 
oracle

>  <origin>  (47) 
autodockgpu

>  <m_score__min__energy>  (47) 
-9.4000000000000004

>  <m_primary>  (47) 
energy

>  <rmsd>  (47) 
6.468418624567638

>  <m_score__min__rmsd>  (47) 
6.468418624567638

>  <meeko>  (47) 
{"free_energy": -6.85, "intermolecular_energy": -8.64, "internal_energy": -4.19, "cluster_size": 9, "cluster_id": 11, "rank_in_cluster": 3}

>  <energy>  (47) 
-6.65

>  <cluster_rmsd>  (47) 
1.4

>  <cluster>  (47) 
13

$$$$

     RDKit          3D

 54 58  0  0  0  0  0  0  0  0999 V2000
  137.1740   70.4860  221.5540 O   0  0  0  0  0  0  0  0  0  0  0  0
  137.7930   71.1320  222.4660 C   0  0  0  0  0  0  0  0  0  0  0  0
  137.8760   72.5260  222.3500 N   0  0  0  0  0  0  0  0  0  0  0  0
  137.2960   73.2660  221.2450 C   0  0  0  0  0  0  0  0  0  0  0  0
  138.2500   73.4450  220.1330 C   0  0  0  0  0  0  0  0  0  0  0  0
  138.0920   72.9650  218.9810 O   0  0  0  0  0  0  0  0  0  0  0  0
  139.4210   74.2100  220.3880 N   0  0  0  0  0  0  0  0  0  0  0  0
  140.1960   74.8960  219.3480 C   0  0  0  0  0  0  0  0  0  0  0  0
  141.6080   75.0150  219.8830 C   0  0  0  0  0  0  0  0  0  0  0  0
  141.5400   74.3170  221.2440 C   0  0  0  0  0  0  0  0  0  0  0  0
  140.0790   74.4730  221.6500 C   0  0  1  0  0  0  0  0  0  0  0  0
  139.8050   75.8770  222.0580 C   0  0  0  0  0  0  0  0  0  0  0  0
  140.8000   76.7450  222.3530 N   0  0  0  0  0  0  0  0  0  0  0  0
  140.2450   77.9320  222.6860 C   0  0  0  0  0  0  0  0  0  0  0  0
  141.0460   79.0880  223.0600 C   0  0  0  0  0  0  0  0  0  0  0  0
  142.4030   79.0590  222.8160 C   0  0  0  0  0  0  0  0  0  0  0  0
  143.2250   80.1400  223.1530 C   0  0  0  0  0  0  0  0  0  0  0  0
  142.6630   81.2550  223.7400 C   0  0  0  0  0  0  0  0  0  0  0  0
  141.3100   81.2930  223.9870 C   0  0  0  0  0  0  0  0  0  0  0  0
  140.5090   80.2100  223.6470 C   0  0  0  0  0  0  0  0  0  0  0  0
  138.9010   77.7600  222.5870 C   0  0  0  0  0  0  0  0  0  0  0  0
  138.6830   76.5130  222.2080 O   0  0  0  0  0  0  0  0  0  0  0  0
  138.3870   70.4150  223.5920 C   0  0  0  0  0  0  0  0  0  0  0  0
  138.2550   69.0350  223.6630 C   0  0  0  0  0  0  0  0  0  0  0  0
  138.8090   68.3330  224.7170 C   0  0  0  0  0  0  0  0  0  0  0  0
  139.4990   69.0240  225.7040 C   0  0  0  0  0  0  0  0  0  0  0  0
  140.0730   68.3640  226.7810 C   0  0  0  0  0  0  0  0  0  0  0  0
  140.7560   69.0830  227.7490 C   0  0  0  0  0  0  0  0  0  0  0  0
  141.4570   68.1690  229.0900 Cl  0  0  0  0  0  0  0  0  0  0  0  0
  140.8780   70.4550  227.6630 C   0  0  0  0  0  0  0  0  0  0  0  0
  140.3050   71.1200  226.5870 C   0  0  0  0  0  0  0  0  0  0  0  0
  139.6250   70.4090  225.6210 C   0  0  0  0  0  0  0  0  0  0  0  0
  139.0670   71.0300  224.5760 N   0  0  0  0  0  0  0  0  0  0  0  0
  138.3740   73.0720  223.0790 H   0  0  0  0  0  0  0  0  0  0  0  0
  136.4176   72.7178  220.8736 H   0  0  0  0  0  0  0  0  0  0  0  0
  137.0176   74.2636  221.6154 H   0  0  0  0  0  0  0  0  0  0  0  0
  140.1889   74.3092  218.4176 H   0  0  0  0  0  0  0  0  0  0  0  0
  139.7704   75.8836  219.1165 H   0  0  0  0  0  0  0  0  0  0  0  0
  142.3234   74.5092  219.2180 H   0  0  0  0  0  0  0  0  0  0  0  0
  141.9502   76.0579  219.9552 H   0  0  0  0  0  0  0  0  0  0  0  0
  141.8124   73.2550  221.1555 H   0  0  0  0  0  0  0  0  0  0  0  0
  142.2375   74.7433  221.9800 H   0  0  0  0  0  0  0  0  0  0  0  0
  139.7687   73.8325  222.4887 H   0  0  0  0  0  0  0  0  0  0  0  0
  142.8478   78.1688  222.3473 H   0  0  0  0  0  0  0  0  0  0  0  0
  144.3059   80.1014  222.9524 H   0  0  0  0  0  0  0  0  0  0  0  0
  143.2962   82.1129  224.0103 H   0  0  0  0  0  0  0  0  0  0  0  0
  140.8618   82.1822  224.4544 H   0  0  0  0  0  0  0  0  0  0  0  0
  139.4287   80.2504  223.8504 H   0  0  0  0  0  0  0  0  0  0  0  0
  138.1327   78.5216  222.7864 H   0  0  0  0  0  0  0  0  0  0  0  0
  137.7064   68.4970  222.8759 H   0  0  0  0  0  0  0  0  0  0  0  0
  138.7044   67.2394  224.7732 H   0  0  0  0  0  0  0  0  0  0  0  0
  139.9860   67.2708  226.8665 H   0  0  0  0  0  0  0  0  0  0  0  0
  141.4226   71.0150  228.4375 H   0  0  0  0  0  0  0  0  0  0  0  0
  140.3935   72.2134  226.5054 H   0  0  0  0  0  0  0  0  0  0  0  0
  1  2  2  0
  2  3  1  0
  3  4  1  0
  4  5  1  0
  5  6  2  0
  5  7  1  0
  7  8  1  0
  8  9  1  0
  9 10  1  0
 10 11  1  0
 11 12  1  0
 12 13  2  0
 13 14  1  0
 14 15  1  0
 15 16  2  0
 16 17  1  0
 17 18  2  0
 18 19  1  0
 19 20  2  0
 14 21  2  0
 21 22  1  0
  2 23  1  0
 23 24  2  0
 24 25  1  0
 25 26  2  0
 26 27  1  0
 27 28  2  0
 28 29  1  0
 28 30  1  0
 30 31  2  0
 31 32  1  0
 32 33  2  0
 11  7  1  0
 22 12  1  0
 33 23  1  0
 20 15  1  0
 32 26  1  0
  3 34  1  0
  4 35  1  0
  4 36  1  0
  8 37  1  0
  8 38  1  0
  9 39  1  0
  9 40  1  0
 10 41  1  0
 10 42  1  0
 11 43  1  1
 16 44  1  0
 17 45  1  0
 18 46  1  0
 19 47  1  0
 20 48  1  0
 21 49  1  0
 24 50  1  0
 25 51  1  0
 27 52  1  0
 30 53  1  0
 31 54  1  0
M  END
>  <smiles>  (48) 
O=C(NCC(=O)N1CCC[C@H]1c1nc(-c2ccccc2)co1)c1ccc2cc(Cl)ccc2n1

>  <score_type>  (48) 
oracle

>  <origin>  (48) 
autodockgpu

>  <m_score__min__energy>  (48) 
-9.4000000000000004

>  <m_primary>  (48) 
energy

>  <rmsd>  (48) 
2.931481249484166

>  <m_score__min__rmsd>  (48) 
2.931481249484166

>  <meeko>  (48) 
{"free_energy": -8.81, "intermolecular_energy": -10.6, "internal_energy": -1.94, "cluster_size": 12, "cluster_id": 2, "rank_in_cluster": 5}

>  <energy>  (48) 
-6.55

>  <cluster_rmsd>  (48) 
0.0

>  <cluster>  (48) 
14

$$$$

     RDKit          3D

 54 58  0  0  0  0  0  0  0  0999 V2000
  136.4010   75.8690  221.0150 O   0  0  0  0  0  0  0  0  0  0  0  0
  137.3040   75.4280  221.8050 C   0  0  0  0  0  0  0  0  0  0  0  0
  137.1460   74.1420  222.3400 N   0  0  0  0  0  0  0  0  0  0  0  0
  136.0090   73.2930  222.0400 C   0  0  0  0  0  0  0  0  0  0  0  0
  136.3690   72.1750  221.1470 C   0  0  0  0  0  0  0  0  0  0  0  0
  135.5380   71.5040  220.4820 O   0  0  0  0  0  0  0  0  0  0  0  0
  137.7470   71.8400  221.0360 N   0  0  0  0  0  0  0  0  0  0  0  0
  138.7530   72.7020  220.4060 C   0  0  0  0  0  0  0  0  0  0  0  0
  139.8560   71.7830  219.9250 C   0  0  0  0  0  0  0  0  0  0  0  0
  139.3540   70.3860  220.3030 C   0  0  0  0  0  0  0  0  0  0  0  0
  138.4320   70.6490  221.4880 C   0  0  1  0  0  0  0  0  0  0  0  0
  139.2320   70.9780  222.6980 C   0  0  0  0  0  0  0  0  0  0  0  0
  139.3140   70.1350  223.7550 N   0  0  0  0  0  0  0  0  0  0  0  0
  140.1050   70.7040  224.6920 C   0  0  0  0  0  0  0  0  0  0  0  0
  140.4000   70.0540  225.9610 C   0  0  0  0  0  0  0  0  0  0  0  0
  140.3480   68.6770  226.0250 C   0  0  0  0  0  0  0  0  0  0  0  0
  140.6210   67.9950  227.2160 C   0  0  0  0  0  0  0  0  0  0  0  0
  140.9490   68.7180  228.3450 C   0  0  0  0  0  0  0  0  0  0  0  0
  141.0040   70.0910  228.2890 C   0  0  0  0  0  0  0  0  0  0  0  0
  140.7290   70.7520  227.0980 C   0  0  0  0  0  0  0  0  0  0  0  0
  140.4950   71.9010  224.1800 C   0  0  0  0  0  0  0  0  0  0  0  0
  139.9480   72.0230  222.9840 O   0  0  0  0  0  0  0  0  0  0  0  0
  138.4610   76.2600  222.1250 C   0  0  0  0  0  0  0  0  0  0  0  0
  139.7380   75.7430  221.9490 C   0  0  0  0  0  0  0  0  0  0  0  0
  140.8490   76.5100  222.2440 C   0  0  0  0  0  0  0  0  0  0  0  0
  140.6750   77.8030  222.7190 C   0  0  0  0  0  0  0  0  0  0  0  0
  141.7590   78.6110  223.0290 C   0  0  0  0  0  0  0  0  0  0  0  0
  141.5510   79.8970  223.5010 C   0  0  0  0  0  0  0  0  0  0  0  0
  142.9830   80.8640  223.8740 Cl  0  0  0  0  0  0  0  0  0  0  0  0
  140.2740   80.3960  223.6710 C   0  0  0  0  0  0  0  0  0  0  0  0
  139.1860   79.5900  223.3620 C   0  0  0  0  0  0  0  0  0  0  0  0
  139.3880   78.3090  222.8920 C   0  0  0  0  0  0  0  0  0  0  0  0
  138.3540   77.5180  222.5880 N   0  0  0  0  0  0  0  0  0  0  0  0
  137.8660   73.7630  222.9840 H   0  0  0  0  0  0  0  0  0  0  0  0
  135.6155   72.8820  222.9814 H   0  0  0  0  0  0  0  0  0  0  0  0
  135.2552   73.9071  221.5255 H   0  0  0  0  0  0  0  0  0  0  0  0
  138.3120   73.2451  219.5571 H   0  0  0  0  0  0  0  0  0  0  0  0
  139.1366   73.4526  221.1127 H   0  0  0  0  0  0  0  0  0  0  0  0
  139.9925   71.8698  218.8370 H   0  0  0  0  0  0  0  0  0  0  0  0
  140.8335   72.0201  220.3704 H   0  0  0  0  0  0  0  0  0  0  0  0
  138.8020   69.9274  219.4693 H   0  0  0  0  0  0  0  0  0  0  0  0
  140.1694   69.6871  220.5409 H   0  0  0  0  0  0  0  0  0  0  0  0
  137.7826   69.8026  221.7563 H   0  0  0  0  0  0  0  0  0  0  0  0
  140.0870   68.1043  225.1228 H   0  0  0  0  0  0  0  0  0  0  0  0
  140.5748   66.8966  227.2520 H   0  0  0  0  0  0  0  0  0  0  0  0
  141.1663   68.1964  229.2888 H   0  0  0  0  0  0  0  0  0  0  0  0
  141.2662   70.6671  229.1887 H   0  0  0  0  0  0  0  0  0  0  0  0
  140.7754   71.8505  227.0649 H   0  0  0  0  0  0  0  0  0  0  0  0
  141.1485   72.6359  224.6729 H   0  0  0  0  0  0  0  0  0  0  0  0
  139.8657   74.7173  221.5727 H   0  0  0  0  0  0  0  0  0  0  0  0
  141.8603   76.1006  222.1040 H   0  0  0  0  0  0  0  0  0  0  0  0
  142.7832   78.2310  222.9002 H   0  0  0  0  0  0  0  0  0  0  0  0
  140.1209   81.4186  224.0463 H   0  0  0  0  0  0  0  0  0  0  0  0
  138.1631   79.9732  223.4921 H   0  0  0  0  0  0  0  0  0  0  0  0
  1  2  2  0
  2  3  1  0
  3  4  1  0
  4  5  1  0
  5  6  2  0
  5  7  1  0
  7  8  1  0
  8  9  1  0
  9 10  1  0
 10 11  1  0
 11 12  1  0
 12 13  2  0
 13 14  1  0
 14 15  1  0
 15 16  2  0
 16 17  1  0
 17 18  2  0
 18 19  1  0
 19 20  2  0
 14 21  2  0
 21 22  1  0
  2 23  1  0
 23 24  2  0
 24 25  1  0
 25 26  2  0
 26 27  1  0
 27 28  2  0
 28 29  1  0
 28 30  1  0
 30 31  2  0
 31 32  1  0
 32 33  2  0
 11  7  1  0
 22 12  1  0
 33 23  1  0
 20 15  1  0
 32 26  1  0
  3 34  1  0
  4 35  1  0
  4 36  1  0
  8 37  1  0
  8 38  1  0
  9 39  1  0
  9 40  1  0
 10 41  1  0
 10 42  1  0
 11 43  1  1
 16 44  1  0
 17 45  1  0
 18 46  1  0
 19 47  1  0
 20 48  1  0
 21 49  1  0
 24 50  1  0
 25 51  1  0
 27 52  1  0
 30 53  1  0
 31 54  1  0
M  END
>  <smiles>  (49) 
O=C(NCC(=O)N1CCC[C@H]1c1nc(-c2ccccc2)co1)c1ccc2cc(Cl)ccc2n1

>  <score_type>  (49) 
oracle

>  <origin>  (49) 
autodockgpu

>  <m_score__min__energy>  (49) 
-9.4000000000000004

>  <m_primary>  (49) 
energy

>  <rmsd>  (49) 
8.98944737067392

>  <m_score__min__rmsd>  (49) 
8.98944737067392

>  <meeko>  (49) 
{"free_energy": -8.63, "intermolecular_energy": -10.42, "internal_energy": -2.05, "cluster_size": 2, "cluster_id": 5, "rank_in_cluster": 2}

>  <energy>  (49) 
-6.37

>  <cluster_rmsd>  (49) 
0.76

>  <cluster>  (49) 
14

$$$$

     RDKit          3D

 54 58  0  0  0  0  0  0  0  0999 V2000
  138.3500   75.9970  223.0870 O   0  0  0  0  0  0  0  0  0  0  0  0
  139.2150   76.3330  222.2080 C   0  0  0  0  0  0  0  0  0  0  0  0
  139.1780   77.6420  221.7090 N   0  0  0  0  0  0  0  0  0  0  0  0
  138.2070   78.6290  222.1430 C   0  0  0  0  0  0  0  0  0  0  0  0
  138.7980   79.6300  223.0530 C   0  0  0  0  0  0  0  0  0  0  0  0
  138.1730   80.1930  223.9880 O   0  0  0  0  0  0  0  0  0  0  0  0
  140.1640   79.9740  222.8530 N   0  0  0  0  0  0  0  0  0  0  0  0
  141.2920   79.1770  223.3480 C   0  0  0  0  0  0  0  0  0  0  0  0
  142.4510   80.1390  223.5090 C   0  0  0  0  0  0  0  0  0  0  0  0
  141.8560   81.4920  223.1090 C   0  0  0  0  0  0  0  0  0  0  0  0
  140.7220   81.1160  222.1620 C   0  0  1  0  0  0  0  0  0  0  0  0
  141.2710   80.6720  220.8530 C   0  0  0  0  0  0  0  0  0  0  0  0
  141.1570   79.3920  220.4250 N   0  0  0  0  0  0  0  0  0  0  0  0
  141.7470   79.2950  219.2120 C   0  0  0  0  0  0  0  0  0  0  0  0
  141.8000   78.0440  218.4700 C   0  0  0  0  0  0  0  0  0  0  0  0
  142.9280   77.7620  217.7300 C   0  0  0  0  0  0  0  0  0  0  0  0
  143.0380   76.5750  216.9970 C   0  0  0  0  0  0  0  0  0  0  0  0
  141.9950   75.6720  217.0190 C   0  0  0  0  0  0  0  0  0  0  0  0
  140.8650   75.9460  217.7550 C   0  0  0  0  0  0  0  0  0  0  0  0
  140.7740   77.1290  218.4760 C   0  0  0  0  0  0  0  0  0  0  0  0
  142.2160   80.5370  218.9210 C   0  0  0  0  0  0  0  0  0  0  0  0
  141.9080   81.3290  219.9320 O   0  0  0  0  0  0  0  0  0  0  0  0
  140.2060   75.3620  221.7520 C   0  0  0  0  0  0  0  0  0  0  0  0
  139.9580   74.0070  221.9270 C   0  0  0  0  0  0  0  0  0  0  0  0
  140.8800   73.0670  221.5030 C   0  0  0  0  0  0  0  0  0  0  0  0
  142.0560   73.4940  220.9010 C   0  0  0  0  0  0  0  0  0  0  0  0
  143.0100   72.5900  220.4600 C   0  0  0  0  0  0  0  0  0  0  0  0
  144.1740   73.0480  219.8620 C   0  0  0  0  0  0  0  0  0  0  0  0
  145.3410   71.8330  219.3270 Cl  0  0  0  0  0  0  0  0  0  0  0  0
  144.4040   74.4000  219.6970 C   0  0  0  0  0  0  0  0  0  0  0  0
  143.4520   75.3080  220.1370 C   0  0  0  0  0  0  0  0  0  0  0  0
  142.2920   74.8570  220.7320 C   0  0  0  0  0  0  0  0  0  0  0  0
  141.3610   75.7160  221.1620 N   0  0  0  0  0  0  0  0  0  0  0  0
  139.8710   77.9380  220.9950 H   0  0  0  0  0  0  0  0  0  0  0  0
  137.8081   79.1465  221.2581 H   0  0  0  0  0  0  0  0  0  0  0  0
  137.4118   78.1023  222.6910 H   0  0  0  0  0  0  0  0  0  0  0  0
  141.0396   78.7188  224.3156 H   0  0  0  0  0  0  0  0  0  0  0  0
  141.5417   78.3613  222.6535 H   0  0  0  0  0  0  0  0  0  0  0  0
  142.8036   80.1579  224.5508 H   0  0  0  0  0  0  0  0  0  0  0  0
  143.3246   79.8604  222.9013 H   0  0  0  0  0  0  0  0  0  0  0  0
  141.4717   82.0282  223.9892 H   0  0  0  0  0  0  0  0  0  0  0  0
  142.5938   82.1651  222.6480 H   0  0  0  0  0  0  0  0  0  0  0  0
  140.0161   81.9325  221.9498 H   0  0  0  0  0  0  0  0  0  0  0  0
  143.7578   78.4839  217.7153 H   0  0  0  0  0  0  0  0  0  0  0  0
  143.9446   76.3645  216.4107 H   0  0  0  0  0  0  0  0  0  0  0  0
  142.0667   74.7341  216.4488 H   0  0  0  0  0  0  0  0  0  0  0  0
  140.0328   75.2269  217.7721 H   0  0  0  0  0  0  0  0  0  0  0  0
  139.8664   77.3375  219.0614 H   0  0  0  0  0  0  0  0  0  0  0  0
  142.7550   80.8298  218.0079 H   0  0  0  0  0  0  0  0  0  0  0  0
  139.0232   73.6793  222.4054 H   0  0  0  0  0  0  0  0  0  0  0  0
  140.6837   71.9935  221.6412 H   0  0  0  0  0  0  0  0  0  0  0  0
  142.8435   71.5098  220.5845 H   0  0  0  0  0  0  0  0  0  0  0  0
  145.3315   74.7526  219.2222 H   0  0  0  0  0  0  0  0  0  0  0  0
  143.6220   76.3875  220.0114 H   0  0  0  0  0  0  0  0  0  0  0  0
  1  2  2  0
  2  3  1  0
  3  4  1  0
  4  5  1  0
  5  6  2  0
  5  7  1  0
  7  8  1  0
  8  9  1  0
  9 10  1  0
 10 11  1  0
 11 12  1  0
 12 13  2  0
 13 14  1  0
 14 15  1  0
 15 16  2  0
 16 17  1  0
 17 18  2  0
 18 19  1  0
 19 20  2  0
 14 21  2  0
 21 22  1  0
  2 23  1  0
 23 24  2  0
 24 25  1  0
 25 26  2  0
 26 27  1  0
 27 28  2  0
 28 29  1  0
 28 30  1  0
 30 31  2  0
 31 32  1  0
 32 33  2  0
 11  7  1  0
 22 12  1  0
 33 23  1  0
 20 15  1  0
 32 26  1  0
  3 34  1  0
  4 35  1  0
  4 36  1  0
  8 37  1  0
  8 38  1  0
  9 39  1  0
  9 40  1  0
 10 41  1  0
 10 42  1  0
 11 43  1  6
 16 44  1  0
 17 45  1  0
 18 46  1  0
 19 47  1  0
 20 48  1  0
 21 49  1  0
 24 50  1  0
 25 51  1  0
 27 52  1  0
 30 53  1  0
 31 54  1  0
M  END
>  <smiles>  (50) 
O=C(NCC(=O)N1CCC[C@H]1c1nc(-c2ccccc2)co1)c1ccc2cc(Cl)ccc2n1

>  <score_type>  (50) 
oracle

>  <origin>  (50) 
autodockgpu

>  <m_score__min__energy>  (50) 
-9.4000000000000004

>  <m_primary>  (50) 
energy

>  <rmsd>  (50) 
6.612360128772086

>  <m_score__min__rmsd>  (50) 
6.612360128772086

>  <meeko>  (50) 
{"free_energy": -6.67, "intermolecular_energy": -8.46, "internal_energy": -4.1, "cluster_size": 9, "cluster_id": 11, "rank_in_cluster": 7}

>  <energy>  (50) 
-6.35

>  <cluster_rmsd>  (50) 
0.75

>  <cluster>  (50) 
14

$$$$
