
     RDKit          3D

 48 50  0  0  0  0  0  0  0  0999 V2000
  145.8890   73.4570  221.2440 C   0  0  0  0  0  0  0  0  0  0  0  0
  144.9550   73.7860  220.1200 C   0  0  0  0  0  0  0  0  0  0  0  0
  143.6080   74.2660  220.5200 C   0  0  0  0  0  0  0  0  0  0  0  0
  142.9390   75.1360  219.5320 C   0  0  2  0  0  0  0  0  0  0  0  0
  143.6830   76.2720  218.9620 C   0  0  0  0  0  0  0  0  0  0  0  0
  142.6500   77.4040  218.8680 C   0  0  1  0  0  0  0  0  0  0  0  0
  142.7340   78.0820  217.6550 O   0  0  0  0  0  0  0  0  0  0  0  0
  141.3460   76.6760  218.9870 C   0  0  0  0  0  0  0  0  0  0  0  0
  141.6620   75.6720  220.0300 N   0  0  0  0  0  0  0  0  0  0  0  0
  140.9140   75.3560  221.1730 C   0  0  0  0  0  0  0  0  0  0  0  0
  140.9490   75.9460  222.2760 O   0  0  0  0  0  0  0  0  0  0  0  0
  139.9720   74.1940  221.0780 C   0  0  0  0  0  0  0  0  0  0  0  0
  139.8880   73.4770  222.3220 N   0  0  0  0  0  0  0  0  0  0  0  0
  140.2710   72.1040  222.3730 C   0  0  0  0  0  0  0  0  0  0  0  0
  140.6830   71.5100  221.3430 O   0  0  0  0  0  0  0  0  0  0  0  0
  140.1820   71.3850  223.6450 C   0  0  0  0  0  0  0  0  0  0  0  0
  139.5970   70.1360  223.6860 C   0  0  0  0  0  0  0  0  0  0  0  0
  139.4730   69.3930  224.8410 C   0  0  0  0  0  0  0  0  0  0  0  0
  139.9670   69.9510  226.0040 C   0  0  0  0  0  0  0  0  0  0  0  0
  139.8460   69.2180  227.1560 C   0  0  0  0  0  0  0  0  0  0  0  0
  140.3290   69.7470  228.3350 C   0  0  0  0  0  0  0  0  0  0  0  0
  140.9130   70.9940  228.3010 C   0  0  0  0  0  0  0  0  0  0  0  0
  141.0430   71.7440  227.1560 C   0  0  0  0  0  0  0  0  0  0  0  0
  140.5600   71.2160  225.9740 C   0  0  0  0  0  0  0  0  0  0  0  0
  140.6470   71.8870  224.8030 N   0  0  0  0  0  0  0  0  0  0  0  0
  145.3837   73.6350  222.2047 H   0  0  0  0  0  0  0  0  0  0  0  0
  146.1862   72.4001  221.1763 H   0  0  0  0  0  0  0  0  0  0  0  0
  146.7830   74.0943  221.1763 H   0  0  0  0  0  0  0  0  0  0  0  0
  145.4253   74.5704  219.5087 H   0  0  0  0  0  0  0  0  0  0  0  0
  144.7885   72.8406  219.5828 H   0  0  0  0  0  0  0  0  0  0  0  0
  142.9686   73.3872  220.6897 H   0  0  0  0  0  0  0  0  0  0  0  0
  143.7542   74.8789  221.4216 H   0  0  0  0  0  0  0  0  0  0  0  0
  142.8192   74.4133  218.7114 H   0  0  0  0  0  0  0  0  0  0  0  0
  144.5159   76.5601  219.6202 H   0  0  0  0  0  0  0  0  0  0  0  0
  144.1278   76.0312  217.9852 H   0  0  0  0  0  0  0  0  0  0  0  0
  142.7943   78.1780  219.6362 H   0  0  0  0  0  0  0  0  0  0  0  0
  143.5710   78.5890  217.5840 H   0  0  0  0  0  0  0  0  0  0  0  0
  140.5379   77.3493  219.3091 H   0  0  0  0  0  0  0  0  0  0  0  0
  140.9864   76.2429  218.0420 H   0  0  0  0  0  0  0  0  0  0  0  0
  138.9716   74.5663  220.8124 H   0  0  0  0  0  0  0  0  0  0  0  0
  140.3520   73.5052  220.3091 H   0  0  0  0  0  0  0  0  0  0  0  0
  139.5430   73.9620  223.2000 H   0  0  0  0  0  0  0  0  0  0  0  0
  139.2093   69.7108  222.7485 H   0  0  0  0  0  0  0  0  0  0  0  0
  139.0013   68.3993  224.8364 H   0  0  0  0  0  0  0  0  0  0  0  0
  139.3721   68.2254  227.1406 H   0  0  0  0  0  0  0  0  0  0  0  0
  140.2497   69.1870  229.2785 H   0  0  0  0  0  0  0  0  0  0  0  0
  141.2969   71.4133  229.2427 H   0  0  0  0  0  0  0  0  0  0  0  0
  141.5179   72.7359  227.1803 H   0  0  0  0  0  0  0  0  0  0  0  0
  1  2  1  0
  2  3  1  0
  3  4  1  0
  4  5  1  0
  5  6  1  0
  6  7  1  0
  6  8  1  0
  8  9  1  0
  9 10  1  0
 10 11  2  0
 10 12  1  0
 12 13  1  0
 13 14  1  0
 14 15  2  0
 14 16  1  0
 16 17  2  0
 17 18  1  0
 18 19  2  0
 19 20  1  0
 20 21  2  0
 21 22  1  0
 22 23  2  0
 23 24  1  0
 24 25  2  0
  9  4  1  0
 25 16  1  0
 24 19  1  0
  1 26  1  0
  1 27  1  0
  1 28  1  0
  2 29  1  0
  2 30  1  0
  3 31  1  0
  3 32  1  0
  4 33  1  6
  5 34  1  0
  5 35  1  0
  6 36  1  1
  7 37  1  0
  8 38  1  0
  8 39  1  0
 12 40  1  0
 12 41  1  0
 13 42  1  0
 17 43  1  0
 18 44  1  0
 20 45  1  0
 21 46  1  0
 22 47  1  0
 23 48  1  0
M  END
>  <smiles>  (1) 
CCC[C@@H]1C[C@@H](O)CN1C(=O)CNC(=O)c1ccc2ccccc2n1

>  <score_type>  (1) 
oracle

>  <origin>  (1) 
autodockgpu

>  <m_score__min__energy>  (1) 
-7.9699999999999998

>  <m_primary>  (1) 
energy

>  <rmsd>  (1) 
2.8267266307380043

>  <m_score__min__rmsd>  (1) 
2.8267266307380043

>  <meeko>  (1) 
{"free_energy": -7.62, "intermolecular_energy": -9.71, "internal_energy": -1.36, "cluster_size": 44, "cluster_id": 1, "rank_in_cluster": 11}

>  <energy>  (1) 
-7.97

>  <cluster_rmsd>  (1) 
0.0

>  <cluster>  (1) 
1

$$$$

     RDKit          3D

 48 50  0  0  0  0  0  0  0  0999 V2000
  142.6910   77.2270  218.3500 C   0  0  0  0  0  0  0  0  0  0  0  0
  143.3660   75.9360  218.6940 C   0  0  0  0  0  0  0  0  0  0  0  0
  143.2330   75.4920  220.1040 C   0  0  0  0  0  0  0  0  0  0  0  0
  143.9180   74.2240  220.4250 C   0  0  2  0  0  0  0  0  0  0  0  0
  145.1190   73.8490  219.6610 C   0  0  0  0  0  0  0  0  0  0  0  0
  144.9890   72.3320  219.4560 C   0  0  1  0  0  0  0  0  0  0  0  0
  146.1960   71.6750  219.6820 O   0  0  0  0  0  0  0  0  0  0  0  0
  143.9670   71.9440  220.4810 C   0  0  0  0  0  0  0  0  0  0  0  0
  143.0080   73.0690  220.3820 N   0  0  0  0  0  0  0  0  0  0  0  0
  141.6110   73.0000  220.2720 C   0  0  0  0  0  0  0  0  0  0  0  0
  140.9570   72.6520  219.2640 O   0  0  0  0  0  0  0  0  0  0  0  0
  140.8080   73.3790  221.4800 C   0  0  0  0  0  0  0  0  0  0  0  0
  141.0280   74.7510  221.8530 N   0  0  0  0  0  0  0  0  0  0  0  0
  139.9150   75.6330  221.9900 C   0  0  0  0  0  0  0  0  0  0  0  0
  138.7410   75.2270  221.7900 O   0  0  0  0  0  0  0  0  0  0  0  0
  140.1530   77.0260  222.3710 C   0  0  0  0  0  0  0  0  0  0  0  0
  139.0830   77.8540  222.6430 C   0  0  0  0  0  0  0  0  0  0  0  0
  139.2190   79.1770  223.0070 C   0  0  0  0  0  0  0  0  0  0  0  0
  140.5040   79.6750  223.0980 C   0  0  0  0  0  0  0  0  0  0  0  0
  140.6460   80.9890  223.4600 C   0  0  0  0  0  0  0  0  0  0  0  0
  141.9160   81.5180  223.5580 C   0  0  0  0  0  0  0  0  0  0  0  0
  142.9890   80.6980  223.2880 C   0  0  0  0  0  0  0  0  0  0  0  0
  142.8650   79.3780  222.9230 C   0  0  0  0  0  0  0  0  0  0  0  0
  141.5950   78.8450  222.8240 C   0  0  0  0  0  0  0  0  0  0  0  0
  141.3850   77.5580  222.4720 N   0  0  0  0  0  0  0  0  0  0  0  0
  142.4152   77.7544  219.2751 H   0  0  0  0  0  0  0  0  0  0  0  0
  143.3768   77.8538  217.7611 H   0  0  0  0  0  0  0  0  0  0  0  0
  141.7849   77.0215  217.7611 H   0  0  0  0  0  0  0  0  0  0  0  0
  142.9402   75.1511  218.0516 H   0  0  0  0  0  0  0  0  0  0  0  0
  144.4406   76.1100  218.5362 H   0  0  0  0  0  0  0  0  0  0  0  0
  143.6498   76.2784  220.7504 H   0  0  0  0  0  0  0  0  0  0  0  0
  142.1605   75.3134  220.2707 H   0  0  0  0  0  0  0  0  0  0  0  0
  144.2710   74.4638  221.4388 H   0  0  0  0  0  0  0  0  0  0  0  0
  145.1424   74.3712  218.6931 H   0  0  0  0  0  0  0  0  0  0  0  0
  146.0480   74.1216  220.1832 H   0  0  0  0  0  0  0  0  0  0  0  0
  144.7063   72.0625  218.4277 H   0  0  0  0  0  0  0  0  0  0  0  0
  146.3400   71.5080  220.6380 H   0  0  0  0  0  0  0  0  0  0  0  0
  143.4894   70.9855  220.2296 H   0  0  0  0  0  0  0  0  0  0  0  0
  144.3785   71.7927  221.4899 H   0  0  0  0  0  0  0  0  0  0  0  0
  139.7401   73.2362  221.2580 H   0  0  0  0  0  0  0  0  0  0  0  0
  141.1240   72.7398  222.3176 H   0  0  0  0  0  0  0  0  0  0  0  0
  142.0110   75.1100  222.0260 H   0  0  0  0  0  0  0  0  0  0  0  0
  138.0682   77.4366  222.5654 H   0  0  0  0  0  0  0  0  0  0  0  0
  138.3425   79.8081  223.2157 H   0  0  0  0  0  0  0  0  0  0  0  0
  139.7629   81.6108  223.6687 H   0  0  0  0  0  0  0  0  0  0  0  0
  142.0681   82.5690  223.8448 H   0  0  0  0  0  0  0  0  0  0  0  0
  144.0007   81.1222  223.3687 H   0  0  0  0  0  0  0  0  0  0  0  0
  143.7534   78.7634  222.7155 H   0  0  0  0  0  0  0  0  0  0  0  0
  1  2  1  0
  2  3  1  0
  3  4  1  0
  4  5  1  0
  5  6  1  0
  6  7  1  0
  6  8  1  0
  8  9  1  0
  9 10  1  0
 10 11  2  0
 10 12  1  0
 12 13  1  0
 13 14  1  0
 14 15  2  0
 14 16  1  0
 16 17  2  0
 17 18  1  0
 18 19  2  0
 19 20  1  0
 20 21  2  0
 21 22  1  0
 22 23  2  0
 23 24  1  0
 24 25  2  0
  9  4  1  0
 25 16  1  0
 24 19  1  0
  1 26  1  0
  1 27  1  0
  1 28  1  0
  2 29  1  0
  2 30  1  0
  3 31  1  0
  3 32  1  0
  4 33  1  1
  5 34  1  0
  5 35  1  0
  6 36  1  6
  7 37  1  0
  8 38  1  0
  8 39  1  0
 12 40  1  0
 12 41  1  0
 13 42  1  0
 17 43  1  0
 18 44  1  0
 20 45  1  0
 21 46  1  0
 22 47  1  0
 23 48  1  0
M  END
>  <smiles>  (2) 
CCC[C@@H]1C[C@@H](O)CN1C(=O)CNC(=O)c1ccc2ccccc2n1

>  <score_type>  (2) 
oracle

>  <origin>  (2) 
autodockgpu

>  <m_score__min__energy>  (2) 
-7.9699999999999998

>  <m_primary>  (2) 
energy

>  <rmsd>  (2) 
7.442574893248755

>  <m_score__min__rmsd>  (2) 
7.442574893248755

>  <meeko>  (2) 
{"free_energy": -6.62, "intermolecular_energy": -8.71, "internal_energy": -1.65, "cluster_size": 2, "cluster_id": 5, "rank_in_cluster": 2}

>  <energy>  (2) 
-7.96

>  <cluster_rmsd>  (2) 
0.07

>  <cluster>  (2) 
1

$$$$

     RDKit          3D

 48 50  0  0  0  0  0  0  0  0999 V2000
  146.5890   73.3890  221.9630 C   0  0  0  0  0  0  0  0  0  0  0  0
  145.9570   73.6950  220.6400 C   0  0  0  0  0  0  0  0  0  0  0  0
  144.4730   73.6630  220.6100 C   0  0  0  0  0  0  0  0  0  0  0  0
  143.8510   74.5790  219.6330 C   0  0  2  0  0  0  0  0  0  0  0  0
  144.0510   76.0290  219.7850 C   0  0  0  0  0  0  0  0  0  0  0  0
  142.6930   76.6480  219.4190 C   0  0  1  0  0  0  0  0  0  0  0  0
  142.8390   77.7640  218.5990 O   0  0  0  0  0  0  0  0  0  0  0  0
  142.0050   75.5340  218.6910 C   0  0  0  0  0  0  0  0  0  0  0  0
  142.4010   74.3610  219.5050 N   0  0  0  0  0  0  0  0  0  0  0  0
  141.5750   73.3420  220.0020 C   0  0  0  0  0  0  0  0  0  0  0  0
  141.3380   72.2410  219.4590 O   0  0  0  0  0  0  0  0  0  0  0  0
  140.9000   73.5850  221.3180 C   0  0  0  0  0  0  0  0  0  0  0  0
  141.1060   74.9330  221.7770 N   0  0  0  0  0  0  0  0  0  0  0  0
  139.9870   75.8030  221.9410 C   0  0  0  0  0  0  0  0  0  0  0  0
  138.8200   75.4070  221.6890 O   0  0  0  0  0  0  0  0  0  0  0  0
  140.2100   77.1720  222.4100 C   0  0  0  0  0  0  0  0  0  0  0  0
  139.1330   77.9610  222.7550 C   0  0  0  0  0  0  0  0  0  0  0  0
  139.2560   79.2590  223.2040 C   0  0  0  0  0  0  0  0  0  0  0  0
  140.5340   79.7710  223.3050 C   0  0  0  0  0  0  0  0  0  0  0  0
  140.6630   81.0610  223.7520 C   0  0  0  0  0  0  0  0  0  0  0  0
  141.9270   81.6030  223.8630 C   0  0  0  0  0  0  0  0  0  0  0  0
  143.0070   80.8210  223.5200 C   0  0  0  0  0  0  0  0  0  0  0  0
  142.8970   79.5250  223.0700 C   0  0  0  0  0  0  0  0  0  0  0  0
  141.6320   78.9800  222.9580 C   0  0  0  0  0  0  0  0  0  0  0  0
  141.4360   77.7150  222.5240 N   0  0  0  0  0  0  0  0  0  0  0  0
  145.9192   73.7133  222.7731 H   0  0  0  0  0  0  0  0  0  0  0  0
  146.7646   72.3061  222.0438 H   0  0  0  0  0  0  0  0  0  0  0  0
  147.5474   73.9229  222.0438 H   0  0  0  0  0  0  0  0  0  0  0  0
  146.2790   74.7022  220.3370 H   0  0  0  0  0  0  0  0  0  0  0  0
  146.2868   72.8962  219.9595 H   0  0  0  0  0  0  0  0  0  0  0  0
  144.1582   72.6377  220.3656 H   0  0  0  0  0  0  0  0  0  0  0  0
  144.1371   73.9966  221.6029 H   0  0  0  0  0  0  0  0  0  0  0  0
  144.4178   74.2918  218.7351 H   0  0  0  0  0  0  0  0  0  0  0  0
  144.3241   76.2768  220.8214 H   0  0  0  0  0  0  0  0  0  0  0  0
  144.8662   76.4065  219.1502 H   0  0  0  0  0  0  0  0  0  0  0  0
  142.1376   77.0100  220.2968 H   0  0  0  0  0  0  0  0  0  0  0  0
  143.6200   78.3000  218.8570 H   0  0  0  0  0  0  0  0  0  0  0  0
  140.9135   75.6703  218.6868 H   0  0  0  0  0  0  0  0  0  0  0  0
  142.2788   75.4559  217.6285 H   0  0  0  0  0  0  0  0  0  0  0  0
  139.8204   73.4077  221.2038 H   0  0  0  0  0  0  0  0  0  0  0  0
  141.3341   72.8984  222.0597 H   0  0  0  0  0  0  0  0  0  0  0  0
  142.0840   75.2840  221.9950 H   0  0  0  0  0  0  0  0  0  0  0  0
  138.1235   77.5328  222.6675 H   0  0  0  0  0  0  0  0  0  0  0  0
  138.3741   79.8603  223.4701 H   0  0  0  0  0  0  0  0  0  0  0  0
  139.7747   81.6530  224.0173 H   0  0  0  0  0  0  0  0  0  0  0  0
  142.0684   82.6348  224.2170 H   0  0  0  0  0  0  0  0  0  0  0  0
  144.0133   81.2560  223.6106 H   0  0  0  0  0  0  0  0  0  0  0  0
  143.7905   78.9397  222.8070 H   0  0  0  0  0  0  0  0  0  0  0  0
  1  2  1  0
  2  3  1  0
  3  4  1  0
  4  5  1  0
  5  6  1  0
  6  7  1  0
  6  8  1  0
  8  9  1  0
  9 10  1  0
 10 11  2  0
 10 12  1  0
 12 13  1  0
 13 14  1  0
 14 15  2  0
 14 16  1  0
 16 17  2  0
 17 18  1  0
 18 19  2  0
 19 20  1  0
 20 21  2  0
 21 22  1  0
 22 23  2  0
 23 24  1  0
 24 25  2  0
  9  4  1  0
 25 16  1  0
 24 19  1  0
  1 26  1  0
  1 27  1  0
  1 28  1  0
  2 29  1  0
  2 30  1  0
  3 31  1  0
  3 32  1  0
  4 33  1  6
  5 34  1  0
  5 35  1  0
  6 36  1  1
  7 37  1  0
  8 38  1  0
  8 39  1  0
 12 40  1  0
 12 41  1  0
 13 42  1  0
 17 43  1  0
 18 44  1  0
 20 45  1  0
 21 46  1  0
 22 47  1  0
 23 48  1  0
M  END
>  <smiles>  (3) 
CCC[C@@H]1C[C@@H](O)CN1C(=O)CNC(=O)c1ccc2ccccc2n1

>  <score_type>  (3) 
oracle

>  <origin>  (3) 
autodockgpu

>  <m_score__min__energy>  (3) 
-7.9699999999999998

>  <m_primary>  (3) 
energy

>  <rmsd>  (3) 
7.615616827194034

>  <m_score__min__rmsd>  (3) 
7.615616827194034

>  <meeko>  (3) 
{"free_energy": -6.75, "intermolecular_energy": -8.84, "internal_energy": -1.78, "cluster_size": 2, "cluster_id": 5, "rank_in_cluster": 1}

>  <energy>  (3) 
-7.86

>  <cluster_rmsd>  (3) 
0.26

>  <cluster>  (3) 
1

$$$$

     RDKit          3D

 48 50  0  0  0  0  0  0  0  0999 V2000
  141.4830   78.6280  223.1300 C   0  0  0  0  0  0  0  0  0  0  0  0
  141.6960   78.9500  221.6830 C   0  0  0  0  0  0  0  0  0  0  0  0
  141.2320   77.9210  220.7170 C   0  0  0  0  0  0  0  0  0  0  0  0
  142.3070   77.1220  220.0960 C   0  0  2  0  0  0  0  0  0  0  0  0
  142.5840   77.2930  218.6600 C   0  0  0  0  0  0  0  0  0  0  0  0
  142.8800   75.8740  218.1510 C   0  0  1  0  0  0  0  0  0  0  0  0
  143.9820   75.8500  217.3000 O   0  0  0  0  0  0  0  0  0  0  0  0
  143.1620   75.1190  219.4140 C   0  0  0  0  0  0  0  0  0  0  0  0
  142.1370   75.6790  220.3270 N   0  0  0  0  0  0  0  0  0  0  0  0
  141.2580   74.9770  221.1650 C   0  0  0  0  0  0  0  0  0  0  0  0
  140.6780   75.4230  222.1800 O   0  0  0  0  0  0  0  0  0  0  0  0
  140.9790   73.5450  220.8220 C   0  0  0  0  0  0  0  0  0  0  0  0
  141.0490   72.6990  221.9840 N   0  0  0  0  0  0  0  0  0  0  0  0
  139.8480   72.3170  222.6540 C   0  0  0  0  0  0  0  0  0  0  0  0
  138.7260   72.7100  222.2420 O   0  0  0  0  0  0  0  0  0  0  0  0
  139.9330   71.4550  223.8340 C   0  0  0  0  0  0  0  0  0  0  0  0
  139.4640   70.1590  223.7700 C   0  0  0  0  0  0  0  0  0  0  0  0
  139.5060   69.2830  224.8350 C   0  0  0  0  0  0  0  0  0  0  0  0
  140.0520   69.7520  226.0140 C   0  0  0  0  0  0  0  0  0  0  0  0
  140.0960   68.8860  227.0750 C   0  0  0  0  0  0  0  0  0  0  0  0
  140.6350   69.3230  228.2680 C   0  0  0  0  0  0  0  0  0  0  0  0
  141.1060   70.6150  228.3380 C   0  0  0  0  0  0  0  0  0  0  0  0
  141.0680   71.4980  227.2840 C   0  0  0  0  0  0  0  0  0  0  0  0
  140.5300   71.0630  226.0880 C   0  0  0  0  0  0  0  0  0  0  0  0
  140.4550   71.8650  225.0040 N   0  0  0  0  0  0  0  0  0  0  0  0
  141.9837   79.3849  223.7516 H   0  0  0  0  0  0  0  0  0  0  0  0
  140.4053   78.6268  223.3506 H   0  0  0  0  0  0  0  0  0  0  0  0
  141.9035   77.6358  223.3506 H   0  0  0  0  0  0  0  0  0  0  0  0
  141.1606   79.8854  221.4630 H   0  0  0  0  0  0  0  0  0  0  0  0
  142.7858   79.0163  221.5487 H   0  0  0  0  0  0  0  0  0  0  0  0
  140.5580   77.2328  221.2482 H   0  0  0  0  0  0  0  0  0  0  0  0
  140.7402   78.4662  219.8979 H   0  0  0  0  0  0  0  0  0  0  0  0
  143.1736   77.5496  220.6216 H   0  0  0  0  0  0  0  0  0  0  0  0
  141.7099   77.7164  218.1436 H   0  0  0  0  0  0  0  0  0  0  0  0
  143.4189   77.9850  218.4756 H   0  0  0  0  0  0  0  0  0  0  0  0
  142.0541   75.4516  217.5599 H   0  0  0  0  0  0  0  0  0  0  0  0
  144.8060   75.6280  217.7850 H   0  0  0  0  0  0  0  0  0  0  0  0
  143.0271   74.0363  219.2738 H   0  0  0  0  0  0  0  0  0  0  0  0
  144.1942   75.2246  219.7792 H   0  0  0  0  0  0  0  0  0  0  0  0
  139.9712   73.4718  220.3872 H   0  0  0  0  0  0  0  0  0  0  0  0
  141.7416   73.2080  220.1045 H   0  0  0  0  0  0  0  0  0  0  0  0
  141.9860   72.3570  222.3450 H   0  0  0  0  0  0  0  0  0  0  0  0
  139.0345   69.8060  222.8209 H   0  0  0  0  0  0  0  0  0  0  0  0
  139.1215   68.2560  224.7490 H   0  0  0  0  0  0  0  0  0  0  0  0
  139.7087   67.8610  226.9776 H   0  0  0  0  0  0  0  0  0  0  0  0
  140.6870   68.6559  229.1411 H   0  0  0  0  0  0  0  0  0  0  0  0
  141.5366   70.9601  229.2896 H   0  0  0  0  0  0  0  0  0  0  0  0
  141.4552   72.5221  227.3903 H   0  0  0  0  0  0  0  0  0  0  0  0
  1  2  1  0
  2  3  1  0
  3  4  1  0
  4  5  1  0
  5  6  1  0
  6  7  1  0
  6  8  1  0
  8  9  1  0
  9 10  1  0
 10 11  2  0
 10 12  1  0
 12 13  1  0
 13 14  1  0
 14 15  2  0
 14 16  1  0
 16 17  2  0
 17 18  1  0
 18 19  2  0
 19 20  1  0
 20 21  2  0
 21 22  1  0
 22 23  2  0
 23 24  1  0
 24 25  2  0
  9  4  1  0
 25 16  1  0
 24 19  1  0
  1 26  1  0
  1 27  1  0
  1 28  1  0
  2 29  1  0
  2 30  1  0
  3 31  1  0
  3 32  1  0
  4 33  1  1
  5 34  1  0
  5 35  1  0
  6 36  1  6
  7 37  1  0
  8 38  1  0
  8 39  1  0
 12 40  1  0
 12 41  1  0
 13 42  1  0
 17 43  1  0
 18 44  1  0
 20 45  1  0
 21 46  1  0
 22 47  1  0
 23 48  1  0
M  END
>  <smiles>  (4) 
CCC[C@@H]1C[C@@H](O)CN1C(=O)CNC(=O)c1ccc2ccccc2n1

>  <score_type>  (4) 
oracle

>  <origin>  (4) 
autodockgpu

>  <m_score__min__energy>  (4) 
-7.9699999999999998

>  <m_primary>  (4) 
energy

>  <rmsd>  (4) 
2.817820493378927

>  <m_score__min__rmsd>  (4) 
2.817820493378927

>  <meeko>  (4) 
{"free_energy": -7.23, "intermolecular_energy": -9.31, "internal_energy": -1.02, "cluster_size": 44, "cluster_id": 1, "rank_in_cluster": 36}

>  <energy>  (4) 
-7.81

>  <cluster_rmsd>  (4) 
0.42

>  <cluster>  (4) 
1

$$$$

     RDKit          3D

 48 50  0  0  0  0  0  0  0  0999 V2000
  145.9080   73.3830  221.0490 C   0  0  0  0  0  0  0  0  0  0  0  0
  144.8180   73.6680  220.0630 C   0  0  0  0  0  0  0  0  0  0  0  0
  143.8200   74.6860  220.4800 C   0  0  0  0  0  0  0  0  0  0  0  0
  142.9810   75.2170  219.3870 C   0  0  2  0  0  0  0  0  0  0  0  0
  143.4420   76.4010  218.6440 C   0  0  0  0  0  0  0  0  0  0  0  0
  142.1710   77.2280  218.4040 C   0  0  1  0  0  0  0  0  0  0  0  0
  142.1120   77.7210  217.1030 O   0  0  0  0  0  0  0  0  0  0  0  0
  141.0760   76.2360  218.6520 C   0  0  0  0  0  0  0  0  0  0  0  0
  141.6040   75.5000  219.8250 N   0  0  0  0  0  0  0  0  0  0  0  0
  140.9330   75.1860  221.0160 C   0  0  0  0  0  0  0  0  0  0  0  0
  141.0790   75.7440  222.1250 O   0  0  0  0  0  0  0  0  0  0  0  0
  139.9360   74.0680  220.9670 C   0  0  0  0  0  0  0  0  0  0  0  0
  139.8420   73.3870  222.2310 N   0  0  0  0  0  0  0  0  0  0  0  0
  140.2320   72.0180  222.3260 C   0  0  0  0  0  0  0  0  0  0  0  0
  140.6580   71.3960  221.3180 O   0  0  0  0  0  0  0  0  0  0  0  0
  140.1330   71.3360  223.6180 C   0  0  0  0  0  0  0  0  0  0  0  0
  139.5370   70.0940  223.6920 C   0  0  0  0  0  0  0  0  0  0  0  0
  139.4020   69.3850  224.8670 C   0  0  0  0  0  0  0  0  0  0  0  0
  139.8990   69.9710  226.0150 C   0  0  0  0  0  0  0  0  0  0  0  0
  139.7690   69.2710  227.1860 C   0  0  0  0  0  0  0  0  0  0  0  0
  140.2540   69.8290  228.3520 C   0  0  0  0  0  0  0  0  0  0  0  0
  140.8510   71.0680  228.2840 C   0  0  0  0  0  0  0  0  0  0  0  0
  140.9900   71.7840  227.1180 C   0  0  0  0  0  0  0  0  0  0  0  0
  140.5050   71.2290  225.9500 C   0  0  0  0  0  0  0  0  0  0  0  0
  140.6010   71.8650  224.7620 N   0  0  0  0  0  0  0  0  0  0  0  0
  145.5142   73.4860  222.0709 H   0  0  0  0  0  0  0  0  0  0  0  0
  146.2782   72.3579  220.9003 H   0  0  0  0  0  0  0  0  0  0  0  0
  146.7325   74.0958  220.9003 H   0  0  0  0  0  0  0  0  0  0  0  0
  145.2879   74.0175  219.1319 H   0  0  0  0  0  0  0  0  0  0  0  0
  144.2584   72.7271  219.9556 H   0  0  0  0  0  0  0  0  0  0  0  0
  143.1567   74.2280  221.2285 H   0  0  0  0  0  0  0  0  0  0  0  0
  144.3938   75.5390  220.8713 H   0  0  0  0  0  0  0  0  0  0  0  0
  143.0521   74.3750  218.6827 H   0  0  0  0  0  0  0  0  0  0  0  0
  144.1706   76.9725  219.2378 H   0  0  0  0  0  0  0  0  0  0  0  0
  143.9481   76.1327  217.7049 H   0  0  0  0  0  0  0  0  0  0  0  0
  142.1136   78.1181  219.0478 H   0  0  0  0  0  0  0  0  0  0  0  0
  142.8550   78.3340  216.9180 H   0  0  0  0  0  0  0  0  0  0  0  0
  140.1254   76.7372  218.8867 H   0  0  0  0  0  0  0  0  0  0  0  0
  140.8463   75.5961  217.7873 H   0  0  0  0  0  0  0  0  0  0  0  0
  138.9493   74.4805  220.7094 H   0  0  0  0  0  0  0  0  0  0  0  0
  140.2685   73.3432  220.2093 H   0  0  0  0  0  0  0  0  0  0  0  0
  139.4860   73.8950  223.0910 H   0  0  0  0  0  0  0  0  0  0  0  0
  139.1492   69.6459  222.7653 H   0  0  0  0  0  0  0  0  0  0  0  0
  138.9199   68.3965  224.8892 H   0  0  0  0  0  0  0  0  0  0  0  0
  139.2869   68.2823  227.1967 H   0  0  0  0  0  0  0  0  0  0  0  0
  140.1658   69.2973  229.3109 H   0  0  0  0  0  0  0  0  0  0  0  0
  141.2383   71.5097  229.2140 H   0  0  0  0  0  0  0  0  0  0  0  0
  141.4742   72.7717  227.1157 H   0  0  0  0  0  0  0  0  0  0  0  0
  1  2  1  0
  2  3  1  0
  3  4  1  0
  4  5  1  0
  5  6  1  0
  6  7  1  0
  6  8  1  0
  8  9  1  0
  9 10  1  0
 10 11  2  0
 10 12  1  0
 12 13  1  0
 13 14  1  0
 14 15  2  0
 14 16  1  0
 16 17  2  0
 17 18  1  0
 18 19  2  0
 19 20  1  0
 20 21  2  0
 21 22  1  0
 22 23  2  0
 23 24  1  0
 24 25  2  0
  9  4  1  0
 25 16  1  0
 24 19  1  0
  1 26  1  0
  1 27  1  0
  1 28  1  0
  2 29  1  0
  2 30  1  0
  3 31  1  0
  3 32  1  0
  4 33  1  6
  5 34  1  0
  5 35  1  0
  6 36  1  1
  7 37  1  0
  8 38  1  0
  8 39  1  0
 12 40  1  0
 12 41  1  0
 13 42  1  0
 17 43  1  0
 18 44  1  0
 20 45  1  0
 21 46  1  0
 22 47  1  0
 23 48  1  0
M  END
>  <smiles>  (5) 
CCC[C@@H]1C[C@@H](O)CN1C(=O)CNC(=O)c1ccc2ccccc2n1

>  <score_type>  (5) 
oracle

>  <origin>  (5) 
autodockgpu

>  <m_score__min__energy>  (5) 
-7.9699999999999998

>  <m_primary>  (5) 
energy

>  <rmsd>  (5) 
2.7200289751902598

>  <m_score__min__rmsd>  (5) 
2.7200289751902598

>  <meeko>  (5) 
{"free_energy": -7.23, "intermolecular_energy": -9.32, "internal_energy": -1.3, "cluster_size": 44, "cluster_id": 1, "rank_in_cluster": 35}

>  <energy>  (5) 
-7.73

>  <cluster_rmsd>  (5) 
0.49

>  <cluster>  (5) 
1

$$$$

     RDKit          3D

 48 50  0  0  0  0  0  0  0  0999 V2000
  142.5860   80.1320  223.3290 C   0  0  0  0  0  0  0  0  0  0  0  0
  141.4000   79.2200  223.2840 C   0  0  0  0  0  0  0  0  0  0  0  0
  140.8260   78.9710  221.9370 C   0  0  0  0  0  0  0  0  0  0  0  0
  141.7190   78.2580  221.0020 C   0  0  2  0  0  0  0  0  0  0  0  0
  141.8710   78.7690  219.6300 C   0  0  0  0  0  0  0  0  0  0  0  0
  141.9270   77.5090  218.7520 C   0  0  1  0  0  0  0  0  0  0  0  0
  142.9250   77.5970  217.7850 O   0  0  0  0  0  0  0  0  0  0  0  0
  142.2320   76.4270  219.7420 C   0  0  0  0  0  0  0  0  0  0  0  0
  141.3860   76.8290  220.8890 N   0  0  0  0  0  0  0  0  0  0  0  0
  140.5120   76.0250  221.6360 C   0  0  0  0  0  0  0  0  0  0  0  0
  139.8360   76.3770  222.6270 O   0  0  0  0  0  0  0  0  0  0  0  0
  140.3650   74.5940  221.2120 C   0  0  0  0  0  0  0  0  0  0  0  0
  140.0620   73.7400  222.3290 N   0  0  0  0  0  0  0  0  0  0  0  0
  140.6500   72.4430  222.4070 C   0  0  0  0  0  0  0  0  0  0  0  0
  141.4320   72.0340  221.5100 O   0  0  0  0  0  0  0  0  0  0  0  0
  140.3340   71.5830  223.5490 C   0  0  0  0  0  0  0  0  0  0  0  0
  139.6290   70.4140  223.3520 C   0  0  0  0  0  0  0  0  0  0  0  0
  139.2900   69.5500  224.3710 C   0  0  0  0  0  0  0  0  0  0  0  0
  139.6900   69.8950  225.6470 C   0  0  0  0  0  0  0  0  0  0  0  0
  139.3570   69.0400  226.6650 C   0  0  0  0  0  0  0  0  0  0  0  0
  139.7410   69.3570  227.9520 C   0  0  0  0  0  0  0  0  0  0  0  0
  140.4460   70.5220  228.1570 C   0  0  0  0  0  0  0  0  0  0  0  0
  140.7880   71.3920  227.1480 C   0  0  0  0  0  0  0  0  0  0  0  0
  140.4050   71.0780  225.8580 C   0  0  0  0  0  0  0  0  0  0  0  0
  140.7010   71.8770  224.8100 N   0  0  0  0  0  0  0  0  0  0  0  0
  142.8518   80.3364  224.3766 H   0  0  0  0  0  0  0  0  0  0  0  0
  143.4364   79.6529  222.8217 H   0  0  0  0  0  0  0  0  0  0  0  0
  142.3414   81.0769  222.8217 H   0  0  0  0  0  0  0  0  0  0  0  0
  141.7037   78.2505  223.7058 H   0  0  0  0  0  0  0  0  0  0  0  0
  140.6101   79.7293  223.8555 H   0  0  0  0  0  0  0  0  0  0  0  0
  139.9121   78.3715  222.0607 H   0  0  0  0  0  0  0  0  0  0  0  0
  140.6415   79.9603  221.4930 H   0  0  0  0  0  0  0  0  0  0  0  0
  142.6823   78.4446  221.4992 H   0  0  0  0  0  0  0  0  0  0  0  0
  141.0124   79.3981  219.3524 H   0  0  0  0  0  0  0  0  0  0  0  0
  142.7663   79.3978  219.5155 H   0  0  0  0  0  0  0  0  0  0  0  0
  140.9984   77.3401  218.1870 H   0  0  0  0  0  0  0  0  0  0  0  0
  143.1610   78.5310  217.5960 H   0  0  0  0  0  0  0  0  0  0  0  0
  141.9437   75.4376  219.3574 H   0  0  0  0  0  0  0  0  0  0  0  0
  143.3004   76.3298  219.9851 H   0  0  0  0  0  0  0  0  0  0  0  0
  139.5509   74.5215  220.4759 H   0  0  0  0  0  0  0  0  0  0  0  0
  141.3194   74.2644  220.7755 H   0  0  0  0  0  0  0  0  0  0  0  0
  139.4050   74.0680  223.0950 H   0  0  0  0  0  0  0  0  0  0  0  0
  139.3210   70.1577  222.3276 H   0  0  0  0  0  0  0  0  0  0  0  0
  138.7255   68.6261  224.1764 H   0  0  0  0  0  0  0  0  0  0  0  0
  138.7938   68.1177  226.4599 H   0  0  0  0  0  0  0  0  0  0  0  0
  139.4900   68.6950  228.7939 H   0  0  0  0  0  0  0  0  0  0  0  0
  140.7524   70.7704  229.1838 H   0  0  0  0  0  0  0  0  0  0  0  0
  141.3509   72.3125  227.3621 H   0  0  0  0  0  0  0  0  0  0  0  0
  1  2  1  0
  2  3  1  0
  3  4  1  0
  4  5  1  0
  5  6  1  0
  6  7  1  0
  6  8  1  0
  8  9  1  0
  9 10  1  0
 10 11  2  0
 10 12  1  0
 12 13  1  0
 13 14  1  0
 14 15  2  0
 14 16  1  0
 16 17  2  0
 17 18  1  0
 18 19  2  0
 19 20  1  0
 20 21  2  0
 21 22  1  0
 22 23  2  0
 23 24  1  0
 24 25  2  0
  9  4  1  0
 25 16  1  0
 24 19  1  0
  1 26  1  0
  1 27  1  0
  1 28  1  0
  2 29  1  0
  2 30  1  0
  3 31  1  0
  3 32  1  0
  4 33  1  1
  5 34  1  0
  5 35  1  0
  6 36  1  6
  7 37  1  0
  8 38  1  0
  8 39  1  0
 12 40  1  0
 12 41  1  0
 13 42  1  0
 17 43  1  0
 18 44  1  0
 20 45  1  0
 21 46  1  0
 22 47  1  0
 23 48  1  0
M  END
>  <smiles>  (6) 
CCC[C@@H]1C[C@@H](O)CN1C(=O)CNC(=O)c1ccc2ccccc2n1

>  <score_type>  (6) 
oracle

>  <origin>  (6) 
autodockgpu

>  <m_score__min__energy>  (6) 
-7.9699999999999998

>  <m_primary>  (6) 
energy

>  <rmsd>  (6) 
3.082664666267627

>  <m_score__min__rmsd>  (6) 
3.082664666267627

>  <meeko>  (6) 
{"free_energy": -7.42, "intermolecular_energy": -9.51, "internal_energy": -1.32, "cluster_size": 44, "cluster_id": 1, "rank_in_cluster": 25}

>  <energy>  (6) 
-7.73

>  <cluster_rmsd>  (6) 
0.56

>  <cluster>  (6) 
1

$$$$

     RDKit          3D

 48 50  0  0  0  0  0  0  0  0999 V2000
  141.7390   79.1210  223.8400 C   0  0  0  0  0  0  0  0  0  0  0  0
  140.3020   79.1500  223.4230 C   0  0  0  0  0  0  0  0  0  0  0  0
  139.9200   78.1900  222.3560 C   0  0  0  0  0  0  0  0  0  0  0  0
  141.0360   77.3940  221.8060 C   0  0  2  0  0  0  0  0  0  0  0  0
  141.8580   77.9680  220.7280 C   0  0  0  0  0  0  0  0  0  0  0  0
  142.1370   76.7890  219.7840 C   0  0  1  0  0  0  0  0  0  0  0  0
  143.4660   76.7620  219.3700 O   0  0  0  0  0  0  0  0  0  0  0  0
  141.8150   75.5980  220.6350 C   0  0  0  0  0  0  0  0  0  0  0  0
  140.6030   76.0640  221.3480 N   0  0  0  0  0  0  0  0  0  0  0  0
  139.3880   75.3830  221.5130 C   0  0  0  0  0  0  0  0  0  0  0  0
  138.2900   75.8830  221.8390 O   0  0  0  0  0  0  0  0  0  0  0  0
  139.3940   73.9030  221.2780 C   0  0  0  0  0  0  0  0  0  0  0  0
  139.5480   73.1720  222.5070 N   0  0  0  0  0  0  0  0  0  0  0  0
  139.6420   71.7480  222.4770 C   0  0  0  0  0  0  0  0  0  0  0  0
  139.5930   71.1220  221.3870 O   0  0  0  0  0  0  0  0  0  0  0  0
  139.7990   71.0160  223.7350 C   0  0  0  0  0  0  0  0  0  0  0  0
  139.4500   69.6830  223.7990 C   0  0  0  0  0  0  0  0  0  0  0  0
  139.5660   68.9220  224.9430 C   0  0  0  0  0  0  0  0  0  0  0  0
  140.0600   69.5510  226.0690 C   0  0  0  0  0  0  0  0  0  0  0  0
  140.1780   68.8000  227.2100 C   0  0  0  0  0  0  0  0  0  0  0  0
  140.6670   69.3990  228.3530 C   0  0  0  0  0  0  0  0  0  0  0  0
  141.0170   70.7290  228.2950 C   0  0  0  0  0  0  0  0  0  0  0  0
  140.9060   71.4980  227.1600 C   0  0  0  0  0  0  0  0  0  0  0  0
  140.4160   70.9010  226.0150 C   0  0  0  0  0  0  0  0  0  0  0  0
  140.2750   71.5850  224.8570 N   0  0  0  0  0  0  0  0  0  0  0  0
  141.8022   79.1197  224.9382 H   0  0  0  0  0  0  0  0  0  0  0  0
  142.2174   78.2130  223.4442 H   0  0  0  0  0  0  0  0  0  0  0  0
  142.2537   80.0089  223.4442 H   0  0  0  0  0  0  0  0  0  0  0  0
  139.6887   78.9312  224.3095 H   0  0  0  0  0  0  0  0  0  0  0  0
  140.1337   80.1510  222.9991 H   0  0  0  0  0  0  0  0  0  0  0  0
  139.1769   77.4941  222.7727 H   0  0  0  0  0  0  0  0  0  0  0  0
  139.5321   78.7940  221.5225 H   0  0  0  0  0  0  0  0  0  0  0  0
  141.6856   77.3607  222.6931 H   0  0  0  0  0  0  0  0  0  0  0  0
  141.3095   78.7642  220.2034 H   0  0  0  0  0  0  0  0  0  0  0  0
  142.7831   78.4264  221.1077 H   0  0  0  0  0  0  0  0  0  0  0  0
  141.5508   76.8377  218.8544 H   0  0  0  0  0  0  0  0  0  0  0  0
  144.0050   77.4280  219.8490 H   0  0  0  0  0  0  0  0  0  0  0  0
  141.6035   74.7104  220.0206 H   0  0  0  0  0  0  0  0  0  0  0  0
  142.6345   75.2866  221.2994 H   0  0  0  0  0  0  0  0  0  0  0  0
  138.4434   73.6126  220.8067 H   0  0  0  0  0  0  0  0  0  0  0  0
  140.2460   73.6619  220.6254 H   0  0  0  0  0  0  0  0  0  0  0  0
  139.5920   73.6840  223.4360 H   0  0  0  0  0  0  0  0  0  0  0  0
  139.0589   69.2022  222.8903 H   0  0  0  0  0  0  0  0  0  0  0  0
  139.2777   67.8605  224.9582 H   0  0  0  0  0  0  0  0  0  0  0  0
  139.8880   67.7389  227.2143 H   0  0  0  0  0  0  0  0  0  0  0  0
  140.7744   68.8280  229.2870 H   0  0  0  0  0  0  0  0  0  0  0  0
  141.4073   71.2034  229.2075 H   0  0  0  0  0  0  0  0  0  0  0  0
  141.1991   72.5582  227.1641 H   0  0  0  0  0  0  0  0  0  0  0  0
  1  2  1  0
  2  3  1  0
  3  4  1  0
  4  5  1  0
  5  6  1  0
  6  7  1  0
  6  8  1  0
  8  9  1  0
  9 10  1  0
 10 11  2  0
 10 12  1  0
 12 13  1  0
 13 14  1  0
 14 15  2  0
 14 16  1  0
 16 17  2  0
 17 18  1  0
 18 19  2  0
 19 20  1  0
 20 21  2  0
 21 22  1  0
 22 23  2  0
 23 24  1  0
 24 25  2  0
  9  4  1  0
 25 16  1  0
 24 19  1  0
  1 26  1  0
  1 27  1  0
  1 28  1  0
  2 29  1  0
  2 30  1  0
  3 31  1  0
  3 32  1  0
  4 33  1  1
  5 34  1  0
  5 35  1  0
  6 36  1  6
  7 37  1  0
  8 38  1  0
  8 39  1  0
 12 40  1  0
 12 41  1  0
 13 42  1  0
 17 43  1  0
 18 44  1  0
 20 45  1  0
 21 46  1  0
 22 47  1  0
 23 48  1  0
M  END
>  <smiles>  (7) 
CCC[C@@H]1C[C@@H](O)CN1C(=O)CNC(=O)c1ccc2ccccc2n1

>  <score_type>  (7) 
oracle

>  <origin>  (7) 
autodockgpu

>  <m_score__min__energy>  (7) 
-7.9699999999999998

>  <m_primary>  (7) 
energy

>  <rmsd>  (7) 
2.939473171403455

>  <m_score__min__rmsd>  (7) 
2.939473171403455

>  <meeko>  (7) 
{"free_energy": -7.63, "intermolecular_energy": -9.71, "internal_energy": -1.13, "cluster_size": 44, "cluster_id": 1, "rank_in_cluster": 10}

>  <energy>  (7) 
-7.67

>  <cluster_rmsd>  (7) 
0.63

>  <cluster>  (7) 
1

$$$$

     RDKit          3D

 48 50  0  0  0  0  0  0  0  0999 V2000
  145.5730   73.0220  220.9770 C   0  0  0  0  0  0  0  0  0  0  0  0
  144.7840   74.2280  220.5710 C   0  0  0  0  0  0  0  0  0  0  0  0
  143.3560   73.9850  220.2430 C   0  0  0  0  0  0  0  0  0  0  0  0
  142.7560   74.9640  219.3150 C   0  0  2  0  0  0  0  0  0  0  0  0
  143.6080   76.0160  218.7380 C   0  0  0  0  0  0  0  0  0  0  0  0
  142.7220   77.2710  218.7290 C   0  0  1  0  0  0  0  0  0  0  0  0
  142.8330   77.9730  217.5310 O   0  0  0  0  0  0  0  0  0  0  0  0
  141.3440   76.7060  218.8950 C   0  0  0  0  0  0  0  0  0  0  0  0
  141.5810   75.6370  219.8920 N   0  0  0  0  0  0  0  0  0  0  0  0
  140.8540   75.3780  221.0640 C   0  0  0  0  0  0  0  0  0  0  0  0
  140.9530   75.9840  222.1530 O   0  0  0  0  0  0  0  0  0  0  0  0
  139.8540   74.2630  221.0190 C   0  0  0  0  0  0  0  0  0  0  0  0
  139.8280   73.5240  222.2530 N   0  0  0  0  0  0  0  0  0  0  0  0
  140.1670   72.1380  222.2550 C   0  0  0  0  0  0  0  0  0  0  0  0
  140.4900   71.5510  221.1900 O   0  0  0  0  0  0  0  0  0  0  0  0
  140.1380   71.3990  223.5180 C   0  0  0  0  0  0  0  0  0  0  0  0
  139.5870   70.1340  223.5580 C   0  0  0  0  0  0  0  0  0  0  0  0
  139.5190   69.3710  224.7040 C   0  0  0  0  0  0  0  0  0  0  0  0
  140.0370   69.9240  225.8590 C   0  0  0  0  0  0  0  0  0  0  0  0
  139.9720   69.1700  227.0020 C   0  0  0  0  0  0  0  0  0  0  0  0
  140.4800   69.6950  228.1740 C   0  0  0  0  0  0  0  0  0  0  0  0
  141.0310   70.9560  228.1410 C   0  0  0  0  0  0  0  0  0  0  0  0
  141.1040   71.7260  227.0040 C   0  0  0  0  0  0  0  0  0  0  0  0
  140.5960   71.2040  225.8300 C   0  0  0  0  0  0  0  0  0  0  0  0
  140.6280   71.8950  224.6680 N   0  0  0  0  0  0  0  0  0  0  0  0
  145.6123   72.9620  222.0747 H   0  0  0  0  0  0  0  0  0  0  0  0
  145.0916   72.1173  220.5773 H   0  0  0  0  0  0  0  0  0  0  0  0
  146.5948   73.1007  220.5773 H   0  0  0  0  0  0  0  0  0  0  0  0
  144.8219   74.9508  221.3993 H   0  0  0  0  0  0  0  0  0  0  0  0
  145.2472   74.5892  219.6409 H   0  0  0  0  0  0  0  0  0  0  0  0
  143.2752   72.9875  219.7865 H   0  0  0  0  0  0  0  0  0  0  0  0
  142.8022   74.0771  221.1890 H   0  0  0  0  0  0  0  0  0  0  0  0
  142.5081   74.2895  218.4822 H   0  0  0  0  0  0  0  0  0  0  0  0
  144.5017   76.1760  219.3591 H   0  0  0  0  0  0  0  0  0  0  0  0
  143.9708   75.7544  217.7331 H   0  0  0  0  0  0  0  0  0  0  0  0
  142.9982   77.9953  219.5094 H   0  0  0  0  0  0  0  0  0  0  0  0
  143.5980   78.5870  217.5450 H   0  0  0  0  0  0  0  0  0  0  0  0
  140.6427   77.4628  219.2764 H   0  0  0  0  0  0  0  0  0  0  0  0
  140.8885   76.3525  217.9582 H   0  0  0  0  0  0  0  0  0  0  0  0
  138.8555   74.6864  220.8355 H   0  0  0  0  0  0  0  0  0  0  0  0
  140.1434   73.5741  220.2118 H   0  0  0  0  0  0  0  0  0  0  0  0
  139.5590   74.0030  223.1610 H   0  0  0  0  0  0  0  0  0  0  0  0
  139.1809   69.7127  222.6265 H   0  0  0  0  0  0  0  0  0  0  0  0
  139.0719   68.3660  224.6990 H   0  0  0  0  0  0  0  0  0  0  0  0
  139.5236   68.1657  226.9860 H   0  0  0  0  0  0  0  0  0  0  0  0
  140.4452   69.1196  229.1109 H   0  0  0  0  0  0  0  0  0  0  0  0
  141.4354   71.3708  229.0761 H   0  0  0  0  0  0  0  0  0  0  0  0
  141.5542   72.7293  227.0285 H   0  0  0  0  0  0  0  0  0  0  0  0
  1  2  1  0
  2  3  1  0
  3  4  1  0
  4  5  1  0
  5  6  1  0
  6  7  1  0
  6  8  1  0
  8  9  1  0
  9 10  1  0
 10 11  2  0
 10 12  1  0
 12 13  1  0
 13 14  1  0
 14 15  2  0
 14 16  1  0
 16 17  2  0
 17 18  1  0
 18 19  2  0
 19 20  1  0
 20 21  2  0
 21 22  1  0
 22 23  2  0
 23 24  1  0
 24 25  2  0
  9  4  1  0
 25 16  1  0
 24 19  1  0
  1 26  1  0
  1 27  1  0
  1 28  1  0
  2 29  1  0
  2 30  1  0
  3 31  1  0
  3 32  1  0
  4 33  1  6
  5 34  1  0
  5 35  1  0
  6 36  1  1
  7 37  1  0
  8 38  1  0
  8 39  1  0
 12 40  1  0
 12 41  1  0
 13 42  1  0
 17 43  1  0
 18 44  1  0
 20 45  1  0
 21 46  1  0
 22 47  1  0
 23 48  1  0
M  END
>  <smiles>  (8) 
CCC[C@@H]1C[C@@H](O)CN1C(=O)CNC(=O)c1ccc2ccccc2n1

>  <score_type>  (8) 
oracle

>  <origin>  (8) 
autodockgpu

>  <m_score__min__energy>  (8) 
-7.9699999999999998

>  <m_primary>  (8) 
energy

>  <rmsd>  (8) 
2.8343946448982287

>  <m_score__min__rmsd>  (8) 
2.8343946448982287

>  <meeko>  (8) 
{"free_energy": -7.36, "intermolecular_energy": -9.45, "internal_energy": -1.42, "cluster_size": 44, "cluster_id": 1, "rank_in_cluster": 28}

>  <energy>  (8) 
-7.65

>  <cluster_rmsd>  (8) 
0.63

>  <cluster>  (8) 
1

$$$$

     RDKit          3D

 48 50  0  0  0  0  0  0  0  0999 V2000
  145.3090   73.0410  221.1840 C   0  0  0  0  0  0  0  0  0  0  0  0
  144.6550   74.1700  220.4500 C   0  0  0  0  0  0  0  0  0  0  0  0
  143.1700   74.1460  220.4170 C   0  0  0  0  0  0  0  0  0  0  0  0
  142.5460   75.2650  219.6830 C   0  0  2  0  0  0  0  0  0  0  0  0
  143.3300   76.4870  219.4430 C   0  0  0  0  0  0  0  0  0  0  0  0
  142.3270   77.6340  219.6350 C   0  0  1  0  0  0  0  0  0  0  0  0
  142.4550   78.6040  218.6440 O   0  0  0  0  0  0  0  0  0  0  0  0
  141.0030   76.9390  219.5370 C   0  0  0  0  0  0  0  0  0  0  0  0
  141.2710   75.6880  220.2840 N   0  0  0  0  0  0  0  0  0  0  0  0
  140.4890   75.1040  221.2920 C   0  0  0  0  0  0  0  0  0  0  0  0
  140.1160   75.6470  222.3550 O   0  0  0  0  0  0  0  0  0  0  0  0
  140.0500   73.6870  221.0860 C   0  0  0  0  0  0  0  0  0  0  0  0
  139.9270   72.9830  222.3350 N   0  0  0  0  0  0  0  0  0  0  0  0
  140.1850   71.5810  222.3850 C   0  0  0  0  0  0  0  0  0  0  0  0
  140.5200   70.9490  221.3500 O   0  0  0  0  0  0  0  0  0  0  0  0
  140.0560   70.8770  223.6620 C   0  0  0  0  0  0  0  0  0  0  0  0
  139.4780   69.6250  223.6990 C   0  0  0  0  0  0  0  0  0  0  0  0
  139.3190   68.8960  224.8580 C   0  0  0  0  0  0  0  0  0  0  0  0
  139.7710   69.4710  226.0300 C   0  0  0  0  0  0  0  0  0  0  0  0
  139.6150   68.7510  227.1860 C   0  0  0  0  0  0  0  0  0  0  0  0
  140.0550   69.2980  228.3740 C   0  0  0  0  0  0  0  0  0  0  0  0
  140.6330   70.5470  228.3440 C   0  0  0  0  0  0  0  0  0  0  0  0
  140.7970   71.2840  227.1950 C   0  0  0  0  0  0  0  0  0  0  0  0
  140.3570   70.7390  226.0040 C   0  0  0  0  0  0  0  0  0  0  0  0
  140.4800   71.3960  224.8290 N   0  0  0  0  0  0  0  0  0  0  0  0
  145.2143   73.2045  222.2677 H   0  0  0  0  0  0  0  0  0  0  0  0
  144.8195   72.0943  220.9118 H   0  0  0  0  0  0  0  0  0  0  0  0
  146.3738   72.9947  220.9118 H   0  0  0  0  0  0  0  0  0  0  0  0
  144.9667   75.1097  220.9294 H   0  0  0  0  0  0  0  0  0  0  0  0
  144.9785   74.0728  219.4032 H   0  0  0  0  0  0  0  0  0  0  0  0
  142.8540   73.2063  219.9404 H   0  0  0  0  0  0  0  0  0  0  0  0
  142.8368   74.2383  221.4613 H   0  0  0  0  0  0  0  0  0  0  0  0
  142.4281   74.7878  218.6989 H   0  0  0  0  0  0  0  0  0  0  0  0
  144.1551   76.5674  220.1660 H   0  0  0  0  0  0  0  0  0  0  0  0
  143.7905   76.4980  218.4441 H   0  0  0  0  0  0  0  0  0  0  0  0
  142.4724   78.1739  220.5823 H   0  0  0  0  0  0  0  0  0  0  0  0
  143.3630   78.9750  218.6200 H   0  0  0  0  0  0  0  0  0  0  0  0
  140.2041   77.5274  220.0118 H   0  0  0  0  0  0  0  0  0  0  0  0
  140.6548   76.7801  218.5057 H   0  0  0  0  0  0  0  0  0  0  0  0
  139.0742   73.6859  220.5782 H   0  0  0  0  0  0  0  0  0  0  0  0
  140.8107   73.1765  220.4771 H   0  0  0  0  0  0  0  0  0  0  0  0
  139.6450   73.5000  223.2180 H   0  0  0  0  0  0  0  0  0  0  0  0
  139.1256   69.1854  222.7542 H   0  0  0  0  0  0  0  0  0  0  0  0
  138.8526   67.8998  224.8501 H   0  0  0  0  0  0  0  0  0  0  0  0
  139.1476   67.7554  227.1670 H   0  0  0  0  0  0  0  0  0  0  0  0
  139.9466   68.7496  229.3214 H   0  0  0  0  0  0  0  0  0  0  0  0
  140.9834   70.9797  229.2927 H   0  0  0  0  0  0  0  0  0  0  0  0
  141.2651   72.2790  227.2231 H   0  0  0  0  0  0  0  0  0  0  0  0
  1  2  1  0
  2  3  1  0
  3  4  1  0
  4  5  1  0
  5  6  1  0
  6  7  1  0
  6  8  1  0
  8  9  1  0
  9 10  1  0
 10 11  2  0
 10 12  1  0
 12 13  1  0
 13 14  1  0
 14 15  2  0
 14 16  1  0
 16 17  2  0
 17 18  1  0
 18 19  2  0
 19 20  1  0
 20 21  2  0
 21 22  1  0
 22 23  2  0
 23 24  1  0
 24 25  2  0
  9  4  1  0
 25 16  1  0
 24 19  1  0
  1 26  1  0
  1 27  1  0
  1 28  1  0
  2 29  1  0
  2 30  1  0
  3 31  1  0
  3 32  1  0
  4 33  1  6
  5 34  1  0
  5 35  1  0
  6 36  1  1
  7 37  1  0
  8 38  1  0
  8 39  1  0
 12 40  1  0
 12 41  1  0
 13 42  1  0
 17 43  1  0
 18 44  1  0
 20 45  1  0
 21 46  1  0
 22 47  1  0
 23 48  1  0
M  END
>  <smiles>  (9) 
CCC[C@@H]1C[C@@H](O)CN1C(=O)CNC(=O)c1ccc2ccccc2n1

>  <score_type>  (9) 
oracle

>  <origin>  (9) 
autodockgpu

>  <m_score__min__energy>  (9) 
-7.9699999999999998

>  <m_primary>  (9) 
energy

>  <rmsd>  (9) 
2.71607866167209

>  <m_score__min__rmsd>  (9) 
2.71607866167209

>  <meeko>  (9) 
{"free_energy": -7.31, "intermolecular_energy": -9.4, "internal_energy": -1.54, "cluster_size": 44, "cluster_id": 1, "rank_in_cluster": 32}

>  <energy>  (9) 
-7.64

>  <cluster_rmsd>  (9) 
1.72

>  <cluster>  (9) 
1

$$$$

     RDKit          3D

 48 50  0  0  0  0  0  0  0  0999 V2000
  142.1950   80.2290  223.4600 C   0  0  0  0  0  0  0  0  0  0  0  0
  141.0350   79.3590  223.8350 C   0  0  0  0  0  0  0  0  0  0  0  0
  140.3860   78.6300  222.7150 C   0  0  0  0  0  0  0  0  0  0  0  0
  141.3130   77.9020  221.8260 C   0  0  2  0  0  0  0  0  0  0  0  0
  141.8280   78.5770  220.6240 C   0  0  0  0  0  0  0  0  0  0  0  0
  141.8410   77.4860  219.5430 C   0  0  1  0  0  0  0  0  0  0  0  0
  143.0160   77.5150  218.7950 O   0  0  0  0  0  0  0  0  0  0  0  0
  141.7460   76.2230  220.3430 C   0  0  0  0  0  0  0  0  0  0  0  0
  140.7670   76.6080  221.3860 N   0  0  0  0  0  0  0  0  0  0  0  0
  139.6320   75.8960  221.8040 C   0  0  0  0  0  0  0  0  0  0  0  0
  138.7390   76.3040  222.5790 O   0  0  0  0  0  0  0  0  0  0  0  0
  139.4620   74.5040  221.2760 C   0  0  0  0  0  0  0  0  0  0  0  0
  139.3290   73.5470  222.3410 N   0  0  0  0  0  0  0  0  0  0  0  0
  140.3690   72.5970  222.5730 C   0  0  0  0  0  0  0  0  0  0  0  0
  141.4030   72.5860  221.8570 O   0  0  0  0  0  0  0  0  0  0  0  0
  140.2210   71.6280  223.6600 C   0  0  0  0  0  0  0  0  0  0  0  0
  139.5790   70.4300  223.4260 C   0  0  0  0  0  0  0  0  0  0  0  0
  139.3980   69.4640  224.3940 C   0  0  0  0  0  0  0  0  0  0  0  0
  139.8950   69.7350  225.6540 C   0  0  0  0  0  0  0  0  0  0  0  0
  139.7180   68.7790  226.6200 C   0  0  0  0  0  0  0  0  0  0  0  0
  140.2020   69.0190  227.8900 C   0  0  0  0  0  0  0  0  0  0  0  0
  140.8450   70.2130  228.1290 C   0  0  0  0  0  0  0  0  0  0  0  0
  141.0310   71.1840  227.1730 C   0  0  0  0  0  0  0  0  0  0  0  0
  140.5470   70.9460  225.9010 C   0  0  0  0  0  0  0  0  0  0  0  0
  140.6880   71.8470  224.9030 N   0  0  0  0  0  0  0  0  0  0  0  0
  142.6867   80.5978  224.3723 H   0  0  0  0  0  0  0  0  0  0  0  0
  142.9140   79.6456  222.8662 H   0  0  0  0  0  0  0  0  0  0  0  0
  141.8362   81.0826  222.8662 H   0  0  0  0  0  0  0  0  0  0  0  0
  141.3926   78.6137  224.5608 H   0  0  0  0  0  0  0  0  0  0  0  0
  140.2678   80.0389  224.2338 H   0  0  0  0  0  0  0  0  0  0  0  0
  139.6817   77.9020  223.1439 H   0  0  0  0  0  0  0  0  0  0  0  0
  139.8978   79.3939  222.0920 H   0  0  0  0  0  0  0  0  0  0  0  0
  142.1722   77.8059  222.5061 H   0  0  0  0  0  0  0  0  0  0  0  0
  141.1672   79.4062  220.3310 H   0  0  0  0  0  0  0  0  0  0  0  0
  142.8236   79.0158  220.7861 H   0  0  0  0  0  0  0  0  0  0  0  0
  141.0315   77.6035  218.8075 H   0  0  0  0  0  0  0  0  0  0  0  0
  143.8080   77.5700  219.3710 H   0  0  0  0  0  0  0  0  0  0  0  0
  141.3746   75.3871  219.7320 H   0  0  0  0  0  0  0  0  0  0  0  0
  142.7091   75.8696  220.7400 H   0  0  0  0  0  0  0  0  0  0  0  0
  138.5592   74.4678  220.6486 H   0  0  0  0  0  0  0  0  0  0  0  0
  140.3571   74.2459  220.6911 H   0  0  0  0  0  0  0  0  0  0  0  0
  138.4640   73.5410  222.9550 H   0  0  0  0  0  0  0  0  0  0  0  0
  139.1913   70.2347  222.4153 H   0  0  0  0  0  0  0  0  0  0  0  0
  138.8804   68.5191  224.1722 H   0  0  0  0  0  0  0  0  0  0  0  0
  139.1994   67.8372  226.3872 H   0  0  0  0  0  0  0  0  0  0  0  0
  140.0773   68.2754  228.6909 H   0  0  0  0  0  0  0  0  0  0  0  0
  141.2316   70.4007  229.1416 H   0  0  0  0  0  0  0  0  0  0  0  0
  141.5503   72.1233  227.4142 H   0  0  0  0  0  0  0  0  0  0  0  0
  1  2  1  0
  2  3  1  0
  3  4  1  0
  4  5  1  0
  5  6  1  0
  6  7  1  0
  6  8  1  0
  8  9  1  0
  9 10  1  0
 10 11  2  0
 10 12  1  0
 12 13  1  0
 13 14  1  0
 14 15  2  0
 14 16  1  0
 16 17  2  0
 17 18  1  0
 18 19  2  0
 19 20  1  0
 20 21  2  0
 21 22  1  0
 22 23  2  0
 23 24  1  0
 24 25  2  0
  9  4  1  0
 25 16  1  0
 24 19  1  0
  1 26  1  0
  1 27  1  0
  1 28  1  0
  2 29  1  0
  2 30  1  0
  3 31  1  0
  3 32  1  0
  4 33  1  1
  5 34  1  0
  5 35  1  0
  6 36  1  6
  7 37  1  0
  8 38  1  0
  8 39  1  0
 12 40  1  0
 12 41  1  0
 13 42  1  0
 17 43  1  0
 18 44  1  0
 20 45  1  0
 21 46  1  0
 22 47  1  0
 23 48  1  0
M  END
>  <smiles>  (10) 
CCC[C@@H]1C[C@@H](O)CN1C(=O)CNC(=O)c1ccc2ccccc2n1

>  <score_type>  (10) 
oracle

>  <origin>  (10) 
autodockgpu

>  <m_score__min__energy>  (10) 
-7.9699999999999998

>  <m_primary>  (10) 
energy

>  <rmsd>  (10) 
3.1646301373673222

>  <m_score__min__rmsd>  (10) 
3.1646301373673222

>  <meeko>  (10) 
{"free_energy": -7.97, "intermolecular_energy": -10.06, "internal_energy": -1.04, "cluster_size": 44, "cluster_id": 1, "rank_in_cluster": 1}

>  <energy>  (10) 
-7.63

>  <cluster_rmsd>  (10) 
0.84

>  <cluster>  (10) 
1

$$$$

     RDKit          3D

 48 50  0  0  0  0  0  0  0  0999 V2000
  142.5650   79.6060  223.0860 C   0  0  0  0  0  0  0  0  0  0  0  0
  141.2780   79.9870  222.4230 C   0  0  0  0  0  0  0  0  0  0  0  0
  140.7150   78.9860  221.4810 C   0  0  0  0  0  0  0  0  0  0  0  0
  141.7160   78.2490  220.6850 C   0  0  2  0  0  0  0  0  0  0  0  0
  141.8770   78.5780  219.2590 C   0  0  0  0  0  0  0  0  0  0  0  0
  142.0980   77.2220  218.5720 C   0  0  1  0  0  0  0  0  0  0  0  0
  143.1240   77.2810  217.6320 O   0  0  0  0  0  0  0  0  0  0  0  0
  142.4670   76.3260  219.7150 C   0  0  0  0  0  0  0  0  0  0  0  0
  141.5340   76.7910  220.7670 N   0  0  0  0  0  0  0  0  0  0  0  0
  140.7140   76.0100  221.5940 C   0  0  0  0  0  0  0  0  0  0  0  0
  140.1880   76.3630  222.6720 O   0  0  0  0  0  0  0  0  0  0  0  0
  140.4310   74.6060  221.1520 C   0  0  0  0  0  0  0  0  0  0  0  0
  140.1400   73.7480  222.2690 N   0  0  0  0  0  0  0  0  0  0  0  0
  140.6010   72.3980  222.2630 C   0  0  0  0  0  0  0  0  0  0  0  0
  141.2620   71.9460  221.2920 O   0  0  0  0  0  0  0  0  0  0  0  0
  140.2990   71.5350  223.4060 C   0  0  0  0  0  0  0  0  0  0  0  0
  139.6420   70.3380  223.2050 C   0  0  0  0  0  0  0  0  0  0  0  0
  139.3190   69.4680  224.2250 C   0  0  0  0  0  0  0  0  0  0  0  0
  139.6830   69.8380  225.5050 C   0  0  0  0  0  0  0  0  0  0  0  0
  139.3650   68.9770  226.5240 C   0  0  0  0  0  0  0  0  0  0  0  0
  139.7140   69.3170  227.8150 C   0  0  0  0  0  0  0  0  0  0  0  0
  140.3700   70.5100  228.0220 C   0  0  0  0  0  0  0  0  0  0  0  0
  140.6970   71.3860  227.0130 C   0  0  0  0  0  0  0  0  0  0  0  0
  140.3480   71.0480  225.7200 C   0  0  0  0  0  0  0  0  0  0  0  0
  140.6320   71.8510  224.6700 N   0  0  0  0  0  0  0  0  0  0  0  0
  142.4398   79.6431  224.1782 H   0  0  0  0  0  0  0  0  0  0  0  0
  142.8455   78.5863  222.7835 H   0  0  0  0  0  0  0  0  0  0  0  0
  143.3554   80.3087  222.7835 H   0  0  0  0  0  0  0  0  0  0  0  0
  140.5320   80.1653  223.2115 H   0  0  0  0  0  0  0  0  0  0  0  0
  141.5067   80.8744  221.8145 H   0  0  0  0  0  0  0  0  0  0  0  0
  140.1372   78.2545  222.0650 H   0  0  0  0  0  0  0  0  0  0  0  0
  140.1034   79.5499  220.7613 H   0  0  0  0  0  0  0  0  0  0  0  0
  142.6324   78.6037  221.1794 H   0  0  0  0  0  0  0  0  0  0  0  0
  140.9729   79.0683  218.8690 H   0  0  0  0  0  0  0  0  0  0  0  0
  142.7089   79.2758  219.0828 H   0  0  0  0  0  0  0  0  0  0  0  0
  141.2170   76.8784  218.0101 H   0  0  0  0  0  0  0  0  0  0  0  0
  143.3830   78.2080  217.4410 H   0  0  0  0  0  0  0  0  0  0  0  0
  142.2979   75.2678  219.4669 H   0  0  0  0  0  0  0  0  0  0  0  0
  143.5278   76.3776  220.0013 H   0  0  0  0  0  0  0  0  0  0  0  0
  139.5660   74.6131  220.4724 H   0  0  0  0  0  0  0  0  0  0  0  0
  141.3263   74.2180  220.6441 H   0  0  0  0  0  0  0  0  0  0  0  0
  139.5840   74.1110  223.0970 H   0  0  0  0  0  0  0  0  0  0  0  0
  139.3613   70.0636  222.1774 H   0  0  0  0  0  0  0  0  0  0  0  0
  138.7947   68.5213  224.0280 H   0  0  0  0  0  0  0  0  0  0  0  0
  138.8412   68.0324  226.3159 H   0  0  0  0  0  0  0  0  0  0  0  0
  139.4742   68.6518  228.6576 H   0  0  0  0  0  0  0  0  0  0  0  0
  140.6481   70.7775  229.0521 H   0  0  0  0  0  0  0  0  0  0  0  0
  141.2213   72.3284  227.2296 H   0  0  0  0  0  0  0  0  0  0  0  0
  1  2  1  0
  2  3  1  0
  3  4  1  0
  4  5  1  0
  5  6  1  0
  6  7  1  0
  6  8  1  0
  8  9  1  0
  9 10  1  0
 10 11  2  0
 10 12  1  0
 12 13  1  0
 13 14  1  0
 14 15  2  0
 14 16  1  0
 16 17  2  0
 17 18  1  0
 18 19  2  0
 19 20  1  0
 20 21  2  0
 21 22  1  0
 22 23  2  0
 23 24  1  0
 24 25  2  0
  9  4  1  0
 25 16  1  0
 24 19  1  0
  1 26  1  0
  1 27  1  0
  1 28  1  0
  2 29  1  0
  2 30  1  0
  3 31  1  0
  3 32  1  0
  4 33  1  1
  5 34  1  0
  5 35  1  0
  6 36  1  6
  7 37  1  0
  8 38  1  0
  8 39  1  0
 12 40  1  0
 12 41  1  0
 13 42  1  0
 17 43  1  0
 18 44  1  0
 20 45  1  0
 21 46  1  0
 22 47  1  0
 23 48  1  0
M  END
>  <smiles>  (11) 
CCC[C@@H]1C[C@@H](O)CN1C(=O)CNC(=O)c1ccc2ccccc2n1

>  <score_type>  (11) 
oracle

>  <origin>  (11) 
autodockgpu

>  <m_score__min__energy>  (11) 
-7.9699999999999998

>  <m_primary>  (11) 
energy

>  <rmsd>  (11) 
3.0156661463793206

>  <m_score__min__rmsd>  (11) 
3.0156661463793206

>  <meeko>  (11) 
{"free_energy": -7.12, "intermolecular_energy": -9.21, "internal_energy": -1.42, "cluster_size": 44, "cluster_id": 1, "rank_in_cluster": 42}

>  <energy>  (11) 
-7.62

>  <cluster_rmsd>  (11) 
1.76

>  <cluster>  (11) 
1

$$$$

     RDKit          3D

 48 50  0  0  0  0  0  0  0  0999 V2000
  142.3350   80.6670  223.6010 C   0  0  0  0  0  0  0  0  0  0  0  0
  141.9030   79.2360  223.5200 C   0  0  0  0  0  0  0  0  0  0  0  0
  141.0640   78.8800  222.3480 C   0  0  0  0  0  0  0  0  0  0  0  0
  141.7970   78.2700  221.2200 C   0  0  2  0  0  0  0  0  0  0  0  0
  141.8190   78.9650  219.9230 C   0  0  0  0  0  0  0  0  0  0  0  0
  141.6950   77.8440  218.8810 C   0  0  1  0  0  0  0  0  0  0  0  0
  142.5780   78.0260  217.8180 O   0  0  0  0  0  0  0  0  0  0  0  0
  142.0480   76.6180  219.6670 C   0  0  0  0  0  0  0  0  0  0  0  0
  141.3670   76.8880  220.9550 N   0  0  0  0  0  0  0  0  0  0  0  0
  140.5390   76.0230  221.6860 C   0  0  0  0  0  0  0  0  0  0  0  0
  139.8310   76.3240  222.6720 O   0  0  0  0  0  0  0  0  0  0  0  0
  140.4890   74.5900  221.2520 C   0  0  0  0  0  0  0  0  0  0  0  0
  140.1470   73.7180  222.3440 N   0  0  0  0  0  0  0  0  0  0  0  0
  140.6910   72.3990  222.3910 C   0  0  0  0  0  0  0  0  0  0  0  0
  141.4660   71.9880  221.4900 O   0  0  0  0  0  0  0  0  0  0  0  0
  140.3360   71.5210  223.5080 C   0  0  0  0  0  0  0  0  0  0  0  0
  139.6040   70.3760  223.2730 C   0  0  0  0  0  0  0  0  0  0  0  0
  139.2290   69.4970  224.2670 C   0  0  0  0  0  0  0  0  0  0  0  0
  139.6190   69.8020  225.5560 C   0  0  0  0  0  0  0  0  0  0  0  0
  139.2490   68.9320  226.5480 C   0  0  0  0  0  0  0  0  0  0  0  0
  139.6220   69.2080  227.8480 C   0  0  0  0  0  0  0  0  0  0  0  0
  140.3530   70.3500  228.0900 C   0  0  0  0  0  0  0  0  0  0  0  0
  140.7320   71.2340  227.1070 C   0  0  0  0  0  0  0  0  0  0  0  0
  140.3600   70.9600  225.8050 C   0  0  0  0  0  0  0  0  0  0  0  0
  140.6920   71.7760  224.7800 N   0  0  0  0  0  0  0  0  0  0  0  0
  142.4246   80.9638  224.6564 H   0  0  0  0  0  0  0  0  0  0  0  0
  143.3087   80.7848  223.1031 H   0  0  0  0  0  0  0  0  0  0  0  0
  141.5891   81.3039  223.1031 H   0  0  0  0  0  0  0  0  0  0  0  0
  142.8080   78.6114  223.4895 H   0  0  0  0  0  0  0  0  0  0  0  0
  141.2706   79.0643  224.4035 H   0  0  0  0  0  0  0  0  0  0  0  0
  140.2959   78.1669  222.6818 H   0  0  0  0  0  0  0  0  0  0  0  0
  140.6465   79.8247  221.9695 H   0  0  0  0  0  0  0  0  0  0  0  0
  142.8214   78.3415  221.6143 H   0  0  0  0  0  0  0  0  0  0  0  0
  140.9741   79.6648  219.8430 H   0  0  0  0  0  0  0  0  0  0  0  0
  142.7318   79.5632  219.7856 H   0  0  0  0  0  0  0  0  0  0  0  0
  140.6979   77.7994  218.4186 H   0  0  0  0  0  0  0  0  0  0  0  0
  143.4420   78.3740  218.1260 H   0  0  0  0  0  0  0  0  0  0  0  0
  141.6574   75.7076  219.1888 H   0  0  0  0  0  0  0  0  0  0  0  0
  143.1296   76.4401  219.7597 H   0  0  0  0  0  0  0  0  0  0  0  0
  139.7336   74.4831  220.4596 H   0  0  0  0  0  0  0  0  0  0  0  0
  141.4863   74.3066  220.8845 H   0  0  0  0  0  0  0  0  0  0  0  0
  139.4950   74.0480  223.1130 H   0  0  0  0  0  0  0  0  0  0  0  0
  139.3037   70.1523  222.2387 H   0  0  0  0  0  0  0  0  0  0  0  0
  138.6447   68.5924  224.0429 H   0  0  0  0  0  0  0  0  0  0  0  0
  138.6652   68.0299  226.3125 H   0  0  0  0  0  0  0  0  0  0  0  0
  139.3424   68.5328  228.6702 H   0  0  0  0  0  0  0  0  0  0  0  0
  140.6500   70.5669  229.1267 H   0  0  0  0  0  0  0  0  0  0  0  0
  141.3152   72.1343  227.3507 H   0  0  0  0  0  0  0  0  0  0  0  0
  1  2  1  0
  2  3  1  0
  3  4  1  0
  4  5  1  0
  5  6  1  0
  6  7  1  0
  6  8  1  0
  8  9  1  0
  9 10  1  0
 10 11  2  0
 10 12  1  0
 12 13  1  0
 13 14  1  0
 14 15  2  0
 14 16  1  0
 16 17  2  0
 17 18  1  0
 18 19  2  0
 19 20  1  0
 20 21  2  0
 21 22  1  0
 22 23  2  0
 23 24  1  0
 24 25  2  0
  9  4  1  0
 25 16  1  0
 24 19  1  0
  1 26  1  0
  1 27  1  0
  1 28  1  0
  2 29  1  0
  2 30  1  0
  3 31  1  0
  3 32  1  0
  4 33  1  1
  5 34  1  0
  5 35  1  0
  6 36  1  6
  7 37  1  0
  8 38  1  0
  8 39  1  0
 12 40  1  0
 12 41  1  0
 13 42  1  0
 17 43  1  0
 18 44  1  0
 20 45  1  0
 21 46  1  0
 22 47  1  0
 23 48  1  0
M  END
>  <smiles>  (12) 
CCC[C@@H]1C[C@@H](O)CN1C(=O)CNC(=O)c1ccc2ccccc2n1

>  <score_type>  (12) 
oracle

>  <origin>  (12) 
autodockgpu

>  <m_score__min__energy>  (12) 
-7.9699999999999998

>  <m_primary>  (12) 
energy

>  <rmsd>  (12) 
3.2018325440132833

>  <m_score__min__rmsd>  (12) 
3.2018325440132833

>  <meeko>  (12) 
{"free_energy": -7.33, "intermolecular_energy": -9.42, "internal_energy": -1.34, "cluster_size": 44, "cluster_id": 1, "rank_in_cluster": 30}

>  <energy>  (12) 
-7.6

>  <cluster_rmsd>  (12) 
1.03

>  <cluster>  (12) 
1

$$$$

     RDKit          3D

 48 50  0  0  0  0  0  0  0  0999 V2000
  145.9080   73.4030  221.2520 C   0  0  0  0  0  0  0  0  0  0  0  0
  144.7730   72.8410  220.4540 C   0  0  0  0  0  0  0  0  0  0  0  0
  143.4200   73.3320  220.8200 C   0  0  0  0  0  0  0  0  0  0  0  0
  142.8860   74.3940  219.9430 C   0  0  2  0  0  0  0  0  0  0  0  0
  143.6990   75.5970  219.7020 C   0  0  0  0  0  0  0  0  0  0  0  0
  142.6890   76.7540  219.7010 C   0  0  1  0  0  0  0  0  0  0  0  0
  142.9300   77.6490  218.6620 O   0  0  0  0  0  0  0  0  0  0  0  0
  141.3790   76.0510  219.5120 C   0  0  0  0  0  0  0  0  0  0  0  0
  141.5570   74.8580  220.3720 N   0  0  0  0  0  0  0  0  0  0  0  0
  140.6670   74.3490  221.3300 C   0  0  0  0  0  0  0  0  0  0  0  0
  140.2150   74.9550  222.3260 O   0  0  0  0  0  0  0  0  0  0  0  0
  140.2040   72.9340  221.1530 C   0  0  0  0  0  0  0  0  0  0  0  0
  140.3500   72.1740  222.3660 N   0  0  0  0  0  0  0  0  0  0  0  0
  139.4420   71.1100  222.6460 C   0  0  0  0  0  0  0  0  0  0  0  0
  138.5140   70.8250  221.8450 O   0  0  0  0  0  0  0  0  0  0  0  0
  139.6000   70.3430  223.8830 C   0  0  0  0  0  0  0  0  0  0  0  0
  139.1020   69.0600  223.9610 C   0  0  0  0  0  0  0  0  0  0  0  0
  139.2080   68.2710  225.0880 C   0  0  0  0  0  0  0  0  0  0  0  0
  139.8530   68.8190  226.1800 C   0  0  0  0  0  0  0  0  0  0  0  0
  139.9620   68.0400  227.3020 C   0  0  0  0  0  0  0  0  0  0  0  0
  140.6000   68.5570  228.4110 C   0  0  0  0  0  0  0  0  0  0  0  0
  141.1000   69.8380  228.3400 C   0  0  0  0  0  0  0  0  0  0  0  0
  140.9990   70.6340  227.2220 C   0  0  0  0  0  0  0  0  0  0  0  0
  140.3610   70.1180  226.1110 C   0  0  0  0  0  0  0  0  0  0  0  0
  140.2190   70.8330  224.9720 N   0  0  0  0  0  0  0  0  0  0  0  0
  145.6906   73.2953  222.3249 H   0  0  0  0  0  0  0  0  0  0  0  0
  146.8323   72.8584  221.0087 H   0  0  0  0  0  0  0  0  0  0  0  0
  146.0352   74.4682  221.0087 H   0  0  0  0  0  0  0  0  0  0  0  0
  144.9478   73.0900  219.3969 H   0  0  0  0  0  0  0  0  0  0  0  0
  144.7659   71.7613  220.6641 H   0  0  0  0  0  0  0  0  0  0  0  0
  142.7260   72.4792  220.7856 H   0  0  0  0  0  0  0  0  0  0  0  0
  143.5135   73.7768  221.8217 H   0  0  0  0  0  0  0  0  0  0  0  0
  142.8718   73.8468  218.9888 H   0  0  0  0  0  0  0  0  0  0  0  0
  144.4415   75.7305  220.5025 H   0  0  0  0  0  0  0  0  0  0  0  0
  144.2645   75.5363  218.7604 H   0  0  0  0  0  0  0  0  0  0  0  0
  142.7345   77.3625  220.6162 H   0  0  0  0  0  0  0  0  0  0  0  0
  143.6480   78.2780  218.8890 H   0  0  0  0  0  0  0  0  0  0  0  0
  140.5373   76.6710  219.8542 H   0  0  0  0  0  0  0  0  0  0  0  0
  141.1430   75.8167  218.4635 H   0  0  0  0  0  0  0  0  0  0  0  0
  139.1437   72.9392  220.8603 H   0  0  0  0  0  0  0  0  0  0  0  0
  140.8236   72.4637  220.3752 H   0  0  0  0  0  0  0  0  0  0  0  0
  141.1260   72.4000  223.0520 H   0  0  0  0  0  0  0  0  0  0  0  0
  138.5937   68.6435  223.0789 H   0  0  0  0  0  0  0  0  0  0  0  0
  138.7972   67.2510  225.1158 H   0  0  0  0  0  0  0  0  0  0  0  0
  139.5484   67.0209  227.3184 H   0  0  0  0  0  0  0  0  0  0  0  0
  140.7065   67.9605  229.3291 H   0  0  0  0  0  0  0  0  0  0  0  0
  141.6081   70.2475  229.2255 H   0  0  0  0  0  0  0  0  0  0  0  0
  141.4146   71.6524  227.2134 H   0  0  0  0  0  0  0  0  0  0  0  0
  1  2  1  0
  2  3  1  0
  3  4  1  0
  4  5  1  0
  5  6  1  0
  6  7  1  0
  6  8  1  0
  8  9  1  0
  9 10  1  0
 10 11  2  0
 10 12  1  0
 12 13  1  0
 13 14  1  0
 14 15  2  0
 14 16  1  0
 16 17  2  0
 17 18  1  0
 18 19  2  0
 19 20  1  0
 20 21  2  0
 21 22  1  0
 22 23  2  0
 23 24  1  0
 24 25  2  0
  9  4  1  0
 25 16  1  0
 24 19  1  0
  1 26  1  0
  1 27  1  0
  1 28  1  0
  2 29  1  0
  2 30  1  0
  3 31  1  0
  3 32  1  0
  4 33  1  6
  5 34  1  0
  5 35  1  0
  6 36  1  1
  7 37  1  0
  8 38  1  0
  8 39  1  0
 12 40  1  0
 12 41  1  0
 13 42  1  0
 17 43  1  0
 18 44  1  0
 20 45  1  0
 21 46  1  0
 22 47  1  0
 23 48  1  0
M  END
>  <smiles>  (13) 
CCC[C@@H]1C[C@@H](O)CN1C(=O)CNC(=O)c1ccc2ccccc2n1

>  <score_type>  (13) 
oracle

>  <origin>  (13) 
autodockgpu

>  <m_score__min__energy>  (13) 
-7.9699999999999998

>  <m_primary>  (13) 
energy

>  <rmsd>  (13) 
2.965727301864244

>  <m_score__min__rmsd>  (13) 
2.965727301864244

>  <meeko>  (13) 
{"free_energy": -7.34, "intermolecular_energy": -9.42, "internal_energy": -1.23, "cluster_size": 1, "cluster_id": 3, "rank_in_cluster": 1}

>  <energy>  (13) 
-7.58

>  <cluster_rmsd>  (13) 
1.74

>  <cluster>  (13) 
1

$$$$

     RDKit          3D

 48 50  0  0  0  0  0  0  0  0999 V2000
  140.7910   71.8710  228.3310 C   0  0  0  0  0  0  0  0  0  0  0  0
  141.4230   72.2560  227.0300 C   0  0  0  0  0  0  0  0  0  0  0  0
  141.0000   71.4650  225.8460 C   0  0  0  0  0  0  0  0  0  0  0  0
  140.0360   70.3840  226.1330 C   0  0  2  0  0  0  0  0  0  0  0  0
  140.5420   69.0240  226.3810 C   0  0  0  0  0  0  0  0  0  0  0  0
  139.5330   68.1020  225.6800 C   0  0  1  0  0  0  0  0  0  0  0  0
  139.2030   67.0020  226.4690 O   0  0  0  0  0  0  0  0  0  0  0  0
  138.3470   68.9950  225.4820 C   0  0  0  0  0  0  0  0  0  0  0  0
  138.9980   70.2690  225.0970 N   0  0  0  0  0  0  0  0  0  0  0  0
  138.6760   71.1060  224.0170 C   0  0  0  0  0  0  0  0  0  0  0  0
  137.5970   71.7100  223.8370 O   0  0  0  0  0  0  0  0  0  0  0  0
  139.7250   71.3020  222.9650 C   0  0  0  0  0  0  0  0  0  0  0  0
  139.9160   72.6950  222.6620 N   0  0  0  0  0  0  0  0  0  0  0  0
  140.9730   73.0900  221.7870 C   0  0  0  0  0  0  0  0  0  0  0  0
  141.7410   72.2350  221.2760 O   0  0  0  0  0  0  0  0  0  0  0  0
  141.1560   74.5110  221.4860 C   0  0  0  0  0  0  0  0  0  0  0  0
  141.9410   74.8880  220.4160 C   0  0  0  0  0  0  0  0  0  0  0  0
  142.1660   76.2020  220.0650 C   0  0  0  0  0  0  0  0  0  0  0  0
  141.5620   77.1730  220.8410 C   0  0  0  0  0  0  0  0  0  0  0  0
  141.7810   78.4810  220.4970 C   0  0  0  0  0  0  0  0  0  0  0  0
  141.1930   79.4750  221.2520 C   0  0  0  0  0  0  0  0  0  0  0  0
  140.4090   79.1050  222.3220 C   0  0  0  0  0  0  0  0  0  0  0  0
  140.1780   77.7980  222.6820 C   0  0  0  0  0  0  0  0  0  0  0  0
  140.7660   76.8010  221.9270 C   0  0  0  0  0  0  0  0  0  0  0  0
  140.5900   75.4920  222.2130 N   0  0  0  0  0  0  0  0  0  0  0  0
  141.4060   72.2457  229.1625 H   0  0  0  0  0  0  0  0  0  0  0  0
  139.7840   72.3092  228.3933 H   0  0  0  0  0  0  0  0  0  0  0  0
  140.7185   70.7752  228.3933 H   0  0  0  0  0  0  0  0  0  0  0  0
  141.1792   73.3109  226.8356 H   0  0  0  0  0  0  0  0  0  0  0  0
  142.4986   72.0600  227.1511 H   0  0  0  0  0  0  0  0  0  0  0  0
  140.5370   72.1528  225.1231 H   0  0  0  0  0  0  0  0  0  0  0  0
  141.9071   70.9756  225.4617 H   0  0  0  0  0  0  0  0  0  0  0  0
  139.6509   70.7413  227.0995 H   0  0  0  0  0  0  0  0  0  0  0  0
  141.5466   68.8989  225.9507 H   0  0  0  0  0  0  0  0  0  0  0  0
  140.6343   68.8023  227.4545 H   0  0  0  0  0  0  0  0  0  0  0  0
  139.9236   67.6745  224.7447 H   0  0  0  0  0  0  0  0  0  0  0  0
  139.8060   66.9200  227.2390 H   0  0  0  0  0  0  0  0  0  0  0  0
  137.6913   68.6209  224.6819 H   0  0  0  0  0  0  0  0  0  0  0  0
  137.6927   69.0738  226.3627 H   0  0  0  0  0  0  0  0  0  0  0  0
  140.6753   70.8814  223.3255 H   0  0  0  0  0  0  0  0  0  0  0  0
  139.3930   70.7925  222.0484 H   0  0  0  0  0  0  0  0  0  0  0  0
  139.2780   73.4310  223.0840 H   0  0  0  0  0  0  0  0  0  0  0  0
  142.4119   74.0989  219.8114 H   0  0  0  0  0  0  0  0  0  0  0  0
  142.7987   76.4661  219.2048 H   0  0  0  0  0  0  0  0  0  0  0  0
  142.4145   78.7343  219.6341 H   0  0  0  0  0  0  0  0  0  0  0  0
  141.3465   80.5360  221.0055 H   0  0  0  0  0  0  0  0  0  0  0  0
  139.9414   79.8993  222.9223 H   0  0  0  0  0  0  0  0  0  0  0  0
  139.5432   77.5531  223.5464 H   0  0  0  0  0  0  0  0  0  0  0  0
  1  2  1  0
  2  3  1  0
  3  4  1  0
  4  5  1  0
  5  6  1  0
  6  7  1  0
  6  8  1  0
  8  9  1  0
  9 10  1  0
 10 11  2  0
 10 12  1  0
 12 13  1  0
 13 14  1  0
 14 15  2  0
 14 16  1  0
 16 17  2  0
 17 18  1  0
 18 19  2  0
 19 20  1  0
 20 21  2  0
 21 22  1  0
 22 23  2  0
 23 24  1  0
 24 25  2  0
  9  4  1  0
 25 16  1  0
 24 19  1  0
  1 26  1  0
  1 27  1  0
  1 28  1  0
  2 29  1  0
  2 30  1  0
  3 31  1  0
  3 32  1  0
  4 33  1  1
  5 34  1  0
  5 35  1  0
  6 36  1  6
  7 37  1  0
  8 38  1  0
  8 39  1  0
 12 40  1  0
 12 41  1  0
 13 42  1  0
 17 43  1  0
 18 44  1  0
 20 45  1  0
 21 46  1  0
 22 47  1  0
 23 48  1  0
M  END
>  <smiles>  (14) 
CCC[C@@H]1C[C@@H](O)CN1C(=O)CNC(=O)c1ccc2ccccc2n1

>  <score_type>  (14) 
oracle

>  <origin>  (14) 
autodockgpu

>  <m_score__min__energy>  (14) 
-7.9699999999999998

>  <m_primary>  (14) 
energy

>  <rmsd>  (14) 
8.356113614149034

>  <m_score__min__rmsd>  (14) 
8.356113614149034

>  <meeko>  (14) 
{"free_energy": -7.89, "intermolecular_energy": -9.98, "internal_energy": -1.48, "cluster_size": 2, "cluster_id": 2, "rank_in_cluster": 1}

>  <energy>  (14) 
-7.57

>  <cluster_rmsd>  (14) 
1.75

>  <cluster>  (14) 
1

$$$$

     RDKit          3D

 48 50  0  0  0  0  0  0  0  0999 V2000
  145.7330   73.0290  221.1940 C   0  0  0  0  0  0  0  0  0  0  0  0
  145.0220   74.1310  220.4700 C   0  0  0  0  0  0  0  0  0  0  0  0
  143.5390   74.0710  220.5000 C   0  0  0  0  0  0  0  0  0  0  0  0
  142.8620   74.9330  219.5110 C   0  0  2  0  0  0  0  0  0  0  0  0
  143.6080   76.0500  218.9080 C   0  0  0  0  0  0  0  0  0  0  0  0
  142.5860   77.1930  218.8160 C   0  0  1  0  0  0  0  0  0  0  0  0
  142.6540   77.8510  217.5900 O   0  0  0  0  0  0  0  0  0  0  0  0
  141.2760   76.4830  218.9720 C   0  0  0  0  0  0  0  0  0  0  0  0
  141.6010   75.4920  220.0250 N   0  0  0  0  0  0  0  0  0  0  0  0
  140.8710   75.2040  221.1870 C   0  0  0  0  0  0  0  0  0  0  0  0
  141.0730   75.6690  222.3300 O   0  0  0  0  0  0  0  0  0  0  0  0
  139.7300   74.2400  221.0600 C   0  0  0  0  0  0  0  0  0  0  0  0
  139.5730   73.4460  222.2500 N   0  0  0  0  0  0  0  0  0  0  0  0
  140.3940   72.2970  222.4460 C   0  0  0  0  0  0  0  0  0  0  0  0
  141.2570   71.9660  221.5930 O   0  0  0  0  0  0  0  0  0  0  0  0
  140.2240   71.4980  223.6610 C   0  0  0  0  0  0  0  0  0  0  0  0
  139.5500   70.2950  223.6010 C   0  0  0  0  0  0  0  0  0  0  0  0
  139.3460   69.4830  224.6970 C   0  0  0  0  0  0  0  0  0  0  0  0
  139.8530   69.9190  225.9060 C   0  0  0  0  0  0  0  0  0  0  0  0
  139.6530   69.1170  226.9980 C   0  0  0  0  0  0  0  0  0  0  0  0
  140.1460   69.5240  228.2210 C   0  0  0  0  0  0  0  0  0  0  0  0
  140.8200   70.7230  228.2890 C   0  0  0  0  0  0  0  0  0  0  0  0
  141.0290   71.5410  227.2030 C   0  0  0  0  0  0  0  0  0  0  0  0
  140.5360   71.1360  225.9770 C   0  0  0  0  0  0  0  0  0  0  0  0
  140.6980   71.8800  224.8610 N   0  0  0  0  0  0  0  0  0  0  0  0
  145.6353   73.1804  222.2791 H   0  0  0  0  0  0  0  0  0  0  0  0
  145.2882   72.0618  220.9172 H   0  0  0  0  0  0  0  0  0  0  0  0
  146.7976   73.0356  220.9172 H   0  0  0  0  0  0  0  0  0  0  0  0
  145.3305   75.0855  220.9213 H   0  0  0  0  0  0  0  0  0  0  0  0
  145.3043   74.0248  219.4122 H   0  0  0  0  0  0  0  0  0  0  0  0
  143.2352   73.0307  220.3114 H   0  0  0  0  0  0  0  0  0  0  0  0
  143.2352   74.4405  221.4906 H   0  0  0  0  0  0  0  0  0  0  0  0
  142.7183   74.1991  218.7043 H   0  0  0  0  0  0  0  0  0  0  0  0
  144.4572   76.3386  219.5448 H   0  0  0  0  0  0  0  0  0  0  0  0
  144.0307   75.7881  217.9268 H   0  0  0  0  0  0  0  0  0  0  0  0
  142.7545   77.9771  219.5689 H   0  0  0  0  0  0  0  0  0  0  0  0
  143.4390   78.4370  217.5410 H   0  0  0  0  0  0  0  0  0  0  0  0
  140.4824   77.1710  219.2988 H   0  0  0  0  0  0  0  0  0  0  0  0
  140.8926   76.0393  218.0413 H   0  0  0  0  0  0  0  0  0  0  0  0
  138.8030   74.8052  220.8830 H   0  0  0  0  0  0  0  0  0  0  0  0
  139.9434   73.5627  220.2199 H   0  0  0  0  0  0  0  0  0  0  0  0
  138.8500   73.7100  222.9810 H   0  0  0  0  0  0  0  0  0  0  0  0
  139.1549   69.9667  222.6283 H   0  0  0  0  0  0  0  0  0  0  0  0
  138.8033   68.5299  224.6123 H   0  0  0  0  0  0  0  0  0  0  0  0
  139.1092   68.1656  226.9020 H   0  0  0  0  0  0  0  0  0  0  0  0
  140.0040   68.9058  229.1197 H   0  0  0  0  0  0  0  0  0  0  0  0
  141.2127   71.0441  229.2651 H   0  0  0  0  0  0  0  0  0  0  0  0
  141.5734   72.4911  227.3074 H   0  0  0  0  0  0  0  0  0  0  0  0
  1  2  1  0
  2  3  1  0
  3  4  1  0
  4  5  1  0
  5  6  1  0
  6  7  1  0
  6  8  1  0
  8  9  1  0
  9 10  1  0
 10 11  2  0
 10 12  1  0
 12 13  1  0
 13 14  1  0
 14 15  2  0
 14 16  1  0
 16 17  2  0
 17 18  1  0
 18 19  2  0
 19 20  1  0
 20 21  2  0
 21 22  1  0
 22 23  2  0
 23 24  1  0
 24 25  2  0
  9  4  1  0
 25 16  1  0
 24 19  1  0
  1 26  1  0
  1 27  1  0
  1 28  1  0
  2 29  1  0
  2 30  1  0
  3 31  1  0
  3 32  1  0
  4 33  1  6
  5 34  1  0
  5 35  1  0
  6 36  1  1
  7 37  1  0
  8 38  1  0
  8 39  1  0
 12 40  1  0
 12 41  1  0
 13 42  1  0
 17 43  1  0
 18 44  1  0
 20 45  1  0
 21 46  1  0
 22 47  1  0
 23 48  1  0
M  END
>  <smiles>  (15) 
CCC[C@@H]1C[C@@H](O)CN1C(=O)CNC(=O)c1ccc2ccccc2n1

>  <score_type>  (15) 
oracle

>  <origin>  (15) 
autodockgpu

>  <m_score__min__energy>  (15) 
-7.9699999999999998

>  <m_primary>  (15) 
energy

>  <rmsd>  (15) 
2.8767397128138756

>  <m_score__min__rmsd>  (15) 
2.8767397128138756

>  <meeko>  (15) 
{"free_energy": -7.58, "intermolecular_energy": -9.66, "internal_energy": -1.25, "cluster_size": 44, "cluster_id": 1, "rank_in_cluster": 13}

>  <energy>  (15) 
-7.57

>  <cluster_rmsd>  (15) 
0.87

>  <cluster>  (15) 
1

$$$$

     RDKit          3D

 48 50  0  0  0  0  0  0  0  0999 V2000
  145.9250   73.4640  221.1930 C   0  0  0  0  0  0  0  0  0  0  0  0
  144.9460   73.7810  220.1060 C   0  0  0  0  0  0  0  0  0  0  0  0
  143.6380   74.3250  220.5510 C   0  0  0  0  0  0  0  0  0  0  0  0
  142.9490   75.1770  219.5610 C   0  0  2  0  0  0  0  0  0  0  0  0
  143.6500   76.3510  219.0190 C   0  0  0  0  0  0  0  0  0  0  0  0
  142.5690   77.4370  218.9200 C   0  0  1  0  0  0  0  0  0  0  0  0
  142.6430   78.1330  217.7160 O   0  0  0  0  0  0  0  0  0  0  0  0
  141.2970   76.6490  219.0060 C   0  0  0  0  0  0  0  0  0  0  0  0
  141.6400   75.6480  220.0430 N   0  0  0  0  0  0  0  0  0  0  0  0
  140.8860   75.2840  221.1680 C   0  0  0  0  0  0  0  0  0  0  0  0
  140.9880   75.7600  222.3200 O   0  0  0  0  0  0  0  0  0  0  0  0
  139.8510   74.2160  220.9850 C   0  0  0  0  0  0  0  0  0  0  0  0
  139.6580   73.4530  222.1890 N   0  0  0  0  0  0  0  0  0  0  0  0
  140.4460   72.2870  222.4210 C   0  0  0  0  0  0  0  0  0  0  0  0
  141.3090   71.9150  221.5850 O   0  0  0  0  0  0  0  0  0  0  0  0
  140.2400   71.5190  223.6500 C   0  0  0  0  0  0  0  0  0  0  0  0
  139.5440   70.3290  223.6060 C   0  0  0  0  0  0  0  0  0  0  0  0
  139.3060   69.5460  224.7160 C   0  0  0  0  0  0  0  0  0  0  0  0
  139.8010   70.0000  225.9230 C   0  0  0  0  0  0  0  0  0  0  0  0
  139.5680   69.2270  227.0310 C   0  0  0  0  0  0  0  0  0  0  0  0
  140.0490   69.6530  228.2520 C   0  0  0  0  0  0  0  0  0  0  0  0
  140.7450   70.8400  228.3030 C   0  0  0  0  0  0  0  0  0  0  0  0
  140.9870   71.6290  227.2030 C   0  0  0  0  0  0  0  0  0  0  0  0
  140.5070   71.2050  225.9790 C   0  0  0  0  0  0  0  0  0  0  0  0
  140.7020   71.9200  224.8490 N   0  0  0  0  0  0  0  0  0  0  0  0
  145.4483   73.6183  222.1722 H   0  0  0  0  0  0  0  0  0  0  0  0
  146.2464   72.4159  221.1028 H   0  0  0  0  0  0  0  0  0  0  0  0
  146.7998   74.1248  221.1028 H   0  0  0  0  0  0  0  0  0  0  0  0
  145.4105   74.5226  219.4395 H   0  0  0  0  0  0  0  0  0  0  0  0
  144.7195   72.8208  219.6194 H   0  0  0  0  0  0  0  0  0  0  0  0
  142.9789   73.4773  220.7897 H   0  0  0  0  0  0  0  0  0  0  0  0
  143.8506   74.9690  221.4170 H   0  0  0  0  0  0  0  0  0  0  0  0
  142.8775   74.4613  218.7287 H   0  0  0  0  0  0  0  0  0  0  0  0
  144.4575   76.6676  219.6956 H   0  0  0  0  0  0  0  0  0  0  0  0
  144.1220   76.1429  218.0474 H   0  0  0  0  0  0  0  0  0  0  0  0
  142.6651   78.2069  219.6998 H   0  0  0  0  0  0  0  0  0  0  0  0
  143.5200   78.5600  217.6020 H   0  0  0  0  0  0  0  0  0  0  0  0
  140.4533   77.2808  219.3207 H   0  0  0  0  0  0  0  0  0  0  0  0
  140.9744   76.2118  218.0495 H   0  0  0  0  0  0  0  0  0  0  0  0
  138.8975   74.6874  220.7046 H   0  0  0  0  0  0  0  0  0  0  0  0
  140.1984   73.5321  220.1966 H   0  0  0  0  0  0  0  0  0  0  0  0
  138.9340   73.7520  222.9060 H   0  0  0  0  0  0  0  0  0  0  0  0
  139.1585   69.9865  222.6344 H   0  0  0  0  0  0  0  0  0  0  0  0
  138.7467   68.6016  224.6434 H   0  0  0  0  0  0  0  0  0  0  0  0
  139.0076   68.2841  226.9481 H   0  0  0  0  0  0  0  0  0  0  0  0
  139.8806   69.0590  229.1624 H   0  0  0  0  0  0  0  0  0  0  0  0
  141.1287   71.1758  229.2777 H   0  0  0  0  0  0  0  0  0  0  0  0
  141.5470   72.5713  227.2952 H   0  0  0  0  0  0  0  0  0  0  0  0
  1  2  1  0
  2  3  1  0
  3  4  1  0
  4  5  1  0
  5  6  1  0
  6  7  1  0
  6  8  1  0
  8  9  1  0
  9 10  1  0
 10 11  2  0
 10 12  1  0
 12 13  1  0
 13 14  1  0
 14 15  2  0
 14 16  1  0
 16 17  2  0
 17 18  1  0
 18 19  2  0
 19 20  1  0
 20 21  2  0
 21 22  1  0
 22 23  2  0
 23 24  1  0
 24 25  2  0
  9  4  1  0
 25 16  1  0
 24 19  1  0
  1 26  1  0
  1 27  1  0
  1 28  1  0
  2 29  1  0
  2 30  1  0
  3 31  1  0
  3 32  1  0
  4 33  1  6
  5 34  1  0
  5 35  1  0
  6 36  1  1
  7 37  1  0
  8 38  1  0
  8 39  1  0
 12 40  1  0
 12 41  1  0
 13 42  1  0
 17 43  1  0
 18 44  1  0
 20 45  1  0
 21 46  1  0
 22 47  1  0
 23 48  1  0
M  END
>  <smiles>  (16) 
CCC[C@@H]1C[C@@H](O)CN1C(=O)CNC(=O)c1ccc2ccccc2n1

>  <score_type>  (16) 
oracle

>  <origin>  (16) 
autodockgpu

>  <m_score__min__energy>  (16) 
-7.9699999999999998

>  <m_primary>  (16) 
energy

>  <rmsd>  (16) 
2.8264896225872183

>  <m_score__min__rmsd>  (16) 
2.8264896225872183

>  <meeko>  (16) 
{"free_energy": -7.64, "intermolecular_energy": -9.73, "internal_energy": -1.23, "cluster_size": 44, "cluster_id": 1, "rank_in_cluster": 9}

>  <energy>  (16) 
-7.56

>  <cluster_rmsd>  (16) 
0.49

>  <cluster>  (16) 
1

$$$$

     RDKit          3D

 48 50  0  0  0  0  0  0  0  0999 V2000
  142.5750   79.8140  223.4420 C   0  0  0  0  0  0  0  0  0  0  0  0
  141.4820   80.1460  222.4740 C   0  0  0  0  0  0  0  0  0  0  0  0
  140.8780   78.9910  221.7610 C   0  0  0  0  0  0  0  0  0  0  0  0
  141.7880   78.2880  220.8340 C   0  0  2  0  0  0  0  0  0  0  0  0
  141.8540   78.7250  219.4300 C   0  0  0  0  0  0  0  0  0  0  0  0
  141.9710   77.4230  218.6240 C   0  0  1  0  0  0  0  0  0  0  0  0
  142.9260   77.5230  217.6150 O   0  0  0  0  0  0  0  0  0  0  0  0
  142.3890   76.4260  219.6610 C   0  0  0  0  0  0  0  0  0  0  0  0
  141.5560   76.8350  220.8160 N   0  0  0  0  0  0  0  0  0  0  0  0
  140.7690   76.0170  221.6410 C   0  0  0  0  0  0  0  0  0  0  0  0
  140.2120   76.3500  222.7100 O   0  0  0  0  0  0  0  0  0  0  0  0
  140.5690   74.5960  221.2090 C   0  0  0  0  0  0  0  0  0  0  0  0
  140.2120   73.7510  222.3170 N   0  0  0  0  0  0  0  0  0  0  0  0
  140.7110   72.4150  222.3760 C   0  0  0  0  0  0  0  0  0  0  0  0
  141.4610   71.9660  221.4710 O   0  0  0  0  0  0  0  0  0  0  0  0
  140.3410   71.5650  223.5090 C   0  0  0  0  0  0  0  0  0  0  0  0
  139.5900   70.4280  223.2950 C   0  0  0  0  0  0  0  0  0  0  0  0
  139.1990   69.5750  224.3050 C   0  0  0  0  0  0  0  0  0  0  0  0
  139.5940   69.8980  225.5890 C   0  0  0  0  0  0  0  0  0  0  0  0
  139.2090   69.0530  226.5970 C   0  0  0  0  0  0  0  0  0  0  0  0
  139.5860   69.3480  227.8920 C   0  0  0  0  0  0  0  0  0  0  0  0
  140.3370   70.4810  228.1120 C   0  0  0  0  0  0  0  0  0  0  0  0
  140.7320   71.3400  227.1130 C   0  0  0  0  0  0  0  0  0  0  0  0
  140.3550   71.0470  225.8160 C   0  0  0  0  0  0  0  0  0  0  0  0
  140.7010   71.8380  224.7760 N   0  0  0  0  0  0  0  0  0  0  0  0
  142.2011   79.9276  224.4703 H   0  0  0  0  0  0  0  0  0  0  0  0
  142.9024   78.7759  223.2834 H   0  0  0  0  0  0  0  0  0  0  0  0
  143.4245   80.4946  223.2834 H   0  0  0  0  0  0  0  0  0  0  0  0
  140.6815   80.6555  223.0304 H   0  0  0  0  0  0  0  0  0  0  0  0
  141.9501   80.7665  221.6956 H   0  0  0  0  0  0  0  0  0  0  0  0
  140.5315   78.2678  222.5139 H   0  0  0  0  0  0  0  0  0  0  0  0
  140.0645   79.4002  221.1439 H   0  0  0  0  0  0  0  0  0  0  0  0
  142.7519   78.5718  221.2816 H   0  0  0  0  0  0  0  0  0  0  0  0
  140.9425   79.2739  219.1509 H   0  0  0  0  0  0  0  0  0  0  0  0
  142.6966   79.4074  219.2447 H   0  0  0  0  0  0  0  0  0  0  0  0
  141.0377   77.1561  218.1065 H   0  0  0  0  0  0  0  0  0  0  0  0
  143.2750   78.4370  217.5410 H   0  0  0  0  0  0  0  0  0  0  0  0
  142.1605   75.3975  219.3449 H   0  0  0  0  0  0  0  0  0  0  0  0
  143.4695   76.4192  219.8671 H   0  0  0  0  0  0  0  0  0  0  0  0
  139.7647   74.5606  220.4594 H   0  0  0  0  0  0  0  0  0  0  0  0
  141.5159   74.2282  220.7869 H   0  0  0  0  0  0  0  0  0  0  0  0
  139.5810   74.1130  223.0890 H   0  0  0  0  0  0  0  0  0  0  0  0
  139.2873   70.1894  222.2647 H   0  0  0  0  0  0  0  0  0  0  0  0
  138.5989   68.6767  224.0977 H   0  0  0  0  0  0  0  0  0  0  0  0
  138.6106   68.1563  226.3783 H   0  0  0  0  0  0  0  0  0  0  0  0
  139.2938   68.6943  228.7271 H   0  0  0  0  0  0  0  0  0  0  0  0
  140.6379   70.7121  229.1445 H   0  0  0  0  0  0  0  0  0  0  0  0
  141.3307   72.2345  227.3398 H   0  0  0  0  0  0  0  0  0  0  0  0
  1  2  1  0
  2  3  1  0
  3  4  1  0
  4  5  1  0
  5  6  1  0
  6  7  1  0
  6  8  1  0
  8  9  1  0
  9 10  1  0
 10 11  2  0
 10 12  1  0
 12 13  1  0
 13 14  1  0
 14 15  2  0
 14 16  1  0
 16 17  2  0
 17 18  1  0
 18 19  2  0
 19 20  1  0
 20 21  2  0
 21 22  1  0
 22 23  2  0
 23 24  1  0
 24 25  2  0
  9  4  1  0
 25 16  1  0
 24 19  1  0
  1 26  1  0
  1 27  1  0
  1 28  1  0
  2 29  1  0
  2 30  1  0
  3 31  1  0
  3 32  1  0
  4 33  1  1
  5 34  1  0
  5 35  1  0
  6 36  1  6
  7 37  1  0
  8 38  1  0
  8 39  1  0
 12 40  1  0
 12 41  1  0
 13 42  1  0
 17 43  1  0
 18 44  1  0
 20 45  1  0
 21 46  1  0
 22 47  1  0
 23 48  1  0
M  END
>  <smiles>  (17) 
CCC[C@@H]1C[C@@H](O)CN1C(=O)CNC(=O)c1ccc2ccccc2n1

>  <score_type>  (17) 
oracle

>  <origin>  (17) 
autodockgpu

>  <m_score__min__energy>  (17) 
-7.9699999999999998

>  <m_primary>  (17) 
energy

>  <rmsd>  (17) 
3.1245671016439984

>  <m_score__min__rmsd>  (17) 
3.1245671016439984

>  <meeko>  (17) 
{"free_energy": -7.22, "intermolecular_energy": -9.3, "internal_energy": -1.38, "cluster_size": 44, "cluster_id": 1, "rank_in_cluster": 37}

>  <energy>  (17) 
-7.55

>  <cluster_rmsd>  (17) 
1.7

>  <cluster>  (17) 
1

$$$$

     RDKit          3D

 48 50  0  0  0  0  0  0  0  0999 V2000
  141.8810   79.0120  223.0850 C   0  0  0  0  0  0  0  0  0  0  0  0
  141.4900   79.5380  221.7390 C   0  0  0  0  0  0  0  0  0  0  0  0
  141.0140   78.5260  220.7620 C   0  0  0  0  0  0  0  0  0  0  0  0
  142.0550   77.6040  220.2650 C   0  0  2  0  0  0  0  0  0  0  0  0
  142.4210   77.6420  218.8400 C   0  0  0  0  0  0  0  0  0  0  0  0
  142.6320   76.1700  218.4550 C   0  0  1  0  0  0  0  0  0  0  0  0
  143.7730   75.9980  217.6740 O   0  0  0  0  0  0  0  0  0  0  0  0
  142.7850   75.4960  219.7850 C   0  0  0  0  0  0  0  0  0  0  0  0
  141.7600   76.1990  220.5910 N   0  0  0  0  0  0  0  0  0  0  0  0
  140.7860   75.6310  221.4250 C   0  0  0  0  0  0  0  0  0  0  0  0
  140.2370   76.1740  222.4090 O   0  0  0  0  0  0  0  0  0  0  0  0
  140.3500   74.2310  221.1170 C   0  0  0  0  0  0  0  0  0  0  0  0
  140.1050   73.4760  222.3170 N   0  0  0  0  0  0  0  0  0  0  0  0
  140.5710   72.1310  222.4130 C   0  0  0  0  0  0  0  0  0  0  0  0
  141.1940   71.5940  221.4610 O   0  0  0  0  0  0  0  0  0  0  0  0
  140.3160   71.3740  223.6400 C   0  0  0  0  0  0  0  0  0  0  0  0
  139.6540   70.1660  223.5740 C   0  0  0  0  0  0  0  0  0  0  0  0
  139.3740   69.3910  224.6800 C   0  0  0  0  0  0  0  0  0  0  0  0
  139.7890   69.8720  225.9060 C   0  0  0  0  0  0  0  0  0  0  0  0
  139.5140   69.1070  227.0090 C   0  0  0  0  0  0  0  0  0  0  0  0
  139.9150   69.5600  228.2490 C   0  0  0  0  0  0  0  0  0  0  0  0
  140.5770   70.7650  228.3230 C   0  0  0  0  0  0  0  0  0  0  0  0
  140.8610   71.5470  227.2270 C   0  0  0  0  0  0  0  0  0  0  0  0
  140.4610   71.0960  225.9840 C   0  0  0  0  0  0  0  0  0  0  0  0
  140.7000   71.8010  224.8560 N   0  0  0  0  0  0  0  0  0  0  0  0
  141.4205   79.6315  223.8687 H   0  0  0  0  0  0  0  0  0  0  0  0
  141.5341   77.9732  223.1877 H   0  0  0  0  0  0  0  0  0  0  0  0
  142.9757   79.0448  223.1877 H   0  0  0  0  0  0  0  0  0  0  0  0
  140.6834   80.2716  221.8848 H   0  0  0  0  0  0  0  0  0  0  0  0
  142.4081   79.9619  221.3061 H   0  0  0  0  0  0  0  0  0  0  0  0
  140.2292   77.9263  221.2462 H   0  0  0  0  0  0  0  0  0  0  0  0
  140.6553   79.0871  219.8865 H   0  0  0  0  0  0  0  0  0  0  0  0
  142.9233   78.0062  220.8075 H   0  0  0  0  0  0  0  0  0  0  0  0
  141.6117   78.0874  218.2429 H   0  0  0  0  0  0  0  0  0  0  0  0
  143.3162   78.2540  218.6553 H   0  0  0  0  0  0  0  0  0  0  0  0
  141.8086   75.7653  217.8482 H   0  0  0  0  0  0  0  0  0  0  0  0
  144.5050   75.5990  218.1920 H   0  0  0  0  0  0  0  0  0  0  0  0
  142.5732   74.4188  219.7165 H   0  0  0  0  0  0  0  0  0  0  0  0
  143.8010   75.5527  220.2027 H   0  0  0  0  0  0  0  0  0  0  0  0
  139.4247   74.2678  220.5233 H   0  0  0  0  0  0  0  0  0  0  0  0
  141.1566   73.7349  220.5573 H   0  0  0  0  0  0  0  0  0  0  0  0
  139.5820   73.9130  223.1300 H   0  0  0  0  0  0  0  0  0  0  0  0
  139.3324   69.8014  222.5873 H   0  0  0  0  0  0  0  0  0  0  0  0
  138.8433   68.4317  224.5894 H   0  0  0  0  0  0  0  0  0  0  0  0
  138.9831   68.1489  226.9077 H   0  0  0  0  0  0  0  0  0  0  0  0
  139.7108   68.9727  229.1564 H   0  0  0  0  0  0  0  0  0  0  0  0
  140.8965   71.1223  229.3131 H   0  0  0  0  0  0  0  0  0  0  0  0
  141.3915   72.5042  227.3375 H   0  0  0  0  0  0  0  0  0  0  0  0
  1  2  1  0
  2  3  1  0
  3  4  1  0
  4  5  1  0
  5  6  1  0
  6  7  1  0
  6  8  1  0
  8  9  1  0
  9 10  1  0
 10 11  2  0
 10 12  1  0
 12 13  1  0
 13 14  1  0
 14 15  2  0
 14 16  1  0
 16 17  2  0
 17 18  1  0
 18 19  2  0
 19 20  1  0
 20 21  2  0
 21 22  1  0
 22 23  2  0
 23 24  1  0
 24 25  2  0
  9  4  1  0
 25 16  1  0
 24 19  1  0
  1 26  1  0
  1 27  1  0
  1 28  1  0
  2 29  1  0
  2 30  1  0
  3 31  1  0
  3 32  1  0
  4 33  1  1
  5 34  1  0
  5 35  1  0
  6 36  1  6
  7 37  1  0
  8 38  1  0
  8 39  1  0
 12 40  1  0
 12 41  1  0
 13 42  1  0
 17 43  1  0
 18 44  1  0
 20 45  1  0
 21 46  1  0
 22 47  1  0
 23 48  1  0
M  END
>  <smiles>  (18) 
CCC[C@@H]1C[C@@H](O)CN1C(=O)CNC(=O)c1ccc2ccccc2n1

>  <score_type>  (18) 
oracle

>  <origin>  (18) 
autodockgpu

>  <m_score__min__energy>  (18) 
-7.9699999999999998

>  <m_primary>  (18) 
energy

>  <rmsd>  (18) 
2.766350042805387

>  <m_score__min__rmsd>  (18) 
2.766350042805387

>  <meeko>  (18) 
{"free_energy": -7.52, "intermolecular_energy": -9.61, "internal_energy": -1.36, "cluster_size": 44, "cluster_id": 1, "rank_in_cluster": 20}

>  <energy>  (18) 
-7.55

>  <cluster_rmsd>  (18) 
1.65

>  <cluster>  (18) 
1

$$$$

     RDKit          3D

 48 50  0  0  0  0  0  0  0  0999 V2000
  145.6380   73.2410  221.1990 C   0  0  0  0  0  0  0  0  0  0  0  0
  144.9590   74.3440  220.4470 C   0  0  0  0  0  0  0  0  0  0  0  0
  143.4760   74.2840  220.4100 C   0  0  0  0  0  0  0  0  0  0  0  0
  142.8380   75.2350  219.4780 C   0  0  2  0  0  0  0  0  0  0  0  0
  143.6090   76.3970  219.0050 C   0  0  0  0  0  0  0  0  0  0  0  0
  142.5950   77.5500  218.9790 C   0  0  1  0  0  0  0  0  0  0  0  0
  142.7100   78.3130  217.8200 O   0  0  0  0  0  0  0  0  0  0  0  0
  141.2780   76.8380  219.0240 C   0  0  0  0  0  0  0  0  0  0  0  0
  141.5620   75.7550  219.9950 N   0  0  0  0  0  0  0  0  0  0  0  0
  140.7890   75.3690  221.1010 C   0  0  0  0  0  0  0  0  0  0  0  0
  140.6860   75.9780  222.1880 O   0  0  0  0  0  0  0  0  0  0  0  0
  140.0040   74.0990  220.9800 C   0  0  0  0  0  0  0  0  0  0  0  0
  139.9060   73.4140  222.2410 N   0  0  0  0  0  0  0  0  0  0  0  0
  140.2800   72.0400  222.3310 C   0  0  0  0  0  0  0  0  0  0  0  0
  140.6960   71.4170  221.3210 O   0  0  0  0  0  0  0  0  0  0  0  0
  140.1760   71.3560  223.6210 C   0  0  0  0  0  0  0  0  0  0  0  0
  139.5750   70.1160  223.6910 C   0  0  0  0  0  0  0  0  0  0  0  0
  139.4360   69.4040  224.8650 C   0  0  0  0  0  0  0  0  0  0  0  0
  139.9340   69.9860  226.0150 C   0  0  0  0  0  0  0  0  0  0  0  0
  139.7990   69.2830  227.1840 C   0  0  0  0  0  0  0  0  0  0  0  0
  140.2840   69.8360  228.3520 C   0  0  0  0  0  0  0  0  0  0  0  0
  140.8850   71.0740  228.2890 C   0  0  0  0  0  0  0  0  0  0  0  0
  141.0280   71.7930  227.1250 C   0  0  0  0  0  0  0  0  0  0  0  0
  140.5430   71.2410  225.9540 C   0  0  0  0  0  0  0  0  0  0  0  0
  140.6440   71.8810  224.7680 N   0  0  0  0  0  0  0  0  0  0  0  0
  145.5313   73.4144  222.2800 H   0  0  0  0  0  0  0  0  0  0  0  0
  145.1759   72.2784  220.9347 H   0  0  0  0  0  0  0  0  0  0  0  0
  146.7056   73.2201  220.9347 H   0  0  0  0  0  0  0  0  0  0  0  0
  145.2465   75.2975  220.9140 H   0  0  0  0  0  0  0  0  0  0  0  0
  145.2881   74.2398  219.4026 H   0  0  0  0  0  0  0  0  0  0  0  0
  143.1826   73.2662  220.1135 H   0  0  0  0  0  0  0  0  0  0  0  0
  143.1310   74.5609  221.4171 H   0  0  0  0  0  0  0  0  0  0  0  0
  142.7209   74.5767  218.6045 H   0  0  0  0  0  0  0  0  0  0  0  0
  144.4352   76.6220  219.6955 H   0  0  0  0  0  0  0  0  0  0  0  0
  144.0663   76.2213  218.0201 H   0  0  0  0  0  0  0  0  0  0  0  0
  142.7383   78.2628  219.8045 H   0  0  0  0  0  0  0  0  0  0  0  0
  143.6400   78.5830  217.6580 H   0  0  0  0  0  0  0  0  0  0  0  0
  140.4755   77.4993  219.3827 H   0  0  0  0  0  0  0  0  0  0  0  0
  140.9265   76.4819  218.0444 H   0  0  0  0  0  0  0  0  0  0  0  0
  138.9910   74.3382  220.6242 H   0  0  0  0  0  0  0  0  0  0  0  0
  140.5246   73.4394  220.2701 H   0  0  0  0  0  0  0  0  0  0  0  0
  139.5580   73.9240  223.1040 H   0  0  0  0  0  0  0  0  0  0  0  0
  139.1864   69.6718  222.7627 H   0  0  0  0  0  0  0  0  0  0  0  0
  138.9504   68.4172  224.8844 H   0  0  0  0  0  0  0  0  0  0  0  0
  139.3130   68.2962  227.1912 H   0  0  0  0  0  0  0  0  0  0  0  0
  140.1929   69.3016  229.3091 H   0  0  0  0  0  0  0  0  0  0  0  0
  141.2719   71.5118  229.2210 H   0  0  0  0  0  0  0  0  0  0  0  0
  141.5146   72.7795  227.1259 H   0  0  0  0  0  0  0  0  0  0  0  0
  1  2  1  0
  2  3  1  0
  3  4  1  0
  4  5  1  0
  5  6  1  0
  6  7  1  0
  6  8  1  0
  8  9  1  0
  9 10  1  0
 10 11  2  0
 10 12  1  0
 12 13  1  0
 13 14  1  0
 14 15  2  0
 14 16  1  0
 16 17  2  0
 17 18  1  0
 18 19  2  0
 19 20  1  0
 20 21  2  0
 21 22  1  0
 22 23  2  0
 23 24  1  0
 24 25  2  0
  9  4  1  0
 25 16  1  0
 24 19  1  0
  1 26  1  0
  1 27  1  0
  1 28  1  0
  2 29  1  0
  2 30  1  0
  3 31  1  0
  3 32  1  0
  4 33  1  6
  5 34  1  0
  5 35  1  0
  6 36  1  1
  7 37  1  0
  8 38  1  0
  8 39  1  0
 12 40  1  0
 12 41  1  0
 13 42  1  0
 17 43  1  0
 18 44  1  0
 20 45  1  0
 21 46  1  0
 22 47  1  0
 23 48  1  0
M  END
>  <smiles>  (19) 
CCC[C@@H]1C[C@@H](O)CN1C(=O)CNC(=O)c1ccc2ccccc2n1

>  <score_type>  (19) 
oracle

>  <origin>  (19) 
autodockgpu

>  <m_score__min__energy>  (19) 
-7.9699999999999998

>  <m_primary>  (19) 
energy

>  <rmsd>  (19) 
2.833982413875835

>  <m_score__min__rmsd>  (19) 
2.833982413875835

>  <meeko>  (19) 
{"free_energy": -7.55, "intermolecular_energy": -9.64, "internal_energy": -1.42, "cluster_size": 44, "cluster_id": 1, "rank_in_cluster": 17}

>  <energy>  (19) 
-7.52

>  <cluster_rmsd>  (19) 
1.67

>  <cluster>  (19) 
1

$$$$

     RDKit          3D

 48 50  0  0  0  0  0  0  0  0999 V2000
  142.6100   79.7610  223.1000 C   0  0  0  0  0  0  0  0  0  0  0  0
  141.1520   79.4460  222.9720 C   0  0  0  0  0  0  0  0  0  0  0  0
  140.6930   79.0470  221.6170 C   0  0  0  0  0  0  0  0  0  0  0  0
  141.6990   78.3330  220.8050 C   0  0  2  0  0  0  0  0  0  0  0  0
  141.8650   78.7020  219.3900 C   0  0  0  0  0  0  0  0  0  0  0  0
  142.0910   77.3660  218.6660 C   0  0  1  0  0  0  0  0  0  0  0  0
  143.1210   77.4510  217.7330 O   0  0  0  0  0  0  0  0  0  0  0  0
  142.4550   76.4380  219.7850 C   0  0  0  0  0  0  0  0  0  0  0  0
  141.5170   76.8730  220.8460 N   0  0  0  0  0  0  0  0  0  0  0  0
  140.6930   76.0690  221.6470 C   0  0  0  0  0  0  0  0  0  0  0  0
  140.1180   76.4090  222.7040 O   0  0  0  0  0  0  0  0  0  0  0  0
  140.4710   74.6550  221.2010 C   0  0  0  0  0  0  0  0  0  0  0  0
  140.1570   73.7940  222.3100 N   0  0  0  0  0  0  0  0  0  0  0  0
  140.6780   72.4660  222.3430 C   0  0  0  0  0  0  0  0  0  0  0  0
  141.4100   72.0360  221.4140 O   0  0  0  0  0  0  0  0  0  0  0  0
  140.3520   71.5990  223.4770 C   0  0  0  0  0  0  0  0  0  0  0  0
  139.6430   70.4340  223.2660 C   0  0  0  0  0  0  0  0  0  0  0  0
  139.2950   69.5640  224.2780 C   0  0  0  0  0  0  0  0  0  0  0  0
  139.6890   69.8990  225.5590 C   0  0  0  0  0  0  0  0  0  0  0  0
  139.3460   69.0380  226.5680 C   0  0  0  0  0  0  0  0  0  0  0  0
  139.7240   69.3430  227.8600 C   0  0  0  0  0  0  0  0  0  0  0  0
  140.4310   70.5050  228.0770 C   0  0  0  0  0  0  0  0  0  0  0  0
  140.7840   71.3800  227.0760 C   0  0  0  0  0  0  0  0  0  0  0  0
  140.4070   71.0770  225.7820 C   0  0  0  0  0  0  0  0  0  0  0  0
  140.7130   71.8830  224.7410 N   0  0  0  0  0  0  0  0  0  0  0  0
  142.8804   79.8194  224.1646 H   0  0  0  0  0  0  0  0  0  0  0  0
  143.2001   78.9696  222.6147 H   0  0  0  0  0  0  0  0  0  0  0  0
  142.8208   80.7254  222.6147 H   0  0  0  0  0  0  0  0  0  0  0  0
  140.9232   78.6207  223.6623 H   0  0  0  0  0  0  0  0  0  0  0  0
  140.6229   80.3824  223.2027 H   0  0  0  0  0  0  0  0  0  0  0  0
  139.8182   78.3902  221.7322 H   0  0  0  0  0  0  0  0  0  0  0  0
  140.4689   79.9804  221.0798 H   0  0  0  0  0  0  0  0  0  0  0  0
  142.6137   78.6737  221.3123 H   0  0  0  0  0  0  0  0  0  0  0  0
  140.9616   79.2017  219.0103 H   0  0  0  0  0  0  0  0  0  0  0  0
  142.6964   79.4058  219.2368 H   0  0  0  0  0  0  0  0  0  0  0  0
  141.2128   77.0386  218.0902 H   0  0  0  0  0  0  0  0  0  0  0  0
  143.3310   78.3840  217.5140 H   0  0  0  0  0  0  0  0  0  0  0  0
  142.2872   75.3872  219.5063 H   0  0  0  0  0  0  0  0  0  0  0  0
  143.5145   76.4817  220.0774 H   0  0  0  0  0  0  0  0  0  0  0  0
  139.6366   74.6333  220.4846 H   0  0  0  0  0  0  0  0  0  0  0  0
  141.3983   74.2914  220.7343 H   0  0  0  0  0  0  0  0  0  0  0  0
  139.5420   74.1390  223.1020 H   0  0  0  0  0  0  0  0  0  0  0  0
  139.3399   70.1866  222.2380 H   0  0  0  0  0  0  0  0  0  0  0  0
  138.7284   68.6435  224.0740 H   0  0  0  0  0  0  0  0  0  0  0  0
  138.7795   68.1201  226.3523 H   0  0  0  0  0  0  0  0  0  0  0  0
  139.4671   68.6749  228.6953 H   0  0  0  0  0  0  0  0  0  0  0  0
  140.7299   70.7466  229.1077 H   0  0  0  0  0  0  0  0  0  0  0  0
  141.3509   72.2957  227.2998 H   0  0  0  0  0  0  0  0  0  0  0  0
  1  2  1  0
  2  3  1  0
  3  4  1  0
  4  5  1  0
  5  6  1  0
  6  7  1  0
  6  8  1  0
  8  9  1  0
  9 10  1  0
 10 11  2  0
 10 12  1  0
 12 13  1  0
 13 14  1  0
 14 15  2  0
 14 16  1  0
 16 17  2  0
 17 18  1  0
 18 19  2  0
 19 20  1  0
 20 21  2  0
 21 22  1  0
 22 23  2  0
 23 24  1  0
 24 25  2  0
  9  4  1  0
 25 16  1  0
 24 19  1  0
  1 26  1  0
  1 27  1  0
  1 28  1  0
  2 29  1  0
  2 30  1  0
  3 31  1  0
  3 32  1  0
  4 33  1  1
  5 34  1  0
  5 35  1  0
  6 36  1  6
  7 37  1  0
  8 38  1  0
  8 39  1  0
 12 40  1  0
 12 41  1  0
 13 42  1  0
 17 43  1  0
 18 44  1  0
 20 45  1  0
 21 46  1  0
 22 47  1  0
 23 48  1  0
M  END
>  <smiles>  (20) 
CCC[C@@H]1C[C@@H](O)CN1C(=O)CNC(=O)c1ccc2ccccc2n1

>  <score_type>  (20) 
oracle

>  <origin>  (20) 
autodockgpu

>  <m_score__min__energy>  (20) 
-7.9699999999999998

>  <m_primary>  (20) 
energy

>  <rmsd>  (20) 
3.0551328403199887

>  <m_score__min__rmsd>  (20) 
3.0551328403199887

>  <meeko>  (20) 
{"free_energy": -7.24, "intermolecular_energy": -9.33, "internal_energy": -1.39, "cluster_size": 44, "cluster_id": 1, "rank_in_cluster": 34}

>  <energy>  (20) 
-7.52

>  <cluster_rmsd>  (20) 
1.1

>  <cluster>  (20) 
1

$$$$

     RDKit          3D

 48 50  0  0  0  0  0  0  0  0999 V2000
  145.7930   73.4410  221.1860 C   0  0  0  0  0  0  0  0  0  0  0  0
  144.5790   72.9630  220.4520 C   0  0  0  0  0  0  0  0  0  0  0  0
  143.3020   73.6310  220.8110 C   0  0  0  0  0  0  0  0  0  0  0  0
  142.7810   74.5650  219.7930 C   0  0  2  0  0  0  0  0  0  0  0  0
  143.6660   75.6200  219.2730 C   0  0  0  0  0  0  0  0  0  0  0  0
  142.7580   76.8510  219.1300 C   0  0  1  0  0  0  0  0  0  0  0  0
  142.9780   77.5180  217.9270 O   0  0  0  0  0  0  0  0  0  0  0  0
  141.3830   76.2580  219.1710 C   0  0  0  0  0  0  0  0  0  0  0  0
  141.5380   75.2260  220.2230 N   0  0  0  0  0  0  0  0  0  0  0  0
  140.6990   74.9860  221.3210 C   0  0  0  0  0  0  0  0  0  0  0  0
  140.5710   75.7060  222.3350 O   0  0  0  0  0  0  0  0  0  0  0  0
  139.8640   73.7420  221.2880 C   0  0  0  0  0  0  0  0  0  0  0  0
  139.8320   73.0920  222.5710 N   0  0  0  0  0  0  0  0  0  0  0  0
  140.4750   71.8300  222.7400 C   0  0  0  0  0  0  0  0  0  0  0  0
  141.0730   71.2760  221.7810 O   0  0  0  0  0  0  0  0  0  0  0  0
  140.4350   71.1790  224.0510 C   0  0  0  0  0  0  0  0  0  0  0  0
  140.8070   71.8840  225.1770 C   0  0  0  0  0  0  0  0  0  0  0  0
  140.7980   71.3460  226.4470 C   0  0  0  0  0  0  0  0  0  0  0  0
  140.3920   70.0320  226.5700 C   0  0  0  0  0  0  0  0  0  0  0  0
  140.3810   69.4920  227.8300 C   0  0  0  0  0  0  0  0  0  0  0  0
  139.9810   68.1800  227.9880 C   0  0  0  0  0  0  0  0  0  0  0  0
  139.6090   67.4710  226.8680 C   0  0  0  0  0  0  0  0  0  0  0  0
  139.6140   67.9960  225.5970 C   0  0  0  0  0  0  0  0  0  0  0  0
  140.0140   69.3090  225.4360 C   0  0  0  0  0  0  0  0  0  0  0  0
  140.0480   69.9020  224.2220 N   0  0  0  0  0  0  0  0  0  0  0  0
  145.6172   73.3718  222.2697 H   0  0  0  0  0  0  0  0  0  0  0  0
  146.6560   72.8155  220.9139 H   0  0  0  0  0  0  0  0  0  0  0  0
  145.9979   74.4869  220.9139 H   0  0  0  0  0  0  0  0  0  0  0  0
  144.7512   73.1195  219.3769 H   0  0  0  0  0  0  0  0  0  0  0  0
  144.4543   71.9077  220.7361 H   0  0  0  0  0  0  0  0  0  0  0  0
  142.5442   72.8516  220.9792 H   0  0  0  0  0  0  0  0  0  0  0  0
  143.5112   74.2355  221.7059 H   0  0  0  0  0  0  0  0  0  0  0  0
  142.6359   73.8595  218.9616 H   0  0  0  0  0  0  0  0  0  0  0  0
  144.4858   75.8218  219.9781 H   0  0  0  0  0  0  0  0  0  0  0  0
  144.1383   75.3368  218.3208 H   0  0  0  0  0  0  0  0  0  0  0  0
  142.9354   77.6055  219.9106 H   0  0  0  0  0  0  0  0  0  0  0  0
  142.4150   77.1580  217.2090 H   0  0  0  0  0  0  0  0  0  0  0  0
  140.6298   77.0087  219.4523 H   0  0  0  0  0  0  0  0  0  0  0  0
  141.0351   75.8646  218.2045 H   0  0  0  0  0  0  0  0  0  0  0  0
  138.8372   74.0088  220.9972 H   0  0  0  0  0  0  0  0  0  0  0  0
  140.3100   73.0472  220.5611 H   0  0  0  0  0  0  0  0  0  0  0  0
  139.3320   73.5440  223.3900 H   0  0  0  0  0  0  0  0  0  0  0  0
  141.1274   72.9293  225.0557 H   0  0  0  0  0  0  0  0  0  0  0  0
  141.1010   71.9378  227.3234 H   0  0  0  0  0  0  0  0  0  0  0  0
  140.6854   70.0931  228.6995 H   0  0  0  0  0  0  0  0  0  0  0  0
  139.9601   67.7129  228.9837 H   0  0  0  0  0  0  0  0  0  0  0  0
  139.2899   66.4262  226.9970 H   0  0  0  0  0  0  0  0  0  0  0  0
  139.3082   67.3880  224.7328 H   0  0  0  0  0  0  0  0  0  0  0  0
  1  2  1  0
  2  3  1  0
  3  4  1  0
  4  5  1  0
  5  6  1  0
  6  7  1  0
  6  8  1  0
  8  9  1  0
  9 10  1  0
 10 11  2  0
 10 12  1  0
 12 13  1  0
 13 14  1  0
 14 15  2  0
 14 16  1  0
 16 17  2  0
 17 18  1  0
 18 19  2  0
 19 20  1  0
 20 21  2  0
 21 22  1  0
 22 23  2  0
 23 24  1  0
 24 25  2  0
  9  4  1  0
 25 16  1  0
 24 19  1  0
  1 26  1  0
  1 27  1  0
  1 28  1  0
  2 29  1  0
  2 30  1  0
  3 31  1  0
  3 32  1  0
  4 33  1  6
  5 34  1  0
  5 35  1  0
  6 36  1  1
  7 37  1  0
  8 38  1  0
  8 39  1  0
 12 40  1  0
 12 41  1  0
 13 42  1  0
 17 43  1  0
 18 44  1  0
 20 45  1  0
 21 46  1  0
 22 47  1  0
 23 48  1  0
M  END
>  <smiles>  (21) 
CCC[C@@H]1C[C@@H](O)CN1C(=O)CNC(=O)c1ccc2ccccc2n1

>  <score_type>  (21) 
oracle

>  <origin>  (21) 
autodockgpu

>  <m_score__min__energy>  (21) 
-7.9699999999999998

>  <m_primary>  (21) 
energy

>  <rmsd>  (21) 
3.62926340688418

>  <m_score__min__rmsd>  (21) 
3.62926340688418

>  <meeko>  (21) 
{"free_energy": -7.09, "intermolecular_energy": -9.18, "internal_energy": -1.31, "cluster_size": 44, "cluster_id": 1, "rank_in_cluster": 43}

>  <energy>  (21) 
-7.52

>  <cluster_rmsd>  (21) 
1.71

>  <cluster>  (21) 
1

$$$$

     RDKit          3D

 48 50  0  0  0  0  0  0  0  0999 V2000
  142.2610   80.1090  223.4860 C   0  0  0  0  0  0  0  0  0  0  0  0
  141.0170   79.3440  223.8140 C   0  0  0  0  0  0  0  0  0  0  0  0
  140.3790   78.6300  222.6780 C   0  0  0  0  0  0  0  0  0  0  0  0
  141.3150   77.9110  221.7910 C   0  0  2  0  0  0  0  0  0  0  0  0
  141.8300   78.5940  220.5930 C   0  0  0  0  0  0  0  0  0  0  0  0
  141.8560   77.5070  219.5080 C   0  0  1  0  0  0  0  0  0  0  0  0
  143.0330   77.5460  218.7650 O   0  0  0  0  0  0  0  0  0  0  0  0
  141.7650   76.2400  220.3040 C   0  0  0  0  0  0  0  0  0  0  0  0
  140.7790   76.6150  221.3440 N   0  0  0  0  0  0  0  0  0  0  0  0
  139.6480   75.8940  221.7550 C   0  0  0  0  0  0  0  0  0  0  0  0
  138.7310   76.3050  222.5000 O   0  0  0  0  0  0  0  0  0  0  0  0
  139.5130   74.4870  221.2580 C   0  0  0  0  0  0  0  0  0  0  0  0
  139.3800   73.5520  222.3430 N   0  0  0  0  0  0  0  0  0  0  0  0
  140.3830   72.5580  222.5460 C   0  0  0  0  0  0  0  0  0  0  0  0
  141.3840   72.4870  221.7870 O   0  0  0  0  0  0  0  0  0  0  0  0
  140.2370   71.6130  223.6540 C   0  0  0  0  0  0  0  0  0  0  0  0
  139.6020   70.4060  223.4460 C   0  0  0  0  0  0  0  0  0  0  0  0
  139.4230   69.4610  224.4350 C   0  0  0  0  0  0  0  0  0  0  0  0
  139.9140   69.7640  225.6900 C   0  0  0  0  0  0  0  0  0  0  0  0
  139.7390   68.8290  226.6760 C   0  0  0  0  0  0  0  0  0  0  0  0
  140.2170   69.1010  227.9420 C   0  0  0  0  0  0  0  0  0  0  0  0
  140.8520   70.3040  228.1570 C   0  0  0  0  0  0  0  0  0  0  0  0
  141.0360   71.2530  227.1790 C   0  0  0  0  0  0  0  0  0  0  0  0
  140.5580   70.9840  225.9110 C   0  0  0  0  0  0  0  0  0  0  0  0
  140.6980   71.8620  224.8940 N   0  0  0  0  0  0  0  0  0  0  0  0
  142.7593   80.4155  224.4175 H   0  0  0  0  0  0  0  0  0  0  0  0
  142.9394   79.4718  222.8997 H   0  0  0  0  0  0  0  0  0  0  0  0
  141.9985   81.0019  222.8997 H   0  0  0  0  0  0  0  0  0  0  0  0
  141.2719   78.5980  224.5812 H   0  0  0  0  0  0  0  0  0  0  0  0
  140.2836   80.0939  224.1455 H   0  0  0  0  0  0  0  0  0  0  0  0
  139.6685   77.8983  223.0901 H   0  0  0  0  0  0  0  0  0  0  0  0
  139.8990   79.4022  222.0589 H   0  0  0  0  0  0  0  0  0  0  0  0
  142.1721   77.8178  222.4742 H   0  0  0  0  0  0  0  0  0  0  0  0
  141.1641   79.4191  220.3001 H   0  0  0  0  0  0  0  0  0  0  0  0
  142.8216   79.0395  220.7608 H   0  0  0  0  0  0  0  0  0  0  0  0
  141.0496   77.6221  218.7687 H   0  0  0  0  0  0  0  0  0  0  0  0
  143.8220   77.6040  219.3450 H   0  0  0  0  0  0  0  0  0  0  0  0
  141.4015   75.4039  219.6885 H   0  0  0  0  0  0  0  0  0  0  0  0
  142.7285   75.8915  220.7042 H   0  0  0  0  0  0  0  0  0  0  0  0
  138.6217   74.4189  220.6170 H   0  0  0  0  0  0  0  0  0  0  0  0
  140.4228   74.2326  220.6945 H   0  0  0  0  0  0  0  0  0  0  0  0
  138.5430   73.5980  222.9930 H   0  0  0  0  0  0  0  0  0  0  0  0
  139.2184   70.1856  222.4389 H   0  0  0  0  0  0  0  0  0  0  0  0
  138.9118   68.5082  224.2330 H   0  0  0  0  0  0  0  0  0  0  0  0
  139.2270   67.8791  226.4627 H   0  0  0  0  0  0  0  0  0  0  0  0
  140.0938   68.3748  228.7590 H   0  0  0  0  0  0  0  0  0  0  0  0
  141.2330   70.5175  229.1666 H   0  0  0  0  0  0  0  0  0  0  0  0
  141.5496   72.2002  227.4002 H   0  0  0  0  0  0  0  0  0  0  0  0
  1  2  1  0
  2  3  1  0
  3  4  1  0
  4  5  1  0
  5  6  1  0
  6  7  1  0
  6  8  1  0
  8  9  1  0
  9 10  1  0
 10 11  2  0
 10 12  1  0
 12 13  1  0
 13 14  1  0
 14 15  2  0
 14 16  1  0
 16 17  2  0
 17 18  1  0
 18 19  2  0
 19 20  1  0
 20 21  2  0
 21 22  1  0
 22 23  2  0
 23 24  1  0
 24 25  2  0
  9  4  1  0
 25 16  1  0
 24 19  1  0
  1 26  1  0
  1 27  1  0
  1 28  1  0
  2 29  1  0
  2 30  1  0
  3 31  1  0
  3 32  1  0
  4 33  1  1
  5 34  1  0
  5 35  1  0
  6 36  1  6
  7 37  1  0
  8 38  1  0
  8 39  1  0
 12 40  1  0
 12 41  1  0
 13 42  1  0
 17 43  1  0
 18 44  1  0
 20 45  1  0
 21 46  1  0
 22 47  1  0
 23 48  1  0
M  END
>  <smiles>  (22) 
CCC[C@@H]1C[C@@H](O)CN1C(=O)CNC(=O)c1ccc2ccccc2n1

>  <score_type>  (22) 
oracle

>  <origin>  (22) 
autodockgpu

>  <m_score__min__energy>  (22) 
-7.9699999999999998

>  <m_primary>  (22) 
energy

>  <rmsd>  (22) 
3.1513008220205454

>  <m_score__min__rmsd>  (22) 
3.1513008220205454

>  <meeko>  (22) 
{"free_energy": -7.96, "intermolecular_energy": -10.04, "internal_energy": -1.06, "cluster_size": 44, "cluster_id": 1, "rank_in_cluster": 2}

>  <energy>  (22) 
-7.52

>  <cluster_rmsd>  (22) 
1.7

>  <cluster>  (22) 
1

$$$$

     RDKit          3D

 48 50  0  0  0  0  0  0  0  0999 V2000
  142.1660   80.0650  223.5320 C   0  0  0  0  0  0  0  0  0  0  0  0
  140.9020   79.3110  223.8070 C   0  0  0  0  0  0  0  0  0  0  0  0
  140.3060   78.6030  222.6460 C   0  0  0  0  0  0  0  0  0  0  0  0
  141.2520   77.7740  221.8710 C   0  0  2  0  0  0  0  0  0  0  0  0
  141.8390   78.3250  220.6380 C   0  0  0  0  0  0  0  0  0  0  0  0
  141.8700   77.1390  219.6620 C   0  0  1  0  0  0  0  0  0  0  0  0
  143.0770   77.0720  218.9700 O   0  0  0  0  0  0  0  0  0  0  0  0
  141.7030   75.9570  220.5670 C   0  0  0  0  0  0  0  0  0  0  0  0
  140.6890   76.4590  221.5240 N   0  0  0  0  0  0  0  0  0  0  0  0
  139.5180   75.8160  221.9500 C   0  0  0  0  0  0  0  0  0  0  0  0
  138.6950   76.2430  222.7890 O   0  0  0  0  0  0  0  0  0  0  0  0
  139.2110   74.4790  221.3470 C   0  0  0  0  0  0  0  0  0  0  0  0
  139.0950   73.4580  222.3540 N   0  0  0  0  0  0  0  0  0  0  0  0
  140.2240   72.6460  222.6710 C   0  0  0  0  0  0  0  0  0  0  0  0
  141.3230   72.8110  222.0810 O   0  0  0  0  0  0  0  0  0  0  0  0
  140.0930   71.6110  223.6970 C   0  0  0  0  0  0  0  0  0  0  0  0
  139.3900   70.4570  223.4200 C   0  0  0  0  0  0  0  0  0  0  0  0
  139.2190   69.4340  224.3290 C   0  0  0  0  0  0  0  0  0  0  0  0
  139.7930   69.5990  225.5750 C   0  0  0  0  0  0  0  0  0  0  0  0
  139.6260   68.5860  226.4830 C   0  0  0  0  0  0  0  0  0  0  0  0
  140.1860   68.7190  227.7380 C   0  0  0  0  0  0  0  0  0  0  0  0
  140.8890   69.8680  228.0210 C   0  0  0  0  0  0  0  0  0  0  0  0
  141.0660   70.8950  227.1230 C   0  0  0  0  0  0  0  0  0  0  0  0
  140.5070   70.7640  225.8660 C   0  0  0  0  0  0  0  0  0  0  0  0
  140.6330   71.7250  224.9240 N   0  0  0  0  0  0  0  0  0  0  0  0
  142.6391   80.3472  224.4841 H   0  0  0  0  0  0  0  0  0  0  0  0
  142.8539   79.4295  222.9549 H   0  0  0  0  0  0  0  0  0  0  0  0
  141.9336   80.9722  222.9549 H   0  0  0  0  0  0  0  0  0  0  0  0
  141.1176   78.5629  224.5841 H   0  0  0  0  0  0  0  0  0  0  0  0
  140.1622   80.0677  224.1072 H   0  0  0  0  0  0  0  0  0  0  0  0
  139.5046   77.9485  223.0194 H   0  0  0  0  0  0  0  0  0  0  0  0
  139.9460   79.3838  221.9599 H   0  0  0  0  0  0  0  0  0  0  0  0
  142.0772   77.7186  222.5962 H   0  0  0  0  0  0  0  0  0  0  0  0
  141.2150   79.1391  220.2406 H   0  0  0  0  0  0  0  0  0  0  0  0
  142.8379   78.7539  220.8062 H   0  0  0  0  0  0  0  0  0  0  0  0
  141.0978   77.2075  218.8816 H   0  0  0  0  0  0  0  0  0  0  0  0
  143.7940   77.5380  219.4520 H   0  0  0  0  0  0  0  0  0  0  0  0
  141.3359   75.0782  220.0167 H   0  0  0  0  0  0  0  0  0  0  0  0
  142.6368   75.6182  221.0395 H   0  0  0  0  0  0  0  0  0  0  0  0
  138.2617   74.5457  220.7952 H   0  0  0  0  0  0  0  0  0  0  0  0
  140.0379   74.2067  220.6746 H   0  0  0  0  0  0  0  0  0  0  0  0
  138.1760   73.3050  222.8620 H   0  0  0  0  0  0  0  0  0  0  0  0
  138.9421   70.3469  222.4214 H   0  0  0  0  0  0  0  0  0  0  0  0
  138.6510   68.5273  224.0735 H   0  0  0  0  0  0  0  0  0  0  0  0
  139.0562   67.6835  226.2167 H   0  0  0  0  0  0  0  0  0  0  0  0
  140.0732   67.9267  228.4927 H   0  0  0  0  0  0  0  0  0  0  0  0
  141.3344   69.9708  229.0215 H   0  0  0  0  0  0  0  0  0  0  0  0
  141.6361   71.7947  227.3977 H   0  0  0  0  0  0  0  0  0  0  0  0
  1  2  1  0
  2  3  1  0
  3  4  1  0
  4  5  1  0
  5  6  1  0
  6  7  1  0
  6  8  1  0
  8  9  1  0
  9 10  1  0
 10 11  2  0
 10 12  1  0
 12 13  1  0
 13 14  1  0
 14 15  2  0
 14 16  1  0
 16 17  2  0
 17 18  1  0
 18 19  2  0
 19 20  1  0
 20 21  2  0
 21 22  1  0
 22 23  2  0
 23 24  1  0
 24 25  2  0
  9  4  1  0
 25 16  1  0
 24 19  1  0
  1 26  1  0
  1 27  1  0
  1 28  1  0
  2 29  1  0
  2 30  1  0
  3 31  1  0
  3 32  1  0
  4 33  1  1
  5 34  1  0
  5 35  1  0
  6 36  1  6
  7 37  1  0
  8 38  1  0
  8 39  1  0
 12 40  1  0
 12 41  1  0
 13 42  1  0
 17 43  1  0
 18 44  1  0
 20 45  1  0
 21 46  1  0
 22 47  1  0
 23 48  1  0
M  END
>  <smiles>  (23) 
CCC[C@@H]1C[C@@H](O)CN1C(=O)CNC(=O)c1ccc2ccccc2n1

>  <score_type>  (23) 
oracle

>  <origin>  (23) 
autodockgpu

>  <m_score__min__energy>  (23) 
-7.9699999999999998

>  <m_primary>  (23) 
energy

>  <rmsd>  (23) 
3.139599346659374

>  <m_score__min__rmsd>  (23) 
3.139599346659374

>  <meeko>  (23) 
{"free_energy": -7.86, "intermolecular_energy": -9.95, "internal_energy": -1.05, "cluster_size": 44, "cluster_id": 1, "rank_in_cluster": 3}

>  <energy>  (23) 
-7.47

>  <cluster_rmsd>  (23) 
1.7

>  <cluster>  (23) 
1

$$$$

     RDKit          3D

 48 50  0  0  0  0  0  0  0  0999 V2000
  145.6370   73.3670  221.0690 C   0  0  0  0  0  0  0  0  0  0  0  0
  144.8450   74.4960  220.4840 C   0  0  0  0  0  0  0  0  0  0  0  0
  143.4380   74.1820  220.1300 C   0  0  0  0  0  0  0  0  0  0  0  0
  142.7650   75.1990  219.2970 C   0  0  2  0  0  0  0  0  0  0  0  0
  143.5480   76.3360  218.7860 C   0  0  0  0  0  0  0  0  0  0  0  0
  142.6010   77.5400  218.8980 C   0  0  1  0  0  0  0  0  0  0  0  0
  142.6440   78.3380  217.7580 O   0  0  0  0  0  0  0  0  0  0  0  0
  141.2580   76.8940  219.0510 C   0  0  0  0  0  0  0  0  0  0  0  0
  141.5750   75.7630  219.9540 N   0  0  0  0  0  0  0  0  0  0  0  0
  140.8940   75.3760  221.1180 C   0  0  0  0  0  0  0  0  0  0  0  0
  140.9640   75.9240  222.2400 O   0  0  0  0  0  0  0  0  0  0  0  0
  139.9890   74.1860  221.0200 C   0  0  0  0  0  0  0  0  0  0  0  0
  139.9040   73.4810  222.2710 N   0  0  0  0  0  0  0  0  0  0  0  0
  140.2860   72.1080  222.3360 C   0  0  0  0  0  0  0  0  0  0  0  0
  140.6980   71.5040  221.3120 O   0  0  0  0  0  0  0  0  0  0  0  0
  140.1960   71.4020  223.6150 C   0  0  0  0  0  0  0  0  0  0  0  0
  139.6110   70.1530  223.6680 C   0  0  0  0  0  0  0  0  0  0  0  0
  139.4860   69.4220  224.8300 C   0  0  0  0  0  0  0  0  0  0  0  0
  139.9800   69.9910  225.9880 C   0  0  0  0  0  0  0  0  0  0  0  0
  139.8580   69.2690  227.1460 C   0  0  0  0  0  0  0  0  0  0  0  0
  140.3410   69.8100  228.3210 C   0  0  0  0  0  0  0  0  0  0  0  0
  140.9260   71.0560  228.2750 C   0  0  0  0  0  0  0  0  0  0  0  0
  141.0560   71.7950  227.1220 C   0  0  0  0  0  0  0  0  0  0  0  0
  140.5730   71.2560  225.9450 C   0  0  0  0  0  0  0  0  0  0  0  0
  140.6610   71.9150  224.7690 N   0  0  0  0  0  0  0  0  0  0  0  0
  145.5983   73.4222  222.1669 H   0  0  0  0  0  0  0  0  0  0  0  0
  145.2119   72.4091  220.7348 H   0  0  0  0  0  0  0  0  0  0  0  0
  146.6824   73.4407  220.7348 H   0  0  0  0  0  0  0  0  0  0  0  0
  144.8337   75.3160  221.2172 H   0  0  0  0  0  0  0  0  0  0  0  0
  145.3421   74.7504  219.5363 H   0  0  0  0  0  0  0  0  0  0  0  0
  143.4283   73.2292  219.5805 H   0  0  0  0  0  0  0  0  0  0  0  0
  142.8824   74.1430  221.0786 H   0  0  0  0  0  0  0  0  0  0  0  0
  142.5280   74.5806  218.4187 H   0  0  0  0  0  0  0  0  0  0  0  0
  144.4493   76.4927  219.3969 H   0  0  0  0  0  0  0  0  0  0  0  0
  143.8959   76.1733  217.7552 H   0  0  0  0  0  0  0  0  0  0  0  0
  142.8624   78.2140  219.7271 H   0  0  0  0  0  0  0  0  0  0  0  0
  143.5510   78.6720  217.5870 H   0  0  0  0  0  0  0  0  0  0  0  0
  140.5312   77.5816  219.5081 H   0  0  0  0  0  0  0  0  0  0  0  0
  140.7947   76.5922  218.1001 H   0  0  0  0  0  0  0  0  0  0  0  0
  138.9829   74.5253  220.7324 H   0  0  0  0  0  0  0  0  0  0  0  0
  140.4028   73.5002  220.2660 H   0  0  0  0  0  0  0  0  0  0  0  0
  139.5590   73.9750  223.1450 H   0  0  0  0  0  0  0  0  0  0  0  0
  139.2244   69.7183  222.7344 H   0  0  0  0  0  0  0  0  0  0  0  0
  139.0134   68.4287  224.8350 H   0  0  0  0  0  0  0  0  0  0  0  0
  139.3839   68.2764  227.1398 H   0  0  0  0  0  0  0  0  0  0  0  0
  140.2606   69.2596  229.2700 H   0  0  0  0  0  0  0  0  0  0  0  0
  141.3107   71.4841  229.2124 H   0  0  0  0  0  0  0  0  0  0  0  0
  141.5311   72.7870  227.1366 H   0  0  0  0  0  0  0  0  0  0  0  0
  1  2  1  0
  2  3  1  0
  3  4  1  0
  4  5  1  0
  5  6  1  0
  6  7  1  0
  6  8  1  0
  8  9  1  0
  9 10  1  0
 10 11  2  0
 10 12  1  0
 12 13  1  0
 13 14  1  0
 14 15  2  0
 14 16  1  0
 16 17  2  0
 17 18  1  0
 18 19  2  0
 19 20  1  0
 20 21  2  0
 21 22  1  0
 22 23  2  0
 23 24  1  0
 24 25  2  0
  9  4  1  0
 25 16  1  0
 24 19  1  0
  1 26  1  0
  1 27  1  0
  1 28  1  0
  2 29  1  0
  2 30  1  0
  3 31  1  0
  3 32  1  0
  4 33  1  6
  5 34  1  0
  5 35  1  0
  6 36  1  1
  7 37  1  0
  8 38  1  0
  8 39  1  0
 12 40  1  0
 12 41  1  0
 13 42  1  0
 17 43  1  0
 18 44  1  0
 20 45  1  0
 21 46  1  0
 22 47  1  0
 23 48  1  0
M  END
>  <smiles>  (24) 
CCC[C@@H]1C[C@@H](O)CN1C(=O)CNC(=O)c1ccc2ccccc2n1

>  <score_type>  (24) 
oracle

>  <origin>  (24) 
autodockgpu

>  <m_score__min__energy>  (24) 
-7.9699999999999998

>  <m_primary>  (24) 
energy

>  <rmsd>  (24) 
2.821075009282394

>  <m_score__min__rmsd>  (24) 
2.821075009282394

>  <meeko>  (24) 
{"free_energy": -7.52, "intermolecular_energy": -9.6, "internal_energy": -1.41, "cluster_size": 44, "cluster_id": 1, "rank_in_cluster": 22}

>  <energy>  (24) 
-7.46

>  <cluster_rmsd>  (24) 
0.96

>  <cluster>  (24) 
1

$$$$

     RDKit          3D

 48 50  0  0  0  0  0  0  0  0999 V2000
  142.0750   79.5270  223.4860 C   0  0  0  0  0  0  0  0  0  0  0  0
  140.6120   79.2150  223.4270 C   0  0  0  0  0  0  0  0  0  0  0  0
  140.1680   78.4110  222.2610 C   0  0  0  0  0  0  0  0  0  0  0  0
  141.2450   77.6770  221.5650 C   0  0  2  0  0  0  0  0  0  0  0  0
  141.8370   78.2610  220.3500 C   0  0  0  0  0  0  0  0  0  0  0  0
  142.0600   77.0640  219.4140 C   0  0  1  0  0  0  0  0  0  0  0  0
  143.3050   77.1180  218.7930 O   0  0  0  0  0  0  0  0  0  0  0  0
  141.9750   75.8930  220.3450 C   0  0  0  0  0  0  0  0  0  0  0  0
  140.8570   76.2980  221.2290 N   0  0  0  0  0  0  0  0  0  0  0  0
  139.7430   75.5350  221.6100 C   0  0  0  0  0  0  0  0  0  0  0  0
  138.7080   75.9540  222.1730 O   0  0  0  0  0  0  0  0  0  0  0  0
  139.7860   74.0660  221.3190 C   0  0  0  0  0  0  0  0  0  0  0  0
  139.7790   73.2860  222.5270 N   0  0  0  0  0  0  0  0  0  0  0  0
  140.0520   71.8870  222.4680 C   0  0  0  0  0  0  0  0  0  0  0  0
  140.3010   71.3240  221.3700 O   0  0  0  0  0  0  0  0  0  0  0  0
  140.0420   71.1050  223.7050 C   0  0  0  0  0  0  0  0  0  0  0  0
  139.5450   69.8180  223.6980 C   0  0  0  0  0  0  0  0  0  0  0  0
  139.4990   69.0150  224.8180 C   0  0  0  0  0  0  0  0  0  0  0  0
  139.9830   69.5510  225.9960 C   0  0  0  0  0  0  0  0  0  0  0  0
  139.9400   68.7570  227.1130 C   0  0  0  0  0  0  0  0  0  0  0  0
  140.4140   69.2630  228.3060 C   0  0  0  0  0  0  0  0  0  0  0  0
  140.9120   70.5470  228.3210 C   0  0  0  0  0  0  0  0  0  0  0  0
  140.9620   71.3570  227.2100 C   0  0  0  0  0  0  0  0  0  0  0  0
  140.4880   70.8530  226.0140 C   0  0  0  0  0  0  0  0  0  0  0  0
  140.5010   71.5830  224.8760 N   0  0  0  0  0  0  0  0  0  0  0  0
  142.3934   79.5949  224.5367 H   0  0  0  0  0  0  0  0  0  0  0  0
  142.6406   78.7293  222.9823 H   0  0  0  0  0  0  0  0  0  0  0  0
  142.2660   80.4861  222.9823 H   0  0  0  0  0  0  0  0  0  0  0  0
  140.3486   78.6598  224.3394 H   0  0  0  0  0  0  0  0  0  0  0  0
  140.1038   80.1858  223.3305 H   0  0  0  0  0  0  0  0  0  0  0  0
  139.4275   77.6780  222.6135 H   0  0  0  0  0  0  0  0  0  0  0  0
  139.7600   79.1256  221.5310 H   0  0  0  0  0  0  0  0  0  0  0  0
  142.0270   77.7350  222.3364 H   0  0  0  0  0  0  0  0  0  0  0  0
  141.1491   78.9880  219.8936 H   0  0  0  0  0  0  0  0  0  0  0  0
  142.7694   78.8054  220.5604 H   0  0  0  0  0  0  0  0  0  0  0  0
  141.3328   77.0255  218.5896 H   0  0  0  0  0  0  0  0  0  0  0  0
  143.9830   77.5140  219.3810 H   0  0  0  0  0  0  0  0  0  0  0  0
  141.7423   74.9647  219.8027 H   0  0  0  0  0  0  0  0  0  0  0  0
  142.9121   75.6756  220.8785 H   0  0  0  0  0  0  0  0  0  0  0  0
  138.9073   73.7960  220.7148 H   0  0  0  0  0  0  0  0  0  0  0  0
  140.7179   73.8503  220.7759 H   0  0  0  0  0  0  0  0  0  0  0  0
  139.5710   73.7440  223.4620 H   0  0  0  0  0  0  0  0  0  0  0  0
  139.1655   69.4111  222.7491 H   0  0  0  0  0  0  0  0  0  0  0  0
  139.0948   67.9928  224.7755 H   0  0  0  0  0  0  0  0  0  0  0  0
  139.5352   67.7356  227.0591 H   0  0  0  0  0  0  0  0  0  0  0  0
  140.3946   68.6556  229.2229 H   0  0  0  0  0  0  0  0  0  0  0  0
  141.2905   70.9468  229.2733 H   0  0  0  0  0  0  0  0  0  0  0  0
  141.3680   72.3774  227.2722 H   0  0  0  0  0  0  0  0  0  0  0  0
  1  2  1  0
  2  3  1  0
  3  4  1  0
  4  5  1  0
  5  6  1  0
  6  7  1  0
  6  8  1  0
  8  9  1  0
  9 10  1  0
 10 11  2  0
 10 12  1  0
 12 13  1  0
 13 14  1  0
 14 15  2  0
 14 16  1  0
 16 17  2  0
 17 18  1  0
 18 19  2  0
 19 20  1  0
 20 21  2  0
 21 22  1  0
 22 23  2  0
 23 24  1  0
 24 25  2  0
  9  4  1  0
 25 16  1  0
 24 19  1  0
  1 26  1  0
  1 27  1  0
  1 28  1  0
  2 29  1  0
  2 30  1  0
  3 31  1  0
  3 32  1  0
  4 33  1  1
  5 34  1  0
  5 35  1  0
  6 36  1  6
  7 37  1  0
  8 38  1  0
  8 39  1  0
 12 40  1  0
 12 41  1  0
 13 42  1  0
 17 43  1  0
 18 44  1  0
 20 45  1  0
 21 46  1  0
 22 47  1  0
 23 48  1  0
M  END
>  <smiles>  (25) 
CCC[C@@H]1C[C@@H](O)CN1C(=O)CNC(=O)c1ccc2ccccc2n1

>  <score_type>  (25) 
oracle

>  <origin>  (25) 
autodockgpu

>  <m_score__min__energy>  (25) 
-7.9699999999999998

>  <m_primary>  (25) 
energy

>  <rmsd>  (25) 
2.9589104994225934

>  <m_score__min__rmsd>  (25) 
2.9589104994225934

>  <meeko>  (25) 
{"free_energy": -7.65, "intermolecular_energy": -9.74, "internal_energy": -1.15, "cluster_size": 44, "cluster_id": 1, "rank_in_cluster": 8}

>  <energy>  (25) 
-7.42

>  <cluster_rmsd>  (25) 
0.78

>  <cluster>  (25) 
1

$$$$

     RDKit          3D

 48 50  0  0  0  0  0  0  0  0999 V2000
  145.6570   73.3970  221.1850 C   0  0  0  0  0  0  0  0  0  0  0  0
  144.5390   73.3790  220.1890 C   0  0  0  0  0  0  0  0  0  0  0  0
  143.2480   73.9450  220.6570 C   0  0  0  0  0  0  0  0  0  0  0  0
  142.7010   75.0260  219.8140 C   0  0  2  0  0  0  0  0  0  0  0  0
  143.5320   76.2110  219.5440 C   0  0  0  0  0  0  0  0  0  0  0  0
  142.5520   77.3920  219.5980 C   0  0  1  0  0  0  0  0  0  0  0  0
  142.7670   78.2900  218.5550 O   0  0  0  0  0  0  0  0  0  0  0  0
  141.2180   76.7240  219.4640 C   0  0  0  0  0  0  0  0  0  0  0  0
  141.4050   75.5200  220.3060 N   0  0  0  0  0  0  0  0  0  0  0  0
  140.5480   75.0250  221.3000 C   0  0  0  0  0  0  0  0  0  0  0  0
  140.2020   75.6120  222.3480 O   0  0  0  0  0  0  0  0  0  0  0  0
  139.9810   73.6520  221.0960 C   0  0  0  0  0  0  0  0  0  0  0  0
  139.8520   72.9420  222.3410 N   0  0  0  0  0  0  0  0  0  0  0  0
  140.2410   71.5720  222.4170 C   0  0  0  0  0  0  0  0  0  0  0  0
  140.6970   70.9730  221.4080 O   0  0  0  0  0  0  0  0  0  0  0  0
  140.1050   70.8610  223.6890 C   0  0  0  0  0  0  0  0  0  0  0  0
  139.4170   69.6660  223.7360 C   0  0  0  0  0  0  0  0  0  0  0  0
  139.2430   68.9340  224.8920 C   0  0  0  0  0  0  0  0  0  0  0  0
  139.7970   69.4460  226.0490 C   0  0  0  0  0  0  0  0  0  0  0  0
  139.6270   68.7240  227.2010 C   0  0  0  0  0  0  0  0  0  0  0  0
  140.1670   69.2080  228.3750 C   0  0  0  0  0  0  0  0  0  0  0  0
  140.8550   70.4000  228.3360 C   0  0  0  0  0  0  0  0  0  0  0  0
  141.0340   71.1390  227.1890 C   0  0  0  0  0  0  0  0  0  0  0  0
  140.4950   70.6560  226.0120 C   0  0  0  0  0  0  0  0  0  0  0  0
  140.6250   71.3190  224.8420 N   0  0  0  0  0  0  0  0  0  0  0  0
  145.2410   73.3903  222.2033 H   0  0  0  0  0  0  0  0  0  0  0  0
  146.2901   72.5089  221.0417 H   0  0  0  0  0  0  0  0  0  0  0  0
  146.2612   74.3050  221.0417 H   0  0  0  0  0  0  0  0  0  0  0  0
  144.8612   73.9554  219.3093 H   0  0  0  0  0  0  0  0  0  0  0  0
  144.3418   72.3172  219.9800 H   0  0  0  0  0  0  0  0  0  0  0  0
  142.5096   73.1303  220.6896 H   0  0  0  0  0  0  0  0  0  0  0  0
  143.4466   74.3926  221.6420 H   0  0  0  0  0  0  0  0  0  0  0  0
  142.6290   74.4859  218.8584 H   0  0  0  0  0  0  0  0  0  0  0  0
  144.3138   76.3198  220.3102 H   0  0  0  0  0  0  0  0  0  0  0  0
  144.0519   76.1443  218.5769 H   0  0  0  0  0  0  0  0  0  0  0  0
  142.6549   77.9908  220.5149 H   0  0  0  0  0  0  0  0  0  0  0  0
  143.6830   78.6420  218.5680 H   0  0  0  0  0  0  0  0  0  0  0  0
  140.4087   77.3618  219.8490 H   0  0  0  0  0  0  0  0  0  0  0  0
  140.9284   76.5047  218.4257 H   0  0  0  0  0  0  0  0  0  0  0  0
  138.9880   73.7412  220.6313 H   0  0  0  0  0  0  0  0  0  0  0  0
  140.6685   73.0885  220.4481 H   0  0  0  0  0  0  0  0  0  0  0  0
  139.4700   73.4310  223.2020 H   0  0  0  0  0  0  0  0  0  0  0  0
  138.9846   69.2766  222.8025 H   0  0  0  0  0  0  0  0  0  0  0  0
  138.6876   67.9845  224.8925 H   0  0  0  0  0  0  0  0  0  0  0  0
  139.0700   67.7755  227.1902 H   0  0  0  0  0  0  0  0  0  0  0  0
  140.0507   68.6551  229.3188 H   0  0  0  0  0  0  0  0  0  0  0  0
  141.2852   70.7827  229.2733 H   0  0  0  0  0  0  0  0  0  0  0  0
  141.5906   72.0876  227.2086 H   0  0  0  0  0  0  0  0  0  0  0  0
  1  2  1  0
  2  3  1  0
  3  4  1  0
  4  5  1  0
  5  6  1  0
  6  7  1  0
  6  8  1  0
  8  9  1  0
  9 10  1  0
 10 11  2  0
 10 12  1  0
 12 13  1  0
 13 14  1  0
 14 15  2  0
 14 16  1  0
 16 17  2  0
 17 18  1  0
 18 19  2  0
 19 20  1  0
 20 21  2  0
 21 22  1  0
 22 23  2  0
 23 24  1  0
 24 25  2  0
  9  4  1  0
 25 16  1  0
 24 19  1  0
  1 26  1  0
  1 27  1  0
  1 28  1  0
  2 29  1  0
  2 30  1  0
  3 31  1  0
  3 32  1  0
  4 33  1  6
  5 34  1  0
  5 35  1  0
  6 36  1  1
  7 37  1  0
  8 38  1  0
  8 39  1  0
 12 40  1  0
 12 41  1  0
 13 42  1  0
 17 43  1  0
 18 44  1  0
 20 45  1  0
 21 46  1  0
 22 47  1  0
 23 48  1  0
M  END
>  <smiles>  (26) 
CCC[C@@H]1C[C@@H](O)CN1C(=O)CNC(=O)c1ccc2ccccc2n1

>  <score_type>  (26) 
oracle

>  <origin>  (26) 
autodockgpu

>  <m_score__min__energy>  (26) 
-7.9699999999999998

>  <m_primary>  (26) 
energy

>  <rmsd>  (26) 
2.7335780854605765

>  <m_score__min__rmsd>  (26) 
2.7335780854605765

>  <meeko>  (26) 
{"free_energy": -7.52, "intermolecular_energy": -9.61, "internal_energy": -1.44, "cluster_size": 44, "cluster_id": 1, "rank_in_cluster": 19}

>  <energy>  (26) 
-7.39

>  <cluster_rmsd>  (26) 
1.14

>  <cluster>  (26) 
1

$$$$

     RDKit          3D

 48 50  0  0  0  0  0  0  0  0999 V2000
  142.4640   80.3360  223.8130 C   0  0  0  0  0  0  0  0  0  0  0  0
  141.0310   80.0840  223.4600 C   0  0  0  0  0  0  0  0  0  0  0  0
  140.7180   78.7190  222.9640 C   0  0  0  0  0  0  0  0  0  0  0  0
  141.5520   78.2610  221.8350 C   0  0  2  0  0  0  0  0  0  0  0  0
  141.8030   79.1810  220.7140 C   0  0  0  0  0  0  0  0  0  0  0  0
  141.7410   78.2920  219.4620 C   0  0  1  0  0  0  0  0  0  0  0  0
  142.7720   78.5820  218.5720 O   0  0  0  0  0  0  0  0  0  0  0  0
  141.8910   76.9120  220.0260 C   0  0  0  0  0  0  0  0  0  0  0  0
  141.0610   77.0020  221.2510 N   0  0  0  0  0  0  0  0  0  0  0  0
  140.0790   76.1030  221.6910 C   0  0  0  0  0  0  0  0  0  0  0  0
  139.0910   76.3700  222.4110 O   0  0  0  0  0  0  0  0  0  0  0  0
  140.2150   74.6740  221.2630 C   0  0  0  0  0  0  0  0  0  0  0  0
  139.9230   73.7680  222.3410 N   0  0  0  0  0  0  0  0  0  0  0  0
  140.6330   72.5340  222.4410 C   0  0  0  0  0  0  0  0  0  0  0  0
  141.5140   72.2270  221.5970 O   0  0  0  0  0  0  0  0  0  0  0  0
  140.3260   71.6210  223.5430 C   0  0  0  0  0  0  0  0  0  0  0  0
  139.6250   70.4600  223.2950 C   0  0  0  0  0  0  0  0  0  0  0  0
  139.2950   69.5470  224.2750 C   0  0  0  0  0  0  0  0  0  0  0  0
  139.7000   69.8350  225.5640 C   0  0  0  0  0  0  0  0  0  0  0  0
  139.3750   68.9320  226.5430 C   0  0  0  0  0  0  0  0  0  0  0  0
  139.7650   69.1900  227.8410 C   0  0  0  0  0  0  0  0  0  0  0  0
  140.4660   70.3480  228.0960 C   0  0  0  0  0  0  0  0  0  0  0  0
  140.8000   71.2650  227.1270 C   0  0  0  0  0  0  0  0  0  0  0  0
  140.4110   71.0090  225.8260 C   0  0  0  0  0  0  0  0  0  0  0  0
  140.6990   71.8580  224.8140 N   0  0  0  0  0  0  0  0  0  0  0  0
  142.5741   80.3554  224.9073 H   0  0  0  0  0  0  0  0  0  0  0  0
  143.0909   79.5343  223.3955 H   0  0  0  0  0  0  0  0  0  0  0  0
  142.7798   81.3035  223.3955 H   0  0  0  0  0  0  0  0  0  0  0  0
  140.4250   80.2632  224.3604 H   0  0  0  0  0  0  0  0  0  0  0  0
  140.8046   80.7643  222.6258 H   0  0  0  0  0  0  0  0  0  0  0  0
  140.8534   78.0134  223.7970 H   0  0  0  0  0  0  0  0  0  0  0  0
  139.6847   78.7568  222.5886 H   0  0  0  0  0  0  0  0  0  0  0  0
  142.5150   78.1550  222.3559 H   0  0  0  0  0  0  0  0  0  0  0  0
  141.0309   79.9634  220.6734 H   0  0  0  0  0  0  0  0  0  0  0  0
  142.7675   79.7012  220.8091 H   0  0  0  0  0  0  0  0  0  0  0  0
  140.8166   78.4329  218.8827 H   0  0  0  0  0  0  0  0  0  0  0  0
  143.6450   78.3240  218.9370 H   0  0  0  0  0  0  0  0  0  0  0  0
  141.5037   76.1504  219.3332 H   0  0  0  0  0  0  0  0  0  0  0  0
  142.9335   76.6139  220.2113 H   0  0  0  0  0  0  0  0  0  0  0  0
  139.5163   74.4812  220.4356 H   0  0  0  0  0  0  0  0  0  0  0  0
  141.2551   74.5075  220.9460 H   0  0  0  0  0  0  0  0  0  0  0  0
  139.1830   74.0100  223.0620 H   0  0  0  0  0  0  0  0  0  0  0  0
  139.3124   70.2507  222.2613 H   0  0  0  0  0  0  0  0  0  0  0  0
  138.7342   68.6302  224.0405 H   0  0  0  0  0  0  0  0  0  0  0  0
  138.8135   68.0184  226.2981 H   0  0  0  0  0  0  0  0  0  0  0  0
  139.5221   68.4881  228.6524 H   0  0  0  0  0  0  0  0  0  0  0  0
  140.7758   70.5505  229.1319 H   0  0  0  0  0  0  0  0  0  0  0  0
  141.3610   72.1766  227.3805 H   0  0  0  0  0  0  0  0  0  0  0  0
  1  2  1  0
  2  3  1  0
  3  4  1  0
  4  5  1  0
  5  6  1  0
  6  7  1  0
  6  8  1  0
  8  9  1  0
  9 10  1  0
 10 11  2  0
 10 12  1  0
 12 13  1  0
 13 14  1  0
 14 15  2  0
 14 16  1  0
 16 17  2  0
 17 18  1  0
 18 19  2  0
 19 20  1  0
 20 21  2  0
 21 22  1  0
 22 23  2  0
 23 24  1  0
 24 25  2  0
  9  4  1  0
 25 16  1  0
 24 19  1  0
  1 26  1  0
  1 27  1  0
  1 28  1  0
  2 29  1  0
  2 30  1  0
  3 31  1  0
  3 32  1  0
  4 33  1  1
  5 34  1  0
  5 35  1  0
  6 36  1  6
  7 37  1  0
  8 38  1  0
  8 39  1  0
 12 40  1  0
 12 41  1  0
 13 42  1  0
 17 43  1  0
 18 44  1  0
 20 45  1  0
 21 46  1  0
 22 47  1  0
 23 48  1  0
M  END
>  <smiles>  (27) 
CCC[C@@H]1C[C@@H](O)CN1C(=O)CNC(=O)c1ccc2ccccc2n1

>  <score_type>  (27) 
oracle

>  <origin>  (27) 
autodockgpu

>  <m_score__min__energy>  (27) 
-7.9699999999999998

>  <m_primary>  (27) 
energy

>  <rmsd>  (27) 
3.369887921702492

>  <m_score__min__rmsd>  (27) 
3.369887921702492

>  <meeko>  (27) 
{"free_energy": -7.73, "intermolecular_energy": -9.82, "internal_energy": -1.22, "cluster_size": 44, "cluster_id": 1, "rank_in_cluster": 6}

>  <energy>  (27) 
-7.36

>  <cluster_rmsd>  (27) 
0.75

>  <cluster>  (27) 
1

$$$$

     RDKit          3D

 48 50  0  0  0  0  0  0  0  0999 V2000
  145.6460   73.4000  221.0990 C   0  0  0  0  0  0  0  0  0  0  0  0
  144.8280   74.5180  220.5320 C   0  0  0  0  0  0  0  0  0  0  0  0
  143.4660   74.1510  220.0670 C   0  0  0  0  0  0  0  0  0  0  0  0
  142.7790   75.1900  219.2730 C   0  0  2  0  0  0  0  0  0  0  0  0
  143.5590   76.3290  218.7620 C   0  0  0  0  0  0  0  0  0  0  0  0
  142.6270   77.5390  218.9230 C   0  0  1  0  0  0  0  0  0  0  0  0
  142.6450   78.3590  217.7970 O   0  0  0  0  0  0  0  0  0  0  0  0
  141.2820   76.9020  219.1010 C   0  0  0  0  0  0  0  0  0  0  0  0
  141.6140   75.7520  219.9740 N   0  0  0  0  0  0  0  0  0  0  0  0
  140.9630   75.3490  221.1490 C   0  0  0  0  0  0  0  0  0  0  0  0
  141.0730   75.8700  222.2800 O   0  0  0  0  0  0  0  0  0  0  0  0
  140.0380   74.1730  221.0530 C   0  0  0  0  0  0  0  0  0  0  0  0
  139.9480   73.4670  222.3030 N   0  0  0  0  0  0  0  0  0  0  0  0
  140.3210   72.0910  222.3660 C   0  0  0  0  0  0  0  0  0  0  0  0
  140.7290   71.4860  221.3410 O   0  0  0  0  0  0  0  0  0  0  0  0
  140.2250   71.3840  223.6440 C   0  0  0  0  0  0  0  0  0  0  0  0
  139.6310   70.1390  223.6950 C   0  0  0  0  0  0  0  0  0  0  0  0
  139.5000   69.4070  224.8560 C   0  0  0  0  0  0  0  0  0  0  0  0
  139.9980   69.9710  226.0140 C   0  0  0  0  0  0  0  0  0  0  0  0
  139.8710   69.2480  227.1710 C   0  0  0  0  0  0  0  0  0  0  0  0
  140.3580   69.7830  228.3470 C   0  0  0  0  0  0  0  0  0  0  0  0
  140.9520   71.0250  228.3030 C   0  0  0  0  0  0  0  0  0  0  0  0
  141.0880   71.7640  227.1510 C   0  0  0  0  0  0  0  0  0  0  0  0
  140.6020   71.2310  225.9730 C   0  0  0  0  0  0  0  0  0  0  0  0
  140.6950   71.8910  224.7980 N   0  0  0  0  0  0  0  0  0  0  0  0
  145.6144   73.4432  222.1977 H   0  0  0  0  0  0  0  0  0  0  0  0
  145.2375   72.4373  220.7580 H   0  0  0  0  0  0  0  0  0  0  0  0
  146.6872   73.4980  220.7580 H   0  0  0  0  0  0  0  0  0  0  0  0
  144.7228   75.2878  221.3107 H   0  0  0  0  0  0  0  0  0  0  0  0
  145.3679   74.8587  219.6362 H   0  0  0  0  0  0  0  0  0  0  0  0
  143.5489   73.2462  219.4470 H   0  0  0  0  0  0  0  0  0  0  0  0
  142.8598   74.0040  220.9731 H   0  0  0  0  0  0  0  0  0  0  0  0
  142.5102   74.5912  218.3903 H   0  0  0  0  0  0  0  0  0  0  0  0
  144.4782   76.4656  219.3505 H   0  0  0  0  0  0  0  0  0  0  0  0
  143.8771   76.1829  217.7192 H   0  0  0  0  0  0  0  0  0  0  0  0
  142.9184   78.1944  219.7570 H   0  0  0  0  0  0  0  0  0  0  0  0
  143.5510   78.6830  217.6040 H   0  0  0  0  0  0  0  0  0  0  0  0
  140.5743   77.5872  219.5906 H   0  0  0  0  0  0  0  0  0  0  0  0
  140.7896   76.6222  218.1580 H   0  0  0  0  0  0  0  0  0  0  0  0
  139.0361   74.5289  220.7710 H   0  0  0  0  0  0  0  0  0  0  0  0
  140.4369   73.4823  220.2955 H   0  0  0  0  0  0  0  0  0  0  0  0
  139.6060   73.9610  223.1770 H   0  0  0  0  0  0  0  0  0  0  0  0
  139.2418   69.7084  222.7606 H   0  0  0  0  0  0  0  0  0  0  0  0
  139.0199   68.4173  224.8597 H   0  0  0  0  0  0  0  0  0  0  0  0
  139.3896   68.2590  227.1631 H   0  0  0  0  0  0  0  0  0  0  0  0
  140.2738   69.2314  229.2950 H   0  0  0  0  0  0  0  0  0  0  0  0
  141.3390   71.4493  229.2412 H   0  0  0  0  0  0  0  0  0  0  0  0
  141.5706   72.7524  227.1673 H   0  0  0  0  0  0  0  0  0  0  0  0
  1  2  1  0
  2  3  1  0
  3  4  1  0
  4  5  1  0
  5  6  1  0
  6  7  1  0
  6  8  1  0
  8  9  1  0
  9 10  1  0
 10 11  2  0
 10 12  1  0
 12 13  1  0
 13 14  1  0
 14 15  2  0
 14 16  1  0
 16 17  2  0
 17 18  1  0
 18 19  2  0
 19 20  1  0
 20 21  2  0
 21 22  1  0
 22 23  2  0
 23 24  1  0
 24 25  2  0
  9  4  1  0
 25 16  1  0
 24 19  1  0
  1 26  1  0
  1 27  1  0
  1 28  1  0
  2 29  1  0
  2 30  1  0
  3 31  1  0
  3 32  1  0
  4 33  1  6
  5 34  1  0
  5 35  1  0
  6 36  1  1
  7 37  1  0
  8 38  1  0
  8 39  1  0
 12 40  1  0
 12 41  1  0
 13 42  1  0
 17 43  1  0
 18 44  1  0
 20 45  1  0
 21 46  1  0
 22 47  1  0
 23 48  1  0
M  END
>  <smiles>  (28) 
CCC[C@@H]1C[C@@H](O)CN1C(=O)CNC(=O)c1ccc2ccccc2n1

>  <score_type>  (28) 
oracle

>  <origin>  (28) 
autodockgpu

>  <m_score__min__energy>  (28) 
-7.9699999999999998

>  <m_primary>  (28) 
energy

>  <rmsd>  (28) 
2.835505929520504

>  <m_score__min__rmsd>  (28) 
2.835505929520504

>  <meeko>  (28) 
{"free_energy": -7.47, "intermolecular_energy": -9.56, "internal_energy": -1.41, "cluster_size": 44, "cluster_id": 1, "rank_in_cluster": 23}

>  <energy>  (28) 
-7.36

>  <cluster_rmsd>  (28) 
1.75

>  <cluster>  (28) 
1

$$$$

     RDKit          3D

 48 50  0  0  0  0  0  0  0  0999 V2000
  145.7750   73.4140  221.2420 C   0  0  0  0  0  0  0  0  0  0  0  0
  144.7120   73.2580  220.1990 C   0  0  0  0  0  0  0  0  0  0  0  0
  143.3510   73.7020  220.5930 C   0  0  0  0  0  0  0  0  0  0  0  0
  142.7990   74.8060  219.7820 C   0  0  2  0  0  0  0  0  0  0  0  0
  143.6360   75.9880  219.5210 C   0  0  0  0  0  0  0  0  0  0  0  0
  142.6690   77.1780  219.6180 C   0  0  1  0  0  0  0  0  0  0  0  0
  142.8730   78.0950  218.5900 O   0  0  0  0  0  0  0  0  0  0  0  0
  141.3260   76.5250  219.4960 C   0  0  0  0  0  0  0  0  0  0  0  0
  141.5170   75.3020  220.3100 N   0  0  0  0  0  0  0  0  0  0  0  0
  140.6740   74.7940  221.3100 C   0  0  0  0  0  0  0  0  0  0  0  0
  140.2990   75.3900  222.3430 O   0  0  0  0  0  0  0  0  0  0  0  0
  140.1650   73.3960  221.1340 C   0  0  0  0  0  0  0  0  0  0  0  0
  140.0800   72.7010  222.3910 N   0  0  0  0  0  0  0  0  0  0  0  0
  140.0160   71.2760  222.4080 C   0  0  0  0  0  0  0  0  0  0  0  0
  140.0340   70.6160  221.3370 O   0  0  0  0  0  0  0  0  0  0  0  0
  139.9300   70.5820  223.6940 C   0  0  0  0  0  0  0  0  0  0  0  0
  139.3040   69.3540  223.7680 C   0  0  0  0  0  0  0  0  0  0  0  0
  139.1790   68.6350  224.9380 C   0  0  0  0  0  0  0  0  0  0  0  0
  139.7190   69.1940  226.0810 C   0  0  0  0  0  0  0  0  0  0  0  0
  139.5980   68.4830  227.2460 C   0  0  0  0  0  0  0  0  0  0  0  0
  140.1260   69.0140  228.4060 C   0  0  0  0  0  0  0  0  0  0  0  0
  140.7520   70.2390  228.3390 C   0  0  0  0  0  0  0  0  0  0  0  0
  140.8820   70.9660  227.1780 C   0  0  0  0  0  0  0  0  0  0  0  0
  140.3550   70.4360  226.0160 C   0  0  0  0  0  0  0  0  0  0  0  0
  140.4390   71.0850  224.8330 N   0  0  0  0  0  0  0  0  0  0  0  0
  145.3206   73.3473  222.2415 H   0  0  0  0  0  0  0  0  0  0  0  0
  146.5231   72.6160  221.1253 H   0  0  0  0  0  0  0  0  0  0  0  0
  146.2622   74.3933  221.1253 H   0  0  0  0  0  0  0  0  0  0  0  0
  145.0156   73.8418  219.3175 H   0  0  0  0  0  0  0  0  0  0  0  0
  144.6318   72.1768  220.0131 H   0  0  0  0  0  0  0  0  0  0  0  0
  142.6719   72.8411  220.5058 H   0  0  0  0  0  0  0  0  0  0  0  0
  143.4366   74.0861  221.6202 H   0  0  0  0  0  0  0  0  0  0  0  0
  142.7040   74.2872  218.8167 H   0  0  0  0  0  0  0  0  0  0  0  0
  144.4331   76.0732  220.2743 H   0  0  0  0  0  0  0  0  0  0  0  0
  144.1366   75.9364  218.5428 H   0  0  0  0  0  0  0  0  0  0  0  0
  142.7955   77.7572  220.5445 H   0  0  0  0  0  0  0  0  0  0  0  0
  143.7240   78.5720  218.6980 H   0  0  0  0  0  0  0  0  0  0  0  0
  140.5303   77.1624  219.9091 H   0  0  0  0  0  0  0  0  0  0  0  0
  141.0150   76.3295  218.4592 H   0  0  0  0  0  0  0  0  0  0  0  0
  139.1641   73.4351  220.6794 H   0  0  0  0  0  0  0  0  0  0  0  0
  140.8693   72.8523  220.4872 H   0  0  0  0  0  0  0  0  0  0  0  0
  140.0640   73.2420  223.3040 H   0  0  0  0  0  0  0  0  0  0  0  0
  138.8830   68.9268  222.8459 H   0  0  0  0  0  0  0  0  0  0  0  0
  138.6717   67.6592  224.9607 H   0  0  0  0  0  0  0  0  0  0  0  0
  139.0898   67.5075  227.2569 H   0  0  0  0  0  0  0  0  0  0  0  0
  140.0486   68.4721  229.3601 H   0  0  0  0  0  0  0  0  0  0  0  0
  141.1713   70.6595  229.2650 H   0  0  0  0  0  0  0  0  0  0  0  0
  141.3909   71.9412  227.1751 H   0  0  0  0  0  0  0  0  0  0  0  0
  1  2  1  0
  2  3  1  0
  3  4  1  0
  4  5  1  0
  5  6  1  0
  6  7  1  0
  6  8  1  0
  8  9  1  0
  9 10  1  0
 10 11  2  0
 10 12  1  0
 12 13  1  0
 13 14  1  0
 14 15  2  0
 14 16  1  0
 16 17  2  0
 17 18  1  0
 18 19  2  0
 19 20  1  0
 20 21  2  0
 21 22  1  0
 22 23  2  0
 23 24  1  0
 24 25  2  0
  9  4  1  0
 25 16  1  0
 24 19  1  0
  1 26  1  0
  1 27  1  0
  1 28  1  0
  2 29  1  0
  2 30  1  0
  3 31  1  0
  3 32  1  0
  4 33  1  6
  5 34  1  0
  5 35  1  0
  6 36  1  1
  7 37  1  0
  8 38  1  0
  8 39  1  0
 12 40  1  0
 12 41  1  0
 13 42  1  0
 17 43  1  0
 18 44  1  0
 20 45  1  0
 21 46  1  0
 22 47  1  0
 23 48  1  0
M  END
>  <smiles>  (29) 
CCC[C@@H]1C[C@@H](O)CN1C(=O)CNC(=O)c1ccc2ccccc2n1

>  <score_type>  (29) 
oracle

>  <origin>  (29) 
autodockgpu

>  <m_score__min__energy>  (29) 
-7.9699999999999998

>  <m_primary>  (29) 
energy

>  <rmsd>  (29) 
2.8078053932224143

>  <m_score__min__rmsd>  (29) 
2.8078053932224143

>  <meeko>  (29) 
{"free_energy": -7.31, "intermolecular_energy": -9.4, "internal_energy": -1.56, "cluster_size": 44, "cluster_id": 1, "rank_in_cluster": 31}

>  <energy>  (29) 
-7.36

>  <cluster_rmsd>  (29) 
1.65

>  <cluster>  (29) 
1

$$$$

     RDKit          3D

 48 50  0  0  0  0  0  0  0  0999 V2000
  145.2910   73.1390  220.8230 C   0  0  0  0  0  0  0  0  0  0  0  0
  144.4730   74.3430  220.4710 C   0  0  0  0  0  0  0  0  0  0  0  0
  143.1730   74.0680  219.8060 C   0  0  0  0  0  0  0  0  0  0  0  0
  142.5630   75.2310  219.1310 C   0  0  2  0  0  0  0  0  0  0  0  0
  143.4270   76.3440  218.7050 C   0  0  0  0  0  0  0  0  0  0  0  0
  142.6060   77.6080  219.0040 C   0  0  1  0  0  0  0  0  0  0  0  0
  142.6720   78.5260  217.9580 O   0  0  0  0  0  0  0  0  0  0  0  0
  141.2160   77.0730  219.1620 C   0  0  0  0  0  0  0  0  0  0  0  0
  141.4660   75.8210  219.9150 N   0  0  0  0  0  0  0  0  0  0  0  0
  140.8070   75.3650  221.0670 C   0  0  0  0  0  0  0  0  0  0  0  0
  140.7960   75.9180  222.1880 O   0  0  0  0  0  0  0  0  0  0  0  0
  140.0350   74.0860  220.9550 C   0  0  0  0  0  0  0  0  0  0  0  0
  139.9490   73.4070  222.2200 N   0  0  0  0  0  0  0  0  0  0  0  0
  140.3020   72.0280  222.3080 C   0  0  0  0  0  0  0  0  0  0  0  0
  140.6890   71.3950  221.2910 O   0  0  0  0  0  0  0  0  0  0  0  0
  140.2110   71.3480  223.6010 C   0  0  0  0  0  0  0  0  0  0  0  0
  139.6330   70.0980  223.6790 C   0  0  0  0  0  0  0  0  0  0  0  0
  139.5070   69.3910  224.8560 C   0  0  0  0  0  0  0  0  0  0  0  0
  139.9950   69.9870  226.0020 C   0  0  0  0  0  0  0  0  0  0  0  0
  139.8730   69.2890  227.1760 C   0  0  0  0  0  0  0  0  0  0  0  0
  140.3490   69.8570  228.3400 C   0  0  0  0  0  0  0  0  0  0  0  0
  140.9270   71.1050  228.2700 C   0  0  0  0  0  0  0  0  0  0  0  0
  141.0570   71.8200  227.1020 C   0  0  0  0  0  0  0  0  0  0  0  0
  140.5820   71.2530  225.9350 C   0  0  0  0  0  0  0  0  0  0  0  0
  140.6700   71.8880  224.7450 N   0  0  0  0  0  0  0  0  0  0  0  0
  145.3543   73.0458  221.9172 H   0  0  0  0  0  0  0  0  0  0  0  0
  144.8169   72.2387  220.4052 H   0  0  0  0  0  0  0  0  0  0  0  0
  146.3027   73.2481  220.4052 H   0  0  0  0  0  0  0  0  0  0  0  0
  144.2671   74.8948  221.4000 H   0  0  0  0  0  0  0  0  0  0  0  0
  145.0701   74.9071  219.7394 H   0  0  0  0  0  0  0  0  0  0  0  0
  143.3333   73.2814  219.0539 H   0  0  0  0  0  0  0  0  0  0  0  0
  142.4748   73.7719  220.6028 H   0  0  0  0  0  0  0  0  0  0  0  0
  142.2261   74.7425  218.2047 H   0  0  0  0  0  0  0  0  0  0  0  0
  144.3667   76.3470  219.2768 H   0  0  0  0  0  0  0  0  0  0  0  0
  143.7091   76.2709  217.6443 H   0  0  0  0  0  0  0  0  0  0  0  0
  142.9698   78.1552  219.8862 H   0  0  0  0  0  0  0  0  0  0  0  0
  143.5950   78.6590  217.6550 H   0  0  0  0  0  0  0  0  0  0  0  0
  140.5811   77.7659  219.7337 H   0  0  0  0  0  0  0  0  0  0  0  0
  140.6809   76.9263  218.2122 H   0  0  0  0  0  0  0  0  0  0  0  0
  139.0183   74.3125  220.6016 H   0  0  0  0  0  0  0  0  0  0  0  0
  140.5598   73.4283  220.2464 H   0  0  0  0  0  0  0  0  0  0  0  0
  139.6250   73.9250  223.0880 H   0  0  0  0  0  0  0  0  0  0  0  0
  139.2526   69.6412  222.7535 H   0  0  0  0  0  0  0  0  0  0  0  0
  139.0384   68.3961  224.8810 H   0  0  0  0  0  0  0  0  0  0  0  0
  139.4041   68.2941  227.1896 H   0  0  0  0  0  0  0  0  0  0  0  0
  140.2687   69.3261  229.3000 H   0  0  0  0  0  0  0  0  0  0  0  0
  141.3057   71.5550  229.1995 H   0  0  0  0  0  0  0  0  0  0  0  0
  141.5259   72.8150  227.0973 H   0  0  0  0  0  0  0  0  0  0  0  0
  1  2  1  0
  2  3  1  0
  3  4  1  0
  4  5  1  0
  5  6  1  0
  6  7  1  0
  6  8  1  0
  8  9  1  0
  9 10  1  0
 10 11  2  0
 10 12  1  0
 12 13  1  0
 13 14  1  0
 14 15  2  0
 14 16  1  0
 16 17  2  0
 17 18  1  0
 18 19  2  0
 19 20  1  0
 20 21  2  0
 21 22  1  0
 22 23  2  0
 23 24  1  0
 24 25  2  0
  9  4  1  0
 25 16  1  0
 24 19  1  0
  1 26  1  0
  1 27  1  0
  1 28  1  0
  2 29  1  0
  2 30  1  0
  3 31  1  0
  3 32  1  0
  4 33  1  6
  5 34  1  0
  5 35  1  0
  6 36  1  1
  7 37  1  0
  8 38  1  0
  8 39  1  0
 12 40  1  0
 12 41  1  0
 13 42  1  0
 17 43  1  0
 18 44  1  0
 20 45  1  0
 21 46  1  0
 22 47  1  0
 23 48  1  0
M  END
>  <smiles>  (30) 
CCC[C@@H]1C[C@@H](O)CN1C(=O)CNC(=O)c1ccc2ccccc2n1

>  <score_type>  (30) 
oracle

>  <origin>  (30) 
autodockgpu

>  <m_score__min__energy>  (30) 
-7.9699999999999998

>  <m_primary>  (30) 
energy

>  <rmsd>  (30) 
2.7584927657872362

>  <m_score__min__rmsd>  (30) 
2.7584927657872362

>  <meeko>  (30) 
{"free_energy": -7.36, "intermolecular_energy": -9.45, "internal_energy": -1.5, "cluster_size": 44, "cluster_id": 1, "rank_in_cluster": 29}

>  <energy>  (30) 
-7.33

>  <cluster_rmsd>  (30) 
0.76

>  <cluster>  (30) 
1

$$$$

     RDKit          3D

 48 50  0  0  0  0  0  0  0  0999 V2000
  141.9070   81.0790  223.5570 C   0  0  0  0  0  0  0  0  0  0  0  0
  142.0570   79.6100  223.8070 C   0  0  0  0  0  0  0  0  0  0  0  0
  141.1940   78.7240  222.9860 C   0  0  0  0  0  0  0  0  0  0  0  0
  141.7750   78.3160  221.6910 C   0  0  2  0  0  0  0  0  0  0  0  0
  141.8070   79.2880  220.5850 C   0  0  0  0  0  0  0  0  0  0  0  0
  141.4790   78.4610  219.3330 C   0  0  1  0  0  0  0  0  0  0  0  0
  142.3120   78.7870  218.2660 O   0  0  0  0  0  0  0  0  0  0  0  0
  141.7200   77.0540  219.7910 C   0  0  0  0  0  0  0  0  0  0  0  0
  141.1580   77.0900  221.1610 N   0  0  0  0  0  0  0  0  0  0  0  0
  140.2720   76.1750  221.7500 C   0  0  0  0  0  0  0  0  0  0  0  0
  139.4120   76.4250  222.6230 O   0  0  0  0  0  0  0  0  0  0  0  0
  140.3540   74.7500  221.2950 C   0  0  0  0  0  0  0  0  0  0  0  0
  140.0160   73.8360  222.3530 N   0  0  0  0  0  0  0  0  0  0  0  0
  140.6600   72.5650  222.4220 C   0  0  0  0  0  0  0  0  0  0  0  0
  141.5220   72.2310  221.5680 O   0  0  0  0  0  0  0  0  0  0  0  0
  140.3080   71.6440  223.5040 C   0  0  0  0  0  0  0  0  0  0  0  0
  139.5850   70.5030  223.2240 C   0  0  0  0  0  0  0  0  0  0  0  0
  139.2120   69.5850  224.1840 C   0  0  0  0  0  0  0  0  0  0  0  0
  139.5960   69.8460  225.4850 C   0  0  0  0  0  0  0  0  0  0  0  0
  139.2280   68.9370  226.4430 C   0  0  0  0  0  0  0  0  0  0  0  0
  139.5950   69.1680  227.7540 C   0  0  0  0  0  0  0  0  0  0  0  0
  140.3160   70.3050  228.0400 C   0  0  0  0  0  0  0  0  0  0  0  0
  140.6930   71.2270  227.0920 C   0  0  0  0  0  0  0  0  0  0  0  0
  140.3280   70.9990  225.7790 C   0  0  0  0  0  0  0  0  0  0  0  0
  140.6570   71.8540  224.7870 N   0  0  0  0  0  0  0  0  0  0  0  0
  141.8527   81.6109  224.5183 H   0  0  0  0  0  0  0  0  0  0  0  0
  142.7726   81.4438  222.9845 H   0  0  0  0  0  0  0  0  0  0  0  0
  140.9856   81.2613  222.9845 H   0  0  0  0  0  0  0  0  0  0  0  0
  143.1045   79.3390  223.6088 H   0  0  0  0  0  0  0  0  0  0  0  0
  141.7435   79.4505  224.8493 H   0  0  0  0  0  0  0  0  0  0  0  0
  140.9856   77.8146  223.5687 H   0  0  0  0  0  0  0  0  0  0  0  0
  140.2911   79.3060  222.7493 H   0  0  0  0  0  0  0  0  0  0  0  0
  142.8216   78.1798  222.0010 H   0  0  0  0  0  0  0  0  0  0  0  0
  141.0546   80.0756  220.7383 H   0  0  0  0  0  0  0  0  0  0  0  0
  142.7785   79.7978  220.5056 H   0  0  0  0  0  0  0  0  0  0  0  0
  140.4585   78.6351  218.9612 H   0  0  0  0  0  0  0  0  0  0  0  0
  143.2480   78.8660  218.5510 H   0  0  0  0  0  0  0  0  0  0  0  0
  141.1887   76.3285  219.1575 H   0  0  0  0  0  0  0  0  0  0  0  0
  142.7738   76.7417  219.7462 H   0  0  0  0  0  0  0  0  0  0  0  0
  139.6554   74.6017  220.4584 H   0  0  0  0  0  0  0  0  0  0  0  0
  141.3892   74.5475  220.9831 H   0  0  0  0  0  0  0  0  0  0  0  0
  139.2920   74.1010  223.0820 H   0  0  0  0  0  0  0  0  0  0  0  0
  139.2905   70.3153  222.1809 H   0  0  0  0  0  0  0  0  0  0  0  0
  138.6346   68.6853  223.9249 H   0  0  0  0  0  0  0  0  0  0  0  0
  138.6511   68.0403  226.1724 H   0  0  0  0  0  0  0  0  0  0  0  0
  139.3181   68.4610  228.5499 H   0  0  0  0  0  0  0  0  0  0  0  0
  140.6069   70.4863  229.0852 H   0  0  0  0  0  0  0  0  0  0  0  0
  141.2693   72.1214  227.3712 H   0  0  0  0  0  0  0  0  0  0  0  0
  1  2  1  0
  2  3  1  0
  3  4  1  0
  4  5  1  0
  5  6  1  0
  6  7  1  0
  6  8  1  0
  8  9  1  0
  9 10  1  0
 10 11  2  0
 10 12  1  0
 12 13  1  0
 13 14  1  0
 14 15  2  0
 14 16  1  0
 16 17  2  0
 17 18  1  0
 18 19  2  0
 19 20  1  0
 20 21  2  0
 21 22  1  0
 22 23  2  0
 23 24  1  0
 24 25  2  0
  9  4  1  0
 25 16  1  0
 24 19  1  0
  1 26  1  0
  1 27  1  0
  1 28  1  0
  2 29  1  0
  2 30  1  0
  3 31  1  0
  3 32  1  0
  4 33  1  1
  5 34  1  0
  5 35  1  0
  6 36  1  6
  7 37  1  0
  8 38  1  0
  8 39  1  0
 12 40  1  0
 12 41  1  0
 13 42  1  0
 17 43  1  0
 18 44  1  0
 20 45  1  0
 21 46  1  0
 22 47  1  0
 23 48  1  0
M  END
>  <smiles>  (31) 
CCC[C@@H]1C[C@@H](O)CN1C(=O)CNC(=O)c1ccc2ccccc2n1

>  <score_type>  (31) 
oracle

>  <origin>  (31) 
autodockgpu

>  <m_score__min__energy>  (31) 
-7.9699999999999998

>  <m_primary>  (31) 
energy

>  <rmsd>  (31) 
3.375382281918319

>  <m_score__min__rmsd>  (31) 
3.375382281918319

>  <meeko>  (31) 
{"free_energy": -7.36, "intermolecular_energy": -9.45, "internal_energy": -1.31, "cluster_size": 44, "cluster_id": 1, "rank_in_cluster": 27}

>  <energy>  (31) 
-7.31

>  <cluster_rmsd>  (31) 
1.81

>  <cluster>  (31) 
1

$$$$

     RDKit          3D

 48 50  0  0  0  0  0  0  0  0999 V2000
  141.7040   78.8060  223.1750 C   0  0  0  0  0  0  0  0  0  0  0  0
  141.8150   79.2440  221.7470 C   0  0  0  0  0  0  0  0  0  0  0  0
  141.2670   78.3020  220.7380 C   0  0  0  0  0  0  0  0  0  0  0  0
  142.1520   77.1690  220.4000 C   0  0  2  0  0  0  0  0  0  0  0  0
  142.6210   77.0190  219.0130 C   0  0  0  0  0  0  0  0  0  0  0  0
  142.5830   75.5060  218.7530 C   0  0  1  0  0  0  0  0  0  0  0  0
  143.7260   75.0670  218.0890 O   0  0  0  0  0  0  0  0  0  0  0  0
  142.5110   74.9320  220.1350 C   0  0  0  0  0  0  0  0  0  0  0  0
  141.5790   75.8730  220.7980 N   0  0  0  0  0  0  0  0  0  0  0  0
  140.4580   75.5630  221.5820 C   0  0  0  0  0  0  0  0  0  0  0  0
  140.0390   76.2020  222.5720 O   0  0  0  0  0  0  0  0  0  0  0  0
  139.6740   74.3420  221.2060 C   0  0  0  0  0  0  0  0  0  0  0  0
  139.4900   73.4640  222.3300 N   0  0  0  0  0  0  0  0  0  0  0  0
  140.4570   72.4520  222.6030 C   0  0  0  0  0  0  0  0  0  0  0  0
  141.4720   72.3160  221.8720 O   0  0  0  0  0  0  0  0  0  0  0  0
  140.2580   71.5650  223.7510 C   0  0  0  0  0  0  0  0  0  0  0  0
  139.5760   70.3770  223.5880 C   0  0  0  0  0  0  0  0  0  0  0  0
  139.3450   69.4870  224.6150 C   0  0  0  0  0  0  0  0  0  0  0  0
  139.8330   69.8250  225.8620 C   0  0  0  0  0  0  0  0  0  0  0  0
  139.6070   68.9440  226.8880 C   0  0  0  0  0  0  0  0  0  0  0  0
  140.0810   69.2530  228.1460 C   0  0  0  0  0  0  0  0  0  0  0  0
  140.7630   70.4370  228.3160 C   0  0  0  0  0  0  0  0  0  0  0  0
  140.9990   71.3330  227.2990 C   0  0  0  0  0  0  0  0  0  0  0  0
  140.5250   71.0270  226.0380 C   0  0  0  0  0  0  0  0  0  0  0  0
  140.7140   71.8510  224.9840 N   0  0  0  0  0  0  0  0  0  0  0  0
  141.9197   79.6572  223.8375 H   0  0  0  0  0  0  0  0  0  0  0  0
  140.6847   78.4402  223.3682 H   0  0  0  0  0  0  0  0  0  0  0  0
  142.4260   77.9989  223.3682 H   0  0  0  0  0  0  0  0  0  0  0  0
  141.2784   80.1987  221.6440 H   0  0  0  0  0  0  0  0  0  0  0  0
  142.8928   79.3121  221.5381 H   0  0  0  0  0  0  0  0  0  0  0  0
  140.3233   77.8937  221.1288 H   0  0  0  0  0  0  0  0  0  0  0  0
  141.1402   78.8815  219.8117 H   0  0  0  0  0  0  0  0  0  0  0  0
  143.0382   77.4538  220.9862 H   0  0  0  0  0  0  0  0  0  0  0  0
  141.9536   77.5494  218.3178 H   0  0  0  0  0  0  0  0  0  0  0  0
  143.6250   77.4429  218.8639 H   0  0  0  0  0  0  0  0  0  0  0  0
  141.7454   75.2045  218.1069 H   0  0  0  0  0  0  0  0  0  0  0  0
  144.4640   75.7060  218.1840 H   0  0  0  0  0  0  0  0  0  0  0  0
  142.1084   73.9084  220.1244 H   0  0  0  0  0  0  0  0  0  0  0  0
  143.4870   74.8414  220.6342 H   0  0  0  0  0  0  0  0  0  0  0  0
  138.6878   74.6526  220.8305 H   0  0  0  0  0  0  0  0  0  0  0  0
  140.2353   73.7975  220.4324 H   0  0  0  0  0  0  0  0  0  0  0  0
  138.6400   73.5640  222.9580 H   0  0  0  0  0  0  0  0  0  0  0  0
  139.1967   70.1268  222.5862 H   0  0  0  0  0  0  0  0  0  0  0  0
  138.7959   68.5485  224.4486 H   0  0  0  0  0  0  0  0  0  0  0  0
  139.0576   68.0076  226.7111 H   0  0  0  0  0  0  0  0  0  0  0  0
  139.9181   68.5701  228.9928 H   0  0  0  0  0  0  0  0  0  0  0  0
  141.1400   70.6799  229.3204 H   0  0  0  0  0  0  0  0  0  0  0  0
  141.5497   72.2669  227.4848 H   0  0  0  0  0  0  0  0  0  0  0  0
  1  2  1  0
  2  3  1  0
  3  4  1  0
  4  5  1  0
  5  6  1  0
  6  7  1  0
  6  8  1  0
  8  9  1  0
  9 10  1  0
 10 11  2  0
 10 12  1  0
 12 13  1  0
 13 14  1  0
 14 15  2  0
 14 16  1  0
 16 17  2  0
 17 18  1  0
 18 19  2  0
 19 20  1  0
 20 21  2  0
 21 22  1  0
 22 23  2  0
 23 24  1  0
 24 25  2  0
  9  4  1  0
 25 16  1  0
 24 19  1  0
  1 26  1  0
  1 27  1  0
  1 28  1  0
  2 29  1  0
  2 30  1  0
  3 31  1  0
  3 32  1  0
  4 33  1  1
  5 34  1  0
  5 35  1  0
  6 36  1  6
  7 37  1  0
  8 38  1  0
  8 39  1  0
 12 40  1  0
 12 41  1  0
 13 42  1  0
 17 43  1  0
 18 44  1  0
 20 45  1  0
 21 46  1  0
 22 47  1  0
 23 48  1  0
M  END
>  <smiles>  (32) 
CCC[C@@H]1C[C@@H](O)CN1C(=O)CNC(=O)c1ccc2ccccc2n1

>  <score_type>  (32) 
oracle

>  <origin>  (32) 
autodockgpu

>  <m_score__min__energy>  (32) 
-7.9699999999999998

>  <m_primary>  (32) 
energy

>  <rmsd>  (32) 
2.6771833933800515

>  <m_score__min__rmsd>  (32) 
2.6771833933800515

>  <meeko>  (32) 
{"free_energy": -7.6, "intermolecular_energy": -9.68, "internal_energy": -1.16, "cluster_size": 44, "cluster_id": 1, "rank_in_cluster": 12}

>  <energy>  (32) 
-7.31

>  <cluster_rmsd>  (32) 
1.62

>  <cluster>  (32) 
1

$$$$

     RDKit          3D

 48 50  0  0  0  0  0  0  0  0999 V2000
  142.0540   80.8930  223.4940 C   0  0  0  0  0  0  0  0  0  0  0  0
  142.1420   79.4110  223.6850 C   0  0  0  0  0  0  0  0  0  0  0  0
  141.1690   78.6000  222.9100 C   0  0  0  0  0  0  0  0  0  0  0  0
  141.5930   78.2650  221.5360 C   0  0  2  0  0  0  0  0  0  0  0  0
  141.5040   79.2970  220.4900 C   0  0  0  0  0  0  0  0  0  0  0  0
  141.0270   78.5410  219.2400 C   0  0  1  0  0  0  0  0  0  0  0  0
  141.7330   78.9260  218.1030 O   0  0  0  0  0  0  0  0  0  0  0  0
  141.3090   77.1110  219.5880 C   0  0  0  0  0  0  0  0  0  0  0  0
  140.9090   77.0710  221.0150 N   0  0  0  0  0  0  0  0  0  0  0  0
  140.0900   76.1260  221.6510 C   0  0  0  0  0  0  0  0  0  0  0  0
  139.2230   76.3560  222.5210 O   0  0  0  0  0  0  0  0  0  0  0  0
  140.2640   74.6910  221.2560 C   0  0  0  0  0  0  0  0  0  0  0  0
  139.9430   73.8010  222.3400 N   0  0  0  0  0  0  0  0  0  0  0  0
  140.5970   72.5360  222.4340 C   0  0  0  0  0  0  0  0  0  0  0  0
  141.4530   72.1880  221.5810 O   0  0  0  0  0  0  0  0  0  0  0  0
  140.2620   71.6400  223.5420 C   0  0  0  0  0  0  0  0  0  0  0  0
  139.5460   70.4870  223.2970 C   0  0  0  0  0  0  0  0  0  0  0  0
  139.1890   69.5910  224.2830 C   0  0  0  0  0  0  0  0  0  0  0  0
  139.5820   69.8860  225.5740 C   0  0  0  0  0  0  0  0  0  0  0  0
  139.2310   68.9990  226.5580 C   0  0  0  0  0  0  0  0  0  0  0  0
  139.6070   69.2660  227.8580 C   0  0  0  0  0  0  0  0  0  0  0  0
  140.3220   70.4150  228.1100 C   0  0  0  0  0  0  0  0  0  0  0  0
  140.6830   71.3170  227.1350 C   0  0  0  0  0  0  0  0  0  0  0  0
  140.3080   71.0520  225.8320 C   0  0  0  0  0  0  0  0  0  0  0  0
  140.6210   71.8850  224.8150 N   0  0  0  0  0  0  0  0  0  0  0  0
  142.0246   81.3881  224.4758 H   0  0  0  0  0  0  0  0  0  0  0  0
  142.9329   81.2432  222.9329 H   0  0  0  0  0  0  0  0  0  0  0  0
  141.1398   81.1367  222.9329 H   0  0  0  0  0  0  0  0  0  0  0  0
  143.1539   79.0928  223.3939 H   0  0  0  0  0  0  0  0  0  0  0  0
  141.9035   79.2318  224.7438 H   0  0  0  0  0  0  0  0  0  0  0  0
  140.9987   77.6592  223.4539 H   0  0  0  0  0  0  0  0  0  0  0  0
  140.2633   79.2164  222.8114 H   0  0  0  0  0  0  0  0  0  0  0  0
  142.6676   78.1110  221.7133 H   0  0  0  0  0  0  0  0  0  0  0  0
  140.7801   80.0754  220.7730 H   0  0  0  0  0  0  0  0  0  0  0  0
  142.4634   79.8098  220.3269 H   0  0  0  0  0  0  0  0  0  0  0  0
  139.9715   78.7361  218.9994 H   0  0  0  0  0  0  0  0  0  0  0  0
  142.6550   79.1830  218.3220 H   0  0  0  0  0  0  0  0  0  0  0  0
  140.7028   76.4224  218.9811 H   0  0  0  0  0  0  0  0  0  0  0  0
  142.3482   76.8007  219.4041 H   0  0  0  0  0  0  0  0  0  0  0  0
  139.6013   74.4718  220.4058 H   0  0  0  0  0  0  0  0  0  0  0  0
  141.3180   74.5346  220.9828 H   0  0  0  0  0  0  0  0  0  0  0  0
  139.2240   74.0790  223.0690 H   0  0  0  0  0  0  0  0  0  0  0  0
  139.2440   70.2707  222.2616 H   0  0  0  0  0  0  0  0  0  0  0  0
  138.6161   68.6810  224.0513 H   0  0  0  0  0  0  0  0  0  0  0  0
  138.6599   68.0907  226.3155 H   0  0  0  0  0  0  0  0  0  0  0  0
  139.3419   68.5773  228.6737 H   0  0  0  0  0  0  0  0  0  0  0  0
  140.6213   70.6238  229.1477 H   0  0  0  0  0  0  0  0  0  0  0  0
  141.2539   72.2231  227.3861 H   0  0  0  0  0  0  0  0  0  0  0  0
  1  2  1  0
  2  3  1  0
  3  4  1  0
  4  5  1  0
  5  6  1  0
  6  7  1  0
  6  8  1  0
  8  9  1  0
  9 10  1  0
 10 11  2  0
 10 12  1  0
 12 13  1  0
 13 14  1  0
 14 15  2  0
 14 16  1  0
 16 17  2  0
 17 18  1  0
 18 19  2  0
 19 20  1  0
 20 21  2  0
 21 22  1  0
 22 23  2  0
 23 24  1  0
 24 25  2  0
  9  4  1  0
 25 16  1  0
 24 19  1  0
  1 26  1  0
  1 27  1  0
  1 28  1  0
  2 29  1  0
  2 30  1  0
  3 31  1  0
  3 32  1  0
  4 33  1  1
  5 34  1  0
  5 35  1  0
  6 36  1  6
  7 37  1  0
  8 38  1  0
  8 39  1  0
 12 40  1  0
 12 41  1  0
 13 42  1  0
 17 43  1  0
 18 44  1  0
 20 45  1  0
 21 46  1  0
 22 47  1  0
 23 48  1  0
M  END
>  <smiles>  (33) 
CCC[C@@H]1C[C@@H](O)CN1C(=O)CNC(=O)c1ccc2ccccc2n1

>  <score_type>  (33) 
oracle

>  <origin>  (33) 
autodockgpu

>  <m_score__min__energy>  (33) 
-7.9699999999999998

>  <m_primary>  (33) 
energy

>  <rmsd>  (33) 
3.267854785378746

>  <m_score__min__rmsd>  (33) 
3.267854785378746

>  <meeko>  (33) 
{"free_energy": -7.17, "intermolecular_energy": -9.25, "internal_energy": -1.35, "cluster_size": 44, "cluster_id": 1, "rank_in_cluster": 41}

>  <energy>  (33) 
-7.3

>  <cluster_rmsd>  (33) 
1.64

>  <cluster>  (33) 
1

$$$$

     RDKit          3D

 48 50  0  0  0  0  0  0  0  0999 V2000
  142.4880   79.4980  222.7620 C   0  0  0  0  0  0  0  0  0  0  0  0
  141.0700   79.0870  222.5150 C   0  0  0  0  0  0  0  0  0  0  0  0
  140.7700   78.5850  221.1490 C   0  0  0  0  0  0  0  0  0  0  0  0
  141.8420   77.7760  220.5350 C   0  0  2  0  0  0  0  0  0  0  0  0
  142.1880   78.0030  219.1230 C   0  0  0  0  0  0  0  0  0  0  0  0
  142.4550   76.6000  218.5580 C   0  0  1  0  0  0  0  0  0  0  0  0
  143.5910   76.5740  217.7540 O   0  0  0  0  0  0  0  0  0  0  0  0
  142.6520   75.7760  219.7940 C   0  0  0  0  0  0  0  0  0  0  0  0
  141.6090   76.3310  220.6880 N   0  0  0  0  0  0  0  0  0  0  0  0
  140.6700   75.6240  221.4540 C   0  0  0  0  0  0  0  0  0  0  0  0
  139.9630   76.0830  222.3780 O   0  0  0  0  0  0  0  0  0  0  0  0
  140.4850   74.1700  221.1430 C   0  0  0  0  0  0  0  0  0  0  0  0
  140.1630   73.4130  222.3230 N   0  0  0  0  0  0  0  0  0  0  0  0
  140.6270   72.0700  222.4500 C   0  0  0  0  0  0  0  0  0  0  0  0
  141.3160   71.5370  221.5420 O   0  0  0  0  0  0  0  0  0  0  0  0
  140.2940   71.3100  223.6560 C   0  0  0  0  0  0  0  0  0  0  0  0
  139.5850   70.1310  223.5480 C   0  0  0  0  0  0  0  0  0  0  0  0
  139.2300   69.3570  224.6320 C   0  0  0  0  0  0  0  0  0  0  0  0
  139.6170   69.8070  225.8800 C   0  0  0  0  0  0  0  0  0  0  0  0
  139.2670   69.0410  226.9620 C   0  0  0  0  0  0  0  0  0  0  0  0
  139.6380   69.4630  228.2220 C   0  0  0  0  0  0  0  0  0  0  0  0
  140.3450   70.6380  228.3370 C   0  0  0  0  0  0  0  0  0  0  0  0
  140.7040   71.4190  227.2630 C   0  0  0  0  0  0  0  0  0  0  0  0
  140.3350   70.9990  226.0000 C   0  0  0  0  0  0  0  0  0  0  0  0
  140.6470   71.7070  224.8920 N   0  0  0  0  0  0  0  0  0  0  0  0
  142.6710   79.5510  223.8454 H   0  0  0  0  0  0  0  0  0  0  0  0
  143.1676   78.7599  222.3111 H   0  0  0  0  0  0  0  0  0  0  0  0
  142.6675   80.4851  222.3111 H   0  0  0  0  0  0  0  0  0  0  0  0
  140.8206   78.2891  223.2300 H   0  0  0  0  0  0  0  0  0  0  0  0
  140.4692   80.0005  222.6358 H   0  0  0  0  0  0  0  0  0  0  0  0
  139.8630   77.9651  221.2042 H   0  0  0  0  0  0  0  0  0  0  0  0
  140.6513   79.4742  220.5125 H   0  0  0  0  0  0  0  0  0  0  0  0
  142.6996   78.1457  221.1162 H   0  0  0  0  0  0  0  0  0  0  0  0
  141.3534   78.4832  218.5912 H   0  0  0  0  0  0  0  0  0  0  0  0
  143.0550   78.6703  219.0085 H   0  0  0  0  0  0  0  0  0  0  0  0
  141.6420   76.2376  217.9117 H   0  0  0  0  0  0  0  0  0  0  0  0
  144.3370   76.1190  218.2010 H   0  0  0  0  0  0  0  0  0  0  0  0
  142.4839   74.7072  219.5955 H   0  0  0  0  0  0  0  0  0  0  0  0
  143.6699   75.8246  220.2080 H   0  0  0  0  0  0  0  0  0  0  0  0
  139.6673   74.0618  220.4153 H   0  0  0  0  0  0  0  0  0  0  0  0
  141.4295   73.7829  220.7330 H   0  0  0  0  0  0  0  0  0  0  0  0
  139.5830   73.8460  223.0990 H   0  0  0  0  0  0  0  0  0  0  0  0
  139.2878   69.7912  222.5449 H   0  0  0  0  0  0  0  0  0  0  0  0
  138.6635   68.4222  224.5090 H   0  0  0  0  0  0  0  0  0  0  0  0
  138.7009   68.1074  226.8279 H   0  0  0  0  0  0  0  0  0  0  0  0
  139.3750   68.8744  229.1133 H   0  0  0  0  0  0  0  0  0  0  0  0
  140.6393   70.9711  229.3432 H   0  0  0  0  0  0  0  0  0  0  0  0
  141.2691   72.3519  227.4060 H   0  0  0  0  0  0  0  0  0  0  0  0
  1  2  1  0
  2  3  1  0
  3  4  1  0
  4  5  1  0
  5  6  1  0
  6  7  1  0
  6  8  1  0
  8  9  1  0
  9 10  1  0
 10 11  2  0
 10 12  1  0
 12 13  1  0
 13 14  1  0
 14 15  2  0
 14 16  1  0
 16 17  2  0
 17 18  1  0
 18 19  2  0
 19 20  1  0
 20 21  2  0
 21 22  1  0
 22 23  2  0
 23 24  1  0
 24 25  2  0
  9  4  1  0
 25 16  1  0
 24 19  1  0
  1 26  1  0
  1 27  1  0
  1 28  1  0
  2 29  1  0
  2 30  1  0
  3 31  1  0
  3 32  1  0
  4 33  1  1
  5 34  1  0
  5 35  1  0
  6 36  1  6
  7 37  1  0
  8 38  1  0
  8 39  1  0
 12 40  1  0
 12 41  1  0
 13 42  1  0
 17 43  1  0
 18 44  1  0
 20 45  1  0
 21 46  1  0
 22 47  1  0
 23 48  1  0
M  END
>  <smiles>  (34) 
CCC[C@@H]1C[C@@H](O)CN1C(=O)CNC(=O)c1ccc2ccccc2n1

>  <score_type>  (34) 
oracle

>  <origin>  (34) 
autodockgpu

>  <m_score__min__energy>  (34) 
-7.9699999999999998

>  <m_primary>  (34) 
energy

>  <rmsd>  (34) 
2.831446930017676

>  <m_score__min__rmsd>  (34) 
2.831446930017676

>  <meeko>  (34) 
{"free_energy": -7.46, "intermolecular_energy": -9.55, "internal_energy": -1.39, "cluster_size": 44, "cluster_id": 1, "rank_in_cluster": 24}

>  <energy>  (34) 
-7.24

>  <cluster_rmsd>  (34) 
0.88

>  <cluster>  (34) 
1

$$$$

     RDKit          3D

 48 50  0  0  0  0  0  0  0  0999 V2000
  140.3890   71.9160  228.3870 C   0  0  0  0  0  0  0  0  0  0  0  0
  141.1990   72.2230  227.1650 C   0  0  0  0  0  0  0  0  0  0  0  0
  140.8740   71.4240  225.9570 C   0  0  0  0  0  0  0  0  0  0  0  0
  140.0480   70.2260  226.2070 C   0  0  2  0  0  0  0  0  0  0  0  0
  140.7150   68.9330  226.4330 C   0  0  0  0  0  0  0  0  0  0  0  0
  139.8360   67.9100  225.6990 C   0  0  1  0  0  0  0  0  0  0  0  0
  139.6350   66.7610  226.4590 O   0  0  0  0  0  0  0  0  0  0  0  0
  138.5510   68.6550  225.5020 C   0  0  0  0  0  0  0  0  0  0  0  0
  139.0450   70.0070  225.1530 N   0  0  0  0  0  0  0  0  0  0  0  0
  138.6350   70.8220  224.0860 C   0  0  0  0  0  0  0  0  0  0  0  0
  137.5490   71.4330  223.9880 O   0  0  0  0  0  0  0  0  0  0  0  0
  139.5890   70.9850  222.9420 C   0  0  0  0  0  0  0  0  0  0  0  0
  139.8210   72.3720  222.6390 N   0  0  0  0  0  0  0  0  0  0  0  0
  140.8360   72.7310  221.7030 C   0  0  0  0  0  0  0  0  0  0  0  0
  141.5320   71.8490  221.1350 O   0  0  0  0  0  0  0  0  0  0  0  0
  141.0620   74.1460  221.4030 C   0  0  0  0  0  0  0  0  0  0  0  0
  141.9840   74.5030  220.4410 C   0  0  0  0  0  0  0  0  0  0  0  0
  142.2570   75.8110  220.0990 C   0  0  0  0  0  0  0  0  0  0  0  0
  141.5570   76.7950  220.7690 C   0  0  0  0  0  0  0  0  0  0  0  0
  141.8240   78.0970  220.4340 C   0  0  0  0  0  0  0  0  0  0  0  0
  141.1420   79.1050  221.0850 C   0  0  0  0  0  0  0  0  0  0  0  0
  140.2210   78.7550  222.0470 C   0  0  0  0  0  0  0  0  0  0  0  0
  139.9400   77.4550  222.3960 C   0  0  0  0  0  0  0  0  0  0  0  0
  140.6210   76.4440  221.7460 C   0  0  0  0  0  0  0  0  0  0  0  0
  140.4060   75.1400  222.0290 N   0  0  0  0  0  0  0  0  0  0  0  0
  140.9819   72.1407  229.2859 H   0  0  0  0  0  0  0  0  0  0  0  0
  139.4768   72.5308  228.3863 H   0  0  0  0  0  0  0  0  0  0  0  0
  140.1135   70.8511  228.3863 H   0  0  0  0  0  0  0  0  0  0  0  0
  141.0485   73.2843  226.9182 H   0  0  0  0  0  0  0  0  0  0  0  0
  142.2372   71.9664  227.4225 H   0  0  0  0  0  0  0  0  0  0  0  0
  140.3307   72.0729  225.2543 H   0  0  0  0  0  0  0  0  0  0  0  0
  141.8334   71.0597  225.5611 H   0  0  0  0  0  0  0  0  0  0  0  0
  139.6106   70.5111  227.1752 H   0  0  0  0  0  0  0  0  0  0  0  0
  141.7321   68.9423  226.0142 H   0  0  0  0  0  0  0  0  0  0  0  0
  140.8215   68.7000  227.5027 H   0  0  0  0  0  0  0  0  0  0  0  0
  140.2875   67.5546  224.7610 H   0  0  0  0  0  0  0  0  0  0  0  0
  139.9490   66.8810  227.3810 H   0  0  0  0  0  0  0  0  0  0  0  0
  137.9560   68.2211  224.6848 H   0  0  0  0  0  0  0  0  0  0  0  0
  137.8813   68.6332  226.3744 H   0  0  0  0  0  0  0  0  0  0  0  0
  140.5466   70.5123  223.2057 H   0  0  0  0  0  0  0  0  0  0  0  0
  139.1466   70.5085  222.0547 H   0  0  0  0  0  0  0  0  0  0  0  0
  139.2440   73.1290  223.1080 H   0  0  0  0  0  0  0  0  0  0  0  0
  142.5298   73.7029  219.9195 H   0  0  0  0  0  0  0  0  0  0  0  0
  142.9997   76.0595  219.3265 H   0  0  0  0  0  0  0  0  0  0  0  0
  142.5687   78.3344  219.6600 H   0  0  0  0  0  0  0  0  0  0  0  0
  141.3294   80.1612  220.8415 H   0  0  0  0  0  0  0  0  0  0  0  0
  139.6798   79.5603  222.5652 H   0  0  0  0  0  0  0  0  0  0  0  0
  139.1938   77.2264  223.1712 H   0  0  0  0  0  0  0  0  0  0  0  0
  1  2  1  0
  2  3  1  0
  3  4  1  0
  4  5  1  0
  5  6  1  0
  6  7  1  0
  6  8  1  0
  8  9  1  0
  9 10  1  0
 10 11  2  0
 10 12  1  0
 12 13  1  0
 13 14  1  0
 14 15  2  0
 14 16  1  0
 16 17  2  0
 17 18  1  0
 18 19  2  0
 19 20  1  0
 20 21  2  0
 21 22  1  0
 22 23  2  0
 23 24  1  0
 24 25  2  0
  9  4  1  0
 25 16  1  0
 24 19  1  0
  1 26  1  0
  1 27  1  0
  1 28  1  0
  2 29  1  0
  2 30  1  0
  3 31  1  0
  3 32  1  0
  4 33  1  1
  5 34  1  0
  5 35  1  0
  6 36  1  6
  7 37  1  0
  8 38  1  0
  8 39  1  0
 12 40  1  0
 12 41  1  0
 13 42  1  0
 17 43  1  0
 18 44  1  0
 20 45  1  0
 21 46  1  0
 22 47  1  0
 23 48  1  0
M  END
>  <smiles>  (35) 
CCC[C@@H]1C[C@@H](O)CN1C(=O)CNC(=O)c1ccc2ccccc2n1

>  <score_type>  (35) 
oracle

>  <origin>  (35) 
autodockgpu

>  <m_score__min__energy>  (35) 
-7.9699999999999998

>  <m_primary>  (35) 
energy

>  <rmsd>  (35) 
8.323959197509707

>  <m_score__min__rmsd>  (35) 
8.323959197509707

>  <meeko>  (35) 
{"free_energy": -7.65, "intermolecular_energy": -9.74, "internal_energy": -1.52, "cluster_size": 2, "cluster_id": 2, "rank_in_cluster": 2}

>  <energy>  (35) 
-7.23

>  <cluster_rmsd>  (35) 
1.85

>  <cluster>  (35) 
1

$$$$

     RDKit          3D

 48 50  0  0  0  0  0  0  0  0999 V2000
  144.6670   73.5680  220.6100 C   0  0  0  0  0  0  0  0  0  0  0  0
  144.0370   74.8240  220.0930 C   0  0  0  0  0  0  0  0  0  0  0  0
  142.6870   74.6700  219.4920 C   0  0  0  0  0  0  0  0  0  0  0  0
  141.9940   75.9370  219.1870 C   0  0  2  0  0  0  0  0  0  0  0  0
  142.7950   77.1510  218.9540 C   0  0  0  0  0  0  0  0  0  0  0  0
  142.0000   78.2750  219.6340 C   0  0  1  0  0  0  0  0  0  0  0  0
  141.9410   79.4190  218.8410 O   0  0  0  0  0  0  0  0  0  0  0  0
  140.6410   77.6680  219.8030 C   0  0  0  0  0  0  0  0  0  0  0  0
  140.9850   76.2820  220.2000 N   0  0  0  0  0  0  0  0  0  0  0  0
  140.4610   75.5400  221.2700 C   0  0  0  0  0  0  0  0  0  0  0  0
  140.1700   75.9730  222.4060 O   0  0  0  0  0  0  0  0  0  0  0  0
  140.2230   74.0790  221.0400 C   0  0  0  0  0  0  0  0  0  0  0  0
  140.0390   73.3710  222.2790 N   0  0  0  0  0  0  0  0  0  0  0  0
  140.4410   72.0060  222.3800 C   0  0  0  0  0  0  0  0  0  0  0  0
  140.9570   71.4110  221.3980 O   0  0  0  0  0  0  0  0  0  0  0  0
  140.2490   71.2980  223.6460 C   0  0  0  0  0  0  0  0  0  0  0  0
  139.6130   70.0730  223.6560 C   0  0  0  0  0  0  0  0  0  0  0  0
  139.3910   69.3410  224.8030 C   0  0  0  0  0  0  0  0  0  0  0  0
  139.8390   69.8840  225.9920 C   0  0  0  0  0  0  0  0  0  0  0  0
  139.6220   69.1620  227.1360 C   0  0  0  0  0  0  0  0  0  0  0  0
  140.0560   69.6770  228.3400 C   0  0  0  0  0  0  0  0  0  0  0  0
  140.6920   70.8980  228.3380 C   0  0  0  0  0  0  0  0  0  0  0  0
  140.9180   71.6370  227.2000 C   0  0  0  0  0  0  0  0  0  0  0  0
  140.4840   71.1240  225.9930 C   0  0  0  0  0  0  0  0  0  0  0  0
  140.6660   71.7850  224.8280 N   0  0  0  0  0  0  0  0  0  0  0  0
  144.6607   73.5805  221.7099 H   0  0  0  0  0  0  0  0  0  0  0  0
  144.0988   72.6977  220.2500 H   0  0  0  0  0  0  0  0  0  0  0  0
  145.7044   73.5031  220.2500 H   0  0  0  0  0  0  0  0  0  0  0  0
  143.9543   75.5303  220.9322 H   0  0  0  0  0  0  0  0  0  0  0  0
  144.6890   75.1719  219.2782 H   0  0  0  0  0  0  0  0  0  0  0  0
  142.7929   74.1042  218.5546 H   0  0  0  0  0  0  0  0  0  0  0  0
  142.0714   74.1552  220.2444 H   0  0  0  0  0  0  0  0  0  0  0  0
  141.5608   75.6718  218.2113 H   0  0  0  0  0  0  0  0  0  0  0  0
  143.7923   77.0514  219.4074 H   0  0  0  0  0  0  0  0  0  0  0  0
  142.9587   77.3441  217.8835 H   0  0  0  0  0  0  0  0  0  0  0  0
  142.4540   78.6073  220.5793 H   0  0  0  0  0  0  0  0  0  0  0  0
  142.3320   79.2620  217.9550 H   0  0  0  0  0  0  0  0  0  0  0  0
  140.0667   78.1805  220.5888 H   0  0  0  0  0  0  0  0  0  0  0  0
  140.0054   77.7339  218.9076 H   0  0  0  0  0  0  0  0  0  0  0  0
  139.3213   73.9571  220.4219 H   0  0  0  0  0  0  0  0  0  0  0  0
  141.1059   73.6621  220.5333 H   0  0  0  0  0  0  0  0  0  0  0  0
  139.6060   73.8570  223.1170 H   0  0  0  0  0  0  0  0  0  0  0  0
  139.2649   69.6589  222.6982 H   0  0  0  0  0  0  0  0  0  0  0  0
  138.8797   68.3675  224.7729 H   0  0  0  0  0  0  0  0  0  0  0  0
  139.1107   68.1889  227.0952 H   0  0  0  0  0  0  0  0  0  0  0  0
  139.8978   69.1256  229.2786 H   0  0  0  0  0  0  0  0  0  0  0  0
  141.0385   71.3051  229.2994 H   0  0  0  0  0  0  0  0  0  0  0  0
  141.4300   72.6093  227.2497 H   0  0  0  0  0  0  0  0  0  0  0  0
  1  2  1  0
  2  3  1  0
  3  4  1  0
  4  5  1  0
  5  6  1  0
  6  7  1  0
  6  8  1  0
  8  9  1  0
  9 10  1  0
 10 11  2  0
 10 12  1  0
 12 13  1  0
 13 14  1  0
 14 15  2  0
 14 16  1  0
 16 17  2  0
 17 18  1  0
 18 19  2  0
 19 20  1  0
 20 21  2  0
 21 22  1  0
 22 23  2  0
 23 24  1  0
 24 25  2  0
  9  4  1  0
 25 16  1  0
 24 19  1  0
  1 26  1  0
  1 27  1  0
  1 28  1  0
  2 29  1  0
  2 30  1  0
  3 31  1  0
  3 32  1  0
  4 33  1  6
  5 34  1  0
  5 35  1  0
  6 36  1  1
  7 37  1  0
  8 38  1  0
  8 39  1  0
 12 40  1  0
 12 41  1  0
 13 42  1  0
 17 43  1  0
 18 44  1  0
 20 45  1  0
 21 46  1  0
 22 47  1  0
 23 48  1  0
M  END
>  <smiles>  (36) 
CCC[C@@H]1C[C@@H](O)CN1C(=O)CNC(=O)c1ccc2ccccc2n1

>  <score_type>  (36) 
oracle

>  <origin>  (36) 
autodockgpu

>  <m_score__min__energy>  (36) 
-7.9699999999999998

>  <m_primary>  (36) 
energy

>  <rmsd>  (36) 
2.5377529563446712

>  <m_score__min__rmsd>  (36) 
2.5377529563446712

>  <meeko>  (36) 
{"free_energy": -6.84, "intermolecular_energy": -8.93, "internal_energy": -1.52, "cluster_size": 44, "cluster_id": 1, "rank_in_cluster": 44}

>  <energy>  (36) 
-7.23

>  <cluster_rmsd>  (36) 
1.61

>  <cluster>  (36) 
1

$$$$

     RDKit          3D

 48 50  0  0  0  0  0  0  0  0999 V2000
  145.9660   73.7660  220.9670 C   0  0  0  0  0  0  0  0  0  0  0  0
  144.7320   73.5980  220.1360 C   0  0  0  0  0  0  0  0  0  0  0  0
  143.5320   74.3370  220.6040 C   0  0  0  0  0  0  0  0  0  0  0  0
  142.9080   75.2150  219.5930 C   0  0  2  0  0  0  0  0  0  0  0  0
  143.6650   76.3720  219.0870 C   0  0  0  0  0  0  0  0  0  0  0  0
  142.6200   77.4890  218.9520 C   0  0  1  0  0  0  0  0  0  0  0  0
  142.7640   78.1900  217.7580 O   0  0  0  0  0  0  0  0  0  0  0  0
  141.3240   76.7380  218.9810 C   0  0  0  0  0  0  0  0  0  0  0  0
  141.5950   75.7210  220.0240 N   0  0  0  0  0  0  0  0  0  0  0  0
  140.7860   75.3730  221.1150 C   0  0  0  0  0  0  0  0  0  0  0  0
  140.6590   76.0100  222.1840 O   0  0  0  0  0  0  0  0  0  0  0  0
  139.9880   74.1090  221.0020 C   0  0  0  0  0  0  0  0  0  0  0  0
  139.9130   73.4160  222.2600 N   0  0  0  0  0  0  0  0  0  0  0  0
  140.2710   72.0360  222.3290 C   0  0  0  0  0  0  0  0  0  0  0  0
  140.6520   71.4160  221.3020 O   0  0  0  0  0  0  0  0  0  0  0  0
  140.1920   71.3420  223.6150 C   0  0  0  0  0  0  0  0  0  0  0  0
  139.6130   70.0910  223.6840 C   0  0  0  0  0  0  0  0  0  0  0  0
  139.4980   69.3700  224.8540 C   0  0  0  0  0  0  0  0  0  0  0  0
  139.9960   69.9530  226.0030 C   0  0  0  0  0  0  0  0  0  0  0  0
  139.8850   69.2410  227.1690 C   0  0  0  0  0  0  0  0  0  0  0  0
  140.3730   69.7950  228.3350 C   0  0  0  0  0  0  0  0  0  0  0  0
  140.9510   71.0430  228.2740 C   0  0  0  0  0  0  0  0  0  0  0  0
  141.0710   71.7720  227.1130 C   0  0  0  0  0  0  0  0  0  0  0  0
  140.5840   71.2190  225.9440 C   0  0  0  0  0  0  0  0  0  0  0  0
  140.6620   71.8680  224.7610 N   0  0  0  0  0  0  0  0  0  0  0  0
  145.6979   73.7295  222.0332 H   0  0  0  0  0  0  0  0  0  0  0  0
  146.6746   72.9560  220.7392 H   0  0  0  0  0  0  0  0  0  0  0  0
  146.4322   74.7359  220.7392 H   0  0  0  0  0  0  0  0  0  0  0  0
  144.9626   73.9401  219.1163 H   0  0  0  0  0  0  0  0  0  0  0  0
  144.4705   72.5316  220.2018 H   0  0  0  0  0  0  0  0  0  0  0  0
  142.7815   73.6004  220.9266 H   0  0  0  0  0  0  0  0  0  0  0  0
  143.8731   74.9959  221.4161 H   0  0  0  0  0  0  0  0  0  0  0  0
  142.8493   74.5061  218.7540 H   0  0  0  0  0  0  0  0  0  0  0  0
  144.4532   76.6613  219.7977 H   0  0  0  0  0  0  0  0  0  0  0  0
  144.1702   76.1558  218.1341 H   0  0  0  0  0  0  0  0  0  0  0  0
  142.7052   78.2511  219.7407 H   0  0  0  0  0  0  0  0  0  0  0  0
  143.6490   78.6090  217.6920 H   0  0  0  0  0  0  0  0  0  0  0  0
  140.4868   77.3922  219.2657 H   0  0  0  0  0  0  0  0  0  0  0  0
  141.0285   76.3159  218.0092 H   0  0  0  0  0  0  0  0  0  0  0  0
  138.9692   74.3584  220.6706 H   0  0  0  0  0  0  0  0  0  0  0  0
  140.4873   73.4507  220.2758 H   0  0  0  0  0  0  0  0  0  0  0  0
  139.5950   73.9220  223.1370 H   0  0  0  0  0  0  0  0  0  0  0  0
  139.2228   69.6456  222.7570 H   0  0  0  0  0  0  0  0  0  0  0  0
  139.0303   68.3745  224.8715 H   0  0  0  0  0  0  0  0  0  0  0  0
  139.4155   68.2462  227.1752 H   0  0  0  0  0  0  0  0  0  0  0  0
  140.3019   69.2528  229.2895 H   0  0  0  0  0  0  0  0  0  0  0  0
  141.3385   71.4819  229.2052 H   0  0  0  0  0  0  0  0  0  0  0  0
  141.5411   72.7665  227.1155 H   0  0  0  0  0  0  0  0  0  0  0  0
  1  2  1  0
  2  3  1  0
  3  4  1  0
  4  5  1  0
  5  6  1  0
  6  7  1  0
  6  8  1  0
  8  9  1  0
  9 10  1  0
 10 11  2  0
 10 12  1  0
 12 13  1  0
 13 14  1  0
 14 15  2  0
 14 16  1  0
 16 17  2  0
 17 18  1  0
 18 19  2  0
 19 20  1  0
 20 21  2  0
 21 22  1  0
 22 23  2  0
 23 24  1  0
 24 25  2  0
  9  4  1  0
 25 16  1  0
 24 19  1  0
  1 26  1  0
  1 27  1  0
  1 28  1  0
  2 29  1  0
  2 30  1  0
  3 31  1  0
  3 32  1  0
  4 33  1  6
  5 34  1  0
  5 35  1  0
  6 36  1  1
  7 37  1  0
  8 38  1  0
  8 39  1  0
 12 40  1  0
 12 41  1  0
 13 42  1  0
 17 43  1  0
 18 44  1  0
 20 45  1  0
 21 46  1  0
 22 47  1  0
 23 48  1  0
M  END
>  <smiles>  (37) 
CCC[C@@H]1C[C@@H](O)CN1C(=O)CNC(=O)c1ccc2ccccc2n1

>  <score_type>  (37) 
oracle

>  <origin>  (37) 
autodockgpu

>  <m_score__min__energy>  (37) 
-7.9699999999999998

>  <m_primary>  (37) 
energy

>  <rmsd>  (37) 
2.7653594230561875

>  <m_score__min__rmsd>  (37) 
2.7653594230561875

>  <meeko>  (37) 
{"free_energy": -7.52, "intermolecular_energy": -9.61, "internal_energy": -1.41, "cluster_size": 44, "cluster_id": 1, "rank_in_cluster": 21}

>  <energy>  (37) 
-7.22

>  <cluster_rmsd>  (37) 
0.92

>  <cluster>  (37) 
1

$$$$

     RDKit          3D

 48 50  0  0  0  0  0  0  0  0999 V2000
  141.7520   79.3780  223.8420 C   0  0  0  0  0  0  0  0  0  0  0  0
  140.3670   79.2930  223.2810 C   0  0  0  0  0  0  0  0  0  0  0  0
  139.9940   77.9890  222.6760 C   0  0  0  0  0  0  0  0  0  0  0  0
  141.0610   77.3400  221.8890 C   0  0  2  0  0  0  0  0  0  0  0  0
  141.6480   78.0640  220.7490 C   0  0  0  0  0  0  0  0  0  0  0  0
  141.8570   76.9870  219.6730 C   0  0  1  0  0  0  0  0  0  0  0  0
  143.0980   77.1110  219.0530 O   0  0  0  0  0  0  0  0  0  0  0  0
  141.7730   75.7130  220.4570 C   0  0  0  0  0  0  0  0  0  0  0  0
  140.6630   76.0140  221.3910 N   0  0  0  0  0  0  0  0  0  0  0  0
  139.5480   75.2150  221.6850 C   0  0  0  0  0  0  0  0  0  0  0  0
  138.4400   75.6080  222.1140 O   0  0  0  0  0  0  0  0  0  0  0  0
  139.6840   73.7380  221.4700 C   0  0  0  0  0  0  0  0  0  0  0  0
  139.6420   73.0160  222.7140 N   0  0  0  0  0  0  0  0  0  0  0  0
  140.6260   72.0190  222.9860 C   0  0  0  0  0  0  0  0  0  0  0  0
  141.5330   71.7630  222.1520 O   0  0  0  0  0  0  0  0  0  0  0  0
  140.5730   71.2920  224.2550 C   0  0  0  0  0  0  0  0  0  0  0  0
  141.0340   71.8920  225.4080 C   0  0  0  0  0  0  0  0  0  0  0  0
  141.0190   71.2770  226.6430 C   0  0  0  0  0  0  0  0  0  0  0  0
  140.5120   69.9940  226.7000 C   0  0  0  0  0  0  0  0  0  0  0  0
  140.4950   69.3770  227.9240 C   0  0  0  0  0  0  0  0  0  0  0  0
  139.9950   68.0940  228.0150 C   0  0  0  0  0  0  0  0  0  0  0  0
  139.5330   67.4890  226.8680 C   0  0  0  0  0  0  0  0  0  0  0  0
  139.5420   68.0920  225.6310 C   0  0  0  0  0  0  0  0  0  0  0  0
  140.0430   69.3770  225.5370 C   0  0  0  0  0  0  0  0  0  0  0  0
  140.0880   70.0410  224.3610 N   0  0  0  0  0  0  0  0  0  0  0  0
  141.7033   79.3750  224.9409 H   0  0  0  0  0  0  0  0  0  0  0  0
  142.3403   78.5143  223.4987 H   0  0  0  0  0  0  0  0  0  0  0  0
  142.2303   80.3072  223.4987 H   0  0  0  0  0  0  0  0  0  0  0  0
  139.6590   79.5015  224.0967 H   0  0  0  0  0  0  0  0  0  0  0  0
  140.3316   80.0244  222.4602 H   0  0  0  0  0  0  0  0  0  0  0  0
  139.7051   77.3058  223.4883 H   0  0  0  0  0  0  0  0  0  0  0  0
  139.1759   78.1991  221.9713 H   0  0  0  0  0  0  0  0  0  0  0  0
  141.8483   77.3002  222.6562 H   0  0  0  0  0  0  0  0  0  0  0  0
  140.9613   78.8444  220.3893 H   0  0  0  0  0  0  0  0  0  0  0  0
  142.5850   78.5744  221.0164 H   0  0  0  0  0  0  0  0  0  0  0  0
  141.1233   77.0504  218.8559 H   0  0  0  0  0  0  0  0  0  0  0  0
  143.7610   77.5150  219.6540 H   0  0  0  0  0  0  0  0  0  0  0  0
  141.5321   74.8574  219.8089 H   0  0  0  0  0  0  0  0  0  0  0  0
  142.7126   75.4290  220.9535 H   0  0  0  0  0  0  0  0  0  0  0  0
  138.8594   73.3931  220.8289 H   0  0  0  0  0  0  0  0  0  0  0  0
  140.6573   73.5476  220.9941 H   0  0  0  0  0  0  0  0  0  0  0  0
  138.8850   73.2190  223.4290 H   0  0  0  0  0  0  0  0  0  0  0  0
  141.4345   72.9142  225.3395 H   0  0  0  0  0  0  0  0  0  0  0  0
  141.3945   71.7865  227.5427 H   0  0  0  0  0  0  0  0  0  0  0  0
  140.8731   69.8953  228.8176 H   0  0  0  0  0  0  0  0  0  0  0  0
  139.9663   67.5676  228.9805 H   0  0  0  0  0  0  0  0  0  0  0  0
  139.1344   66.4666  226.9445 H   0  0  0  0  0  0  0  0  0  0  0  0
  139.1615   67.5666  224.7426 H   0  0  0  0  0  0  0  0  0  0  0  0
  1  2  1  0
  2  3  1  0
  3  4  1  0
  4  5  1  0
  5  6  1  0
  6  7  1  0
  6  8  1  0
  8  9  1  0
  9 10  1  0
 10 11  2  0
 10 12  1  0
 12 13  1  0
 13 14  1  0
 14 15  2  0
 14 16  1  0
 16 17  2  0
 17 18  1  0
 18 19  2  0
 19 20  1  0
 20 21  2  0
 21 22  1  0
 22 23  2  0
 23 24  1  0
 24 25  2  0
  9  4  1  0
 25 16  1  0
 24 19  1  0
  1 26  1  0
  1 27  1  0
  1 28  1  0
  2 29  1  0
  2 30  1  0
  3 31  1  0
  3 32  1  0
  4 33  1  1
  5 34  1  0
  5 35  1  0
  6 36  1  6
  7 37  1  0
  8 38  1  0
  8 39  1  0
 12 40  1  0
 12 41  1  0
 13 42  1  0
 17 43  1  0
 18 44  1  0
 20 45  1  0
 21 46  1  0
 22 47  1  0
 23 48  1  0
M  END
>  <smiles>  (38) 
CCC[C@@H]1C[C@@H](O)CN1C(=O)CNC(=O)c1ccc2ccccc2n1

>  <score_type>  (38) 
oracle

>  <origin>  (38) 
autodockgpu

>  <m_score__min__energy>  (38) 
-7.9699999999999998

>  <m_primary>  (38) 
energy

>  <rmsd>  (38) 
3.8154973163308066

>  <m_score__min__rmsd>  (38) 
3.8154973163308066

>  <meeko>  (38) 
{"free_energy": -7.57, "intermolecular_energy": -9.66, "internal_energy": -1.06, "cluster_size": 44, "cluster_id": 1, "rank_in_cluster": 15}

>  <energy>  (38) 
-7.18

>  <cluster_rmsd>  (38) 
0.92

>  <cluster>  (38) 
1

$$$$

     RDKit          3D

 48 50  0  0  0  0  0  0  0  0999 V2000
  145.0120   72.3460  219.7840 C   0  0  0  0  0  0  0  0  0  0  0  0
  144.3760   73.1880  220.8460 C   0  0  0  0  0  0  0  0  0  0  0  0
  142.9180   73.4280  220.6930 C   0  0  0  0  0  0  0  0  0  0  0  0
  142.5630   74.5530  219.8050 C   0  0  2  0  0  0  0  0  0  0  0  0
  143.5860   75.5640  219.4890 C   0  0  0  0  0  0  0  0  0  0  0  0
  142.8260   76.8990  219.4930 C   0  0  1  0  0  0  0  0  0  0  0  0
  143.1890   77.7030  218.4150 O   0  0  0  0  0  0  0  0  0  0  0  0
  141.3950   76.4680  219.3840 C   0  0  0  0  0  0  0  0  0  0  0  0
  141.3750   75.2840  220.2750 N   0  0  0  0  0  0  0  0  0  0  0  0
  140.4500   74.9860  221.2860 C   0  0  0  0  0  0  0  0  0  0  0  0
  140.0590   75.7560  222.1910 O   0  0  0  0  0  0  0  0  0  0  0  0
  139.8630   73.6070  221.2950 C   0  0  0  0  0  0  0  0  0  0  0  0
  139.8810   73.0330  222.6140 N   0  0  0  0  0  0  0  0  0  0  0  0
  140.3190   71.6870  222.7930 C   0  0  0  0  0  0  0  0  0  0  0  0
  140.6920   70.9940  221.8110 O   0  0  0  0  0  0  0  0  0  0  0  0
  140.3330   71.1140  224.1400 C   0  0  0  0  0  0  0  0  0  0  0  0
  140.7280   71.8910  225.2100 C   0  0  0  0  0  0  0  0  0  0  0  0
  140.7710   71.4290  226.5090 C   0  0  0  0  0  0  0  0  0  0  0  0
  140.3920   70.1180  226.7220 C   0  0  0  0  0  0  0  0  0  0  0  0
  140.4320   69.6530  228.0110 C   0  0  0  0  0  0  0  0  0  0  0  0
  140.0610   68.3470  228.2590 C   0  0  0  0  0  0  0  0  0  0  0  0
  139.6650   67.5670  227.1960 C   0  0  0  0  0  0  0  0  0  0  0  0
  139.6200   68.0160  225.8960 C   0  0  0  0  0  0  0  0  0  0  0  0
  139.9910   69.3230  225.6450 C   0  0  0  0  0  0  0  0  0  0  0  0
  139.9750   69.8440  224.3980 N   0  0  0  0  0  0  0  0  0  0  0  0
  145.6112   71.5527  220.2549 H   0  0  0  0  0  0  0  0  0  0  0  0
  144.2294   71.8920  219.1584 H   0  0  0  0  0  0  0  0  0  0  0  0
  145.6627   72.9746  219.1584 H   0  0  0  0  0  0  0  0  0  0  0  0
  144.5364   72.6894  221.8133 H   0  0  0  0  0  0  0  0  0  0  0  0
  144.8516   74.1768  220.7684 H   0  0  0  0  0  0  0  0  0  0  0  0
  142.4621   72.5137  220.2852 H   0  0  0  0  0  0  0  0  0  0  0  0
  142.5425   73.6933  221.6923 H   0  0  0  0  0  0  0  0  0  0  0  0
  142.3938   73.9961  218.8716 H   0  0  0  0  0  0  0  0  0  0  0  0
  144.3785   75.5661  220.2518 H   0  0  0  0  0  0  0  0  0  0  0  0
  144.0816   75.3691  218.5265 H   0  0  0  0  0  0  0  0  0  0  0  0
  143.0357   77.5076  220.3850 H   0  0  0  0  0  0  0  0  0  0  0  0
  143.6920   78.4920  218.7090 H   0  0  0  0  0  0  0  0  0  0  0  0
  140.7109   77.2517  219.7415 H   0  0  0  0  0  0  0  0  0  0  0  0
  141.0659   76.2609  218.3550 H   0  0  0  0  0  0  0  0  0  0  0  0
  138.8223   73.6596  220.9426 H   0  0  0  0  0  0  0  0  0  0  0  0
  140.4695   72.9703  220.6341 H   0  0  0  0  0  0  0  0  0  0  0  0
  139.5700   73.6030  223.4530 H   0  0  0  0  0  0  0  0  0  0  0  0
  141.0239   72.9327  225.0169 H   0  0  0  0  0  0  0  0  0  0  0  0
  141.0928   72.0759  227.3384 H   0  0  0  0  0  0  0  0  0  0  0  0
  140.7541   70.3091  228.8330 H   0  0  0  0  0  0  0  0  0  0  0  0
  140.0812   67.9395  229.2805 H   0  0  0  0  0  0  0  0  0  0  0  0
  139.3680   66.5271  227.3970 H   0  0  0  0  0  0  0  0  0  0  0  0
  139.2977   67.3530  225.0796 H   0  0  0  0  0  0  0  0  0  0  0  0
  1  2  1  0
  2  3  1  0
  3  4  1  0
  4  5  1  0
  5  6  1  0
  6  7  1  0
  6  8  1  0
  8  9  1  0
  9 10  1  0
 10 11  2  0
 10 12  1  0
 12 13  1  0
 13 14  1  0
 14 15  2  0
 14 16  1  0
 16 17  2  0
 17 18  1  0
 18 19  2  0
 19 20  1  0
 20 21  2  0
 21 22  1  0
 22 23  2  0
 23 24  1  0
 24 25  2  0
  9  4  1  0
 25 16  1  0
 24 19  1  0
  1 26  1  0
  1 27  1  0
  1 28  1  0
  2 29  1  0
  2 30  1  0
  3 31  1  0
  3 32  1  0
  4 33  1  6
  5 34  1  0
  5 35  1  0
  6 36  1  1
  7 37  1  0
  8 38  1  0
  8 39  1  0
 12 40  1  0
 12 41  1  0
 13 42  1  0
 17 43  1  0
 18 44  1  0
 20 45  1  0
 21 46  1  0
 22 47  1  0
 23 48  1  0
M  END
>  <smiles>  (39) 
CCC[C@@H]1C[C@@H](O)CN1C(=O)CNC(=O)c1ccc2ccccc2n1

>  <score_type>  (39) 
oracle

>  <origin>  (39) 
autodockgpu

>  <m_score__min__energy>  (39) 
-7.9699999999999998

>  <m_primary>  (39) 
energy

>  <rmsd>  (39) 
3.6556252895827615

>  <m_score__min__rmsd>  (39) 
3.6556252895827615

>  <meeko>  (39) 
{"free_energy": -7.18, "intermolecular_energy": -9.27, "internal_energy": -1.31, "cluster_size": 44, "cluster_id": 1, "rank_in_cluster": 39}

>  <energy>  (39) 
-7.18

>  <cluster_rmsd>  (39) 
1.83

>  <cluster>  (39) 
1

$$$$

     RDKit          3D

 48 50  0  0  0  0  0  0  0  0999 V2000
  145.5100   73.3510  221.1600 C   0  0  0  0  0  0  0  0  0  0  0  0
  144.7620   74.4470  220.4660 C   0  0  0  0  0  0  0  0  0  0  0  0
  143.3130   74.2040  220.2510 C   0  0  0  0  0  0  0  0  0  0  0  0
  142.6240   75.2320  219.4450 C   0  0  2  0  0  0  0  0  0  0  0  0
  143.3740   76.4230  219.0140 C   0  0  0  0  0  0  0  0  0  0  0  0
  142.3740   77.5810  219.1510 C   0  0  1  0  0  0  0  0  0  0  0  0
  142.4180   78.4340  218.0510 O   0  0  0  0  0  0  0  0  0  0  0  0
  141.0550   76.8740  219.2300 C   0  0  0  0  0  0  0  0  0  0  0  0
  141.3920   75.7150  220.0890 N   0  0  0  0  0  0  0  0  0  0  0  0
  140.6930   75.2460  221.2110 C   0  0  0  0  0  0  0  0  0  0  0  0
  140.6190   75.7990  222.3300 O   0  0  0  0  0  0  0  0  0  0  0  0
  139.9550   73.9490  221.0670 C   0  0  0  0  0  0  0  0  0  0  0  0
  139.8720   73.2450  222.3180 N   0  0  0  0  0  0  0  0  0  0  0  0
  140.2300   71.8660  222.3780 C   0  0  0  0  0  0  0  0  0  0  0  0
  140.6200   71.2550  221.3500 O   0  0  0  0  0  0  0  0  0  0  0  0
  140.1420   71.1610  223.6580 C   0  0  0  0  0  0  0  0  0  0  0  0
  139.5600   69.9110  223.7130 C   0  0  0  0  0  0  0  0  0  0  0  0
  139.4360   69.1810  224.8760 C   0  0  0  0  0  0  0  0  0  0  0  0
  139.9300   69.7520  226.0320 C   0  0  0  0  0  0  0  0  0  0  0  0
  139.8100   69.0310  227.1920 C   0  0  0  0  0  0  0  0  0  0  0  0
  140.2930   69.5740  228.3650 C   0  0  0  0  0  0  0  0  0  0  0  0
  140.8750   70.8200  228.3180 C   0  0  0  0  0  0  0  0  0  0  0  0
  141.0030   71.5580  227.1640 C   0  0  0  0  0  0  0  0  0  0  0  0
  140.5210   71.0170  225.9880 C   0  0  0  0  0  0  0  0  0  0  0  0
  140.6070   71.6760  224.8110 N   0  0  0  0  0  0  0  0  0  0  0  0
  145.4222   73.4796  222.2489 H   0  0  0  0  0  0  0  0  0  0  0  0
  145.0868   72.3778  220.8704 H   0  0  0  0  0  0  0  0  0  0  0  0
  146.5705   73.3904  220.8704 H   0  0  0  0  0  0  0  0  0  0  0  0
  144.8652   75.3609  221.0695 H   0  0  0  0  0  0  0  0  0  0  0  0
  145.2049   74.5220  219.4619 H   0  0  0  0  0  0  0  0  0  0  0  0
  143.2008   73.2366  219.7396 H   0  0  0  0  0  0  0  0  0  0  0  0
  142.8449   74.2267  221.2462 H   0  0  0  0  0  0  0  0  0  0  0  0
  142.4401   74.6480  218.5311 H   0  0  0  0  0  0  0  0  0  0  0  0
  144.2485   76.5864  219.6610 H   0  0  0  0  0  0  0  0  0  0  0  0
  143.7603   76.3244  217.9888 H   0  0  0  0  0  0  0  0  0  0  0  0
  142.5814   78.2247  220.0185 H   0  0  0  0  0  0  0  0  0  0  0  0
  141.5300   78.5460  217.6480 H   0  0  0  0  0  0  0  0  0  0  0  0
  140.2861   77.5086  219.6949 H   0  0  0  0  0  0  0  0  0  0  0  0
  140.6340   76.5996  218.2515 H   0  0  0  0  0  0  0  0  0  0  0  0
  138.9368   74.1559  220.7057 H   0  0  0  0  0  0  0  0  0  0  0  0
  140.5048   73.3180  220.3532 H   0  0  0  0  0  0  0  0  0  0  0  0
  139.5460   73.7450  223.1960 H   0  0  0  0  0  0  0  0  0  0  0  0
  139.1747   69.4741  222.7799 H   0  0  0  0  0  0  0  0  0  0  0  0
  138.9642   68.1873  224.8826 H   0  0  0  0  0  0  0  0  0  0  0  0
  139.3373   68.0378  227.1877 H   0  0  0  0  0  0  0  0  0  0  0  0
  140.2147   69.0242  229.3145 H   0  0  0  0  0  0  0  0  0  0  0  0
  141.2591   71.2497  229.2549 H   0  0  0  0  0  0  0  0  0  0  0  0
  141.4759   72.5510  227.1775 H   0  0  0  0  0  0  0  0  0  0  0  0
  1  2  1  0
  2  3  1  0
  3  4  1  0
  4  5  1  0
  5  6  1  0
  6  7  1  0
  6  8  1  0
  8  9  1  0
  9 10  1  0
 10 11  2  0
 10 12  1  0
 12 13  1  0
 13 14  1  0
 14 15  2  0
 14 16  1  0
 16 17  2  0
 17 18  1  0
 18 19  2  0
 19 20  1  0
 20 21  2  0
 21 22  1  0
 22 23  2  0
 23 24  1  0
 24 25  2  0
  9  4  1  0
 25 16  1  0
 24 19  1  0
  1 26  1  0
  1 27  1  0
  1 28  1  0
  2 29  1  0
  2 30  1  0
  3 31  1  0
  3 32  1  0
  4 33  1  6
  5 34  1  0
  5 35  1  0
  6 36  1  1
  7 37  1  0
  8 38  1  0
  8 39  1  0
 12 40  1  0
 12 41  1  0
 13 42  1  0
 17 43  1  0
 18 44  1  0
 20 45  1  0
 21 46  1  0
 22 47  1  0
 23 48  1  0
M  END
>  <smiles>  (40) 
CCC[C@@H]1C[C@@H](O)CN1C(=O)CNC(=O)c1ccc2ccccc2n1

>  <score_type>  (40) 
oracle

>  <origin>  (40) 
autodockgpu

>  <m_score__min__energy>  (40) 
-7.9699999999999998

>  <m_primary>  (40) 
energy

>  <rmsd>  (40) 
2.7393269078746796

>  <m_score__min__rmsd>  (40) 
2.7393269078746796

>  <meeko>  (40) 
{"free_energy": -7.17, "intermolecular_energy": -9.25, "internal_energy": -1.47, "cluster_size": 44, "cluster_id": 1, "rank_in_cluster": 40}

>  <energy>  (40) 
-7.17

>  <cluster_rmsd>  (40) 
1.69

>  <cluster>  (40) 
1

$$$$

     RDKit          3D

 48 50  0  0  0  0  0  0  0  0999 V2000
  142.1110   79.9310  223.8090 C   0  0  0  0  0  0  0  0  0  0  0  0
  141.7110   79.9600  222.3670 C   0  0  0  0  0  0  0  0  0  0  0  0
  141.0540   78.7310  221.8530 C   0  0  0  0  0  0  0  0  0  0  0  0
  141.8420   77.9730  220.8610 C   0  0  2  0  0  0  0  0  0  0  0  0
  141.9220   78.4750  219.4790 C   0  0  0  0  0  0  0  0  0  0  0  0
  141.8520   77.2140  218.6050 C   0  0  1  0  0  0  0  0  0  0  0  0
  142.7830   77.2510  217.5700 O   0  0  0  0  0  0  0  0  0  0  0  0
  142.1710   76.1180  219.5750 C   0  0  0  0  0  0  0  0  0  0  0  0
  141.4290   76.5630  220.7770 N   0  0  0  0  0  0  0  0  0  0  0  0
  140.5700   75.8040  221.5860 C   0  0  0  0  0  0  0  0  0  0  0  0
  139.9650   76.1980  222.6070 O   0  0  0  0  0  0  0  0  0  0  0  0
  140.3460   74.3740  221.1980 C   0  0  0  0  0  0  0  0  0  0  0  0
  140.0350   73.5580  222.3410 N   0  0  0  0  0  0  0  0  0  0  0  0
  140.6920   72.3040  222.5140 C   0  0  0  0  0  0  0  0  0  0  0  0
  141.5430   71.9000  221.6790 O   0  0  0  0  0  0  0  0  0  0  0  0
  140.3670   71.4830  223.6820 C   0  0  0  0  0  0  0  0  0  0  0  0
  139.6030   70.3440  223.5270 C   0  0  0  0  0  0  0  0  0  0  0  0
  139.2520   69.5170  224.5730 C   0  0  0  0  0  0  0  0  0  0  0  0
  139.7010   69.8690  225.8310 C   0  0  0  0  0  0  0  0  0  0  0  0
  139.3550   69.0510  226.8740 C   0  0  0  0  0  0  0  0  0  0  0  0
  139.7870   69.3740  228.1450 C   0  0  0  0  0  0  0  0  0  0  0  0
  140.5500   70.5090  228.3060 C   0  0  0  0  0  0  0  0  0  0  0  0
  140.9060   71.3420  227.2710 C   0  0  0  0  0  0  0  0  0  0  0  0
  140.4750   71.0200  225.9980 C   0  0  0  0  0  0  0  0  0  0  0  0
  140.7800   71.7840  224.9260 N   0  0  0  0  0  0  0  0  0  0  0  0
  141.2124   79.9961  224.4401 H   0  0  0  0  0  0  0  0  0  0  0  0
  142.6423   78.9920  224.0233 H   0  0  0  0  0  0  0  0  0  0  0  0
  142.7722   80.7836  224.0233 H   0  0  0  0  0  0  0  0  0  0  0  0
  141.0136   80.7991  222.2271 H   0  0  0  0  0  0  0  0  0  0  0  0
  142.6481   80.0573  221.7992 H   0  0  0  0  0  0  0  0  0  0  0  0
  140.8524   78.0684  222.7076 H   0  0  0  0  0  0  0  0  0  0  0  0
  140.1424   79.0626  221.3344 H   0  0  0  0  0  0  0  0  0  0  0  0
  142.8462   78.1101  221.2886 H   0  0  0  0  0  0  0  0  0  0  0  0
  141.0787   79.1466  219.2602 H   0  0  0  0  0  0  0  0  0  0  0  0
  142.8375   79.0576  219.2988 H   0  0  0  0  0  0  0  0  0  0  0  0
  140.8784   77.0922  218.1078 H   0  0  0  0  0  0  0  0  0  0  0  0
  142.4370   77.7410  216.7930 H   0  0  0  0  0  0  0  0  0  0  0  0
  141.8067   75.1444  219.2154 H   0  0  0  0  0  0  0  0  0  0  0  0
  143.2475   75.9666  219.7428 H   0  0  0  0  0  0  0  0  0  0  0  0
  139.5094   74.3242  220.4855 H   0  0  0  0  0  0  0  0  0  0  0  0
  141.2719   73.9915  220.7437 H   0  0  0  0  0  0  0  0  0  0  0  0
  139.3200   73.8830  223.0560 H   0  0  0  0  0  0  0  0  0  0  0  0
  139.2561   70.0824  222.5164 H   0  0  0  0  0  0  0  0  0  0  0  0
  138.6412   68.6163  224.4127 H   0  0  0  0  0  0  0  0  0  0  0  0
  138.7438   68.1528  226.7019 H   0  0  0  0  0  0  0  0  0  0  0  0
  139.5284   68.7411  229.0067 H   0  0  0  0  0  0  0  0  0  0  0  0
  140.8941   70.7638  229.3193 H   0  0  0  0  0  0  0  0  0  0  0  0
  141.5165   72.2391  227.4514 H   0  0  0  0  0  0  0  0  0  0  0  0
  1  2  1  0
  2  3  1  0
  3  4  1  0
  4  5  1  0
  5  6  1  0
  6  7  1  0
  6  8  1  0
  8  9  1  0
  9 10  1  0
 10 11  2  0
 10 12  1  0
 12 13  1  0
 13 14  1  0
 14 15  2  0
 14 16  1  0
 16 17  2  0
 17 18  1  0
 18 19  2  0
 19 20  1  0
 20 21  2  0
 21 22  1  0
 22 23  2  0
 23 24  1  0
 24 25  2  0
  9  4  1  0
 25 16  1  0
 24 19  1  0
  1 26  1  0
  1 27  1  0
  1 28  1  0
  2 29  1  0
  2 30  1  0
  3 31  1  0
  3 32  1  0
  4 33  1  1
  5 34  1  0
  5 35  1  0
  6 36  1  6
  7 37  1  0
  8 38  1  0
  8 39  1  0
 12 40  1  0
 12 41  1  0
 13 42  1  0
 17 43  1  0
 18 44  1  0
 20 45  1  0
 21 46  1  0
 22 47  1  0
 23 48  1  0
M  END
>  <smiles>  (41) 
CCC[C@@H]1C[C@@H](O)CN1C(=O)CNC(=O)c1ccc2ccccc2n1

>  <score_type>  (41) 
oracle

>  <origin>  (41) 
autodockgpu

>  <m_score__min__energy>  (41) 
-7.9699999999999998

>  <m_primary>  (41) 
energy

>  <rmsd>  (41) 
3.024079707477366

>  <m_score__min__rmsd>  (41) 
3.024079707477366

>  <meeko>  (41) 
{"free_energy": -7.18, "intermolecular_energy": -9.27, "internal_energy": -1.21, "cluster_size": 44, "cluster_id": 1, "rank_in_cluster": 38}

>  <energy>  (41) 
-7.17

>  <cluster_rmsd>  (41) 
0.84

>  <cluster>  (41) 
1

$$$$

     RDKit          3D

 48 50  0  0  0  0  0  0  0  0999 V2000
  145.8340   73.3860  221.1600 C   0  0  0  0  0  0  0  0  0  0  0  0
  144.8860   73.7560  220.0620 C   0  0  0  0  0  0  0  0  0  0  0  0
  143.5810   74.3160  220.4960 C   0  0  0  0  0  0  0  0  0  0  0  0
  142.9340   75.2160  219.5200 C   0  0  2  0  0  0  0  0  0  0  0  0
  143.6770   76.3900  219.0320 C   0  0  0  0  0  0  0  0  0  0  0  0
  142.6240   77.5050  218.9460 C   0  0  1  0  0  0  0  0  0  0  0  0
  142.7430   78.2380  217.7670 O   0  0  0  0  0  0  0  0  0  0  0  0
  141.3320   76.7470  218.9780 C   0  0  0  0  0  0  0  0  0  0  0  0
  141.6280   75.7040  219.9880 N   0  0  0  0  0  0  0  0  0  0  0  0
  140.8400   75.3230  221.0850 C   0  0  0  0  0  0  0  0  0  0  0  0
  140.7090   75.9450  222.1620 O   0  0  0  0  0  0  0  0  0  0  0  0
  140.0730   74.0410  220.9670 C   0  0  0  0  0  0  0  0  0  0  0  0
  139.9720   73.3650  222.2320 N   0  0  0  0  0  0  0  0  0  0  0  0
  140.3230   71.9860  222.3270 C   0  0  0  0  0  0  0  0  0  0  0  0
  140.7200   71.3500  221.3160 O   0  0  0  0  0  0  0  0  0  0  0  0
  140.2160   71.3090  223.6210 C   0  0  0  0  0  0  0  0  0  0  0  0
  139.6060   70.0750  223.7000 C   0  0  0  0  0  0  0  0  0  0  0  0
  139.4640   69.3710  224.8780 C   0  0  0  0  0  0  0  0  0  0  0  0
  139.9690   69.9560  226.0230 C   0  0  0  0  0  0  0  0  0  0  0  0
  139.8310   69.2620  227.1970 C   0  0  0  0  0  0  0  0  0  0  0  0
  140.3230   69.8180  228.3600 C   0  0  0  0  0  0  0  0  0  0  0  0
  140.9330   71.0500  228.2880 C   0  0  0  0  0  0  0  0  0  0  0  0
  141.0800   71.7610  227.1200 C   0  0  0  0  0  0  0  0  0  0  0  0
  140.5880   71.2060  225.9540 C   0  0  0  0  0  0  0  0  0  0  0  0
  140.6910   71.8380  224.7640 N   0  0  0  0  0  0  0  0  0  0  0  0
  145.3576   73.5719  222.1339 H   0  0  0  0  0  0  0  0  0  0  0  0
  146.0939   72.3204  221.0764 H   0  0  0  0  0  0  0  0  0  0  0  0
  146.7470   73.9938  221.0764 H   0  0  0  0  0  0  0  0  0  0  0  0
  145.3808   74.5060  219.4274 H   0  0  0  0  0  0  0  0  0  0  0  0
  144.6495   72.8158  219.5422 H   0  0  0  0  0  0  0  0  0  0  0  0
  142.8974   73.4768  220.6920 H   0  0  0  0  0  0  0  0  0  0  0  0
  143.7888   74.9263  221.3873 H   0  0  0  0  0  0  0  0  0  0  0  0
  142.8618   74.5291  218.6639 H   0  0  0  0  0  0  0  0  0  0  0  0
  144.4765   76.6641  219.7361 H   0  0  0  0  0  0  0  0  0  0  0  0
  144.1664   76.2022  218.0649 H   0  0  0  0  0  0  0  0  0  0  0  0
  142.7199   78.2460  219.7533 H   0  0  0  0  0  0  0  0  0  0  0  0
  143.6580   78.5690  217.6410 H   0  0  0  0  0  0  0  0  0  0  0  0
  140.4970   77.3888  219.2956 H   0  0  0  0  0  0  0  0  0  0  0  0
  141.0199   76.3500  218.0007 H   0  0  0  0  0  0  0  0  0  0  0  0
  139.0603   74.2636  220.5996 H   0  0  0  0  0  0  0  0  0  0  0  0
  140.6094   73.3829  220.2676 H   0  0  0  0  0  0  0  0  0  0  0  0
  139.6390   73.8860  223.0950 H   0  0  0  0  0  0  0  0  0  0  0  0
  139.2119   69.6284  222.7752 H   0  0  0  0  0  0  0  0  0  0  0  0
  138.9709   68.3881  224.9043 H   0  0  0  0  0  0  0  0  0  0  0  0
  139.3368   68.2794  227.2117 H   0  0  0  0  0  0  0  0  0  0  0  0
  140.2302   69.2901  229.3206 H   0  0  0  0  0  0  0  0  0  0  0  0
  141.3248   71.4904  229.2167 H   0  0  0  0  0  0  0  0  0  0  0  0
  141.5750   72.7433  227.1141 H   0  0  0  0  0  0  0  0  0  0  0  0
  1  2  1  0
  2  3  1  0
  3  4  1  0
  4  5  1  0
  5  6  1  0
  6  7  1  0
  6  8  1  0
  8  9  1  0
  9 10  1  0
 10 11  2  0
 10 12  1  0
 12 13  1  0
 13 14  1  0
 14 15  2  0
 14 16  1  0
 16 17  2  0
 17 18  1  0
 18 19  2  0
 19 20  1  0
 20 21  2  0
 21 22  1  0
 22 23  2  0
 23 24  1  0
 24 25  2  0
  9  4  1  0
 25 16  1  0
 24 19  1  0
  1 26  1  0
  1 27  1  0
  1 28  1  0
  2 29  1  0
  2 30  1  0
  3 31  1  0
  3 32  1  0
  4 33  1  6
  5 34  1  0
  5 35  1  0
  6 36  1  1
  7 37  1  0
  8 38  1  0
  8 39  1  0
 12 40  1  0
 12 41  1  0
 13 42  1  0
 17 43  1  0
 18 44  1  0
 20 45  1  0
 21 46  1  0
 22 47  1  0
 23 48  1  0
M  END
>  <smiles>  (42) 
CCC[C@@H]1C[C@@H](O)CN1C(=O)CNC(=O)c1ccc2ccccc2n1

>  <score_type>  (42) 
oracle

>  <origin>  (42) 
autodockgpu

>  <m_score__min__energy>  (42) 
-7.9699999999999998

>  <m_primary>  (42) 
energy

>  <rmsd>  (42) 
2.80673976921747

>  <m_score__min__rmsd>  (42) 
2.80673976921747

>  <meeko>  (42) 
{"free_energy": -7.57, "intermolecular_energy": -9.66, "internal_energy": -1.42, "cluster_size": 44, "cluster_id": 1, "rank_in_cluster": 14}

>  <energy>  (42) 
-7.12

>  <cluster_rmsd>  (42) 
0.93

>  <cluster>  (42) 
1

$$$$

     RDKit          3D

 48 50  0  0  0  0  0  0  0  0999 V2000
  142.3700   80.0760  223.4800 C   0  0  0  0  0  0  0  0  0  0  0  0
  141.1180   79.3050  223.7620 C   0  0  0  0  0  0  0  0  0  0  0  0
  140.4840   78.6500  222.5890 C   0  0  0  0  0  0  0  0  0  0  0  0
  141.4300   78.0780  221.6100 C   0  0  2  0  0  0  0  0  0  0  0  0
  141.7820   78.8610  220.4150 C   0  0  0  0  0  0  0  0  0  0  0  0
  141.8530   77.8280  219.2810 C   0  0  1  0  0  0  0  0  0  0  0  0
  142.9640   78.0300  218.4660 O   0  0  0  0  0  0  0  0  0  0  0  0
  141.9590   76.5290  220.0200 C   0  0  0  0  0  0  0  0  0  0  0  0
  141.0120   76.7480  221.1380 N   0  0  0  0  0  0  0  0  0  0  0  0
  139.9990   75.8870  221.5870 C   0  0  0  0  0  0  0  0  0  0  0  0
  138.9980   76.2030  222.2680 O   0  0  0  0  0  0  0  0  0  0  0  0
  140.1160   74.4390  221.2210 C   0  0  0  0  0  0  0  0  0  0  0  0
  139.8740   73.5850  222.3530 N   0  0  0  0  0  0  0  0  0  0  0  0
  140.5510   72.3330  222.4520 C   0  0  0  0  0  0  0  0  0  0  0  0
  141.3590   71.9640  221.5610 O   0  0  0  0  0  0  0  0  0  0  0  0
  140.2960   71.4740  223.6100 C   0  0  0  0  0  0  0  0  0  0  0  0
  139.6650   70.2600  223.4350 C   0  0  0  0  0  0  0  0  0  0  0  0
  139.3870   69.3920  224.4710 C   0  0  0  0  0  0  0  0  0  0  0  0
  139.7730   69.7830  225.7380 C   0  0  0  0  0  0  0  0  0  0  0  0
  139.5000   68.9240  226.7720 C   0  0  0  0  0  0  0  0  0  0  0  0
  139.8710   69.2850  228.0510 C   0  0  0  0  0  0  0  0  0  0  0  0
  140.5020   70.4950  228.2320 C   0  0  0  0  0  0  0  0  0  0  0  0
  140.7830   71.3690  227.2070 C   0  0  0  0  0  0  0  0  0  0  0  0
  140.4130   71.0110  225.9260 C   0  0  0  0  0  0  0  0  0  0  0  0
  140.6520   71.8100  224.8630 N   0  0  0  0  0  0  0  0  0  0  0  0
  142.8430   80.3672  224.4295 H   0  0  0  0  0  0  0  0  0  0  0  0
  143.0644   79.4488  222.9017 H   0  0  0  0  0  0  0  0  0  0  0  0
  142.1225   80.9784  222.9017 H   0  0  0  0  0  0  0  0  0  0  0  0
  141.3618   78.5218  224.4950 H   0  0  0  0  0  0  0  0  0  0  0  0
  140.3872   80.0437  224.1229 H   0  0  0  0  0  0  0  0  0  0  0  0
  139.8407   77.8374  222.9576 H   0  0  0  0  0  0  0  0  0  0  0  0
  139.9292   79.4377  222.0582 H   0  0  0  0  0  0  0  0  0  0  0  0
  142.3371   78.0570  222.2318 H   0  0  0  0  0  0  0  0  0  0  0  0
  141.0103   79.6161  220.2045 H   0  0  0  0  0  0  0  0  0  0  0  0
  142.7276   79.4090  220.5394 H   0  0  0  0  0  0  0  0  0  0  0  0
  140.9892   77.8798  218.6019 H   0  0  0  0  0  0  0  0  0  0  0  0
  143.8000   77.9570  218.9740 H   0  0  0  0  0  0  0  0  0  0  0  0
  141.6488   75.6820  219.3905 H   0  0  0  0  0  0  0  0  0  0  0  0
  142.9807   76.2769  220.3402 H   0  0  0  0  0  0  0  0  0  0  0  0
  139.3803   74.2086  220.4364 H   0  0  0  0  0  0  0  0  0  0  0  0
  141.1406   74.2560  220.8650 H   0  0  0  0  0  0  0  0  0  0  0  0
  139.1970   73.8800  223.1150 H   0  0  0  0  0  0  0  0  0  0  0  0
  139.3680   69.9687  222.4167 H   0  0  0  0  0  0  0  0  0  0  0  0
  138.8805   68.4314  224.2955 H   0  0  0  0  0  0  0  0  0  0  0  0
  138.9946   67.9650  226.5850 H   0  0  0  0  0  0  0  0  0  0  0  0
  139.6676   68.6222  228.9050 H   0  0  0  0  0  0  0  0  0  0  0  0
  140.7980   70.7790  229.2527 H   0  0  0  0  0  0  0  0  0  0  0  0
  141.2884   72.3262  227.4028 H   0  0  0  0  0  0  0  0  0  0  0  0
  1  2  1  0
  2  3  1  0
  3  4  1  0
  4  5  1  0
  5  6  1  0
  6  7  1  0
  6  8  1  0
  8  9  1  0
  9 10  1  0
 10 11  2  0
 10 12  1  0
 12 13  1  0
 13 14  1  0
 14 15  2  0
 14 16  1  0
 16 17  2  0
 17 18  1  0
 18 19  2  0
 19 20  1  0
 20 21  2  0
 21 22  1  0
 22 23  2  0
 23 24  1  0
 24 25  2  0
  9  4  1  0
 25 16  1  0
 24 19  1  0
  1 26  1  0
  1 27  1  0
  1 28  1  0
  2 29  1  0
  2 30  1  0
  3 31  1  0
  3 32  1  0
  4 33  1  1
  5 34  1  0
  5 35  1  0
  6 36  1  6
  7 37  1  0
  8 38  1  0
  8 39  1  0
 12 40  1  0
 12 41  1  0
 13 42  1  0
 17 43  1  0
 18 44  1  0
 20 45  1  0
 21 46  1  0
 22 47  1  0
 23 48  1  0
M  END
>  <smiles>  (43) 
CCC[C@@H]1C[C@@H](O)CN1C(=O)CNC(=O)c1ccc2ccccc2n1

>  <score_type>  (43) 
oracle

>  <origin>  (43) 
autodockgpu

>  <m_score__min__energy>  (43) 
-7.9699999999999998

>  <m_primary>  (43) 
energy

>  <rmsd>  (43) 
3.1706461520949154

>  <m_score__min__rmsd>  (43) 
3.1706461520949154

>  <meeko>  (43) 
{"free_energy": -7.81, "intermolecular_energy": -9.9, "internal_energy": -1.21, "cluster_size": 44, "cluster_id": 1, "rank_in_cluster": 4}

>  <energy>  (43) 
-7.09

>  <cluster_rmsd>  (43) 
1.92

>  <cluster>  (43) 
1

$$$$

     RDKit          3D

 48 50  0  0  0  0  0  0  0  0999 V2000
  142.4570   80.1710  223.5170 C   0  0  0  0  0  0  0  0  0  0  0  0
  141.1680   79.4310  223.7040 C   0  0  0  0  0  0  0  0  0  0  0  0
  140.5520   78.8840  222.4690 C   0  0  0  0  0  0  0  0  0  0  0  0
  141.5020   78.2700  221.5190 C   0  0  2  0  0  0  0  0  0  0  0  0
  141.7590   78.9400  220.2330 C   0  0  0  0  0  0  0  0  0  0  0  0
  141.8620   77.7950  219.2140 C   0  0  1  0  0  0  0  0  0  0  0  0
  142.9290   77.9780  218.3380 O   0  0  0  0  0  0  0  0  0  0  0  0
  142.0820   76.5950  220.0830 C   0  0  0  0  0  0  0  0  0  0  0  0
  141.1600   76.8730  221.2090 N   0  0  0  0  0  0  0  0  0  0  0  0
  140.2240   76.0030  221.7880 C   0  0  0  0  0  0  0  0  0  0  0  0
  139.4010   76.2830  222.6870 O   0  0  0  0  0  0  0  0  0  0  0  0
  140.2000   74.5900  221.2890 C   0  0  0  0  0  0  0  0  0  0  0  0
  139.9100   73.6590  222.3470 N   0  0  0  0  0  0  0  0  0  0  0  0
  140.6340   72.4320  222.4270 C   0  0  0  0  0  0  0  0  0  0  0  0
  141.5250   72.1530  221.5840 O   0  0  0  0  0  0  0  0  0  0  0  0
  140.3300   71.4940  223.5080 C   0  0  0  0  0  0  0  0  0  0  0  0
  139.6220   70.3420  223.2360 C   0  0  0  0  0  0  0  0  0  0  0  0
  139.2940   69.4070  224.1950 C   0  0  0  0  0  0  0  0  0  0  0  0
  139.7080   69.6610  225.4880 C   0  0  0  0  0  0  0  0  0  0  0  0
  139.3850   68.7360  226.4460 C   0  0  0  0  0  0  0  0  0  0  0  0
  139.7840   68.9600  227.7490 C   0  0  0  0  0  0  0  0  0  0  0  0
  140.4910   70.1080  228.0270 C   0  0  0  0  0  0  0  0  0  0  0  0
  140.8230   71.0470  227.0790 C   0  0  0  0  0  0  0  0  0  0  0  0
  140.4260   70.8250  225.7750 C   0  0  0  0  0  0  0  0  0  0  0  0
  140.7110   71.6980  224.7820 N   0  0  0  0  0  0  0  0  0  0  0  0
  142.8848   80.4166  224.5002 H   0  0  0  0  0  0  0  0  0  0  0  0
  143.1635   79.5410  222.9567 H   0  0  0  0  0  0  0  0  0  0  0  0
  142.2692   81.0988  222.9567 H   0  0  0  0  0  0  0  0  0  0  0  0
  141.3576   78.5902  224.3875 H   0  0  0  0  0  0  0  0  0  0  0  0
  140.4525   80.1707  224.0924 H   0  0  0  0  0  0  0  0  0  0  0  0
  139.8196   78.1177  222.7630 H   0  0  0  0  0  0  0  0  0  0  0  0
  140.1010   79.7393  221.9445 H   0  0  0  0  0  0  0  0  0  0  0  0
  142.4290   78.3743  222.1019 H   0  0  0  0  0  0  0  0  0  0  0  0
  140.9307   79.6163  219.9750 H   0  0  0  0  0  0  0  0  0  0  0  0
  142.6682   79.5586  220.2590 H   0  0  0  0  0  0  0  0  0  0  0  0
  140.9743   77.7157  218.5693 H   0  0  0  0  0  0  0  0  0  0  0  0
  143.7260   78.3080  218.8060 H   0  0  0  0  0  0  0  0  0  0  0  0
  141.8102   75.6656  219.5611 H   0  0  0  0  0  0  0  0  0  0  0  0
  143.1289   76.4468  220.3865 H   0  0  0  0  0  0  0  0  0  0  0  0
  139.4269   74.4991  220.5118 H   0  0  0  0  0  0  0  0  0  0  0  0
  141.1945   74.3514  220.8841 H   0  0  0  0  0  0  0  0  0  0  0  0
  139.1620   73.8790  223.0670 H   0  0  0  0  0  0  0  0  0  0  0  0
  139.3021   70.1595  222.1995 H   0  0  0  0  0  0  0  0  0  0  0  0
  138.7276   68.4988  223.9414 H   0  0  0  0  0  0  0  0  0  0  0  0
  138.8180   67.8312  226.1819 H   0  0  0  0  0  0  0  0  0  0  0  0
  139.5430   68.2395  228.5444 H   0  0  0  0  0  0  0  0  0  0  0  0
  140.8080   70.2840  229.0655 H   0  0  0  0  0  0  0  0  0  0  0  0
  141.3891   71.9499  227.3516 H   0  0  0  0  0  0  0  0  0  0  0  0
  1  2  1  0
  2  3  1  0
  3  4  1  0
  4  5  1  0
  5  6  1  0
  6  7  1  0
  6  8  1  0
  8  9  1  0
  9 10  1  0
 10 11  2  0
 10 12  1  0
 12 13  1  0
 13 14  1  0
 14 15  2  0
 14 16  1  0
 16 17  2  0
 17 18  1  0
 18 19  2  0
 19 20  1  0
 20 21  2  0
 21 22  1  0
 22 23  2  0
 23 24  1  0
 24 25  2  0
  9  4  1  0
 25 16  1  0
 24 19  1  0
  1 26  1  0
  1 27  1  0
  1 28  1  0
  2 29  1  0
  2 30  1  0
  3 31  1  0
  3 32  1  0
  4 33  1  1
  5 34  1  0
  5 35  1  0
  6 36  1  6
  7 37  1  0
  8 38  1  0
  8 39  1  0
 12 40  1  0
 12 41  1  0
 13 42  1  0
 17 43  1  0
 18 44  1  0
 20 45  1  0
 21 46  1  0
 22 47  1  0
 23 48  1  0
M  END
>  <smiles>  (44) 
CCC[C@@H]1C[C@@H](O)CN1C(=O)CNC(=O)c1ccc2ccccc2n1

>  <score_type>  (44) 
oracle

>  <origin>  (44) 
autodockgpu

>  <m_score__min__energy>  (44) 
-7.9699999999999998

>  <m_primary>  (44) 
energy

>  <rmsd>  (44) 
3.2139672950180422

>  <m_score__min__rmsd>  (44) 
3.2139672950180422

>  <meeko>  (44) 
{"free_energy": -7.73, "intermolecular_energy": -9.82, "internal_energy": -1.24, "cluster_size": 44, "cluster_id": 1, "rank_in_cluster": 5}

>  <energy>  (44) 
-6.84

>  <cluster_rmsd>  (44) 
1.44

>  <cluster>  (44) 
1

$$$$

     RDKit          3D

 48 50  0  0  0  0  0  0  0  0999 V2000
  145.5420   73.1030  221.0250 C   0  0  0  0  0  0  0  0  0  0  0  0
  144.8550   74.3120  220.4700 C   0  0  0  0  0  0  0  0  0  0  0  0
  143.3760   74.2230  220.3630 C   0  0  0  0  0  0  0  0  0  0  0  0
  142.7550   75.2330  219.4830 C   0  0  2  0  0  0  0  0  0  0  0  0
  143.5580   76.3850  219.0400 C   0  0  0  0  0  0  0  0  0  0  0  0
  142.5850   77.5730  219.0810 C   0  0  1  0  0  0  0  0  0  0  0  0
  142.7050   78.3780  217.9500 O   0  0  0  0  0  0  0  0  0  0  0  0
  141.2450   76.9050  219.1240 C   0  0  0  0  0  0  0  0  0  0  0  0
  141.5080   75.7750  220.0460 N   0  0  0  0  0  0  0  0  0  0  0  0
  140.7440   75.3720  221.1510 C   0  0  0  0  0  0  0  0  0  0  0  0
  140.6830   75.9400  222.2640 O   0  0  0  0  0  0  0  0  0  0  0  0
  139.9110   74.1360  220.9960 C   0  0  0  0  0  0  0  0  0  0  0  0
  139.7890   73.4200  222.2370 N   0  0  0  0  0  0  0  0  0  0  0  0
  140.3500   72.1130  222.3580 C   0  0  0  0  0  0  0  0  0  0  0  0
  140.9520   71.5780  221.3920 O   0  0  0  0  0  0  0  0  0  0  0  0
  140.2190   71.3960  223.6270 C   0  0  0  0  0  0  0  0  0  0  0  0
  139.5820   70.1730  223.6600 C   0  0  0  0  0  0  0  0  0  0  0  0
  139.4160   69.4330  224.8110 C   0  0  0  0  0  0  0  0  0  0  0  0
  139.9250   69.9660  225.9800 C   0  0  0  0  0  0  0  0  0  0  0  0
  139.7630   69.2350  227.1280 C   0  0  0  0  0  0  0  0  0  0  0  0
  140.2590   69.7400  228.3130 C   0  0  0  0  0  0  0  0  0  0  0  0
  140.8970   70.9600  228.2880 C   0  0  0  0  0  0  0  0  0  0  0  0
  141.0670   71.7070  227.1450 C   0  0  0  0  0  0  0  0  0  0  0  0
  140.5720   71.2040  225.9580 C   0  0  0  0  0  0  0  0  0  0  0  0
  140.6970   71.8740  224.7910 N   0  0  0  0  0  0  0  0  0  0  0  0
  145.5203   73.1412  222.1241 H   0  0  0  0  0  0  0  0  0  0  0  0
  145.0243   72.1961  220.6793 H   0  0  0  0  0  0  0  0  0  0  0  0
  146.5861   73.0835  220.6793 H   0  0  0  0  0  0  0  0  0  0  0  0
  145.0955   75.1655  221.1209 H   0  0  0  0  0  0  0  0  0  0  0  0
  145.2233   74.4180  219.4389 H   0  0  0  0  0  0  0  0  0  0  0  0
  143.1209   73.2266  219.9730 H   0  0  0  0  0  0  0  0  0  0  0  0
  142.9816   74.4091  221.3729 H   0  0  0  0  0  0  0  0  0  0  0  0
  142.5981   74.6156  218.5863 H   0  0  0  0  0  0  0  0  0  0  0  0
  144.4052   76.5530  219.7212 H   0  0  0  0  0  0  0  0  0  0  0  0
  143.9896   76.2331  218.0397 H   0  0  0  0  0  0  0  0  0  0  0  0
  142.7688   78.2466  219.9310 H   0  0  0  0  0  0  0  0  0  0  0  0
  143.6460   78.5420  217.7250 H   0  0  0  0  0  0  0  0  0  0  0  0
  140.4728   77.5786  219.5239 H   0  0  0  0  0  0  0  0  0  0  0  0
  140.8638   76.6003  218.1382 H   0  0  0  0  0  0  0  0  0  0  0  0
  138.9073   74.4233  220.6496 H   0  0  0  0  0  0  0  0  0  0  0  0
  140.4053   73.4776  220.2665 H   0  0  0  0  0  0  0  0  0  0  0  0
  139.2850   73.8560  223.0630 H   0  0  0  0  0  0  0  0  0  0  0  0
  139.1855   69.7667  222.7178 H   0  0  0  0  0  0  0  0  0  0  0  0
  138.9011   68.4610  224.7995 H   0  0  0  0  0  0  0  0  0  0  0  0
  139.2472   68.2637  227.1054 H   0  0  0  0  0  0  0  0  0  0  0  0
  140.1474   69.1816  229.2541 H   0  0  0  0  0  0  0  0  0  0  0  0
  141.2925   71.3593  229.2336 H   0  0  0  0  0  0  0  0  0  0  0  0
  141.5829   72.6780  227.1759 H   0  0  0  0  0  0  0  0  0  0  0  0
  1  2  1  0
  2  3  1  0
  3  4  1  0
  4  5  1  0
  5  6  1  0
  6  7  1  0
  6  8  1  0
  8  9  1  0
  9 10  1  0
 10 11  2  0
 10 12  1  0
 12 13  1  0
 13 14  1  0
 14 15  2  0
 14 16  1  0
 16 17  2  0
 17 18  1  0
 18 19  2  0
 19 20  1  0
 20 21  2  0
 21 22  1  0
 22 23  2  0
 23 24  1  0
 24 25  2  0
  9  4  1  0
 25 16  1  0
 24 19  1  0
  1 26  1  0
  1 27  1  0
  1 28  1  0
  2 29  1  0
  2 30  1  0
  3 31  1  0
  3 32  1  0
  4 33  1  6
  5 34  1  0
  5 35  1  0
  6 36  1  1
  7 37  1  0
  8 38  1  0
  8 39  1  0
 12 40  1  0
 12 41  1  0
 13 42  1  0
 17 43  1  0
 18 44  1  0
 20 45  1  0
 21 46  1  0
 22 47  1  0
 23 48  1  0
M  END
>  <smiles>  (45) 
CCC[C@@H]1C[C@@H](O)CN1C(=O)CNC(=O)c1ccc2ccccc2n1

>  <score_type>  (45) 
oracle

>  <origin>  (45) 
autodockgpu

>  <m_score__min__energy>  (45) 
-7.9699999999999998

>  <m_primary>  (45) 
energy

>  <rmsd>  (45) 
2.817307194077875

>  <m_score__min__rmsd>  (45) 
2.817307194077875

>  <meeko>  (45) 
{"free_energy": -7.55, "intermolecular_energy": -9.64, "internal_energy": -1.34, "cluster_size": 44, "cluster_id": 1, "rank_in_cluster": 18}

>  <energy>  (45) 
-7.89

>  <cluster_rmsd>  (45) 
0.0

>  <cluster>  (45) 
2

$$$$

     RDKit          3D

 48 50  0  0  0  0  0  0  0  0999 V2000
  141.8050   79.1300  223.8100 C   0  0  0  0  0  0  0  0  0  0  0  0
  140.4100   79.3700  223.3230 C   0  0  0  0  0  0  0  0  0  0  0  0
  140.0600   78.7380  222.0260 C   0  0  0  0  0  0  0  0  0  0  0  0
  141.1880   78.0940  221.3240 C   0  0  2  0  0  0  0  0  0  0  0  0
  141.5720   78.5840  219.9900 C   0  0  0  0  0  0  0  0  0  0  0  0
  141.9220   77.3160  219.1970 C   0  0  1  0  0  0  0  0  0  0  0  0
  143.0860   77.4790  218.4490 O   0  0  0  0  0  0  0  0  0  0  0  0
  142.1150   76.2930  220.2750 C   0  0  0  0  0  0  0  0  0  0  0  0
  141.0180   76.6370  221.2090 N   0  0  0  0  0  0  0  0  0  0  0  0
  140.0860   75.7680  221.7970 C   0  0  0  0  0  0  0  0  0  0  0  0
  139.2550   76.0560  222.6850 O   0  0  0  0  0  0  0  0  0  0  0  0
  140.0770   74.3470  221.3210 C   0  0  0  0  0  0  0  0  0  0  0  0
  139.8110   73.4300  222.3970 N   0  0  0  0  0  0  0  0  0  0  0  0
  140.5960   72.2460  222.5280 C   0  0  0  0  0  0  0  0  0  0  0  0
  141.5210   71.9920  221.7140 O   0  0  0  0  0  0  0  0  0  0  0  0
  140.3150   71.3210  223.6270 C   0  0  0  0  0  0  0  0  0  0  0  0
  139.5570   70.1920  223.3950 C   0  0  0  0  0  0  0  0  0  0  0  0
  139.2470   69.2710  224.3740 C   0  0  0  0  0  0  0  0  0  0  0  0
  139.7320   69.5160  225.6440 C   0  0  0  0  0  0  0  0  0  0  0  0
  139.4260   68.6050  226.6210 C   0  0  0  0  0  0  0  0  0  0  0  0
  139.8950   68.8200  227.9010 C   0  0  0  0  0  0  0  0  0  0  0  0
  140.6520   69.9460  228.1390 C   0  0  0  0  0  0  0  0  0  0  0  0
  140.9670   70.8710  227.1720 C   0  0  0  0  0  0  0  0  0  0  0  0
  140.5000   70.6580  225.8890 C   0  0  0  0  0  0  0  0  0  0  0  0
  140.7640   71.5170  224.8800 N   0  0  0  0  0  0  0  0  0  0  0  0
  141.8142   79.1284  224.9100 H   0  0  0  0  0  0  0  0  0  0  0  0
  142.1607   78.1575  223.4390 H   0  0  0  0  0  0  0  0  0  0  0  0
  142.4652   79.9277  223.4390 H   0  0  0  0  0  0  0  0  0  0  0  0
  139.7159   78.9845  224.0843 H   0  0  0  0  0  0  0  0  0  0  0  0
  140.3345   80.4547  223.1564 H   0  0  0  0  0  0  0  0  0  0  0  0
  139.2931   77.9723  222.2149 H   0  0  0  0  0  0  0  0  0  0  0  0
  139.7121   79.5503  221.3709 H   0  0  0  0  0  0  0  0  0  0  0  0
  142.0069   78.3868  221.9976 H   0  0  0  0  0  0  0  0  0  0  0  0
  140.7352   79.1190  219.5172 H   0  0  0  0  0  0  0  0  0  0  0  0
  142.4109   79.2943  220.0322 H   0  0  0  0  0  0  0  0  0  0  0  0
  141.1490   77.0432  218.4635 H   0  0  0  0  0  0  0  0  0  0  0  0
  143.8050   77.8750  218.9860 H   0  0  0  0  0  0  0  0  0  0  0  0
  142.0038   75.2710  219.8836 H   0  0  0  0  0  0  0  0  0  0  0  0
  143.1150   76.3076  220.7331 H   0  0  0  0  0  0  0  0  0  0  0  0
  139.2974   74.2325  220.5534 H   0  0  0  0  0  0  0  0  0  0  0  0
  141.0705   74.1157  220.9093 H   0  0  0  0  0  0  0  0  0  0  0  0
  139.0340   73.6280  223.0930 H   0  0  0  0  0  0  0  0  0  0  0  0
  139.1802   70.0171  222.3764 H   0  0  0  0  0  0  0  0  0  0  0  0
  138.6402   68.3805  224.1530 H   0  0  0  0  0  0  0  0  0  0  0  0
  138.8175   67.7184  226.3892 H   0  0  0  0  0  0  0  0  0  0  0  0
  139.6700   68.1102  228.7107 H   0  0  0  0  0  0  0  0  0  0  0  0
  141.0253   70.1144  229.1599 H   0  0  0  0  0  0  0  0  0  0  0  0
  141.5740   71.7562  227.4129 H   0  0  0  0  0  0  0  0  0  0  0  0
  1  2  1  0
  2  3  1  0
  3  4  1  0
  4  5  1  0
  5  6  1  0
  6  7  1  0
  6  8  1  0
  8  9  1  0
  9 10  1  0
 10 11  2  0
 10 12  1  0
 12 13  1  0
 13 14  1  0
 14 15  2  0
 14 16  1  0
 16 17  2  0
 17 18  1  0
 18 19  2  0
 19 20  1  0
 20 21  2  0
 21 22  1  0
 22 23  2  0
 23 24  1  0
 24 25  2  0
  9  4  1  0
 25 16  1  0
 24 19  1  0
  1 26  1  0
  1 27  1  0
  1 28  1  0
  2 29  1  0
  2 30  1  0
  3 31  1  0
  3 32  1  0
  4 33  1  1
  5 34  1  0
  5 35  1  0
  6 36  1  6
  7 37  1  0
  8 38  1  0
  8 39  1  0
 12 40  1  0
 12 41  1  0
 13 42  1  0
 17 43  1  0
 18 44  1  0
 20 45  1  0
 21 46  1  0
 22 47  1  0
 23 48  1  0
M  END
>  <smiles>  (46) 
CCC[C@@H]1C[C@@H](O)CN1C(=O)CNC(=O)c1ccc2ccccc2n1

>  <score_type>  (46) 
oracle

>  <origin>  (46) 
autodockgpu

>  <m_score__min__energy>  (46) 
-7.9699999999999998

>  <m_primary>  (46) 
energy

>  <rmsd>  (46) 
3.0502785360916427

>  <m_score__min__rmsd>  (46) 
3.0502785360916427

>  <meeko>  (46) 
{"free_energy": -7.56, "intermolecular_energy": -9.65, "internal_energy": -1.28, "cluster_size": 44, "cluster_id": 1, "rank_in_cluster": 16}

>  <energy>  (46) 
-7.65

>  <cluster_rmsd>  (46) 
0.37

>  <cluster>  (46) 
2

$$$$

     RDKit          3D

 48 50  0  0  0  0  0  0  0  0999 V2000
  141.1700   72.2000  227.6080 C   0  0  0  0  0  0  0  0  0  0  0  0
  141.0200   71.0430  226.6690 C   0  0  0  0  0  0  0  0  0  0  0  0
  140.7410   71.3920  225.2530 C   0  0  0  0  0  0  0  0  0  0  0  0
  139.4110   70.9810  224.7610 C   0  0  2  0  0  0  0  0  0  0  0  0
  139.0560   69.5520  224.7720 C   0  0  0  0  0  0  0  0  0  0  0  0
  138.2760   69.3360  223.4670 C   0  0  1  0  0  0  0  0  0  0  0  0
  137.1420   68.5520  223.6660 O   0  0  0  0  0  0  0  0  0  0  0  0
  137.9010   70.7310  223.0690 C   0  0  0  0  0  0  0  0  0  0  0  0
  139.1380   71.4760  223.4020 N   0  0  0  0  0  0  0  0  0  0  0  0
  139.8300   72.3950  222.6000 C   0  0  0  0  0  0  0  0  0  0  0  0
  141.0700   72.4760  222.4570 O   0  0  0  0  0  0  0  0  0  0  0  0
  139.0120   73.3880  221.8310 C   0  0  0  0  0  0  0  0  0  0  0  0
  139.1840   74.7220  222.3390 N   0  0  0  0  0  0  0  0  0  0  0  0
  140.0770   75.6190  221.6810 C   0  0  0  0  0  0  0  0  0  0  0  0
  140.7180   75.2590  220.6600 O   0  0  0  0  0  0  0  0  0  0  0  0
  140.2430   76.9750  222.2070 C   0  0  0  0  0  0  0  0  0  0  0  0
  139.1340   77.7000  222.5930 C   0  0  0  0  0  0  0  0  0  0  0  0
  139.2030   78.9820  223.0970 C   0  0  0  0  0  0  0  0  0  0  0  0
  140.4580   79.5460  223.2130 C   0  0  0  0  0  0  0  0  0  0  0  0
  140.5330   80.8190  223.7140 C   0  0  0  0  0  0  0  0  0  0  0  0
  141.7720   81.4120  223.8420 C   0  0  0  0  0  0  0  0  0  0  0  0
  142.8830   80.6940  223.4590 C   0  0  0  0  0  0  0  0  0  0  0  0
  142.8270   79.4160  222.9540 C   0  0  0  0  0  0  0  0  0  0  0  0
  141.5870   78.8200  222.8250 C   0  0  0  0  0  0  0  0  0  0  0  0
  141.4440   77.5670  222.3380 N   0  0  0  0  0  0  0  0  0  0  0  0
  141.1231   71.8384  228.6458 H   0  0  0  0  0  0  0  0  0  0  0  0
  142.1392   72.6902  227.4339 H   0  0  0  0  0  0  0  0  0  0  0  0
  140.3578   72.9212  227.4339 H   0  0  0  0  0  0  0  0  0  0  0  0
  141.9544   70.4632  226.6959 H   0  0  0  0  0  0  0  0  0  0  0  0
  140.1380   70.4866  227.0190 H   0  0  0  0  0  0  0  0  0  0  0  0
  140.8214   72.4840  225.1482 H   0  0  0  0  0  0  0  0  0  0  0  0
  141.4768   70.8407  224.6491 H   0  0  0  0  0  0  0  0  0  0  0  0
  138.7834   71.4519  225.5320 H   0  0  0  0  0  0  0  0  0  0  0  0
  139.9612   68.9272  224.7912 H   0  0  0  0  0  0  0  0  0  0  0  0
  138.4683   69.2752  225.6597 H   0  0  0  0  0  0  0  0  0  0  0  0
  138.8604   68.8016  222.7035 H   0  0  0  0  0  0  0  0  0  0  0  0
  137.0330   67.8900  222.9500 H   0  0  0  0  0  0  0  0  0  0  0  0
  137.6706   70.7943  221.9953 H   0  0  0  0  0  0  0  0  0  0  0  0
  136.9990   71.1130  223.5695 H   0  0  0  0  0  0  0  0  0  0  0  0
  139.3220   73.3651  220.7758 H   0  0  0  0  0  0  0  0  0  0  0  0
  137.9517   73.1143  221.9349 H   0  0  0  0  0  0  0  0  0  0  0  0
  138.6510   75.0440  223.1990 H   0  0  0  0  0  0  0  0  0  0  0  0
  138.1439   77.2312  222.4936 H   0  0  0  0  0  0  0  0  0  0  0  0
  138.2974   79.5314  223.3937 H   0  0  0  0  0  0  0  0  0  0  0  0
  139.6211   81.3588  224.0091 H   0  0  0  0  0  0  0  0  0  0  0  0
  141.8701   82.4328  224.2400 H   0  0  0  0  0  0  0  0  0  0  0  0
  143.8698   81.1689  223.5627 H   0  0  0  0  0  0  0  0  0  0  0  0
  143.7436   78.8832  222.6610 H   0  0  0  0  0  0  0  0  0  0  0  0
  1  2  1  0
  2  3  1  0
  3  4  1  0
  4  5  1  0
  5  6  1  0
  6  7  1  0
  6  8  1  0
  8  9  1  0
  9 10  1  0
 10 11  2  0
 10 12  1  0
 12 13  1  0
 13 14  1  0
 14 15  2  0
 14 16  1  0
 16 17  2  0
 17 18  1  0
 18 19  2  0
 19 20  1  0
 20 21  2  0
 21 22  1  0
 22 23  2  0
 23 24  1  0
 24 25  2  0
  9  4  1  0
 25 16  1  0
 24 19  1  0
  1 26  1  0
  1 27  1  0
  1 28  1  0
  2 29  1  0
  2 30  1  0
  3 31  1  0
  3 32  1  0
  4 33  1  1
  5 34  1  0
  5 35  1  0
  6 36  1  6
  7 37  1  0
  8 38  1  0
  8 39  1  0
 12 40  1  0
 12 41  1  0
 13 42  1  0
 17 43  1  0
 18 44  1  0
 20 45  1  0
 21 46  1  0
 22 47  1  0
 23 48  1  0
M  END
>  <smiles>  (47) 
CCC[C@@H]1C[C@@H](O)CN1C(=O)CNC(=O)c1ccc2ccccc2n1

>  <score_type>  (47) 
oracle

>  <origin>  (47) 
autodockgpu

>  <m_score__min__energy>  (47) 
-7.9699999999999998

>  <m_primary>  (47) 
energy

>  <rmsd>  (47) 
8.439604051757682

>  <m_score__min__rmsd>  (47) 
8.439604051757682

>  <meeko>  (47) 
{"free_energy": -7.16, "intermolecular_energy": -9.25, "internal_energy": -0.93, "cluster_size": 1, "cluster_id": 4, "rank_in_cluster": 1}

>  <energy>  (47) 
-7.34

>  <cluster_rmsd>  (47) 
0.0

>  <cluster>  (47) 
3

$$$$

     RDKit          3D

 48 50  0  0  0  0  0  0  0  0999 V2000
  142.5370   80.5100  223.8450 C   0  0  0  0  0  0  0  0  0  0  0  0
  141.1360   80.1760  223.4350 C   0  0  0  0  0  0  0  0  0  0  0  0
  140.8990   78.7650  223.0370 C   0  0  0  0  0  0  0  0  0  0  0  0
  141.6360   78.3250  221.8350 C   0  0  2  0  0  0  0  0  0  0  0  0
  141.8070   79.2680  220.7180 C   0  0  0  0  0  0  0  0  0  0  0  0
  141.6380   78.4090  219.4560 C   0  0  1  0  0  0  0  0  0  0  0  0
  142.5980   78.7090  218.4930 O   0  0  0  0  0  0  0  0  0  0  0  0
  141.8170   77.0150  219.9760 C   0  0  0  0  0  0  0  0  0  0  0  0
  141.0880   77.0850  221.2640 N   0  0  0  0  0  0  0  0  0  0  0  0
  140.1340   76.1840  221.7610 C   0  0  0  0  0  0  0  0  0  0  0  0
  139.2120   76.4420  222.5660 O   0  0  0  0  0  0  0  0  0  0  0  0
  140.2180   74.7650  221.2880 C   0  0  0  0  0  0  0  0  0  0  0  0
  139.9220   73.8350  222.3450 N   0  0  0  0  0  0  0  0  0  0  0  0
  140.6360   72.6030  222.4230 C   0  0  0  0  0  0  0  0  0  0  0  0
  141.5240   72.3170  221.5790 O   0  0  0  0  0  0  0  0  0  0  0  0
  140.3260   71.6660  223.5040 C   0  0  0  0  0  0  0  0  0  0  0  0
  139.6180   70.5140  223.2300 C   0  0  0  0  0  0  0  0  0  0  0  0
  139.2840   69.5810  224.1890 C   0  0  0  0  0  0  0  0  0  0  0  0
  139.6930   69.8360  225.4840 C   0  0  0  0  0  0  0  0  0  0  0  0
  139.3650   68.9120  226.4410 C   0  0  0  0  0  0  0  0  0  0  0  0
  139.7580   69.1380  227.7450 C   0  0  0  0  0  0  0  0  0  0  0  0
  140.4650   70.2850  228.0260 C   0  0  0  0  0  0  0  0  0  0  0  0
  140.8020   71.2230  227.0780 C   0  0  0  0  0  0  0  0  0  0  0  0
  140.4110   71.0000  225.7720 C   0  0  0  0  0  0  0  0  0  0  0  0
  140.7010   71.8710  224.7800 N   0  0  0  0  0  0  0  0  0  0  0  0
  142.6038   80.5259  224.9429 H   0  0  0  0  0  0  0  0  0  0  0  0
  143.2264   79.7510  223.4467 H   0  0  0  0  0  0  0  0  0  0  0  0
  142.8099   81.4984  223.4467 H   0  0  0  0  0  0  0  0  0  0  0  0
  140.4728   80.4038  224.2825 H   0  0  0  0  0  0  0  0  0  0  0  0
  140.9357   80.7780  222.5364 H   0  0  0  0  0  0  0  0  0  0  0  0
  141.1969   78.1188  223.8759 H   0  0  0  0  0  0  0  0  0  0  0  0
  139.8302   78.6905  222.7877 H   0  0  0  0  0  0  0  0  0  0  0  0
  142.6357   78.1984  222.2761 H   0  0  0  0  0  0  0  0  0  0  0  0
  141.0419   80.0574  220.7557 H   0  0  0  0  0  0  0  0  0  0  0  0
  142.7813   79.7778  220.7481 H   0  0  0  0  0  0  0  0  0  0  0  0
  140.6726   78.5724  218.9548 H   0  0  0  0  0  0  0  0  0  0  0  0
  143.5070   78.5920  218.8440 H   0  0  0  0  0  0  0  0  0  0  0  0
  141.3677   76.2729  219.2997 H   0  0  0  0  0  0  0  0  0  0  0  0
  142.8675   76.7031  220.0713 H   0  0  0  0  0  0  0  0  0  0  0  0
  139.4964   74.6180  220.4709 H   0  0  0  0  0  0  0  0  0  0  0  0
  141.2458   74.5779  220.9435 H   0  0  0  0  0  0  0  0  0  0  0  0
  139.1770   74.0600  223.0660 H   0  0  0  0  0  0  0  0  0  0  0  0
  139.3034   70.3301  222.1921 H   0  0  0  0  0  0  0  0  0  0  0  0
  138.7169   68.6736  223.9342 H   0  0  0  0  0  0  0  0  0  0  0  0
  138.7991   68.0069  226.1753 H   0  0  0  0  0  0  0  0  0  0  0  0
  139.5120   68.4188  228.5402 H   0  0  0  0  0  0  0  0  0  0  0  0
  140.7777   70.4613  229.0658 H   0  0  0  0  0  0  0  0  0  0  0  0
  141.3673   72.1259  227.3523 H   0  0  0  0  0  0  0  0  0  0  0  0
  1  2  1  0
  2  3  1  0
  3  4  1  0
  4  5  1  0
  5  6  1  0
  6  7  1  0
  6  8  1  0
  8  9  1  0
  9 10  1  0
 10 11  2  0
 10 12  1  0
 12 13  1  0
 13 14  1  0
 14 15  2  0
 14 16  1  0
 16 17  2  0
 17 18  1  0
 18 19  2  0
 19 20  1  0
 20 21  2  0
 21 22  1  0
 22 23  2  0
 23 24  1  0
 24 25  2  0
  9  4  1  0
 25 16  1  0
 24 19  1  0
  1 26  1  0
  1 27  1  0
  1 28  1  0
  2 29  1  0
  2 30  1  0
  3 31  1  0
  3 32  1  0
  4 33  1  1
  5 34  1  0
  5 35  1  0
  6 36  1  6
  7 37  1  0
  8 38  1  0
  8 39  1  0
 12 40  1  0
 12 41  1  0
 13 42  1  0
 17 43  1  0
 18 44  1  0
 20 45  1  0
 21 46  1  0
 22 47  1  0
 23 48  1  0
M  END
>  <smiles>  (48) 
CCC[C@@H]1C[C@@H](O)CN1C(=O)CNC(=O)c1ccc2ccccc2n1

>  <score_type>  (48) 
oracle

>  <origin>  (48) 
autodockgpu

>  <m_score__min__energy>  (48) 
-7.9699999999999998

>  <m_primary>  (48) 
energy

>  <rmsd>  (48) 
3.406976375153166

>  <m_score__min__rmsd>  (48) 
3.406976375153166

>  <meeko>  (48) 
{"free_energy": -7.67, "intermolecular_energy": -9.76, "internal_energy": -1.25, "cluster_size": 44, "cluster_id": 1, "rank_in_cluster": 7}

>  <energy>  (48) 
-7.16

>  <cluster_rmsd>  (48) 
0.0

>  <cluster>  (48) 
4

$$$$

     RDKit          3D

 48 50  0  0  0  0  0  0  0  0999 V2000
  145.2320   72.6850  220.4400 C   0  0  0  0  0  0  0  0  0  0  0  0
  144.4000   73.9030  220.6930 C   0  0  0  0  0  0  0  0  0  0  0  0
  142.9830   73.8210  220.2550 C   0  0  0  0  0  0  0  0  0  0  0  0
  142.4710   75.0300  219.5780 C   0  0  2  0  0  0  0  0  0  0  0  0
  143.3860   76.1580  219.3420 C   0  0  0  0  0  0  0  0  0  0  0  0
  142.5360   77.4090  219.6070 C   0  0  1  0  0  0  0  0  0  0  0  0
  142.7420   78.3890  218.6400 O   0  0  0  0  0  0  0  0  0  0  0  0
  141.1350   76.8800  219.5450 C   0  0  0  0  0  0  0  0  0  0  0  0
  141.2800   75.5810  220.2440 N   0  0  0  0  0  0  0  0  0  0  0  0
  140.4710   75.0620  221.2670 C   0  0  0  0  0  0  0  0  0  0  0  0
  140.1450   75.6400  222.3260 O   0  0  0  0  0  0  0  0  0  0  0  0
  139.9390   73.6740  221.0830 C   0  0  0  0  0  0  0  0  0  0  0  0
  139.8380   72.9750  222.3360 N   0  0  0  0  0  0  0  0  0  0  0  0
  140.0730   71.5680  222.3820 C   0  0  0  0  0  0  0  0  0  0  0  0
  140.3680   70.9290  221.3390 O   0  0  0  0  0  0  0  0  0  0  0  0
  139.9680   70.8690  223.6630 C   0  0  0  0  0  0  0  0  0  0  0  0
  139.3760   69.6240  223.7170 C   0  0  0  0  0  0  0  0  0  0  0  0
  139.2370   68.8990  224.8820 C   0  0  0  0  0  0  0  0  0  0  0  0
  139.7250   69.4710  226.0410 C   0  0  0  0  0  0  0  0  0  0  0  0
  139.5900   68.7550  227.2020 C   0  0  0  0  0  0  0  0  0  0  0  0
  140.0660   69.2990  228.3770 C   0  0  0  0  0  0  0  0  0  0  0  0
  140.6580   70.5410  228.3310 C   0  0  0  0  0  0  0  0  0  0  0  0
  140.8010   71.2730  227.1750 C   0  0  0  0  0  0  0  0  0  0  0  0
  140.3260   70.7310  225.9970 C   0  0  0  0  0  0  0  0  0  0  0  0
  140.4270   71.3840  224.8180 N   0  0  0  0  0  0  0  0  0  0  0  0
  145.5347   72.2418  221.4002 H   0  0  0  0  0  0  0  0  0  0  0  0
  144.6448   71.9524  219.8669 H   0  0  0  0  0  0  0  0  0  0  0  0
  146.1280   72.9656  219.8669 H   0  0  0  0  0  0  0  0  0  0  0  0
  144.4078   74.0980  221.7755 H   0  0  0  0  0  0  0  0  0  0  0  0
  144.8528   74.7042  220.0905 H   0  0  0  0  0  0  0  0  0  0  0  0
  142.8886   72.9740  219.5596 H   0  0  0  0  0  0  0  0  0  0  0  0
  142.3835   73.7019  221.1696 H   0  0  0  0  0  0  0  0  0  0  0  0
  142.2607   74.6037  218.5860 H   0  0  0  0  0  0  0  0  0  0  0  0
  144.2407   76.1158  220.0332 H   0  0  0  0  0  0  0  0  0  0  0  0
  143.8071   76.1477  218.3259 H   0  0  0  0  0  0  0  0  0  0  0  0
  142.7811   77.8964  220.5621 H   0  0  0  0  0  0  0  0  0  0  0  0
  143.6850   78.6590  218.5970 H   0  0  0  0  0  0  0  0  0  0  0  0
  140.4314   77.5428  220.0700 H   0  0  0  0  0  0  0  0  0  0  0  0
  140.7304   76.7986  218.5253 H   0  0  0  0  0  0  0  0  0  0  0  0
  138.9404   73.7322  220.6253 H   0  0  0  0  0  0  0  0  0  0  0  0
  140.6362   73.1214  220.4361 H   0  0  0  0  0  0  0  0  0  0  0  0
  139.5910   73.4980  223.2250 H   0  0  0  0  0  0  0  0  0  0  0  0
  138.9950   69.1868  222.7822 H   0  0  0  0  0  0  0  0  0  0  0  0
  138.7585   67.9086  224.8881 H   0  0  0  0  0  0  0  0  0  0  0  0
  139.1109   67.7648  227.1969 H   0  0  0  0  0  0  0  0  0  0  0  0
  139.9747   68.7535  229.3278 H   0  0  0  0  0  0  0  0  0  0  0  0
  141.0373   70.9715  229.2695 H   0  0  0  0  0  0  0  0  0  0  0  0
  141.2805   72.2629  227.1886 H   0  0  0  0  0  0  0  0  0  0  0  0
  1  2  1  0
  2  3  1  0
  3  4  1  0
  4  5  1  0
  5  6  1  0
  6  7  1  0
  6  8  1  0
  8  9  1  0
  9 10  1  0
 10 11  2  0
 10 12  1  0
 12 13  1  0
 13 14  1  0
 14 15  2  0
 14 16  1  0
 16 17  2  0
 17 18  1  0
 18 19  2  0
 19 20  1  0
 20 21  2  0
 21 22  1  0
 22 23  2  0
 23 24  1  0
 24 25  2  0
  9  4  1  0
 25 16  1  0
 24 19  1  0
  1 26  1  0
  1 27  1  0
  1 28  1  0
  2 29  1  0
  2 30  1  0
  3 31  1  0
  3 32  1  0
  4 33  1  6
  5 34  1  0
  5 35  1  0
  6 36  1  1
  7 37  1  0
  8 38  1  0
  8 39  1  0
 12 40  1  0
 12 41  1  0
 13 42  1  0
 17 43  1  0
 18 44  1  0
 20 45  1  0
 21 46  1  0
 22 47  1  0
 23 48  1  0
M  END
>  <smiles>  (49) 
CCC[C@@H]1C[C@@H](O)CN1C(=O)CNC(=O)c1ccc2ccccc2n1

>  <score_type>  (49) 
oracle

>  <origin>  (49) 
autodockgpu

>  <m_score__min__energy>  (49) 
-7.9699999999999998

>  <m_primary>  (49) 
energy

>  <rmsd>  (49) 
2.738393363330736

>  <m_score__min__rmsd>  (49) 
2.738393363330736

>  <meeko>  (49) 
{"free_energy": -7.3, "intermolecular_energy": -9.38, "internal_energy": -1.52, "cluster_size": 44, "cluster_id": 1, "rank_in_cluster": 33}

>  <energy>  (49) 
-6.75

>  <cluster_rmsd>  (49) 
0.0

>  <cluster>  (49) 
5

$$$$

     RDKit          3D

 48 50  0  0  0  0  0  0  0  0999 V2000
  142.1820   79.5250  223.3490 C   0  0  0  0  0  0  0  0  0  0  0  0
  140.7780   79.0180  223.4590 C   0  0  0  0  0  0  0  0  0  0  0  0
  140.3770   78.0000  222.4560 C   0  0  0  0  0  0  0  0  0  0  0  0
  141.4450   77.5960  221.5180 C   0  0  2  0  0  0  0  0  0  0  0  0
  141.6450   78.3770  220.2860 C   0  0  0  0  0  0  0  0  0  0  0  0
  141.9610   77.3270  219.2100 C   0  0  1  0  0  0  0  0  0  0  0  0
  143.0200   77.7230  218.3970 O   0  0  0  0  0  0  0  0  0  0  0  0
  142.3280   76.1210  220.0190 C   0  0  0  0  0  0  0  0  0  0  0  0
  141.3320   76.1860  221.1140 N   0  0  0  0  0  0  0  0  0  0  0  0
  140.5180   75.1510  221.5980 C   0  0  0  0  0  0  0  0  0  0  0  0
  139.5560   75.2650  222.3890 O   0  0  0  0  0  0  0  0  0  0  0  0
  140.8230   73.7610  221.1280 C   0  0  0  0  0  0  0  0  0  0  0  0
  140.8820   72.8320  222.2250 N   0  0  0  0  0  0  0  0  0  0  0  0
  139.6790   72.2520  222.7260 C   0  0  0  0  0  0  0  0  0  0  0  0
  138.5640   72.5430  222.2210 O   0  0  0  0  0  0  0  0  0  0  0  0
  139.7530   71.3080  223.8420 C   0  0  0  0  0  0  0  0  0  0  0  0
  139.1910   70.0540  223.7160 C   0  0  0  0  0  0  0  0  0  0  0  0
  139.2160   69.1060  224.7180 C   0  0  0  0  0  0  0  0  0  0  0  0
  139.8430   69.4560  225.8980 C   0  0  0  0  0  0  0  0  0  0  0  0
  139.8710   68.5180  226.8970 C   0  0  0  0  0  0  0  0  0  0  0  0
  140.4890   68.8350  228.0900 C   0  0  0  0  0  0  0  0  0  0  0  0
  141.0520   70.0850  228.2220 C   0  0  0  0  0  0  0  0  0  0  0  0
  141.0330   71.0380  227.2300 C   0  0  0  0  0  0  0  0  0  0  0  0
  140.4150   70.7230  226.0360 C   0  0  0  0  0  0  0  0  0  0  0  0
  140.3510   71.6010  225.0100 N   0  0  0  0  0  0  0  0  0  0  0  0
  142.5976   79.6751  224.3563 H   0  0  0  0  0  0  0  0  0  0  0  0
  142.7952   78.7915  222.8049 H   0  0  0  0  0  0  0  0  0  0  0  0
  142.1851   80.4810  222.8049 H   0  0  0  0  0  0  0  0  0  0  0  0
  140.6574   78.5732  224.4578 H   0  0  0  0  0  0  0  0  0  0  0  0
  140.1313   79.8886  223.2751 H   0  0  0  0  0  0  0  0  0  0  0  0
  140.0391   77.1031  222.9958 H   0  0  0  0  0  0  0  0  0  0  0  0
  139.5886   78.4633  221.8446 H   0  0  0  0  0  0  0  0  0  0  0  0
  142.3229   77.8005  222.1485 H   0  0  0  0  0  0  0  0  0  0  0  0
  140.7333   78.9357  220.0278 H   0  0  0  0  0  0  0  0  0  0  0  0
  142.4468   79.1229  220.3899 H   0  0  0  0  0  0  0  0  0  0  0  0
  141.1212   77.1562  218.5204 H   0  0  0  0  0  0  0  0  0  0  0  0
  143.8240   77.9190  218.9240 H   0  0  0  0  0  0  0  0  0  0  0  0
  142.2212   75.1963  219.4330 H   0  0  0  0  0  0  0  0  0  0  0  0
  143.3728   76.1124  220.3628 H   0  0  0  0  0  0  0  0  0  0  0  0
  140.0361   73.4395  220.4299 H   0  0  0  0  0  0  0  0  0  0  0  0
  141.8057   73.7728  220.6339 H   0  0  0  0  0  0  0  0  0  0  0  0
  141.8140   72.5750  222.6620 H   0  0  0  0  0  0  0  0  0  0  0  0
  138.6973   69.7969  222.7672 H   0  0  0  0  0  0  0  0  0  0  0  0
  138.7570   68.1155  224.5832 H   0  0  0  0  0  0  0  0  0  0  0  0
  139.4093   67.5303  226.7508 H   0  0  0  0  0  0  0  0  0  0  0  0
  140.5307   68.1077  228.9142 H   0  0  0  0  0  0  0  0  0  0  0  0
  141.5442   70.3352  229.1734 H   0  0  0  0  0  0  0  0  0  0  0  0
  141.4971   72.0234  227.3837 H   0  0  0  0  0  0  0  0  0  0  0  0
  1  2  1  0
  2  3  1  0
  3  4  1  0
  4  5  1  0
  5  6  1  0
  6  7  1  0
  6  8  1  0
  8  9  1  0
  9 10  1  0
 10 11  2  0
 10 12  1  0
 12 13  1  0
 13 14  1  0
 14 15  2  0
 14 16  1  0
 16 17  2  0
 17 18  1  0
 18 19  2  0
 19 20  1  0
 20 21  2  0
 21 22  1  0
 22 23  2  0
 23 24  1  0
 24 25  2  0
  9  4  1  0
 25 16  1  0
 24 19  1  0
  1 26  1  0
  1 27  1  0
  1 28  1  0
  2 29  1  0
  2 30  1  0
  3 31  1  0
  3 32  1  0
  4 33  1  1
  5 34  1  0
  5 35  1  0
  6 36  1  6
  7 37  1  0
  8 38  1  0
  8 39  1  0
 12 40  1  0
 12 41  1  0
 13 42  1  0
 17 43  1  0
 18 44  1  0
 20 45  1  0
 21 46  1  0
 22 47  1  0
 23 48  1  0
M  END
>  <smiles>  (50) 
CCC[C@@H]1C[C@@H](O)CN1C(=O)CNC(=O)c1ccc2ccccc2n1

>  <score_type>  (50) 
oracle

>  <origin>  (50) 
autodockgpu

>  <m_score__min__energy>  (50) 
-7.9699999999999998

>  <m_primary>  (50) 
energy

>  <rmsd>  (50) 
3.1274827311499744

>  <m_score__min__rmsd>  (50) 
3.1274827311499744

>  <meeko>  (50) 
{"free_energy": -7.39, "intermolecular_energy": -9.48, "internal_energy": -0.98, "cluster_size": 44, "cluster_id": 1, "rank_in_cluster": 26}

>  <energy>  (50) 
-6.62

>  <cluster_rmsd>  (50) 
1.67

>  <cluster>  (50) 
5

$$$$
