
     RDKit          3D

 47 50  0  0  0  0  0  0  0  0999 V2000
  138.8320   71.6040  220.6450 O   0  0  0  0  0  0  0  0  0  0  0  0
  138.8940   71.9980  221.8410 C   0  0  0  0  0  0  0  0  0  0  0  0
  138.6370   73.4010  222.0400 N   0  0  0  0  0  0  0  0  0  0  0  0
  138.3450   74.1720  220.8700 C   0  0  0  0  0  0  0  0  0  0  0  0
  138.6440   75.5880  220.8490 C   0  0  0  0  0  0  0  0  0  0  0  0
  138.1980   76.2060  219.7870 O   0  0  0  0  0  0  0  0  0  0  0  0
  139.3230   76.4110  221.7560 N   0  0  0  0  0  0  0  0  0  0  0  0
  138.8300   77.4680  222.6600 C   0  0  0  0  0  0  0  0  0  0  0  0
  139.7380   78.5870  222.2490 C   0  0  0  0  0  0  0  0  0  0  0  0
  141.0380   77.9410  221.8390 C   0  0  0  0  0  0  0  0  0  0  0  0
  140.7710   76.4560  222.0300 C   0  0  2  0  0  0  0  0  0  0  0  0
  141.6000   75.6440  221.1440 C   0  0  0  0  0  0  0  0  0  0  0  0
  142.2990   76.2800  220.1100 C   0  0  0  0  0  0  0  0  0  0  0  0
  143.0680   75.5470  219.2220 C   0  0  0  0  0  0  0  0  0  0  0  0
  143.1740   74.2160  219.3150 N   0  0  0  0  0  0  0  0  0  0  0  0
  142.5200   73.5640  220.2930 C   0  0  0  0  0  0  0  0  0  0  0  0
  141.7390   74.2760  221.2000 C   0  0  0  0  0  0  0  0  0  0  0  0
  139.1950   71.1440  222.9660 C   0  0  0  0  0  0  0  0  0  0  0  0
  138.8610   69.8090  222.8990 C   0  0  0  0  0  0  0  0  0  0  0  0
  139.1690   69.0290  223.9990 C   0  0  0  0  0  0  0  0  0  0  0  0
  139.7800   69.5230  225.1280 C   0  0  0  0  0  0  0  0  0  0  0  0
  140.0880   68.7480  226.2280 C   0  0  0  0  0  0  0  0  0  0  0  0
  140.7020   69.3750  227.2980 C   0  0  0  0  0  0  0  0  0  0  0  0
  141.1050   68.4000  228.7150 Cl  0  0  0  0  0  0  0  0  0  0  0  0
  141.0130   70.7100  227.3130 C   0  0  0  0  0  0  0  0  0  0  0  0
  140.7030   71.4820  226.2100 C   0  0  0  0  0  0  0  0  0  0  0  0
  140.0870   70.8770  225.1270 C   0  0  0  0  0  0  0  0  0  0  0  0
  139.8010   71.6730  224.0670 N   0  0  0  0  0  0  0  0  0  0  0  0
  138.6770   73.7720  223.0110 H   0  0  0  0  0  0  0  0  0  0  0  0
  138.9046   73.7159  220.0400 H   0  0  0  0  0  0  0  0  0  0  0  0
  137.2469   74.1421  220.8121 H   0  0  0  0  0  0  0  0  0  0  0  0
  137.7728   77.7076  222.4734 H   0  0  0  0  0  0  0  0  0  0  0  0
  138.8514   77.2164  223.7306 H   0  0  0  0  0  0  0  0  0  0  0  0
  139.3034   79.1405  221.4036 H   0  0  0  0  0  0  0  0  0  0  0  0
  139.8870   79.3056  223.0684 H   0  0  0  0  0  0  0  0  0  0  0  0
  141.2751   78.1662  220.7887 H   0  0  0  0  0  0  0  0  0  0  0  0
  141.8983   78.3006  222.4225 H   0  0  0  0  0  0  0  0  0  0  0  0
  141.0270   76.0380  223.0148 H   0  0  0  0  0  0  0  0  0  0  0  0
  142.2363   77.3729  220.0024 H   0  0  0  0  0  0  0  0  0  0  0  0
  143.6059   76.0723  218.4191 H   0  0  0  0  0  0  0  0  0  0  0  0
  142.6019   72.4702  220.3763 H   0  0  0  0  0  0  0  0  0  0  0  0
  141.2126   73.7233  221.9921 H   0  0  0  0  0  0  0  0  0  0  0  0
  138.3715   69.3827  222.0109 H   0  0  0  0  0  0  0  0  0  0  0  0
  138.9124   67.9598  223.9694 H   0  0  0  0  0  0  0  0  0  0  0  0
  139.8544   67.6734  226.2531 H   0  0  0  0  0  0  0  0  0  0  0  0
  141.5019   71.1597  228.1898 H   0  0  0  0  0  0  0  0  0  0  0  0
  140.9407   72.5559  226.1923 H   0  0  0  0  0  0  0  0  0  0  0  0
  1  2  2  0
  2  3  1  0
  3  4  1  0
  4  5  1  0
  5  6  2  0
  5  7  1  0
  7  8  1  0
  8  9  1  0
  9 10  1  0
 10 11  1  0
 11 12  1  0
 12 13  2  0
 13 14  1  0
 14 15  2  0
 15 16  1  0
 16 17  2  0
  2 18  1  0
 18 19  2  0
 19 20  1  0
 20 21  2  0
 21 22  1  0
 22 23  2  0
 23 24  1  0
 23 25  1  0
 25 26  2  0
 26 27  1  0
 27 28  2  0
 11  7  1  0
 17 12  1  0
 28 18  1  0
 27 21  1  0
  3 29  1  0
  4 30  1  0
  4 31  1  0
  8 32  1  0
  8 33  1  0
  9 34  1  0
  9 35  1  0
 10 36  1  0
 10 37  1  0
 11 38  1  1
 13 39  1  0
 14 40  1  0
 16 41  1  0
 17 42  1  0
 19 43  1  0
 20 44  1  0
 22 45  1  0
 25 46  1  0
 26 47  1  0
M  END
>  <smiles>  (1) 
O=C(NCC(=O)N1CCCC1c1ccncc1)c1ccc2cc(Cl)ccc2n1

>  <score_type>  (1) 
oracle

>  <origin>  (1) 
autodockgpu

>  <m_score__min__energy>  (1) 
-8.25

>  <m_primary>  (1) 
energy

>  <rmsd>  (1) 
2.5542482371308277

>  <m_score__min__rmsd>  (1) 
2.5542482371308277

>  <meeko>  (1) 
{"free_energy": -7.24, "intermolecular_energy": -8.73, "internal_energy": -1.74, "cluster_size": 3, "cluster_id": 4, "rank_in_cluster": 3}

>  <energy>  (1) 
-8.25

>  <cluster_rmsd>  (1) 
0.0

>  <cluster>  (1) 
1

$$$$

     RDKit          3D

 47 50  0  0  0  0  0  0  0  0999 V2000
  140.5330   72.3850  220.3340 O   0  0  0  0  0  0  0  0  0  0  0  0
  140.3680   72.7380  221.5320 C   0  0  0  0  0  0  0  0  0  0  0  0
  140.3200   74.1610  221.7520 N   0  0  0  0  0  0  0  0  0  0  0  0
  140.4640   74.9940  220.5970 C   0  0  0  0  0  0  0  0  0  0  0  0
  141.2620   76.1990  220.6750 C   0  0  0  0  0  0  0  0  0  0  0  0
  141.1210   76.8540  221.7980 O   0  0  0  0  0  0  0  0  0  0  0  0
  142.1540   76.7870  219.7700 N   0  0  0  0  0  0  0  0  0  0  0  0
  142.1090   78.0880  219.0750 C   0  0  0  0  0  0  0  0  0  0  0  0
  142.2930   77.6200  217.6640 C   0  0  0  0  0  0  0  0  0  0  0  0
  143.1610   76.3880  217.7420 C   0  0  0  0  0  0  0  0  0  0  0  0
  143.4050   76.2210  219.2330 C   0  0  2  0  0  0  0  0  0  0  0  0
  143.6600   74.8270  219.5820 C   0  0  0  0  0  0  0  0  0  0  0  0
  144.6600   74.5430  220.5220 C   0  0  0  0  0  0  0  0  0  0  0  0
  144.9620   73.2340  220.8570 C   0  0  0  0  0  0  0  0  0  0  0  0
  144.3200   72.1980  220.3030 N   0  0  0  0  0  0  0  0  0  0  0  0
  143.3530   72.4250  219.3960 C   0  0  0  0  0  0  0  0  0  0  0  0
  143.0280   73.7310  219.0400 C   0  0  0  0  0  0  0  0  0  0  0  0
  140.2290   71.8230  222.6410 C   0  0  0  0  0  0  0  0  0  0  0  0
  139.6370   70.5980  222.4240 C   0  0  0  0  0  0  0  0  0  0  0  0
  139.5260   69.7530  223.5150 C   0  0  0  0  0  0  0  0  0  0  0  0
  139.9720   70.0830  224.7730 C   0  0  0  0  0  0  0  0  0  0  0  0
  139.8620   69.2430  225.8640 C   0  0  0  0  0  0  0  0  0  0  0  0
  140.3530   69.7010  227.0730 C   0  0  0  0  0  0  0  0  0  0  0  0
  140.2230   68.6410  228.4810 Cl  0  0  0  0  0  0  0  0  0  0  0  0
  140.9340   70.9330  227.2340 C   0  0  0  0  0  0  0  0  0  0  0  0
  141.0420   71.7700  226.1400 C   0  0  0  0  0  0  0  0  0  0  0  0
  140.5580   71.3340  224.9190 C   0  0  0  0  0  0  0  0  0  0  0  0
  140.6840   72.1880  223.8740 N   0  0  0  0  0  0  0  0  0  0  0  0
  140.1840   74.5000  222.7260 H   0  0  0  0  0  0  0  0  0  0  0  0
  140.9063   74.3695  219.8069 H   0  0  0  0  0  0  0  0  0  0  0  0
  139.4454   75.3728  220.4268 H   0  0  0  0  0  0  0  0  0  0  0  0
  141.1435   78.5958  219.2165 H   0  0  0  0  0  0  0  0  0  0  0  0
  142.8430   78.8302  219.4220 H   0  0  0  0  0  0  0  0  0  0  0  0
  141.3202   77.3738  217.2134 H   0  0  0  0  0  0  0  0  0  0  0  0
  142.7552   78.3985  217.0392 H   0  0  0  0  0  0  0  0  0  0  0  0
  142.6393   75.5124  217.3283 H   0  0  0  0  0  0  0  0  0  0  0  0
  144.0916   76.4817  217.1630 H   0  0  0  0  0  0  0  0  0  0  0  0
  144.3000   76.7159  219.6380 H   0  0  0  0  0  0  0  0  0  0  0  0
  145.2102   75.3680  220.9982 H   0  0  0  0  0  0  0  0  0  0  0  0
  145.7509   73.0399  221.5986 H   0  0  0  0  0  0  0  0  0  0  0  0
  142.8197   71.5799  218.9362 H   0  0  0  0  0  0  0  0  0  0  0  0
  142.2344   73.8935  218.2958 H   0  0  0  0  0  0  0  0  0  0  0  0
  139.2694   70.3048  221.4295 H   0  0  0  0  0  0  0  0  0  0  0  0
  139.0577   68.7686  223.3681 H   0  0  0  0  0  0  0  0  0  0  0  0
  139.4016   68.2480  225.7746 H   0  0  0  0  0  0  0  0  0  0  0  0
  141.3081   71.2497  228.2187 H   0  0  0  0  0  0  0  0  0  0  0  0
  141.5037   72.7636  226.2377 H   0  0  0  0  0  0  0  0  0  0  0  0
  1  2  2  0
  2  3  1  0
  3  4  1  0
  4  5  1  0
  5  6  2  0
  5  7  1  0
  7  8  1  0
  8  9  1  0
  9 10  1  0
 10 11  1  0
 11 12  1  0
 12 13  2  0
 13 14  1  0
 14 15  2  0
 15 16  1  0
 16 17  2  0
  2 18  1  0
 18 19  2  0
 19 20  1  0
 20 21  2  0
 21 22  1  0
 22 23  2  0
 23 24  1  0
 23 25  1  0
 25 26  2  0
 26 27  1  0
 27 28  2  0
 11  7  1  0
 17 12  1  0
 28 18  1  0
 27 21  1  0
  3 29  1  0
  4 30  1  0
  4 31  1  0
  8 32  1  0
  8 33  1  0
  9 34  1  0
  9 35  1  0
 10 36  1  0
 10 37  1  0
 11 38  1  1
 13 39  1  0
 14 40  1  0
 16 41  1  0
 17 42  1  0
 19 43  1  0
 20 44  1  0
 22 45  1  0
 25 46  1  0
 26 47  1  0
M  END
>  <smiles>  (2) 
O=C(NCC(=O)N1CCCC1c1ccncc1)c1ccc2cc(Cl)ccc2n1

>  <score_type>  (2) 
oracle

>  <origin>  (2) 
autodockgpu

>  <m_score__min__energy>  (2) 
-8.25

>  <m_primary>  (2) 
energy

>  <rmsd>  (2) 
2.5217815362373144

>  <m_score__min__rmsd>  (2) 
2.5217815362373144

>  <meeko>  (2) 
{"free_energy": -7.26, "intermolecular_energy": -8.75, "internal_energy": -1.87, "cluster_size": 15, "cluster_id": 1, "rank_in_cluster": 14}

>  <energy>  (2) 
-8.25

>  <cluster_rmsd>  (2) 
0.1

>  <cluster>  (2) 
1

$$$$

     RDKit          3D

 47 50  0  0  0  0  0  0  0  0999 V2000
  140.8600   72.6990  221.2620 O   0  0  0  0  0  0  0  0  0  0  0  0
  140.0250   72.6590  222.2050 C   0  0  0  0  0  0  0  0  0  0  0  0
  139.0210   73.6920  222.1800 N   0  0  0  0  0  0  0  0  0  0  0  0
  139.0910   74.6290  221.1010 C   0  0  0  0  0  0  0  0  0  0  0  0
  140.2280   75.5190  220.9930 C   0  0  0  0  0  0  0  0  0  0  0  0
  141.0390   75.4640  222.0180 O   0  0  0  0  0  0  0  0  0  0  0  0
  140.6140   76.4230  219.9970 N   0  0  0  0  0  0  0  0  0  0  0  0
  140.9730   76.2090  218.5810 C   0  0  0  0  0  0  0  0  0  0  0  0
  142.3000   76.9020  218.5560 C   0  0  0  0  0  0  0  0  0  0  0  0
  142.2050   78.0250  219.5600 C   0  0  0  0  0  0  0  0  0  0  0  0
  140.7990   77.8810  220.1190 C   0  0  2  0  0  0  0  0  0  0  0  0
  140.7050   78.4110  221.4760 C   0  0  0  0  0  0  0  0  0  0  0  0
  141.8880   78.6550  222.1840 C   0  0  0  0  0  0  0  0  0  0  0  0
  141.8480   79.1230  223.4870 C   0  0  0  0  0  0  0  0  0  0  0  0
  140.6900   79.3570  224.1150 N   0  0  0  0  0  0  0  0  0  0  0  0
  139.5290   79.1370  223.4730 C   0  0  0  0  0  0  0  0  0  0  0  0
  139.5400   78.6670  222.1630 C   0  0  0  0  0  0  0  0  0  0  0  0
  140.0290   71.6700  223.2580 C   0  0  0  0  0  0  0  0  0  0  0  0
  139.5280   70.4140  222.9950 C   0  0  0  0  0  0  0  0  0  0  0  0
  139.5530   69.4990  224.0320 C   0  0  0  0  0  0  0  0  0  0  0  0
  140.0460   69.7890  225.2830 C   0  0  0  0  0  0  0  0  0  0  0  0
  140.0720   68.8790  226.3210 C   0  0  0  0  0  0  0  0  0  0  0  0
  140.5960   69.3040  227.5290 C   0  0  0  0  0  0  0  0  0  0  0  0
  140.6390   68.1540  228.8690 Cl  0  0  0  0  0  0  0  0  0  0  0  0
  141.0830   70.5690  227.7370 C   0  0  0  0  0  0  0  0  0  0  0  0
  141.0550   71.4770  226.6960 C   0  0  0  0  0  0  0  0  0  0  0  0
  140.5350   71.0750  225.4770 C   0  0  0  0  0  0  0  0  0  0  0  0
  140.5270   71.9980  224.4840 N   0  0  0  0  0  0  0  0  0  0  0  0
  138.3100   73.7000  222.9390 H   0  0  0  0  0  0  0  0  0  0  0  0
  139.0540   74.0452  220.1694 H   0  0  0  0  0  0  0  0  0  0  0  0
  138.2515   75.3111  221.3009 H   0  0  0  0  0  0  0  0  0  0  0  0
  141.0635   75.1401  218.3375 H   0  0  0  0  0  0  0  0  0  0  0  0
  140.2380   76.5778  217.8504 H   0  0  0  0  0  0  0  0  0  0  0  0
  143.1009   76.2033  218.8394 H   0  0  0  0  0  0  0  0  0  0  0  0
  142.5366   77.2808  217.5507 H   0  0  0  0  0  0  0  0  0  0  0  0
  142.9578   77.9081  220.3535 H   0  0  0  0  0  0  0  0  0  0  0  0
  142.3911   79.0142  219.1162 H   0  0  0  0  0  0  0  0  0  0  0  0
  140.0104   78.4504  219.6052 H   0  0  0  0  0  0  0  0  0  0  0  0
  142.8592   78.4732  221.7005 H   0  0  0  0  0  0  0  0  0  0  0  0
  142.7929   79.3071  224.0193 H   0  0  0  0  0  0  0  0  0  0  0  0
  138.5728   79.3281  223.9821 H   0  0  0  0  0  0  0  0  0  0  0  0
  138.5792   78.4932  221.6564 H   0  0  0  0  0  0  0  0  0  0  0  0
  139.1264   70.1507  222.0054 H   0  0  0  0  0  0  0  0  0  0  0  0
  139.1589   68.4888  223.8470 H   0  0  0  0  0  0  0  0  0  0  0  0
  139.6907   67.8552  226.1925 H   0  0  0  0  0  0  0  0  0  0  0  0
  141.4898   70.8564  228.7178 H   0  0  0  0  0  0  0  0  0  0  0  0
  141.4381   72.4990  226.8327 H   0  0  0  0  0  0  0  0  0  0  0  0
  1  2  2  0
  2  3  1  0
  3  4  1  0
  4  5  1  0
  5  6  2  0
  5  7  1  0
  7  8  1  0
  8  9  1  0
  9 10  1  0
 10 11  1  0
 11 12  1  0
 12 13  2  0
 13 14  1  0
 14 15  2  0
 15 16  1  0
 16 17  2  0
  2 18  1  0
 18 19  2  0
 19 20  1  0
 20 21  2  0
 21 22  1  0
 22 23  2  0
 23 24  1  0
 23 25  1  0
 25 26  2  0
 26 27  1  0
 27 28  2  0
 11  7  1  0
 17 12  1  0
 28 18  1  0
 27 21  1  0
  3 29  1  0
  4 30  1  0
  4 31  1  0
  8 32  1  0
  8 33  1  0
  9 34  1  0
  9 35  1  0
 10 36  1  0
 10 37  1  0
 11 38  1  6
 13 39  1  0
 14 40  1  0
 16 41  1  0
 17 42  1  0
 19 43  1  0
 20 44  1  0
 22 45  1  0
 25 46  1  0
 26 47  1  0
M  END
>  <smiles>  (3) 
O=C(NCC(=O)N1CCCC1c1ccncc1)c1ccc2cc(Cl)ccc2n1

>  <score_type>  (3) 
oracle

>  <origin>  (3) 
autodockgpu

>  <m_score__min__energy>  (3) 
-8.25

>  <m_primary>  (3) 
energy

>  <rmsd>  (3) 
1.6729249645330413

>  <m_score__min__rmsd>  (3) 
1.6729249645330413

>  <meeko>  (3) 
{"free_energy": -8.15, "intermolecular_energy": -9.64, "internal_energy": -1.24, "cluster_size": 20, "cluster_id": 2, "rank_in_cluster": 5}

>  <energy>  (3) 
-8.24

>  <cluster_rmsd>  (3) 
0.2

>  <cluster>  (3) 
1

$$$$

     RDKit          3D

 47 50  0  0  0  0  0  0  0  0999 V2000
  140.2990   72.4700  220.7290 O   0  0  0  0  0  0  0  0  0  0  0  0
  139.9100   72.7120  221.9030 C   0  0  0  0  0  0  0  0  0  0  0  0
  139.3940   74.0400  222.1170 N   0  0  0  0  0  0  0  0  0  0  0  0
  139.3840   74.9150  220.9850 C   0  0  0  0  0  0  0  0  0  0  0  0
  140.4960   75.8140  220.7620 C   0  0  0  0  0  0  0  0  0  0  0  0
  141.4750   75.6650  221.6160 O   0  0  0  0  0  0  0  0  0  0  0  0
  140.7120   76.8100  219.8030 N   0  0  0  0  0  0  0  0  0  0  0  0
  140.8500   76.7280  218.3350 C   0  0  0  0  0  0  0  0  0  0  0  0
  142.1490   77.4550  218.1690 C   0  0  0  0  0  0  0  0  0  0  0  0
  142.1970   78.4840  219.2710 C   0  0  0  0  0  0  0  0  0  0  0  0
  140.8970   78.2570  220.0240 C   0  0  2  0  0  0  0  0  0  0  0  0
  141.0070   78.6650  221.4210 C   0  0  0  0  0  0  0  0  0  0  0  0
  139.8370   78.7600  222.1860 C   0  0  0  0  0  0  0  0  0  0  0  0
  139.8880   79.1790  223.5060 C   0  0  0  0  0  0  0  0  0  0  0  0
  141.0440   79.5070  224.0960 N   0  0  0  0  0  0  0  0  0  0  0  0
  142.1920   79.4310  223.3980 C   0  0  0  0  0  0  0  0  0  0  0  0
  142.1700   79.0130  222.0700 C   0  0  0  0  0  0  0  0  0  0  0  0
  139.9560   71.7620  222.9900 C   0  0  0  0  0  0  0  0  0  0  0  0
  139.5000   70.4800  222.7740 C   0  0  0  0  0  0  0  0  0  0  0  0
  139.5640   69.6040  223.8430 C   0  0  0  0  0  0  0  0  0  0  0  0
  140.0520   69.9560  225.0800 C   0  0  0  0  0  0  0  0  0  0  0  0
  140.1160   69.0850  226.1490 C   0  0  0  0  0  0  0  0  0  0  0  0
  140.6300   69.5710  227.3380 C   0  0  0  0  0  0  0  0  0  0  0  0
  140.7220   68.4720  228.7180 Cl  0  0  0  0  0  0  0  0  0  0  0  0
  141.0710   70.8600  227.4980 C   0  0  0  0  0  0  0  0  0  0  0  0
  141.0040   71.7290  226.4260 C   0  0  0  0  0  0  0  0  0  0  0  0
  140.4940   71.2640  225.2260 C   0  0  0  0  0  0  0  0  0  0  0  0
  140.4470   72.1510  224.2010 N   0  0  0  0  0  0  0  0  0  0  0  0
  139.0610   74.2860  223.0720 H   0  0  0  0  0  0  0  0  0  0  0  0
  139.3043   74.2788  220.0912 H   0  0  0  0  0  0  0  0  0  0  0  0
  138.5445   75.5942  221.1946 H   0  0  0  0  0  0  0  0  0  0  0  0
  140.9148   75.6868  217.9863 H   0  0  0  0  0  0  0  0  0  0  0  0
  140.0063   77.1390  217.7613 H   0  0  0  0  0  0  0  0  0  0  0  0
  142.9926   76.7554  218.2631 H   0  0  0  0  0  0  0  0  0  0  0  0
  142.2223   77.9250  217.1772 H   0  0  0  0  0  0  0  0  0  0  0  0
  143.0650   78.3185  219.9261 H   0  0  0  0  0  0  0  0  0  0  0  0
  142.2999   79.5120  218.8935 H   0  0  0  0  0  0  0  0  0  0  0  0
  140.0325   78.8492  219.6894 H   0  0  0  0  0  0  0  0  0  0  0  0
  138.8684   78.4994  221.7344 H   0  0  0  0  0  0  0  0  0  0  0  0
  138.9543   79.2437  224.0839 H   0  0  0  0  0  0  0  0  0  0  0  0
  143.1460   79.6986  223.8757 H   0  0  0  0  0  0  0  0  0  0  0  0
  143.1197   78.9587  221.5176 H   0  0  0  0  0  0  0  0  0  0  0  0
  139.1034   70.1673  221.7968 H   0  0  0  0  0  0  0  0  0  0  0  0
  139.2066   68.5741  223.6963 H   0  0  0  0  0  0  0  0  0  0  0  0
  139.7715   68.0442  226.0590 H   0  0  0  0  0  0  0  0  0  0  0  0
  141.4720   71.1968  228.4654 H   0  0  0  0  0  0  0  0  0  0  0  0
  141.3488   72.7689  226.5240 H   0  0  0  0  0  0  0  0  0  0  0  0
  1  2  2  0
  2  3  1  0
  3  4  1  0
  4  5  1  0
  5  6  2  0
  5  7  1  0
  7  8  1  0
  8  9  1  0
  9 10  1  0
 10 11  1  0
 11 12  1  0
 12 13  2  0
 13 14  1  0
 14 15  2  0
 15 16  1  0
 16 17  2  0
  2 18  1  0
 18 19  2  0
 19 20  1  0
 20 21  2  0
 21 22  1  0
 22 23  2  0
 23 24  1  0
 23 25  1  0
 25 26  2  0
 26 27  1  0
 27 28  2  0
 11  7  1  0
 17 12  1  0
 28 18  1  0
 27 21  1  0
  3 29  1  0
  4 30  1  0
  4 31  1  0
  8 32  1  0
  8 33  1  0
  9 34  1  0
  9 35  1  0
 10 36  1  0
 10 37  1  0
 11 38  1  6
 13 39  1  0
 14 40  1  0
 16 41  1  0
 17 42  1  0
 19 43  1  0
 20 44  1  0
 22 45  1  0
 25 46  1  0
 26 47  1  0
M  END
>  <smiles>  (4) 
O=C(NCC(=O)N1CCCC1c1ccncc1)c1ccc2cc(Cl)ccc2n1

>  <score_type>  (4) 
oracle

>  <origin>  (4) 
autodockgpu

>  <m_score__min__energy>  (4) 
-8.25

>  <m_primary>  (4) 
energy

>  <rmsd>  (4) 
1.8052091220392592

>  <m_score__min__rmsd>  (4) 
1.8052091220392592

>  <meeko>  (4) 
{"free_energy": -8.04, "intermolecular_energy": -9.53, "internal_energy": -1.34, "cluster_size": 20, "cluster_id": 2, "rank_in_cluster": 12}

>  <energy>  (4) 
-8.06

>  <cluster_rmsd>  (4) 
0.9

>  <cluster>  (4) 
1

$$$$

     RDKit          3D

 47 50  0  0  0  0  0  0  0  0999 V2000
  140.6930   72.4750  220.7410 O   0  0  0  0  0  0  0  0  0  0  0  0
  140.2890   72.7630  221.9000 C   0  0  0  0  0  0  0  0  0  0  0  0
  139.9280   74.1430  222.1000 N   0  0  0  0  0  0  0  0  0  0  0  0
  140.0690   75.0130  220.9720 C   0  0  0  0  0  0  0  0  0  0  0  0
  140.9860   76.1310  221.0380 C   0  0  0  0  0  0  0  0  0  0  0  0
  141.1820   76.5820  222.2490 O   0  0  0  0  0  0  0  0  0  0  0  0
  141.6960   76.8140  220.0430 N   0  0  0  0  0  0  0  0  0  0  0  0
  141.4260   78.1000  219.3710 C   0  0  0  0  0  0  0  0  0  0  0  0
  141.4990   77.6520  217.9440 C   0  0  0  0  0  0  0  0  0  0  0  0
  142.5030   76.5270  217.9090 C   0  0  0  0  0  0  0  0  0  0  0  0
  142.9330   76.3920  219.3610 C   0  0  2  0  0  0  0  0  0  0  0  0
  143.3820   75.0360  219.6640 C   0  0  0  0  0  0  0  0  0  0  0  0
  144.5190   74.8700  220.4650 C   0  0  0  0  0  0  0  0  0  0  0  0
  145.0030   73.6040  220.7490 C   0  0  0  0  0  0  0  0  0  0  0  0
  144.4120   72.5010  220.2750 N   0  0  0  0  0  0  0  0  0  0  0  0
  143.3180   72.6140  219.5010 C   0  0  0  0  0  0  0  0  0  0  0  0
  142.8090   73.8740  219.2000 C   0  0  0  0  0  0  0  0  0  0  0  0
  140.1770   71.8140  222.9830 C   0  0  0  0  0  0  0  0  0  0  0  0
  139.5600   70.6040  222.7490 C   0  0  0  0  0  0  0  0  0  0  0  0
  139.4760   69.7270  223.8150 C   0  0  0  0  0  0  0  0  0  0  0  0
  139.9700   70.0090  225.0670 C   0  0  0  0  0  0  0  0  0  0  0  0
  139.8870   69.1360  226.1330 C   0  0  0  0  0  0  0  0  0  0  0  0
  140.4270   69.5490  227.3390 C   0  0  0  0  0  0  0  0  0  0  0  0
  140.3310   68.4460  228.7160 Cl  0  0  0  0  0  0  0  0  0  0  0  0
  141.0300   70.7670  227.5170 C   0  0  0  0  0  0  0  0  0  0  0  0
  141.1110   71.6380  226.4480 C   0  0  0  0  0  0  0  0  0  0  0  0
  140.5780   71.2470  225.2310 C   0  0  0  0  0  0  0  0  0  0  0  0
  140.6800   72.1330  224.2100 N   0  0  0  0  0  0  0  0  0  0  0  0
  139.5880   74.4270  223.0410 H   0  0  0  0  0  0  0  0  0  0  0  0
  140.3888   74.3879  220.1252 H   0  0  0  0  0  0  0  0  0  0  0  0
  139.0831   75.4949  220.8958 H   0  0  0  0  0  0  0  0  0  0  0  0
  140.4321   78.4961  219.6266 H   0  0  0  0  0  0  0  0  0  0  0  0
  142.1067   78.9212  219.6398 H   0  0  0  0  0  0  0  0  0  0  0  0
  140.5150   77.2960  217.6049 H   0  0  0  0  0  0  0  0  0  0  0  0
  141.7961   78.4763  217.2790 H   0  0  0  0  0  0  0  0  0  0  0  0
  142.0395   75.5971  217.5478 H   0  0  0  0  0  0  0  0  0  0  0  0
  143.3447   76.7241  217.2288 H   0  0  0  0  0  0  0  0  0  0  0  0
  143.8069   76.9860  219.6667 H   0  0  0  0  0  0  0  0  0  0  0  0
  145.0323   75.7536  220.8723 H   0  0  0  0  0  0  0  0  0  0  0  0
  145.8974   73.5023  221.3813 H   0  0  0  0  0  0  0  0  0  0  0  0
  142.8264   71.7124  219.1066 H   0  0  0  0  0  0  0  0  0  0  0  0
  141.9129   73.9438  218.5659 H   0  0  0  0  0  0  0  0  0  0  0  0
  139.1530   70.3476  221.7597 H   0  0  0  0  0  0  0  0  0  0  0  0
  138.9891   68.7540  223.6531 H   0  0  0  0  0  0  0  0  0  0  0  0
  139.4102   68.1502  226.0283 H   0  0  0  0  0  0  0  0  0  0  0  0
  141.4435   71.0468  228.4972 H   0  0  0  0  0  0  0  0  0  0  0  0
  141.5891   72.6222  226.5610 H   0  0  0  0  0  0  0  0  0  0  0  0
  1  2  2  0
  2  3  1  0
  3  4  1  0
  4  5  1  0
  5  6  2  0
  5  7  1  0
  7  8  1  0
  8  9  1  0
  9 10  1  0
 10 11  1  0
 11 12  1  0
 12 13  2  0
 13 14  1  0
 14 15  2  0
 15 16  1  0
 16 17  2  0
  2 18  1  0
 18 19  2  0
 19 20  1  0
 20 21  2  0
 21 22  1  0
 22 23  2  0
 23 24  1  0
 23 25  1  0
 25 26  2  0
 26 27  1  0
 27 28  2  0
 11  7  1  0
 17 12  1  0
 28 18  1  0
 27 21  1  0
  3 29  1  0
  4 30  1  0
  4 31  1  0
  8 32  1  0
  8 33  1  0
  9 34  1  0
  9 35  1  0
 10 36  1  0
 10 37  1  0
 11 38  1  6
 13 39  1  0
 14 40  1  0
 16 41  1  0
 17 42  1  0
 19 43  1  0
 20 44  1  0
 22 45  1  0
 25 46  1  0
 26 47  1  0
M  END
>  <smiles>  (5) 
O=C(NCC(=O)N1CCCC1c1ccncc1)c1ccc2cc(Cl)ccc2n1

>  <score_type>  (5) 
oracle

>  <origin>  (5) 
autodockgpu

>  <m_score__min__energy>  (5) 
-8.25

>  <m_primary>  (5) 
energy

>  <rmsd>  (5) 
2.2343411693113375

>  <m_score__min__rmsd>  (5) 
2.2343411693113375

>  <meeko>  (5) 
{"free_energy": -7.69, "intermolecular_energy": -9.18, "internal_energy": -1.71, "cluster_size": 15, "cluster_id": 1, "rank_in_cluster": 6}

>  <energy>  (5) 
-8.03

>  <cluster_rmsd>  (5) 
0.97

>  <cluster>  (5) 
1

$$$$

     RDKit          3D

 47 50  0  0  0  0  0  0  0  0999 V2000
  140.9380   72.6700  221.4450 O   0  0  0  0  0  0  0  0  0  0  0  0
  140.0580   72.5870  222.3440 C   0  0  0  0  0  0  0  0  0  0  0  0
  138.9980   73.5590  222.2560 N   0  0  0  0  0  0  0  0  0  0  0  0
  139.0700   74.4910  221.1730 C   0  0  0  0  0  0  0  0  0  0  0  0
  140.1360   75.4680  221.1350 C   0  0  0  0  0  0  0  0  0  0  0  0
  140.8400   75.5250  222.2360 O   0  0  0  0  0  0  0  0  0  0  0  0
  140.5480   76.3610  220.1390 N   0  0  0  0  0  0  0  0  0  0  0  0
  140.8760   76.1410  218.7160 C   0  0  0  0  0  0  0  0  0  0  0  0
  142.2330   76.7730  218.6750 C   0  0  0  0  0  0  0  0  0  0  0  0
  142.2040   77.8920  219.6870 C   0  0  0  0  0  0  0  0  0  0  0  0
  140.8020   77.8090  220.2670 C   0  0  2  0  0  0  0  0  0  0  0  0
  140.7520   78.3330  221.6290 C   0  0  0  0  0  0  0  0  0  0  0  0
  139.5000   78.5700  222.2100 C   0  0  0  0  0  0  0  0  0  0  0  0
  139.4020   79.1020  223.4850 C   0  0  0  0  0  0  0  0  0  0  0  0
  140.4880   79.4060  224.2060 N   0  0  0  0  0  0  0  0  0  0  0  0
  141.7110   79.1940  223.6870 C   0  0  0  0  0  0  0  0  0  0  0  0
  141.8380   78.6610  222.4070 C   0  0  0  0  0  0  0  0  0  0  0  0
  140.0650   71.6070  223.4050 C   0  0  0  0  0  0  0  0  0  0  0  0
  139.5670   70.3470  223.1520 C   0  0  0  0  0  0  0  0  0  0  0  0
  139.5950   69.4410  224.1980 C   0  0  0  0  0  0  0  0  0  0  0  0
  140.0870   69.7440  225.4460 C   0  0  0  0  0  0  0  0  0  0  0  0
  140.1150   68.8420  226.4920 C   0  0  0  0  0  0  0  0  0  0  0  0
  140.6380   69.2790  227.6960 C   0  0  0  0  0  0  0  0  0  0  0  0
  140.6830   68.1410  229.0460 Cl  0  0  0  0  0  0  0  0  0  0  0  0
  141.1200   70.5470  227.8930 C   0  0  0  0  0  0  0  0  0  0  0  0
  141.0900   71.4460  226.8450 C   0  0  0  0  0  0  0  0  0  0  0  0
  140.5720   71.0320  225.6290 C   0  0  0  0  0  0  0  0  0  0  0  0
  140.5620   71.9470  224.6280 N   0  0  0  0  0  0  0  0  0  0  0  0
  138.2480   73.5290  222.9770 H   0  0  0  0  0  0  0  0  0  0  0  0
  139.1467   73.8998  220.2486 H   0  0  0  0  0  0  0  0  0  0  0  0
  138.1664   75.1045  221.3040 H   0  0  0  0  0  0  0  0  0  0  0  0
  140.9139   75.0709  218.4643 H   0  0  0  0  0  0  0  0  0  0  0  0
  140.1478   76.5483  217.9991 H   0  0  0  0  0  0  0  0  0  0  0  0
  143.0053   76.0367  218.9420 H   0  0  0  0  0  0  0  0  0  0  0  0
  142.4718   77.1473  217.6686 H   0  0  0  0  0  0  0  0  0  0  0  0
  142.9626   77.7356  220.4681 H   0  0  0  0  0  0  0  0  0  0  0  0
  142.4279   78.8746  219.2460 H   0  0  0  0  0  0  0  0  0  0  0  0
  140.0334   78.4182  219.7688 H   0  0  0  0  0  0  0  0  0  0  0  0
  138.5851   78.3312  221.6480 H   0  0  0  0  0  0  0  0  0  0  0  0
  138.4057   79.2793  223.9163 H   0  0  0  0  0  0  0  0  0  0  0  0
  142.6087   79.4412  224.2727 H   0  0  0  0  0  0  0  0  0  0  0  0
  142.8471   78.4956  222.0017 H   0  0  0  0  0  0  0  0  0  0  0  0
  139.1660   70.0741  222.1647 H   0  0  0  0  0  0  0  0  0  0  0  0
  139.2042   68.4279  224.0223 H   0  0  0  0  0  0  0  0  0  0  0  0
  139.7362   67.8162  226.3723 H   0  0  0  0  0  0  0  0  0  0  0  0
  141.5248   70.8442  228.8717 H   0  0  0  0  0  0  0  0  0  0  0  0
  141.4699   72.4703  226.9735 H   0  0  0  0  0  0  0  0  0  0  0  0
  1  2  2  0
  2  3  1  0
  3  4  1  0
  4  5  1  0
  5  6  2  0
  5  7  1  0
  7  8  1  0
  8  9  1  0
  9 10  1  0
 10 11  1  0
 11 12  1  0
 12 13  2  0
 13 14  1  0
 14 15  2  0
 15 16  1  0
 16 17  2  0
  2 18  1  0
 18 19  2  0
 19 20  1  0
 20 21  2  0
 21 22  1  0
 22 23  2  0
 23 24  1  0
 23 25  1  0
 25 26  2  0
 26 27  1  0
 27 28  2  0
 11  7  1  0
 17 12  1  0
 28 18  1  0
 27 21  1  0
  3 29  1  0
  4 30  1  0
  4 31  1  0
  8 32  1  0
  8 33  1  0
  9 34  1  0
  9 35  1  0
 10 36  1  0
 10 37  1  0
 11 38  1  6
 13 39  1  0
 14 40  1  0
 16 41  1  0
 17 42  1  0
 19 43  1  0
 20 44  1  0
 22 45  1  0
 25 46  1  0
 26 47  1  0
M  END
>  <smiles>  (6) 
O=C(NCC(=O)N1CCCC1c1ccncc1)c1ccc2cc(Cl)ccc2n1

>  <score_type>  (6) 
oracle

>  <origin>  (6) 
autodockgpu

>  <m_score__min__energy>  (6) 
-8.25

>  <m_primary>  (6) 
energy

>  <rmsd>  (6) 
1.6370582040101445

>  <m_score__min__rmsd>  (6) 
1.6370582040101445

>  <meeko>  (6) 
{"free_energy": -8.2, "intermolecular_energy": -9.69, "internal_energy": -1.2, "cluster_size": 20, "cluster_id": 2, "rank_in_cluster": 1}

>  <energy>  (6) 
-7.69

>  <cluster_rmsd>  (6) 
1.43

>  <cluster>  (6) 
1

$$$$

     RDKit          3D

 47 50  0  0  0  0  0  0  0  0999 V2000
  140.3340   72.4330  220.6880 O   0  0  0  0  0  0  0  0  0  0  0  0
  140.0860   72.7350  221.8860 C   0  0  0  0  0  0  0  0  0  0  0  0
  139.8240   74.1310  222.1260 N   0  0  0  0  0  0  0  0  0  0  0  0
  139.8750   74.9980  220.9890 C   0  0  0  0  0  0  0  0  0  0  0  0
  140.8640   76.0540  220.9340 C   0  0  0  0  0  0  0  0  0  0  0  0
  141.1340   76.5850  222.0980 O   0  0  0  0  0  0  0  0  0  0  0  0
  141.5790   76.6080  219.8660 N   0  0  0  0  0  0  0  0  0  0  0  0
  141.2650   77.7410  218.9740 C   0  0  0  0  0  0  0  0  0  0  0  0
  141.4360   77.0650  217.6480 C   0  0  0  0  0  0  0  0  0  0  0  0
  142.5080   76.0220  217.8460 C   0  0  0  0  0  0  0  0  0  0  0  0
  142.8730   76.1630  219.3140 C   0  0  2  0  0  0  0  0  0  0  0  0
  143.3880   74.9110  219.8620 C   0  0  0  0  0  0  0  0  0  0  0  0
  144.6510   74.9140  220.4680 C   0  0  0  0  0  0  0  0  0  0  0  0
  145.1970   73.7440  220.9690 C   0  0  0  0  0  0  0  0  0  0  0  0
  144.5470   72.5760  220.8940 N   0  0  0  0  0  0  0  0  0  0  0  0
  143.3320   72.5280  220.3210 C   0  0  0  0  0  0  0  0  0  0  0  0
  142.7590   73.6890  219.8090 C   0  0  0  0  0  0  0  0  0  0  0  0
  140.0540   71.7880  222.9760 C   0  0  0  0  0  0  0  0  0  0  0  0
  139.5030   70.5430  222.7620 C   0  0  0  0  0  0  0  0  0  0  0  0
  139.4950   69.6690  223.8340 C   0  0  0  0  0  0  0  0  0  0  0  0
  140.0000   69.9870  225.0730 C   0  0  0  0  0  0  0  0  0  0  0  0
  139.9920   69.1170  226.1450 C   0  0  0  0  0  0  0  0  0  0  0  0
  140.5340   69.5680  227.3360 C   0  0  0  0  0  0  0  0  0  0  0  0
  140.5330   68.4700  228.7190 Cl  0  0  0  0  0  0  0  0  0  0  0  0
  141.0690   70.8200  227.4950 C   0  0  0  0  0  0  0  0  0  0  0  0
  141.0750   71.6880  226.4200 C   0  0  0  0  0  0  0  0  0  0  0  0
  140.5380   71.2590  225.2170 C   0  0  0  0  0  0  0  0  0  0  0  0
  140.5650   72.1440  224.1890 N   0  0  0  0  0  0  0  0  0  0  0  0
  139.6140   74.4280  223.1010 H   0  0  0  0  0  0  0  0  0  0  0  0
  140.0412   74.3597  220.1087 H   0  0  0  0  0  0  0  0  0  0  0  0
  138.9213   75.5437  221.0410 H   0  0  0  0  0  0  0  0  0  0  0  0
  140.2374   78.1055  219.1195 H   0  0  0  0  0  0  0  0  0  0  0  0
  141.8803   78.6403  219.1244 H   0  0  0  0  0  0  0  0  0  0  0  0
  140.4938   76.5900  217.3372 H   0  0  0  0  0  0  0  0  0  0  0  0
  141.7143   77.7837  216.8631 H   0  0  0  0  0  0  0  0  0  0  0  0
  142.1210   75.0148  217.6320 H   0  0  0  0  0  0  0  0  0  0  0  0
  143.3689   76.1597  217.1753 H   0  0  0  0  0  0  0  0  0  0  0  0
  143.6929   76.8584  219.5466 H   0  0  0  0  0  0  0  0  0  0  0  0
  145.2148   75.8552  220.5467 H   0  0  0  0  0  0  0  0  0  0  0  0
  146.1903   73.7752  221.4407 H   0  0  0  0  0  0  0  0  0  0  0  0
  142.7910   71.5724  220.2567 H   0  0  0  0  0  0  0  0  0  0  0  0
  141.7642   73.6265  219.3438 H   0  0  0  0  0  0  0  0  0  0  0  0
  139.0887   70.2576  221.7838 H   0  0  0  0  0  0  0  0  0  0  0  0
  139.0625   68.6682  223.6880 H   0  0  0  0  0  0  0  0  0  0  0  0
  139.5712   68.1046  226.0560 H   0  0  0  0  0  0  0  0  0  0  0  0
  141.4874   71.1291  228.4642 H   0  0  0  0  0  0  0  0  0  0  0  0
  141.4975   72.6990  226.5173 H   0  0  0  0  0  0  0  0  0  0  0  0
  1  2  2  0
  2  3  1  0
  3  4  1  0
  4  5  1  0
  5  6  2  0
  5  7  1  0
  7  8  1  0
  8  9  1  0
  9 10  1  0
 10 11  1  0
 11 12  1  0
 12 13  2  0
 13 14  1  0
 14 15  2  0
 15 16  1  0
 16 17  2  0
  2 18  1  0
 18 19  2  0
 19 20  1  0
 20 21  2  0
 21 22  1  0
 22 23  2  0
 23 24  1  0
 23 25  1  0
 25 26  2  0
 26 27  1  0
 27 28  2  0
 11  7  1  0
 17 12  1  0
 28 18  1  0
 27 21  1  0
  3 29  1  0
  4 30  1  0
  4 31  1  0
  8 32  1  0
  8 33  1  0
  9 34  1  0
  9 35  1  0
 10 36  1  0
 10 37  1  0
 11 38  1  6
 13 39  1  0
 14 40  1  0
 16 41  1  0
 17 42  1  0
 19 43  1  0
 20 44  1  0
 22 45  1  0
 25 46  1  0
 26 47  1  0
M  END
>  <smiles>  (7) 
O=C(NCC(=O)N1CCCC1c1ccncc1)c1ccc2cc(Cl)ccc2n1

>  <score_type>  (7) 
oracle

>  <origin>  (7) 
autodockgpu

>  <m_score__min__energy>  (7) 
-8.25

>  <m_primary>  (7) 
energy

>  <rmsd>  (7) 
2.114241624965165

>  <m_score__min__rmsd>  (7) 
2.114241624965165

>  <meeko>  (7) 
{"free_energy": -7.68, "intermolecular_energy": -9.18, "internal_energy": -1.72, "cluster_size": 15, "cluster_id": 1, "rank_in_cluster": 7}

>  <energy>  (7) 
-7.68

>  <cluster_rmsd>  (7) 
1.45

>  <cluster>  (7) 
1

$$$$

     RDKit          3D

 47 50  0  0  0  0  0  0  0  0999 V2000
  140.6050   72.5780  220.9720 O   0  0  0  0  0  0  0  0  0  0  0  0
  139.9540   72.6630  222.0480 C   0  0  0  0  0  0  0  0  0  0  0  0
  139.1360   73.8420  222.1790 N   0  0  0  0  0  0  0  0  0  0  0  0
  139.1600   74.7640  221.0850 C   0  0  0  0  0  0  0  0  0  0  0  0
  140.2720   75.6810  220.9420 C   0  0  0  0  0  0  0  0  0  0  0  0
  141.1040   75.6620  221.9500 O   0  0  0  0  0  0  0  0  0  0  0  0
  140.6140   76.5800  219.9250 N   0  0  0  0  0  0  0  0  0  0  0  0
  140.8720   76.3640  218.4880 C   0  0  0  0  0  0  0  0  0  0  0  0
  142.2130   77.0230  218.3770 C   0  0  0  0  0  0  0  0  0  0  0  0
  142.2140   78.1420  219.3880 C   0  0  0  0  0  0  0  0  0  0  0  0
  140.8450   78.0320  220.0400 C   0  0  2  0  0  0  0  0  0  0  0  0
  140.8560   78.5570  221.4020 C   0  0  0  0  0  0  0  0  0  0  0  0
  142.0820   78.9290  221.9680 C   0  0  0  0  0  0  0  0  0  0  0  0
  142.1460   79.3980  223.2690 C   0  0  0  0  0  0  0  0  0  0  0  0
  141.0510   79.5120  224.0310 N   0  0  0  0  0  0  0  0  0  0  0  0
  139.8530   79.1660  223.5280 C   0  0  0  0  0  0  0  0  0  0  0  0
  139.7590   78.6920  222.2220 C   0  0  0  0  0  0  0  0  0  0  0  0
  139.9890   71.6780  223.1040 C   0  0  0  0  0  0  0  0  0  0  0  0
  139.5140   70.4100  222.8480 C   0  0  0  0  0  0  0  0  0  0  0  0
  139.5690   69.4990  223.8880 C   0  0  0  0  0  0  0  0  0  0  0  0
  140.0640   69.8040  225.1340 C   0  0  0  0  0  0  0  0  0  0  0  0
  140.1190   68.8980  226.1750 C   0  0  0  0  0  0  0  0  0  0  0  0
  140.6420   69.3380  227.3770 C   0  0  0  0  0  0  0  0  0  0  0  0
  140.7210   68.1940  228.7210 Cl  0  0  0  0  0  0  0  0  0  0  0  0
  141.1010   70.6150  227.5780 C   0  0  0  0  0  0  0  0  0  0  0  0
  141.0440   71.5190  226.5350 C   0  0  0  0  0  0  0  0  0  0  0  0
  140.5240   71.1010  225.3210 C   0  0  0  0  0  0  0  0  0  0  0  0
  140.4880   72.0210  224.3250 N   0  0  0  0  0  0  0  0  0  0  0  0
  138.5800   73.9560  223.0510 H   0  0  0  0  0  0  0  0  0  0  0  0
  139.1198   74.1656  220.1629 H   0  0  0  0  0  0  0  0  0  0  0  0
  138.3069   75.4271  221.2910 H   0  0  0  0  0  0  0  0  0  0  0  0
  140.9180   75.2944  218.2354 H   0  0  0  0  0  0  0  0  0  0  0  0
  140.0999   76.7553  217.8092 H   0  0  0  0  0  0  0  0  0  0  0  0
  143.0125   76.3024  218.6043 H   0  0  0  0  0  0  0  0  0  0  0  0
  142.3923   77.4005  217.3595 H   0  0  0  0  0  0  0  0  0  0  0  0
  143.0148   78.0018  220.1289 H   0  0  0  0  0  0  0  0  0  0  0  0
  142.3953   79.1281  218.9356 H   0  0  0  0  0  0  0  0  0  0  0  0
  140.0390   78.6247  219.5828 H   0  0  0  0  0  0  0  0  0  0  0  0
  143.0034   78.8477  221.3727 H   0  0  0  0  0  0  0  0  0  0  0  0
  143.1220   79.6845  223.6876 H   0  0  0  0  0  0  0  0  0  0  0  0
  138.9485   79.2572  224.1473 H   0  0  0  0  0  0  0  0  0  0  0  0
  138.7692   78.4146  221.8304 H   0  0  0  0  0  0  0  0  0  0  0  0
  139.1099   70.1348  221.8626 H   0  0  0  0  0  0  0  0  0  0  0  0
  139.1979   68.4791  223.7089 H   0  0  0  0  0  0  0  0  0  0  0  0
  139.7603   67.8654  226.0525 H   0  0  0  0  0  0  0  0  0  0  0  0
  141.5083   70.9146  228.5549 H   0  0  0  0  0  0  0  0  0  0  0  0
  141.4043   72.5500  226.6659 H   0  0  0  0  0  0  0  0  0  0  0  0
  1  2  2  0
  2  3  1  0
  3  4  1  0
  4  5  1  0
  5  6  2  0
  5  7  1  0
  7  8  1  0
  8  9  1  0
  9 10  1  0
 10 11  1  0
 11 12  1  0
 12 13  2  0
 13 14  1  0
 14 15  2  0
 15 16  1  0
 16 17  2  0
  2 18  1  0
 18 19  2  0
 19 20  1  0
 20 21  2  0
 21 22  1  0
 22 23  2  0
 23 24  1  0
 23 25  1  0
 25 26  2  0
 26 27  1  0
 27 28  2  0
 11  7  1  0
 17 12  1  0
 28 18  1  0
 27 21  1  0
  3 29  1  0
  4 30  1  0
  4 31  1  0
  8 32  1  0
  8 33  1  0
  9 34  1  0
  9 35  1  0
 10 36  1  0
 10 37  1  0
 11 38  1  6
 13 39  1  0
 14 40  1  0
 16 41  1  0
 17 42  1  0
 19 43  1  0
 20 44  1  0
 22 45  1  0
 25 46  1  0
 26 47  1  0
M  END
>  <smiles>  (8) 
O=C(NCC(=O)N1CCCC1c1ccncc1)c1ccc2cc(Cl)ccc2n1

>  <score_type>  (8) 
oracle

>  <origin>  (8) 
autodockgpu

>  <m_score__min__energy>  (8) 
-8.25

>  <m_primary>  (8) 
energy

>  <rmsd>  (8) 
1.6841766022717033

>  <m_score__min__rmsd>  (8) 
1.6841766022717033

>  <meeko>  (8) 
{"free_energy": -8.15, "intermolecular_energy": -9.64, "internal_energy": -1.29, "cluster_size": 20, "cluster_id": 2, "rank_in_cluster": 4}

>  <energy>  (8) 
-7.68

>  <cluster_rmsd>  (8) 
1.43

>  <cluster>  (8) 
1

$$$$

     RDKit          3D

 47 50  0  0  0  0  0  0  0  0999 V2000
  134.0110   70.2570  226.2980 O   0  0  0  0  0  0  0  0  0  0  0  0
  134.2030   71.4580  225.9680 C   0  0  0  0  0  0  0  0  0  0  0  0
  135.2490   71.6690  225.0000 N   0  0  0  0  0  0  0  0  0  0  0  0
  135.9360   70.5040  224.5330 C   0  0  0  0  0  0  0  0  0  0  0  0
  137.1780   70.6470  223.8030 C   0  0  0  0  0  0  0  0  0  0  0  0
  137.5010   71.8880  223.5490 O   0  0  0  0  0  0  0  0  0  0  0  0
  138.0900   69.7010  223.3200 N   0  0  0  0  0  0  0  0  0  0  0  0
  138.0530   68.8470  222.1170 C   0  0  0  0  0  0  0  0  0  0  0  0
  138.2840   67.5120  222.7550 C   0  0  0  0  0  0  0  0  0  0  0  0
  139.1620   67.7680  223.9550 C   0  0  0  0  0  0  0  0  0  0  0  0
  139.3620   69.2750  223.9310 C   0  0  2  0  0  0  0  0  0  0  0  0
  139.6210   69.8030  225.2670 C   0  0  0  0  0  0  0  0  0  0  0  0
  140.3250   71.0080  225.3870 C   0  0  0  0  0  0  0  0  0  0  0  0
  140.6260   71.5300  226.6340 C   0  0  0  0  0  0  0  0  0  0  0  0
  140.2610   70.9100  227.7630 N   0  0  0  0  0  0  0  0  0  0  0  0
  139.5830   69.7500  227.6940 C   0  0  0  0  0  0  0  0  0  0  0  0
  139.2670   69.2030  226.4540 C   0  0  0  0  0  0  0  0  0  0  0  0
  133.4560   72.5780  226.4920 C   0  0  0  0  0  0  0  0  0  0  0  0
  132.2540   72.3400  227.1220 C   0  0  0  0  0  0  0  0  0  0  0  0
  131.5730   73.4420  227.6090 C   0  0  0  0  0  0  0  0  0  0  0  0
  132.0380   74.7310  227.4900 C   0  0  0  0  0  0  0  0  0  0  0  0
  131.3610   75.8320  227.9730 C   0  0  0  0  0  0  0  0  0  0  0  0
  131.9440   77.0730  227.7840 C   0  0  0  0  0  0  0  0  0  0  0  0
  131.0930   78.4950  228.3960 Cl  0  0  0  0  0  0  0  0  0  0  0  0
  133.1450   77.2530  227.1470 C   0  0  0  0  0  0  0  0  0  0  0  0
  133.8190   76.1480  226.6650 C   0  0  0  0  0  0  0  0  0  0  0  0
  133.2550   74.8950  226.8420 C   0  0  0  0  0  0  0  0  0  0  0  0
  133.9520   73.8400  226.3520 N   0  0  0  0  0  0  0  0  0  0  0  0
  135.4430   72.6460  224.6970 H   0  0  0  0  0  0  0  0  0  0  0  0
  136.1551   69.8873  225.4171 H   0  0  0  0  0  0  0  0  0  0  0  0
  135.2471   70.0833  223.7857 H   0  0  0  0  0  0  0  0  0  0  0  0
  137.0787   68.8959  221.6088 H   0  0  0  0  0  0  0  0  0  0  0  0
  138.7689   69.1189  221.3274 H   0  0  0  0  0  0  0  0  0  0  0  0
  137.3277   67.0685  223.0693 H   0  0  0  0  0  0  0  0  0  0  0  0
  138.7566   66.8081  222.0542 H   0  0  0  0  0  0  0  0  0  0  0  0
  138.6624   67.4521  224.8827 H   0  0  0  0  0  0  0  0  0  0  0  0
  140.1087   67.2088  223.9213 H   0  0  0  0  0  0  0  0  0  0  0  0
  140.2390   69.6404  223.3766 H   0  0  0  0  0  0  0  0  0  0  0  0
  140.6422   71.5454  224.4811 H   0  0  0  0  0  0  0  0  0  0  0  0
  141.1793   72.4785  226.6984 H   0  0  0  0  0  0  0  0  0  0  0  0
  139.2787   69.2344  228.6168 H   0  0  0  0  0  0  0  0  0  0  0  0
  138.7124   68.2536  226.4212 H   0  0  0  0  0  0  0  0  0  0  0  0
  131.8541   71.3212  227.2328 H   0  0  0  0  0  0  0  0  0  0  0  0
  130.6111   73.2788  228.1170 H   0  0  0  0  0  0  0  0  0  0  0  0
  130.3949   75.7275  228.4885 H   0  0  0  0  0  0  0  0  0  0  0  0
  133.5651   78.2619  227.0219 H   0  0  0  0  0  0  0  0  0  0  0  0
  134.7848   76.2606  226.1506 H   0  0  0  0  0  0  0  0  0  0  0  0
  1  2  2  0
  2  3  1  0
  3  4  1  0
  4  5  1  0
  5  6  2  0
  5  7  1  0
  7  8  1  0
  8  9  1  0
  9 10  1  0
 10 11  1  0
 11 12  1  0
 12 13  2  0
 13 14  1  0
 14 15  2  0
 15 16  1  0
 16 17  2  0
  2 18  1  0
 18 19  2  0
 19 20  1  0
 20 21  2  0
 21 22  1  0
 22 23  2  0
 23 24  1  0
 23 25  1  0
 25 26  2  0
 26 27  1  0
 27 28  2  0
 11  7  1  0
 17 12  1  0
 28 18  1  0
 27 21  1  0
  3 29  1  0
  4 30  1  0
  4 31  1  0
  8 32  1  0
  8 33  1  0
  9 34  1  0
  9 35  1  0
 10 36  1  0
 10 37  1  0
 11 38  1  6
 13 39  1  0
 14 40  1  0
 16 41  1  0
 17 42  1  0
 19 43  1  0
 20 44  1  0
 22 45  1  0
 25 46  1  0
 26 47  1  0
M  END
>  <smiles>  (9) 
O=C(NCC(=O)N1CCCC1c1ccncc1)c1ccc2cc(Cl)ccc2n1

>  <score_type>  (9) 
oracle

>  <origin>  (9) 
autodockgpu

>  <m_score__min__energy>  (9) 
-8.25

>  <m_primary>  (9) 
energy

>  <rmsd>  (9) 
8.639054247550108

>  <m_score__min__rmsd>  (9) 
8.639054247550108

>  <meeko>  (9) 
{"free_energy": -7.16, "intermolecular_energy": -8.65, "internal_energy": -1.74, "cluster_size": 5, "cluster_id": 3, "rank_in_cluster": 5}

>  <energy>  (9) 
-7.64

>  <cluster_rmsd>  (9) 
1.45

>  <cluster>  (9) 
1

$$$$

     RDKit          3D

 47 50  0  0  0  0  0  0  0  0999 V2000
  139.1320   73.3200  222.0380 O   0  0  0  0  0  0  0  0  0  0  0  0
  140.1150   72.5940  222.3480 C   0  0  0  0  0  0  0  0  0  0  0  0
  141.3010   72.7960  221.5570 N   0  0  0  0  0  0  0  0  0  0  0  0
  141.2250   73.7860  220.5260 C   0  0  0  0  0  0  0  0  0  0  0  0
  141.4680   75.1760  220.8460 C   0  0  0  0  0  0  0  0  0  0  0  0
  140.9330   75.5590  221.9760 O   0  0  0  0  0  0  0  0  0  0  0  0
  142.1670   76.1810  220.1670 N   0  0  0  0  0  0  0  0  0  0  0  0
  141.7500   77.5310  219.7390 C   0  0  0  0  0  0  0  0  0  0  0  0
  142.1180   77.4540  218.2890 C   0  0  0  0  0  0  0  0  0  0  0  0
  143.3190   76.5440  218.2110 C   0  0  0  0  0  0  0  0  0  0  0  0
  143.5500   76.1370  219.6570 C   0  0  2  0  0  0  0  0  0  0  0  0
  144.2080   74.8370  219.7500 C   0  0  0  0  0  0  0  0  0  0  0  0
  144.0360   73.9220  218.7020 C   0  0  0  0  0  0  0  0  0  0  0  0
  144.6100   72.6640  218.7620 C   0  0  0  0  0  0  0  0  0  0  0  0
  145.3440   72.2740  219.8120 N   0  0  0  0  0  0  0  0  0  0  0  0
  145.5350   73.1200  220.8400 C   0  0  0  0  0  0  0  0  0  0  0  0
  144.9690   74.3920  220.8060 C   0  0  0  0  0  0  0  0  0  0  0  0
  140.1030   71.6150  223.4100 C   0  0  0  0  0  0  0  0  0  0  0  0
  139.5800   70.3650  223.1600 C   0  0  0  0  0  0  0  0  0  0  0  0
  139.5900   69.4610  224.2070 C   0  0  0  0  0  0  0  0  0  0  0  0
  140.0880   69.7550  225.4550 C   0  0  0  0  0  0  0  0  0  0  0  0
  140.0990   68.8550  226.5020 C   0  0  0  0  0  0  0  0  0  0  0  0
  140.6300   69.2840  227.7060 C   0  0  0  0  0  0  0  0  0  0  0  0
  140.6530   68.1470  229.0580 Cl  0  0  0  0  0  0  0  0  0  0  0  0
  141.1380   70.5430  227.9010 C   0  0  0  0  0  0  0  0  0  0  0  0
  141.1250   71.4400  226.8510 C   0  0  0  0  0  0  0  0  0  0  0  0
  140.5980   71.0340  225.6360 C   0  0  0  0  0  0  0  0  0  0  0  0
  140.6060   71.9480  224.6340 N   0  0  0  0  0  0  0  0  0  0  0  0
  142.1390   72.2180  221.7760 H   0  0  0  0  0  0  0  0  0  0  0  0
  141.9592   73.5028  219.7574 H   0  0  0  0  0  0  0  0  0  0  0  0
  140.1640   73.7722  220.2361 H   0  0  0  0  0  0  0  0  0  0  0  0
  140.6711   77.6916  219.8808 H   0  0  0  0  0  0  0  0  0  0  0  0
  142.2087   78.3616  220.2955 H   0  0  0  0  0  0  0  0  0  0  0  0
  141.2843   77.0371  217.7050 H   0  0  0  0  0  0  0  0  0  0  0  0
  142.3400   78.4494  217.8769 H   0  0  0  0  0  0  0  0  0  0  0  0
  143.1065   75.6653  217.5843 H   0  0  0  0  0  0  0  0  0  0  0  0
  144.1956   77.0293  217.7572 H   0  0  0  0  0  0  0  0  0  0  0  0
  144.2350   76.7723  220.2377 H   0  0  0  0  0  0  0  0  0  0  0  0
  143.4388   74.2067  217.8231 H   0  0  0  0  0  0  0  0  0  0  0  0
  144.4593   71.9662  217.9251 H   0  0  0  0  0  0  0  0  0  0  0  0
  146.1372   72.8078  221.7060 H   0  0  0  0  0  0  0  0  0  0  0  0
  145.1372   75.0678  221.6575 H   0  0  0  0  0  0  0  0  0  0  0  0
  139.1733   70.0982  222.1734 H   0  0  0  0  0  0  0  0  0  0  0  0
  139.1787   68.4558  224.0326 H   0  0  0  0  0  0  0  0  0  0  0  0
  139.7011   67.8363  226.3838 H   0  0  0  0  0  0  0  0  0  0  0  0
  141.5495   70.8338  228.8788 H   0  0  0  0  0  0  0  0  0  0  0  0
  141.5252   72.4568  226.9770 H   0  0  0  0  0  0  0  0  0  0  0  0
  1  2  2  0
  2  3  1  0
  3  4  1  0
  4  5  1  0
  5  6  2  0
  5  7  1  0
  7  8  1  0
  8  9  1  0
  9 10  1  0
 10 11  1  0
 11 12  1  0
 12 13  2  0
 13 14  1  0
 14 15  2  0
 15 16  1  0
 16 17  2  0
  2 18  1  0
 18 19  2  0
 19 20  1  0
 20 21  2  0
 21 22  1  0
 22 23  2  0
 23 24  1  0
 23 25  1  0
 25 26  2  0
 26 27  1  0
 27 28  2  0
 11  7  1  0
 17 12  1  0
 28 18  1  0
 27 21  1  0
  3 29  1  0
  4 30  1  0
  4 31  1  0
  8 32  1  0
  8 33  1  0
  9 34  1  0
  9 35  1  0
 10 36  1  0
 10 37  1  0
 11 38  1  1
 13 39  1  0
 14 40  1  0
 16 41  1  0
 17 42  1  0
 19 43  1  0
 20 44  1  0
 22 45  1  0
 25 46  1  0
 26 47  1  0
M  END
>  <smiles>  (10) 
O=C(NCC(=O)N1CCCC1c1ccncc1)c1ccc2cc(Cl)ccc2n1

>  <score_type>  (10) 
oracle

>  <origin>  (10) 
autodockgpu

>  <m_score__min__energy>  (10) 
-8.25

>  <m_primary>  (10) 
energy

>  <rmsd>  (10) 
2.470860232986161

>  <m_score__min__rmsd>  (10) 
2.470860232986161

>  <meeko>  (10) 
{"free_energy": -8.03, "intermolecular_energy": -9.52, "internal_energy": -1.29, "cluster_size": 15, "cluster_id": 1, "rank_in_cluster": 5}

>  <energy>  (10) 
-7.57

>  <cluster_rmsd>  (10) 
1.45

>  <cluster>  (10) 
1

$$$$

     RDKit          3D

 47 50  0  0  0  0  0  0  0  0999 V2000
  139.8350   72.1660  220.7340 O   0  0  0  0  0  0  0  0  0  0  0  0
  139.7590   72.4640  221.9570 C   0  0  0  0  0  0  0  0  0  0  0  0
  139.5950   73.8670  222.2380 N   0  0  0  0  0  0  0  0  0  0  0  0
  139.5370   74.7450  221.1090 C   0  0  0  0  0  0  0  0  0  0  0  0
  140.4220   75.8880  221.0420 C   0  0  0  0  0  0  0  0  0  0  0  0
  141.1110   76.0870  222.1360 O   0  0  0  0  0  0  0  0  0  0  0  0
  140.6730   76.8160  220.0240 N   0  0  0  0  0  0  0  0  0  0  0  0
  140.8410   76.6350  218.5690 C   0  0  0  0  0  0  0  0  0  0  0  0
  142.1530   77.3340  218.3840 C   0  0  0  0  0  0  0  0  0  0  0  0
  142.1900   78.4340  219.4160 C   0  0  0  0  0  0  0  0  0  0  0  0
  140.8710   78.2720  220.1530 C   0  0  2  0  0  0  0  0  0  0  0  0
  140.9560   78.7710  221.5220 C   0  0  0  0  0  0  0  0  0  0  0  0
  142.2190   79.0700  222.0500 C   0  0  0  0  0  0  0  0  0  0  0  0
  142.3530   79.5120  223.3550 C   0  0  0  0  0  0  0  0  0  0  0  0
  141.2930   79.6680  224.1580 N   0  0  0  0  0  0  0  0  0  0  0  0
  140.0610   79.3930  223.6930 C   0  0  0  0  0  0  0  0  0  0  0  0
  139.8970   78.9470  222.3840 C   0  0  0  0  0  0  0  0  0  0  0  0
  139.8260   71.5060  223.0360 C   0  0  0  0  0  0  0  0  0  0  0  0
  139.3700   70.2240  222.8180 C   0  0  0  0  0  0  0  0  0  0  0  0
  139.4540   69.3400  223.8790 C   0  0  0  0  0  0  0  0  0  0  0  0
  139.9610   69.6850  225.1100 C   0  0  0  0  0  0  0  0  0  0  0  0
  140.0460   68.8050  226.1720 C   0  0  0  0  0  0  0  0  0  0  0  0
  140.5770   69.2840  227.3560 C   0  0  0  0  0  0  0  0  0  0  0  0
  140.6940   68.1750  228.7260 Cl  0  0  0  0  0  0  0  0  0  0  0  0
  141.0160   70.5730  227.5180 C   0  0  0  0  0  0  0  0  0  0  0  0
  140.9300   71.4500  226.4540 C   0  0  0  0  0  0  0  0  0  0  0  0
  140.4010   70.9930  225.2590 C   0  0  0  0  0  0  0  0  0  0  0  0
  140.3360   71.8880  224.2410 N   0  0  0  0  0  0  0  0  0  0  0  0
  139.5280   74.1610  223.2340 H   0  0  0  0  0  0  0  0  0  0  0  0
  139.7395   74.1324  220.2181 H   0  0  0  0  0  0  0  0  0  0  0  0
  138.5384   75.1993  221.1896 H   0  0  0  0  0  0  0  0  0  0  0  0
  140.8994   75.5722  218.2915 H   0  0  0  0  0  0  0  0  0  0  0  0
  140.0152   77.0169  217.9508 H   0  0  0  0  0  0  0  0  0  0  0  0
  142.9852   76.6326  218.5437 H   0  0  0  0  0  0  0  0  0  0  0  0
  142.2544   77.7354  217.3649 H   0  0  0  0  0  0  0  0  0  0  0  0
  143.0415   78.3032  220.1000 H   0  0  0  0  0  0  0  0  0  0  0  0
  142.3140   79.4333  218.9734 H   0  0  0  0  0  0  0  0  0  0  0  0
  140.0212   78.8499  219.7608 H   0  0  0  0  0  0  0  0  0  0  0  0
  143.1136   78.9522  221.4208 H   0  0  0  0  0  0  0  0  0  0  0  0
  143.3567   79.7411  223.7424 H   0  0  0  0  0  0  0  0  0  0  0  0
  139.1847   79.5202  224.3456 H   0  0  0  0  0  0  0  0  0  0  0  0
  138.8811   78.7266  222.0245 H   0  0  0  0  0  0  0  0  0  0  0  0
  138.9581   69.9176  221.8451 H   0  0  0  0  0  0  0  0  0  0  0  0
  139.0975   68.3100  223.7306 H   0  0  0  0  0  0  0  0  0  0  0  0
  139.7045   67.7635  226.0794 H   0  0  0  0  0  0  0  0  0  0  0  0
  141.4308   70.9040  228.4815 H   0  0  0  0  0  0  0  0  0  0  0  0
  141.2747   72.4898  226.5542 H   0  0  0  0  0  0  0  0  0  0  0  0
  1  2  2  0
  2  3  1  0
  3  4  1  0
  4  5  1  0
  5  6  2  0
  5  7  1  0
  7  8  1  0
  8  9  1  0
  9 10  1  0
 10 11  1  0
 11 12  1  0
 12 13  2  0
 13 14  1  0
 14 15  2  0
 15 16  1  0
 16 17  2  0
  2 18  1  0
 18 19  2  0
 19 20  1  0
 20 21  2  0
 21 22  1  0
 22 23  2  0
 23 24  1  0
 23 25  1  0
 25 26  2  0
 26 27  1  0
 27 28  2  0
 11  7  1  0
 17 12  1  0
 28 18  1  0
 27 21  1  0
  3 29  1  0
  4 30  1  0
  4 31  1  0
  8 32  1  0
  8 33  1  0
  9 34  1  0
  9 35  1  0
 10 36  1  0
 10 37  1  0
 11 38  1  6
 13 39  1  0
 14 40  1  0
 16 41  1  0
 17 42  1  0
 19 43  1  0
 20 44  1  0
 22 45  1  0
 25 46  1  0
 26 47  1  0
M  END
>  <smiles>  (11) 
O=C(NCC(=O)N1CCCC1c1ccncc1)c1ccc2cc(Cl)ccc2n1

>  <score_type>  (11) 
oracle

>  <origin>  (11) 
autodockgpu

>  <m_score__min__energy>  (11) 
-8.25

>  <m_primary>  (11) 
energy

>  <rmsd>  (11) 
1.7307848125371421

>  <m_score__min__rmsd>  (11) 
1.7307848125371421

>  <meeko>  (11) 
{"free_energy": -8.03, "intermolecular_energy": -9.53, "internal_energy": -1.39, "cluster_size": 20, "cluster_id": 2, "rank_in_cluster": 14}

>  <energy>  (11) 
-7.51

>  <cluster_rmsd>  (11) 
0.68

>  <cluster>  (11) 
1

$$$$

     RDKit          3D

 47 50  0  0  0  0  0  0  0  0999 V2000
  140.6450   72.6380  220.7650 O   0  0  0  0  0  0  0  0  0  0  0  0
  140.2440   72.9020  221.9300 C   0  0  0  0  0  0  0  0  0  0  0  0
  139.8630   74.2730  222.1530 N   0  0  0  0  0  0  0  0  0  0  0  0
  139.9830   75.1610  221.0380 C   0  0  0  0  0  0  0  0  0  0  0  0
  139.7570   76.5790  221.2210 C   0  0  0  0  0  0  0  0  0  0  0  0
  138.6070   76.9950  220.7570 O   0  0  0  0  0  0  0  0  0  0  0  0
  140.5430   77.5820  221.8020 N   0  0  0  0  0  0  0  0  0  0  0  0
  140.3520   78.3690  223.0360 C   0  0  0  0  0  0  0  0  0  0  0  0
  140.4900   79.7490  222.4710 C   0  0  0  0  0  0  0  0  0  0  0  0
  141.4590   79.6350  221.3200 C   0  0  0  0  0  0  0  0  0  0  0  0
  141.8030   78.1550  221.2920 C   0  0  2  0  0  0  0  0  0  0  0  0
  142.1900   77.7190  219.9540 C   0  0  0  0  0  0  0  0  0  0  0  0
  142.8600   76.4970  219.8140 C   0  0  0  0  0  0  0  0  0  0  0  0
  143.2790   76.0590  218.5690 C   0  0  0  0  0  0  0  0  0  0  0  0
  143.0650   76.7790  217.4610 N   0  0  0  0  0  0  0  0  0  0  0  0
  142.4250   77.9590  217.5490 C   0  0  0  0  0  0  0  0  0  0  0  0
  141.9930   78.4230  218.7880 C   0  0  0  0  0  0  0  0  0  0  0  0
  140.1540   71.9350  223.0000 C   0  0  0  0  0  0  0  0  0  0  0  0
  139.5760   70.7110  222.7450 C   0  0  0  0  0  0  0  0  0  0  0  0
  139.5120   69.8170  223.7990 C   0  0  0  0  0  0  0  0  0  0  0  0
  139.9900   70.0970  225.0580 C   0  0  0  0  0  0  0  0  0  0  0  0
  139.9260   69.2070  226.1120 C   0  0  0  0  0  0  0  0  0  0  0  0
  140.4460   69.6190  227.3260 C   0  0  0  0  0  0  0  0  0  0  0  0
  140.3750   68.4960  228.6880 Cl  0  0  0  0  0  0  0  0  0  0  0  0
  141.0110   70.8530  227.5250 C   0  0  0  0  0  0  0  0  0  0  0  0
  141.0720   71.7400  226.4680 C   0  0  0  0  0  0  0  0  0  0  0  0
  140.5590   71.3500  225.2430 C   0  0  0  0  0  0  0  0  0  0  0  0
  140.6400   72.2530  224.2340 N   0  0  0  0  0  0  0  0  0  0  0  0
  139.5250   74.5380  223.1010 H   0  0  0  0  0  0  0  0  0  0  0  0
  141.0062   75.0489  220.6500 H   0  0  0  0  0  0  0  0  0  0  0  0
  139.1587   74.8542  220.3773 H   0  0  0  0  0  0  0  0  0  0  0  0
  139.3586   78.2040  223.4786 H   0  0  0  0  0  0  0  0  0  0  0  0
  141.0425   78.1276  223.8576 H   0  0  0  0  0  0  0  0  0  0  0  0
  139.5157   80.1149  222.1149 H   0  0  0  0  0  0  0  0  0  0  0  0
  140.8492   80.4598  223.2298 H   0  0  0  0  0  0  0  0  0  0  0  0
  140.9874   79.9471  220.3765 H   0  0  0  0  0  0  0  0  0  0  0  0
  142.3432   80.2785  221.4387 H   0  0  0  0  0  0  0  0  0  0  0  0
  142.6773   77.8476  221.8846 H   0  0  0  0  0  0  0  0  0  0  0  0
  143.0554   75.8787  220.7025 H   0  0  0  0  0  0  0  0  0  0  0  0
  143.8013   75.0943  218.4884 H   0  0  0  0  0  0  0  0  0  0  0  0
  142.2434   78.5561  216.6432 H   0  0  0  0  0  0  0  0  0  0  0  0
  141.4733   79.3912  218.8372 H   0  0  0  0  0  0  0  0  0  0  0  0
  139.1835   70.4561  221.7495 H   0  0  0  0  0  0  0  0  0  0  0  0
  139.0556   68.8321  223.6211 H   0  0  0  0  0  0  0  0  0  0  0  0
  139.4789   68.2093  225.9910 H   0  0  0  0  0  0  0  0  0  0  0  0
  141.4095   71.1320  228.5116 H   0  0  0  0  0  0  0  0  0  0  0  0
  141.5194   72.7366  226.5972 H   0  0  0  0  0  0  0  0  0  0  0  0
  1  2  2  0
  2  3  1  0
  3  4  1  0
  4  5  1  0
  5  6  2  0
  5  7  1  0
  7  8  1  0
  8  9  1  0
  9 10  1  0
 10 11  1  0
 11 12  1  0
 12 13  2  0
 13 14  1  0
 14 15  2  0
 15 16  1  0
 16 17  2  0
  2 18  1  0
 18 19  2  0
 19 20  1  0
 20 21  2  0
 21 22  1  0
 22 23  2  0
 23 24  1  0
 23 25  1  0
 25 26  2  0
 26 27  1  0
 27 28  2  0
 11  7  1  0
 17 12  1  0
 28 18  1  0
 27 21  1  0
  3 29  1  0
  4 30  1  0
  4 31  1  0
  8 32  1  0
  8 33  1  0
  9 34  1  0
  9 35  1  0
 10 36  1  0
 10 37  1  0
 11 38  1  1
 13 39  1  0
 14 40  1  0
 16 41  1  0
 17 42  1  0
 19 43  1  0
 20 44  1  0
 22 45  1  0
 25 46  1  0
 26 47  1  0
M  END
>  <smiles>  (12) 
O=C(NCC(=O)N1CCCC1c1ccncc1)c1ccc2cc(Cl)ccc2n1

>  <score_type>  (12) 
oracle

>  <origin>  (12) 
autodockgpu

>  <m_score__min__energy>  (12) 
-8.25

>  <m_primary>  (12) 
energy

>  <rmsd>  (12) 
3.0977444196412582

>  <m_score__min__rmsd>  (12) 
3.0977444196412582

>  <meeko>  (12) 
{"free_energy": -7.71, "intermolecular_energy": -9.2, "internal_energy": -1.31, "cluster_size": 3, "cluster_id": 4, "rank_in_cluster": 1}

>  <energy>  (12) 
-7.35

>  <cluster_rmsd>  (12) 
1.41

>  <cluster>  (12) 
1

$$$$

     RDKit          3D

 47 50  0  0  0  0  0  0  0  0999 V2000
  140.3860   72.5650  220.7840 O   0  0  0  0  0  0  0  0  0  0  0  0
  139.9270   72.7710  221.9390 C   0  0  0  0  0  0  0  0  0  0  0  0
  139.3340   74.0670  222.1430 N   0  0  0  0  0  0  0  0  0  0  0  0
  139.3360   74.9570  221.0220 C   0  0  0  0  0  0  0  0  0  0  0  0
  140.4410   75.8720  220.8330 C   0  0  0  0  0  0  0  0  0  0  0  0
  141.3790   75.7620  221.7380 O   0  0  0  0  0  0  0  0  0  0  0  0
  140.6870   76.8510  219.8620 N   0  0  0  0  0  0  0  0  0  0  0  0
  140.8870   76.7390  218.4040 C   0  0  0  0  0  0  0  0  0  0  0  0
  142.1840   77.4780  218.2760 C   0  0  0  0  0  0  0  0  0  0  0  0
  142.1740   78.5300  219.3570 C   0  0  0  0  0  0  0  0  0  0  0  0
  140.8460   78.3040  220.0600 C   0  0  2  0  0  0  0  0  0  0  0  0
  140.8930   78.7430  221.4510 C   0  0  0  0  0  0  0  0  0  0  0  0
  142.1420   79.0030  222.0300 C   0  0  0  0  0  0  0  0  0  0  0  0
  142.2390   79.3860  223.3570 C   0  0  0  0  0  0  0  0  0  0  0  0
  141.1560   79.5210  224.1320 N   0  0  0  0  0  0  0  0  0  0  0  0
  139.9370   79.2820  223.6170 C   0  0  0  0  0  0  0  0  0  0  0  0
  139.8100   78.8950  222.2860 C   0  0  0  0  0  0  0  0  0  0  0  0
  139.9670   71.8080  223.0160 C   0  0  0  0  0  0  0  0  0  0  0  0
  139.5100   70.5300  222.7850 C   0  0  0  0  0  0  0  0  0  0  0  0
  139.5680   69.6420  223.8450 C   0  0  0  0  0  0  0  0  0  0  0  0
  140.0520   69.9800  225.0870 C   0  0  0  0  0  0  0  0  0  0  0  0
  140.1100   69.0970  226.1470 C   0  0  0  0  0  0  0  0  0  0  0  0
  140.6200   69.5690  227.3430 C   0  0  0  0  0  0  0  0  0  0  0  0
  140.7040   68.4550  228.7110 Cl  0  0  0  0  0  0  0  0  0  0  0  0
  141.0630   70.8550  227.5190 C   0  0  0  0  0  0  0  0  0  0  0  0
  141.0020   71.7360  226.4560 C   0  0  0  0  0  0  0  0  0  0  0  0
  140.4950   71.2860  225.2480 C   0  0  0  0  0  0  0  0  0  0  0  0
  140.4550   72.1840  224.2330 N   0  0  0  0  0  0  0  0  0  0  0  0
  138.9410   74.2830  223.0820 H   0  0  0  0  0  0  0  0  0  0  0  0
  139.2820   74.3317  220.1186 H   0  0  0  0  0  0  0  0  0  0  0  0
  138.4843   75.6233  221.2235 H   0  0  0  0  0  0  0  0  0  0  0  0
  140.9779   75.6913  218.0814 H   0  0  0  0  0  0  0  0  0  0  0  0
  140.0634   77.1274  217.7868 H   0  0  0  0  0  0  0  0  0  0  0  0
  143.0308   76.7908  218.4198 H   0  0  0  0  0  0  0  0  0  0  0  0
  142.2936   77.9279  217.2782 H   0  0  0  0  0  0  0  0  0  0  0  0
  143.0154   78.3884  220.0512 H   0  0  0  0  0  0  0  0  0  0  0  0
  142.2812   79.5510  218.9620 H   0  0  0  0  0  0  0  0  0  0  0  0
  139.9894   78.8786  219.6778 H   0  0  0  0  0  0  0  0  0  0  0  0
  143.0546   78.9018  221.4243 H   0  0  0  0  0  0  0  0  0  0  0  0
  143.2323   79.5846  223.7857 H   0  0  0  0  0  0  0  0  0  0  0  0
  139.0417   79.3921  224.2465 H   0  0  0  0  0  0  0  0  0  0  0  0
  138.8036   78.7030  221.8857 H   0  0  0  0  0  0  0  0  0  0  0  0
  139.1168   70.2285  221.8029 H   0  0  0  0  0  0  0  0  0  0  0  0
  139.2090   68.6145  223.6860 H   0  0  0  0  0  0  0  0  0  0  0  0
  139.7639   68.0579  226.0442 H   0  0  0  0  0  0  0  0  0  0  0  0
  141.4609   71.1803  228.4916 H   0  0  0  0  0  0  0  0  0  0  0  0
  141.3491   72.7739  226.5669 H   0  0  0  0  0  0  0  0  0  0  0  0
  1  2  2  0
  2  3  1  0
  3  4  1  0
  4  5  1  0
  5  6  2  0
  5  7  1  0
  7  8  1  0
  8  9  1  0
  9 10  1  0
 10 11  1  0
 11 12  1  0
 12 13  2  0
 13 14  1  0
 14 15  2  0
 15 16  1  0
 16 17  2  0
  2 18  1  0
 18 19  2  0
 19 20  1  0
 20 21  2  0
 21 22  1  0
 22 23  2  0
 23 24  1  0
 23 25  1  0
 25 26  2  0
 26 27  1  0
 27 28  2  0
 11  7  1  0
 17 12  1  0
 28 18  1  0
 27 21  1  0
  3 29  1  0
  4 30  1  0
  4 31  1  0
  8 32  1  0
  8 33  1  0
  9 34  1  0
  9 35  1  0
 10 36  1  0
 10 37  1  0
 11 38  1  6
 13 39  1  0
 14 40  1  0
 16 41  1  0
 17 42  1  0
 19 43  1  0
 20 44  1  0
 22 45  1  0
 25 46  1  0
 26 47  1  0
M  END
>  <smiles>  (13) 
O=C(NCC(=O)N1CCCC1c1ccncc1)c1ccc2cc(Cl)ccc2n1

>  <score_type>  (13) 
oracle

>  <origin>  (13) 
autodockgpu

>  <m_score__min__energy>  (13) 
-8.25

>  <m_primary>  (13) 
energy

>  <rmsd>  (13) 
1.836083184620993

>  <m_score__min__rmsd>  (13) 
1.836083184620993

>  <meeko>  (13) 
{"free_energy": -8.06, "intermolecular_energy": -9.55, "internal_energy": -1.34, "cluster_size": 20, "cluster_id": 2, "rank_in_cluster": 10}

>  <energy>  (13) 
-7.31

>  <cluster_rmsd>  (13) 
1.46

>  <cluster>  (13) 
1

$$$$

     RDKit          3D

 47 50  0  0  0  0  0  0  0  0999 V2000
  141.6460   79.0330  217.5760 O   0  0  0  0  0  0  0  0  0  0  0  0
  142.1700   78.3840  218.5210 C   0  0  0  0  0  0  0  0  0  0  0  0
  142.1450   79.0400  219.8040 N   0  0  0  0  0  0  0  0  0  0  0  0
  141.5340   80.3330  219.8510 C   0  0  0  0  0  0  0  0  0  0  0  0
  140.7900   80.7340  221.0270 C   0  0  0  0  0  0  0  0  0  0  0  0
  139.6190   81.2490  220.7590 O   0  0  0  0  0  0  0  0  0  0  0  0
  141.0970   80.6710  222.3910 N   0  0  0  0  0  0  0  0  0  0  0  0
  141.8200   81.6160  223.2650 C   0  0  0  0  0  0  0  0  0  0  0  0
  142.8380   80.6830  223.8470 C   0  0  0  0  0  0  0  0  0  0  0  0
  142.1730   79.3310  223.9190 C   0  0  0  0  0  0  0  0  0  0  0  0
  140.7900   79.5850  223.3400 C   0  0  2  0  0  0  0  0  0  0  0  0
  140.2280   78.3760  222.7440 C   0  0  0  0  0  0  0  0  0  0  0  0
  141.0980   77.3420  222.3760 C   0  0  0  0  0  0  0  0  0  0  0  0
  140.6150   76.1930  221.7750 C   0  0  0  0  0  0  0  0  0  0  0  0
  139.3110   76.0250  221.5220 N   0  0  0  0  0  0  0  0  0  0  0  0
  138.4390   76.9930  221.8590 C   0  0  0  0  0  0  0  0  0  0  0  0
  138.8980   78.1590  222.4660 C   0  0  0  0  0  0  0  0  0  0  0  0
  142.7660   77.0760  218.3820 C   0  0  0  0  0  0  0  0  0  0  0  0
  142.9320   76.5510  217.1190 C   0  0  0  0  0  0  0  0  0  0  0  0
  143.5070   75.2950  217.0330 C   0  0  0  0  0  0  0  0  0  0  0  0
  143.9070   74.5710  218.1320 C   0  0  0  0  0  0  0  0  0  0  0  0
  144.4810   73.3180  218.0490 C   0  0  0  0  0  0  0  0  0  0  0  0
  144.8370   72.7000  219.2350 C   0  0  0  0  0  0  0  0  0  0  0  0
  145.5720   71.0960  219.1520 Cl  0  0  0  0  0  0  0  0  0  0  0  0
  144.6480   73.2700  220.4680 C   0  0  0  0  0  0  0  0  0  0  0  0
  144.0740   74.5240  220.5460 C   0  0  0  0  0  0  0  0  0  0  0  0
  143.7090   75.1620  219.3720 C   0  0  0  0  0  0  0  0  0  0  0  0
  143.1490   76.3910  219.4970 N   0  0  0  0  0  0  0  0  0  0  0  0
  142.5670   78.5430  220.6150 H   0  0  0  0  0  0  0  0  0  0  0  0
  142.3386   81.0708  219.7159 H   0  0  0  0  0  0  0  0  0  0  0  0
  140.7641   80.2805  219.0671 H   0  0  0  0  0  0  0  0  0  0  0  0
  142.2888   82.4292  222.6915 H   0  0  0  0  0  0  0  0  0  0  0  0
  141.1961   82.1463  223.9995 H   0  0  0  0  0  0  0  0  0  0  0  0
  143.7273   80.6372  223.2012 H   0  0  0  0  0  0  0  0  0  0  0  0
  143.1715   81.0203  224.8395 H   0  0  0  0  0  0  0  0  0  0  0  0
  142.7211   78.5906  223.3179 H   0  0  0  0  0  0  0  0  0  0  0  0
  142.1419   78.9224  224.9398 H   0  0  0  0  0  0  0  0  0  0  0  0
  140.0048   79.8618  224.0589 H   0  0  0  0  0  0  0  0  0  0  0  0
  142.1765   77.4444  222.5667 H   0  0  0  0  0  0  0  0  0  0  0  0
  141.3211   75.3965  221.4977 H   0  0  0  0  0  0  0  0  0  0  0  0
  137.3658   76.8633  221.6553 H   0  0  0  0  0  0  0  0  0  0  0  0
  138.1685   78.9375  222.7339 H   0  0  0  0  0  0  0  0  0  0  0  0
  142.6219   77.1046  216.2205 H   0  0  0  0  0  0  0  0  0  0  0  0
  143.6513   74.8536  216.0358 H   0  0  0  0  0  0  0  0  0  0  0  0
  144.6489   72.8298  217.0777 H   0  0  0  0  0  0  0  0  0  0  0  0
  144.9491   72.7363  221.3815 H   0  0  0  0  0  0  0  0  0  0  0  0
  143.9101   75.0063  221.5210 H   0  0  0  0  0  0  0  0  0  0  0  0
  1  2  2  0
  2  3  1  0
  3  4  1  0
  4  5  1  0
  5  6  2  0
  5  7  1  0
  7  8  1  0
  8  9  1  0
  9 10  1  0
 10 11  1  0
 11 12  1  0
 12 13  2  0
 13 14  1  0
 14 15  2  0
 15 16  1  0
 16 17  2  0
  2 18  1  0
 18 19  2  0
 19 20  1  0
 20 21  2  0
 21 22  1  0
 22 23  2  0
 23 24  1  0
 23 25  1  0
 25 26  2  0
 26 27  1  0
 27 28  2  0
 11  7  1  0
 17 12  1  0
 28 18  1  0
 27 21  1  0
  3 29  1  0
  4 30  1  0
  4 31  1  0
  8 32  1  0
  8 33  1  0
  9 34  1  0
  9 35  1  0
 10 36  1  0
 10 37  1  0
 11 38  1  1
 13 39  1  0
 14 40  1  0
 16 41  1  0
 17 42  1  0
 19 43  1  0
 20 44  1  0
 22 45  1  0
 25 46  1  0
 26 47  1  0
M  END
>  <smiles>  (14) 
O=C(NCC(=O)N1CCCC1c1ccncc1)c1ccc2cc(Cl)ccc2n1

>  <score_type>  (14) 
oracle

>  <origin>  (14) 
autodockgpu

>  <m_score__min__energy>  (14) 
-8.25

>  <m_primary>  (14) 
energy

>  <rmsd>  (14) 
8.44914291055807

>  <m_score__min__rmsd>  (14) 
8.44914291055807

>  <meeko>  (14) 
{"free_energy": -6.77, "intermolecular_energy": -8.26, "internal_energy": -2.16, "cluster_size": 6, "cluster_id": 6, "rank_in_cluster": 4}

>  <energy>  (14) 
-7.26

>  <cluster_rmsd>  (14) 
1.46

>  <cluster>  (14) 
1

$$$$

     RDKit          3D

 47 50  0  0  0  0  0  0  0  0999 V2000
  140.5520   72.7190  220.8230 O   0  0  0  0  0  0  0  0  0  0  0  0
  140.1410   72.9380  221.9940 C   0  0  0  0  0  0  0  0  0  0  0  0
  139.6880   74.2820  222.2460 N   0  0  0  0  0  0  0  0  0  0  0  0
  139.7580   75.1980  221.1490 C   0  0  0  0  0  0  0  0  0  0  0  0
  139.4710   76.6000  221.3640 C   0  0  0  0  0  0  0  0  0  0  0  0
  140.1100   77.4010  220.5510 O   0  0  0  0  0  0  0  0  0  0  0  0
  138.6390   77.2520  222.2820 N   0  0  0  0  0  0  0  0  0  0  0  0
  137.2500   76.9720  222.6980 C   0  0  0  0  0  0  0  0  0  0  0  0
  136.6450   78.3220  222.4600 C   0  0  0  0  0  0  0  0  0  0  0  0
  137.7420   79.3240  222.7210 C   0  0  0  0  0  0  0  0  0  0  0  0
  138.9370   78.4550  223.0810 C   0  0  2  0  0  0  0  0  0  0  0  0
  140.1980   79.1190  222.7630 C   0  0  0  0  0  0  0  0  0  0  0  0
  141.3530   78.7300  223.4550 C   0  0  0  0  0  0  0  0  0  0  0  0
  142.5640   79.3560  223.2140 C   0  0  0  0  0  0  0  0  0  0  0  0
  142.6800   80.3470  222.3210 N   0  0  0  0  0  0  0  0  0  0  0  0
  141.5960   80.7520  221.6340 C   0  0  0  0  0  0  0  0  0  0  0  0
  140.3660   80.1400  221.8560 C   0  0  0  0  0  0  0  0  0  0  0  0
  140.1040   71.9460  223.0440 C   0  0  0  0  0  0  0  0  0  0  0  0
  139.5720   70.7050  222.7710 C   0  0  0  0  0  0  0  0  0  0  0  0
  139.5590   69.7870  223.8060 C   0  0  0  0  0  0  0  0  0  0  0  0
  140.0430   70.0600  225.0640 C   0  0  0  0  0  0  0  0  0  0  0  0
  140.0300   69.1470  226.0990 C   0  0  0  0  0  0  0  0  0  0  0  0
  140.5500   69.5540  227.3160 C   0  0  0  0  0  0  0  0  0  0  0  0
  140.5430   68.4000  228.6530 Cl  0  0  0  0  0  0  0  0  0  0  0  0
  141.0680   70.8050  227.5330 C   0  0  0  0  0  0  0  0  0  0  0  0
  141.0780   71.7160  226.4950 C   0  0  0  0  0  0  0  0  0  0  0  0
  140.5640   71.3310  225.2680 C   0  0  0  0  0  0  0  0  0  0  0  0
  140.5950   72.2570  224.2780 N   0  0  0  0  0  0  0  0  0  0  0  0
  139.3400   74.5090  223.1990 H   0  0  0  0  0  0  0  0  0  0  0  0
  140.7815   75.1398  220.7501 H   0  0  0  0  0  0  0  0  0  0  0  0
  138.9420   74.8687  220.4890 H   0  0  0  0  0  0  0  0  0  0  0  0
  136.7826   76.1967  222.0731 H   0  0  0  0  0  0  0  0  0  0  0  0
  137.1366   76.5811  223.7199 H   0  0  0  0  0  0  0  0  0  0  0  0
  136.2919   78.4044  221.4215 H   0  0  0  0  0  0  0  0  0  0  0  0
  135.7784   78.4951  223.1151 H   0  0  0  0  0  0  0  0  0  0  0  0
  137.9485   79.9241  221.8225 H   0  0  0  0  0  0  0  0  0  0  0  0
  137.4842   80.0465  223.5094 H   0  0  0  0  0  0  0  0  0  0  0  0
  139.0702   78.2295  224.1493 H   0  0  0  0  0  0  0  0  0  0  0  0
  141.2967   77.9196  224.1967 H   0  0  0  0  0  0  0  0  0  0  0  0
  143.4549   79.0306  223.7711 H   0  0  0  0  0  0  0  0  0  0  0  0
  141.6820   81.5653  220.8983 H   0  0  0  0  0  0  0  0  0  0  0  0
  139.4930   80.4864  221.2834 H   0  0  0  0  0  0  0  0  0  0  0  0
  139.1757   70.4554  221.7757 H   0  0  0  0  0  0  0  0  0  0  0  0
  139.1404   68.7883  223.6129 H   0  0  0  0  0  0  0  0  0  0  0  0
  139.6221   68.1346  225.9623 H   0  0  0  0  0  0  0  0  0  0  0  0
  141.4698   71.0790  228.5197 H   0  0  0  0  0  0  0  0  0  0  0  0
  141.4861   72.7272  226.6399 H   0  0  0  0  0  0  0  0  0  0  0  0
  1  2  2  0
  2  3  1  0
  3  4  1  0
  4  5  1  0
  5  6  2  0
  5  7  1  0
  7  8  1  0
  8  9  1  0
  9 10  1  0
 10 11  1  0
 11 12  1  0
 12 13  2  0
 13 14  1  0
 14 15  2  0
 15 16  1  0
 16 17  2  0
  2 18  1  0
 18 19  2  0
 19 20  1  0
 20 21  2  0
 21 22  1  0
 22 23  2  0
 23 24  1  0
 23 25  1  0
 25 26  2  0
 26 27  1  0
 27 28  2  0
 11  7  1  0
 17 12  1  0
 28 18  1  0
 27 21  1  0
  3 29  1  0
  4 30  1  0
  4 31  1  0
  8 32  1  0
  8 33  1  0
  9 34  1  0
  9 35  1  0
 10 36  1  0
 10 37  1  0
 11 38  1  1
 13 39  1  0
 14 40  1  0
 16 41  1  0
 17 42  1  0
 19 43  1  0
 20 44  1  0
 22 45  1  0
 25 46  1  0
 26 47  1  0
M  END
>  <smiles>  (15) 
O=C(NCC(=O)N1CCCC1c1ccncc1)c1ccc2cc(Cl)ccc2n1

>  <score_type>  (15) 
oracle

>  <origin>  (15) 
autodockgpu

>  <m_score__min__energy>  (15) 
-8.25

>  <m_primary>  (15) 
energy

>  <rmsd>  (15) 
3.343914574959113

>  <m_score__min__rmsd>  (15) 
3.343914574959113

>  <meeko>  (15) 
{"free_energy": -8.06, "intermolecular_energy": -9.55, "internal_energy": -1.21, "cluster_size": 20, "cluster_id": 2, "rank_in_cluster": 11}

>  <energy>  (15) 
-7.21

>  <cluster_rmsd>  (15) 
1.5

>  <cluster>  (15) 
1

$$$$

     RDKit          3D

 47 50  0  0  0  0  0  0  0  0999 V2000
  134.2290   69.2710  226.4460 O   0  0  0  0  0  0  0  0  0  0  0  0
  134.5080   70.4500  226.0970 C   0  0  0  0  0  0  0  0  0  0  0  0
  135.6830   70.5850  225.2760 N   0  0  0  0  0  0  0  0  0  0  0  0
  136.3860   69.3800  224.9580 C   0  0  0  0  0  0  0  0  0  0  0  0
  137.7710   69.4440  224.5420 C   0  0  0  0  0  0  0  0  0  0  0  0
  138.2940   68.2780  224.2650 O   0  0  0  0  0  0  0  0  0  0  0  0
  138.6490   70.5240  224.3860 N   0  0  0  0  0  0  0  0  0  0  0  0
  138.7740   71.5220  223.3060 C   0  0  0  0  0  0  0  0  0  0  0  0
  140.2320   71.3710  222.9980 C   0  0  0  0  0  0  0  0  0  0  0  0
  140.8980   70.9970  224.3000 C   0  0  0  0  0  0  0  0  0  0  0  0
  139.7420   70.9400  225.2850 C   0  0  2  0  0  0  0  0  0  0  0  0
  140.0230   70.0290  226.3900 C   0  0  0  0  0  0  0  0  0  0  0  0
  140.7570   68.8640  226.1280 C   0  0  0  0  0  0  0  0  0  0  0  0
  141.0170   67.9520  227.1370 C   0  0  0  0  0  0  0  0  0  0  0  0
  140.5820   68.1420  228.3880 N   0  0  0  0  0  0  0  0  0  0  0  0
  139.8740   69.2470  228.6840 C   0  0  0  0  0  0  0  0  0  0  0  0
  139.5980   70.1810  227.6900 C   0  0  0  0  0  0  0  0  0  0  0  0
  133.7360   71.6140  226.4660 C   0  0  0  0  0  0  0  0  0  0  0  0
  132.5540   71.4400  227.1530 C   0  0  0  0  0  0  0  0  0  0  0  0
  131.8490   72.5830  227.4870 C   0  0  0  0  0  0  0  0  0  0  0  0
  132.2710   73.8510  227.1640 C   0  0  0  0  0  0  0  0  0  0  0  0
  131.5700   74.9940  227.4940 C   0  0  0  0  0  0  0  0  0  0  0  0
  132.1090   76.2080  227.1080 C   0  0  0  0  0  0  0  0  0  0  0  0
  131.2270   77.6810  227.5210 Cl  0  0  0  0  0  0  0  0  0  0  0  0
  133.2920   76.3240  226.4230 C   0  0  0  0  0  0  0  0  0  0  0  0
  133.9910   75.1780  226.0940 C   0  0  0  0  0  0  0  0  0  0  0  0
  133.4700   73.9510  226.4700 C   0  0  0  0  0  0  0  0  0  0  0  0
  134.1900   72.8540  226.1270 N   0  0  0  0  0  0  0  0  0  0  0  0
  135.9530   71.5400  224.9630 H   0  0  0  0  0  0  0  0  0  0  0  0
  136.3520   68.7450  225.8555 H   0  0  0  0  0  0  0  0  0  0  0  0
  135.8670   69.0108  224.0612 H   0  0  0  0  0  0  0  0  0  0  0  0
  138.1435   71.2710  222.4403 H   0  0  0  0  0  0  0  0  0  0  0  0
  138.4542   72.5407  223.5704 H   0  0  0  0  0  0  0  0  0  0  0  0
  140.3842   70.5790  222.2500 H   0  0  0  0  0  0  0  0  0  0  0  0
  140.6533   72.2984  222.5828 H   0  0  0  0  0  0  0  0  0  0  0  0
  141.3957   70.0193  224.2206 H   0  0  0  0  0  0  0  0  0  0  0  0
  141.6824   71.7074  224.6000 H   0  0  0  0  0  0  0  0  0  0  0  0
  139.5142   71.8725  225.8222 H   0  0  0  0  0  0  0  0  0  0  0  0
  141.1301   68.6724  225.1111 H   0  0  0  0  0  0  0  0  0  0  0  0
  141.5969   67.0468  226.9038 H   0  0  0  0  0  0  0  0  0  0  0  0
  139.5138   69.4120  229.7102 H   0  0  0  0  0  0  0  0  0  0  0  0
  139.0168   71.0768  227.9541 H   0  0  0  0  0  0  0  0  0  0  0  0
  132.1878   70.4386  227.4234 H   0  0  0  0  0  0  0  0  0  0  0  0
  130.9038   72.4715  228.0385 H   0  0  0  0  0  0  0  0  0  0  0  0
  130.6185   74.9411  228.0434 H   0  0  0  0  0  0  0  0  0  0  0  0
  133.6784   77.3142  226.1399 H   0  0  0  0  0  0  0  0  0  0  0  0
  134.9420   75.2392  225.5446 H   0  0  0  0  0  0  0  0  0  0  0  0
  1  2  2  0
  2  3  1  0
  3  4  1  0
  4  5  1  0
  5  6  2  0
  5  7  1  0
  7  8  1  0
  8  9  1  0
  9 10  1  0
 10 11  1  0
 11 12  1  0
 12 13  2  0
 13 14  1  0
 14 15  2  0
 15 16  1  0
 16 17  2  0
  2 18  1  0
 18 19  2  0
 19 20  1  0
 20 21  2  0
 21 22  1  0
 22 23  2  0
 23 24  1  0
 23 25  1  0
 25 26  2  0
 26 27  1  0
 27 28  2  0
 11  7  1  0
 17 12  1  0
 28 18  1  0
 27 21  1  0
  3 29  1  0
  4 30  1  0
  4 31  1  0
  8 32  1  0
  8 33  1  0
  9 34  1  0
  9 35  1  0
 10 36  1  0
 10 37  1  0
 11 38  1  1
 13 39  1  0
 14 40  1  0
 16 41  1  0
 17 42  1  0
 19 43  1  0
 20 44  1  0
 22 45  1  0
 25 46  1  0
 26 47  1  0
M  END
>  <smiles>  (16) 
O=C(NCC(=O)N1CCCC1c1ccncc1)c1ccc2cc(Cl)ccc2n1

>  <score_type>  (16) 
oracle

>  <origin>  (16) 
autodockgpu

>  <m_score__min__energy>  (16) 
-8.25

>  <m_primary>  (16) 
energy

>  <rmsd>  (16) 
7.9251910370685295

>  <m_score__min__rmsd>  (16) 
7.9251910370685295

>  <meeko>  (16) 
{"free_energy": -7.84, "intermolecular_energy": -9.33, "internal_energy": -1.56, "cluster_size": 5, "cluster_id": 3, "rank_in_cluster": 4}

>  <energy>  (16) 
-8.2

>  <cluster_rmsd>  (16) 
0.0

>  <cluster>  (16) 
2

$$$$

     RDKit          3D

 47 50  0  0  0  0  0  0  0  0999 V2000
  140.9370   72.8240  221.2610 O   0  0  0  0  0  0  0  0  0  0  0  0
  140.0450   72.7270  222.1460 C   0  0  0  0  0  0  0  0  0  0  0  0
  138.9870   73.7010  222.0610 N   0  0  0  0  0  0  0  0  0  0  0  0
  139.0740   74.6510  220.9950 C   0  0  0  0  0  0  0  0  0  0  0  0
  140.1750   75.5900  220.9570 C   0  0  0  0  0  0  0  0  0  0  0  0
  140.9160   75.5770  222.0340 O   0  0  0  0  0  0  0  0  0  0  0  0
  140.5870   76.5050  219.9810 N   0  0  0  0  0  0  0  0  0  0  0  0
  140.9750   76.3080  218.5710 C   0  0  0  0  0  0  0  0  0  0  0  0
  142.3060   76.9940  218.5830 C   0  0  0  0  0  0  0  0  0  0  0  0
  142.1960   78.1030  219.5990 C   0  0  0  0  0  0  0  0  0  0  0  0
  140.7780   77.9610  220.1270 C   0  0  2  0  0  0  0  0  0  0  0  0
  140.6580   78.4730  221.4880 C   0  0  0  0  0  0  0  0  0  0  0  0
  141.8270   78.6830  222.2310 C   0  0  0  0  0  0  0  0  0  0  0  0
  141.7610   79.1330  223.5390 C   0  0  0  0  0  0  0  0  0  0  0  0
  140.5910   79.3810  224.1400 N   0  0  0  0  0  0  0  0  0  0  0  0
  139.4440   79.1930  223.4640 C   0  0  0  0  0  0  0  0  0  0  0  0
  139.4800   78.7420  222.1480 C   0  0  0  0  0  0  0  0  0  0  0  0
  140.0370   71.7280  223.1900 C   0  0  0  0  0  0  0  0  0  0  0  0
  139.5150   70.4830  222.9170 C   0  0  0  0  0  0  0  0  0  0  0  0
  139.5300   69.5580  223.9470 C   0  0  0  0  0  0  0  0  0  0  0  0
  140.0300   69.8300  225.1980 C   0  0  0  0  0  0  0  0  0  0  0  0
  140.0450   68.9100  226.2280 C   0  0  0  0  0  0  0  0  0  0  0  0
  140.5790   69.3160  227.4380 C   0  0  0  0  0  0  0  0  0  0  0  0
  140.6080   68.1530  228.7680 Cl  0  0  0  0  0  0  0  0  0  0  0  0
  141.0860   70.5710  227.6550 C   0  0  0  0  0  0  0  0  0  0  0  0
  141.0690   71.4890  226.6230 C   0  0  0  0  0  0  0  0  0  0  0  0
  140.5390   71.1050  225.4020 C   0  0  0  0  0  0  0  0  0  0  0  0
  140.5440   72.0380  224.4180 N   0  0  0  0  0  0  0  0  0  0  0  0
  138.2280   73.6590  222.7710 H   0  0  0  0  0  0  0  0  0  0  0  0
  139.1132   74.0759  220.0581 H   0  0  0  0  0  0  0  0  0  0  0  0
  138.1956   75.2938  221.1536 H   0  0  0  0  0  0  0  0  0  0  0  0
  141.0651   75.2419  218.3152 H   0  0  0  0  0  0  0  0  0  0  0  0
  140.2576   76.6906  217.8301 H   0  0  0  0  0  0  0  0  0  0  0  0
  143.0972   76.2872  218.8736 H   0  0  0  0  0  0  0  0  0  0  0  0
  142.5655   77.3849  217.5881 H   0  0  0  0  0  0  0  0  0  0  0  0
  142.9313   77.9709  220.4064 H   0  0  0  0  0  0  0  0  0  0  0  0
  142.3967   79.0967  219.1720 H   0  0  0  0  0  0  0  0  0  0  0  0
  140.0040   78.5428  219.6051 H   0  0  0  0  0  0  0  0  0  0  0  0
  142.8070   78.4885  221.7708 H   0  0  0  0  0  0  0  0  0  0  0  0
  142.6947   79.2908  224.0988 H   0  0  0  0  0  0  0  0  0  0  0  0
  138.4785   79.3954  223.9506 H   0  0  0  0  0  0  0  0  0  0  0  0
  138.5297   78.5946  221.6139 H   0  0  0  0  0  0  0  0  0  0  0  0
  139.1053   70.2352  221.9267 H   0  0  0  0  0  0  0  0  0  0  0  0
  139.1212   68.5551  223.7545 H   0  0  0  0  0  0  0  0  0  0  0  0
  139.6476   67.8934  226.0915 H   0  0  0  0  0  0  0  0  0  0  0  0
  141.5005   70.8431  228.6369 H   0  0  0  0  0  0  0  0  0  0  0  0
  141.4680   72.5038  226.7677 H   0  0  0  0  0  0  0  0  0  0  0  0
  1  2  2  0
  2  3  1  0
  3  4  1  0
  4  5  1  0
  5  6  2  0
  5  7  1  0
  7  8  1  0
  8  9  1  0
  9 10  1  0
 10 11  1  0
 11 12  1  0
 12 13  2  0
 13 14  1  0
 14 15  2  0
 15 16  1  0
 16 17  2  0
  2 18  1  0
 18 19  2  0
 19 20  1  0
 20 21  2  0
 21 22  1  0
 22 23  2  0
 23 24  1  0
 23 25  1  0
 25 26  2  0
 26 27  1  0
 27 28  2  0
 11  7  1  0
 17 12  1  0
 28 18  1  0
 27 21  1  0
  3 29  1  0
  4 30  1  0
  4 31  1  0
  8 32  1  0
  8 33  1  0
  9 34  1  0
  9 35  1  0
 10 36  1  0
 10 37  1  0
 11 38  1  6
 13 39  1  0
 14 40  1  0
 16 41  1  0
 17 42  1  0
 19 43  1  0
 20 44  1  0
 22 45  1  0
 25 46  1  0
 26 47  1  0
M  END
>  <smiles>  (17) 
O=C(NCC(=O)N1CCCC1c1ccncc1)c1ccc2cc(Cl)ccc2n1

>  <score_type>  (17) 
oracle

>  <origin>  (17) 
autodockgpu

>  <m_score__min__energy>  (17) 
-8.25

>  <m_primary>  (17) 
energy

>  <rmsd>  (17) 
1.7182239649887667

>  <m_score__min__rmsd>  (17) 
1.7182239649887667

>  <meeko>  (17) 
{"free_energy": -8.12, "intermolecular_energy": -9.61, "internal_energy": -1.22, "cluster_size": 20, "cluster_id": 2, "rank_in_cluster": 6}

>  <energy>  (17) 
-8.16

>  <cluster_rmsd>  (17) 
0.14

>  <cluster>  (17) 
2

$$$$

     RDKit          3D

 47 50  0  0  0  0  0  0  0  0999 V2000
  140.0800   72.1230  220.6210 O   0  0  0  0  0  0  0  0  0  0  0  0
  140.0200   72.4610  221.8340 C   0  0  0  0  0  0  0  0  0  0  0  0
  139.9590   73.8800  222.0730 N   0  0  0  0  0  0  0  0  0  0  0  0
  139.9750   74.7270  220.9190 C   0  0  0  0  0  0  0  0  0  0  0  0
  140.8720   75.8620  220.8730 C   0  0  0  0  0  0  0  0  0  0  0  0
  141.0790   76.4190  222.0370 O   0  0  0  0  0  0  0  0  0  0  0  0
  141.5540   76.4680  219.8110 N   0  0  0  0  0  0  0  0  0  0  0  0
  141.1880   77.6100  218.9510 C   0  0  0  0  0  0  0  0  0  0  0  0
  141.3700   76.9750  217.6070 C   0  0  0  0  0  0  0  0  0  0  0  0
  142.4820   75.9690  217.7670 C   0  0  0  0  0  0  0  0  0  0  0  0
  142.8580   76.0870  219.2360 C   0  0  2  0  0  0  0  0  0  0  0  0
  143.4250   74.8420  219.7460 C   0  0  0  0  0  0  0  0  0  0  0  0
  144.6230   74.9000  220.4710 C   0  0  0  0  0  0  0  0  0  0  0  0
  145.2180   73.7420  220.9440 C   0  0  0  0  0  0  0  0  0  0  0  0
  144.6810   72.5360  220.7290 N   0  0  0  0  0  0  0  0  0  0  0  0
  143.5310   72.4340  220.0370 C   0  0  0  0  0  0  0  0  0  0  0  0
  142.9110   73.5810  219.5500 C   0  0  0  0  0  0  0  0  0  0  0  0
  140.0070   71.5320  222.9400 C   0  0  0  0  0  0  0  0  0  0  0  0
  139.4940   70.2690  222.7440 C   0  0  0  0  0  0  0  0  0  0  0  0
  139.5030   69.4130  223.8320 C   0  0  0  0  0  0  0  0  0  0  0  0
  139.9920   69.7680  225.0670 C   0  0  0  0  0  0  0  0  0  0  0  0
  140.0020   68.9170  226.1550 C   0  0  0  0  0  0  0  0  0  0  0  0
  140.5230   69.4030  227.3400 C   0  0  0  0  0  0  0  0  0  0  0  0
  140.5450   68.3300  228.7430 Cl  0  0  0  0  0  0  0  0  0  0  0  0
  141.0220   70.6730  227.4800 C   0  0  0  0  0  0  0  0  0  0  0  0
  141.0100   71.5210  226.3900 C   0  0  0  0  0  0  0  0  0  0  0  0
  140.4930   71.0570  225.1920 C   0  0  0  0  0  0  0  0  0  0  0  0
  140.5010   71.9240  224.1500 N   0  0  0  0  0  0  0  0  0  0  0  0
  139.9080   74.2070  223.0590 H   0  0  0  0  0  0  0  0  0  0  0  0
  140.2245   74.0886  220.0586 H   0  0  0  0  0  0  0  0  0  0  0  0
  138.9773   75.1902  220.9284 H   0  0  0  0  0  0  0  0  0  0  0  0
  140.1490   77.9314  219.1158 H   0  0  0  0  0  0  0  0  0  0  0  0
  141.7708   78.5279  219.1181 H   0  0  0  0  0  0  0  0  0  0  0  0
  140.4430   76.4727  217.2934 H   0  0  0  0  0  0  0  0  0  0  0  0
  141.6127   77.7235  216.8384 H   0  0  0  0  0  0  0  0  0  0  0  0
  142.1307   74.9536  217.5313 H   0  0  0  0  0  0  0  0  0  0  0  0
  143.3296   76.1558  217.0912 H   0  0  0  0  0  0  0  0  0  0  0  0
  143.6536   76.8068  219.4788 H   0  0  0  0  0  0  0  0  0  0  0  0
  145.0952   75.8741  220.6662 H   0  0  0  0  0  0  0  0  0  0  0  0
  146.1573   73.8162  221.5116 H   0  0  0  0  0  0  0  0  0  0  0  0
  143.0821   71.4461  219.8567 H   0  0  0  0  0  0  0  0  0  0  0  0
  141.9726   73.4750  218.9859 H   0  0  0  0  0  0  0  0  0  0  0  0
  139.0955   69.9549  221.7680 H   0  0  0  0  0  0  0  0  0  0  0  0
  139.0988   68.3983  223.7019 H   0  0  0  0  0  0  0  0  0  0  0  0
  139.6104   67.8917  226.0815 H   0  0  0  0  0  0  0  0  0  0  0  0
  141.4256   71.0109  228.4458 H   0  0  0  0  0  0  0  0  0  0  0  0
  141.4034   72.5450  226.4718 H   0  0  0  0  0  0  0  0  0  0  0  0
  1  2  2  0
  2  3  1  0
  3  4  1  0
  4  5  1  0
  5  6  2  0
  5  7  1  0
  7  8  1  0
  8  9  1  0
  9 10  1  0
 10 11  1  0
 11 12  1  0
 12 13  2  0
 13 14  1  0
 14 15  2  0
 15 16  1  0
 16 17  2  0
  2 18  1  0
 18 19  2  0
 19 20  1  0
 20 21  2  0
 21 22  1  0
 22 23  2  0
 23 24  1  0
 23 25  1  0
 25 26  2  0
 26 27  1  0
 27 28  2  0
 11  7  1  0
 17 12  1  0
 28 18  1  0
 27 21  1  0
  3 29  1  0
  4 30  1  0
  4 31  1  0
  8 32  1  0
  8 33  1  0
  9 34  1  0
  9 35  1  0
 10 36  1  0
 10 37  1  0
 11 38  1  6
 13 39  1  0
 14 40  1  0
 16 41  1  0
 17 42  1  0
 19 43  1  0
 20 44  1  0
 22 45  1  0
 25 46  1  0
 26 47  1  0
M  END
>  <smiles>  (18) 
O=C(NCC(=O)N1CCCC1c1ccncc1)c1ccc2cc(Cl)ccc2n1

>  <score_type>  (18) 
oracle

>  <origin>  (18) 
autodockgpu

>  <m_score__min__energy>  (18) 
-8.25

>  <m_primary>  (18) 
energy

>  <rmsd>  (18) 
2.0260468270514447

>  <m_score__min__rmsd>  (18) 
2.0260468270514447

>  <meeko>  (18) 
{"free_energy": -7.35, "intermolecular_energy": -8.85, "internal_energy": -1.83, "cluster_size": 15, "cluster_id": 1, "rank_in_cluster": 12}

>  <energy>  (18) 
-8.16

>  <cluster_rmsd>  (18) 
0.15

>  <cluster>  (18) 
2

$$$$

     RDKit          3D

 47 50  0  0  0  0  0  0  0  0999 V2000
  139.7800   72.1630  220.7700 O   0  0  0  0  0  0  0  0  0  0  0  0
  139.7330   72.4630  221.9940 C   0  0  0  0  0  0  0  0  0  0  0  0
  139.5860   73.8680  222.2770 N   0  0  0  0  0  0  0  0  0  0  0  0
  139.5110   74.7450  221.1490 C   0  0  0  0  0  0  0  0  0  0  0  0
  140.4000   75.8840  221.0650 C   0  0  0  0  0  0  0  0  0  0  0  0
  141.1340   76.0610  222.1320 O   0  0  0  0  0  0  0  0  0  0  0  0
  140.6140   76.8280  220.0530 N   0  0  0  0  0  0  0  0  0  0  0  0
  140.7500   76.6670  218.5920 C   0  0  0  0  0  0  0  0  0  0  0  0
  142.0480   77.3850  218.3840 C   0  0  0  0  0  0  0  0  0  0  0  0
  142.0970   78.4720  219.4300 C   0  0  0  0  0  0  0  0  0  0  0  0
  140.7970   78.2840  220.1960 C   0  0  2  0  0  0  0  0  0  0  0  0
  140.9100   78.7670  221.5690 C   0  0  0  0  0  0  0  0  0  0  0  0
  142.1830   79.0570  222.0750 C   0  0  0  0  0  0  0  0  0  0  0  0
  142.3430   79.4830  223.3830 C   0  0  0  0  0  0  0  0  0  0  0  0
  141.2990   79.6330  224.2070 N   0  0  0  0  0  0  0  0  0  0  0  0
  140.0580   79.3660  223.7630 C   0  0  0  0  0  0  0  0  0  0  0  0
  139.8680   78.9360  222.4520 C   0  0  0  0  0  0  0  0  0  0  0  0
  139.8150   71.5050  223.0720 C   0  0  0  0  0  0  0  0  0  0  0  0
  139.3530   70.2240  222.8620 C   0  0  0  0  0  0  0  0  0  0  0  0
  139.4520   69.3410  223.9220 C   0  0  0  0  0  0  0  0  0  0  0  0
  139.9790   69.6850  225.1450 C   0  0  0  0  0  0  0  0  0  0  0  0
  140.0790   68.8060  226.2050 C   0  0  0  0  0  0  0  0  0  0  0  0
  140.6310   69.2840  227.3810 C   0  0  0  0  0  0  0  0  0  0  0  0
  140.7680   68.1750  228.7490 Cl  0  0  0  0  0  0  0  0  0  0  0  0
  141.0760   70.5720  227.5350 C   0  0  0  0  0  0  0  0  0  0  0  0
  140.9740   71.4480  226.4720 C   0  0  0  0  0  0  0  0  0  0  0  0
  140.4250   70.9920  225.2850 C   0  0  0  0  0  0  0  0  0  0  0  0
  140.3450   71.8860  224.2690 N   0  0  0  0  0  0  0  0  0  0  0  0
  139.5420   74.1630  223.2740 H   0  0  0  0  0  0  0  0  0  0  0  0
  139.6942   74.1309  220.2550 H   0  0  0  0  0  0  0  0  0  0  0  0
  138.5161   75.2038  221.2474 H   0  0  0  0  0  0  0  0  0  0  0  0
  140.8152   75.6084  218.3001 H   0  0  0  0  0  0  0  0  0  0  0  0
  139.9049   77.0460  217.9985 H   0  0  0  0  0  0  0  0  0  0  0  0
  142.8926   76.6922  218.5134 H   0  0  0  0  0  0  0  0  0  0  0  0
  142.1189   77.8011  217.3682 H   0  0  0  0  0  0  0  0  0  0  0  0
  142.9660   78.3423  220.0919 H   0  0  0  0  0  0  0  0  0  0  0  0
  142.1990   79.4786  218.9983 H   0  0  0  0  0  0  0  0  0  0  0  0
  139.9305   78.8554  219.8318 H   0  0  0  0  0  0  0  0  0  0  0  0
  143.0649   78.9453  221.4270 H   0  0  0  0  0  0  0  0  0  0  0  0
  143.3546   79.7039  223.7544 H   0  0  0  0  0  0  0  0  0  0  0  0
  139.1947   79.4870  224.4339 H   0  0  0  0  0  0  0  0  0  0  0  0
  138.8448   78.7231  222.1088 H   0  0  0  0  0  0  0  0  0  0  0  0
  138.9252   69.9177  221.8960 H   0  0  0  0  0  0  0  0  0  0  0  0
  139.0910   68.3117  223.7797 H   0  0  0  0  0  0  0  0  0  0  0  0
  139.7332   67.7654  226.1183 H   0  0  0  0  0  0  0  0  0  0  0  0
  141.5079   70.9026  228.4911 H   0  0  0  0  0  0  0  0  0  0  0  0
  141.3219   72.4873  226.5663 H   0  0  0  0  0  0  0  0  0  0  0  0
  1  2  2  0
  2  3  1  0
  3  4  1  0
  4  5  1  0
  5  6  2  0
  5  7  1  0
  7  8  1  0
  8  9  1  0
  9 10  1  0
 10 11  1  0
 11 12  1  0
 12 13  2  0
 13 14  1  0
 14 15  2  0
 15 16  1  0
 16 17  2  0
  2 18  1  0
 18 19  2  0
 19 20  1  0
 20 21  2  0
 21 22  1  0
 22 23  2  0
 23 24  1  0
 23 25  1  0
 25 26  2  0
 26 27  1  0
 27 28  2  0
 11  7  1  0
 17 12  1  0
 28 18  1  0
 27 21  1  0
  3 29  1  0
  4 30  1  0
  4 31  1  0
  8 32  1  0
  8 33  1  0
  9 34  1  0
  9 35  1  0
 10 36  1  0
 10 37  1  0
 11 38  1  6
 13 39  1  0
 14 40  1  0
 16 41  1  0
 17 42  1  0
 19 43  1  0
 20 44  1  0
 22 45  1  0
 25 46  1  0
 26 47  1  0
M  END
>  <smiles>  (19) 
O=C(NCC(=O)N1CCCC1c1ccncc1)c1ccc2cc(Cl)ccc2n1

>  <score_type>  (19) 
oracle

>  <origin>  (19) 
autodockgpu

>  <m_score__min__energy>  (19) 
-8.25

>  <m_primary>  (19) 
energy

>  <rmsd>  (19) 
1.713886631027673

>  <m_score__min__rmsd>  (19) 
1.713886631027673

>  <meeko>  (19) 
{"free_energy": -8.03, "intermolecular_energy": -9.53, "internal_energy": -1.4, "cluster_size": 20, "cluster_id": 2, "rank_in_cluster": 13}

>  <energy>  (19) 
-8.15

>  <cluster_rmsd>  (19) 
0.39

>  <cluster>  (19) 
2

$$$$

     RDKit          3D

 47 50  0  0  0  0  0  0  0  0999 V2000
  140.4750   72.2600  220.7710 O   0  0  0  0  0  0  0  0  0  0  0  0
  140.0590   72.5100  221.9340 C   0  0  0  0  0  0  0  0  0  0  0  0
  139.5690   73.8500  222.1350 N   0  0  0  0  0  0  0  0  0  0  0  0
  139.6130   74.7260  221.0040 C   0  0  0  0  0  0  0  0  0  0  0  0
  140.7940   75.5250  220.7600 C   0  0  0  0  0  0  0  0  0  0  0  0
  141.5110   75.7480  221.8300 O   0  0  0  0  0  0  0  0  0  0  0  0
  141.3060   76.1010  219.5910 N   0  0  0  0  0  0  0  0  0  0  0  0
  140.7230   77.0910  218.6640 C   0  0  0  0  0  0  0  0  0  0  0  0
  140.8870   76.3480  217.3740 C   0  0  0  0  0  0  0  0  0  0  0  0
  142.1350   75.5140  217.5270 C   0  0  0  0  0  0  0  0  0  0  0  0
  142.6010   75.8300  218.9390 C   0  0  2  0  0  0  0  0  0  0  0  0
  143.3690   74.7280  219.5100 C   0  0  0  0  0  0  0  0  0  0  0  0
  142.9500   73.4160  219.2550 C   0  0  0  0  0  0  0  0  0  0  0  0
  143.6250   72.3390  219.8050 C   0  0  0  0  0  0  0  0  0  0  0  0
  144.6930   72.5070  220.5950 N   0  0  0  0  0  0  0  0  0  0  0  0
  145.1300   73.7500  220.8670 C   0  0  0  0  0  0  0  0  0  0  0  0
  144.4700   74.8510  220.3270 C   0  0  0  0  0  0  0  0  0  0  0  0
  140.0510   71.5590  223.0200 C   0  0  0  0  0  0  0  0  0  0  0  0
  139.5440   70.2970  222.7970 C   0  0  0  0  0  0  0  0  0  0  0  0
  139.5570   69.4180  223.8660 C   0  0  0  0  0  0  0  0  0  0  0  0
  140.0430   69.7490  225.1100 C   0  0  0  0  0  0  0  0  0  0  0  0
  140.0570   68.8750  226.1790 C   0  0  0  0  0  0  0  0  0  0  0  0
  140.5750   69.3390  227.3750 C   0  0  0  0  0  0  0  0  0  0  0  0
  140.6020   68.2370  228.7550 Cl  0  0  0  0  0  0  0  0  0  0  0  0
  141.0660   70.6090  227.5420 C   0  0  0  0  0  0  0  0  0  0  0  0
  141.0500   71.4800  226.4710 C   0  0  0  0  0  0  0  0  0  0  0  0
  140.5370   71.0380  225.2630 C   0  0  0  0  0  0  0  0  0  0  0  0
  140.5420   71.9270  224.2380 N   0  0  0  0  0  0  0  0  0  0  0  0
  139.2150   74.1030  223.0800 H   0  0  0  0  0  0  0  0  0  0  0  0
  139.4606   74.1017  220.1112 H   0  0  0  0  0  0  0  0  0  0  0  0
  138.8402   75.4752  221.2310 H   0  0  0  0  0  0  0  0  0  0  0  0
  139.6655   77.2920  218.8902 H   0  0  0  0  0  0  0  0  0  0  0  0
  141.1862   78.0883  218.6921 H   0  0  0  0  0  0  0  0  0  0  0  0
  140.0157   75.7015  217.1924 H   0  0  0  0  0  0  0  0  0  0  0  0
  140.9666   77.0374  216.5206 H   0  0  0  0  0  0  0  0  0  0  0  0
  141.9083   74.4432  217.4180 H   0  0  0  0  0  0  0  0  0  0  0  0
  142.8958   75.7368  216.7644 H   0  0  0  0  0  0  0  0  0  0  0  0
  143.3078   76.6666  219.0417 H   0  0  0  0  0  0  0  0  0  0  0  0
  142.0757   73.2392  218.6112 H   0  0  0  0  0  0  0  0  0  0  0  0
  143.2747   71.3192  219.5872 H   0  0  0  0  0  0  0  0  0  0  0  0
  146.0070   73.8964  221.5147 H   0  0  0  0  0  0  0  0  0  0  0  0
  144.8432   75.8586  220.5626 H   0  0  0  0  0  0  0  0  0  0  0  0
  139.1472   70.0019  221.8144 H   0  0  0  0  0  0  0  0  0  0  0  0
  139.1589   68.4040  223.7135 H   0  0  0  0  0  0  0  0  0  0  0  0
  139.6712   67.8493  226.0833 H   0  0  0  0  0  0  0  0  0  0  0  0
  141.4667   70.9288  228.5153 H   0  0  0  0  0  0  0  0  0  0  0  0
  141.4369   72.5044  226.5751 H   0  0  0  0  0  0  0  0  0  0  0  0
  1  2  2  0
  2  3  1  0
  3  4  1  0
  4  5  1  0
  5  6  2  0
  5  7  1  0
  7  8  1  0
  8  9  1  0
  9 10  1  0
 10 11  1  0
 11 12  1  0
 12 13  2  0
 13 14  1  0
 14 15  2  0
 15 16  1  0
 16 17  2  0
  2 18  1  0
 18 19  2  0
 19 20  1  0
 20 21  2  0
 21 22  1  0
 22 23  2  0
 23 24  1  0
 23 25  1  0
 25 26  2  0
 26 27  1  0
 27 28  2  0
 11  7  1  0
 17 12  1  0
 28 18  1  0
 27 21  1  0
  3 29  1  0
  4 30  1  0
  4 31  1  0
  8 32  1  0
  8 33  1  0
  9 34  1  0
  9 35  1  0
 10 36  1  0
 10 37  1  0
 11 38  1  6
 13 39  1  0
 14 40  1  0
 16 41  1  0
 17 42  1  0
 19 43  1  0
 20 44  1  0
 22 45  1  0
 25 46  1  0
 26 47  1  0
M  END
>  <smiles>  (20) 
O=C(NCC(=O)N1CCCC1c1ccncc1)c1ccc2cc(Cl)ccc2n1

>  <score_type>  (20) 
oracle

>  <origin>  (20) 
autodockgpu

>  <m_score__min__energy>  (20) 
-8.25

>  <m_primary>  (20) 
energy

>  <rmsd>  (20) 
1.874016399757479

>  <m_score__min__rmsd>  (20) 
1.874016399757479

>  <meeko>  (20) 
{"free_energy": -7.31, "intermolecular_energy": -8.8, "internal_energy": -1.71, "cluster_size": 15, "cluster_id": 1, "rank_in_cluster": 13}

>  <energy>  (20) 
-8.15

>  <cluster_rmsd>  (20) 
0.18

>  <cluster>  (20) 
2

$$$$

     RDKit          3D

 47 50  0  0  0  0  0  0  0  0999 V2000
  133.9870   69.5960  226.5100 O   0  0  0  0  0  0  0  0  0  0  0  0
  134.2470   70.7590  226.0980 C   0  0  0  0  0  0  0  0  0  0  0  0
  135.3560   70.8530  225.1840 N   0  0  0  0  0  0  0  0  0  0  0  0
  136.0230   69.6300  224.8560 C   0  0  0  0  0  0  0  0  0  0  0  0
  137.3420   69.6680  224.2600 C   0  0  0  0  0  0  0  0  0  0  0  0
  137.7350   68.5190  223.7760 O   0  0  0  0  0  0  0  0  0  0  0  0
  138.2680   70.7070  224.1090 N   0  0  0  0  0  0  0  0  0  0  0  0
  138.3790   71.7640  223.0850 C   0  0  0  0  0  0  0  0  0  0  0  0
  139.8030   71.5550  222.6700 C   0  0  0  0  0  0  0  0  0  0  0  0
  140.5300   71.0660  223.8980 C   0  0  0  0  0  0  0  0  0  0  0  0
  139.4380   71.0070  224.9550 C   0  0  2  0  0  0  0  0  0  0  0  0
  139.7380   70.0140  225.9810 C   0  0  0  0  0  0  0  0  0  0  0  0
  139.9180   70.4470  227.3010 C   0  0  0  0  0  0  0  0  0  0  0  0
  140.2400   69.5470  228.3030 C   0  0  0  0  0  0  0  0  0  0  0  0
  140.3920   68.2400  228.0530 N   0  0  0  0  0  0  0  0  0  0  0  0
  140.2280   67.7810  226.7990 C   0  0  0  0  0  0  0  0  0  0  0  0
  139.9040   68.6640  225.7730 C   0  0  0  0  0  0  0  0  0  0  0  0
  133.5150   71.9430  226.4830 C   0  0  0  0  0  0  0  0  0  0  0  0
  132.3060   71.8000  227.1270 C   0  0  0  0  0  0  0  0  0  0  0  0
  131.6410   72.9610  227.4780 C   0  0  0  0  0  0  0  0  0  0  0  0
  132.1280   74.2200  227.2140 C   0  0  0  0  0  0  0  0  0  0  0  0
  131.4660   75.3810  227.5610 C   0  0  0  0  0  0  0  0  0  0  0  0
  132.0710   76.5820  227.2350 C   0  0  0  0  0  0  0  0  0  0  0  0
  131.2410   78.0790  227.6710 Cl  0  0  0  0  0  0  0  0  0  0  0  0
  133.2790   76.6670  226.5910 C   0  0  0  0  0  0  0  0  0  0  0  0
  133.9380   75.5030  226.2450 C   0  0  0  0  0  0  0  0  0  0  0  0
  133.3520   74.2890  226.5610 C   0  0  0  0  0  0  0  0  0  0  0  0
  134.0340   73.1730  226.2020 N   0  0  0  0  0  0  0  0  0  0  0  0
  135.6080   71.7940  224.8170 H   0  0  0  0  0  0  0  0  0  0  0  0
  136.1116   69.0550  225.7896 H   0  0  0  0  0  0  0  0  0  0  0  0
  135.3954   69.2023  224.0603 H   0  0  0  0  0  0  0  0  0  0  0  0
  137.6803   71.6027  222.2509 H   0  0  0  0  0  0  0  0  0  0  0  0
  138.1356   72.7794  223.4310 H   0  0  0  0  0  0  0  0  0  0  0  0
  139.8605   70.8042  221.8682 H   0  0  0  0  0  0  0  0  0  0  0  0
  140.2486   72.4830  222.2824 H   0  0  0  0  0  0  0  0  0  0  0  0
  140.9661   70.0708  223.7268 H   0  0  0  0  0  0  0  0  0  0  0  0
  141.3709   71.7143  224.1855 H   0  0  0  0  0  0  0  0  0  0  0  0
  139.2983   71.9139  225.5617 H   0  0  0  0  0  0  0  0  0  0  0  0
  139.8023   71.5135  227.5443 H   0  0  0  0  0  0  0  0  0  0  0  0
  140.3744   69.9151  229.3308 H   0  0  0  0  0  0  0  0  0  0  0  0
  140.3498   66.7090  226.5848 H   0  0  0  0  0  0  0  0  0  0  0  0
  139.7755   68.2668  224.7553 H   0  0  0  0  0  0  0  0  0  0  0  0
  131.8882   70.8076  227.3520 H   0  0  0  0  0  0  0  0  0  0  0  0
  130.6737   72.8730  227.9944 H   0  0  0  0  0  0  0  0  0  0  0  0
  130.4949   75.3523  228.0768 H   0  0  0  0  0  0  0  0  0  0  0  0
  133.7168   77.6477  226.3534 H   0  0  0  0  0  0  0  0  0  0  0  0
  134.9087   75.5400  225.7288 H   0  0  0  0  0  0  0  0  0  0  0  0
  1  2  2  0
  2  3  1  0
  3  4  1  0
  4  5  1  0
  5  6  2  0
  5  7  1  0
  7  8  1  0
  8  9  1  0
  9 10  1  0
 10 11  1  0
 11 12  1  0
 12 13  2  0
 13 14  1  0
 14 15  2  0
 15 16  1  0
 16 17  2  0
  2 18  1  0
 18 19  2  0
 19 20  1  0
 20 21  2  0
 21 22  1  0
 22 23  2  0
 23 24  1  0
 23 25  1  0
 25 26  2  0
 26 27  1  0
 27 28  2  0
 11  7  1  0
 17 12  1  0
 28 18  1  0
 27 21  1  0
  3 29  1  0
  4 30  1  0
  4 31  1  0
  8 32  1  0
  8 33  1  0
  9 34  1  0
  9 35  1  0
 10 36  1  0
 10 37  1  0
 11 38  1  1
 13 39  1  0
 14 40  1  0
 16 41  1  0
 17 42  1  0
 19 43  1  0
 20 44  1  0
 22 45  1  0
 25 46  1  0
 26 47  1  0
M  END
>  <smiles>  (21) 
O=C(NCC(=O)N1CCCC1c1ccncc1)c1ccc2cc(Cl)ccc2n1

>  <score_type>  (21) 
oracle

>  <origin>  (21) 
autodockgpu

>  <m_score__min__energy>  (21) 
-8.25

>  <m_primary>  (21) 
energy

>  <rmsd>  (21) 
7.960852699387544

>  <m_score__min__rmsd>  (21) 
7.960852699387544

>  <meeko>  (21) 
{"free_energy": -7.94, "intermolecular_energy": -9.43, "internal_energy": -1.42, "cluster_size": 5, "cluster_id": 3, "rank_in_cluster": 3}

>  <energy>  (21) 
-8.12

>  <cluster_rmsd>  (21) 
0.23

>  <cluster>  (21) 
2

$$$$

     RDKit          3D

 47 50  0  0  0  0  0  0  0  0999 V2000
  141.6840   78.9850  217.5670 O   0  0  0  0  0  0  0  0  0  0  0  0
  142.2000   78.3460  218.5240 C   0  0  0  0  0  0  0  0  0  0  0  0
  142.1590   79.0130  219.8000 N   0  0  0  0  0  0  0  0  0  0  0  0
  141.5440   80.3060  219.8290 C   0  0  0  0  0  0  0  0  0  0  0  0
  140.8210   80.7310  221.0080 C   0  0  0  0  0  0  0  0  0  0  0  0
  139.6910   81.3340  220.7460 O   0  0  0  0  0  0  0  0  0  0  0  0
  141.1110   80.6150  222.3730 N   0  0  0  0  0  0  0  0  0  0  0  0
  141.7990   81.5370  223.2980 C   0  0  0  0  0  0  0  0  0  0  0  0
  142.8320   80.6040  223.8530 C   0  0  0  0  0  0  0  0  0  0  0  0
  142.1990   79.2340  223.8560 C   0  0  0  0  0  0  0  0  0  0  0  0
  140.8190   79.4800  223.2690 C   0  0  2  0  0  0  0  0  0  0  0  0
  140.2940   78.2870  222.6130 C   0  0  0  0  0  0  0  0  0  0  0  0
  138.9100   78.1800  222.4220 C   0  0  0  0  0  0  0  0  0  0  0  0
  138.3620   77.0500  221.8380 C   0  0  0  0  0  0  0  0  0  0  0  0
  139.1240   76.0260  221.4370 N   0  0  0  0  0  0  0  0  0  0  0  0
  140.4580   76.0850  221.6010 C   0  0  0  0  0  0  0  0  0  0  0  0
  141.0350   77.2090  222.1850 C   0  0  0  0  0  0  0  0  0  0  0  0
  142.8000   77.0380  218.4020 C   0  0  0  0  0  0  0  0  0  0  0  0
  142.9730   76.4990  217.1460 C   0  0  0  0  0  0  0  0  0  0  0  0
  143.5530   75.2440  217.0780 C   0  0  0  0  0  0  0  0  0  0  0  0
  143.9500   74.5340  218.1870 C   0  0  0  0  0  0  0  0  0  0  0  0
  144.5280   73.2820  218.1220 C   0  0  0  0  0  0  0  0  0  0  0  0
  144.8810   72.6800  219.3170 C   0  0  0  0  0  0  0  0  0  0  0  0
  145.6210   71.0770  219.2560 Cl  0  0  0  0  0  0  0  0  0  0  0  0
  144.6840   73.2630  220.5430 C   0  0  0  0  0  0  0  0  0  0  0  0
  144.1060   74.5160  220.6030 C   0  0  0  0  0  0  0  0  0  0  0  0
  143.7440   75.1390  219.4200 C   0  0  0  0  0  0  0  0  0  0  0  0
  143.1800   76.3670  219.5270 N   0  0  0  0  0  0  0  0  0  0  0  0
  142.5730   78.5250  220.6200 H   0  0  0  0  0  0  0  0  0  0  0  0
  142.3435   81.0430  219.6625 H   0  0  0  0  0  0  0  0  0  0  0  0
  140.7600   80.2333  219.0608 H   0  0  0  0  0  0  0  0  0  0  0  0
  142.2552   82.3859  222.7676 H   0  0  0  0  0  0  0  0  0  0  0  0
  141.1525   82.0188  224.0463 H   0  0  0  0  0  0  0  0  0  0  0  0
  143.7306   80.6081  223.2185 H   0  0  0  0  0  0  0  0  0  0  0  0
  143.1442   80.9050  224.8639 H   0  0  0  0  0  0  0  0  0  0  0  0
  142.7731   78.5342  223.2310 H   0  0  0  0  0  0  0  0  0  0  0  0
  142.1641   78.7802  224.8574 H   0  0  0  0  0  0  0  0  0  0  0  0
  140.0182   79.7054  223.9887 H   0  0  0  0  0  0  0  0  0  0  0  0
  138.2517   79.0022  222.7392 H   0  0  0  0  0  0  0  0  0  0  0  0
  137.2721   76.9930  221.7003 H   0  0  0  0  0  0  0  0  0  0  0  0
  141.0912   75.2469  221.2743 H   0  0  0  0  0  0  0  0  0  0  0  0
  142.1276   77.2369  222.3095 H   0  0  0  0  0  0  0  0  0  0  0  0
  142.6647   77.0406  216.2396 H   0  0  0  0  0  0  0  0  0  0  0  0
  143.7040   74.7916  216.0868 H   0  0  0  0  0  0  0  0  0  0  0  0
  144.7013   72.7822  217.1575 H   0  0  0  0  0  0  0  0  0  0  0  0
  144.9818   72.7406  221.4641 H   0  0  0  0  0  0  0  0  0  0  0  0
  143.9365   75.0095  221.5713 H   0  0  0  0  0  0  0  0  0  0  0  0
  1  2  2  0
  2  3  1  0
  3  4  1  0
  4  5  1  0
  5  6  2  0
  5  7  1  0
  7  8  1  0
  8  9  1  0
  9 10  1  0
 10 11  1  0
 11 12  1  0
 12 13  2  0
 13 14  1  0
 14 15  2  0
 15 16  1  0
 16 17  2  0
  2 18  1  0
 18 19  2  0
 19 20  1  0
 20 21  2  0
 21 22  1  0
 22 23  2  0
 23 24  1  0
 23 25  1  0
 25 26  2  0
 26 27  1  0
 27 28  2  0
 11  7  1  0
 17 12  1  0
 28 18  1  0
 27 21  1  0
  3 29  1  0
  4 30  1  0
  4 31  1  0
  8 32  1  0
  8 33  1  0
  9 34  1  0
  9 35  1  0
 10 36  1  0
 10 37  1  0
 11 38  1  1
 13 39  1  0
 14 40  1  0
 16 41  1  0
 17 42  1  0
 19 43  1  0
 20 44  1  0
 22 45  1  0
 25 46  1  0
 26 47  1  0
M  END
>  <smiles>  (22) 
O=C(NCC(=O)N1CCCC1c1ccncc1)c1ccc2cc(Cl)ccc2n1

>  <score_type>  (22) 
oracle

>  <origin>  (22) 
autodockgpu

>  <m_score__min__energy>  (22) 
-8.25

>  <m_primary>  (22) 
energy

>  <rmsd>  (22) 
8.408734819055143

>  <m_score__min__rmsd>  (22) 
8.408734819055143

>  <meeko>  (22) 
{"free_energy": -6.73, "intermolecular_energy": -8.22, "internal_energy": -2.17, "cluster_size": 6, "cluster_id": 6, "rank_in_cluster": 6}

>  <energy>  (22) 
-8.07

>  <cluster_rmsd>  (22) 
0.37

>  <cluster>  (22) 
2

$$$$

     RDKit          3D

 47 50  0  0  0  0  0  0  0  0999 V2000
  139.5830   72.6160  220.4510 O   0  0  0  0  0  0  0  0  0  0  0  0
  140.0590   72.8340  221.5970 C   0  0  0  0  0  0  0  0  0  0  0  0
  140.6390   74.1390  221.7830 N   0  0  0  0  0  0  0  0  0  0  0  0
  140.6050   75.0230  220.6580 C   0  0  0  0  0  0  0  0  0  0  0  0
  141.4820   76.1730  220.6210 C   0  0  0  0  0  0  0  0  0  0  0  0
  141.4540   76.8940  221.7120 O   0  0  0  0  0  0  0  0  0  0  0  0
  142.3510   76.6530  219.6340 N   0  0  0  0  0  0  0  0  0  0  0  0
  142.2470   77.8200  218.7370 C   0  0  0  0  0  0  0  0  0  0  0  0
  142.4670   77.1400  217.4200 C   0  0  0  0  0  0  0  0  0  0  0  0
  143.3950   75.9830  217.6970 C   0  0  0  0  0  0  0  0  0  0  0  0
  143.6340   76.0720  219.1960 C   0  0  2  0  0  0  0  0  0  0  0  0
  143.9550   74.7670  219.7650 C   0  0  0  0  0  0  0  0  0  0  0  0
  143.1350   73.6760  219.4470 C   0  0  0  0  0  0  0  0  0  0  0  0
  143.3780   72.4270  219.9930 C   0  0  0  0  0  0  0  0  0  0  0  0
  144.3950   72.2130  220.8370 N   0  0  0  0  0  0  0  0  0  0  0  0
  145.2070   73.2320  221.1700 C   0  0  0  0  0  0  0  0  0  0  0  0
  144.9860   74.4990  220.6360 C   0  0  0  0  0  0  0  0  0  0  0  0
  140.0480   71.8780  222.6800 C   0  0  0  0  0  0  0  0  0  0  0  0
  139.5270   70.6220  222.4560 C   0  0  0  0  0  0  0  0  0  0  0  0
  139.5380   69.7400  223.5210 C   0  0  0  0  0  0  0  0  0  0  0  0
  140.0360   70.0600  224.7620 C   0  0  0  0  0  0  0  0  0  0  0  0
  140.0480   69.1820  225.8280 C   0  0  0  0  0  0  0  0  0  0  0  0
  140.5790   69.6360  227.0220 C   0  0  0  0  0  0  0  0  0  0  0  0
  140.6040   68.5280  228.3980 Cl  0  0  0  0  0  0  0  0  0  0  0  0
  141.0850   70.8990  227.1910 C   0  0  0  0  0  0  0  0  0  0  0  0
  141.0710   71.7750  226.1230 C   0  0  0  0  0  0  0  0  0  0  0  0
  140.5450   71.3430  224.9170 C   0  0  0  0  0  0  0  0  0  0  0  0
  140.5520   72.2360  223.8960 N   0  0  0  0  0  0  0  0  0  0  0  0
  141.0450   74.3650  222.7140 H   0  0  0  0  0  0  0  0  0  0  0  0
  140.8365   74.4171  219.7696 H   0  0  0  0  0  0  0  0  0  0  0  0
  139.6012   75.4693  220.7143 H   0  0  0  0  0  0  0  0  0  0  0  0
  141.2560   78.2940  218.7936 H   0  0  0  0  0  0  0  0  0  0  0  0
  142.9399   78.6448  218.9596 H   0  0  0  0  0  0  0  0  0  0  0  0
  141.5119   76.7748  217.0145 H   0  0  0  0  0  0  0  0  0  0  0  0
  142.8949   77.8299  216.6778 H   0  0  0  0  0  0  0  0  0  0  0  0
  142.9217   75.0265  217.4303 H   0  0  0  0  0  0  0  0  0  0  0  0
  144.3248   76.0292  217.1110 H   0  0  0  0  0  0  0  0  0  0  0  0
  144.4991   76.6710  219.5165 H   0  0  0  0  0  0  0  0  0  0  0  0
  142.2897   73.8133  218.7566 H   0  0  0  0  0  0  0  0  0  0  0  0
  142.7180   71.5884  219.7262 H   0  0  0  0  0  0  0  0  0  0  0  0
  146.0446   73.0649  221.8632 H   0  0  0  0  0  0  0  0  0  0  0  0
  145.6624   75.3180  220.9218 H   0  0  0  0  0  0  0  0  0  0  0  0
  139.1210   70.3342  221.4750 H   0  0  0  0  0  0  0  0  0  0  0  0
  139.1275   68.7311  223.3675 H   0  0  0  0  0  0  0  0  0  0  0  0
  139.6506   68.1609  225.7313 H   0  0  0  0  0  0  0  0  0  0  0  0
  141.4961   71.2102  228.1627 H   0  0  0  0  0  0  0  0  0  0  0  0
  141.4695   72.7949  226.2283 H   0  0  0  0  0  0  0  0  0  0  0  0
  1  2  2  0
  2  3  1  0
  3  4  1  0
  4  5  1  0
  5  6  2  0
  5  7  1  0
  7  8  1  0
  8  9  1  0
  9 10  1  0
 10 11  1  0
 11 12  1  0
 12 13  2  0
 13 14  1  0
 14 15  2  0
 15 16  1  0
 16 17  2  0
  2 18  1  0
 18 19  2  0
 19 20  1  0
 20 21  2  0
 21 22  1  0
 22 23  2  0
 23 24  1  0
 23 25  1  0
 25 26  2  0
 26 27  1  0
 27 28  2  0
 11  7  1  0
 17 12  1  0
 28 18  1  0
 27 21  1  0
  3 29  1  0
  4 30  1  0
  4 31  1  0
  8 32  1  0
  8 33  1  0
  9 34  1  0
  9 35  1  0
 10 36  1  0
 10 37  1  0
 11 38  1  6
 13 39  1  0
 14 40  1  0
 16 41  1  0
 17 42  1  0
 19 43  1  0
 20 44  1  0
 22 45  1  0
 25 46  1  0
 26 47  1  0
M  END
>  <smiles>  (23) 
O=C(NCC(=O)N1CCCC1c1ccncc1)c1ccc2cc(Cl)ccc2n1

>  <score_type>  (23) 
oracle

>  <origin>  (23) 
autodockgpu

>  <m_score__min__energy>  (23) 
-8.25

>  <m_primary>  (23) 
energy

>  <rmsd>  (23) 
2.5817060601145276

>  <m_score__min__rmsd>  (23) 
2.5817060601145276

>  <meeko>  (23) 
{"free_energy": -7.21, "intermolecular_energy": -8.7, "internal_energy": -1.87, "cluster_size": 15, "cluster_id": 1, "rank_in_cluster": 15}

>  <energy>  (23) 
-8.07

>  <cluster_rmsd>  (23) 
1.92

>  <cluster>  (23) 
2

$$$$

     RDKit          3D

 47 50  0  0  0  0  0  0  0  0999 V2000
  140.3450   72.2480  220.7250 O   0  0  0  0  0  0  0  0  0  0  0  0
  139.9690   72.5110  221.8990 C   0  0  0  0  0  0  0  0  0  0  0  0
  139.4920   73.8550  222.1040 N   0  0  0  0  0  0  0  0  0  0  0  0
  139.5030   74.7210  220.9650 C   0  0  0  0  0  0  0  0  0  0  0  0
  140.3840   75.8690  220.9420 C   0  0  0  0  0  0  0  0  0  0  0  0
  141.0850   76.0170  222.0360 O   0  0  0  0  0  0  0  0  0  0  0  0
  140.6210   76.8440  219.9660 N   0  0  0  0  0  0  0  0  0  0  0  0
  140.7420   76.7370  218.4990 C   0  0  0  0  0  0  0  0  0  0  0  0
  142.0600   77.4220  218.3100 C   0  0  0  0  0  0  0  0  0  0  0  0
  142.1490   78.4650  219.3960 C   0  0  0  0  0  0  0  0  0  0  0  0
  140.8490   78.2880  220.1650 C   0  0  2  0  0  0  0  0  0  0  0  0
  140.9850   78.7130  221.5550 C   0  0  0  0  0  0  0  0  0  0  0  0
  139.8230   78.9030  222.3140 C   0  0  0  0  0  0  0  0  0  0  0  0
  139.9010   79.3410  223.6250 C   0  0  0  0  0  0  0  0  0  0  0  0
  141.0750   79.5980  224.2130 N   0  0  0  0  0  0  0  0  0  0  0  0
  142.2160   79.4290  223.5210 C   0  0  0  0  0  0  0  0  0  0  0  0
  142.1680   78.9900  222.2010 C   0  0  0  0  0  0  0  0  0  0  0  0
  139.9920   71.5690  222.9940 C   0  0  0  0  0  0  0  0  0  0  0  0
  139.5030   70.2980  222.7890 C   0  0  0  0  0  0  0  0  0  0  0  0
  139.5470   69.4290  223.8660 C   0  0  0  0  0  0  0  0  0  0  0  0
  140.0450   69.7790  225.0990 C   0  0  0  0  0  0  0  0  0  0  0  0
  140.0890   68.9150  226.1750 C   0  0  0  0  0  0  0  0  0  0  0  0
  140.6170   69.3980  227.3590 C   0  0  0  0  0  0  0  0  0  0  0  0
  140.6820   68.3090  228.7480 Cl  0  0  0  0  0  0  0  0  0  0  0  0
  141.0900   70.6770  227.5080 C   0  0  0  0  0  0  0  0  0  0  0  0
  141.0440   71.5380  226.4290 C   0  0  0  0  0  0  0  0  0  0  0  0
  140.5200   71.0770  225.2330 C   0  0  0  0  0  0  0  0  0  0  0  0
  140.4950   71.9560  224.2010 N   0  0  0  0  0  0  0  0  0  0  0  0
  139.1710   74.1190  223.0580 H   0  0  0  0  0  0  0  0  0  0  0  0
  139.7660   74.1004  220.0957 H   0  0  0  0  0  0  0  0  0  0  0  0
  138.4991   75.1705  220.9771 H   0  0  0  0  0  0  0  0  0  0  0  0
  140.7722   75.6894  218.1649 H   0  0  0  0  0  0  0  0  0  0  0  0
  139.9053   77.1650  217.9274 H   0  0  0  0  0  0  0  0  0  0  0  0
  142.8833   76.6990  218.4067 H   0  0  0  0  0  0  0  0  0  0  0  0
  142.1378   77.8749  217.3106 H   0  0  0  0  0  0  0  0  0  0  0  0
  143.0180   78.2833  220.0455 H   0  0  0  0  0  0  0  0  0  0  0  0
  142.2787   79.4839  219.0022 H   0  0  0  0  0  0  0  0  0  0  0  0
  139.9984   78.9003  219.8310 H   0  0  0  0  0  0  0  0  0  0  0  0
  138.8395   78.7023  221.8642 H   0  0  0  0  0  0  0  0  0  0  0  0
  138.9729   79.4815  224.1986 H   0  0  0  0  0  0  0  0  0  0  0  0
  143.1853   79.6374  223.9974 H   0  0  0  0  0  0  0  0  0  0  0  0
  143.1127   78.8594  221.6528 H   0  0  0  0  0  0  0  0  0  0  0  0
  139.0965   69.9877  221.8151 H   0  0  0  0  0  0  0  0  0  0  0  0
  139.1642   68.4070  223.7283 H   0  0  0  0  0  0  0  0  0  0  0  0
  139.7185   67.8824  226.0940 H   0  0  0  0  0  0  0  0  0  0  0  0
  141.4998   71.0119  228.4723 H   0  0  0  0  0  0  0  0  0  0  0  0
  141.4162   72.5693  226.5180 H   0  0  0  0  0  0  0  0  0  0  0  0
  1  2  2  0
  2  3  1  0
  3  4  1  0
  4  5  1  0
  5  6  2  0
  5  7  1  0
  7  8  1  0
  8  9  1  0
  9 10  1  0
 10 11  1  0
 11 12  1  0
 12 13  2  0
 13 14  1  0
 14 15  2  0
 15 16  1  0
 16 17  2  0
  2 18  1  0
 18 19  2  0
 19 20  1  0
 20 21  2  0
 21 22  1  0
 22 23  2  0
 23 24  1  0
 23 25  1  0
 25 26  2  0
 26 27  1  0
 27 28  2  0
 11  7  1  0
 17 12  1  0
 28 18  1  0
 27 21  1  0
  3 29  1  0
  4 30  1  0
  4 31  1  0
  8 32  1  0
  8 33  1  0
  9 34  1  0
  9 35  1  0
 10 36  1  0
 10 37  1  0
 11 38  1  6
 13 39  1  0
 14 40  1  0
 16 41  1  0
 17 42  1  0
 19 43  1  0
 20 44  1  0
 22 45  1  0
 25 46  1  0
 26 47  1  0
M  END
>  <smiles>  (24) 
O=C(NCC(=O)N1CCCC1c1ccncc1)c1ccc2cc(Cl)ccc2n1

>  <score_type>  (24) 
oracle

>  <origin>  (24) 
autodockgpu

>  <m_score__min__energy>  (24) 
-8.25

>  <m_primary>  (24) 
energy

>  <rmsd>  (24) 
1.7490657215362404

>  <m_score__min__rmsd>  (24) 
1.7490657215362404

>  <meeko>  (24) 
{"free_energy": -8.06, "intermolecular_energy": -9.55, "internal_energy": -1.25, "cluster_size": 20, "cluster_id": 2, "rank_in_cluster": 9}

>  <energy>  (24) 
-8.06

>  <cluster_rmsd>  (24) 
0.56

>  <cluster>  (24) 
2

$$$$

     RDKit          3D

 47 50  0  0  0  0  0  0  0  0999 V2000
  139.9300   73.8030  222.2890 O   0  0  0  0  0  0  0  0  0  0  0  0
  139.9550   72.5550  222.1130 C   0  0  0  0  0  0  0  0  0  0  0  0
  139.9450   72.1290  220.7370 N   0  0  0  0  0  0  0  0  0  0  0  0
  139.9080   73.1610  219.7460 C   0  0  0  0  0  0  0  0  0  0  0  0
  141.1250   73.8580  219.3890 C   0  0  0  0  0  0  0  0  0  0  0  0
  141.8120   73.2720  218.4430 O   0  0  0  0  0  0  0  0  0  0  0  0
  141.6990   75.0400  219.8730 N   0  0  0  0  0  0  0  0  0  0  0  0
  141.0880   76.3320  220.2430 C   0  0  0  0  0  0  0  0  0  0  0  0
  141.9280   77.2500  219.4100 C   0  0  0  0  0  0  0  0  0  0  0  0
  143.2900   76.6070  219.3230 C   0  0  0  0  0  0  0  0  0  0  0  0
  143.1260   75.3210  220.1170 C   0  0  2  0  0  0  0  0  0  0  0  0
  144.0520   74.2880  219.6630 C   0  0  0  0  0  0  0  0  0  0  0  0
  144.6400   73.4490  220.6190 C   0  0  0  0  0  0  0  0  0  0  0  0
  145.5530   72.4790  220.2400 C   0  0  0  0  0  0  0  0  0  0  0  0
  145.9070   72.3060  218.9600 N   0  0  0  0  0  0  0  0  0  0  0  0
  145.3660   73.0900  218.0100 C   0  0  0  0  0  0  0  0  0  0  0  0
  144.4460   74.0730  218.3630 C   0  0  0  0  0  0  0  0  0  0  0  0
  139.9930   71.5820  223.1790 C   0  0  0  0  0  0  0  0  0  0  0  0
  139.5310   70.3070  222.9350 C   0  0  0  0  0  0  0  0  0  0  0  0
  139.5870   69.4080  223.9850 C   0  0  0  0  0  0  0  0  0  0  0  0
  140.0730   69.7310  225.2300 C   0  0  0  0  0  0  0  0  0  0  0  0
  140.1290   68.8360  226.2810 C   0  0  0  0  0  0  0  0  0  0  0  0
  140.6410   69.2940  227.4820 C   0  0  0  0  0  0  0  0  0  0  0  0
  140.7220   68.1650  228.8380 Cl  0  0  0  0  0  0  0  0  0  0  0  0
  141.0880   70.5770  227.6710 C   0  0  0  0  0  0  0  0  0  0  0  0
  141.0290   71.4690  226.6180 C   0  0  0  0  0  0  0  0  0  0  0  0
  140.5200   71.0330  225.4060 C   0  0  0  0  0  0  0  0  0  0  0  0
  140.4820   71.9430  224.4000 N   0  0  0  0  0  0  0  0  0  0  0  0
  139.9640   71.1070  220.5430 H   0  0  0  0  0  0  0  0  0  0  0  0
  139.5205   72.7035  218.8238 H   0  0  0  0  0  0  0  0  0  0  0  0
  139.2935   73.9436  220.2150 H   0  0  0  0  0  0  0  0  0  0  0  0
  140.0257   76.3792  219.9614 H   0  0  0  0  0  0  0  0  0  0  0  0
  141.0788   76.5542  221.3203 H   0  0  0  0  0  0  0  0  0  0  0  0
  141.4928   77.3597  218.4058 H   0  0  0  0  0  0  0  0  0  0  0  0
  141.9856   78.2551  219.8533 H   0  0  0  0  0  0  0  0  0  0  0  0
  143.5576   76.3925  218.2778 H   0  0  0  0  0  0  0  0  0  0  0  0
  144.0934   77.2506  219.7106 H   0  0  0  0  0  0  0  0  0  0  0  0
  143.3678   75.3771  221.1886 H   0  0  0  0  0  0  0  0  0  0  0  0
  144.3739   73.5619  221.6804 H   0  0  0  0  0  0  0  0  0  0  0  0
  145.9993   71.8335  221.0108 H   0  0  0  0  0  0  0  0  0  0  0  0
  145.6502   72.9544  216.9560 H   0  0  0  0  0  0  0  0  0  0  0  0
  144.0167   74.7033  217.5703 H   0  0  0  0  0  0  0  0  0  0  0  0
  139.1357   70.0172  221.9502 H   0  0  0  0  0  0  0  0  0  0  0  0
  139.2246   68.3834  223.8154 H   0  0  0  0  0  0  0  0  0  0  0  0
  139.7799   67.7991  226.1673 H   0  0  0  0  0  0  0  0  0  0  0  0
  141.4875   70.8909  228.6467 H   0  0  0  0  0  0  0  0  0  0  0  0
  141.3792   72.5047  226.7396 H   0  0  0  0  0  0  0  0  0  0  0  0
  1  2  2  0
  2  3  1  0
  3  4  1  0
  4  5  1  0
  5  6  2  0
  5  7  1  0
  7  8  1  0
  8  9  1  0
  9 10  1  0
 10 11  1  0
 11 12  1  0
 12 13  2  0
 13 14  1  0
 14 15  2  0
 15 16  1  0
 16 17  2  0
  2 18  1  0
 18 19  2  0
 19 20  1  0
 20 21  2  0
 21 22  1  0
 22 23  2  0
 23 24  1  0
 23 25  1  0
 25 26  2  0
 26 27  1  0
 27 28  2  0
 11  7  1  0
 17 12  1  0
 28 18  1  0
 27 21  1  0
  3 29  1  0
  4 30  1  0
  4 31  1  0
  8 32  1  0
  8 33  1  0
  9 34  1  0
  9 35  1  0
 10 36  1  0
 10 37  1  0
 11 38  1  1
 13 39  1  0
 14 40  1  0
 16 41  1  0
 17 42  1  0
 19 43  1  0
 20 44  1  0
 22 45  1  0
 25 46  1  0
 26 47  1  0
M  END
>  <smiles>  (25) 
O=C(NCC(=O)N1CCCC1c1ccncc1)c1ccc2cc(Cl)ccc2n1

>  <score_type>  (25) 
oracle

>  <origin>  (25) 
autodockgpu

>  <m_score__min__energy>  (25) 
-8.25

>  <m_primary>  (25) 
energy

>  <rmsd>  (25) 
2.331146106585228

>  <m_score__min__rmsd>  (25) 
2.331146106585228

>  <meeko>  (25) 
{"free_energy": -8.24, "intermolecular_energy": -9.73, "internal_energy": -1.17, "cluster_size": 15, "cluster_id": 1, "rank_in_cluster": 3}

>  <energy>  (25) 
-8.06

>  <cluster_rmsd>  (25) 
0.59

>  <cluster>  (25) 
2

$$$$

     RDKit          3D

 47 50  0  0  0  0  0  0  0  0999 V2000
  141.6840   78.9930  217.5820 O   0  0  0  0  0  0  0  0  0  0  0  0
  142.1960   78.3370  218.5280 C   0  0  0  0  0  0  0  0  0  0  0  0
  142.1690   78.9900  219.8120 N   0  0  0  0  0  0  0  0  0  0  0  0
  141.5710   80.2890  219.8590 C   0  0  0  0  0  0  0  0  0  0  0  0
  140.8380   80.7000  221.0370 C   0  0  0  0  0  0  0  0  0  0  0  0
  139.6830   81.2540  220.7730 O   0  0  0  0  0  0  0  0  0  0  0  0
  141.1390   80.6140  222.4020 N   0  0  0  0  0  0  0  0  0  0  0  0
  141.8700   81.5360  223.2920 C   0  0  0  0  0  0  0  0  0  0  0  0
  142.8750   80.5830  223.8630 C   0  0  0  0  0  0  0  0  0  0  0  0
  142.1940   79.2380  223.9130 C   0  0  0  0  0  0  0  0  0  0  0  0
  140.8170   79.5160  223.3330 C   0  0  2  0  0  0  0  0  0  0  0  0
  140.2430   78.3230  222.7180 C   0  0  0  0  0  0  0  0  0  0  0  0
  141.1020   77.2810  222.3470 C   0  0  0  0  0  0  0  0  0  0  0  0
  140.6080   76.1460  221.7260 C   0  0  0  0  0  0  0  0  0  0  0  0
  139.3040   76.0000  221.4590 N   0  0  0  0  0  0  0  0  0  0  0  0
  138.4430   76.9770  221.7980 C   0  0  0  0  0  0  0  0  0  0  0  0
  138.9130   78.1290  222.4230 C   0  0  0  0  0  0  0  0  0  0  0  0
  142.7790   77.0230  218.3890 C   0  0  0  0  0  0  0  0  0  0  0  0
  142.8910   76.4740  217.1300 C   0  0  0  0  0  0  0  0  0  0  0  0
  143.4560   75.2140  217.0440 C   0  0  0  0  0  0  0  0  0  0  0  0
  143.8980   74.5080  218.1390 C   0  0  0  0  0  0  0  0  0  0  0  0
  144.4610   73.2500  218.0570 C   0  0  0  0  0  0  0  0  0  0  0  0
  144.8630   72.6530  219.2380 C   0  0  0  0  0  0  0  0  0  0  0  0
  145.5870   71.0440  219.1550 Cl  0  0  0  0  0  0  0  0  0  0  0  0
  144.7270   73.2460  220.4670 C   0  0  0  0  0  0  0  0  0  0  0  0
  144.1630   74.5040  220.5450 C   0  0  0  0  0  0  0  0  0  0  0  0
  143.7530   75.1220  219.3760 C   0  0  0  0  0  0  0  0  0  0  0  0
  143.2050   76.3560  219.5000 N   0  0  0  0  0  0  0  0  0  0  0  0
  142.5810   78.4860  220.6240 H   0  0  0  0  0  0  0  0  0  0  0  0
  142.3820   81.0185  219.7176 H   0  0  0  0  0  0  0  0  0  0  0  0
  140.7963   80.2420  219.0795 H   0  0  0  0  0  0  0  0  0  0  0  0
  142.3502   82.3522  222.7324 H   0  0  0  0  0  0  0  0  0  0  0  0
  141.2498   82.0621  224.0327 H   0  0  0  0  0  0  0  0  0  0  0  0
  143.7657   80.5363  223.2192 H   0  0  0  0  0  0  0  0  0  0  0  0
  143.2094   80.9017  224.8613 H   0  0  0  0  0  0  0  0  0  0  0  0
  142.7358   78.5000  223.3033 H   0  0  0  0  0  0  0  0  0  0  0  0
  142.1542   78.8153  224.9277 H   0  0  0  0  0  0  0  0  0  0  0  0
  140.0321   79.7906  224.0531 H   0  0  0  0  0  0  0  0  0  0  0  0
  142.1797   77.3649  222.5509 H   0  0  0  0  0  0  0  0  0  0  0  0
  141.3053   75.3431  221.4446 H   0  0  0  0  0  0  0  0  0  0  0  0
  137.3702   76.8658  221.5818 H   0  0  0  0  0  0  0  0  0  0  0  0
  138.1924   78.9154  222.6917 H   0  0  0  0  0  0  0  0  0  0  0  0
  142.5471   77.0127  216.2347 H   0  0  0  0  0  0  0  0  0  0  0  0
  143.5569   74.7535  216.0501 H   0  0  0  0  0  0  0  0  0  0  0  0
  144.5851   72.7419  217.0893 H   0  0  0  0  0  0  0  0  0  0  0  0
  145.0622   72.7272  221.3772 H   0  0  0  0  0  0  0  0  0  0  0  0
  144.0419   75.0051  221.5167 H   0  0  0  0  0  0  0  0  0  0  0  0
  1  2  2  0
  2  3  1  0
  3  4  1  0
  4  5  1  0
  5  6  2  0
  5  7  1  0
  7  8  1  0
  8  9  1  0
  9 10  1  0
 10 11  1  0
 11 12  1  0
 12 13  2  0
 13 14  1  0
 14 15  2  0
 15 16  1  0
 16 17  2  0
  2 18  1  0
 18 19  2  0
 19 20  1  0
 20 21  2  0
 21 22  1  0
 22 23  2  0
 23 24  1  0
 23 25  1  0
 25 26  2  0
 26 27  1  0
 27 28  2  0
 11  7  1  0
 17 12  1  0
 28 18  1  0
 27 21  1  0
  3 29  1  0
  4 30  1  0
  4 31  1  0
  8 32  1  0
  8 33  1  0
  9 34  1  0
  9 35  1  0
 10 36  1  0
 10 37  1  0
 11 38  1  1
 13 39  1  0
 14 40  1  0
 16 41  1  0
 17 42  1  0
 19 43  1  0
 20 44  1  0
 22 45  1  0
 25 46  1  0
 26 47  1  0
M  END
>  <smiles>  (26) 
O=C(NCC(=O)N1CCCC1c1ccncc1)c1ccc2cc(Cl)ccc2n1

>  <score_type>  (26) 
oracle

>  <origin>  (26) 
autodockgpu

>  <m_score__min__energy>  (26) 
-8.25

>  <m_primary>  (26) 
energy

>  <rmsd>  (26) 
8.41777041119183

>  <m_score__min__rmsd>  (26) 
8.41777041119183

>  <meeko>  (26) 
{"free_energy": -6.74, "intermolecular_energy": -8.23, "internal_energy": -2.17, "cluster_size": 6, "cluster_id": 6, "rank_in_cluster": 5}

>  <energy>  (26) 
-8.06

>  <cluster_rmsd>  (26) 
1.93

>  <cluster>  (26) 
2

$$$$

     RDKit          3D

 47 50  0  0  0  0  0  0  0  0999 V2000
  139.9720   73.9680  222.3470 O   0  0  0  0  0  0  0  0  0  0  0  0
  139.9430   72.7240  222.1460 C   0  0  0  0  0  0  0  0  0  0  0  0
  139.8780   72.3280  220.7630 N   0  0  0  0  0  0  0  0  0  0  0  0
  139.8550   73.3800  219.7940 C   0  0  0  0  0  0  0  0  0  0  0  0
  141.0890   74.0340  219.4140 C   0  0  0  0  0  0  0  0  0  0  0  0
  141.7940   73.3650  218.5400 O   0  0  0  0  0  0  0  0  0  0  0  0
  141.6620   75.2480  219.8120 N   0  0  0  0  0  0  0  0  0  0  0  0
  141.0570   76.5740  220.0470 C   0  0  0  0  0  0  0  0  0  0  0  0
  141.9380   77.4060  219.1670 C   0  0  0  0  0  0  0  0  0  0  0  0
  143.2930   76.7430  219.1830 C   0  0  0  0  0  0  0  0  0  0  0  0
  143.0840   75.5340  220.0800 C   0  0  2  0  0  0  0  0  0  0  0  0
  144.0110   74.4550  219.7510 C   0  0  0  0  0  0  0  0  0  0  0  0
  144.5870   73.7240  220.7970 C   0  0  0  0  0  0  0  0  0  0  0  0
  145.5000   72.7150  220.5350 C   0  0  0  0  0  0  0  0  0  0  0  0
  145.8640   72.4030  219.2860 N   0  0  0  0  0  0  0  0  0  0  0  0
  145.3350   73.0800  218.2500 C   0  0  0  0  0  0  0  0  0  0  0  0
  144.4160   74.0980  218.4850 C   0  0  0  0  0  0  0  0  0  0  0  0
  139.9710   71.7280  223.1920 C   0  0  0  0  0  0  0  0  0  0  0  0
  139.5030   70.4610  222.9180 C   0  0  0  0  0  0  0  0  0  0  0  0
  139.5500   69.5400  223.9490 C   0  0  0  0  0  0  0  0  0  0  0  0
  140.0340   69.8330  225.2030 C   0  0  0  0  0  0  0  0  0  0  0  0
  140.0820   68.9160  226.2340 C   0  0  0  0  0  0  0  0  0  0  0  0
  140.5930   69.3450  227.4460 C   0  0  0  0  0  0  0  0  0  0  0  0
  140.6630   68.1860  228.7780 Cl  0  0  0  0  0  0  0  0  0  0  0  0
  141.0460   70.6210  227.6640 C   0  0  0  0  0  0  0  0  0  0  0  0
  140.9970   71.5350  226.6300 C   0  0  0  0  0  0  0  0  0  0  0  0
  140.4890   71.1290  225.4070 C   0  0  0  0  0  0  0  0  0  0  0  0
  140.4590   72.0590  224.4210 N   0  0  0  0  0  0  0  0  0  0  0  0
  139.8520   71.3100  220.5480 H   0  0  0  0  0  0  0  0  0  0  0  0
  139.4222   72.9575  218.8752 H   0  0  0  0  0  0  0  0  0  0  0  0
  139.2875   74.1774  220.2961 H   0  0  0  0  0  0  0  0  0  0  0  0
  140.0056   76.6083  219.7255 H   0  0  0  0  0  0  0  0  0  0  0  0
  141.0142   76.8895  221.0999 H   0  0  0  0  0  0  0  0  0  0  0  0
  141.5383   77.4326  218.1426 H   0  0  0  0  0  0  0  0  0  0  0  0
  141.9952   78.4450  219.5235 H   0  0  0  0  0  0  0  0  0  0  0  0
  143.5921   76.4346  218.1704 H   0  0  0  0  0  0  0  0  0  0  0  0
  144.0924   77.4090  219.5399 H   0  0  0  0  0  0  0  0  0  0  0  0
  143.2897   75.6815  221.1505 H   0  0  0  0  0  0  0  0  0  0  0  0
  144.3121   73.9529  221.8372 H   0  0  0  0  0  0  0  0  0  0  0  0
  145.9368   72.1561  221.3758 H   0  0  0  0  0  0  0  0  0  0  0  0
  145.6285   72.8291  217.2200 H   0  0  0  0  0  0  0  0  0  0  0  0
  143.9963   74.6393  217.6243 H   0  0  0  0  0  0  0  0  0  0  0  0
  139.1104   70.1945  221.9256 H   0  0  0  0  0  0  0  0  0  0  0  0
  139.1817   68.5216  223.7564 H   0  0  0  0  0  0  0  0  0  0  0  0
  139.7275   67.8837  226.0970 H   0  0  0  0  0  0  0  0  0  0  0  0
  141.4425   70.9121  228.6479 H   0  0  0  0  0  0  0  0  0  0  0  0
  141.3543   72.5652  226.7747 H   0  0  0  0  0  0  0  0  0  0  0  0
  1  2  2  0
  2  3  1  0
  3  4  1  0
  4  5  1  0
  5  6  2  0
  5  7  1  0
  7  8  1  0
  8  9  1  0
  9 10  1  0
 10 11  1  0
 11 12  1  0
 12 13  2  0
 13 14  1  0
 14 15  2  0
 15 16  1  0
 16 17  2  0
  2 18  1  0
 18 19  2  0
 19 20  1  0
 20 21  2  0
 21 22  1  0
 22 23  2  0
 23 24  1  0
 23 25  1  0
 25 26  2  0
 26 27  1  0
 27 28  2  0
 11  7  1  0
 17 12  1  0
 28 18  1  0
 27 21  1  0
  3 29  1  0
  4 30  1  0
  4 31  1  0
  8 32  1  0
  8 33  1  0
  9 34  1  0
  9 35  1  0
 10 36  1  0
 10 37  1  0
 11 38  1  1
 13 39  1  0
 14 40  1  0
 16 41  1  0
 17 42  1  0
 19 43  1  0
 20 44  1  0
 22 45  1  0
 25 46  1  0
 26 47  1  0
M  END
>  <smiles>  (27) 
O=C(NCC(=O)N1CCCC1c1ccncc1)c1ccc2cc(Cl)ccc2n1

>  <score_type>  (27) 
oracle

>  <origin>  (27) 
autodockgpu

>  <m_score__min__energy>  (27) 
-8.25

>  <m_primary>  (27) 
energy

>  <rmsd>  (27) 
2.30122979837905

>  <m_score__min__rmsd>  (27) 
2.30122979837905

>  <meeko>  (27) 
{"free_energy": -8.25, "intermolecular_energy": -9.75, "internal_energy": -1.15, "cluster_size": 15, "cluster_id": 1, "rank_in_cluster": 1}

>  <energy>  (27) 
-8.04

>  <cluster_rmsd>  (27) 
0.61

>  <cluster>  (27) 
2

$$$$

     RDKit          3D

 47 50  0  0  0  0  0  0  0  0999 V2000
  141.6630   78.9820  217.5970 O   0  0  0  0  0  0  0  0  0  0  0  0
  142.2050   78.3610  218.5510 C   0  0  0  0  0  0  0  0  0  0  0  0
  142.1740   79.0410  219.8210 N   0  0  0  0  0  0  0  0  0  0  0  0
  141.5400   80.3230  219.8470 C   0  0  0  0  0  0  0  0  0  0  0  0
  140.7930   80.7320  221.0180 C   0  0  0  0  0  0  0  0  0  0  0  0
  139.6230   81.2460  220.7440 O   0  0  0  0  0  0  0  0  0  0  0  0
  141.0970   80.6780  222.3830 N   0  0  0  0  0  0  0  0  0  0  0  0
  141.7910   81.6410  223.2600 C   0  0  0  0  0  0  0  0  0  0  0  0
  142.8310   80.7360  223.8460 C   0  0  0  0  0  0  0  0  0  0  0  0
  142.2020   79.3670  223.9160 C   0  0  0  0  0  0  0  0  0  0  0  0
  140.8150   79.5840  223.3320 C   0  0  2  0  0  0  0  0  0  0  0  0
  140.2870   78.3610  222.7350 C   0  0  0  0  0  0  0  0  0  0  0  0
  138.8980   78.1930  222.6690 C   0  0  0  0  0  0  0  0  0  0  0  0
  138.3500   77.0340  222.1450 C   0  0  0  0  0  0  0  0  0  0  0  0
  139.1180   76.0380  221.6860 N   0  0  0  0  0  0  0  0  0  0  0  0
  140.4570   76.1570  221.7300 C   0  0  0  0  0  0  0  0  0  0  0  0
  141.0340   77.3110  222.2520 C   0  0  0  0  0  0  0  0  0  0  0  0
  142.8230   77.0610  218.4330 C   0  0  0  0  0  0  0  0  0  0  0  0
  143.0940   76.5630  217.1770 C   0  0  0  0  0  0  0  0  0  0  0  0
  143.6870   75.3150  217.1120 C   0  0  0  0  0  0  0  0  0  0  0  0
  144.0080   74.5730  218.2250 C   0  0  0  0  0  0  0  0  0  0  0  0
  144.5990   73.3260  218.1630 C   0  0  0  0  0  0  0  0  0  0  0  0
  144.8670   72.6880  219.3610 C   0  0  0  0  0  0  0  0  0  0  0  0
  145.6240   71.0930  219.3050 Cl  0  0  0  0  0  0  0  0  0  0  0  0
  144.5750   73.2310  220.5870 C   0  0  0  0  0  0  0  0  0  0  0  0
  143.9830   74.4770  220.6440 C   0  0  0  0  0  0  0  0  0  0  0  0
  143.7050   75.1360  219.4570 C   0  0  0  0  0  0  0  0  0  0  0  0
  143.1250   76.3570  219.5610 N   0  0  0  0  0  0  0  0  0  0  0  0
  142.6090   78.5670  220.6390 H   0  0  0  0  0  0  0  0  0  0  0  0
  142.3306   81.0726  219.6955 H   0  0  0  0  0  0  0  0  0  0  0  0
  140.7683   80.2421  219.0673 H   0  0  0  0  0  0  0  0  0  0  0  0
  142.2403   82.4666  222.6886 H   0  0  0  0  0  0  0  0  0  0  0  0
  141.1501   82.1539  223.9922 H   0  0  0  0  0  0  0  0  0  0  0  0
  143.7236   80.7137  223.2035 H   0  0  0  0  0  0  0  0  0  0  0  0
  143.1517   81.0824  224.8395 H   0  0  0  0  0  0  0  0  0  0  0  0
  142.7718   78.6413  223.3171 H   0  0  0  0  0  0  0  0  0  0  0  0
  142.1781   78.9579  224.9368 H   0  0  0  0  0  0  0  0  0  0  0  0
  140.0202   79.8402  224.0480 H   0  0  0  0  0  0  0  0  0  0  0  0
  138.2354   78.9901  223.0373 H   0  0  0  0  0  0  0  0  0  0  0  0
  137.2558   76.9291  222.1049 H   0  0  0  0  0  0  0  0  0  0  0  0
  141.0950   75.3436  221.3540 H   0  0  0  0  0  0  0  0  0  0  0  0
  142.1310   77.3868  222.2796 H   0  0  0  0  0  0  0  0  0  0  0  0
  142.8499   77.1319  216.2677 H   0  0  0  0  0  0  0  0  0  0  0  0
  143.9132   74.8949  216.1209 H   0  0  0  0  0  0  0  0  0  0  0  0
  144.8469   72.8585  217.1987 H   0  0  0  0  0  0  0  0  0  0  0  0
  144.8092   72.6816  221.5108 H   0  0  0  0  0  0  0  0  0  0  0  0
  143.7369   74.9374  221.6122 H   0  0  0  0  0  0  0  0  0  0  0  0
  1  2  2  0
  2  3  1  0
  3  4  1  0
  4  5  1  0
  5  6  2  0
  5  7  1  0
  7  8  1  0
  8  9  1  0
  9 10  1  0
 10 11  1  0
 11 12  1  0
 12 13  2  0
 13 14  1  0
 14 15  2  0
 15 16  1  0
 16 17  2  0
  2 18  1  0
 18 19  2  0
 19 20  1  0
 20 21  2  0
 21 22  1  0
 22 23  2  0
 23 24  1  0
 23 25  1  0
 25 26  2  0
 26 27  1  0
 27 28  2  0
 11  7  1  0
 17 12  1  0
 28 18  1  0
 27 21  1  0
  3 29  1  0
  4 30  1  0
  4 31  1  0
  8 32  1  0
  8 33  1  0
  9 34  1  0
  9 35  1  0
 10 36  1  0
 10 37  1  0
 11 38  1  1
 13 39  1  0
 14 40  1  0
 16 41  1  0
 17 42  1  0
 19 43  1  0
 20 44  1  0
 22 45  1  0
 25 46  1  0
 26 47  1  0
M  END
>  <smiles>  (28) 
O=C(NCC(=O)N1CCCC1c1ccncc1)c1ccc2cc(Cl)ccc2n1

>  <score_type>  (28) 
oracle

>  <origin>  (28) 
autodockgpu

>  <m_score__min__energy>  (28) 
-8.25

>  <m_primary>  (28) 
energy

>  <rmsd>  (28) 
8.432413775424765

>  <m_score__min__rmsd>  (28) 
8.432413775424765

>  <meeko>  (28) 
{"free_energy": -6.82, "intermolecular_energy": -8.31, "internal_energy": -2.11, "cluster_size": 6, "cluster_id": 6, "rank_in_cluster": 1}

>  <energy>  (28) 
-8.03

>  <cluster_rmsd>  (28) 
0.63

>  <cluster>  (28) 
2

$$$$

     RDKit          3D

 47 50  0  0  0  0  0  0  0  0999 V2000
  139.8220   73.9550  222.3390 O   0  0  0  0  0  0  0  0  0  0  0  0
  139.9000   72.7150  222.1280 C   0  0  0  0  0  0  0  0  0  0  0  0
  139.9400   72.3300  220.7410 N   0  0  0  0  0  0  0  0  0  0  0  0
  139.8860   73.3880  219.7790 C   0  0  0  0  0  0  0  0  0  0  0  0
  141.1100   74.0310  219.3490 C   0  0  0  0  0  0  0  0  0  0  0  0
  141.7910   73.3370  218.4730 O   0  0  0  0  0  0  0  0  0  0  0  0
  141.6940   75.2530  219.6990 N   0  0  0  0  0  0  0  0  0  0  0  0
  141.0990   76.5890  219.8990 C   0  0  0  0  0  0  0  0  0  0  0  0
  141.9720   77.3880  218.9800 C   0  0  0  0  0  0  0  0  0  0  0  0
  143.3230   76.7190  219.0000 C   0  0  0  0  0  0  0  0  0  0  0  0
  143.1210   75.5400  219.9390 C   0  0  2  0  0  0  0  0  0  0  0  0
  144.0380   74.4460  219.6320 C   0  0  0  0  0  0  0  0  0  0  0  0
  144.6060   73.7300  220.6940 C   0  0  0  0  0  0  0  0  0  0  0  0
  145.5090   72.7090  220.4540 C   0  0  0  0  0  0  0  0  0  0  0  0
  145.8730   72.3680  219.2110 N   0  0  0  0  0  0  0  0  0  0  0  0
  145.3520   73.0290  218.1620 C   0  0  0  0  0  0  0  0  0  0  0  0
  144.4410   74.0610  218.3740 C   0  0  0  0  0  0  0  0  0  0  0  0
  139.9510   71.7130  223.1670 C   0  0  0  0  0  0  0  0  0  0  0  0
  139.5110   70.4380  222.8840 C   0  0  0  0  0  0  0  0  0  0  0  0
  139.5790   69.5100  223.9090 C   0  0  0  0  0  0  0  0  0  0  0  0
  140.0550   69.8060  225.1650 C   0  0  0  0  0  0  0  0  0  0  0  0
  140.1230   68.8830  226.1900 C   0  0  0  0  0  0  0  0  0  0  0  0
  140.6230   69.3160  227.4050 C   0  0  0  0  0  0  0  0  0  0  0  0
  140.7190   68.1510  228.7300 Cl  0  0  0  0  0  0  0  0  0  0  0  0
  141.0470   70.6000  227.6320 C   0  0  0  0  0  0  0  0  0  0  0  0
  140.9770   71.5200  226.6050 C   0  0  0  0  0  0  0  0  0  0  0  0
  140.4800   71.1110  225.3790 C   0  0  0  0  0  0  0  0  0  0  0  0
  140.4290   72.0470  224.3990 N   0  0  0  0  0  0  0  0  0  0  0  0
  140.0040   71.3150  220.5170 H   0  0  0  0  0  0  0  0  0  0  0  0
  139.4090   72.9754  218.8778 H   0  0  0  0  0  0  0  0  0  0  0  0
  139.3493   74.1885  220.3092 H   0  0  0  0  0  0  0  0  0  0  0  0
  140.0434   76.6185  219.5910 H   0  0  0  0  0  0  0  0  0  0  0  0
  141.0726   76.9387  220.9416 H   0  0  0  0  0  0  0  0  0  0  0  0
  141.5586   77.3831  217.9606 H   0  0  0  0  0  0  0  0  0  0  0  0
  142.0387   78.4380  219.3010 H   0  0  0  0  0  0  0  0  0  0  0  0
  143.6071   76.3764  217.9941 H   0  0  0  0  0  0  0  0  0  0  0  0
  144.1299   77.3923  219.3249 H   0  0  0  0  0  0  0  0  0  0  0  0
  143.3424   75.7207  221.0012 H   0  0  0  0  0  0  0  0  0  0  0  0
  144.3315   73.9819  221.7290 H   0  0  0  0  0  0  0  0  0  0  0  0
  145.9391   72.1631  221.3067 H   0  0  0  0  0  0  0  0  0  0  0  0
  145.6450   72.7549  217.1378 H   0  0  0  0  0  0  0  0  0  0  0  0
  144.0276   74.5887  217.5019 H   0  0  0  0  0  0  0  0  0  0  0  0
  139.1238   70.1702  221.8899 H   0  0  0  0  0  0  0  0  0  0  0  0
  139.2351   68.4845  223.7089 H   0  0  0  0  0  0  0  0  0  0  0  0
  139.7924   67.8438  226.0459 H   0  0  0  0  0  0  0  0  0  0  0  0
  141.4372   70.8928  228.6179 H   0  0  0  0  0  0  0  0  0  0  0  0
  141.3095   72.5574  226.7576 H   0  0  0  0  0  0  0  0  0  0  0  0
  1  2  2  0
  2  3  1  0
  3  4  1  0
  4  5  1  0
  5  6  2  0
  5  7  1  0
  7  8  1  0
  8  9  1  0
  9 10  1  0
 10 11  1  0
 11 12  1  0
 12 13  2  0
 13 14  1  0
 14 15  2  0
 15 16  1  0
 16 17  2  0
  2 18  1  0
 18 19  2  0
 19 20  1  0
 20 21  2  0
 21 22  1  0
 22 23  2  0
 23 24  1  0
 23 25  1  0
 25 26  2  0
 26 27  1  0
 27 28  2  0
 11  7  1  0
 17 12  1  0
 28 18  1  0
 27 21  1  0
  3 29  1  0
  4 30  1  0
  4 31  1  0
  8 32  1  0
  8 33  1  0
  9 34  1  0
  9 35  1  0
 10 36  1  0
 10 37  1  0
 11 38  1  1
 13 39  1  0
 14 40  1  0
 16 41  1  0
 17 42  1  0
 19 43  1  0
 20 44  1  0
 22 45  1  0
 25 46  1  0
 26 47  1  0
M  END
>  <smiles>  (29) 
O=C(NCC(=O)N1CCCC1c1ccncc1)c1ccc2cc(Cl)ccc2n1

>  <score_type>  (29) 
oracle

>  <origin>  (29) 
autodockgpu

>  <m_score__min__energy>  (29) 
-8.25

>  <m_primary>  (29) 
energy

>  <rmsd>  (29) 
2.3008869465792374

>  <m_score__min__rmsd>  (29) 
2.3008869465792374

>  <meeko>  (29) 
{"free_energy": -8.25, "intermolecular_energy": -9.74, "internal_energy": -1.15, "cluster_size": 15, "cluster_id": 1, "rank_in_cluster": 2}

>  <energy>  (29) 
-8.03

>  <cluster_rmsd>  (29) 
0.64

>  <cluster>  (29) 
2

$$$$

     RDKit          3D

 47 50  0  0  0  0  0  0  0  0999 V2000
  140.3270   72.3350  220.6880 O   0  0  0  0  0  0  0  0  0  0  0  0
  140.0640   72.6260  221.8860 C   0  0  0  0  0  0  0  0  0  0  0  0
  139.7910   74.0190  222.1330 N   0  0  0  0  0  0  0  0  0  0  0  0
  139.8490   74.8950  221.0030 C   0  0  0  0  0  0  0  0  0  0  0  0
  140.8550   75.9340  220.9500 C   0  0  0  0  0  0  0  0  0  0  0  0
  141.1610   76.4320  222.1200 O   0  0  0  0  0  0  0  0  0  0  0  0
  141.5560   76.5010  219.8790 N   0  0  0  0  0  0  0  0  0  0  0  0
  141.2050   77.6100  218.9710 C   0  0  0  0  0  0  0  0  0  0  0  0
  141.4090   76.9250  217.6540 C   0  0  0  0  0  0  0  0  0  0  0  0
  142.5180   75.9250  217.8710 C   0  0  0  0  0  0  0  0  0  0  0  0
  142.8680   76.0980  219.3400 C   0  0  2  0  0  0  0  0  0  0  0  0
  143.4270   74.8730  219.9060 C   0  0  0  0  0  0  0  0  0  0  0  0
  144.7180   74.9140  220.4480 C   0  0  0  0  0  0  0  0  0  0  0  0
  145.3030   73.7690  220.9630 C   0  0  0  0  0  0  0  0  0  0  0  0
  144.6670   72.5920  220.9630 N   0  0  0  0  0  0  0  0  0  0  0  0
  143.4260   72.5080  220.4520 C   0  0  0  0  0  0  0  0  0  0  0  0
  142.8130   73.6420  219.9280 C   0  0  0  0  0  0  0  0  0  0  0  0
  140.0260   71.6710  222.9690 C   0  0  0  0  0  0  0  0  0  0  0  0
  139.4880   70.4230  222.7390 C   0  0  0  0  0  0  0  0  0  0  0  0
  139.4740   69.5410  223.8040 C   0  0  0  0  0  0  0  0  0  0  0  0
  139.9610   69.8550  225.0510 C   0  0  0  0  0  0  0  0  0  0  0  0
  139.9470   68.9770  226.1170 C   0  0  0  0  0  0  0  0  0  0  0  0
  140.4710   69.4230  227.3180 C   0  0  0  0  0  0  0  0  0  0  0  0
  140.4620   68.3150  228.6930 Cl  0  0  0  0  0  0  0  0  0  0  0  0
  140.9940   70.6780  227.4920 C   0  0  0  0  0  0  0  0  0  0  0  0
  141.0060   71.5540  226.4240 C   0  0  0  0  0  0  0  0  0  0  0  0
  140.4880   71.1300  225.2110 C   0  0  0  0  0  0  0  0  0  0  0  0
  140.5200   72.0220  224.1910 N   0  0  0  0  0  0  0  0  0  0  0  0
  139.5690   74.3070  223.1080 H   0  0  0  0  0  0  0  0  0  0  0  0
  139.9981   74.2616  220.1161 H   0  0  0  0  0  0  0  0  0  0  0  0
  138.9052   75.4565  221.0665 H   0  0  0  0  0  0  0  0  0  0  0  0
  140.1636   77.9373  219.1064 H   0  0  0  0  0  0  0  0  0  0  0  0
  141.7855   78.5334  219.1134 H   0  0  0  0  0  0  0  0  0  0  0  0
  140.4870   76.4115  217.3437 H   0  0  0  0  0  0  0  0  0  0  0  0
  141.6650   77.6441  216.8619 H   0  0  0  0  0  0  0  0  0  0  0  0
  142.1702   74.9015  217.6674 H   0  0  0  0  0  0  0  0  0  0  0  0
  143.3774   76.0862  217.2036 H   0  0  0  0  0  0  0  0  0  0  0  0
  143.6593   76.8269  219.5690 H   0  0  0  0  0  0  0  0  0  0  0  0
  145.2722   75.8640  220.4648 H   0  0  0  0  0  0  0  0  0  0  0  0
  146.3178   73.8290  221.3833 H   0  0  0  0  0  0  0  0  0  0  0  0
  142.8961   71.5441  220.4482 H   0  0  0  0  0  0  0  0  0  0  0  0
  141.7975   73.5506  219.5151 H   0  0  0  0  0  0  0  0  0  0  0  0
  139.0882   70.1415  221.7536 H   0  0  0  0  0  0  0  0  0  0  0  0
  139.0520   68.5376  223.6456 H   0  0  0  0  0  0  0  0  0  0  0  0
  139.5352   67.9621  226.0155 H   0  0  0  0  0  0  0  0  0  0  0  0
  141.3985   70.9833  228.4683 H   0  0  0  0  0  0  0  0  0  0  0  0
  141.4185   72.5677  226.5344 H   0  0  0  0  0  0  0  0  0  0  0  0
  1  2  2  0
  2  3  1  0
  3  4  1  0
  4  5  1  0
  5  6  2  0
  5  7  1  0
  7  8  1  0
  8  9  1  0
  9 10  1  0
 10 11  1  0
 11 12  1  0
 12 13  2  0
 13 14  1  0
 14 15  2  0
 15 16  1  0
 16 17  2  0
  2 18  1  0
 18 19  2  0
 19 20  1  0
 20 21  2  0
 21 22  1  0
 22 23  2  0
 23 24  1  0
 23 25  1  0
 25 26  2  0
 26 27  1  0
 27 28  2  0
 11  7  1  0
 17 12  1  0
 28 18  1  0
 27 21  1  0
  3 29  1  0
  4 30  1  0
  4 31  1  0
  8 32  1  0
  8 33  1  0
  9 34  1  0
  9 35  1  0
 10 36  1  0
 10 37  1  0
 11 38  1  6
 13 39  1  0
 14 40  1  0
 16 41  1  0
 17 42  1  0
 19 43  1  0
 20 44  1  0
 22 45  1  0
 25 46  1  0
 26 47  1  0
M  END
>  <smiles>  (30) 
O=C(NCC(=O)N1CCCC1c1ccncc1)c1ccc2cc(Cl)ccc2n1

>  <score_type>  (30) 
oracle

>  <origin>  (30) 
autodockgpu

>  <m_score__min__energy>  (30) 
-8.25

>  <m_primary>  (30) 
energy

>  <rmsd>  (30) 
2.051641670904548

>  <m_score__min__rmsd>  (30) 
2.051641670904548

>  <meeko>  (30) 
{"free_energy": -7.68, "intermolecular_energy": -9.17, "internal_energy": -1.71, "cluster_size": 15, "cluster_id": 1, "rank_in_cluster": 8}

>  <energy>  (30) 
-8.01

>  <cluster_rmsd>  (30) 
0.64

>  <cluster>  (30) 
2

$$$$

     RDKit          3D

 47 50  0  0  0  0  0  0  0  0999 V2000
  139.9220   72.1290  220.7500 O   0  0  0  0  0  0  0  0  0  0  0  0
  139.8270   72.4330  221.9690 C   0  0  0  0  0  0  0  0  0  0  0  0
  139.6430   73.8360  222.2390 N   0  0  0  0  0  0  0  0  0  0  0  0
  139.5890   74.7060  221.1040 C   0  0  0  0  0  0  0  0  0  0  0  0
  140.2770   75.9790  221.1430 C   0  0  0  0  0  0  0  0  0  0  0  0
  140.7210   76.3040  222.3290 O   0  0  0  0  0  0  0  0  0  0  0  0
  140.5490   76.9230  220.1450 N   0  0  0  0  0  0  0  0  0  0  0  0
  140.9890   76.7530  218.7460 C   0  0  0  0  0  0  0  0  0  0  0  0
  142.1890   77.6500  218.7540 C   0  0  0  0  0  0  0  0  0  0  0  0
  141.8790   78.7540  219.7350 C   0  0  0  0  0  0  0  0  0  0  0  0
  140.4940   78.3930  220.2480 C   0  0  2  0  0  0  0  0  0  0  0  0
  140.2670   78.9160  221.5920 C   0  0  0  0  0  0  0  0  0  0  0  0
  141.3770   79.2700  222.3700 C   0  0  0  0  0  0  0  0  0  0  0  0
  141.2130   79.7360  223.6640 C   0  0  0  0  0  0  0  0  0  0  0  0
  140.0020   79.8650  224.2170 N   0  0  0  0  0  0  0  0  0  0  0  0
  138.9080   79.5370  223.5060 C   0  0  0  0  0  0  0  0  0  0  0  0
  139.0430   79.0660  222.2030 C   0  0  0  0  0  0  0  0  0  0  0  0
  139.8910   71.4820  223.0550 C   0  0  0  0  0  0  0  0  0  0  0  0
  139.4450   70.1960  222.8410 C   0  0  0  0  0  0  0  0  0  0  0  0
  139.5260   69.3200  223.9090 C   0  0  0  0  0  0  0  0  0  0  0  0
  140.0210   69.6750  225.1420 C   0  0  0  0  0  0  0  0  0  0  0  0
  140.1020   68.8030  226.2100 C   0  0  0  0  0  0  0  0  0  0  0  0
  140.6210   69.2930  227.3950 C   0  0  0  0  0  0  0  0  0  0  0  0
  140.7340   68.1940  228.7730 Cl  0  0  0  0  0  0  0  0  0  0  0  0
  141.0500   70.5860  227.5530 C   0  0  0  0  0  0  0  0  0  0  0  0
  140.9670   71.4550  226.4830 C   0  0  0  0  0  0  0  0  0  0  0  0
  140.4510   70.9880  225.2850 C   0  0  0  0  0  0  0  0  0  0  0  0
  140.3880   71.8750  224.2620 N   0  0  0  0  0  0  0  0  0  0  0  0
  139.5590   74.1350  223.2320 H   0  0  0  0  0  0  0  0  0  0  0  0
  140.0027   74.1457  220.2526 H   0  0  0  0  0  0  0  0  0  0  0  0
  138.5277   74.9899  221.0491 H   0  0  0  0  0  0  0  0  0  0  0  0
  141.2579   75.7097  218.5242 H   0  0  0  0  0  0  0  0  0  0  0  0
  140.2316   76.9908  217.9846 H   0  0  0  0  0  0  0  0  0  0  0  0
  143.0806   77.0921  219.0762 H   0  0  0  0  0  0  0  0  0  0  0  0
  142.3984   78.0504  217.7511 H   0  0  0  0  0  0  0  0  0  0  0  0
  142.6112   78.7679  220.5558 H   0  0  0  0  0  0  0  0  0  0  0  0
  141.9207   79.7552  219.2812 H   0  0  0  0  0  0  0  0  0  0  0  0
  139.6442   78.8231  219.6977 H   0  0  0  0  0  0  0  0  0  0  0  0
  142.3890   79.1769  221.9490 H   0  0  0  0  0  0  0  0  0  0  0  0
  142.1020   80.0071  224.2523 H   0  0  0  0  0  0  0  0  0  0  0  0
  137.9085   79.6408  223.9535 H   0  0  0  0  0  0  0  0  0  0  0  0
  138.1355   78.8033  221.6395 H   0  0  0  0  0  0  0  0  0  0  0  0
  139.0434   69.8805  221.8668 H   0  0  0  0  0  0  0  0  0  0  0  0
  139.1767   68.2870  223.7645 H   0  0  0  0  0  0  0  0  0  0  0  0
  139.7667   67.7591  226.1217 H   0  0  0  0  0  0  0  0  0  0  0  0
  141.4543   70.9259  228.5179 H   0  0  0  0  0  0  0  0  0  0  0  0
  141.3040   72.4976  226.5799 H   0  0  0  0  0  0  0  0  0  0  0  0
  1  2  2  0
  2  3  1  0
  3  4  1  0
  4  5  1  0
  5  6  2  0
  5  7  1  0
  7  8  1  0
  8  9  1  0
  9 10  1  0
 10 11  1  0
 11 12  1  0
 12 13  2  0
 13 14  1  0
 14 15  2  0
 15 16  1  0
 16 17  2  0
  2 18  1  0
 18 19  2  0
 19 20  1  0
 20 21  2  0
 21 22  1  0
 22 23  2  0
 23 24  1  0
 23 25  1  0
 25 26  2  0
 26 27  1  0
 27 28  2  0
 11  7  1  0
 17 12  1  0
 28 18  1  0
 27 21  1  0
  3 29  1  0
  4 30  1  0
  4 31  1  0
  8 32  1  0
  8 33  1  0
  9 34  1  0
  9 35  1  0
 10 36  1  0
 10 37  1  0
 11 38  1  6
 13 39  1  0
 14 40  1  0
 16 41  1  0
 17 42  1  0
 19 43  1  0
 20 44  1  0
 22 45  1  0
 25 46  1  0
 26 47  1  0
M  END
>  <smiles>  (31) 
O=C(NCC(=O)N1CCCC1c1ccncc1)c1ccc2cc(Cl)ccc2n1

>  <score_type>  (31) 
oracle

>  <origin>  (31) 
autodockgpu

>  <m_score__min__energy>  (31) 
-8.25

>  <m_primary>  (31) 
energy

>  <rmsd>  (31) 
1.8420892442471002

>  <m_score__min__rmsd>  (31) 
1.8420892442471002

>  <meeko>  (31) 
{"free_energy": -7.72, "intermolecular_energy": -9.21, "internal_energy": -1.42, "cluster_size": 20, "cluster_id": 2, "rank_in_cluster": 18}

>  <energy>  (31) 
-7.9

>  <cluster_rmsd>  (31) 
0.69

>  <cluster>  (31) 
2

$$$$

     RDKit          3D

 47 50  0  0  0  0  0  0  0  0999 V2000
  133.9840   69.4600  226.5180 O   0  0  0  0  0  0  0  0  0  0  0  0
  134.2360   70.6310  226.1250 C   0  0  0  0  0  0  0  0  0  0  0  0
  135.3660   70.7500  225.2390 N   0  0  0  0  0  0  0  0  0  0  0  0
  136.0570   69.5400  224.9130 C   0  0  0  0  0  0  0  0  0  0  0  0
  137.5040   69.5280  224.8750 C   0  0  0  0  0  0  0  0  0  0  0  0
  138.0300   68.3720  225.1860 O   0  0  0  0  0  0  0  0  0  0  0  0
  138.4380   70.5240  224.5670 N   0  0  0  0  0  0  0  0  0  0  0  0
  138.5050   71.4730  223.4390 C   0  0  0  0  0  0  0  0  0  0  0  0
  139.8960   71.1910  222.9620 C   0  0  0  0  0  0  0  0  0  0  0  0
  140.6880   70.8060  224.1870 C   0  0  0  0  0  0  0  0  0  0  0  0
  139.6640   70.8770  225.3080 C   0  0  2  0  0  0  0  0  0  0  0  0
  140.0080   69.9810  226.4080 C   0  0  0  0  0  0  0  0  0  0  0  0
  140.7800   68.8450  226.1300 C   0  0  0  0  0  0  0  0  0  0  0  0
  141.1010   67.9470  227.1340 C   0  0  0  0  0  0  0  0  0  0  0  0
  140.6900   68.1250  228.3960 N   0  0  0  0  0  0  0  0  0  0  0  0
  139.9470   69.2030  228.7070 C   0  0  0  0  0  0  0  0  0  0  0  0
  139.6100   70.1220  227.7170 C   0  0  0  0  0  0  0  0  0  0  0  0
  133.4790   71.8010  226.5060 C   0  0  0  0  0  0  0  0  0  0  0  0
  132.2340   71.6340  227.0720 C   0  0  0  0  0  0  0  0  0  0  0  0
  131.5460   72.7820  227.4210 C   0  0  0  0  0  0  0  0  0  0  0  0
  132.0440   74.0500  227.2280 C   0  0  0  0  0  0  0  0  0  0  0  0
  131.3590   75.1970  227.5750 C   0  0  0  0  0  0  0  0  0  0  0  0
  131.9780   76.4090  227.3250 C   0  0  0  0  0  0  0  0  0  0  0  0
  131.1190   77.8900  227.7610 Cl  0  0  0  0  0  0  0  0  0  0  0  0
  133.2220   76.5180  226.7570 C   0  0  0  0  0  0  0  0  0  0  0  0
  133.9030   75.3670  226.4110 C   0  0  0  0  0  0  0  0  0  0  0  0
  133.3040   74.1420  226.6520 C   0  0  0  0  0  0  0  0  0  0  0  0
  134.0090   73.0400  226.2970 N   0  0  0  0  0  0  0  0  0  0  0  0
  135.6130   71.6980  224.8880 H   0  0  0  0  0  0  0  0  0  0  0  0
  135.7512   68.7882  225.6555 H   0  0  0  0  0  0  0  0  0  0  0  0
  135.7719   69.3564  223.8666 H   0  0  0  0  0  0  0  0  0  0  0  0
  137.7532   71.2480  222.6681 H   0  0  0  0  0  0  0  0  0  0  0  0
  138.3022   72.5228  223.6973 H   0  0  0  0  0  0  0  0  0  0  0  0
  139.8905   70.3649  222.2357 H   0  0  0  0  0  0  0  0  0  0  0  0
  140.3336   72.0659  222.4590 H   0  0  0  0  0  0  0  0  0  0  0  0
  141.0939   69.7883  224.0890 H   0  0  0  0  0  0  0  0  0  0  0  0
  141.5568   71.4586  224.3582 H   0  0  0  0  0  0  0  0  0  0  0  0
  139.5800   71.8419  225.8295 H   0  0  0  0  0  0  0  0  0  0  0  0
  141.1344   68.6649  225.1044 H   0  0  0  0  0  0  0  0  0  0  0  0
  141.7096   67.0642  226.8885 H   0  0  0  0  0  0  0  0  0  0  0  0
  139.6066   69.3578  229.7415 H   0  0  0  0  0  0  0  0  0  0  0  0
  139.0012   70.9957  227.9926 H   0  0  0  0  0  0  0  0  0  0  0  0
  131.8070   70.6341  227.2386 H   0  0  0  0  0  0  0  0  0  0  0  0
  130.5501   72.6759  227.8760 H   0  0  0  0  0  0  0  0  0  0  0  0
  130.3598   75.1494  228.0325 H   0  0  0  0  0  0  0  0  0  0  0  0
  133.6703   77.5067  226.5798 H   0  0  0  0  0  0  0  0  0  0  0  0
  134.9016   75.4225  225.9530 H   0  0  0  0  0  0  0  0  0  0  0  0
  1  2  2  0
  2  3  1  0
  3  4  1  0
  4  5  1  0
  5  6  2  0
  5  7  1  0
  7  8  1  0
  8  9  1  0
  9 10  1  0
 10 11  1  0
 11 12  1  0
 12 13  2  0
 13 14  1  0
 14 15  2  0
 15 16  1  0
 16 17  2  0
  2 18  1  0
 18 19  2  0
 19 20  1  0
 20 21  2  0
 21 22  1  0
 22 23  2  0
 23 24  1  0
 23 25  1  0
 25 26  2  0
 26 27  1  0
 27 28  2  0
 11  7  1  0
 17 12  1  0
 28 18  1  0
 27 21  1  0
  3 29  1  0
  4 30  1  0
  4 31  1  0
  8 32  1  0
  8 33  1  0
  9 34  1  0
  9 35  1  0
 10 36  1  0
 10 37  1  0
 11 38  1  1
 13 39  1  0
 14 40  1  0
 16 41  1  0
 17 42  1  0
 19 43  1  0
 20 44  1  0
 22 45  1  0
 25 46  1  0
 26 47  1  0
M  END
>  <smiles>  (32) 
O=C(NCC(=O)N1CCCC1c1ccncc1)c1ccc2cc(Cl)ccc2n1

>  <score_type>  (32) 
oracle

>  <origin>  (32) 
autodockgpu

>  <m_score__min__energy>  (32) 
-8.25

>  <m_primary>  (32) 
energy

>  <rmsd>  (32) 
8.081410508079882

>  <m_score__min__rmsd>  (32) 
8.081410508079882

>  <meeko>  (32) 
{"free_energy": -8.14, "intermolecular_energy": -9.63, "internal_energy": -1.42, "cluster_size": 5, "cluster_id": 3, "rank_in_cluster": 1}

>  <energy>  (32) 
-7.89

>  <cluster_rmsd>  (32) 
1.94

>  <cluster>  (32) 
2

$$$$

     RDKit          3D

 47 50  0  0  0  0  0  0  0  0999 V2000
  141.6790   78.9910  217.5670 O   0  0  0  0  0  0  0  0  0  0  0  0
  142.1980   78.3560  218.5230 C   0  0  0  0  0  0  0  0  0  0  0  0
  142.1630   79.0280  219.7970 N   0  0  0  0  0  0  0  0  0  0  0  0
  141.5490   80.3200  219.8240 C   0  0  0  0  0  0  0  0  0  0  0  0
  140.8170   80.7440  220.9990 C   0  0  0  0  0  0  0  0  0  0  0  0
  139.6630   81.2980  220.7310 O   0  0  0  0  0  0  0  0  0  0  0  0
  141.1200   80.6690  222.3640 N   0  0  0  0  0  0  0  0  0  0  0  0
  141.8100   81.6210  223.2560 C   0  0  0  0  0  0  0  0  0  0  0  0
  142.8530   80.7100  223.8280 C   0  0  0  0  0  0  0  0  0  0  0  0
  142.2290   79.3380  223.8760 C   0  0  0  0  0  0  0  0  0  0  0  0
  140.8420   79.5590  223.2940 C   0  0  2  0  0  0  0  0  0  0  0  0
  140.3190   78.3440  222.6780 C   0  0  0  0  0  0  0  0  0  0  0  0
  138.9300   78.1920  222.5690 C   0  0  0  0  0  0  0  0  0  0  0  0
  138.3860   77.0400  222.0250 C   0  0  0  0  0  0  0  0  0  0  0  0
  139.1560   76.0370  221.5870 N   0  0  0  0  0  0  0  0  0  0  0  0
  140.4950   76.1410  221.6710 C   0  0  0  0  0  0  0  0  0  0  0  0
  141.0690   77.2870  222.2140 C   0  0  0  0  0  0  0  0  0  0  0  0
  142.7980   77.0470  218.4040 C   0  0  0  0  0  0  0  0  0  0  0  0
  142.9870   76.5130  217.1480 C   0  0  0  0  0  0  0  0  0  0  0  0
  143.5650   75.2580  217.0830 C   0  0  0  0  0  0  0  0  0  0  0  0
  143.9460   74.5420  218.1940 C   0  0  0  0  0  0  0  0  0  0  0  0
  144.5220   73.2890  218.1310 C   0  0  0  0  0  0  0  0  0  0  0  0
  144.8570   72.6810  219.3280 C   0  0  0  0  0  0  0  0  0  0  0  0
  145.5960   71.0770  219.2700 Cl  0  0  0  0  0  0  0  0  0  0  0  0
  144.6450   73.2590  220.5530 C   0  0  0  0  0  0  0  0  0  0  0  0
  144.0680   74.5130  220.6110 C   0  0  0  0  0  0  0  0  0  0  0  0
  143.7240   75.1420  219.4260 C   0  0  0  0  0  0  0  0  0  0  0  0
  143.1610   76.3710  219.5310 N   0  0  0  0  0  0  0  0  0  0  0  0
  142.5800   78.5420  220.6170 H   0  0  0  0  0  0  0  0  0  0  0  0
  142.3501   81.0568  219.6646 H   0  0  0  0  0  0  0  0  0  0  0  0
  140.7704   80.2488  219.0502 H   0  0  0  0  0  0  0  0  0  0  0  0
  142.2565   82.4570  222.6977 H   0  0  0  0  0  0  0  0  0  0  0  0
  141.1672   82.1205  223.9957 H   0  0  0  0  0  0  0  0  0  0  0  0
  143.7459   80.7010  223.1856 H   0  0  0  0  0  0  0  0  0  0  0  0
  143.1720   81.0416  224.8271 H   0  0  0  0  0  0  0  0  0  0  0  0
  142.8020   78.6238  223.2665 H   0  0  0  0  0  0  0  0  0  0  0  0
  142.2055   78.9130  224.8903 H   0  0  0  0  0  0  0  0  0  0  0  0
  140.0453   79.8007  224.0130 H   0  0  0  0  0  0  0  0  0  0  0  0
  138.2652   78.9955  222.9189 H   0  0  0  0  0  0  0  0  0  0  0  0
  137.2924   76.9473  221.9511 H   0  0  0  0  0  0  0  0  0  0  0  0
  141.1349   75.3218  221.3112 H   0  0  0  0  0  0  0  0  0  0  0  0
  142.1655   77.3505  222.2748 H   0  0  0  0  0  0  0  0  0  0  0  0
  142.6921   77.0590  216.2397 H   0  0  0  0  0  0  0  0  0  0  0  0
  143.7284   74.8095  216.0919 H   0  0  0  0  0  0  0  0  0  0  0  0
  144.7075   72.7932  217.1667 H   0  0  0  0  0  0  0  0  0  0  0  0
  144.9300   72.7323  221.4757 H   0  0  0  0  0  0  0  0  0  0  0  0
  143.8854   75.0022  221.5792 H   0  0  0  0  0  0  0  0  0  0  0  0
  1  2  2  0
  2  3  1  0
  3  4  1  0
  4  5  1  0
  5  6  2  0
  5  7  1  0
  7  8  1  0
  8  9  1  0
  9 10  1  0
 10 11  1  0
 11 12  1  0
 12 13  2  0
 13 14  1  0
 14 15  2  0
 15 16  1  0
 16 17  2  0
  2 18  1  0
 18 19  2  0
 19 20  1  0
 20 21  2  0
 21 22  1  0
 22 23  2  0
 23 24  1  0
 23 25  1  0
 25 26  2  0
 26 27  1  0
 27 28  2  0
 11  7  1  0
 17 12  1  0
 28 18  1  0
 27 21  1  0
  3 29  1  0
  4 30  1  0
  4 31  1  0
  8 32  1  0
  8 33  1  0
  9 34  1  0
  9 35  1  0
 10 36  1  0
 10 37  1  0
 11 38  1  1
 13 39  1  0
 14 40  1  0
 16 41  1  0
 17 42  1  0
 19 43  1  0
 20 44  1  0
 22 45  1  0
 25 46  1  0
 26 47  1  0
M  END
>  <smiles>  (33) 
O=C(NCC(=O)N1CCCC1c1ccncc1)c1ccc2cc(Cl)ccc2n1

>  <score_type>  (33) 
oracle

>  <origin>  (33) 
autodockgpu

>  <m_score__min__energy>  (33) 
-8.25

>  <m_primary>  (33) 
energy

>  <rmsd>  (33) 
8.42239991758022

>  <m_score__min__rmsd>  (33) 
8.42239991758022

>  <meeko>  (33) 
{"free_energy": -6.78, "intermolecular_energy": -8.27, "internal_energy": -2.13, "cluster_size": 6, "cluster_id": 6, "rank_in_cluster": 3}

>  <energy>  (33) 
-7.72

>  <cluster_rmsd>  (33) 
0.67

>  <cluster>  (33) 
2

$$$$

     RDKit          3D

 47 50  0  0  0  0  0  0  0  0999 V2000
  138.8930   73.7640  220.4770 O   0  0  0  0  0  0  0  0  0  0  0  0
  139.6650   73.6000  221.4600 C   0  0  0  0  0  0  0  0  0  0  0  0
  140.6590   74.6280  221.6370 N   0  0  0  0  0  0  0  0  0  0  0  0
  140.6520   75.6990  220.6880 C   0  0  0  0  0  0  0  0  0  0  0  0
  140.1090   76.9870  221.0620 C   0  0  0  0  0  0  0  0  0  0  0  0
  140.5870   77.9840  220.3640 O   0  0  0  0  0  0  0  0  0  0  0  0
  139.1690   77.3570  222.0320 N   0  0  0  0  0  0  0  0  0  0  0  0
  137.7880   76.8950  222.2680 C   0  0  0  0  0  0  0  0  0  0  0  0
  137.0850   78.2180  222.2830 C   0  0  0  0  0  0  0  0  0  0  0  0
  138.0750   79.2110  222.8410 C   0  0  0  0  0  0  0  0  0  0  0  0
  139.3150   78.3700  223.0950 C   0  0  2  0  0  0  0  0  0  0  0  0
  140.5310   79.1740  223.0280 C   0  0  0  0  0  0  0  0  0  0  0  0
  140.4180   80.5370  222.7250 C   0  0  0  0  0  0  0  0  0  0  0  0
  141.5470   81.3320  222.6140 C   0  0  0  0  0  0  0  0  0  0  0  0
  142.7770   80.8360  222.7910 N   0  0  0  0  0  0  0  0  0  0  0  0
  142.9320   79.5320  223.0840 C   0  0  0  0  0  0  0  0  0  0  0  0
  141.8150   78.7100  223.2010 C   0  0  0  0  0  0  0  0  0  0  0  0
  139.5990   72.4830  222.3730 C   0  0  0  0  0  0  0  0  0  0  0  0
  138.7820   71.4170  222.0630 C   0  0  0  0  0  0  0  0  0  0  0  0
  138.7510   70.3690  222.9660 C   0  0  0  0  0  0  0  0  0  0  0  0
  139.4830   70.3520  224.1300 C   0  0  0  0  0  0  0  0  0  0  0  0
  139.4530   69.3080  225.0330 C   0  0  0  0  0  0  0  0  0  0  0  0
  140.2410   69.4210  226.1650 C   0  0  0  0  0  0  0  0  0  0  0  0
  140.2170   68.0960  227.3330 Cl  0  0  0  0  0  0  0  0  0  0  0  0
  141.0370   70.5080  226.4240 C   0  0  0  0  0  0  0  0  0  0  0  0
  141.0640   71.5500  225.5180 C   0  0  0  0  0  0  0  0  0  0  0  0
  140.2830   71.4600  224.3770 C   0  0  0  0  0  0  0  0  0  0  0  0
  140.3410   72.5050  223.5160 N   0  0  0  0  0  0  0  0  0  0  0  0
  141.3200   74.5350  222.4360 H   0  0  0  0  0  0  0  0  0  0  0  0
  141.6975   75.8681  220.3908 H   0  0  0  0  0  0  0  0  0  0  0  0
  139.9591   75.3461  219.9099 H   0  0  0  0  0  0  0  0  0  0  0  0
  137.4271   76.2476  221.4552 H   0  0  0  0  0  0  0  0  0  0  0  0
  137.6473   76.2793  223.1686 H   0  0  0  0  0  0  0  0  0  0  0  0
  136.7898   78.5051  221.2630 H   0  0  0  0  0  0  0  0  0  0  0  0
  136.1685   78.1795  222.8901 H   0  0  0  0  0  0  0  0  0  0  0  0
  138.2835   80.0095  222.1138 H   0  0  0  0  0  0  0  0  0  0  0  0
  137.7091   79.7193  223.7453 H   0  0  0  0  0  0  0  0  0  0  0  0
  139.4025   77.9220  224.0958 H   0  0  0  0  0  0  0  0  0  0  0  0
  139.4228   80.9805  222.5737 H   0  0  0  0  0  0  0  0  0  0  0  0
  141.4292   82.3990  222.3740 H   0  0  0  0  0  0  0  0  0  0  0  0
  143.9398   79.1163  223.2308 H   0  0  0  0  0  0  0  0  0  0  0  0
  141.9645   77.6470  223.4414 H   0  0  0  0  0  0  0  0  0  0  0  0
  138.1826   71.4002  221.1408 H   0  0  0  0  0  0  0  0  0  0  0  0
  138.1079   69.5053  222.7413 H   0  0  0  0  0  0  0  0  0  0  0  0
  138.8268   68.4205  224.8593 H   0  0  0  0  0  0  0  0  0  0  0  0
  141.6448   70.5490  227.3399 H   0  0  0  0  0  0  0  0  0  0  0  0
  141.6931   72.4340  225.6987 H   0  0  0  0  0  0  0  0  0  0  0  0
  1  2  2  0
  2  3  1  0
  3  4  1  0
  4  5  1  0
  5  6  2  0
  5  7  1  0
  7  8  1  0
  8  9  1  0
  9 10  1  0
 10 11  1  0
 11 12  1  0
 12 13  2  0
 13 14  1  0
 14 15  2  0
 15 16  1  0
 16 17  2  0
  2 18  1  0
 18 19  2  0
 19 20  1  0
 20 21  2  0
 21 22  1  0
 22 23  2  0
 23 24  1  0
 23 25  1  0
 25 26  2  0
 26 27  1  0
 27 28  2  0
 11  7  1  0
 17 12  1  0
 28 18  1  0
 27 21  1  0
  3 29  1  0
  4 30  1  0
  4 31  1  0
  8 32  1  0
  8 33  1  0
  9 34  1  0
  9 35  1  0
 10 36  1  0
 10 37  1  0
 11 38  1  1
 13 39  1  0
 14 40  1  0
 16 41  1  0
 17 42  1  0
 19 43  1  0
 20 44  1  0
 22 45  1  0
 25 46  1  0
 26 47  1  0
M  END
>  <smiles>  (34) 
O=C(NCC(=O)N1CCCC1c1ccncc1)c1ccc2cc(Cl)ccc2n1

>  <score_type>  (34) 
oracle

>  <origin>  (34) 
autodockgpu

>  <m_score__min__energy>  (34) 
-8.25

>  <m_primary>  (34) 
energy

>  <rmsd>  (34) 
3.5183263293787617

>  <m_score__min__rmsd>  (34) 
3.5183263293787617

>  <meeko>  (34) 
{"free_energy": -7.27, "intermolecular_energy": -8.76, "internal_energy": -1.58, "cluster_size": 1, "cluster_id": 5, "rank_in_cluster": 1}

>  <energy>  (34) 
-7.71

>  <cluster_rmsd>  (34) 
0.75

>  <cluster>  (34) 
2

$$$$

     RDKit          3D

 47 50  0  0  0  0  0  0  0  0999 V2000
  140.8200   72.5590  220.7580 O   0  0  0  0  0  0  0  0  0  0  0  0
  140.3610   72.8320  221.8990 C   0  0  0  0  0  0  0  0  0  0  0  0
  139.9450   74.1990  222.0820 N   0  0  0  0  0  0  0  0  0  0  0  0
  140.1010   75.0730  220.9600 C   0  0  0  0  0  0  0  0  0  0  0  0
  141.0250   76.1840  221.0370 C   0  0  0  0  0  0  0  0  0  0  0  0
  141.2810   76.5740  222.2580 O   0  0  0  0  0  0  0  0  0  0  0  0
  141.6900   76.9140  220.0450 N   0  0  0  0  0  0  0  0  0  0  0  0
  141.3590   78.2020  219.4030 C   0  0  0  0  0  0  0  0  0  0  0  0
  141.4240   77.7850  217.9660 C   0  0  0  0  0  0  0  0  0  0  0  0
  142.4710   76.7010  217.8920 C   0  0  0  0  0  0  0  0  0  0  0  0
  142.9310   76.5540  219.3330 C   0  0  2  0  0  0  0  0  0  0  0  0
  143.4370   75.2120  219.6010 C   0  0  0  0  0  0  0  0  0  0  0  0
  142.8240   74.1250  218.9640 C   0  0  0  0  0  0  0  0  0  0  0  0
  143.2450   72.8300  219.2150 C   0  0  0  0  0  0  0  0  0  0  0  0
  144.2430   72.5670  220.0680 N   0  0  0  0  0  0  0  0  0  0  0  0
  144.8600   73.5800  220.7010 C   0  0  0  0  0  0  0  0  0  0  0  0
  144.4570   74.8920  220.4680 C   0  0  0  0  0  0  0  0  0  0  0  0
  140.2390   71.8810  222.9790 C   0  0  0  0  0  0  0  0  0  0  0  0
  139.6280   70.6700  222.7350 C   0  0  0  0  0  0  0  0  0  0  0  0
  139.5350   69.7900  223.7980 C   0  0  0  0  0  0  0  0  0  0  0  0
  140.0150   70.0710  225.0560 C   0  0  0  0  0  0  0  0  0  0  0  0
  139.9220   69.1950  226.1190 C   0  0  0  0  0  0  0  0  0  0  0  0
  140.4470   69.6060  227.3310 C   0  0  0  0  0  0  0  0  0  0  0  0
  140.3390   68.4990  228.7040 Cl  0  0  0  0  0  0  0  0  0  0  0  0
  141.0460   70.8250  227.5200 C   0  0  0  0  0  0  0  0  0  0  0  0
  141.1360   71.6990  226.4530 C   0  0  0  0  0  0  0  0  0  0  0  0
  140.6180   71.3090  225.2300 C   0  0  0  0  0  0  0  0  0  0  0  0
  140.7290   72.1980  224.2120 N   0  0  0  0  0  0  0  0  0  0  0  0
  139.5600   74.4720  223.0100 H   0  0  0  0  0  0  0  0  0  0  0  0
  140.4225   74.4494  220.1128 H   0  0  0  0  0  0  0  0  0  0  0  0
  139.1193   75.5628  220.8797 H   0  0  0  0  0  0  0  0  0  0  0  0
  140.3553   78.5543  219.6832 H   0  0  0  0  0  0  0  0  0  0  0  0
  142.0125   79.0435  219.6766 H   0  0  0  0  0  0  0  0  0  0  0  0
  140.4488   77.3971  217.6366 H   0  0  0  0  0  0  0  0  0  0  0  0
  141.6765   78.6330  217.3124 H   0  0  0  0  0  0  0  0  0  0  0  0
  142.0381   75.7609  217.5195 H   0  0  0  0  0  0  0  0  0  0  0  0
  143.2926   76.9449  217.2025 H   0  0  0  0  0  0  0  0  0  0  0  0
  143.7866   77.1756  219.6356 H   0  0  0  0  0  0  0  0  0  0  0  0
  141.9999   74.3022  218.2573 H   0  0  0  0  0  0  0  0  0  0  0  0
  142.7465   71.9955  218.7002 H   0  0  0  0  0  0  0  0  0  0  0  0
  145.6820   73.3725  221.4019 H   0  0  0  0  0  0  0  0  0  0  0  0
  144.9744   75.7054  220.9979 H   0  0  0  0  0  0  0  0  0  0  0  0
  139.2325   70.4151  221.7407 H   0  0  0  0  0  0  0  0  0  0  0  0
  139.0527   68.8160  223.6288 H   0  0  0  0  0  0  0  0  0  0  0  0
  139.4487   68.2084  226.0065 H   0  0  0  0  0  0  0  0  0  0  0  0
  141.4485   71.1029  228.5053 H   0  0  0  0  0  0  0  0  0  0  0  0
  141.6097   72.6845  226.5733 H   0  0  0  0  0  0  0  0  0  0  0  0
  1  2  2  0
  2  3  1  0
  3  4  1  0
  4  5  1  0
  5  6  2  0
  5  7  1  0
  7  8  1  0
  8  9  1  0
  9 10  1  0
 10 11  1  0
 11 12  1  0
 12 13  2  0
 13 14  1  0
 14 15  2  0
 15 16  1  0
 16 17  2  0
  2 18  1  0
 18 19  2  0
 19 20  1  0
 20 21  2  0
 21 22  1  0
 22 23  2  0
 23 24  1  0
 23 25  1  0
 25 26  2  0
 26 27  1  0
 27 28  2  0
 11  7  1  0
 17 12  1  0
 28 18  1  0
 27 21  1  0
  3 29  1  0
  4 30  1  0
  4 31  1  0
  8 32  1  0
  8 33  1  0
  9 34  1  0
  9 35  1  0
 10 36  1  0
 10 37  1  0
 11 38  1  1
 13 39  1  0
 14 40  1  0
 16 41  1  0
 17 42  1  0
 19 43  1  0
 20 44  1  0
 22 45  1  0
 25 46  1  0
 26 47  1  0
M  END
>  <smiles>  (35) 
O=C(NCC(=O)N1CCCC1c1ccncc1)c1ccc2cc(Cl)ccc2n1

>  <score_type>  (35) 
oracle

>  <origin>  (35) 
autodockgpu

>  <m_score__min__energy>  (35) 
-8.25

>  <m_primary>  (35) 
energy

>  <rmsd>  (35) 
2.2697357450542106

>  <m_score__min__rmsd>  (35) 
2.2697357450542106

>  <meeko>  (35) 
{"free_energy": -7.57, "intermolecular_energy": -9.06, "internal_energy": -1.73, "cluster_size": 15, "cluster_id": 1, "rank_in_cluster": 10}

>  <energy>  (35) 
-7.71

>  <cluster_rmsd>  (35) 
0.74

>  <cluster>  (35) 
2

$$$$

     RDKit          3D

 47 50  0  0  0  0  0  0  0  0999 V2000
  139.9210   72.4910  220.7230 O   0  0  0  0  0  0  0  0  0  0  0  0
  139.7800   72.7730  221.9440 C   0  0  0  0  0  0  0  0  0  0  0  0
  139.5090   74.1590  222.2260 N   0  0  0  0  0  0  0  0  0  0  0  0
  139.4330   75.0400  221.1010 C   0  0  0  0  0  0  0  0  0  0  0  0
  140.6080   75.7750  220.6830 C   0  0  0  0  0  0  0  0  0  0  0  0
  141.7040   75.4090  221.2950 O   0  0  0  0  0  0  0  0  0  0  0  0
  140.7830   76.8020  219.7470 N   0  0  0  0  0  0  0  0  0  0  0  0
  140.9270   76.7600  218.2790 C   0  0  0  0  0  0  0  0  0  0  0  0
  142.1940   77.5460  218.1330 C   0  0  0  0  0  0  0  0  0  0  0  0
  142.1940   78.5500  219.2590 C   0  0  0  0  0  0  0  0  0  0  0  0
  140.9030   78.2490  220.0030 C   0  0  2  0  0  0  0  0  0  0  0  0
  140.9930   78.6300  221.4100 C   0  0  0  0  0  0  0  0  0  0  0  0
  139.8170   78.6670  222.1700 C   0  0  0  0  0  0  0  0  0  0  0  0
  139.8480   79.0570  223.4990 C   0  0  0  0  0  0  0  0  0  0  0  0
  140.9890   79.4110  224.1020 N   0  0  0  0  0  0  0  0  0  0  0  0
  142.1410   79.3900  223.4090 C   0  0  0  0  0  0  0  0  0  0  0  0
  142.1400   79.0020  222.0730 C   0  0  0  0  0  0  0  0  0  0  0  0
  139.8720   71.8130  223.0190 C   0  0  0  0  0  0  0  0  0  0  0  0
  139.4570   70.5180  222.7940 C   0  0  0  0  0  0  0  0  0  0  0  0
  139.5640   69.6330  223.8520 C   0  0  0  0  0  0  0  0  0  0  0  0
  140.0550   69.9880  225.0870 C   0  0  0  0  0  0  0  0  0  0  0  0
  140.1630   69.1080  226.1450 C   0  0  0  0  0  0  0  0  0  0  0  0
  140.6750   69.5980  227.3330 C   0  0  0  0  0  0  0  0  0  0  0  0
  140.8210   68.4880  228.6990 Cl  0  0  0  0  0  0  0  0  0  0  0  0
  141.0730   70.8990  227.5030 C   0  0  0  0  0  0  0  0  0  0  0  0
  140.9630   71.7770  226.4420 C   0  0  0  0  0  0  0  0  0  0  0  0
  140.4540   71.3090  225.2420 C   0  0  0  0  0  0  0  0  0  0  0  0
  140.3650   72.2050  224.2280 N   0  0  0  0  0  0  0  0  0  0  0  0
  139.3850   74.4400  223.2200 H   0  0  0  0  0  0  0  0  0  0  0  0
  139.1148   74.4322  220.2412 H   0  0  0  0  0  0  0  0  0  0  0  0
  138.7457   75.8289  221.4404 H   0  0  0  0  0  0  0  0  0  0  0  0
  141.0372   75.7308  217.9067 H   0  0  0  0  0  0  0  0  0  0  0  0
  140.0673   77.1476  217.7127 H   0  0  0  0  0  0  0  0  0  0  0  0
  143.0671   76.8817  218.2135 H   0  0  0  0  0  0  0  0  0  0  0  0
  142.2496   78.0412  217.1523 H   0  0  0  0  0  0  0  0  0  0  0  0
  143.0670   78.4074  219.9129 H   0  0  0  0  0  0  0  0  0  0  0  0
  142.2523   79.5901  218.9056 H   0  0  0  0  0  0  0  0  0  0  0  0
  140.0131   78.8096  219.6808 H   0  0  0  0  0  0  0  0  0  0  0  0
  138.8600   78.3838  221.7074 H   0  0  0  0  0  0  0  0  0  0  0  0
  138.9102   79.0762  224.0736 H   0  0  0  0  0  0  0  0  0  0  0  0
  143.0831   79.6792  223.8978 H   0  0  0  0  0  0  0  0  0  0  0  0
  143.0937   78.9922  221.5250 H   0  0  0  0  0  0  0  0  0  0  0  0
  139.0591   70.2027  221.8182 H   0  0  0  0  0  0  0  0  0  0  0  0
  139.2401   68.5931  223.6979 H   0  0  0  0  0  0  0  0  0  0  0  0
  139.8536   68.0569  226.0471 H   0  0  0  0  0  0  0  0  0  0  0  0
  141.4738   71.2385  228.4695 H   0  0  0  0  0  0  0  0  0  0  0  0
  141.2735   72.8269  226.5482 H   0  0  0  0  0  0  0  0  0  0  0  0
  1  2  2  0
  2  3  1  0
  3  4  1  0
  4  5  1  0
  5  6  2  0
  5  7  1  0
  7  8  1  0
  8  9  1  0
  9 10  1  0
 10 11  1  0
 11 12  1  0
 12 13  2  0
 13 14  1  0
 14 15  2  0
 15 16  1  0
 16 17  2  0
  2 18  1  0
 18 19  2  0
 19 20  1  0
 20 21  2  0
 21 22  1  0
 22 23  2  0
 23 24  1  0
 23 25  1  0
 25 26  2  0
 26 27  1  0
 27 28  2  0
 11  7  1  0
 17 12  1  0
 28 18  1  0
 27 21  1  0
  3 29  1  0
  4 30  1  0
  4 31  1  0
  8 32  1  0
  8 33  1  0
  9 34  1  0
  9 35  1  0
 10 36  1  0
 10 37  1  0
 11 38  1  6
 13 39  1  0
 14 40  1  0
 16 41  1  0
 17 42  1  0
 19 43  1  0
 20 44  1  0
 22 45  1  0
 25 46  1  0
 26 47  1  0
M  END
>  <smiles>  (36) 
O=C(NCC(=O)N1CCCC1c1ccncc1)c1ccc2cc(Cl)ccc2n1

>  <score_type>  (36) 
oracle

>  <origin>  (36) 
autodockgpu

>  <m_score__min__energy>  (36) 
-8.25

>  <m_primary>  (36) 
energy

>  <rmsd>  (36) 
1.852781033425996

>  <m_score__min__rmsd>  (36) 
1.852781033425996

>  <meeko>  (36) 
{"free_energy": -7.9, "intermolecular_energy": -9.4, "internal_energy": -1.43, "cluster_size": 20, "cluster_id": 2, "rank_in_cluster": 16}

>  <energy>  (36) 
-8.14

>  <cluster_rmsd>  (36) 
0.0

>  <cluster>  (36) 
3

$$$$

     RDKit          3D

 47 50  0  0  0  0  0  0  0  0999 V2000
  140.9220   72.9940  220.9900 O   0  0  0  0  0  0  0  0  0  0  0  0
  140.2250   73.0500  222.0390 C   0  0  0  0  0  0  0  0  0  0  0  0
  139.4480   74.2520  222.1960 N   0  0  0  0  0  0  0  0  0  0  0  0
  139.5580   75.2280  221.1550 C   0  0  0  0  0  0  0  0  0  0  0  0
  139.4960   76.6370  221.4810 C   0  0  0  0  0  0  0  0  0  0  0  0
  140.4290   77.3520  220.9090 O   0  0  0  0  0  0  0  0  0  0  0  0
  138.6240   77.3680  222.2960 N   0  0  0  0  0  0  0  0  0  0  0  0
  137.1920   77.1780  222.5980 C   0  0  0  0  0  0  0  0  0  0  0  0
  136.6850   78.5460  222.2570 C   0  0  0  0  0  0  0  0  0  0  0  0
  137.8090   79.5000  222.5770 C   0  0  0  0  0  0  0  0  0  0  0  0
  138.9180   78.5870  223.0730 C   0  0  2  0  0  0  0  0  0  0  0  0
  140.2360   79.1710  222.8440 C   0  0  0  0  0  0  0  0  0  0  0  0
  140.3560   80.2120  221.9150 C   0  0  0  0  0  0  0  0  0  0  0  0
  141.5920   80.7720  221.6370 C   0  0  0  0  0  0  0  0  0  0  0  0
  142.7090   80.3450  222.2390 N   0  0  0  0  0  0  0  0  0  0  0  0
  142.6400   79.3480  223.1380 C   0  0  0  0  0  0  0  0  0  0  0  0
  141.4110   78.7660  223.4360 C   0  0  0  0  0  0  0  0  0  0  0  0
  140.1740   72.0100  223.0400 C   0  0  0  0  0  0  0  0  0  0  0  0
  139.6490   70.7820  222.7010 C   0  0  0  0  0  0  0  0  0  0  0  0
  139.6210   69.8170  223.6920 C   0  0  0  0  0  0  0  0  0  0  0  0
  140.0840   70.0320  224.9690 C   0  0  0  0  0  0  0  0  0  0  0  0
  140.0570   69.0720  225.9600 C   0  0  0  0  0  0  0  0  0  0  0  0
  140.5560   69.4220  227.2020 C   0  0  0  0  0  0  0  0  0  0  0  0
  140.5300   68.2070  228.4840 Cl  0  0  0  0  0  0  0  0  0  0  0  0
  141.0670   70.6630  227.4870 C   0  0  0  0  0  0  0  0  0  0  0  0
  141.0930   71.6210  226.4920 C   0  0  0  0  0  0  0  0  0  0  0  0
  140.5990   71.2930  225.2400 C   0  0  0  0  0  0  0  0  0  0  0  0
  140.6440   72.2640  224.2950 N   0  0  0  0  0  0  0  0  0  0  0  0
  138.8570   74.3430  223.0470 H   0  0  0  0  0  0  0  0  0  0  0  0
  140.5253   75.0579  220.6597 H   0  0  0  0  0  0  0  0  0  0  0  0
  138.6506   75.0647  220.5551 H   0  0  0  0  0  0  0  0  0  0  0  0
  136.7381   76.4021  221.9640 H   0  0  0  0  0  0  0  0  0  0  0  0
  136.9698   76.8371  223.6200 H   0  0  0  0  0  0  0  0  0  0  0  0
  136.4283   78.6028  221.1889 H   0  0  0  0  0  0  0  0  0  0  0  0
  135.7756   78.7910  222.8253 H   0  0  0  0  0  0  0  0  0  0  0  0
  138.1252   80.0507  221.6788 H   0  0  0  0  0  0  0  0  0  0  0  0
  137.5241   80.2669  223.3123 H   0  0  0  0  0  0  0  0  0  0  0  0
  138.9460   78.3998  224.1566 H   0  0  0  0  0  0  0  0  0  0  0  0
  139.4596   80.5888  221.4008 H   0  0  0  0  0  0  0  0  0  0  0  0
  141.6575   81.5885  220.9028 H   0  0  0  0  0  0  0  0  0  0  0  0
  143.5533   78.9925  223.6375 H   0  0  0  0  0  0  0  0  0  0  0  0
  141.3774   77.9505  224.1735 H   0  0  0  0  0  0  0  0  0  0  0  0
  139.2695   70.5782  221.6888 H   0  0  0  0  0  0  0  0  0  0  0  0
  139.2075   68.8278  223.4461 H   0  0  0  0  0  0  0  0  0  0  0  0
  139.6539   68.0664  225.7696 H   0  0  0  0  0  0  0  0  0  0  0  0
  141.4501   70.8917  228.4924 H   0  0  0  0  0  0  0  0  0  0  0  0
  141.4980   72.6244  226.6900 H   0  0  0  0  0  0  0  0  0  0  0  0
  1  2  2  0
  2  3  1  0
  3  4  1  0
  4  5  1  0
  5  6  2  0
  5  7  1  0
  7  8  1  0
  8  9  1  0
  9 10  1  0
 10 11  1  0
 11 12  1  0
 12 13  2  0
 13 14  1  0
 14 15  2  0
 15 16  1  0
 16 17  2  0
  2 18  1  0
 18 19  2  0
 19 20  1  0
 20 21  2  0
 21 22  1  0
 22 23  2  0
 23 24  1  0
 23 25  1  0
 25 26  2  0
 26 27  1  0
 27 28  2  0
 11  7  1  0
 17 12  1  0
 28 18  1  0
 27 21  1  0
  3 29  1  0
  4 30  1  0
  4 31  1  0
  8 32  1  0
  8 33  1  0
  9 34  1  0
  9 35  1  0
 10 36  1  0
 10 37  1  0
 11 38  1  1
 13 39  1  0
 14 40  1  0
 16 41  1  0
 17 42  1  0
 19 43  1  0
 20 44  1  0
 22 45  1  0
 25 46  1  0
 26 47  1  0
M  END
>  <smiles>  (37) 
O=C(NCC(=O)N1CCCC1c1ccncc1)c1ccc2cc(Cl)ccc2n1

>  <score_type>  (37) 
oracle

>  <origin>  (37) 
autodockgpu

>  <m_score__min__energy>  (37) 
-8.25

>  <m_primary>  (37) 
energy

>  <rmsd>  (37) 
3.3354467873565588

>  <m_score__min__rmsd>  (37) 
3.3354467873565588

>  <meeko>  (37) 
{"free_energy": -8.07, "intermolecular_energy": -9.56, "internal_energy": -1.02, "cluster_size": 20, "cluster_id": 2, "rank_in_cluster": 8}

>  <energy>  (37) 
-8.13

>  <cluster_rmsd>  (37) 
0.13

>  <cluster>  (37) 
3

$$$$

     RDKit          3D

 47 50  0  0  0  0  0  0  0  0999 V2000
  140.2780   72.6170  220.7110 O   0  0  0  0  0  0  0  0  0  0  0  0
  140.0420   72.8850  221.9210 C   0  0  0  0  0  0  0  0  0  0  0  0
  139.7590   74.2700  222.1990 N   0  0  0  0  0  0  0  0  0  0  0  0
  139.7780   75.1650  221.0830 C   0  0  0  0  0  0  0  0  0  0  0  0
  139.3210   76.5290  221.2480 C   0  0  0  0  0  0  0  0  0  0  0  0
  139.7010   77.3320  220.2890 O   0  0  0  0  0  0  0  0  0  0  0  0
  138.5520   77.1410  222.2450 N   0  0  0  0  0  0  0  0  0  0  0  0
  137.1870   76.8520  222.7280 C   0  0  0  0  0  0  0  0  0  0  0  0
  136.5850   78.2170  222.5940 C   0  0  0  0  0  0  0  0  0  0  0  0
  137.7070   79.1960  222.8380 C   0  0  0  0  0  0  0  0  0  0  0  0
  138.9110   78.3000  223.0830 C   0  0  2  0  0  0  0  0  0  0  0  0
  140.1580   78.9680  222.7240 C   0  0  0  0  0  0  0  0  0  0  0  0
  141.3180   78.6530  223.4440 C   0  0  0  0  0  0  0  0  0  0  0  0
  142.5170   79.2870  223.1640 C   0  0  0  0  0  0  0  0  0  0  0  0
  142.6140   80.2170  222.2060 N   0  0  0  0  0  0  0  0  0  0  0  0
  141.5250   80.5500  221.4900 C   0  0  0  0  0  0  0  0  0  0  0  0
  140.3070   79.9280  221.7500 C   0  0  0  0  0  0  0  0  0  0  0  0
  140.0440   71.9110  222.9870 C   0  0  0  0  0  0  0  0  0  0  0  0
  139.5460   70.6500  222.7390 C   0  0  0  0  0  0  0  0  0  0  0  0
  139.5680   69.7500  223.7900 C   0  0  0  0  0  0  0  0  0  0  0  0
  140.0540   70.0590  225.0390 C   0  0  0  0  0  0  0  0  0  0  0  0
  140.0770   69.1630  226.0890 C   0  0  0  0  0  0  0  0  0  0  0  0
  140.5940   69.6060  227.2940 C   0  0  0  0  0  0  0  0  0  0  0  0
  140.6320   68.4750  228.6510 Cl  0  0  0  0  0  0  0  0  0  0  0  0
  141.0760   70.8750  227.4860 C   0  0  0  0  0  0  0  0  0  0  0  0
  141.0520   71.7680  226.4330 C   0  0  0  0  0  0  0  0  0  0  0  0
  140.5390   71.3480  225.2170 C   0  0  0  0  0  0  0  0  0  0  0  0
  140.5350   72.2570  224.2110 N   0  0  0  0  0  0  0  0  0  0  0  0
  139.5590   74.5390  223.1840 H   0  0  0  0  0  0  0  0  0  0  0  0
  140.8200   75.2179  220.7345 H   0  0  0  0  0  0  0  0  0  0  0  0
  139.0395   74.7297  220.3937 H   0  0  0  0  0  0  0  0  0  0  0  0
  136.6749   76.1133  222.0939 H   0  0  0  0  0  0  0  0  0  0  0  0
  137.1292   76.4108  223.7340 H   0  0  0  0  0  0  0  0  0  0  0  0
  136.1717   78.3543  221.5839 H   0  0  0  0  0  0  0  0  0  0  0  0
  135.7612   78.3644  223.3079 H   0  0  0  0  0  0  0  0  0  0  0  0
  137.8668   79.8382  221.9593 H   0  0  0  0  0  0  0  0  0  0  0  0
  137.5045   79.8808  223.6747 H   0  0  0  0  0  0  0  0  0  0  0  0
  139.1049   78.0202  224.1290 H   0  0  0  0  0  0  0  0  0  0  0  0
  141.2759   77.8945  224.2396 H   0  0  0  0  0  0  0  0  0  0  0  0
  143.4127   79.0195  223.7437 H   0  0  0  0  0  0  0  0  0  0  0  0
  141.5968   81.3125  220.7004 H   0  0  0  0  0  0  0  0  0  0  0  0
  139.4290   80.2155  221.1530 H   0  0  0  0  0  0  0  0  0  0  0  0
  139.1494   70.3719  221.7514 H   0  0  0  0  0  0  0  0  0  0  0  0
  139.1771   68.7363  223.6178 H   0  0  0  0  0  0  0  0  0  0  0  0
  139.6990   68.1366  225.9724 H   0  0  0  0  0  0  0  0  0  0  0  0
  141.4762   71.1775  228.4649 H   0  0  0  0  0  0  0  0  0  0  0  0
  141.4327   72.7925  226.5575 H   0  0  0  0  0  0  0  0  0  0  0  0
  1  2  2  0
  2  3  1  0
  3  4  1  0
  4  5  1  0
  5  6  2  0
  5  7  1  0
  7  8  1  0
  8  9  1  0
  9 10  1  0
 10 11  1  0
 11 12  1  0
 12 13  2  0
 13 14  1  0
 14 15  2  0
 15 16  1  0
 16 17  2  0
  2 18  1  0
 18 19  2  0
 19 20  1  0
 20 21  2  0
 21 22  1  0
 22 23  2  0
 23 24  1  0
 23 25  1  0
 25 26  2  0
 26 27  1  0
 27 28  2  0
 11  7  1  0
 17 12  1  0
 28 18  1  0
 27 21  1  0
  3 29  1  0
  4 30  1  0
  4 31  1  0
  8 32  1  0
  8 33  1  0
  9 34  1  0
  9 35  1  0
 10 36  1  0
 10 37  1  0
 11 38  1  1
 13 39  1  0
 14 40  1  0
 16 41  1  0
 17 42  1  0
 19 43  1  0
 20 44  1  0
 22 45  1  0
 25 46  1  0
 26 47  1  0
M  END
>  <smiles>  (38) 
O=C(NCC(=O)N1CCCC1c1ccncc1)c1ccc2cc(Cl)ccc2n1

>  <score_type>  (38) 
oracle

>  <origin>  (38) 
autodockgpu

>  <m_score__min__energy>  (38) 
-8.25

>  <m_primary>  (38) 
energy

>  <rmsd>  (38) 
3.3572018685284273

>  <m_score__min__rmsd>  (38) 
3.3572018685284273

>  <meeko>  (38) 
{"free_energy": -7.89, "intermolecular_energy": -9.39, "internal_energy": -1.32, "cluster_size": 20, "cluster_id": 2, "rank_in_cluster": 17}

>  <energy>  (38) 
-7.94

>  <cluster_rmsd>  (38) 
0.5

>  <cluster>  (38) 
3

$$$$

     RDKit          3D

 47 50  0  0  0  0  0  0  0  0999 V2000
  139.9270   72.1260  220.6690 O   0  0  0  0  0  0  0  0  0  0  0  0
  139.8320   72.4350  221.8870 C   0  0  0  0  0  0  0  0  0  0  0  0
  139.6550   73.8390  222.1520 N   0  0  0  0  0  0  0  0  0  0  0  0
  139.6090   74.7070  221.0150 C   0  0  0  0  0  0  0  0  0  0  0  0
  140.4250   75.9020  220.9890 C   0  0  0  0  0  0  0  0  0  0  0  0
  141.0600   76.1320  222.1080 O   0  0  0  0  0  0  0  0  0  0  0  0
  140.6550   76.8520  219.9870 N   0  0  0  0  0  0  0  0  0  0  0  0
  140.7730   76.7070  218.5230 C   0  0  0  0  0  0  0  0  0  0  0  0
  142.0880   77.3920  218.3120 C   0  0  0  0  0  0  0  0  0  0  0  0
  142.1760   78.4630  219.3710 C   0  0  0  0  0  0  0  0  0  0  0  0
  140.8790   78.3010  220.1470 C   0  0  2  0  0  0  0  0  0  0  0  0
  141.0170   78.7630  221.5250 C   0  0  0  0  0  0  0  0  0  0  0  0
  139.8580   78.9550  222.2870 C   0  0  0  0  0  0  0  0  0  0  0  0
  139.9370   79.4270  223.5870 C   0  0  0  0  0  0  0  0  0  0  0  0
  141.1110   79.7160  224.1600 N   0  0  0  0  0  0  0  0  0  0  0  0
  142.2500   79.5470  223.4650 C   0  0  0  0  0  0  0  0  0  0  0  0
  142.2000   79.0740  222.1560 C   0  0  0  0  0  0  0  0  0  0  0  0
  139.8890   71.4870  222.9760 C   0  0  0  0  0  0  0  0  0  0  0  0
  139.4170   70.2080  222.7720 C   0  0  0  0  0  0  0  0  0  0  0  0
  139.4930   69.3350  223.8420 C   0  0  0  0  0  0  0  0  0  0  0  0
  140.0050   69.6860  225.0690 C   0  0  0  0  0  0  0  0  0  0  0  0
  140.0800   68.8170  226.1400 C   0  0  0  0  0  0  0  0  0  0  0  0
  140.6190   69.3020  227.3180 C   0  0  0  0  0  0  0  0  0  0  0  0
  140.7250   68.2060  228.6990 Cl  0  0  0  0  0  0  0  0  0  0  0  0
  141.0740   70.5870  227.4670 C   0  0  0  0  0  0  0  0  0  0  0  0
  140.9960   71.4540  226.3940 C   0  0  0  0  0  0  0  0  0  0  0  0
  140.4610   70.9910  225.2030 C   0  0  0  0  0  0  0  0  0  0  0  0
  140.4050   71.8750  224.1770 N   0  0  0  0  0  0  0  0  0  0  0  0
  139.5720   74.1420  223.1450 H   0  0  0  0  0  0  0  0  0  0  0  0
  139.8993   74.1040  220.1420 H   0  0  0  0  0  0  0  0  0  0  0  0
  138.5818   75.1000  221.0355 H   0  0  0  0  0  0  0  0  0  0  0  0
  140.8065   75.6511  218.2166 H   0  0  0  0  0  0  0  0  0  0  0  0
  139.9332   77.1168  217.9427 H   0  0  0  0  0  0  0  0  0  0  0  0
  142.9145   76.6749  218.4245 H   0  0  0  0  0  0  0  0  0  0  0  0
  142.1611   77.8193  217.3010 H   0  0  0  0  0  0  0  0  0  0  0  0
  143.0472   78.3010  220.0228 H   0  0  0  0  0  0  0  0  0  0  0  0
  142.3012   79.4719  218.9511 H   0  0  0  0  0  0  0  0  0  0  0  0
  140.0254   78.9010  219.7985 H   0  0  0  0  0  0  0  0  0  0  0  0
  138.8747   78.7287  221.8488 H   0  0  0  0  0  0  0  0  0  0  0  0
  139.0106   79.5678  224.1631 H   0  0  0  0  0  0  0  0  0  0  0  0
  143.2191   79.7819  223.9295 H   0  0  0  0  0  0  0  0  0  0  0  0
  143.1430   78.9439  221.6048 H   0  0  0  0  0  0  0  0  0  0  0  0
  138.9994   69.8962  221.8033 H   0  0  0  0  0  0  0  0  0  0  0  0
  139.1251   68.3075  223.7045 H   0  0  0  0  0  0  0  0  0  0  0  0
  139.7247   67.7791  226.0593 H   0  0  0  0  0  0  0  0  0  0  0  0
  141.4948   70.9225  228.4264 H   0  0  0  0  0  0  0  0  0  0  0  0
  141.3516   72.4911  226.4837 H   0  0  0  0  0  0  0  0  0  0  0  0
  1  2  2  0
  2  3  1  0
  3  4  1  0
  4  5  1  0
  5  6  2  0
  5  7  1  0
  7  8  1  0
  8  9  1  0
  9 10  1  0
 10 11  1  0
 11 12  1  0
 12 13  2  0
 13 14  1  0
 14 15  2  0
 15 16  1  0
 16 17  2  0
  2 18  1  0
 18 19  2  0
 19 20  1  0
 20 21  2  0
 21 22  1  0
 22 23  2  0
 23 24  1  0
 23 25  1  0
 25 26  2  0
 26 27  1  0
 27 28  2  0
 11  7  1  0
 17 12  1  0
 28 18  1  0
 27 21  1  0
  3 29  1  0
  4 30  1  0
  4 31  1  0
  8 32  1  0
  8 33  1  0
  9 34  1  0
  9 35  1  0
 10 36  1  0
 10 37  1  0
 11 38  1  6
 13 39  1  0
 14 40  1  0
 16 41  1  0
 17 42  1  0
 19 43  1  0
 20 44  1  0
 22 45  1  0
 25 46  1  0
 26 47  1  0
M  END
>  <smiles>  (39) 
O=C(NCC(=O)N1CCCC1c1ccncc1)c1ccc2cc(Cl)ccc2n1

>  <score_type>  (39) 
oracle

>  <origin>  (39) 
autodockgpu

>  <m_score__min__energy>  (39) 
-8.25

>  <m_primary>  (39) 
energy

>  <rmsd>  (39) 
1.7385006520949622

>  <m_score__min__rmsd>  (39) 
1.7385006520949622

>  <meeko>  (39) 
{"free_energy": -8.01, "intermolecular_energy": -9.51, "internal_energy": -1.33, "cluster_size": 20, "cluster_id": 2, "rank_in_cluster": 15}

>  <energy>  (39) 
-7.84

>  <cluster_rmsd>  (39) 
0.35

>  <cluster>  (39) 
3

$$$$

     RDKit          3D

 47 50  0  0  0  0  0  0  0  0999 V2000
  133.9810   69.3390  226.5210 O   0  0  0  0  0  0  0  0  0  0  0  0
  134.2580   70.5150  226.1600 C   0  0  0  0  0  0  0  0  0  0  0  0
  135.4220   70.6420  225.3220 N   0  0  0  0  0  0  0  0  0  0  0  0
  136.1180   69.4330  225.0020 C   0  0  0  0  0  0  0  0  0  0  0  0
  137.5470   69.4640  224.7770 C   0  0  0  0  0  0  0  0  0  0  0  0
  138.1130   68.2860  224.8120 O   0  0  0  0  0  0  0  0  0  0  0  0
  138.4300   70.5230  224.5330 N   0  0  0  0  0  0  0  0  0  0  0  0
  138.4820   71.5060  223.4340 C   0  0  0  0  0  0  0  0  0  0  0  0
  139.9040   71.3210  223.0030 C   0  0  0  0  0  0  0  0  0  0  0  0
  140.6720   70.9470  224.2470 C   0  0  0  0  0  0  0  0  0  0  0  0
  139.6050   70.9250  225.3290 C   0  0  2  0  0  0  0  0  0  0  0  0
  139.9620   70.0200  226.4170 C   0  0  0  0  0  0  0  0  0  0  0  0
  140.7180   68.8790  226.1180 C   0  0  0  0  0  0  0  0  0  0  0  0
  141.0500   67.9720  227.1110 C   0  0  0  0  0  0  0  0  0  0  0  0
  140.6650   68.1460  228.3810 N   0  0  0  0  0  0  0  0  0  0  0  0
  139.9370   69.2280  228.7120 C   0  0  0  0  0  0  0  0  0  0  0  0
  139.5900   70.1560  227.7340 C   0  0  0  0  0  0  0  0  0  0  0  0
  133.4940   71.6830  226.5330 C   0  0  0  0  0  0  0  0  0  0  0  0
  132.2450   71.5140  227.0880 C   0  0  0  0  0  0  0  0  0  0  0  0
  131.5500   72.6610  227.4290 C   0  0  0  0  0  0  0  0  0  0  0  0
  132.0470   73.9290  227.2390 C   0  0  0  0  0  0  0  0  0  0  0  0
  131.3560   75.0750  227.5780 C   0  0  0  0  0  0  0  0  0  0  0  0
  131.9740   76.2890  227.3320 C   0  0  0  0  0  0  0  0  0  0  0  0
  131.1070   77.7670  227.7590 Cl  0  0  0  0  0  0  0  0  0  0  0  0
  133.2220   76.4000  226.7760 C   0  0  0  0  0  0  0  0  0  0  0  0
  133.9100   75.2510  226.4380 C   0  0  0  0  0  0  0  0  0  0  0  0
  133.3120   74.0240  226.6740 C   0  0  0  0  0  0  0  0  0  0  0  0
  134.0230   72.9230  226.3280 N   0  0  0  0  0  0  0  0  0  0  0  0
  135.6900   71.5940  224.9990 H   0  0  0  0  0  0  0  0  0  0  0  0
  135.9415   68.7343  225.8331 H   0  0  0  0  0  0  0  0  0  0  0  0
  135.7108   69.1571  224.0181 H   0  0  0  0  0  0  0  0  0  0  0  0
  137.7740   71.2593  222.6291 H   0  0  0  0  0  0  0  0  0  0  0  0
  138.2075   72.5341  223.7125 H   0  0  0  0  0  0  0  0  0  0  0  0
  139.9749   70.5180  222.2545 H   0  0  0  0  0  0  0  0  0  0  0  0
  140.3065   72.2346  222.5412 H   0  0  0  0  0  0  0  0  0  0  0  0
  141.1411   69.9581  224.1371 H   0  0  0  0  0  0  0  0  0  0  0  0
  141.4935   71.6439  224.4693 H   0  0  0  0  0  0  0  0  0  0  0  0
  139.4438   71.8677  225.8724 H   0  0  0  0  0  0  0  0  0  0  0  0
  141.0511   68.7017  225.0848 H   0  0  0  0  0  0  0  0  0  0  0  0
  141.6458   67.0853  226.8488 H   0  0  0  0  0  0  0  0  0  0  0  0
  139.6166   69.3791  229.7534 H   0  0  0  0  0  0  0  0  0  0  0  0
  138.9943   71.0333  228.0264 H   0  0  0  0  0  0  0  0  0  0  0  0
  131.8193   70.5131  227.2527 H   0  0  0  0  0  0  0  0  0  0  0  0
  130.5500   72.5531  227.8743 H   0  0  0  0  0  0  0  0  0  0  0  0
  130.3528   75.0254  228.0264 H   0  0  0  0  0  0  0  0  0  0  0  0
  133.6691   77.3898  226.6015 H   0  0  0  0  0  0  0  0  0  0  0  0
  134.9131   75.3092  225.9902 H   0  0  0  0  0  0  0  0  0  0  0  0
  1  2  2  0
  2  3  1  0
  3  4  1  0
  4  5  1  0
  5  6  2  0
  5  7  1  0
  7  8  1  0
  8  9  1  0
  9 10  1  0
 10 11  1  0
 11 12  1  0
 12 13  2  0
 13 14  1  0
 14 15  2  0
 15 16  1  0
 16 17  2  0
  2 18  1  0
 18 19  2  0
 19 20  1  0
 20 21  2  0
 21 22  1  0
 22 23  2  0
 23 24  1  0
 23 25  1  0
 25 26  2  0
 26 27  1  0
 27 28  2  0
 11  7  1  0
 17 12  1  0
 28 18  1  0
 27 21  1  0
  3 29  1  0
  4 30  1  0
  4 31  1  0
  8 32  1  0
  8 33  1  0
  9 34  1  0
  9 35  1  0
 10 36  1  0
 10 37  1  0
 11 38  1  1
 13 39  1  0
 14 40  1  0
 16 41  1  0
 17 42  1  0
 19 43  1  0
 20 44  1  0
 22 45  1  0
 25 46  1  0
 26 47  1  0
M  END
>  <smiles>  (40) 
O=C(NCC(=O)N1CCCC1c1ccncc1)c1ccc2cc(Cl)ccc2n1

>  <score_type>  (40) 
oracle

>  <origin>  (40) 
autodockgpu

>  <m_score__min__energy>  (40) 
-8.25

>  <m_primary>  (40) 
energy

>  <rmsd>  (40) 
8.05227019130499

>  <m_score__min__rmsd>  (40) 
8.05227019130499

>  <meeko>  (40) 
{"free_energy": -8.13, "intermolecular_energy": -9.62, "internal_energy": -1.49, "cluster_size": 5, "cluster_id": 3, "rank_in_cluster": 2}

>  <energy>  (40) 
-7.16

>  <cluster_rmsd>  (40) 
1.61

>  <cluster>  (40) 
3

$$$$

     RDKit          3D

 47 50  0  0  0  0  0  0  0  0999 V2000
  141.5920   78.9770  217.6140 O   0  0  0  0  0  0  0  0  0  0  0  0
  142.1570   78.3620  218.5590 C   0  0  0  0  0  0  0  0  0  0  0  0
  142.1560   79.0500  219.8250 N   0  0  0  0  0  0  0  0  0  0  0  0
  141.5220   80.3320  219.8580 C   0  0  0  0  0  0  0  0  0  0  0  0
  140.7770   80.7350  221.0320 C   0  0  0  0  0  0  0  0  0  0  0  0
  139.5940   81.2240  220.7630 O   0  0  0  0  0  0  0  0  0  0  0  0
  141.0910   80.6960  222.3950 N   0  0  0  0  0  0  0  0  0  0  0  0
  141.8290   81.6510  223.2460 C   0  0  0  0  0  0  0  0  0  0  0  0
  142.8400   80.7200  223.8410 C   0  0  0  0  0  0  0  0  0  0  0  0
  142.1620   79.3760  223.9440 C   0  0  0  0  0  0  0  0  0  0  0  0
  140.7790   79.6320  223.3680 C   0  0  2  0  0  0  0  0  0  0  0  0
  140.2010   78.4180  222.8000 C   0  0  0  0  0  0  0  0  0  0  0  0
  141.0640   77.4060  222.3610 C   0  0  0  0  0  0  0  0  0  0  0  0
  140.5630   76.2520  221.7820 C   0  0  0  0  0  0  0  0  0  0  0  0
  139.2490   76.0590  221.6200 N   0  0  0  0  0  0  0  0  0  0  0  0
  138.3830   77.0050  222.0270 C   0  0  0  0  0  0  0  0  0  0  0  0
  138.8590   78.1750  222.6130 C   0  0  0  0  0  0  0  0  0  0  0  0
  142.7730   77.0620  218.4330 C   0  0  0  0  0  0  0  0  0  0  0  0
  143.0150   76.5580  217.1740 C   0  0  0  0  0  0  0  0  0  0  0  0
  143.6080   75.3090  217.1030 C   0  0  0  0  0  0  0  0  0  0  0  0
  143.9530   74.5720  218.2110 C   0  0  0  0  0  0  0  0  0  0  0  0
  144.5430   73.3260  218.1430 C   0  0  0  0  0  0  0  0  0  0  0  0
  144.8380   72.6940  219.3380 C   0  0  0  0  0  0  0  0  0  0  0  0
  145.5930   71.0990  219.2730 Cl  0  0  0  0  0  0  0  0  0  0  0  0
  144.5730   73.2430  220.5670 C   0  0  0  0  0  0  0  0  0  0  0  0
  143.9820   74.4900  220.6310 C   0  0  0  0  0  0  0  0  0  0  0  0
  143.6780   75.1420  219.4480 C   0  0  0  0  0  0  0  0  0  0  0  0
  143.0990   76.3630  219.5580 N   0  0  0  0  0  0  0  0  0  0  0  0
  142.6110   78.5810  220.6350 H   0  0  0  0  0  0  0  0  0  0  0  0
  142.3124   81.0824  219.7090 H   0  0  0  0  0  0  0  0  0  0  0  0
  140.7493   80.2551  219.0789 H   0  0  0  0  0  0  0  0  0  0  0  0
  142.3030   82.4475  222.6536 H   0  0  0  0  0  0  0  0  0  0  0  0
  141.2147   82.2025  223.9730 H   0  0  0  0  0  0  0  0  0  0  0  0
  143.7252   80.6522  223.1916 H   0  0  0  0  0  0  0  0  0  0  0  0
  143.1820   81.0739  224.8248 H   0  0  0  0  0  0  0  0  0  0  0  0
  142.6993   78.6183  223.3549 H   0  0  0  0  0  0  0  0  0  0  0  0
  142.1328   78.9883  224.9730 H   0  0  0  0  0  0  0  0  0  0  0  0
  140.0012   79.9310  224.0861 H   0  0  0  0  0  0  0  0  0  0  0  0
  142.1509   77.5291  222.4773 H   0  0  0  0  0  0  0  0  0  0  0  0
  141.2639   75.4735  221.4464 H   0  0  0  0  0  0  0  0  0  0  0  0
  137.3011   76.8544  221.8970 H   0  0  0  0  0  0  0  0  0  0  0  0
  138.1340   78.9352  222.9394 H   0  0  0  0  0  0  0  0  0  0  0  0
  142.7495   77.1216  216.2674 H   0  0  0  0  0  0  0  0  0  0  0  0
  143.8136   74.8846  216.1092 H   0  0  0  0  0  0  0  0  0  0  0  0
  144.7700   72.8536  217.1759 H   0  0  0  0  0  0  0  0  0  0  0  0
  144.8274   72.6982  221.4881 H   0  0  0  0  0  0  0  0  0  0  0  0
  143.7575   74.9555  221.6020 H   0  0  0  0  0  0  0  0  0  0  0  0
  1  2  2  0
  2  3  1  0
  3  4  1  0
  4  5  1  0
  5  6  2  0
  5  7  1  0
  7  8  1  0
  8  9  1  0
  9 10  1  0
 10 11  1  0
 11 12  1  0
 12 13  2  0
 13 14  1  0
 14 15  2  0
 15 16  1  0
 16 17  2  0
  2 18  1  0
 18 19  2  0
 19 20  1  0
 20 21  2  0
 21 22  1  0
 22 23  2  0
 23 24  1  0
 23 25  1  0
 25 26  2  0
 26 27  1  0
 27 28  2  0
 11  7  1  0
 17 12  1  0
 28 18  1  0
 27 21  1  0
  3 29  1  0
  4 30  1  0
  4 31  1  0
  8 32  1  0
  8 33  1  0
  9 34  1  0
  9 35  1  0
 10 36  1  0
 10 37  1  0
 11 38  1  1
 13 39  1  0
 14 40  1  0
 16 41  1  0
 17 42  1  0
 19 43  1  0
 20 44  1  0
 22 45  1  0
 25 46  1  0
 26 47  1  0
M  END
>  <smiles>  (41) 
O=C(NCC(=O)N1CCCC1c1ccncc1)c1ccc2cc(Cl)ccc2n1

>  <score_type>  (41) 
oracle

>  <origin>  (41) 
autodockgpu

>  <m_score__min__energy>  (41) 
-8.25

>  <m_primary>  (41) 
energy

>  <rmsd>  (41) 
8.4301730438009

>  <m_score__min__rmsd>  (41) 
8.4301730438009

>  <meeko>  (41) 
{"free_energy": -6.79, "intermolecular_energy": -8.28, "internal_energy": -2.13, "cluster_size": 6, "cluster_id": 6, "rank_in_cluster": 2}

>  <energy>  (41) 
-7.71

>  <cluster_rmsd>  (41) 
0.0

>  <cluster>  (41) 
4

$$$$

     RDKit          3D

 47 50  0  0  0  0  0  0  0  0999 V2000
  139.1990   73.6700  222.3440 O   0  0  0  0  0  0  0  0  0  0  0  0
  140.0470   72.7410  222.4270 C   0  0  0  0  0  0  0  0  0  0  0  0
  141.0500   72.7310  221.3940 N   0  0  0  0  0  0  0  0  0  0  0  0
  140.9660   73.7650  220.4080 C   0  0  0  0  0  0  0  0  0  0  0  0
  141.4430   75.0950  220.7190 C   0  0  0  0  0  0  0  0  0  0  0  0
  141.3120   75.4210  221.9790 O   0  0  0  0  0  0  0  0  0  0  0  0
  142.0140   76.0920  219.9200 N   0  0  0  0  0  0  0  0  0  0  0  0
  141.4770   77.3850  219.4520 C   0  0  0  0  0  0  0  0  0  0  0  0
  141.7190   77.2350  217.9810 C   0  0  0  0  0  0  0  0  0  0  0  0
  142.9630   76.3920  217.8460 C   0  0  0  0  0  0  0  0  0  0  0  0
  143.3470   76.0940  219.2870 C   0  0  2  0  0  0  0  0  0  0  0  0
  144.0910   74.8430  219.3960 C   0  0  0  0  0  0  0  0  0  0  0  0
  144.0410   73.9380  218.3280 C   0  0  0  0  0  0  0  0  0  0  0  0
  144.7000   72.7220  218.4000 C   0  0  0  0  0  0  0  0  0  0  0  0
  145.4040   72.3660  219.4820 N   0  0  0  0  0  0  0  0  0  0  0  0
  145.4790   73.2050  220.5310 C   0  0  0  0  0  0  0  0  0  0  0  0
  144.8250   74.4340  220.4850 C   0  0  0  0  0  0  0  0  0  0  0  0
  140.0570   71.7350  223.4640 C   0  0  0  0  0  0  0  0  0  0  0  0
  139.5730   70.4770  223.1780 C   0  0  0  0  0  0  0  0  0  0  0  0
  139.6030   69.5470  224.2010 C   0  0  0  0  0  0  0  0  0  0  0  0
  140.0830   69.8230  225.4600 C   0  0  0  0  0  0  0  0  0  0  0  0
  140.1120   68.8970  226.4830 C   0  0  0  0  0  0  0  0  0  0  0  0
  140.6220   69.3090  227.7020 C   0  0  0  0  0  0  0  0  0  0  0  0
  140.6690   68.1390  229.0240 Cl  0  0  0  0  0  0  0  0  0  0  0  0
  141.0910   70.5770  227.9330 C   0  0  0  0  0  0  0  0  0  0  0  0
  141.0590   71.5010  226.9070 C   0  0  0  0  0  0  0  0  0  0  0  0
  140.5530   71.1110  225.6780 C   0  0  0  0  0  0  0  0  0  0  0  0
  140.5410   72.0500  224.7000 N   0  0  0  0  0  0  0  0  0  0  0  0
  141.7720   71.9820  221.4210 H   0  0  0  0  0  0  0  0  0  0  0  0
  141.5362   73.4184  219.5335 H   0  0  0  0  0  0  0  0  0  0  0  0
  139.8829   73.9062  220.2779 H   0  0  0  0  0  0  0  0  0  0  0  0
  140.4069   77.4928  219.6830 H   0  0  0  0  0  0  0  0  0  0  0  0
  141.9305   78.2749  219.9129 H   0  0  0  0  0  0  0  0  0  0  0  0
  140.8645   76.7341  217.5026 H   0  0  0  0  0  0  0  0  0  0  0  0
  141.8407   78.2127  217.4918 H   0  0  0  0  0  0  0  0  0  0  0  0
  142.7511   75.4636  217.2954 H   0  0  0  0  0  0  0  0  0  0  0  0
  143.7635   76.8958  217.2844 H   0  0  0  0  0  0  0  0  0  0  0  0
  144.0395   76.8040  219.7628 H   0  0  0  0  0  0  0  0  0  0  0  0
  143.4722   74.1959  217.4225 H   0  0  0  0  0  0  0  0  0  0  0  0
  144.6436   72.0307  217.5462 H   0  0  0  0  0  0  0  0  0  0  0  0
  146.0558   72.9209  221.4235 H   0  0  0  0  0  0  0  0  0  0  0  0
  144.8984   75.1041  221.3542 H   0  0  0  0  0  0  0  0  0  0  0  0
  139.1808   70.2241  222.1819 H   0  0  0  0  0  0  0  0  0  0  0  0
  139.2236   68.5348  223.9974 H   0  0  0  0  0  0  0  0  0  0  0  0
  139.7440   67.8710  226.3352 H   0  0  0  0  0  0  0  0  0  0  0  0
  141.4869   70.8540  228.9212 H   0  0  0  0  0  0  0  0  0  0  0  0
  141.4278   72.5256  227.0626 H   0  0  0  0  0  0  0  0  0  0  0  0
  1  2  2  0
  2  3  1  0
  3  4  1  0
  4  5  1  0
  5  6  2  0
  5  7  1  0
  7  8  1  0
  8  9  1  0
  9 10  1  0
 10 11  1  0
 11 12  1  0
 12 13  2  0
 13 14  1  0
 14 15  2  0
 15 16  1  0
 16 17  2  0
  2 18  1  0
 18 19  2  0
 19 20  1  0
 20 21  2  0
 21 22  1  0
 22 23  2  0
 23 24  1  0
 23 25  1  0
 25 26  2  0
 26 27  1  0
 27 28  2  0
 11  7  1  0
 17 12  1  0
 28 18  1  0
 27 21  1  0
  3 29  1  0
  4 30  1  0
  4 31  1  0
  8 32  1  0
  8 33  1  0
  9 34  1  0
  9 35  1  0
 10 36  1  0
 10 37  1  0
 11 38  1  1
 13 39  1  0
 14 40  1  0
 16 41  1  0
 17 42  1  0
 19 43  1  0
 20 44  1  0
 22 45  1  0
 25 46  1  0
 26 47  1  0
M  END
>  <smiles>  (42) 
O=C(NCC(=O)N1CCCC1c1ccncc1)c1ccc2cc(Cl)ccc2n1

>  <score_type>  (42) 
oracle

>  <origin>  (42) 
autodockgpu

>  <m_score__min__energy>  (42) 
-8.25

>  <m_primary>  (42) 
energy

>  <rmsd>  (42) 
2.347467522229686

>  <m_score__min__rmsd>  (42) 
2.347467522229686

>  <meeko>  (42) 
{"free_energy": -8.06, "intermolecular_energy": -9.55, "internal_energy": -1.26, "cluster_size": 15, "cluster_id": 1, "rank_in_cluster": 4}

>  <energy>  (42) 
-7.33

>  <cluster_rmsd>  (42) 
1.5

>  <cluster>  (42) 
4

$$$$

     RDKit          3D

 47 50  0  0  0  0  0  0  0  0999 V2000
  140.1620   72.1570  220.7080 O   0  0  0  0  0  0  0  0  0  0  0  0
  139.9530   72.4590  221.9140 C   0  0  0  0  0  0  0  0  0  0  0  0
  139.6850   73.8530  222.1610 N   0  0  0  0  0  0  0  0  0  0  0  0
  139.6870   74.7180  221.0210 C   0  0  0  0  0  0  0  0  0  0  0  0
  140.3010   76.0260  221.1120 C   0  0  0  0  0  0  0  0  0  0  0  0
  140.7000   76.3380  222.3180 O   0  0  0  0  0  0  0  0  0  0  0  0
  140.5420   77.0120  220.1490 N   0  0  0  0  0  0  0  0  0  0  0  0
  140.9870   76.9080  218.7460 C   0  0  0  0  0  0  0  0  0  0  0  0
  142.1560   77.8430  218.7870 C   0  0  0  0  0  0  0  0  0  0  0  0
  141.8100   78.9000  219.8060 C   0  0  0  0  0  0  0  0  0  0  0  0
  140.4380   78.4760  220.3050 C   0  0  2  0  0  0  0  0  0  0  0  0
  140.1940   78.9430  221.6660 C   0  0  0  0  0  0  0  0  0  0  0  0
  138.8700   79.0390  222.1140 C   0  0  0  0  0  0  0  0  0  0  0  0
  138.5870   79.5120  223.3850 C   0  0  0  0  0  0  0  0  0  0  0  0
  139.5560   79.8920  224.2260 N   0  0  0  0  0  0  0  0  0  0  0  0
  140.8410   79.8160  223.8370 C   0  0  0  0  0  0  0  0  0  0  0  0
  141.1540   79.3450  222.5660 C   0  0  0  0  0  0  0  0  0  0  0  0
  139.9700   71.5140  223.0060 C   0  0  0  0  0  0  0  0  0  0  0  0
  139.4640   70.2490  222.8000 C   0  0  0  0  0  0  0  0  0  0  0  0
  139.5020   69.3770  223.8740 C   0  0  0  0  0  0  0  0  0  0  0  0
  140.0100   69.7170  225.1060 C   0  0  0  0  0  0  0  0  0  0  0  0
  140.0470   68.8500  226.1800 C   0  0  0  0  0  0  0  0  0  0  0  0
  140.5860   69.3230  227.3630 C   0  0  0  0  0  0  0  0  0  0  0  0
  140.6440   68.2290  228.7490 Cl  0  0  0  0  0  0  0  0  0  0  0  0
  141.0750   70.5950  227.5130 C   0  0  0  0  0  0  0  0  0  0  0  0
  141.0360   71.4600  226.4370 C   0  0  0  0  0  0  0  0  0  0  0  0
  140.5010   71.0090  225.2420 C   0  0  0  0  0  0  0  0  0  0  0  0
  140.4820   71.8910  224.2120 N   0  0  0  0  0  0  0  0  0  0  0  0
  139.5070   74.1490  223.1420 H   0  0  0  0  0  0  0  0  0  0  0  0
  140.2035   74.1791  220.2130 H   0  0  0  0  0  0  0  0  0  0  0  0
  138.6213   74.9461  220.8717 H   0  0  0  0  0  0  0  0  0  0  0  0
  141.2904   75.8829  218.4867 H   0  0  0  0  0  0  0  0  0  0  0  0
  140.2217   77.1483  217.9933 H   0  0  0  0  0  0  0  0  0  0  0  0
  143.0657   77.3039  219.0899 H   0  0  0  0  0  0  0  0  0  0  0  0
  142.3517   78.2856  217.7992 H   0  0  0  0  0  0  0  0  0  0  0  0
  142.5417   78.9089  220.6273 H   0  0  0  0  0  0  0  0  0  0  0  0
  141.8183   79.9174  219.3878 H   0  0  0  0  0  0  0  0  0  0  0  0
  139.5740   78.8974  219.7703 H   0  0  0  0  0  0  0  0  0  0  0  0
  138.0471   78.7358  221.4500 H   0  0  0  0  0  0  0  0  0  0  0  0
  137.5385   79.5769  223.7113 H   0  0  0  0  0  0  0  0  0  0  0  0
  141.6434   80.1258  224.5227 H   0  0  0  0  0  0  0  0  0  0  0  0
  142.2117   79.2918  222.2685 H   0  0  0  0  0  0  0  0  0  0  0  0
  139.0492   69.9463  221.8272 H   0  0  0  0  0  0  0  0  0  0  0  0
  139.1058   68.3603  223.7352 H   0  0  0  0  0  0  0  0  0  0  0  0
  139.6626   67.8226  226.0981 H   0  0  0  0  0  0  0  0  0  0  0  0
  141.4925   70.9220  228.4767 H   0  0  0  0  0  0  0  0  0  0  0  0
  141.4220   72.4861  226.5274 H   0  0  0  0  0  0  0  0  0  0  0  0
  1  2  2  0
  2  3  1  0
  3  4  1  0
  4  5  1  0
  5  6  2  0
  5  7  1  0
  7  8  1  0
  8  9  1  0
  9 10  1  0
 10 11  1  0
 11 12  1  0
 12 13  2  0
 13 14  1  0
 14 15  2  0
 15 16  1  0
 16 17  2  0
  2 18  1  0
 18 19  2  0
 19 20  1  0
 20 21  2  0
 21 22  1  0
 22 23  2  0
 23 24  1  0
 23 25  1  0
 25 26  2  0
 26 27  1  0
 27 28  2  0
 11  7  1  0
 17 12  1  0
 28 18  1  0
 27 21  1  0
  3 29  1  0
  4 30  1  0
  4 31  1  0
  8 32  1  0
  8 33  1  0
  9 34  1  0
  9 35  1  0
 10 36  1  0
 10 37  1  0
 11 38  1  6
 13 39  1  0
 14 40  1  0
 16 41  1  0
 17 42  1  0
 19 43  1  0
 20 44  1  0
 22 45  1  0
 25 46  1  0
 26 47  1  0
M  END
>  <smiles>  (43) 
O=C(NCC(=O)N1CCCC1c1ccncc1)c1ccc2cc(Cl)ccc2n1

>  <score_type>  (43) 
oracle

>  <origin>  (43) 
autodockgpu

>  <m_score__min__energy>  (43) 
-8.25

>  <m_primary>  (43) 
energy

>  <rmsd>  (43) 
1.9167786197113235

>  <m_score__min__rmsd>  (43) 
1.9167786197113235

>  <meeko>  (43) 
{"free_energy": -7.71, "intermolecular_energy": -9.2, "internal_energy": -1.36, "cluster_size": 20, "cluster_id": 2, "rank_in_cluster": 19}

>  <energy>  (43) 
-7.24

>  <cluster_rmsd>  (43) 
1.51

>  <cluster>  (43) 
4

$$$$

     RDKit          3D

 47 50  0  0  0  0  0  0  0  0999 V2000
  140.8410   72.5990  221.2700 O   0  0  0  0  0  0  0  0  0  0  0  0
  140.0420   72.6020  222.2450 C   0  0  0  0  0  0  0  0  0  0  0  0
  139.0790   73.6730  222.2460 N   0  0  0  0  0  0  0  0  0  0  0  0
  139.1430   74.5950  221.1540 C   0  0  0  0  0  0  0  0  0  0  0  0
  140.2670   75.5000  221.0420 C   0  0  0  0  0  0  0  0  0  0  0  0
  141.1020   75.4310  222.0450 O   0  0  0  0  0  0  0  0  0  0  0  0
  140.6190   76.4320  220.0580 N   0  0  0  0  0  0  0  0  0  0  0  0
  140.9230   76.2590  218.6240 C   0  0  0  0  0  0  0  0  0  0  0  0
  142.2520   76.9480  218.5690 C   0  0  0  0  0  0  0  0  0  0  0  0
  142.2010   78.0400  219.6090 C   0  0  0  0  0  0  0  0  0  0  0  0
  140.8160   77.8850  220.2170 C   0  0  2  0  0  0  0  0  0  0  0  0
  140.7760   78.3750  221.5910 C   0  0  0  0  0  0  0  0  0  0  0  0
  139.5290   78.6430  222.1710 C   0  0  0  0  0  0  0  0  0  0  0  0
  139.4430   79.1440  223.4600 C   0  0  0  0  0  0  0  0  0  0  0  0
  140.5340   79.3890  224.1940 N   0  0  0  0  0  0  0  0  0  0  0  0
  141.7520   79.1460  223.6770 C   0  0  0  0  0  0  0  0  0  0  0  0
  141.8680   78.6420  222.3840 C   0  0  0  0  0  0  0  0  0  0  0  0
  140.0500   71.6240  223.3080 C   0  0  0  0  0  0  0  0  0  0  0  0
  139.5490   70.3650  223.0600 C   0  0  0  0  0  0  0  0  0  0  0  0
  139.5770   69.4620  224.1080 C   0  0  0  0  0  0  0  0  0  0  0  0
  140.0720   69.7660  225.3550 C   0  0  0  0  0  0  0  0  0  0  0  0
  140.1010   68.8680  226.4020 C   0  0  0  0  0  0  0  0  0  0  0  0
  140.6260   69.3060  227.6050 C   0  0  0  0  0  0  0  0  0  0  0  0
  140.6720   68.1720  228.9580 Cl  0  0  0  0  0  0  0  0  0  0  0  0
  141.1110   70.5750  227.7980 C   0  0  0  0  0  0  0  0  0  0  0  0
  141.0800   71.4710  226.7470 C   0  0  0  0  0  0  0  0  0  0  0  0
  140.5590   71.0540  225.5330 C   0  0  0  0  0  0  0  0  0  0  0  0
  140.5490   71.9670  224.5300 N   0  0  0  0  0  0  0  0  0  0  0  0
  138.3990   73.7170  223.0320 H   0  0  0  0  0  0  0  0  0  0  0  0
  139.1220   73.9973  220.2308 H   0  0  0  0  0  0  0  0  0  0  0  0
  138.2916   75.2670  221.3372 H   0  0  0  0  0  0  0  0  0  0  0  0
  140.9991   75.1975  218.3457 H   0  0  0  0  0  0  0  0  0  0  0  0
  140.1626   76.6520  217.9331 H   0  0  0  0  0  0  0  0  0  0  0  0
  143.0598   76.2381  218.8002 H   0  0  0  0  0  0  0  0  0  0  0  0
  142.4517   77.3563  217.5673 H   0  0  0  0  0  0  0  0  0  0  0  0
  142.9828   77.8960  220.3693 H   0  0  0  0  0  0  0  0  0  0  0  0
  142.3752   79.0414  219.1884 H   0  0  0  0  0  0  0  0  0  0  0  0
  140.0111   78.4726  219.7513 H   0  0  0  0  0  0  0  0  0  0  0  0
  138.6095   78.4539  221.5976 H   0  0  0  0  0  0  0  0  0  0  0  0
  138.4513   79.3456  223.8911 H   0  0  0  0  0  0  0  0  0  0  0  0
  142.6541   79.3449  224.2742 H   0  0  0  0  0  0  0  0  0  0  0  0
  142.8731   78.4497  221.9806 H   0  0  0  0  0  0  0  0  0  0  0  0
  139.1453   70.0902  222.0743 H   0  0  0  0  0  0  0  0  0  0  0  0
  139.1834   68.4495  223.9352 H   0  0  0  0  0  0  0  0  0  0  0  0
  139.7210   67.8424  226.2848 H   0  0  0  0  0  0  0  0  0  0  0  0
  141.5184   70.8744  228.7750 H   0  0  0  0  0  0  0  0  0  0  0  0
  141.4614   72.4952  226.8716 H   0  0  0  0  0  0  0  0  0  0  0  0
  1  2  2  0
  2  3  1  0
  3  4  1  0
  4  5  1  0
  5  6  2  0
  5  7  1  0
  7  8  1  0
  8  9  1  0
  9 10  1  0
 10 11  1  0
 11 12  1  0
 12 13  2  0
 13 14  1  0
 14 15  2  0
 15 16  1  0
 16 17  2  0
  2 18  1  0
 18 19  2  0
 19 20  1  0
 20 21  2  0
 21 22  1  0
 22 23  2  0
 23 24  1  0
 23 25  1  0
 25 26  2  0
 26 27  1  0
 27 28  2  0
 11  7  1  0
 17 12  1  0
 28 18  1  0
 27 21  1  0
  3 29  1  0
  4 30  1  0
  4 31  1  0
  8 32  1  0
  8 33  1  0
  9 34  1  0
  9 35  1  0
 10 36  1  0
 10 37  1  0
 11 38  1  6
 13 39  1  0
 14 40  1  0
 16 41  1  0
 17 42  1  0
 19 43  1  0
 20 44  1  0
 22 45  1  0
 25 46  1  0
 26 47  1  0
M  END
>  <smiles>  (44) 
O=C(NCC(=O)N1CCCC1c1ccncc1)c1ccc2cc(Cl)ccc2n1

>  <score_type>  (44) 
oracle

>  <origin>  (44) 
autodockgpu

>  <m_score__min__energy>  (44) 
-8.25

>  <m_primary>  (44) 
energy

>  <rmsd>  (44) 
1.6646696282657971

>  <m_score__min__rmsd>  (44) 
1.6646696282657971

>  <meeko>  (44) 
{"free_energy": -8.16, "intermolecular_energy": -9.65, "internal_energy": -1.25, "cluster_size": 20, "cluster_id": 2, "rank_in_cluster": 2}

>  <energy>  (44) 
-7.27

>  <cluster_rmsd>  (44) 
0.0

>  <cluster>  (44) 
5

$$$$

     RDKit          3D

 47 50  0  0  0  0  0  0  0  0999 V2000
  140.5760   72.4700  220.9320 O   0  0  0  0  0  0  0  0  0  0  0  0
  139.9830   72.6060  222.0360 C   0  0  0  0  0  0  0  0  0  0  0  0
  139.2520   73.8370  222.1920 N   0  0  0  0  0  0  0  0  0  0  0  0
  139.2860   74.7480  221.0880 C   0  0  0  0  0  0  0  0  0  0  0  0
  140.4110   75.6450  220.9310 C   0  0  0  0  0  0  0  0  0  0  0  0
  141.3100   75.5350  221.8740 O   0  0  0  0  0  0  0  0  0  0  0  0
  140.7100   76.6040  219.9560 N   0  0  0  0  0  0  0  0  0  0  0  0
  141.0510   76.4600  218.5280 C   0  0  0  0  0  0  0  0  0  0  0  0
  142.3250   77.2470  218.4980 C   0  0  0  0  0  0  0  0  0  0  0  0
  142.1730   78.3290  219.5380 C   0  0  0  0  0  0  0  0  0  0  0  0
  140.7930   78.0680  220.1210 C   0  0  2  0  0  0  0  0  0  0  0  0
  140.6920   78.5480  221.4960 C   0  0  0  0  0  0  0  0  0  0  0  0
  141.8690   78.7100  222.2380 C   0  0  0  0  0  0  0  0  0  0  0  0
  141.8200   79.1280  223.5570 C   0  0  0  0  0  0  0  0  0  0  0  0
  140.6600   79.3900  224.1700 N   0  0  0  0  0  0  0  0  0  0  0  0
  139.5050   79.2470  223.4960 C   0  0  0  0  0  0  0  0  0  0  0  0
  139.5240   78.8280  222.1680 C   0  0  0  0  0  0  0  0  0  0  0  0
  140.0020   71.6280  223.0990 C   0  0  0  0  0  0  0  0  0  0  0  0
  139.5160   70.3630  222.8500 C   0  0  0  0  0  0  0  0  0  0  0  0
  139.5550   69.4600  223.8970 C   0  0  0  0  0  0  0  0  0  0  0  0
  140.0480   69.7690  225.1430 C   0  0  0  0  0  0  0  0  0  0  0  0
  140.0870   68.8700  226.1900 C   0  0  0  0  0  0  0  0  0  0  0  0
  140.6090   69.3140  227.3930 C   0  0  0  0  0  0  0  0  0  0  0  0
  140.6690   68.1780  228.7450 Cl  0  0  0  0  0  0  0  0  0  0  0  0
  141.0800   70.5870  227.5860 C   0  0  0  0  0  0  0  0  0  0  0  0
  141.0380   71.4840  226.5360 C   0  0  0  0  0  0  0  0  0  0  0  0
  140.5200   71.0620  225.3230 C   0  0  0  0  0  0  0  0  0  0  0  0
  140.4990   71.9750  224.3200 N   0  0  0  0  0  0  0  0  0  0  0  0
  138.7460   73.9950  223.0880 H   0  0  0  0  0  0  0  0  0  0  0  0
  139.2322   74.1410  220.1722 H   0  0  0  0  0  0  0  0  0  0  0  0
  138.4445   75.4268  221.2909 H   0  0  0  0  0  0  0  0  0  0  0  0
  141.2116   75.4083  218.2484 H   0  0  0  0  0  0  0  0  0  0  0  0
  140.2753   76.7975  217.8249 H   0  0  0  0  0  0  0  0  0  0  0  0
  143.1797   76.5993  218.7431 H   0  0  0  0  0  0  0  0  0  0  0  0
  142.5116   77.6717  217.5006 H   0  0  0  0  0  0  0  0  0  0  0  0
  142.9498   78.2426  220.3120 H   0  0  0  0  0  0  0  0  0  0  0  0
  142.2783   79.3418  219.1218 H   0  0  0  0  0  0  0  0  0  0  0  0
  139.9546   78.5951  219.6422 H   0  0  0  0  0  0  0  0  0  0  0  0
  142.8418   78.5031  221.7681 H   0  0  0  0  0  0  0  0  0  0  0  0
  142.7599   79.2479  224.1159 H   0  0  0  0  0  0  0  0  0  0  0  0
  138.5471   79.4606  223.9927 H   0  0  0  0  0  0  0  0  0  0  0  0
  138.5681   78.7165  221.6353 H   0  0  0  0  0  0  0  0  0  0  0  0
  139.1155   70.0841  221.8642 H   0  0  0  0  0  0  0  0  0  0  0  0
  139.1723   68.4433  223.7242 H   0  0  0  0  0  0  0  0  0  0  0  0
  139.7176   67.8405  226.0729 H   0  0  0  0  0  0  0  0  0  0  0  0
  141.4855   70.8898  228.5627 H   0  0  0  0  0  0  0  0  0  0  0  0
  141.4084   72.5122  226.6610 H   0  0  0  0  0  0  0  0  0  0  0  0
  1  2  2  0
  2  3  1  0
  3  4  1  0
  4  5  1  0
  5  6  2  0
  5  7  1  0
  7  8  1  0
  8  9  1  0
  9 10  1  0
 10 11  1  0
 11 12  1  0
 12 13  2  0
 13 14  1  0
 14 15  2  0
 15 16  1  0
 16 17  2  0
  2 18  1  0
 18 19  2  0
 19 20  1  0
 20 21  2  0
 21 22  1  0
 22 23  2  0
 23 24  1  0
 23 25  1  0
 25 26  2  0
 26 27  1  0
 27 28  2  0
 11  7  1  0
 17 12  1  0
 28 18  1  0
 27 21  1  0
  3 29  1  0
  4 30  1  0
  4 31  1  0
  8 32  1  0
  8 33  1  0
  9 34  1  0
  9 35  1  0
 10 36  1  0
 10 37  1  0
 11 38  1  6
 13 39  1  0
 14 40  1  0
 16 41  1  0
 17 42  1  0
 19 43  1  0
 20 44  1  0
 22 45  1  0
 25 46  1  0
 26 47  1  0
M  END
>  <smiles>  (45) 
O=C(NCC(=O)N1CCCC1c1ccncc1)c1ccc2cc(Cl)ccc2n1

>  <score_type>  (45) 
oracle

>  <origin>  (45) 
autodockgpu

>  <m_score__min__energy>  (45) 
-8.25

>  <m_primary>  (45) 
energy

>  <rmsd>  (45) 
1.75000974163843

>  <m_score__min__rmsd>  (45) 
1.75000974163843

>  <meeko>  (45) 
{"free_energy": -8.07, "intermolecular_energy": -9.56, "internal_energy": -1.33, "cluster_size": 20, "cluster_id": 2, "rank_in_cluster": 7}

>  <energy>  (45) 
-6.82

>  <cluster_rmsd>  (45) 
0.0

>  <cluster>  (45) 
6

$$$$

     RDKit          3D

 47 50  0  0  0  0  0  0  0  0999 V2000
  139.4420   71.9490  220.6290 O   0  0  0  0  0  0  0  0  0  0  0  0
  139.1250   72.2200  221.8180 C   0  0  0  0  0  0  0  0  0  0  0  0
  138.4850   73.4960  222.0070 N   0  0  0  0  0  0  0  0  0  0  0  0
  138.2890   74.2950  220.8360 C   0  0  0  0  0  0  0  0  0  0  0  0
  138.2700   75.7390  220.9460 C   0  0  0  0  0  0  0  0  0  0  0  0
  137.7130   76.3380  219.9260 O   0  0  0  0  0  0  0  0  0  0  0  0
  138.7380   76.6050  221.9410 N   0  0  0  0  0  0  0  0  0  0  0  0
  138.0140   77.4930  222.8710 C   0  0  0  0  0  0  0  0  0  0  0  0
  138.7250   78.7800  222.5860 C   0  0  0  0  0  0  0  0  0  0  0  0
  140.1410   78.4050  222.2250 C   0  0  0  0  0  0  0  0  0  0  0  0
  140.1380   76.8870  222.3110 C   0  0  2  0  0  0  0  0  0  0  0  0
  141.1460   76.2980  221.4360 C   0  0  0  0  0  0  0  0  0  0  0  0
  141.4560   74.9400  221.5890 C   0  0  0  0  0  0  0  0  0  0  0  0
  142.4320   74.3460  220.8070 C   0  0  0  0  0  0  0  0  0  0  0  0
  143.1110   75.0360  219.8830 N   0  0  0  0  0  0  0  0  0  0  0  0
  142.8460   76.3430  219.7020 C   0  0  0  0  0  0  0  0  0  0  0  0
  141.8700   76.9660  220.4750 C   0  0  0  0  0  0  0  0  0  0  0  0
  139.3610   71.3470  222.9450 C   0  0  0  0  0  0  0  0  0  0  0  0
  138.9690   70.0290  222.8610 C   0  0  0  0  0  0  0  0  0  0  0  0
  139.2170   69.2300  223.9640 C   0  0  0  0  0  0  0  0  0  0  0  0
  139.8220   69.6910  225.1090 C   0  0  0  0  0  0  0  0  0  0  0  0
  140.0700   68.8970  226.2120 C   0  0  0  0  0  0  0  0  0  0  0  0
  140.6860   69.4900  227.2990 C   0  0  0  0  0  0  0  0  0  0  0  0
  141.0120   68.4920  228.7190 Cl  0  0  0  0  0  0  0  0  0  0  0  0
  141.0550   70.8110  227.3290 C   0  0  0  0  0  0  0  0  0  0  0  0
  140.8060   71.6020  226.2250 C   0  0  0  0  0  0  0  0  0  0  0  0
  140.1900   71.0300  225.1240 C   0  0  0  0  0  0  0  0  0  0  0  0
  139.9640   71.8440  224.0630 N   0  0  0  0  0  0  0  0  0  0  0  0
  138.2050   73.7640  222.9730 H   0  0  0  0  0  0  0  0  0  0  0  0
  139.0985   74.0393  220.1365 H   0  0  0  0  0  0  0  0  0  0  0  0
  137.2623   74.0487  220.5275 H   0  0  0  0  0  0  0  0  0  0  0  0
  136.9424   77.5539  222.6301 H   0  0  0  0  0  0  0  0  0  0  0  0
  138.0229   77.1759  223.9243 H   0  0  0  0  0  0  0  0  0  0  0  0
  138.2435   79.3045  221.7476 H   0  0  0  0  0  0  0  0  0  0  0  0
  138.6971   79.4552  223.4540 H   0  0  0  0  0  0  0  0  0  0  0  0
  140.3896   78.7408  221.2075 H   0  0  0  0  0  0  0  0  0  0  0  0
  140.8891   78.8704  222.8837 H   0  0  0  0  0  0  0  0  0  0  0  0
  140.4128   76.4541  223.2842 H   0  0  0  0  0  0  0  0  0  0  0  0
  140.9185   74.3399  222.3380 H   0  0  0  0  0  0  0  0  0  0  0  0
  142.6553   73.2783  220.9490 H   0  0  0  0  0  0  0  0  0  0  0  0
  143.3994   76.9179  218.9448 H   0  0  0  0  0  0  0  0  0  0  0  0
  141.6695   78.0351  220.3111 H   0  0  0  0  0  0  0  0  0  0  0  0
  138.4815   69.6300  221.9593 H   0  0  0  0  0  0  0  0  0  0  0  0
  138.9147   68.1732  223.9221 H   0  0  0  0  0  0  0  0  0  0  0  0
  139.7883   67.8338  226.2252 H   0  0  0  0  0  0  0  0  0  0  0  0
  141.5423   71.2340  228.2199 H   0  0  0  0  0  0  0  0  0  0  0  0
  141.0909   72.6644  226.2199 H   0  0  0  0  0  0  0  0  0  0  0  0
  1  2  2  0
  2  3  1  0
  3  4  1  0
  4  5  1  0
  5  6  2  0
  5  7  1  0
  7  8  1  0
  8  9  1  0
  9 10  1  0
 10 11  1  0
 11 12  1  0
 12 13  2  0
 13 14  1  0
 14 15  2  0
 15 16  1  0
 16 17  2  0
  2 18  1  0
 18 19  2  0
 19 20  1  0
 20 21  2  0
 21 22  1  0
 22 23  2  0
 23 24  1  0
 23 25  1  0
 25 26  2  0
 26 27  1  0
 27 28  2  0
 11  7  1  0
 17 12  1  0
 28 18  1  0
 27 21  1  0
  3 29  1  0
  4 30  1  0
  4 31  1  0
  8 32  1  0
  8 33  1  0
  9 34  1  0
  9 35  1  0
 10 36  1  0
 10 37  1  0
 11 38  1  1
 13 39  1  0
 14 40  1  0
 16 41  1  0
 17 42  1  0
 19 43  1  0
 20 44  1  0
 22 45  1  0
 25 46  1  0
 26 47  1  0
M  END
>  <smiles>  (46) 
O=C(NCC(=O)N1CCCC1c1ccncc1)c1ccc2cc(Cl)ccc2n1

>  <score_type>  (46) 
oracle

>  <origin>  (46) 
autodockgpu

>  <m_score__min__energy>  (46) 
-8.25

>  <m_primary>  (46) 
energy

>  <rmsd>  (46) 
2.7957519608349375

>  <m_score__min__rmsd>  (46) 
2.7957519608349375

>  <meeko>  (46) 
{"free_energy": -7.33, "intermolecular_energy": -8.82, "internal_energy": -1.61, "cluster_size": 3, "cluster_id": 4, "rank_in_cluster": 2}

>  <energy>  (46) 
-6.79

>  <cluster_rmsd>  (46) 
0.07

>  <cluster>  (46) 
6

$$$$

     RDKit          3D

 47 50  0  0  0  0  0  0  0  0999 V2000
  140.7860   72.4240  221.1930 O   0  0  0  0  0  0  0  0  0  0  0  0
  140.0370   72.4810  222.2060 C   0  0  0  0  0  0  0  0  0  0  0  0
  139.1320   73.6010  222.2370 N   0  0  0  0  0  0  0  0  0  0  0  0
  139.1900   74.5050  221.1290 C   0  0  0  0  0  0  0  0  0  0  0  0
  140.2150   75.5260  221.0870 C   0  0  0  0  0  0  0  0  0  0  0  0
  140.9070   75.6240  222.1920 O   0  0  0  0  0  0  0  0  0  0  0  0
  140.5970   76.4240  220.0830 N   0  0  0  0  0  0  0  0  0  0  0  0
  140.9670   76.1990  218.6720 C   0  0  0  0  0  0  0  0  0  0  0  0
  142.2870   76.9070  218.6480 C   0  0  0  0  0  0  0  0  0  0  0  0
  142.1720   78.0390  219.6380 C   0  0  0  0  0  0  0  0  0  0  0  0
  140.7650   77.8850  220.1910 C   0  0  2  0  0  0  0  0  0  0  0  0
  140.6560   78.4290  221.5410 C   0  0  0  0  0  0  0  0  0  0  0  0
  141.8310   78.6580  222.2680 C   0  0  0  0  0  0  0  0  0  0  0  0
  141.7770   79.1370  223.5660 C   0  0  0  0  0  0  0  0  0  0  0  0
  140.6120   79.3980  224.1720 N   0  0  0  0  0  0  0  0  0  0  0  0
  139.4590   79.1930  223.5110 C   0  0  0  0  0  0  0  0  0  0  0  0
  139.4840   78.7110  222.2050 C   0  0  0  0  0  0  0  0  0  0  0  0
  140.0460   71.5180  223.2820 C   0  0  0  0  0  0  0  0  0  0  0  0
  139.5470   70.2550  223.0510 C   0  0  0  0  0  0  0  0  0  0  0  0
  139.5760   69.3660  224.1110 C   0  0  0  0  0  0  0  0  0  0  0  0
  140.0700   69.6870  225.3530 C   0  0  0  0  0  0  0  0  0  0  0  0
  140.1000   68.8030  226.4130 C   0  0  0  0  0  0  0  0  0  0  0  0
  140.6250   69.2590  227.6090 C   0  0  0  0  0  0  0  0  0  0  0  0
  140.6720   68.1420  228.9780 Cl  0  0  0  0  0  0  0  0  0  0  0  0
  141.1090   70.5300  227.7850 C   0  0  0  0  0  0  0  0  0  0  0  0
  141.0770   71.4120  226.7230 C   0  0  0  0  0  0  0  0  0  0  0  0
  140.5560   70.9780  225.5150 C   0  0  0  0  0  0  0  0  0  0  0  0
  140.5450   71.8770  224.5000 N   0  0  0  0  0  0  0  0  0  0  0  0
  138.4940   73.6910  223.0550 H   0  0  0  0  0  0  0  0  0  0  0  0
  139.3136   73.8921  220.2239 H   0  0  0  0  0  0  0  0  0  0  0  0
  138.2583   75.0824  221.2217 H   0  0  0  0  0  0  0  0  0  0  0  0
  141.0709   75.1287  218.4405 H   0  0  0  0  0  0  0  0  0  0  0  0
  140.2325   76.5516  217.9329 H   0  0  0  0  0  0  0  0  0  0  0  0
  143.0938   76.2207  218.9447 H   0  0  0  0  0  0  0  0  0  0  0  0
  142.5265   77.2770  217.6402 H   0  0  0  0  0  0  0  0  0  0  0  0
  142.9215   77.9402  220.4370 H   0  0  0  0  0  0  0  0  0  0  0  0
  142.3482   79.0251  219.1836 H   0  0  0  0  0  0  0  0  0  0  0  0
  139.9730   78.4401  219.6670 H   0  0  0  0  0  0  0  0  0  0  0  0
  142.8070   78.4552  221.8029 H   0  0  0  0  0  0  0  0  0  0  0  0
  142.7157   79.3075  224.1135 H   0  0  0  0  0  0  0  0  0  0  0  0
  138.4976   79.4058  224.0013 H   0  0  0  0  0  0  0  0  0  0  0  0
  138.5292   78.5492  221.6833 H   0  0  0  0  0  0  0  0  0  0  0  0
  139.1440   69.9664  222.0690 H   0  0  0  0  0  0  0  0  0  0  0  0
  139.1838   68.3507  223.9517 H   0  0  0  0  0  0  0  0  0  0  0  0
  139.7210   67.7754  226.3106 H   0  0  0  0  0  0  0  0  0  0  0  0
  141.5167   70.8423  228.7578 H   0  0  0  0  0  0  0  0  0  0  0  0
  141.4574   72.4382  226.8340 H   0  0  0  0  0  0  0  0  0  0  0  0
  1  2  2  0
  2  3  1  0
  3  4  1  0
  4  5  1  0
  5  6  2  0
  5  7  1  0
  7  8  1  0
  8  9  1  0
  9 10  1  0
 10 11  1  0
 11 12  1  0
 12 13  2  0
 13 14  1  0
 14 15  2  0
 15 16  1  0
 16 17  2  0
  2 18  1  0
 18 19  2  0
 19 20  1  0
 20 21  2  0
 21 22  1  0
 22 23  2  0
 23 24  1  0
 23 25  1  0
 25 26  2  0
 26 27  1  0
 27 28  2  0
 11  7  1  0
 17 12  1  0
 28 18  1  0
 27 21  1  0
  3 29  1  0
  4 30  1  0
  4 31  1  0
  8 32  1  0
  8 33  1  0
  9 34  1  0
  9 35  1  0
 10 36  1  0
 10 37  1  0
 11 38  1  6
 13 39  1  0
 14 40  1  0
 16 41  1  0
 17 42  1  0
 19 43  1  0
 20 44  1  0
 22 45  1  0
 25 46  1  0
 26 47  1  0
M  END
>  <smiles>  (47) 
O=C(NCC(=O)N1CCCC1c1ccncc1)c1ccc2cc(Cl)ccc2n1

>  <score_type>  (47) 
oracle

>  <origin>  (47) 
autodockgpu

>  <m_score__min__energy>  (47) 
-8.25

>  <m_primary>  (47) 
energy

>  <rmsd>  (47) 
1.6430383118328449

>  <m_score__min__rmsd>  (47) 
1.6430383118328449

>  <meeko>  (47) 
{"free_energy": -8.16, "intermolecular_energy": -9.65, "internal_energy": -1.27, "cluster_size": 20, "cluster_id": 2, "rank_in_cluster": 3}

>  <energy>  (47) 
-6.78

>  <cluster_rmsd>  (47) 
0.07

>  <cluster>  (47) 
6

$$$$

     RDKit          3D

 47 50  0  0  0  0  0  0  0  0999 V2000
  140.4290   72.3950  220.7050 O   0  0  0  0  0  0  0  0  0  0  0  0
  140.1350   72.6850  221.8970 C   0  0  0  0  0  0  0  0  0  0  0  0
  139.8220   74.0710  222.1320 N   0  0  0  0  0  0  0  0  0  0  0  0
  139.8810   74.9440  220.9990 C   0  0  0  0  0  0  0  0  0  0  0  0
  140.9810   75.8740  220.8660 C   0  0  0  0  0  0  0  0  0  0  0  0
  141.4150   76.3450  222.0060 O   0  0  0  0  0  0  0  0  0  0  0  0
  141.6610   76.3600  219.7430 N   0  0  0  0  0  0  0  0  0  0  0  0
  141.2850   77.3890  218.7530 C   0  0  0  0  0  0  0  0  0  0  0  0
  141.4790   76.6020  217.4930 C   0  0  0  0  0  0  0  0  0  0  0  0
  142.6020   75.6350  217.7740 C   0  0  0  0  0  0  0  0  0  0  0  0
  142.9710   75.9290  219.2190 C   0  0  2  0  0  0  0  0  0  0  0  0
  143.5500   74.7600  219.8730 C   0  0  0  0  0  0  0  0  0  0  0  0
  144.8100   74.8830  220.4730 C   0  0  0  0  0  0  0  0  0  0  0  0
  145.4160   73.7920  221.0740 C   0  0  0  0  0  0  0  0  0  0  0  0
  144.8300   72.5900  221.1050 N   0  0  0  0  0  0  0  0  0  0  0  0
  143.6190   72.4260  220.5410 C   0  0  0  0  0  0  0  0  0  0  0  0
  142.9870   73.5050  219.9300 C   0  0  0  0  0  0  0  0  0  0  0  0
  140.0990   71.7330  222.9820 C   0  0  0  0  0  0  0  0  0  0  0  0
  139.5640   70.4830  222.7560 C   0  0  0  0  0  0  0  0  0  0  0  0
  139.5510   69.6050  223.8250 C   0  0  0  0  0  0  0  0  0  0  0  0
  140.0380   69.9240  225.0710 C   0  0  0  0  0  0  0  0  0  0  0  0
  140.0250   69.0490  226.1400 C   0  0  0  0  0  0  0  0  0  0  0  0
  140.5480   69.5000  227.3390 C   0  0  0  0  0  0  0  0  0  0  0  0
  140.5420   68.3970  228.7180 Cl  0  0  0  0  0  0  0  0  0  0  0  0
  141.0680   70.7580  227.5090 C   0  0  0  0  0  0  0  0  0  0  0  0
  141.0790   71.6290  226.4380 C   0  0  0  0  0  0  0  0  0  0  0  0
  140.5610   71.2000  225.2270 C   0  0  0  0  0  0  0  0  0  0  0  0
  140.5920   72.0890  224.2030 N   0  0  0  0  0  0  0  0  0  0  0  0
  139.5730   74.3570  223.1010 H   0  0  0  0  0  0  0  0  0  0  0  0
  139.8943   74.3044  220.1041 H   0  0  0  0  0  0  0  0  0  0  0  0
  139.0077   75.5988  221.1351 H   0  0  0  0  0  0  0  0  0  0  0  0
  140.2419   77.7155  218.8764 H   0  0  0  0  0  0  0  0  0  0  0  0
  141.8568   78.3268  218.8121 H   0  0  0  0  0  0  0  0  0  0  0  0
  140.5590   76.0554  217.2385 H   0  0  0  0  0  0  0  0  0  0  0  0
  141.7158   77.2572  216.6417 H   0  0  0  0  0  0  0  0  0  0  0  0
  142.2632   74.5949  217.6586 H   0  0  0  0  0  0  0  0  0  0  0  0
  143.4502   75.7514  217.0833 H   0  0  0  0  0  0  0  0  0  0  0  0
  143.7575   76.6817  219.3768 H   0  0  0  0  0  0  0  0  0  0  0  0
  145.3233   75.8559  220.4668 H   0  0  0  0  0  0  0  0  0  0  0  0
  146.4054   73.9174  221.5381 H   0  0  0  0  0  0  0  0  0  0  0  0
  143.1297   71.4411  220.5629 H   0  0  0  0  0  0  0  0  0  0  0  0
  141.9981   73.3488  219.4744 H   0  0  0  0  0  0  0  0  0  0  0  0
  139.1658   70.1968  221.7713 H   0  0  0  0  0  0  0  0  0  0  0  0
  139.1297   68.6007  223.6706 H   0  0  0  0  0  0  0  0  0  0  0  0
  139.6147   68.0331  226.0418 H   0  0  0  0  0  0  0  0  0  0  0  0
  141.4704   71.0683  228.4846 H   0  0  0  0  0  0  0  0  0  0  0  0
  141.4909   72.6434  226.5441 H   0  0  0  0  0  0  0  0  0  0  0  0
  1  2  2  0
  2  3  1  0
  3  4  1  0
  4  5  1  0
  5  6  2  0
  5  7  1  0
  7  8  1  0
  8  9  1  0
  9 10  1  0
 10 11  1  0
 11 12  1  0
 12 13  2  0
 13 14  1  0
 14 15  2  0
 15 16  1  0
 16 17  2  0
  2 18  1  0
 18 19  2  0
 19 20  1  0
 20 21  2  0
 21 22  1  0
 22 23  2  0
 23 24  1  0
 23 25  1  0
 25 26  2  0
 26 27  1  0
 27 28  2  0
 11  7  1  0
 17 12  1  0
 28 18  1  0
 27 21  1  0
  3 29  1  0
  4 30  1  0
  4 31  1  0
  8 32  1  0
  8 33  1  0
  9 34  1  0
  9 35  1  0
 10 36  1  0
 10 37  1  0
 11 38  1  6
 13 39  1  0
 14 40  1  0
 16 41  1  0
 17 42  1  0
 19 43  1  0
 20 44  1  0
 22 45  1  0
 25 46  1  0
 26 47  1  0
M  END
>  <smiles>  (48) 
O=C(NCC(=O)N1CCCC1c1ccncc1)c1ccc2cc(Cl)ccc2n1

>  <score_type>  (48) 
oracle

>  <origin>  (48) 
autodockgpu

>  <m_score__min__energy>  (48) 
-8.25

>  <m_primary>  (48) 
energy

>  <rmsd>  (48) 
2.1003714384293546

>  <m_score__min__rmsd>  (48) 
2.1003714384293546

>  <meeko>  (48) 
{"free_energy": -7.64, "intermolecular_energy": -9.13, "internal_energy": -1.73, "cluster_size": 15, "cluster_id": 1, "rank_in_cluster": 9}

>  <energy>  (48) 
-6.77

>  <cluster_rmsd>  (48) 
0.13

>  <cluster>  (48) 
6

$$$$

     RDKit          3D

 47 50  0  0  0  0  0  0  0  0999 V2000
  140.0100   74.0120  222.0790 O   0  0  0  0  0  0  0  0  0  0  0  0
  139.8550   72.7690  221.9330 C   0  0  0  0  0  0  0  0  0  0  0  0
  139.6050   72.3370  220.5820 N   0  0  0  0  0  0  0  0  0  0  0  0
  139.5630   73.3570  219.5780 C   0  0  0  0  0  0  0  0  0  0  0  0
  140.7720   74.0730  219.2310 C   0  0  0  0  0  0  0  0  0  0  0  0
  141.3870   73.5920  218.1820 O   0  0  0  0  0  0  0  0  0  0  0  0
  141.3990   75.1810  219.8120 N   0  0  0  0  0  0  0  0  0  0  0  0
  140.9750   76.5910  219.9140 C   0  0  0  0  0  0  0  0  0  0  0  0
  142.1890   77.2560  219.3410 C   0  0  0  0  0  0  0  0  0  0  0  0
  143.3600   76.3790  219.7120 C   0  0  0  0  0  0  0  0  0  0  0  0
  142.7160   75.2330  220.4750 C   0  0  2  0  0  0  0  0  0  0  0  0
  143.5110   74.0120  220.3810 C   0  0  0  0  0  0  0  0  0  0  0  0
  144.8140   74.0980  219.8730 C   0  0  0  0  0  0  0  0  0  0  0  0
  145.5920   72.9620  219.7310 C   0  0  0  0  0  0  0  0  0  0  0  0
  145.1360   71.7490  220.0670 N   0  0  0  0  0  0  0  0  0  0  0  0
  143.8910   71.6210  220.5590 C   0  0  0  0  0  0  0  0  0  0  0  0
  143.0860   72.7460  220.7130 C   0  0  0  0  0  0  0  0  0  0  0  0
  139.9160   71.8080  223.0080 C   0  0  0  0  0  0  0  0  0  0  0  0
  139.4670   70.5250  222.7820 C   0  0  0  0  0  0  0  0  0  0  0  0
  139.5450   69.6380  223.8410 C   0  0  0  0  0  0  0  0  0  0  0  0
  140.0390   69.9790  225.0780 C   0  0  0  0  0  0  0  0  0  0  0  0
  140.1170   69.0970  226.1370 C   0  0  0  0  0  0  0  0  0  0  0  0
  140.6360   69.5730  227.3270 C   0  0  0  0  0  0  0  0  0  0  0  0
  140.7450   68.4600  228.6940 Cl  0  0  0  0  0  0  0  0  0  0  0  0
  141.0690   70.8630  227.4980 C   0  0  0  0  0  0  0  0  0  0  0  0
  140.9890   71.7430  226.4370 C   0  0  0  0  0  0  0  0  0  0  0  0
  140.4730   71.2890  225.2350 C   0  0  0  0  0  0  0  0  0  0  0  0
  140.4130   72.1870  224.2200 N   0  0  0  0  0  0  0  0  0  0  0  0
  139.4710   71.3190  220.4120 H   0  0  0  0  0  0  0  0  0  0  0  0
  139.1982   72.8816  218.6556 H   0  0  0  0  0  0  0  0  0  0  0  0
  138.9266   74.1330  220.0283 H   0  0  0  0  0  0  0  0  0  0  0  0
  140.0750   76.7933  219.3148 H   0  0  0  0  0  0  0  0  0  0  0  0
  140.6918   76.9230  220.9237 H   0  0  0  0  0  0  0  0  0  0  0  0
  142.1015   77.3337  218.2472 H   0  0  0  0  0  0  0  0  0  0  0  0
  142.3110   78.2767  219.7325 H   0  0  0  0  0  0  0  0  0  0  0  0
  143.8768   76.0118  218.8131 H   0  0  0  0  0  0  0  0  0  0  0  0
  144.1240   76.9095  220.2993 H   0  0  0  0  0  0  0  0  0  0  0  0
  142.6349   75.3591  221.5647 H   0  0  0  0  0  0  0  0  0  0  0  0
  145.2226   75.0776  219.5843 H   0  0  0  0  0  0  0  0  0  0  0  0
  146.6123   73.0585  219.3314 H   0  0  0  0  0  0  0  0  0  0  0  0
  143.5092   70.6282  220.8395 H   0  0  0  0  0  0  0  0  0  0  0  0
  142.0704   72.6181  221.1158 H   0  0  0  0  0  0  0  0  0  0  0  0
  139.0650   70.2200  221.8046 H   0  0  0  0  0  0  0  0  0  0  0  0
  139.1938   68.6073  223.6853 H   0  0  0  0  0  0  0  0  0  0  0  0
  139.7791   68.0549  226.0380 H   0  0  0  0  0  0  0  0  0  0  0  0
  141.4742   71.1919  228.4664 H   0  0  0  0  0  0  0  0  0  0  0  0
  141.3284   72.7838  226.5445 H   0  0  0  0  0  0  0  0  0  0  0  0
  1  2  2  0
  2  3  1  0
  3  4  1  0
  4  5  1  0
  5  6  2  0
  5  7  1  0
  7  8  1  0
  8  9  1  0
  9 10  1  0
 10 11  1  0
 11 12  1  0
 12 13  2  0
 13 14  1  0
 14 15  2  0
 15 16  1  0
 16 17  2  0
  2 18  1  0
 18 19  2  0
 19 20  1  0
 20 21  2  0
 21 22  1  0
 22 23  2  0
 23 24  1  0
 23 25  1  0
 25 26  2  0
 26 27  1  0
 27 28  2  0
 11  7  1  0
 17 12  1  0
 28 18  1  0
 27 21  1  0
  3 29  1  0
  4 30  1  0
  4 31  1  0
  8 32  1  0
  8 33  1  0
  9 34  1  0
  9 35  1  0
 10 36  1  0
 10 37  1  0
 11 38  1  1
 13 39  1  0
 14 40  1  0
 16 41  1  0
 17 42  1  0
 19 43  1  0
 20 44  1  0
 22 45  1  0
 25 46  1  0
 26 47  1  0
M  END
>  <smiles>  (49) 
O=C(NCC(=O)N1CCCC1c1ccncc1)c1ccc2cc(Cl)ccc2n1

>  <score_type>  (49) 
oracle

>  <origin>  (49) 
autodockgpu

>  <m_score__min__energy>  (49) 
-8.25

>  <m_primary>  (49) 
energy

>  <rmsd>  (49) 
2.3561698217601843

>  <m_score__min__rmsd>  (49) 
2.3561698217601843

>  <meeko>  (49) 
{"free_energy": -7.51, "intermolecular_energy": -9.0, "internal_energy": -1.56, "cluster_size": 15, "cluster_id": 1, "rank_in_cluster": 11}

>  <energy>  (49) 
-6.74

>  <cluster_rmsd>  (49) 
0.16

>  <cluster>  (49) 
6

$$$$

     RDKit          3D

 47 50  0  0  0  0  0  0  0  0999 V2000
  140.0800   72.1330  220.7070 O   0  0  0  0  0  0  0  0  0  0  0  0
  139.9200   72.4350  221.9200 C   0  0  0  0  0  0  0  0  0  0  0  0
  139.6860   73.8320  222.1800 N   0  0  0  0  0  0  0  0  0  0  0  0
  139.6640   74.7010  221.0430 C   0  0  0  0  0  0  0  0  0  0  0  0
  140.2790   76.0090  221.1260 C   0  0  0  0  0  0  0  0  0  0  0  0
  140.6730   76.3320  222.3300 O   0  0  0  0  0  0  0  0  0  0  0  0
  140.5260   76.9860  220.1540 N   0  0  0  0  0  0  0  0  0  0  0  0
  140.9670   76.8670  218.7510 C   0  0  0  0  0  0  0  0  0  0  0  0
  142.1440   77.7920  218.7830 C   0  0  0  0  0  0  0  0  0  0  0  0
  141.8100   78.8600  219.7940 C   0  0  0  0  0  0  0  0  0  0  0  0
  140.4360   78.4510  220.3000 C   0  0  2  0  0  0  0  0  0  0  0  0
  140.1990   78.9300  221.6580 C   0  0  0  0  0  0  0  0  0  0  0  0
  138.8770   79.0380  222.1100 C   0  0  0  0  0  0  0  0  0  0  0  0
  138.6010   79.5230  223.3770 C   0  0  0  0  0  0  0  0  0  0  0  0
  139.5750   79.9040  224.2120 N   0  0  0  0  0  0  0  0  0  0  0  0
  140.8590   79.8170  223.8200 C   0  0  0  0  0  0  0  0  0  0  0  0
  141.1650   79.3340  222.5510 C   0  0  0  0  0  0  0  0  0  0  0  0
  139.9580   71.4860  223.0090 C   0  0  0  0  0  0  0  0  0  0  0  0
  139.4810   70.2110  222.7980 C   0  0  0  0  0  0  0  0  0  0  0  0
  139.5380   69.3360  223.8690 C   0  0  0  0  0  0  0  0  0  0  0  0
  140.0390   69.6820  225.1020 C   0  0  0  0  0  0  0  0  0  0  0  0
  140.0960   68.8120  226.1720 C   0  0  0  0  0  0  0  0  0  0  0  0
  140.6250   69.2920  227.3570 C   0  0  0  0  0  0  0  0  0  0  0  0
  140.7070   68.1940  228.7380 Cl  0  0  0  0  0  0  0  0  0  0  0  0
  141.0860   70.5740  227.5120 C   0  0  0  0  0  0  0  0  0  0  0  0
  141.0260   71.4420  226.4390 C   0  0  0  0  0  0  0  0  0  0  0  0
  140.5010   70.9840  225.2420 C   0  0  0  0  0  0  0  0  0  0  0  0
  140.4630   71.8700  224.2160 N   0  0  0  0  0  0  0  0  0  0  0  0
  139.5490   74.1290  223.1680 H   0  0  0  0  0  0  0  0  0  0  0  0
  140.1641   74.1652  220.2227 H   0  0  0  0  0  0  0  0  0  0  0  0
  138.5953   74.9288  220.9163 H   0  0  0  0  0  0  0  0  0  0  0  0
  141.2609   75.8374  218.4991 H   0  0  0  0  0  0  0  0  0  0  0  0
  140.2024   77.1078  217.9977 H   0  0  0  0  0  0  0  0  0  0  0  0
  143.0494   77.2471  219.0884 H   0  0  0  0  0  0  0  0  0  0  0  0
  142.3413   78.2253  217.7914 H   0  0  0  0  0  0  0  0  0  0  0  0
  142.5441   78.8695  220.6132 H   0  0  0  0  0  0  0  0  0  0  0  0
  141.8257   79.8739  219.3678 H   0  0  0  0  0  0  0  0  0  0  0  0
  139.5744   78.8762  219.7645 H   0  0  0  0  0  0  0  0  0  0  0  0
  138.0500   78.7343  221.4513 H   0  0  0  0  0  0  0  0  0  0  0  0
  137.5539   79.5971  223.7059 H   0  0  0  0  0  0  0  0  0  0  0  0
  141.6654   80.1269  224.5010 H   0  0  0  0  0  0  0  0  0  0  0  0
  142.2212   79.2728  222.2499 H   0  0  0  0  0  0  0  0  0  0  0  0
  139.0738   69.9026  221.8238 H   0  0  0  0  0  0  0  0  0  0  0  0
  139.1634   68.3116  223.7266 H   0  0  0  0  0  0  0  0  0  0  0  0
  139.7347   67.7766  226.0860 H   0  0  0  0  0  0  0  0  0  0  0  0
  141.4975   70.9064  228.4765 H   0  0  0  0  0  0  0  0  0  0  0  0
  141.3880   72.4764  226.5334 H   0  0  0  0  0  0  0  0  0  0  0  0
  1  2  2  0
  2  3  1  0
  3  4  1  0
  4  5  1  0
  5  6  2  0
  5  7  1  0
  7  8  1  0
  8  9  1  0
  9 10  1  0
 10 11  1  0
 11 12  1  0
 12 13  2  0
 13 14  1  0
 14 15  2  0
 15 16  1  0
 16 17  2  0
  2 18  1  0
 18 19  2  0
 19 20  1  0
 20 21  2  0
 21 22  1  0
 22 23  2  0
 23 24  1  0
 23 25  1  0
 25 26  2  0
 26 27  1  0
 27 28  2  0
 11  7  1  0
 17 12  1  0
 28 18  1  0
 27 21  1  0
  3 29  1  0
  4 30  1  0
  4 31  1  0
  8 32  1  0
  8 33  1  0
  9 34  1  0
  9 35  1  0
 10 36  1  0
 10 37  1  0
 11 38  1  6
 13 39  1  0
 14 40  1  0
 16 41  1  0
 17 42  1  0
 19 43  1  0
 20 44  1  0
 22 45  1  0
 25 46  1  0
 26 47  1  0
M  END
>  <smiles>  (50) 
O=C(NCC(=O)N1CCCC1c1ccncc1)c1ccc2cc(Cl)ccc2n1

>  <score_type>  (50) 
oracle

>  <origin>  (50) 
autodockgpu

>  <m_score__min__energy>  (50) 
-8.25

>  <m_primary>  (50) 
energy

>  <rmsd>  (50) 
1.8916370466558627

>  <m_score__min__rmsd>  (50) 
1.8916370466558627

>  <meeko>  (50) 
{"free_energy": -7.71, "intermolecular_energy": -9.2, "internal_energy": -1.38, "cluster_size": 20, "cluster_id": 2, "rank_in_cluster": 20}

>  <energy>  (50) 
-6.73

>  <cluster_rmsd>  (50) 
0.13

>  <cluster>  (50) 
6

$$$$

     RDKit          3D

 47 50  0  0  0  0  0  0  0  0999 V2000
  140.3650   72.1800  220.7470 O   0  0  0  0  0  0  0  0  0  0  0  0
  140.0960   72.5820  221.9280 C   0  0  0  0  0  0  0  0  0  0  0  0
  139.7870   73.9500  222.1470 N   0  0  0  0  0  0  0  0  0  0  0  0
  139.7920   74.8300  221.0070 C   0  0  0  0  0  0  0  0  0  0  0  0
  140.9360   75.7470  221.1070 C   0  0  0  0  0  0  0  0  0  0  0  0
  141.1400   76.5370  222.0660 O   0  0  0  0  0  0  0  0  0  0  0  0
  141.8850   75.7470  220.0490 N   0  0  0  0  0  0  0  0  0  0  0  0
  142.8400   76.7950  219.6810 C   0  0  0  0  0  0  0  0  0  0  0  0
  142.6740   76.8590  218.1890 C   0  0  0  0  0  0  0  0  0  0  0  0
  142.1640   75.5070  217.7940 C   0  0  0  0  0  0  0  0  0  0  0  0
  142.1380   74.6870  219.0600 C   0  0  1  0  0  0  0  0  0  0  0  0
  143.4270   74.0960  219.4260 C   0  0  0  0  0  0  0  0  0  0  0  0
  144.4670   73.8520  218.5730 C   0  0  0  0  0  0  0  0  0  0  0  0
  145.6450   73.2900  219.0170 C   0  0  0  0  0  0  0  0  0  0  0  0
  145.8440   72.9500  220.2960 N   0  0  0  0  0  0  0  0  0  0  0  0
  144.8320   73.1780  221.1760 C   0  0  0  0  0  0  0  0  0  0  0  0
  143.6300   73.7420  220.7650 C   0  0  0  0  0  0  0  0  0  0  0  0
  140.1070   71.6330  223.0590 C   0  0  0  0  0  0  0  0  0  0  0  0
  139.6230   70.3580  222.8490 C   0  0  0  0  0  0  0  0  0  0  0  0
  139.6370   69.4800  223.9100 C   0  0  0  0  0  0  0  0  0  0  0  0
  140.1180   69.8610  225.1440 C   0  0  0  0  0  0  0  0  0  0  0  0
  140.1200   68.9500  226.2000 C   0  0  0  0  0  0  0  0  0  0  0  0
  140.6090   69.3620  227.4200 C   0  0  0  0  0  0  0  0  0  0  0  0
  140.5980   68.1970  228.7320 Cl  0  0  0  0  0  0  0  0  0  0  0  0
  141.0790   70.6500  227.5680 C   0  0  0  0  0  0  0  0  0  0  0  0
  141.0890   71.5720  226.5380 C   0  0  0  0  0  0  0  0  0  0  0  0
  140.5970   71.1480  225.3210 C   0  0  0  0  0  0  0  0  0  0  0  0
  140.5720   71.9840  224.2690 N   0  0  0  0  0  0  0  0  0  0  0  0
  139.5740   74.2530  223.1060 H   0  0  0  0  0  0  0  0  0  0  0  0
  139.8763   74.2363  220.0848 H   0  0  0  0  0  0  0  0  0  0  0  0
  138.8567   75.4085  220.9837 H   0  0  0  0  0  0  0  0  0  0  0  0
  142.5822   77.7544  220.1533 H   0  0  0  0  0  0  0  0  0  0  0  0
  143.8711   76.5888  220.0041 H   0  0  0  0  0  0  0  0  0  0  0  0
  141.9499   77.6401  217.9143 H   0  0  0  0  0  0  0  0  0  0  0  0
  143.6167   77.1084  217.6800 H   0  0  0  0  0  0  0  0  0  0  0  0
  141.1520   75.5888  217.3706 H   0  0  0  0  0  0  0  0  0  0  0  0
  142.8018   75.0439  217.0267 H   0  0  0  0  0  0  0  0  0  0  0  0
  141.4308   73.8483  218.9793 H   0  0  0  0  0  0  0  0  0  0  0  0
  144.3616   74.1098  217.5088 H   0  0  0  0  0  0  0  0  0  0  0  0
  146.4530   73.1142  218.2916 H   0  0  0  0  0  0  0  0  0  0  0  0
  144.9677   72.9106  222.2343 H   0  0  0  0  0  0  0  0  0  0  0  0
  142.8295   73.9120  221.5000 H   0  0  0  0  0  0  0  0  0  0  0  0
  139.2380   70.0524  221.8649 H   0  0  0  0  0  0  0  0  0  0  0  0
  139.2577   68.4570  223.7701 H   0  0  0  0  0  0  0  0  0  0  0  0
  139.7402   67.9269  226.0619 H   0  0  0  0  0  0  0  0  0  0  0  0
  141.4638   70.9581  228.5514 H   0  0  0  0  0  0  0  0  0  0  0  0
  141.4706   72.5936  226.6818 H   0  0  0  0  0  0  0  0  0  0  0  0
  1  2  2  0
  2  3  1  0
  3  4  1  0
  4  5  1  0
  5  6  2  0
  5  7  1  0
  7  8  1  0
  8  9  1  0
  9 10  1  0
 10 11  1  0
 11 12  1  0
 12 13  2  0
 13 14  1  0
 14 15  2  0
 15 16  1  0
 16 17  2  0
  2 18  1  0
 18 19  2  0
 19 20  1  0
 20 21  2  0
 21 22  1  0
 22 23  2  0
 23 24  1  0
 23 25  1  0
 25 26  2  0
 26 27  1  0
 27 28  2  0
 11  7  1  0
 17 12  1  0
 28 18  1  0
 27 21  1  0
  3 29  1  0
  4 30  1  0
  4 31  1  0
  8 32  1  0
  8 33  1  0
  9 34  1  0
  9 35  1  0
 10 36  1  0
 10 37  1  0
 11 38  1  6
 13 39  1  0
 14 40  1  0
 16 41  1  0
 17 42  1  0
 19 43  1  0
 20 44  1  0
 22 45  1  0
 25 46  1  0
 26 47  1  0
M  END
>  <smiles>  (51) 
O=C(NCC(=O)N1CCCC1c1ccncc1)c1ccc2cc(Cl)ccc2n1

>  <score_type>  (51) 
oracle

>  <origin>  (51) 
autodockgpu

>  <m_score__min__energy>  (51) 
-8.5

>  <m_primary>  (51) 
energy

>  <rmsd>  (51) 
2.3263292461588634

>  <m_score__min__rmsd>  (51) 
2.3263292461588634

>  <meeko>  (51) 
{"free_energy": -7.74, "intermolecular_energy": -9.23, "internal_energy": -1.7, "cluster_size": 13, "cluster_id": 2, "rank_in_cluster": 9}

>  <energy>  (51) 
-8.5

>  <cluster_rmsd>  (51) 
0.0

>  <cluster>  (51) 
1

$$$$

     RDKit          3D

 47 50  0  0  0  0  0  0  0  0999 V2000
  140.3730   72.4450  220.8060 O   0  0  0  0  0  0  0  0  0  0  0  0
  139.9380   72.7820  221.9560 C   0  0  0  0  0  0  0  0  0  0  0  0
  139.4090   74.0850  222.1500 N   0  0  0  0  0  0  0  0  0  0  0  0
  139.3910   74.9760  221.0180 C   0  0  0  0  0  0  0  0  0  0  0  0
  140.6810   75.6740  220.9300 C   0  0  0  0  0  0  0  0  0  0  0  0
  141.8060   75.1160  221.0290 O   0  0  0  0  0  0  0  0  0  0  0  0
  140.6660   77.0800  220.7180 N   0  0  0  0  0  0  0  0  0  0  0  0
  139.5100   77.9640  220.5540 C   0  0  0  0  0  0  0  0  0  0  0  0
  139.9220   78.8020  219.3780 C   0  0  0  0  0  0  0  0  0  0  0  0
  141.4190   78.7730  219.3830 C   0  0  0  0  0  0  0  0  0  0  0  0
  141.8160   77.9910  220.6100 C   0  0  1  0  0  0  0  0  0  0  0  0
  141.8250   78.7720  221.8490 C   0  0  0  0  0  0  0  0  0  0  0  0
  141.5100   78.3040  223.0940 C   0  0  0  0  0  0  0  0  0  0  0  0
  141.5500   79.1220  224.2030 C   0  0  0  0  0  0  0  0  0  0  0  0
  141.8940   80.4130  224.1330 N   0  0  0  0  0  0  0  0  0  0  0  0
  142.2140   80.9170  222.9110 C   0  0  0  0  0  0  0  0  0  0  0  0
  142.1860   80.1220  221.7710 C   0  0  0  0  0  0  0  0  0  0  0  0
  139.9830   71.8250  223.0800 C   0  0  0  0  0  0  0  0  0  0  0  0
  139.5210   70.5420  222.8680 C   0  0  0  0  0  0  0  0  0  0  0  0
  139.5670   69.6580  223.9210 C   0  0  0  0  0  0  0  0  0  0  0  0
  140.0580   70.0390  225.1520 C   0  0  0  0  0  0  0  0  0  0  0  0
  140.0930   69.1210  226.2010 C   0  0  0  0  0  0  0  0  0  0  0  0
  140.5900   69.5330  227.4180 C   0  0  0  0  0  0  0  0  0  0  0  0
  140.6210   68.3590  228.7200 Cl  0  0  0  0  0  0  0  0  0  0  0  0
  141.0370   70.8290  227.5680 C   0  0  0  0  0  0  0  0  0  0  0  0
  141.0150   71.7590  226.5450 C   0  0  0  0  0  0  0  0  0  0  0  0
  140.5140   71.3330  225.3310 C   0  0  0  0  0  0  0  0  0  0  0  0
  140.4580   72.1760  224.2870 N   0  0  0  0  0  0  0  0  0  0  0  0
  139.0650   74.3360  223.0850 H   0  0  0  0  0  0  0  0  0  0  0  0
  139.2224   74.3977  220.0976 H   0  0  0  0  0  0  0  0  0  0  0  0
  138.5815   75.7108  221.1398 H   0  0  0  0  0  0  0  0  0  0  0  0
  138.5966   77.3912  220.3361 H   0  0  0  0  0  0  0  0  0  0  0  0
  139.2686   78.5498  221.4532 H   0  0  0  0  0  0  0  0  0  0  0  0
  139.5307   78.3743  218.4432 H   0  0  0  0  0  0  0  0  0  0  0  0
  139.5296   79.8274  219.4453 H   0  0  0  0  0  0  0  0  0  0  0  0
  141.7946   78.2772  218.4758 H   0  0  0  0  0  0  0  0  0  0  0  0
  141.8414   79.7885  219.3985 H   0  0  0  0  0  0  0  0  0  0  0  0
  142.8270   77.5701  220.5070 H   0  0  0  0  0  0  0  0  0  0  0  0
  141.2178   77.2503  223.2138 H   0  0  0  0  0  0  0  0  0  0  0  0
  141.2890   78.6968  225.1833 H   0  0  0  0  0  0  0  0  0  0  0  0
  142.5008   81.9753  222.8229 H   0  0  0  0  0  0  0  0  0  0  0  0
  142.4505   80.5588  220.7967 H   0  0  0  0  0  0  0  0  0  0  0  0
  139.1281   70.2357  221.8873 H   0  0  0  0  0  0  0  0  0  0  0  0
  139.2057   68.6288  223.7785 H   0  0  0  0  0  0  0  0  0  0  0  0
  139.7321   68.0915  226.0600 H   0  0  0  0  0  0  0  0  0  0  0  0
  141.4297   71.1375  228.5481 H   0  0  0  0  0  0  0  0  0  0  0  0
  141.3785   72.7869  226.6911 H   0  0  0  0  0  0  0  0  0  0  0  0
  1  2  2  0
  2  3  1  0
  3  4  1  0
  4  5  1  0
  5  6  2  0
  5  7  1  0
  7  8  1  0
  8  9  1  0
  9 10  1  0
 10 11  1  0
 11 12  1  0
 12 13  2  0
 13 14  1  0
 14 15  2  0
 15 16  1  0
 16 17  2  0
  2 18  1  0
 18 19  2  0
 19 20  1  0
 20 21  2  0
 21 22  1  0
 22 23  2  0
 23 24  1  0
 23 25  1  0
 25 26  2  0
 26 27  1  0
 27 28  2  0
 11  7  1  0
 17 12  1  0
 28 18  1  0
 27 21  1  0
  3 29  1  0
  4 30  1  0
  4 31  1  0
  8 32  1  0
  8 33  1  0
  9 34  1  0
  9 35  1  0
 10 36  1  0
 10 37  1  0
 11 38  1  6
 13 39  1  0
 14 40  1  0
 16 41  1  0
 17 42  1  0
 19 43  1  0
 20 44  1  0
 22 45  1  0
 25 46  1  0
 26 47  1  0
M  END
>  <smiles>  (52) 
O=C(NCC(=O)N1CCCC1c1ccncc1)c1ccc2cc(Cl)ccc2n1

>  <score_type>  (52) 
oracle

>  <origin>  (52) 
autodockgpu

>  <m_score__min__energy>  (52) 
-8.5

>  <m_primary>  (52) 
energy

>  <rmsd>  (52) 
1.996637745109807

>  <m_score__min__rmsd>  (52) 
1.996637745109807

>  <meeko>  (52) 
{"free_energy": -8.46, "intermolecular_energy": -9.95, "internal_energy": -1.26, "cluster_size": 33, "cluster_id": 1, "rank_in_cluster": 4}

>  <energy>  (52) 
-8.48

>  <cluster_rmsd>  (52) 
0.2

>  <cluster>  (52) 
1

$$$$

     RDKit          3D

 47 50  0  0  0  0  0  0  0  0999 V2000
  141.9640   73.4970  221.0670 O   0  0  0  0  0  0  0  0  0  0  0  0
  141.0710   74.2400  221.5940 C   0  0  0  0  0  0  0  0  0  0  0  0
  140.0000   73.6450  222.3110 N   0  0  0  0  0  0  0  0  0  0  0  0
  139.9750   72.2080  222.4080 C   0  0  0  0  0  0  0  0  0  0  0  0
  138.6280   71.7740  222.8070 C   0  0  0  0  0  0  0  0  0  0  0  0
  137.5960   72.4930  222.7500 O   0  0  0  0  0  0  0  0  0  0  0  0
  138.4730   70.4470  223.2940 N   0  0  0  0  0  0  0  0  0  0  0  0
  138.8620   69.1890  222.6520 C   0  0  0  0  0  0  0  0  0  0  0  0
  137.6430   68.3390  222.8670 C   0  0  0  0  0  0  0  0  0  0  0  0
  136.9760   68.9110  224.0800 C   0  0  0  0  0  0  0  0  0  0  0  0
  137.8800   70.0150  224.5700 C   0  0  1  0  0  0  0  0  0  0  0  0
  138.9990   69.5590  225.3980 C   0  0  0  0  0  0  0  0  0  0  0  0
  140.0650   70.3180  225.7920 C   0  0  0  0  0  0  0  0  0  0  0  0
  141.0720   69.7940  226.5750 C   0  0  0  0  0  0  0  0  0  0  0  0
  141.0710   68.5230  226.9940 N   0  0  0  0  0  0  0  0  0  0  0  0
  140.0260   67.7360  226.6220 C   0  0  0  0  0  0  0  0  0  0  0  0
  138.9930   68.2290  225.8330 C   0  0  0  0  0  0  0  0  0  0  0  0
  141.1500   75.7090  221.4620 C   0  0  0  0  0  0  0  0  0  0  0  0
  141.3040   76.2460  220.2000 C   0  0  0  0  0  0  0  0  0  0  0  0
  141.3760   77.6160  220.0870 C   0  0  0  0  0  0  0  0  0  0  0  0
  141.2990   78.4290  221.1980 C   0  0  0  0  0  0  0  0  0  0  0  0
  141.3750   79.8130  221.0520 C   0  0  0  0  0  0  0  0  0  0  0  0
  141.2930   80.5970  222.1820 C   0  0  0  0  0  0  0  0  0  0  0  0
  141.3930   82.3350  221.9710 Cl  0  0  0  0  0  0  0  0  0  0  0  0
  141.1400   80.0010  223.4160 C   0  0  0  0  0  0  0  0  0  0  0  0
  141.0610   78.6310  223.5890 C   0  0  0  0  0  0  0  0  0  0  0  0
  141.1440   77.8580  222.4490 C   0  0  0  0  0  0  0  0  0  0  0  0
  141.0760   76.5180  222.5310 N   0  0  0  0  0  0  0  0  0  0  0  0
  139.2920   74.2620  222.7270 H   0  0  0  0  0  0  0  0  0  0  0  0
  140.2291   71.7688  221.4320 H   0  0  0  0  0  0  0  0  0  0  0  0
  140.7079   71.8753  223.1578 H   0  0  0  0  0  0  0  0  0  0  0  0
  139.0649   69.3331  221.5805 H   0  0  0  0  0  0  0  0  0  0  0  0
  139.7856   68.7508  223.0581 H   0  0  0  0  0  0  0  0  0  0  0  0
  136.9741   68.3961  221.9956 H   0  0  0  0  0  0  0  0  0  0  0  0
  137.8995   67.2776  223.0002 H   0  0  0  0  0  0  0  0  0  0  0  0
  135.9871   69.3149  223.8177 H   0  0  0  0  0  0  0  0  0  0  0  0
  136.8205   68.1445  224.8535 H   0  0  0  0  0  0  0  0  0  0  0  0
  137.3274   70.7448  225.1799 H   0  0  0  0  0  0  0  0  0  0  0  0
  140.1210   71.3706  225.4775 H   0  0  0  0  0  0  0  0  0  0  0  0
  141.9086   70.4460  226.8665 H   0  0  0  0  0  0  0  0  0  0  0  0
  139.9976   66.6872  226.9524 H   0  0  0  0  0  0  0  0  0  0  0  0
  138.1623   67.5667  225.5477 H   0  0  0  0  0  0  0  0  0  0  0  0
  141.3672   75.5995  219.3123 H   0  0  0  0  0  0  0  0  0  0  0  0
  141.4972   78.0703  219.0926 H   0  0  0  0  0  0  0  0  0  0  0  0
  141.4975   80.2685  220.0583 H   0  0  0  0  0  0  0  0  0  0  0  0
  141.0778   80.6457  224.3051 H   0  0  0  0  0  0  0  0  0  0  0  0
  140.9382   78.1805  224.5850 H   0  0  0  0  0  0  0  0  0  0  0  0
  1  2  2  0
  2  3  1  0
  3  4  1  0
  4  5  1  0
  5  6  2  0
  5  7  1  0
  7  8  1  0
  8  9  1  0
  9 10  1  0
 10 11  1  0
 11 12  1  0
 12 13  2  0
 13 14  1  0
 14 15  2  0
 15 16  1  0
 16 17  2  0
  2 18  1  0
 18 19  2  0
 19 20  1  0
 20 21  2  0
 21 22  1  0
 22 23  2  0
 23 24  1  0
 23 25  1  0
 25 26  2  0
 26 27  1  0
 27 28  2  0
 11  7  1  0
 17 12  1  0
 28 18  1  0
 27 21  1  0
  3 29  1  0
  4 30  1  0
  4 31  1  0
  8 32  1  0
  8 33  1  0
  9 34  1  0
  9 35  1  0
 10 36  1  0
 10 37  1  0
 11 38  1  1
 13 39  1  0
 14 40  1  0
 16 41  1  0
 17 42  1  0
 19 43  1  0
 20 44  1  0
 22 45  1  0
 25 46  1  0
 26 47  1  0
M  END
>  <smiles>  (53) 
O=C(NCC(=O)N1CCCC1c1ccncc1)c1ccc2cc(Cl)ccc2n1

>  <score_type>  (53) 
oracle

>  <origin>  (53) 
autodockgpu

>  <m_score__min__energy>  (53) 
-8.5

>  <m_primary>  (53) 
energy

>  <rmsd>  (53) 
8.436992543729321

>  <m_score__min__rmsd>  (53) 
8.436992543729321

>  <meeko>  (53) 
{"free_energy": -7.34, "intermolecular_energy": -8.83, "internal_energy": -1.47, "cluster_size": 1, "cluster_id": 4, "rank_in_cluster": 1}

>  <energy>  (53) 
-8.47

>  <cluster_rmsd>  (53) 
0.82

>  <cluster>  (53) 
1

$$$$

     RDKit          3D

 47 50  0  0  0  0  0  0  0  0999 V2000
  141.2410   72.2530  221.1670 O   0  0  0  0  0  0  0  0  0  0  0  0
  140.4040   72.4820  222.1020 C   0  0  0  0  0  0  0  0  0  0  0  0
  139.5680   73.6270  222.0290 N   0  0  0  0  0  0  0  0  0  0  0  0
  139.7100   74.4880  220.8830 C   0  0  0  0  0  0  0  0  0  0  0  0
  140.7570   75.4840  221.1530 C   0  0  0  0  0  0  0  0  0  0  0  0
  140.8610   76.1450  222.2200 O   0  0  0  0  0  0  0  0  0  0  0  0
  141.7260   75.7240  220.1400 N   0  0  0  0  0  0  0  0  0  0  0  0
  142.6610   76.8450  220.0200 C   0  0  0  0  0  0  0  0  0  0  0  0
  142.5220   77.2150  218.5720 C   0  0  0  0  0  0  0  0  0  0  0  0
  142.0530   75.9650  217.8920 C   0  0  0  0  0  0  0  0  0  0  0  0
  142.0230   74.8990  218.9590 C   0  0  1  0  0  0  0  0  0  0  0  0
  143.3190   74.2710  219.2250 C   0  0  0  0  0  0  0  0  0  0  0  0
  143.8570   74.0340  220.4600 C   0  0  0  0  0  0  0  0  0  0  0  0
  145.0900   73.4350  220.6060 C   0  0  0  0  0  0  0  0  0  0  0  0
  145.8320   73.0510  219.5600 N   0  0  0  0  0  0  0  0  0  0  0  0
  145.3310   73.2690  218.3150 C   0  0  0  0  0  0  0  0  0  0  0  0
  144.0920   73.8710  218.1290 C   0  0  0  0  0  0  0  0  0  0  0  0
  140.3030   71.5620  223.2540 C   0  0  0  0  0  0  0  0  0  0  0  0
  139.6920   70.3400  223.0650 C   0  0  0  0  0  0  0  0  0  0  0  0
  139.6020   69.4900  224.1440 C   0  0  0  0  0  0  0  0  0  0  0  0
  140.1070   69.8470  225.3770 C   0  0  0  0  0  0  0  0  0  0  0  0
  140.0020   68.9650  226.4510 C   0  0  0  0  0  0  0  0  0  0  0  0
  140.5170   69.3510  227.6690 C   0  0  0  0  0  0  0  0  0  0  0  0
  140.3710   68.2240  229.0050 Cl  0  0  0  0  0  0  0  0  0  0  0  0
  141.1170   70.5860  227.7960 C   0  0  0  0  0  0  0  0  0  0  0  0
  141.2340   71.4790  226.7460 C   0  0  0  0  0  0  0  0  0  0  0  0
  140.7140   71.0800  225.5320 C   0  0  0  0  0  0  0  0  0  0  0  0
  140.7880   71.8910  224.4630 N   0  0  0  0  0  0  0  0  0  0  0  0
  138.9020   73.7930  222.7930 H   0  0  0  0  0  0  0  0  0  0  0  0
  139.9907   73.8881  220.0047 H   0  0  0  0  0  0  0  0  0  0  0  0
  138.7564   74.9991  220.6845 H   0  0  0  0  0  0  0  0  0  0  0  0
  142.3705   77.6794  220.6752 H   0  0  0  0  0  0  0  0  0  0  0  0
  143.6907   76.5970  220.3171 H   0  0  0  0  0  0  0  0  0  0  0  0
  141.7842   78.0215  218.4488 H   0  0  0  0  0  0  0  0  0  0  0  0
  143.4679   77.5839  218.1487 H   0  0  0  0  0  0  0  0  0  0  0  0
  141.0476   76.1129  217.4708 H   0  0  0  0  0  0  0  0  0  0  0  0
  142.7163   75.6849  217.0604 H   0  0  0  0  0  0  0  0  0  0  0  0
  141.3381   74.0818  218.6889 H   0  0  0  0  0  0  0  0  0  0  0  0
  143.2928   74.3281  221.3573 H   0  0  0  0  0  0  0  0  0  0  0  0
  145.4791   73.2661  221.6209 H   0  0  0  0  0  0  0  0  0  0  0  0
  145.9183   72.9626  217.4368 H   0  0  0  0  0  0  0  0  0  0  0  0
  143.7148   74.0349  217.1088 H   0  0  0  0  0  0  0  0  0  0  0  0
  139.2891   70.0535  222.0824 H   0  0  0  0  0  0  0  0  0  0  0  0
  139.1192   68.5093  224.0209 H   0  0  0  0  0  0  0  0  0  0  0  0
  139.5194   67.9841  226.3290 H   0  0  0  0  0  0  0  0  0  0  0  0
  141.5213   70.8744  228.7775 H   0  0  0  0  0  0  0  0  0  0  0  0
  141.7177   72.4588  226.8727 H   0  0  0  0  0  0  0  0  0  0  0  0
  1  2  2  0
  2  3  1  0
  3  4  1  0
  4  5  1  0
  5  6  2  0
  5  7  1  0
  7  8  1  0
  8  9  1  0
  9 10  1  0
 10 11  1  0
 11 12  1  0
 12 13  2  0
 13 14  1  0
 14 15  2  0
 15 16  1  0
 16 17  2  0
  2 18  1  0
 18 19  2  0
 19 20  1  0
 20 21  2  0
 21 22  1  0
 22 23  2  0
 23 24  1  0
 23 25  1  0
 25 26  2  0
 26 27  1  0
 27 28  2  0
 11  7  1  0
 17 12  1  0
 28 18  1  0
 27 21  1  0
  3 29  1  0
  4 30  1  0
  4 31  1  0
  8 32  1  0
  8 33  1  0
  9 34  1  0
  9 35  1  0
 10 36  1  0
 10 37  1  0
 11 38  1  6
 13 39  1  0
 14 40  1  0
 16 41  1  0
 17 42  1  0
 19 43  1  0
 20 44  1  0
 22 45  1  0
 25 46  1  0
 26 47  1  0
M  END
>  <smiles>  (54) 
O=C(NCC(=O)N1CCCC1c1ccncc1)c1ccc2cc(Cl)ccc2n1

>  <score_type>  (54) 
oracle

>  <origin>  (54) 
autodockgpu

>  <m_score__min__energy>  (54) 
-8.5

>  <m_primary>  (54) 
energy

>  <rmsd>  (54) 
2.258127249701865

>  <m_score__min__rmsd>  (54) 
2.258127249701865

>  <meeko>  (54) 
{"free_energy": -7.97, "intermolecular_energy": -9.46, "internal_energy": -1.48, "cluster_size": 13, "cluster_id": 2, "rank_in_cluster": 7}

>  <energy>  (54) 
-8.46

>  <cluster_rmsd>  (54) 
0.84

>  <cluster>  (54) 
1

$$$$

     RDKit          3D

 47 50  0  0  0  0  0  0  0  0999 V2000
  138.5860   71.5870  220.9610 O   0  0  0  0  0  0  0  0  0  0  0  0
  138.9170   72.0880  222.0860 C   0  0  0  0  0  0  0  0  0  0  0  0
  138.9780   73.4990  222.2320 N   0  0  0  0  0  0  0  0  0  0  0  0
  138.6580   74.3060  221.0830 C   0  0  0  0  0  0  0  0  0  0  0  0
  138.8860   75.7220  221.4070 C   0  0  0  0  0  0  0  0  0  0  0  0
  138.0140   76.5010  221.8740 O   0  0  0  0  0  0  0  0  0  0  0  0
  140.1840   76.2570  221.1770 N   0  0  0  0  0  0  0  0  0  0  0  0
  141.0510   76.9770  222.1120 C   0  0  0  0  0  0  0  0  0  0  0  0
  141.5220   78.1320  221.2750 C   0  0  0  0  0  0  0  0  0  0  0  0
  141.4170   77.6560  219.8580 C   0  0  0  0  0  0  0  0  0  0  0  0
  140.9710   76.2170  219.9350 C   0  0  1  0  0  0  0  0  0  0  0  0
  142.0530   75.2600  220.1780 C   0  0  0  0  0  0  0  0  0  0  0  0
  141.9030   73.9790  220.6320 C   0  0  0  0  0  0  0  0  0  0  0  0
  142.9890   73.1530  220.8300 C   0  0  0  0  0  0  0  0  0  0  0  0
  144.2460   73.5470  220.5920 N   0  0  0  0  0  0  0  0  0  0  0  0
  144.4360   74.8150  220.1390 C   0  0  0  0  0  0  0  0  0  0  0  0
  143.3660   75.6770  219.9280 C   0  0  0  0  0  0  0  0  0  0  0  0
  139.2350   71.2100  223.2300 C   0  0  0  0  0  0  0  0  0  0  0  0
  138.9070   69.8730  223.1400 C   0  0  0  0  0  0  0  0  0  0  0  0
  139.2080   69.0620  224.2110 C   0  0  0  0  0  0  0  0  0  0  0  0
  139.8170   69.5680  225.3400 C   0  0  0  0  0  0  0  0  0  0  0  0
  140.1090   68.7220  226.4100 C   0  0  0  0  0  0  0  0  0  0  0  0
  140.7190   69.2590  227.5220 C   0  0  0  0  0  0  0  0  0  0  0  0
  141.0740   68.1740  228.8540 Cl  0  0  0  0  0  0  0  0  0  0  0  0
  141.0220   70.6040  227.5530 C   0  0  0  0  0  0  0  0  0  0  0  0
  140.7430   71.4640  226.5060 C   0  0  0  0  0  0  0  0  0  0  0  0
  140.1320   70.9140  225.3980 C   0  0  0  0  0  0  0  0  0  0  0  0
  139.8280   71.6830  224.3390 N   0  0  0  0  0  0  0  0  0  0  0  0
  139.2480   73.8820  223.1460 H   0  0  0  0  0  0  0  0  0  0  0  0
  139.2995   74.0141  220.2384 H   0  0  0  0  0  0  0  0  0  0  0  0
  137.6036   74.1553  220.8081 H   0  0  0  0  0  0  0  0  0  0  0  0
  140.4892   77.3239  222.9918 H   0  0  0  0  0  0  0  0  0  0  0  0
  141.8674   76.3640  222.5215 H   0  0  0  0  0  0  0  0  0  0  0  0
  140.8813   79.0117  221.4353 H   0  0  0  0  0  0  0  0  0  0  0  0
  142.5472   78.4364  221.5325 H   0  0  0  0  0  0  0  0  0  0  0  0
  140.6781   78.2562  219.3069 H   0  0  0  0  0  0  0  0  0  0  0  0
  142.3762   77.7528  219.3282 H   0  0  0  0  0  0  0  0  0  0  0  0
  140.4849   75.8979  219.0012 H   0  0  0  0  0  0  0  0  0  0  0  0
  140.8928   73.5988  220.8441 H   0  0  0  0  0  0  0  0  0  0  0  0
  142.8159   72.1308  221.1977 H   0  0  0  0  0  0  0  0  0  0  0  0
  145.4583   75.1662  219.9352 H   0  0  0  0  0  0  0  0  0  0  0  0
  143.5527   76.6970  219.5609 H   0  0  0  0  0  0  0  0  0  0  0  0
  138.4202   69.4677  222.2407 H   0  0  0  0  0  0  0  0  0  0  0  0
  138.9583   67.9917  224.1653 H   0  0  0  0  0  0  0  0  0  0  0  0
  139.8581   67.6519  226.3667 H   0  0  0  0  0  0  0  0  0  0  0  0
  141.5079   71.0118  228.4517 H   0  0  0  0  0  0  0  0  0  0  0  0
  140.9958   72.5335  226.5545 H   0  0  0  0  0  0  0  0  0  0  0  0
  1  2  2  0
  2  3  1  0
  3  4  1  0
  4  5  1  0
  5  6  2  0
  5  7  1  0
  7  8  1  0
  8  9  1  0
  9 10  1  0
 10 11  1  0
 11 12  1  0
 12 13  2  0
 13 14  1  0
 14 15  2  0
 15 16  1  0
 16 17  2  0
  2 18  1  0
 18 19  2  0
 19 20  1  0
 20 21  2  0
 21 22  1  0
 22 23  2  0
 23 24  1  0
 23 25  1  0
 25 26  2  0
 26 27  1  0
 27 28  2  0
 11  7  1  0
 17 12  1  0
 28 18  1  0
 27 21  1  0
  3 29  1  0
  4 30  1  0
  4 31  1  0
  8 32  1  0
  8 33  1  0
  9 34  1  0
  9 35  1  0
 10 36  1  0
 10 37  1  0
 11 38  1  6
 13 39  1  0
 14 40  1  0
 16 41  1  0
 17 42  1  0
 19 43  1  0
 20 44  1  0
 22 45  1  0
 25 46  1  0
 26 47  1  0
M  END
>  <smiles>  (55) 
O=C(NCC(=O)N1CCCC1c1ccncc1)c1ccc2cc(Cl)ccc2n1

>  <score_type>  (55) 
oracle

>  <origin>  (55) 
autodockgpu

>  <m_score__min__energy>  (55) 
-8.5

>  <m_primary>  (55) 
energy

>  <rmsd>  (55) 
2.1961547299948165

>  <m_score__min__rmsd>  (55) 
2.1961547299948165

>  <meeko>  (55) 
{"free_energy": -7.55, "intermolecular_energy": -9.05, "internal_energy": -1.65, "cluster_size": 13, "cluster_id": 2, "rank_in_cluster": 12}

>  <energy>  (55) 
-8.45

>  <cluster_rmsd>  (55) 
0.82

>  <cluster>  (55) 
1

$$$$

     RDKit          3D

 47 50  0  0  0  0  0  0  0  0999 V2000
  140.2730   72.4410  220.8830 O   0  0  0  0  0  0  0  0  0  0  0  0
  139.9380   72.7780  222.0670 C   0  0  0  0  0  0  0  0  0  0  0  0
  139.5080   74.1080  222.3210 N   0  0  0  0  0  0  0  0  0  0  0  0
  139.4710   75.0240  221.2100 C   0  0  0  0  0  0  0  0  0  0  0  0
  139.3150   76.3940  221.7180 C   0  0  0  0  0  0  0  0  0  0  0  0
  138.6040   76.7160  222.7070 O   0  0  0  0  0  0  0  0  0  0  0  0
  140.0130   77.4370  221.0500 N   0  0  0  0  0  0  0  0  0  0  0  0
  139.4690   78.5040  220.2080 C   0  0  0  0  0  0  0  0  0  0  0  0
  140.4070   78.4880  219.0350 C   0  0  0  0  0  0  0  0  0  0  0  0
  141.6840   77.9090  219.5650 C   0  0  0  0  0  0  0  0  0  0  0  0
  141.4620   77.6950  221.0420 C   0  0  1  0  0  0  0  0  0  0  0  0
  141.6600   78.8910  221.8640 C   0  0  0  0  0  0  0  0  0  0  0  0
  141.5530   78.9540  223.2250 C   0  0  0  0  0  0  0  0  0  0  0  0
  141.7600   80.1330  223.9100 C   0  0  0  0  0  0  0  0  0  0  0  0
  142.0740   81.2780  223.2940 N   0  0  0  0  0  0  0  0  0  0  0  0
  142.1900   81.2560  221.9390 C   0  0  0  0  0  0  0  0  0  0  0  0
  141.9890   80.0860  221.2150 C   0  0  0  0  0  0  0  0  0  0  0  0
  139.9960   71.7940  223.1670 C   0  0  0  0  0  0  0  0  0  0  0  0
  139.5510   70.5120  222.9230 C   0  0  0  0  0  0  0  0  0  0  0  0
  139.6090   69.6020  223.9540 C   0  0  0  0  0  0  0  0  0  0  0  0
  140.0970   69.9590  225.1940 C   0  0  0  0  0  0  0  0  0  0  0  0
  140.1430   69.0160  226.2190 C   0  0  0  0  0  0  0  0  0  0  0  0
  140.6370   69.4040  227.4460 C   0  0  0  0  0  0  0  0  0  0  0  0
  140.6840   68.1990  228.7190 Cl  0  0  0  0  0  0  0  0  0  0  0  0
  141.0670   70.7010  227.6280 C   0  0  0  0  0  0  0  0  0  0  0  0
  141.0320   71.6560  226.6280 C   0  0  0  0  0  0  0  0  0  0  0  0
  140.5360   71.2540  225.4050 C   0  0  0  0  0  0  0  0  0  0  0  0
  140.4680   72.1220  224.3820 N   0  0  0  0  0  0  0  0  0  0  0  0
  139.2440   74.3580  223.2820 H   0  0  0  0  0  0  0  0  0  0  0  0
  140.4081   74.9478  220.6391 H   0  0  0  0  0  0  0  0  0  0  0  0
  138.6242   74.7747  220.5537 H   0  0  0  0  0  0  0  0  0  0  0  0
  138.4375   78.2810  219.8975 H   0  0  0  0  0  0  0  0  0  0  0  0
  139.4085   79.4793  220.7132 H   0  0  0  0  0  0  0  0  0  0  0  0
  140.0042   77.8599  218.2268 H   0  0  0  0  0  0  0  0  0  0  0  0
  140.5542   79.4922  218.6109 H   0  0  0  0  0  0  0  0  0  0  0  0
  141.9047   76.9523  219.0691 H   0  0  0  0  0  0  0  0  0  0  0  0
  142.5375   78.5774  219.3785 H   0  0  0  0  0  0  0  0  0  0  0  0
  142.1457   76.9325  221.4434 H   0  0  0  0  0  0  0  0  0  0  0  0
  141.2960   78.0439  223.7868 H   0  0  0  0  0  0  0  0  0  0  0  0
  141.6631   80.1317  225.0057 H   0  0  0  0  0  0  0  0  0  0  0  0
  142.4480   82.1825  221.4051 H   0  0  0  0  0  0  0  0  0  0  0  0
  142.0898   80.1001  220.1197 H   0  0  0  0  0  0  0  0  0  0  0  0
  139.1617   70.2254  221.9349 H   0  0  0  0  0  0  0  0  0  0  0  0
  139.2602   68.5723  223.7864 H   0  0  0  0  0  0  0  0  0  0  0  0
  139.7934   67.9864  226.0529 H   0  0  0  0  0  0  0  0  0  0  0  0
  141.4564   70.9902  228.6153 H   0  0  0  0  0  0  0  0  0  0  0  0
  141.3821   72.6846  226.7993 H   0  0  0  0  0  0  0  0  0  0  0  0
  1  2  2  0
  2  3  1  0
  3  4  1  0
  4  5  1  0
  5  6  2  0
  5  7  1  0
  7  8  1  0
  8  9  1  0
  9 10  1  0
 10 11  1  0
 11 12  1  0
 12 13  2  0
 13 14  1  0
 14 15  2  0
 15 16  1  0
 16 17  2  0
  2 18  1  0
 18 19  2  0
 19 20  1  0
 20 21  2  0
 21 22  1  0
 22 23  2  0
 23 24  1  0
 23 25  1  0
 25 26  2  0
 26 27  1  0
 27 28  2  0
 11  7  1  0
 17 12  1  0
 28 18  1  0
 27 21  1  0
  3 29  1  0
  4 30  1  0
  4 31  1  0
  8 32  1  0
  8 33  1  0
  9 34  1  0
  9 35  1  0
 10 36  1  0
 10 37  1  0
 11 38  1  1
 13 39  1  0
 14 40  1  0
 16 41  1  0
 17 42  1  0
 19 43  1  0
 20 44  1  0
 22 45  1  0
 25 46  1  0
 26 47  1  0
M  END
>  <smiles>  (56) 
O=C(NCC(=O)N1CCCC1c1ccncc1)c1ccc2cc(Cl)ccc2n1

>  <score_type>  (56) 
oracle

>  <origin>  (56) 
autodockgpu

>  <m_score__min__energy>  (56) 
-8.5

>  <m_primary>  (56) 
energy

>  <rmsd>  (56) 
2.0642129029104197

>  <m_score__min__rmsd>  (56) 
2.0642129029104197

>  <meeko>  (56) 
{"free_energy": -8.34, "intermolecular_energy": -9.83, "internal_energy": -1.37, "cluster_size": 33, "cluster_id": 1, "rank_in_cluster": 16}

>  <energy>  (56) 
-8.44

>  <cluster_rmsd>  (56) 
0.39

>  <cluster>  (56) 
1

$$$$

     RDKit          3D

 47 50  0  0  0  0  0  0  0  0999 V2000
  140.7640   72.7670  221.1120 O   0  0  0  0  0  0  0  0  0  0  0  0
  140.0130   72.8810  222.1370 C   0  0  0  0  0  0  0  0  0  0  0  0
  139.1170   73.9780  222.2280 N   0  0  0  0  0  0  0  0  0  0  0  0
  139.1010   74.9230  221.1420 C   0  0  0  0  0  0  0  0  0  0  0  0
  139.1450   76.2880  221.6860 C   0  0  0  0  0  0  0  0  0  0  0  0
  138.4740   76.6880  222.6730 O   0  0  0  0  0  0  0  0  0  0  0  0
  140.0060   77.2290  221.0570 N   0  0  0  0  0  0  0  0  0  0  0  0
  139.6860   78.1920  220.0010 C   0  0  0  0  0  0  0  0  0  0  0  0
  140.8400   78.0160  219.0570 C   0  0  0  0  0  0  0  0  0  0  0  0
  141.9590   77.4890  219.9020 C   0  0  0  0  0  0  0  0  0  0  0  0
  141.4350   77.4620  221.3160 C   0  0  1  0  0  0  0  0  0  0  0  0
  141.5110   78.7480  222.0140 C   0  0  0  0  0  0  0  0  0  0  0  0
  141.0420   79.0050  223.2730 C   0  0  0  0  0  0  0  0  0  0  0  0
  141.1620   80.2530  223.8450 C   0  0  0  0  0  0  0  0  0  0  0  0
  141.7380   81.2830  223.2120 N   0  0  0  0  0  0  0  0  0  0  0  0
  142.2160   81.0660  221.9580 C   0  0  0  0  0  0  0  0  0  0  0  0
  142.1130   79.8210  221.3490 C   0  0  0  0  0  0  0  0  0  0  0  0
  140.0740   71.8790  223.2200 C   0  0  0  0  0  0  0  0  0  0  0  0
  139.6560   70.5930  222.9480 C   0  0  0  0  0  0  0  0  0  0  0  0
  139.7170   69.6670  223.9650 C   0  0  0  0  0  0  0  0  0  0  0  0
  140.1790   70.0120  225.2180 C   0  0  0  0  0  0  0  0  0  0  0  0
  140.2290   69.0520  226.2280 C   0  0  0  0  0  0  0  0  0  0  0  0
  140.6960   69.4290  227.4680 C   0  0  0  0  0  0  0  0  0  0  0  0
  140.7480   68.2030  228.7210 Cl  0  0  0  0  0  0  0  0  0  0  0  0
  141.1000   70.7310  227.6780 C   0  0  0  0  0  0  0  0  0  0  0  0
  141.0610   71.7010  226.6940 C   0  0  0  0  0  0  0  0  0  0  0  0
  140.5900   71.3110  225.4570 C   0  0  0  0  0  0  0  0  0  0  0  0
  140.5210   72.1950  224.4470 N   0  0  0  0  0  0  0  0  0  0  0  0
  138.5220   74.0510  223.0630 H   0  0  0  0  0  0  0  0  0  0  0  0
  139.9760   74.7561  220.4966 H   0  0  0  0  0  0  0  0  0  0  0  0
  138.1824   74.7907  220.5515 H   0  0  0  0  0  0  0  0  0  0  0  0
  138.7304   77.9479  219.5138 H   0  0  0  0  0  0  0  0  0  0  0  0
  139.5634   79.2232  220.3638 H   0  0  0  0  0  0  0  0  0  0  0  0
  140.5840   77.2981  218.2638 H   0  0  0  0  0  0  0  0  0  0  0  0
  141.1100   78.9575  218.5563 H   0  0  0  0  0  0  0  0  0  0  0  0
  142.2377   76.4753  219.5783 H   0  0  0  0  0  0  0  0  0  0  0  0
  142.8581   78.1171  219.8174 H   0  0  0  0  0  0  0  0  0  0  0  0
  141.9920   76.7444  221.9363 H   0  0  0  0  0  0  0  0  0  0  0  0
  140.5581   78.1973  223.8417 H   0  0  0  0  0  0  0  0  0  0  0  0
  140.7695   80.4091  224.8607 H   0  0  0  0  0  0  0  0  0  0  0  0
  142.6945   81.8935  221.4137 H   0  0  0  0  0  0  0  0  0  0  0  0
  142.5093   79.6780  220.3329 H   0  0  0  0  0  0  0  0  0  0  0  0
  139.2856   70.3160  221.9500 H   0  0  0  0  0  0  0  0  0  0  0  0
  139.3915   68.6336  223.7749 H   0  0  0  0  0  0  0  0  0  0  0  0
  139.9034   68.0184  226.0392 H   0  0  0  0  0  0  0  0  0  0  0  0
  141.4706   71.0105  228.6753 H   0  0  0  0  0  0  0  0  0  0  0  0
  141.3892   72.7329  226.8875 H   0  0  0  0  0  0  0  0  0  0  0  0
  1  2  2  0
  2  3  1  0
  3  4  1  0
  4  5  1  0
  5  6  2  0
  5  7  1  0
  7  8  1  0
  8  9  1  0
  9 10  1  0
 10 11  1  0
 11 12  1  0
 12 13  2  0
 13 14  1  0
 14 15  2  0
 15 16  1  0
 16 17  2  0
  2 18  1  0
 18 19  2  0
 19 20  1  0
 20 21  2  0
 21 22  1  0
 22 23  2  0
 23 24  1  0
 23 25  1  0
 25 26  2  0
 26 27  1  0
 27 28  2  0
 11  7  1  0
 17 12  1  0
 28 18  1  0
 27 21  1  0
  3 29  1  0
  4 30  1  0
  4 31  1  0
  8 32  1  0
  8 33  1  0
  9 34  1  0
  9 35  1  0
 10 36  1  0
 10 37  1  0
 11 38  1  1
 13 39  1  0
 14 40  1  0
 16 41  1  0
 17 42  1  0
 19 43  1  0
 20 44  1  0
 22 45  1  0
 25 46  1  0
 26 47  1  0
M  END
>  <smiles>  (57) 
O=C(NCC(=O)N1CCCC1c1ccncc1)c1ccc2cc(Cl)ccc2n1

>  <score_type>  (57) 
oracle

>  <origin>  (57) 
autodockgpu

>  <m_score__min__energy>  (57) 
-8.5

>  <m_primary>  (57) 
energy

>  <rmsd>  (57) 
2.0104824069353717

>  <m_score__min__rmsd>  (57) 
2.0104824069353717

>  <meeko>  (57) 
{"free_energy": -8.32, "intermolecular_energy": -9.81, "internal_energy": -1.29, "cluster_size": 33, "cluster_id": 1, "rank_in_cluster": 20}

>  <energy>  (57) 
-8.42

>  <cluster_rmsd>  (57) 
0.57

>  <cluster>  (57) 
1

$$$$

     RDKit          3D

 47 50  0  0  0  0  0  0  0  0999 V2000
  141.0710   72.4740  220.8520 O   0  0  0  0  0  0  0  0  0  0  0  0
  140.3540   72.7690  221.8650 C   0  0  0  0  0  0  0  0  0  0  0  0
  139.6500   74.0020  221.8890 N   0  0  0  0  0  0  0  0  0  0  0  0
  139.7820   74.8710  220.7490 C   0  0  0  0  0  0  0  0  0  0  0  0
  140.9390   75.7570  220.9470 C   0  0  0  0  0  0  0  0  0  0  0  0
  141.1390   76.4560  221.9750 O   0  0  0  0  0  0  0  0  0  0  0  0
  141.9040   75.8350  219.9060 N   0  0  0  0  0  0  0  0  0  0  0  0
  142.8560   76.9120  219.6250 C   0  0  0  0  0  0  0  0  0  0  0  0
  142.7140   77.0750  218.1390 C   0  0  0  0  0  0  0  0  0  0  0  0
  142.2210   75.7490  217.6460 C   0  0  0  0  0  0  0  0  0  0  0  0
  142.1810   74.8460  218.8530 C   0  0  1  0  0  0  0  0  0  0  0  0
  143.4690   74.2410  219.2000 C   0  0  0  0  0  0  0  0  0  0  0  0
  144.0210   74.1930  220.4500 C   0  0  0  0  0  0  0  0  0  0  0  0
  145.2450   73.5990  220.6740 C   0  0  0  0  0  0  0  0  0  0  0  0
  145.9620   73.0360  219.6950 N   0  0  0  0  0  0  0  0  0  0  0  0
  145.4460   73.0620  218.4370 C   0  0  0  0  0  0  0  0  0  0  0  0
  144.2160   73.6530  218.1730 C   0  0  0  0  0  0  0  0  0  0  0  0
  140.2570   71.8360  223.0060 C   0  0  0  0  0  0  0  0  0  0  0  0
  139.6720   70.6040  222.7970 C   0  0  0  0  0  0  0  0  0  0  0  0
  139.5860   69.7420  223.8670 C   0  0  0  0  0  0  0  0  0  0  0  0
  140.0670   70.0960  225.1100 C   0  0  0  0  0  0  0  0  0  0  0  0
  139.9660   69.2020  226.1740 C   0  0  0  0  0  0  0  0  0  0  0  0
  140.4570   69.5860  227.4030 C   0  0  0  0  0  0  0  0  0  0  0  0
  140.3160   68.4430  228.7250 Cl  0  0  0  0  0  0  0  0  0  0  0  0
  141.0300   70.8320  227.5490 C   0  0  0  0  0  0  0  0  0  0  0  0
  141.1430   71.7370  226.5100 C   0  0  0  0  0  0  0  0  0  0  0  0
  140.6480   71.3400  225.2850 C   0  0  0  0  0  0  0  0  0  0  0  0
  140.7190   72.1620  224.2250 N   0  0  0  0  0  0  0  0  0  0  0  0
  139.0790   74.2190  222.7150 H   0  0  0  0  0  0  0  0  0  0  0  0
  139.9320   74.2673  219.8418 H   0  0  0  0  0  0  0  0  0  0  0  0
  138.8693   75.4748  220.6372 H   0  0  0  0  0  0  0  0  0  0  0  0
  142.5827   77.8356  220.1562 H   0  0  0  0  0  0  0  0  0  0  0  0
  143.8833   76.6918  219.9507 H   0  0  0  0  0  0  0  0  0  0  0  0
  141.9884   77.8680  217.9051 H   0  0  0  0  0  0  0  0  0  0  0  0
  143.6629   77.3644  217.6637 H   0  0  0  0  0  0  0  0  0  0  0  0
  141.2154   75.8522  217.2123 H   0  0  0  0  0  0  0  0  0  0  0  0
  142.8747   75.3427  216.8601 H   0  0  0  0  0  0  0  0  0  0  0  0
  141.4818   74.0099  218.7046 H   0  0  0  0  0  0  0  0  0  0  0  0
  143.4765   74.6382  221.2958 H   0  0  0  0  0  0  0  0  0  0  0  0
  145.6476   73.5876  221.6976 H   0  0  0  0  0  0  0  0  0  0  0  0
  146.0133   72.6063  217.6121 H   0  0  0  0  0  0  0  0  0  0  0  0
  143.8252   73.6586  217.1448 H   0  0  0  0  0  0  0  0  0  0  0  0
  139.2865   70.3195  221.8068 H   0  0  0  0  0  0  0  0  0  0  0  0
  139.1252   68.7529  223.7279 H   0  0  0  0  0  0  0  0  0  0  0  0
  139.5051   68.2128  226.0361 H   0  0  0  0  0  0  0  0  0  0  0  0
  141.4152   71.1192  228.5385 H   0  0  0  0  0  0  0  0  0  0  0  0
  141.6049   72.7250  226.6530 H   0  0  0  0  0  0  0  0  0  0  0  0
  1  2  2  0
  2  3  1  0
  3  4  1  0
  4  5  1  0
  5  6  2  0
  5  7  1  0
  7  8  1  0
  8  9  1  0
  9 10  1  0
 10 11  1  0
 11 12  1  0
 12 13  2  0
 13 14  1  0
 14 15  2  0
 15 16  1  0
 16 17  2  0
  2 18  1  0
 18 19  2  0
 19 20  1  0
 20 21  2  0
 21 22  1  0
 22 23  2  0
 23 24  1  0
 23 25  1  0
 25 26  2  0
 26 27  1  0
 27 28  2  0
 11  7  1  0
 17 12  1  0
 28 18  1  0
 27 21  1  0
  3 29  1  0
  4 30  1  0
  4 31  1  0
  8 32  1  0
  8 33  1  0
  9 34  1  0
  9 35  1  0
 10 36  1  0
 10 37  1  0
 11 38  1  6
 13 39  1  0
 14 40  1  0
 16 41  1  0
 17 42  1  0
 19 43  1  0
 20 44  1  0
 22 45  1  0
 25 46  1  0
 26 47  1  0
M  END
>  <smiles>  (58) 
O=C(NCC(=O)N1CCCC1c1ccncc1)c1ccc2cc(Cl)ccc2n1

>  <score_type>  (58) 
oracle

>  <origin>  (58) 
autodockgpu

>  <m_score__min__energy>  (58) 
-8.5

>  <m_primary>  (58) 
energy

>  <rmsd>  (58) 
2.3939348353568595

>  <m_score__min__rmsd>  (58) 
2.3939348353568595

>  <meeko>  (58) 
{"free_energy": -8.16, "intermolecular_energy": -9.65, "internal_energy": -1.51, "cluster_size": 13, "cluster_id": 2, "rank_in_cluster": 1}

>  <energy>  (58) 
-8.41

>  <cluster_rmsd>  (58) 
0.85

>  <cluster>  (58) 
1

$$$$

     RDKit          3D

 47 50  0  0  0  0  0  0  0  0999 V2000
  140.2810   72.3500  220.7770 O   0  0  0  0  0  0  0  0  0  0  0  0
  139.9410   72.7160  221.9510 C   0  0  0  0  0  0  0  0  0  0  0  0
  139.5060   74.0490  222.1690 N   0  0  0  0  0  0  0  0  0  0  0  0
  139.4690   74.9370  221.0350 C   0  0  0  0  0  0  0  0  0  0  0  0
  140.7590   75.6340  220.9240 C   0  0  0  0  0  0  0  0  0  0  0  0
  141.8840   75.0870  221.0700 O   0  0  0  0  0  0  0  0  0  0  0  0
  140.7420   77.0250  220.6320 N   0  0  0  0  0  0  0  0  0  0  0  0
  139.5880   77.8840  220.3560 C   0  0  0  0  0  0  0  0  0  0  0  0
  140.0550   78.6600  219.1580 C   0  0  0  0  0  0  0  0  0  0  0  0
  141.5510   78.6500  219.2460 C   0  0  0  0  0  0  0  0  0  0  0  0
  141.8870   77.9430  220.5360 C   0  0  1  0  0  0  0  0  0  0  0  0
  141.8210   78.7930  221.7270 C   0  0  0  0  0  0  0  0  0  0  0  0
  141.4420   78.3910  222.9770 C   0  0  0  0  0  0  0  0  0  0  0  0
  141.4120   79.2710  224.0380 C   0  0  0  0  0  0  0  0  0  0  0  0
  141.7490   80.5610  223.9140 N   0  0  0  0  0  0  0  0  0  0  0  0
  142.1320   80.9980  222.6850 C   0  0  0  0  0  0  0  0  0  0  0  0
  142.1740   80.1400  221.5920 C   0  0  0  0  0  0  0  0  0  0  0  0
  139.9990   71.7600  223.0760 C   0  0  0  0  0  0  0  0  0  0  0  0
  139.5410   70.4750  222.8690 C   0  0  0  0  0  0  0  0  0  0  0  0
  139.5990   69.5930  223.9230 C   0  0  0  0  0  0  0  0  0  0  0  0
  140.0980   69.9780  225.1490 C   0  0  0  0  0  0  0  0  0  0  0  0
  140.1450   69.0610  226.1990 C   0  0  0  0  0  0  0  0  0  0  0  0
  140.6510   69.4770  227.4110 C   0  0  0  0  0  0  0  0  0  0  0  0
  140.6970   68.3050  228.7150 Cl  0  0  0  0  0  0  0  0  0  0  0  0
  141.0940   70.7750  227.5560 C   0  0  0  0  0  0  0  0  0  0  0  0
  141.0590   71.7030  226.5310 C   0  0  0  0  0  0  0  0  0  0  0  0
  140.5500   71.2740  225.3230 C   0  0  0  0  0  0  0  0  0  0  0  0
  140.4820   72.1150  224.2780 N   0  0  0  0  0  0  0  0  0  0  0  0
  139.2370   74.3230  223.1220 H   0  0  0  0  0  0  0  0  0  0  0  0
  139.2845   74.3565  220.1191 H   0  0  0  0  0  0  0  0  0  0  0  0
  138.6619   75.6725  221.1679 H   0  0  0  0  0  0  0  0  0  0  0  0
  138.6933   77.2883  220.1223 H   0  0  0  0  0  0  0  0  0  0  0  0
  139.2927   78.5164  221.2062 H   0  0  0  0  0  0  0  0  0  0  0  0
  139.7194   78.1756  218.2292 H   0  0  0  0  0  0  0  0  0  0  0  0
  139.6495   79.6824  219.1452 H   0  0  0  0  0  0  0  0  0  0  0  0
  141.9806   78.1085  218.3903 H   0  0  0  0  0  0  0  0  0  0  0  0
  141.9626   79.6699  219.2265 H   0  0  0  0  0  0  0  0  0  0  0  0
  142.9060   77.5294  220.5131 H   0  0  0  0  0  0  0  0  0  0  0  0
  141.1545   77.3419  223.1403 H   0  0  0  0  0  0  0  0  0  0  0  0
  141.0991   78.8989  225.0247 H   0  0  0  0  0  0  0  0  0  0  0  0
  142.4147   82.0528  222.5526 H   0  0  0  0  0  0  0  0  0  0  0  0
  142.4882   80.5243  220.6104 H   0  0  0  0  0  0  0  0  0  0  0  0
  139.1420   70.1656  221.8917 H   0  0  0  0  0  0  0  0  0  0  0  0
  139.2408   68.5621  223.7851 H   0  0  0  0  0  0  0  0  0  0  0  0
  139.7865   68.0300  226.0626 H   0  0  0  0  0  0  0  0  0  0  0  0
  141.4937   71.0867  228.5322 H   0  0  0  0  0  0  0  0  0  0  0  0
  141.4194   72.7326  226.6723 H   0  0  0  0  0  0  0  0  0  0  0  0
  1  2  2  0
  2  3  1  0
  3  4  1  0
  4  5  1  0
  5  6  2  0
  5  7  1  0
  7  8  1  0
  8  9  1  0
  9 10  1  0
 10 11  1  0
 11 12  1  0
 12 13  2  0
 13 14  1  0
 14 15  2  0
 15 16  1  0
 16 17  2  0
  2 18  1  0
 18 19  2  0
 19 20  1  0
 20 21  2  0
 21 22  1  0
 22 23  2  0
 23 24  1  0
 23 25  1  0
 25 26  2  0
 26 27  1  0
 27 28  2  0
 11  7  1  0
 17 12  1  0
 28 18  1  0
 27 21  1  0
  3 29  1  0
  4 30  1  0
  4 31  1  0
  8 32  1  0
  8 33  1  0
  9 34  1  0
  9 35  1  0
 10 36  1  0
 10 37  1  0
 11 38  1  6
 13 39  1  0
 14 40  1  0
 16 41  1  0
 17 42  1  0
 19 43  1  0
 20 44  1  0
 22 45  1  0
 25 46  1  0
 26 47  1  0
M  END
>  <smiles>  (59) 
O=C(NCC(=O)N1CCCC1c1ccncc1)c1ccc2cc(Cl)ccc2n1

>  <score_type>  (59) 
oracle

>  <origin>  (59) 
autodockgpu

>  <m_score__min__energy>  (59) 
-8.5

>  <m_primary>  (59) 
energy

>  <rmsd>  (59) 
1.9250911081262307

>  <m_score__min__rmsd>  (59) 
1.9250911081262307

>  <meeko>  (59) 
{"free_energy": -8.41, "intermolecular_energy": -9.91, "internal_energy": -1.27, "cluster_size": 33, "cluster_id": 1, "rank_in_cluster": 8}

>  <energy>  (59) 
-8.41

>  <cluster_rmsd>  (59) 
0.87

>  <cluster>  (59) 
1

$$$$

     RDKit          3D

 47 50  0  0  0  0  0  0  0  0999 V2000
  140.2320   72.4440  220.7730 O   0  0  0  0  0  0  0  0  0  0  0  0
  139.9010   72.8080  221.9500 C   0  0  0  0  0  0  0  0  0  0  0  0
  139.4750   74.1440  222.1750 N   0  0  0  0  0  0  0  0  0  0  0  0
  139.4360   75.0350  221.0440 C   0  0  0  0  0  0  0  0  0  0  0  0
  140.7120   75.7590  220.9550 C   0  0  0  0  0  0  0  0  0  0  0  0
  141.8470   75.2320  221.0900 O   0  0  0  0  0  0  0  0  0  0  0  0
  140.6680   77.1570  220.6980 N   0  0  0  0  0  0  0  0  0  0  0  0
  139.4940   78.0190  220.5450 C   0  0  0  0  0  0  0  0  0  0  0  0
  139.8530   78.8240  219.3290 C   0  0  0  0  0  0  0  0  0  0  0  0
  141.3510   78.8160  219.2840 C   0  0  0  0  0  0  0  0  0  0  0  0
  141.8000   78.0800  220.5220 C   0  0  1  0  0  0  0  0  0  0  0  0
  141.8390   78.9020  221.7340 C   0  0  0  0  0  0  0  0  0  0  0  0
  142.1520   80.2320  221.7900 C   0  0  0  0  0  0  0  0  0  0  0  0
  142.1610   80.9200  222.9850 C   0  0  0  0  0  0  0  0  0  0  0  0
  141.8680   80.3370  224.1530 N   0  0  0  0  0  0  0  0  0  0  0  0
  141.5510   79.0140  224.1380 C   0  0  0  0  0  0  0  0  0  0  0  0
  141.5320   78.2880  222.9530 C   0  0  0  0  0  0  0  0  0  0  0  0
  139.9610   71.8490  223.0720 C   0  0  0  0  0  0  0  0  0  0  0  0
  139.4980   70.5670  222.8630 C   0  0  0  0  0  0  0  0  0  0  0  0
  139.5580   69.6800  223.9150 C   0  0  0  0  0  0  0  0  0  0  0  0
  140.0640   70.0600  225.1400 C   0  0  0  0  0  0  0  0  0  0  0  0
  140.1120   69.1400  226.1860 C   0  0  0  0  0  0  0  0  0  0  0  0
  140.6230   69.5510  227.3980 C   0  0  0  0  0  0  0  0  0  0  0  0
  140.6720   68.3750  228.6980 Cl  0  0  0  0  0  0  0  0  0  0  0  0
  141.0700   70.8480  227.5450 C   0  0  0  0  0  0  0  0  0  0  0  0
  141.0340   71.7790  226.5240 C   0  0  0  0  0  0  0  0  0  0  0  0
  140.5200   71.3550  225.3160 C   0  0  0  0  0  0  0  0  0  0  0  0
  140.4500   72.2000  224.2730 N   0  0  0  0  0  0  0  0  0  0  0  0
  139.2130   74.4160  223.1310 H   0  0  0  0  0  0  0  0  0  0  0  0
  139.2775   74.4542  220.1234 H   0  0  0  0  0  0  0  0  0  0  0  0
  138.6116   75.7528  221.1672 H   0  0  0  0  0  0  0  0  0  0  0  0
  138.5825   77.4266  220.3772 H   0  0  0  0  0  0  0  0  0  0  0  0
  139.2746   78.6307  221.4325 H   0  0  0  0  0  0  0  0  0  0  0  0
  139.4369   78.3605  218.4223 H   0  0  0  0  0  0  0  0  0  0  0  0
  139.4474   79.8454  219.3763 H   0  0  0  0  0  0  0  0  0  0  0  0
  141.7035   78.2959  218.3811 H   0  0  0  0  0  0  0  0  0  0  0  0
  141.7587   79.8372  219.2521 H   0  0  0  0  0  0  0  0  0  0  0  0
  142.8131   77.6695  220.3990 H   0  0  0  0  0  0  0  0  0  0  0  0
  142.4022   80.7650  220.8609 H   0  0  0  0  0  0  0  0  0  0  0  0
  142.4190   81.9893  222.9777 H   0  0  0  0  0  0  0  0  0  0  0  0
  141.3046   78.5085  225.0834 H   0  0  0  0  0  0  0  0  0  0  0  0
  141.2728   77.2192  222.9738 H   0  0  0  0  0  0  0  0  0  0  0  0
  139.0934   70.2623  221.8866 H   0  0  0  0  0  0  0  0  0  0  0  0
  139.1960   68.6507  223.7754 H   0  0  0  0  0  0  0  0  0  0  0  0
  139.7506   68.1104  226.0473 H   0  0  0  0  0  0  0  0  0  0  0  0
  141.4741   71.1556  228.5207 H   0  0  0  0  0  0  0  0  0  0  0  0
  141.3973   72.8073  226.6676 H   0  0  0  0  0  0  0  0  0  0  0  0
  1  2  2  0
  2  3  1  0
  3  4  1  0
  4  5  1  0
  5  6  2  0
  5  7  1  0
  7  8  1  0
  8  9  1  0
  9 10  1  0
 10 11  1  0
 11 12  1  0
 12 13  2  0
 13 14  1  0
 14 15  2  0
 15 16  1  0
 16 17  2  0
  2 18  1  0
 18 19  2  0
 19 20  1  0
 20 21  2  0
 21 22  1  0
 22 23  2  0
 23 24  1  0
 23 25  1  0
 25 26  2  0
 26 27  1  0
 27 28  2  0
 11  7  1  0
 17 12  1  0
 28 18  1  0
 27 21  1  0
  3 29  1  0
  4 30  1  0
  4 31  1  0
  8 32  1  0
  8 33  1  0
  9 34  1  0
  9 35  1  0
 10 36  1  0
 10 37  1  0
 11 38  1  6
 13 39  1  0
 14 40  1  0
 16 41  1  0
 17 42  1  0
 19 43  1  0
 20 44  1  0
 22 45  1  0
 25 46  1  0
 26 47  1  0
M  END
>  <smiles>  (60) 
O=C(NCC(=O)N1CCCC1c1ccncc1)c1ccc2cc(Cl)ccc2n1

>  <score_type>  (60) 
oracle

>  <origin>  (60) 
autodockgpu

>  <m_score__min__energy>  (60) 
-8.5

>  <m_primary>  (60) 
energy

>  <rmsd>  (60) 
2.0179978962584006

>  <m_score__min__rmsd>  (60) 
2.0179978962584006

>  <meeko>  (60) 
{"free_energy": -8.41, "intermolecular_energy": -9.9, "internal_energy": -1.26, "cluster_size": 33, "cluster_id": 1, "rank_in_cluster": 9}

>  <energy>  (60) 
-8.4

>  <cluster_rmsd>  (60) 
0.88

>  <cluster>  (60) 
1

$$$$

     RDKit          3D

 47 50  0  0  0  0  0  0  0  0999 V2000
  140.1980   72.4370  220.7600 O   0  0  0  0  0  0  0  0  0  0  0  0
  139.7920   72.7710  221.9220 C   0  0  0  0  0  0  0  0  0  0  0  0
  139.2440   74.0650  222.1260 N   0  0  0  0  0  0  0  0  0  0  0  0
  139.1730   74.9500  220.9920 C   0  0  0  0  0  0  0  0  0  0  0  0
  139.0440   76.3350  221.4660 C   0  0  0  0  0  0  0  0  0  0  0  0
  138.1160   76.7570  222.2060 O   0  0  0  0  0  0  0  0  0  0  0  0
  140.0340   77.2720  221.0620 N   0  0  0  0  0  0  0  0  0  0  0  0
  139.9350   78.3210  220.0440 C   0  0  0  0  0  0  0  0  0  0  0  0
  141.2250   78.1520  219.2940 C   0  0  0  0  0  0  0  0  0  0  0  0
  142.1640   77.5120  220.2710 C   0  0  0  0  0  0  0  0  0  0  0  0
  141.4060   77.4150  221.5720 C   0  0  1  0  0  0  0  0  0  0  0  0
  141.4120   78.6440  222.3690 C   0  0  0  0  0  0  0  0  0  0  0  0
  140.3700   79.1180  223.1180 C   0  0  0  0  0  0  0  0  0  0  0  0
  140.4750   80.2900  223.8350 C   0  0  0  0  0  0  0  0  0  0  0  0
  141.5900   81.0310  223.8460 N   0  0  0  0  0  0  0  0  0  0  0  0
  142.6480   80.5920  223.1140 C   0  0  0  0  0  0  0  0  0  0  0  0
  142.5790   79.4150  222.3770 C   0  0  0  0  0  0  0  0  0  0  0  0
  139.8910   71.8210  223.0480 C   0  0  0  0  0  0  0  0  0  0  0  0
  139.4700   70.5220  222.8490 C   0  0  0  0  0  0  0  0  0  0  0  0
  139.5660   69.6440  223.9040 C   0  0  0  0  0  0  0  0  0  0  0  0
  140.0660   70.0470  225.1250 C   0  0  0  0  0  0  0  0  0  0  0  0
  140.1510   69.1350  226.1760 C   0  0  0  0  0  0  0  0  0  0  0  0
  140.6560   69.5690  227.3810 C   0  0  0  0  0  0  0  0  0  0  0  0
  140.7520   68.4020  228.6870 Cl  0  0  0  0  0  0  0  0  0  0  0  0
  141.0610   70.8800  227.5190 C   0  0  0  0  0  0  0  0  0  0  0  0
  140.9870   71.8050  226.4930 C   0  0  0  0  0  0  0  0  0  0  0  0
  140.4800   71.3570  225.2910 C   0  0  0  0  0  0  0  0  0  0  0  0
  140.3750   72.1940  224.2450 N   0  0  0  0  0  0  0  0  0  0  0  0
  138.9240   74.3140  223.0700 H   0  0  0  0  0  0  0  0  0  0  0  0
  140.0886   74.8510  220.3904 H   0  0  0  0  0  0  0  0  0  0  0  0
  138.3014   74.6887  220.3739 H   0  0  0  0  0  0  0  0  0  0  0  0
  139.0671   78.1601  219.3876 H   0  0  0  0  0  0  0  0  0  0  0  0
  139.7926   79.3296  220.4593 H   0  0  0  0  0  0  0  0  0  0  0  0
  141.0797   77.5042  218.4170 H   0  0  0  0  0  0  0  0  0  0  0  0
  141.6118   79.1108  218.9183 H   0  0  0  0  0  0  0  0  0  0  0  0
  142.4545   76.5101  219.9220 H   0  0  0  0  0  0  0  0  0  0  0  0
  143.0881   78.0976  220.3852 H   0  0  0  0  0  0  0  0  0  0  0  0
  141.8216   76.6294  222.2201 H   0  0  0  0  0  0  0  0  0  0  0  0
  139.4278   78.5512  223.1485 H   0  0  0  0  0  0  0  0  0  0  0  0
  139.6087   80.6301  224.4214 H   0  0  0  0  0  0  0  0  0  0  0  0
  143.5777   81.1799  223.1045 H   0  0  0  0  0  0  0  0  0  0  0  0
  143.4519   79.0865  221.7937 H   0  0  0  0  0  0  0  0  0  0  0  0
  139.0699   70.1984  221.8768 H   0  0  0  0  0  0  0  0  0  0  0  0
  139.2383   68.6023  223.7716 H   0  0  0  0  0  0  0  0  0  0  0  0
  139.8224   68.0934  226.0456 H   0  0  0  0  0  0  0  0  0  0  0  0
  141.4617   71.2054  228.4904 H   0  0  0  0  0  0  0  0  0  0  0  0
  141.3160   72.8458  226.6290 H   0  0  0  0  0  0  0  0  0  0  0  0
  1  2  2  0
  2  3  1  0
  3  4  1  0
  4  5  1  0
  5  6  2  0
  5  7  1  0
  7  8  1  0
  8  9  1  0
  9 10  1  0
 10 11  1  0
 11 12  1  0
 12 13  2  0
 13 14  1  0
 14 15  2  0
 15 16  1  0
 16 17  2  0
  2 18  1  0
 18 19  2  0
 19 20  1  0
 20 21  2  0
 21 22  1  0
 22 23  2  0
 23 24  1  0
 23 25  1  0
 25 26  2  0
 26 27  1  0
 27 28  2  0
 11  7  1  0
 17 12  1  0
 28 18  1  0
 27 21  1  0
  3 29  1  0
  4 30  1  0
  4 31  1  0
  8 32  1  0
  8 33  1  0
  9 34  1  0
  9 35  1  0
 10 36  1  0
 10 37  1  0
 11 38  1  1
 13 39  1  0
 14 40  1  0
 16 41  1  0
 17 42  1  0
 19 43  1  0
 20 44  1  0
 22 45  1  0
 25 46  1  0
 26 47  1  0
M  END
>  <smiles>  (61) 
O=C(NCC(=O)N1CCCC1c1ccncc1)c1ccc2cc(Cl)ccc2n1

>  <score_type>  (61) 
oracle

>  <origin>  (61) 
autodockgpu

>  <m_score__min__energy>  (61) 
-8.5

>  <m_primary>  (61) 
energy

>  <rmsd>  (61) 
2.1153955875519146

>  <m_score__min__rmsd>  (61) 
2.1153955875519146

>  <meeko>  (61) 
{"free_energy": -8.48, "intermolecular_energy": -9.97, "internal_energy": -1.35, "cluster_size": 33, "cluster_id": 1, "rank_in_cluster": 2}

>  <energy>  (61) 
-8.4

>  <cluster_rmsd>  (61) 
0.88

>  <cluster>  (61) 
1

$$$$

     RDKit          3D

 47 50  0  0  0  0  0  0  0  0999 V2000
  140.0000   72.1540  220.7610 O   0  0  0  0  0  0  0  0  0  0  0  0
  139.8450   72.5610  221.9600 C   0  0  0  0  0  0  0  0  0  0  0  0
  139.5940   73.9370  222.2040 N   0  0  0  0  0  0  0  0  0  0  0  0
  139.5260   74.8180  221.0670 C   0  0  0  0  0  0  0  0  0  0  0  0
  140.7770   75.5860  220.9740 C   0  0  0  0  0  0  0  0  0  0  0  0
  141.9310   75.0910  221.0730 O   0  0  0  0  0  0  0  0  0  0  0  0
  140.6830   76.9880  220.7580 N   0  0  0  0  0  0  0  0  0  0  0  0
  139.4800   77.8150  220.6480 C   0  0  0  0  0  0  0  0  0  0  0  0
  139.7920   78.6650  219.4500 C   0  0  0  0  0  0  0  0  0  0  0  0
  141.2880   78.7070  219.3810 C   0  0  0  0  0  0  0  0  0  0  0  0
  141.7810   77.9520  220.5910 C   0  0  1  0  0  0  0  0  0  0  0  0
  141.8140   78.7410  221.8240 C   0  0  0  0  0  0  0  0  0  0  0  0
  141.5130   78.2820  223.0770 C   0  0  0  0  0  0  0  0  0  0  0  0
  141.5740   79.1070  224.1800 C   0  0  0  0  0  0  0  0  0  0  0  0
  141.9270   80.3950  224.0970 N   0  0  0  0  0  0  0  0  0  0  0  0
  142.2350   80.8880  222.8680 C   0  0  0  0  0  0  0  0  0  0  0  0
  142.1840   80.0870  221.7330 C   0  0  0  0  0  0  0  0  0  0  0  0
  139.9260   71.6090  223.0870 C   0  0  0  0  0  0  0  0  0  0  0  0
  139.4770   70.3200  222.8890 C   0  0  0  0  0  0  0  0  0  0  0  0
  139.5560   69.4410  223.9460 C   0  0  0  0  0  0  0  0  0  0  0  0
  140.0660   69.8340  225.1650 C   0  0  0  0  0  0  0  0  0  0  0  0
  140.1340   68.9210  226.2160 C   0  0  0  0  0  0  0  0  0  0  0  0
  140.6500   69.3460  227.4210 C   0  0  0  0  0  0  0  0  0  0  0  0
  140.7230   68.1790  228.7280 Cl  0  0  0  0  0  0  0  0  0  0  0  0
  141.0820   70.6490  227.5570 C   0  0  0  0  0  0  0  0  0  0  0  0
  141.0260   71.5730  226.5310 C   0  0  0  0  0  0  0  0  0  0  0  0
  140.5080   71.1350  225.3290 C   0  0  0  0  0  0  0  0  0  0  0  0
  140.4190   71.9730  224.2820 N   0  0  0  0  0  0  0  0  0  0  0  0
  139.4730   74.2430  223.1780 H   0  0  0  0  0  0  0  0  0  0  0  0
  139.3891   74.2256  220.1503 H   0  0  0  0  0  0  0  0  0  0  0  0
  138.6771   75.5077  221.1844 H   0  0  0  0  0  0  0  0  0  0  0  0
  138.5853   77.1980  220.4779 H   0  0  0  0  0  0  0  0  0  0  0  0
  139.2563   78.3943  221.5559 H   0  0  0  0  0  0  0  0  0  0  0  0
  139.3757   78.2138  218.5372 H   0  0  0  0  0  0  0  0  0  0  0  0
  139.3546   79.6709  219.5328 H   0  0  0  0  0  0  0  0  0  0  0  0
  141.6419   78.2236  218.4584 H   0  0  0  0  0  0  0  0  0  0  0  0
  141.6622   79.7413  219.3712 H   0  0  0  0  0  0  0  0  0  0  0  0
  142.8047   77.5782  220.4412 H   0  0  0  0  0  0  0  0  0  0  0  0
  141.2156   77.2310  223.2075 H   0  0  0  0  0  0  0  0  0  0  0  0
  141.3227   78.6902  225.1665 H   0  0  0  0  0  0  0  0  0  0  0  0
  142.5308   81.9429  222.7697 H   0  0  0  0  0  0  0  0  0  0  0  0
  142.4374   80.5163  220.7525 H   0  0  0  0  0  0  0  0  0  0  0  0
  139.0688   70.0042  221.9176 H   0  0  0  0  0  0  0  0  0  0  0  0
  139.2058   68.4065  223.8153 H   0  0  0  0  0  0  0  0  0  0  0  0
  139.7842   67.8861  226.0867 H   0  0  0  0  0  0  0  0  0  0  0  0
  141.4902   70.9674  228.5276 H   0  0  0  0  0  0  0  0  0  0  0  0
  141.3770   72.6068  226.6656 H   0  0  0  0  0  0  0  0  0  0  0  0
  1  2  2  0
  2  3  1  0
  3  4  1  0
  4  5  1  0
  5  6  2  0
  5  7  1  0
  7  8  1  0
  8  9  1  0
  9 10  1  0
 10 11  1  0
 11 12  1  0
 12 13  2  0
 13 14  1  0
 14 15  2  0
 15 16  1  0
 16 17  2  0
  2 18  1  0
 18 19  2  0
 19 20  1  0
 20 21  2  0
 21 22  1  0
 22 23  2  0
 23 24  1  0
 23 25  1  0
 25 26  2  0
 26 27  1  0
 27 28  2  0
 11  7  1  0
 17 12  1  0
 28 18  1  0
 27 21  1  0
  3 29  1  0
  4 30  1  0
  4 31  1  0
  8 32  1  0
  8 33  1  0
  9 34  1  0
  9 35  1  0
 10 36  1  0
 10 37  1  0
 11 38  1  6
 13 39  1  0
 14 40  1  0
 16 41  1  0
 17 42  1  0
 19 43  1  0
 20 44  1  0
 22 45  1  0
 25 46  1  0
 26 47  1  0
M  END
>  <smiles>  (62) 
O=C(NCC(=O)N1CCCC1c1ccncc1)c1ccc2cc(Cl)ccc2n1

>  <score_type>  (62) 
oracle

>  <origin>  (62) 
autodockgpu

>  <m_score__min__energy>  (62) 
-8.5

>  <m_primary>  (62) 
energy

>  <rmsd>  (62) 
1.916131075055406

>  <m_score__min__rmsd>  (62) 
1.916131075055406

>  <meeko>  (62) 
{"free_energy": -8.4, "intermolecular_energy": -9.89, "internal_energy": -1.29, "cluster_size": 33, "cluster_id": 1, "rank_in_cluster": 10}

>  <energy>  (62) 
-8.38

>  <cluster_rmsd>  (62) 
0.33

>  <cluster>  (62) 
1

$$$$

     RDKit          3D

 47 50  0  0  0  0  0  0  0  0999 V2000
  140.6390   72.7010  221.0350 O   0  0  0  0  0  0  0  0  0  0  0  0
  139.9370   72.8500  222.0890 C   0  0  0  0  0  0  0  0  0  0  0  0
  139.0820   73.9780  222.2070 N   0  0  0  0  0  0  0  0  0  0  0  0
  139.0500   74.9120  221.1110 C   0  0  0  0  0  0  0  0  0  0  0  0
  138.9940   76.2810  221.6430 C   0  0  0  0  0  0  0  0  0  0  0  0
  138.1510   76.6880  222.4860 O   0  0  0  0  0  0  0  0  0  0  0  0
  139.9560   77.2180  221.1770 N   0  0  0  0  0  0  0  0  0  0  0  0
  139.8070   78.2340  220.1340 C   0  0  0  0  0  0  0  0  0  0  0  0
  141.0720   78.0590  219.3430 C   0  0  0  0  0  0  0  0  0  0  0  0
  142.0530   77.4590  220.3040 C   0  0  0  0  0  0  0  0  0  0  0  0
  141.3440   77.3910  221.6340 C   0  0  1  0  0  0  0  0  0  0  0  0
  141.3630   78.6430  222.3940 C   0  0  0  0  0  0  0  0  0  0  0  0
  140.3240   79.1530  223.1230 C   0  0  0  0  0  0  0  0  0  0  0  0
  140.4410   80.3440  223.8070 C   0  0  0  0  0  0  0  0  0  0  0  0
  141.5650   81.0700  223.8010 N   0  0  0  0  0  0  0  0  0  0  0  0
  142.6210   80.5960  223.0880 C   0  0  0  0  0  0  0  0  0  0  0  0
  142.5400   79.3990  222.3850 C   0  0  0  0  0  0  0  0  0  0  0  0
  140.0110   71.8580  223.1810 C   0  0  0  0  0  0  0  0  0  0  0  0
  139.5840   70.5710  222.9280 C   0  0  0  0  0  0  0  0  0  0  0  0
  139.6570   69.6540  223.9510 C   0  0  0  0  0  0  0  0  0  0  0  0
  140.1410   70.0080  225.1930 C   0  0  0  0  0  0  0  0  0  0  0  0
  140.2030   69.0570  226.2110 C   0  0  0  0  0  0  0  0  0  0  0  0
  140.6920   69.4430  227.4400 C   0  0  0  0  0  0  0  0  0  0  0  0
  140.7590   68.2280  228.7030 Cl  0  0  0  0  0  0  0  0  0  0  0  0
  141.1040   70.7450  227.6320 C   0  0  0  0  0  0  0  0  0  0  0  0
  141.0530   71.7070  226.6400 C   0  0  0  0  0  0  0  0  0  0  0  0
  140.5610   71.3080  225.4140 C   0  0  0  0  0  0  0  0  0  0  0  0
  140.4790   72.1830  224.3980 N   0  0  0  0  0  0  0  0  0  0  0  0
  138.5260   74.0790  223.0650 H   0  0  0  0  0  0  0  0  0  0  0  0
  139.9562   74.7921  220.4990 H   0  0  0  0  0  0  0  0  0  0  0  0
  138.1631   74.7211  220.4890 H   0  0  0  0  0  0  0  0  0  0  0  0
  138.9186   78.0429  219.5142 H   0  0  0  0  0  0  0  0  0  0  0  0
  139.6660   79.2526  220.5246 H   0  0  0  0  0  0  0  0  0  0  0  0
  140.9043   77.3843  218.4906 H   0  0  0  0  0  0  0  0  0  0  0  0
  141.4327   79.0109  218.9262 H   0  0  0  0  0  0  0  0  0  0  0  0
  142.3436   76.4508  219.9738 H   0  0  0  0  0  0  0  0  0  0  0  0
  142.9727   78.0590  220.3680 H   0  0  0  0  0  0  0  0  0  0  0  0
  141.7921   76.6296  222.2893 H   0  0  0  0  0  0  0  0  0  0  0  0
  139.3738   78.6003  223.1643 H   0  0  0  0  0  0  0  0  0  0  0  0
  139.5770   80.7118  224.3799 H   0  0  0  0  0  0  0  0  0  0  0  0
  143.5585   81.1710  223.0668 H   0  0  0  0  0  0  0  0  0  0  0  0
  143.4110   79.0426  221.8155 H   0  0  0  0  0  0  0  0  0  0  0  0
  139.1969   70.2865  221.9384 H   0  0  0  0  0  0  0  0  0  0  0  0
  139.3236   68.6206  223.7753 H   0  0  0  0  0  0  0  0  0  0  0  0
  139.8695   68.0233  226.0370 H   0  0  0  0  0  0  0  0  0  0  0  0
  141.4914   71.0318  228.6208 H   0  0  0  0  0  0  0  0  0  0  0  0
  141.3880   72.7393  226.8193 H   0  0  0  0  0  0  0  0  0  0  0  0
  1  2  2  0
  2  3  1  0
  3  4  1  0
  4  5  1  0
  5  6  2  0
  5  7  1  0
  7  8  1  0
  8  9  1  0
  9 10  1  0
 10 11  1  0
 11 12  1  0
 12 13  2  0
 13 14  1  0
 14 15  2  0
 15 16  1  0
 16 17  2  0
  2 18  1  0
 18 19  2  0
 19 20  1  0
 20 21  2  0
 21 22  1  0
 22 23  2  0
 23 24  1  0
 23 25  1  0
 25 26  2  0
 26 27  1  0
 27 28  2  0
 11  7  1  0
 17 12  1  0
 28 18  1  0
 27 21  1  0
  3 29  1  0
  4 30  1  0
  4 31  1  0
  8 32  1  0
  8 33  1  0
  9 34  1  0
  9 35  1  0
 10 36  1  0
 10 37  1  0
 11 38  1  1
 13 39  1  0
 14 40  1  0
 16 41  1  0
 17 42  1  0
 19 43  1  0
 20 44  1  0
 22 45  1  0
 25 46  1  0
 26 47  1  0
M  END
>  <smiles>  (63) 
O=C(NCC(=O)N1CCCC1c1ccncc1)c1ccc2cc(Cl)ccc2n1

>  <score_type>  (63) 
oracle

>  <origin>  (63) 
autodockgpu

>  <m_score__min__energy>  (63) 
-8.5

>  <m_primary>  (63) 
energy

>  <rmsd>  (63) 
2.0997428892071675

>  <m_score__min__rmsd>  (63) 
2.0997428892071675

>  <meeko>  (63) 
{"free_energy": -8.5, "intermolecular_energy": -9.99, "internal_energy": -1.32, "cluster_size": 33, "cluster_id": 1, "rank_in_cluster": 1}

>  <energy>  (63) 
-8.38

>  <cluster_rmsd>  (63) 
0.64

>  <cluster>  (63) 
1

$$$$

     RDKit          3D

 47 50  0  0  0  0  0  0  0  0999 V2000
  139.8830   72.1130  220.7610 O   0  0  0  0  0  0  0  0  0  0  0  0
  139.7950   72.5260  221.9650 C   0  0  0  0  0  0  0  0  0  0  0  0
  139.6050   73.9110  222.2160 N   0  0  0  0  0  0  0  0  0  0  0  0
  139.5200   74.7930  221.0810 C   0  0  0  0  0  0  0  0  0  0  0  0
  140.7720   75.5530  220.9630 C   0  0  0  0  0  0  0  0  0  0  0  0
  141.9250   75.0530  221.0480 O   0  0  0  0  0  0  0  0  0  0  0  0
  140.6830   76.9550  220.7390 N   0  0  0  0  0  0  0  0  0  0  0  0
  139.4820   77.7840  220.6220 C   0  0  0  0  0  0  0  0  0  0  0  0
  139.7990   78.6260  219.4200 C   0  0  0  0  0  0  0  0  0  0  0  0
  141.2960   78.6640  219.3540 C   0  0  0  0  0  0  0  0  0  0  0  0
  141.7840   77.9150  220.5690 C   0  0  1  0  0  0  0  0  0  0  0  0
  141.8160   78.7100  221.7980 C   0  0  0  0  0  0  0  0  0  0  0  0
  141.5260   78.2550  223.0550 C   0  0  0  0  0  0  0  0  0  0  0  0
  141.5850   79.0860  224.1530 C   0  0  0  0  0  0  0  0  0  0  0  0
  141.9240   80.3770  224.0620 N   0  0  0  0  0  0  0  0  0  0  0  0
  142.2200   80.8680  222.8290 C   0  0  0  0  0  0  0  0  0  0  0  0
  142.1710   80.0600  221.6980 C   0  0  0  0  0  0  0  0  0  0  0  0
  139.8900   71.5740  223.0890 C   0  0  0  0  0  0  0  0  0  0  0  0
  139.4530   70.2800  222.8910 C   0  0  0  0  0  0  0  0  0  0  0  0
  139.5450   69.4000  223.9460 C   0  0  0  0  0  0  0  0  0  0  0  0
  140.0570   69.7970  225.1630 C   0  0  0  0  0  0  0  0  0  0  0  0
  140.1380   68.8830  226.2130 C   0  0  0  0  0  0  0  0  0  0  0  0
  140.6560   69.3100  227.4160 C   0  0  0  0  0  0  0  0  0  0  0  0
  140.7460   68.1410  228.7200 Cl  0  0  0  0  0  0  0  0  0  0  0  0
  141.0760   70.6160  227.5530 C   0  0  0  0  0  0  0  0  0  0  0  0
  141.0070   71.5420  226.5280 C   0  0  0  0  0  0  0  0  0  0  0  0
  140.4870   71.1020  225.3280 C   0  0  0  0  0  0  0  0  0  0  0  0
  140.3850   71.9400  224.2830 N   0  0  0  0  0  0  0  0  0  0  0  0
  139.5370   74.2230  223.1930 H   0  0  0  0  0  0  0  0  0  0  0  0
  139.3613   74.2018  220.1671 H   0  0  0  0  0  0  0  0  0  0  0  0
  138.6780   75.4878  221.2160 H   0  0  0  0  0  0  0  0  0  0  0  0
  138.5863   77.1682  220.4535 H   0  0  0  0  0  0  0  0  0  0  0  0
  139.2573   78.3689  221.5261 H   0  0  0  0  0  0  0  0  0  0  0  0
  139.3837   78.1705  218.5089 H   0  0  0  0  0  0  0  0  0  0  0  0
  139.3640   79.6335  219.4961 H   0  0  0  0  0  0  0  0  0  0  0  0
  141.6508   78.1745  218.4350 H   0  0  0  0  0  0  0  0  0  0  0  0
  141.6729   79.6973  219.3390 H   0  0  0  0  0  0  0  0  0  0  0  0
  142.8071   77.5382  220.4233 H   0  0  0  0  0  0  0  0  0  0  0  0
  141.2392   77.2020  223.1926 H   0  0  0  0  0  0  0  0  0  0  0  0
  141.3439   78.6715  225.1430 H   0  0  0  0  0  0  0  0  0  0  0  0
  142.5039   81.9255  222.7239 H   0  0  0  0  0  0  0  0  0  0  0  0
  142.4140   80.4869  220.7138 H   0  0  0  0  0  0  0  0  0  0  0  0
  139.0440   69.9616  221.9208 H   0  0  0  0  0  0  0  0  0  0  0  0
  139.2041   68.3623  223.8156 H   0  0  0  0  0  0  0  0  0  0  0  0
  139.7963   67.8454  226.0838 H   0  0  0  0  0  0  0  0  0  0  0  0
  141.4850   70.9364  228.5226 H   0  0  0  0  0  0  0  0  0  0  0  0
  141.3499   72.5785  226.6628 H   0  0  0  0  0  0  0  0  0  0  0  0
  1  2  2  0
  2  3  1  0
  3  4  1  0
  4  5  1  0
  5  6  2  0
  5  7  1  0
  7  8  1  0
  8  9  1  0
  9 10  1  0
 10 11  1  0
 11 12  1  0
 12 13  2  0
 13 14  1  0
 14 15  2  0
 15 16  1  0
 16 17  2  0
  2 18  1  0
 18 19  2  0
 19 20  1  0
 20 21  2  0
 21 22  1  0
 22 23  2  0
 23 24  1  0
 23 25  1  0
 25 26  2  0
 26 27  1  0
 27 28  2  0
 11  7  1  0
 17 12  1  0
 28 18  1  0
 27 21  1  0
  3 29  1  0
  4 30  1  0
  4 31  1  0
  8 32  1  0
  8 33  1  0
  9 34  1  0
  9 35  1  0
 10 36  1  0
 10 37  1  0
 11 38  1  6
 13 39  1  0
 14 40  1  0
 16 41  1  0
 17 42  1  0
 19 43  1  0
 20 44  1  0
 22 45  1  0
 25 46  1  0
 26 47  1  0
M  END
>  <smiles>  (64) 
O=C(NCC(=O)N1CCCC1c1ccncc1)c1ccc2cc(Cl)ccc2n1

>  <score_type>  (64) 
oracle

>  <origin>  (64) 
autodockgpu

>  <m_score__min__energy>  (64) 
-8.5

>  <m_primary>  (64) 
energy

>  <rmsd>  (64) 
1.886088722875881

>  <m_score__min__rmsd>  (64) 
1.886088722875881

>  <meeko>  (64) 
{"free_energy": -8.38, "intermolecular_energy": -9.87, "internal_energy": -1.31, "cluster_size": 33, "cluster_id": 1, "rank_in_cluster": 14}

>  <energy>  (64) 
-8.38

>  <cluster_rmsd>  (64) 
0.88

>  <cluster>  (64) 
1

$$$$

     RDKit          3D

 47 50  0  0  0  0  0  0  0  0999 V2000
  139.7660   72.2320  220.8440 O   0  0  0  0  0  0  0  0  0  0  0  0
  139.7340   72.6340  222.0540 C   0  0  0  0  0  0  0  0  0  0  0  0
  139.5800   74.0190  222.3260 N   0  0  0  0  0  0  0  0  0  0  0  0
  139.4660   74.9150  221.2040 C   0  0  0  0  0  0  0  0  0  0  0  0
  140.6940   75.7150  221.0960 C   0  0  0  0  0  0  0  0  0  0  0  0
  141.8620   75.2520  221.1890 O   0  0  0  0  0  0  0  0  0  0  0  0
  140.5620   77.1130  220.8710 N   0  0  0  0  0  0  0  0  0  0  0  0
  139.3460   77.9280  220.8960 C   0  0  0  0  0  0  0  0  0  0  0  0
  139.5030   78.7610  219.6560 C   0  0  0  0  0  0  0  0  0  0  0  0
  140.9790   78.8140  219.4050 C   0  0  0  0  0  0  0  0  0  0  0  0
  141.6230   78.0830  220.5570 C   0  0  1  0  0  0  0  0  0  0  0  0
  141.7970   78.8910  221.7650 C   0  0  0  0  0  0  0  0  0  0  0  0
  142.1390   80.2150  221.8010 C   0  0  0  0  0  0  0  0  0  0  0  0
  142.2790   80.8900  222.9950 C   0  0  0  0  0  0  0  0  0  0  0  0
  142.0930   80.3010  224.1820 N   0  0  0  0  0  0  0  0  0  0  0  0
  141.7510   78.9850  224.1880 C   0  0  0  0  0  0  0  0  0  0  0  0
  141.6010   78.2710  223.0040 C   0  0  0  0  0  0  0  0  0  0  0  0
  139.8560   71.6690  223.1640 C   0  0  0  0  0  0  0  0  0  0  0  0
  139.4510   70.3670  222.9490 C   0  0  0  0  0  0  0  0  0  0  0  0
  139.5680   69.4750  223.9900 C   0  0  0  0  0  0  0  0  0  0  0  0
  140.0730   69.8660  225.2120 C   0  0  0  0  0  0  0  0  0  0  0  0
  140.1800   68.9400  226.2480 C   0  0  0  0  0  0  0  0  0  0  0  0
  140.6900   69.3630  227.4560 C   0  0  0  0  0  0  0  0  0  0  0  0
  140.8130   68.1780  228.7430 Cl  0  0  0  0  0  0  0  0  0  0  0  0
  141.0770   70.6770  227.6100 C   0  0  0  0  0  0  0  0  0  0  0  0
  140.9820   71.6160  226.5990 C   0  0  0  0  0  0  0  0  0  0  0  0
  140.4700   71.1790  225.3940 C   0  0  0  0  0  0  0  0  0  0  0  0
  140.3450   72.0300  224.3620 N   0  0  0  0  0  0  0  0  0  0  0  0
  139.5570   74.3220  223.3080 H   0  0  0  0  0  0  0  0  0  0  0  0
  139.3242   74.3328  220.2815 H   0  0  0  0  0  0  0  0  0  0  0  0
  138.6032   75.5814  221.3502 H   0  0  0  0  0  0  0  0  0  0  0  0
  138.4435   77.3011  220.8448 H   0  0  0  0  0  0  0  0  0  0  0  0
  139.2274   78.5196  221.8157 H   0  0  0  0  0  0  0  0  0  0  0  0
  138.9837   78.2918  218.8074 H   0  0  0  0  0  0  0  0  0  0  0  0
  139.0694   79.7647  219.7764 H   0  0  0  0  0  0  0  0  0  0  0  0
  141.2230   78.3186  218.4537 H   0  0  0  0  0  0  0  0  0  0  0  0
  141.3388   79.8511  219.3342 H   0  0  0  0  0  0  0  0  0  0  0  0
  142.6247   77.7157  220.2892 H   0  0  0  0  0  0  0  0  0  0  0  0
  142.3061   80.7531  220.8563 H   0  0  0  0  0  0  0  0  0  0  0  0
  142.5545   81.9547  222.9709 H   0  0  0  0  0  0  0  0  0  0  0  0
  141.5897   78.4747  225.1490 H   0  0  0  0  0  0  0  0  0  0  0  0
  141.3251   77.2068  223.0420 H   0  0  0  0  0  0  0  0  0  0  0  0
  139.0472   70.0523  221.9754 H   0  0  0  0  0  0  0  0  0  0  0  0
  139.2530   68.4311  223.8448 H   0  0  0  0  0  0  0  0  0  0  0  0
  139.8647   67.8960  226.1046 H   0  0  0  0  0  0  0  0  0  0  0  0
  141.4805   70.9938  228.5831 H   0  0  0  0  0  0  0  0  0  0  0  0
  141.2986   72.6589  226.7478 H   0  0  0  0  0  0  0  0  0  0  0  0
  1  2  2  0
  2  3  1  0
  3  4  1  0
  4  5  1  0
  5  6  2  0
  5  7  1  0
  7  8  1  0
  8  9  1  0
  9 10  1  0
 10 11  1  0
 11 12  1  0
 12 13  2  0
 13 14  1  0
 14 15  2  0
 15 16  1  0
 16 17  2  0
  2 18  1  0
 18 19  2  0
 19 20  1  0
 20 21  2  0
 21 22  1  0
 22 23  2  0
 23 24  1  0
 23 25  1  0
 25 26  2  0
 26 27  1  0
 27 28  2  0
 11  7  1  0
 17 12  1  0
 28 18  1  0
 27 21  1  0
  3 29  1  0
  4 30  1  0
  4 31  1  0
  8 32  1  0
  8 33  1  0
  9 34  1  0
  9 35  1  0
 10 36  1  0
 10 37  1  0
 11 38  1  6
 13 39  1  0
 14 40  1  0
 16 41  1  0
 17 42  1  0
 19 43  1  0
 20 44  1  0
 22 45  1  0
 25 46  1  0
 26 47  1  0
M  END
>  <smiles>  (65) 
O=C(NCC(=O)N1CCCC1c1ccncc1)c1ccc2cc(Cl)ccc2n1

>  <score_type>  (65) 
oracle

>  <origin>  (65) 
autodockgpu

>  <m_score__min__energy>  (65) 
-8.5

>  <m_primary>  (65) 
energy

>  <rmsd>  (65) 
1.9972360581623017

>  <m_score__min__rmsd>  (65) 
1.9972360581623017

>  <meeko>  (65) 
{"free_energy": -8.33, "intermolecular_energy": -9.82, "internal_energy": -1.29, "cluster_size": 33, "cluster_id": 1, "rank_in_cluster": 19}

>  <energy>  (65) 
-8.35

>  <cluster_rmsd>  (65) 
0.62

>  <cluster>  (65) 
1

$$$$

     RDKit          3D

 47 50  0  0  0  0  0  0  0  0999 V2000
  139.7860   72.2640  220.7850 O   0  0  0  0  0  0  0  0  0  0  0  0
  139.7440   72.6760  221.9920 C   0  0  0  0  0  0  0  0  0  0  0  0
  139.5790   74.0620  222.2520 N   0  0  0  0  0  0  0  0  0  0  0  0
  139.4670   74.9480  221.1220 C   0  0  0  0  0  0  0  0  0  0  0  0
  140.3730   76.0900  221.3100 C   0  0  0  0  0  0  0  0  0  0  0  0
  141.6250   76.0390  221.1850 O   0  0  0  0  0  0  0  0  0  0  0  0
  139.8020   77.3440  221.6580 N   0  0  0  0  0  0  0  0  0  0  0  0
  138.8340   77.6430  222.7160 C   0  0  0  0  0  0  0  0  0  0  0  0
  137.8530   78.5270  222.0020 C   0  0  0  0  0  0  0  0  0  0  0  0
  138.6280   79.1410  220.8760 C   0  0  0  0  0  0  0  0  0  0  0  0
  140.0470   78.6540  221.0350 C   0  0  1  0  0  0  0  0  0  0  0  0
  140.8430   79.4150  222.0000 C   0  0  0  0  0  0  0  0  0  0  0  0
  140.3970   80.4610  222.7600 C   0  0  0  0  0  0  0  0  0  0  0  0
  141.2280   81.1150  223.6440 C   0  0  0  0  0  0  0  0  0  0  0  0
  142.5110   80.7730  223.8140 N   0  0  0  0  0  0  0  0  0  0  0  0
  142.9920   79.7360  223.0760 C   0  0  0  0  0  0  0  0  0  0  0  0
  142.1840   79.0540  222.1750 C   0  0  0  0  0  0  0  0  0  0  0  0
  139.8650   71.7200  223.1100 C   0  0  0  0  0  0  0  0  0  0  0  0
  139.4630   70.4160  222.9040 C   0  0  0  0  0  0  0  0  0  0  0  0
  139.5800   69.5320  223.9530 C   0  0  0  0  0  0  0  0  0  0  0  0
  140.0810   69.9350  225.1730 C   0  0  0  0  0  0  0  0  0  0  0  0
  140.1870   69.0170  226.2170 C   0  0  0  0  0  0  0  0  0  0  0  0
  140.6930   69.4510  227.4230 C   0  0  0  0  0  0  0  0  0  0  0  0
  140.8150   68.2770  228.7200 Cl  0  0  0  0  0  0  0  0  0  0  0  0
  141.0770   70.7680  227.5680 C   0  0  0  0  0  0  0  0  0  0  0  0
  140.9820   71.6980  226.5490 C   0  0  0  0  0  0  0  0  0  0  0  0
  140.4750   71.2500  225.3460 C   0  0  0  0  0  0  0  0  0  0  0  0
  140.3500   72.0920  224.3060 N   0  0  0  0  0  0  0  0  0  0  0  0
  139.5480   74.3720  223.2310 H   0  0  0  0  0  0  0  0  0  0  0  0
  139.7410   74.4086  220.2033 H   0  0  0  0  0  0  0  0  0  0  0  0
  138.4313   75.3087  221.0371 H   0  0  0  0  0  0  0  0  0  0  0  0
  138.3506   76.7267  223.0858 H   0  0  0  0  0  0  0  0  0  0  0  0
  139.2811   78.1068  223.6076 H   0  0  0  0  0  0  0  0  0  0  0  0
  137.0112   77.9349  221.6136 H   0  0  0  0  0  0  0  0  0  0  0  0
  137.4228   79.2883  222.6693 H   0  0  0  0  0  0  0  0  0  0  0  0
  138.2185   78.8162  219.9081 H   0  0  0  0  0  0  0  0  0  0  0  0
  138.5734   80.2394  220.9007 H   0  0  0  0  0  0  0  0  0  0  0  0
  140.5960   78.7007  220.0830 H   0  0  0  0  0  0  0  0  0  0  0  0
  139.3511   80.7878  222.6635 H   0  0  0  0  0  0  0  0  0  0  0  0
  140.8211   81.9504  224.2327 H   0  0  0  0  0  0  0  0  0  0  0  0
  144.0422   79.4314  223.1953 H   0  0  0  0  0  0  0  0  0  0  0  0
  142.6030   78.2204  221.5922 H   0  0  0  0  0  0  0  0  0  0  0  0
  139.0616   70.0930  221.9321 H   0  0  0  0  0  0  0  0  0  0  0  0
  139.2684   68.4860  223.8156 H   0  0  0  0  0  0  0  0  0  0  0  0
  139.8742   67.9712  226.0812 H   0  0  0  0  0  0  0  0  0  0  0  0
  141.4774   71.0936  228.5394 H   0  0  0  0  0  0  0  0  0  0  0  0
  141.2950   72.7430  226.6902 H   0  0  0  0  0  0  0  0  0  0  0  0
  1  2  2  0
  2  3  1  0
  3  4  1  0
  4  5  1  0
  5  6  2  0
  5  7  1  0
  7  8  1  0
  8  9  1  0
  9 10  1  0
 10 11  1  0
 11 12  1  0
 12 13  2  0
 13 14  1  0
 14 15  2  0
 15 16  1  0
 16 17  2  0
  2 18  1  0
 18 19  2  0
 19 20  1  0
 20 21  2  0
 21 22  1  0
 22 23  2  0
 23 24  1  0
 23 25  1  0
 25 26  2  0
 26 27  1  0
 27 28  2  0
 11  7  1  0
 17 12  1  0
 28 18  1  0
 27 21  1  0
  3 29  1  0
  4 30  1  0
  4 31  1  0
  8 32  1  0
  8 33  1  0
  9 34  1  0
  9 35  1  0
 10 36  1  0
 10 37  1  0
 11 38  1  6
 13 39  1  0
 14 40  1  0
 16 41  1  0
 17 42  1  0
 19 43  1  0
 20 44  1  0
 22 45  1  0
 25 46  1  0
 26 47  1  0
M  END
>  <smiles>  (66) 
O=C(NCC(=O)N1CCCC1c1ccncc1)c1ccc2cc(Cl)ccc2n1

>  <score_type>  (66) 
oracle

>  <origin>  (66) 
autodockgpu

>  <m_score__min__energy>  (66) 
-8.5

>  <m_primary>  (66) 
energy

>  <rmsd>  (66) 
2.7447315757509645

>  <m_score__min__rmsd>  (66) 
2.7447315757509645

>  <meeko>  (66) 
{"free_energy": -8.19, "intermolecular_energy": -9.68, "internal_energy": -1.28, "cluster_size": 33, "cluster_id": 1, "rank_in_cluster": 29}

>  <energy>  (66) 
-8.34

>  <cluster_rmsd>  (66) 
0.62

>  <cluster>  (66) 
1

$$$$

     RDKit          3D

 47 50  0  0  0  0  0  0  0  0999 V2000
  139.4570   72.0840  220.8560 O   0  0  0  0  0  0  0  0  0  0  0  0
  139.5500   72.5070  222.0550 C   0  0  0  0  0  0  0  0  0  0  0  0
  139.4780   73.9020  222.3120 N   0  0  0  0  0  0  0  0  0  0  0  0
  139.2990   74.7820  221.1870 C   0  0  0  0  0  0  0  0  0  0  0  0
  139.1310   76.1600  221.6720 C   0  0  0  0  0  0  0  0  0  0  0  0
  138.3430   76.5050  222.5910 O   0  0  0  0  0  0  0  0  0  0  0  0
  139.9110   77.1810  221.0630 N   0  0  0  0  0  0  0  0  0  0  0  0
  139.4540   78.3410  220.2960 C   0  0  0  0  0  0  0  0  0  0  0  0
  140.3820   78.3210  219.1150 C   0  0  0  0  0  0  0  0  0  0  0  0
  141.6080   77.6060  219.5950 C   0  0  0  0  0  0  0  0  0  0  0  0
  141.3760   77.3180  221.0570 C   0  0  1  0  0  0  0  0  0  0  0  0
  141.6770   78.4390  221.9500 C   0  0  0  0  0  0  0  0  0  0  0  0
  142.1670   79.6570  221.5700 C   0  0  0  0  0  0  0  0  0  0  0  0
  142.4190   80.6520  222.4910 C   0  0  0  0  0  0  0  0  0  0  0  0
  142.2040   80.4900  223.8020 N   0  0  0  0  0  0  0  0  0  0  0  0
  141.7170   79.2920  224.2200 C   0  0  0  0  0  0  0  0  0  0  0  0
  141.4510   78.2660  223.3200 C   0  0  0  0  0  0  0  0  0  0  0  0
  139.7330   71.5550  223.1700 C   0  0  0  0  0  0  0  0  0  0  0  0
  139.3870   70.2350  222.9680 C   0  0  0  0  0  0  0  0  0  0  0  0
  139.5600   69.3560  224.0130 C   0  0  0  0  0  0  0  0  0  0  0  0
  140.0630   69.7790  225.2250 C   0  0  0  0  0  0  0  0  0  0  0  0
  140.2270   68.8650  226.2650 C   0  0  0  0  0  0  0  0  0  0  0  0
  140.7330   69.3200  227.4630 C   0  0  0  0  0  0  0  0  0  0  0  0
  140.9290   68.1510  228.7560 Cl  0  0  0  0  0  0  0  0  0  0  0  0
  141.0600   70.6520  227.6050 C   0  0  0  0  0  0  0  0  0  0  0  0
  140.9070   71.5790  226.5890 C   0  0  0  0  0  0  0  0  0  0  0  0
  140.4000   71.1110  225.3940 C   0  0  0  0  0  0  0  0  0  0  0  0
  140.2210   71.9470  224.3590 N   0  0  0  0  0  0  0  0  0  0  0  0
  139.5550   74.2210  223.2860 H   0  0  0  0  0  0  0  0  0  0  0  0
  140.1819   74.7273  220.5332 H   0  0  0  0  0  0  0  0  0  0  0  0
  138.4068   74.4790  220.6195 H   0  0  0  0  0  0  0  0  0  0  0  0
  138.4060   78.2251  219.9826 H   0  0  0  0  0  0  0  0  0  0  0  0
  139.4775   79.2838  220.8622 H   0  0  0  0  0  0  0  0  0  0  0  0
  139.9244   77.7807  218.2732 H   0  0  0  0  0  0  0  0  0  0  0  0
  140.6106   79.3342  218.7529 H   0  0  0  0  0  0  0  0  0  0  0  0
  141.7459   76.6676  219.0378 H   0  0  0  0  0  0  0  0  0  0  0  0
  142.5133   78.2120  219.4426 H   0  0  0  0  0  0  0  0  0  0  0  0
  141.9955   76.4775  221.4032 H   0  0  0  0  0  0  0  0  0  0  0  0
  142.3649   79.8480  220.5050 H   0  0  0  0  0  0  0  0  0  0  0  0
  142.8117   81.6157  222.1345 H   0  0  0  0  0  0  0  0  0  0  0  0
  141.5295   79.1308  225.2918 H   0  0  0  0  0  0  0  0  0  0  0  0
  141.0583   77.3071  223.6893 H   0  0  0  0  0  0  0  0  0  0  0  0
  138.9853   69.8955  222.0019 H   0  0  0  0  0  0  0  0  0  0  0  0
  139.2923   68.2976  223.8788 H   0  0  0  0  0  0  0  0  0  0  0  0
  139.9590   67.8064  226.1323 H   0  0  0  0  0  0  0  0  0  0  0  0
  141.4611   70.9936  228.5706 H   0  0  0  0  0  0  0  0  0  0  0  0
  141.1762   72.6366  226.7272 H   0  0  0  0  0  0  0  0  0  0  0  0
  1  2  2  0
  2  3  1  0
  3  4  1  0
  4  5  1  0
  5  6  2  0
  5  7  1  0
  7  8  1  0
  8  9  1  0
  9 10  1  0
 10 11  1  0
 11 12  1  0
 12 13  2  0
 13 14  1  0
 14 15  2  0
 15 16  1  0
 16 17  2  0
  2 18  1  0
 18 19  2  0
 19 20  1  0
 20 21  2  0
 21 22  1  0
 22 23  2  0
 23 24  1  0
 23 25  1  0
 25 26  2  0
 26 27  1  0
 27 28  2  0
 11  7  1  0
 17 12  1  0
 28 18  1  0
 27 21  1  0
  3 29  1  0
  4 30  1  0
  4 31  1  0
  8 32  1  0
  8 33  1  0
  9 34  1  0
  9 35  1  0
 10 36  1  0
 10 37  1  0
 11 38  1  1
 13 39  1  0
 14 40  1  0
 16 41  1  0
 17 42  1  0
 19 43  1  0
 20 44  1  0
 22 45  1  0
 25 46  1  0
 26 47  1  0
M  END
>  <smiles>  (67) 
O=C(NCC(=O)N1CCCC1c1ccncc1)c1ccc2cc(Cl)ccc2n1

>  <score_type>  (67) 
oracle

>  <origin>  (67) 
autodockgpu

>  <m_score__min__energy>  (67) 
-8.5

>  <m_primary>  (67) 
energy

>  <rmsd>  (67) 
1.9194524599016853

>  <m_score__min__rmsd>  (67) 
1.9194524599016853

>  <meeko>  (67) 
{"free_energy": -8.31, "intermolecular_energy": -9.8, "internal_energy": -1.46, "cluster_size": 33, "cluster_id": 1, "rank_in_cluster": 21}

>  <energy>  (67) 
-8.33

>  <cluster_rmsd>  (67) 
0.64

>  <cluster>  (67) 
1

$$$$

     RDKit          3D

 47 50  0  0  0  0  0  0  0  0999 V2000
  140.6640   72.1370  220.8620 O   0  0  0  0  0  0  0  0  0  0  0  0
  140.2470   72.5340  222.0010 C   0  0  0  0  0  0  0  0  0  0  0  0
  139.8380   73.8830  222.1650 N   0  0  0  0  0  0  0  0  0  0  0  0
  139.9140   74.7510  221.0180 C   0  0  0  0  0  0  0  0  0  0  0  0
  141.1050   75.6050  221.1350 C   0  0  0  0  0  0  0  0  0  0  0  0
  141.3990   76.2900  222.1500 O   0  0  0  0  0  0  0  0  0  0  0  0
  141.9920   75.6670  220.0260 N   0  0  0  0  0  0  0  0  0  0  0  0
  142.9020   76.7500  219.6470 C   0  0  0  0  0  0  0  0  0  0  0  0
  142.6510   76.8680  218.1710 C   0  0  0  0  0  0  0  0  0  0  0  0
  142.1480   75.5200  217.7520 C   0  0  0  0  0  0  0  0  0  0  0  0
  142.2100   74.6520  218.9840 C   0  0  1  0  0  0  0  0  0  0  0  0
  143.5300   74.0780  219.2550 C   0  0  0  0  0  0  0  0  0  0  0  0
  144.0930   73.9100  220.4890 C   0  0  0  0  0  0  0  0  0  0  0  0
  145.3470   73.3570  220.6400 C   0  0  0  0  0  0  0  0  0  0  0  0
  146.0860   72.9540  219.5990 N   0  0  0  0  0  0  0  0  0  0  0  0
  145.5600   73.1050  218.3540 C   0  0  0  0  0  0  0  0  0  0  0  0
  144.3000   73.6580  218.1640 C   0  0  0  0  0  0  0  0  0  0  0  0
  140.1910   71.5970  223.1420 C   0  0  0  0  0  0  0  0  0  0  0  0
  139.6310   70.3530  222.9410 C   0  0  0  0  0  0  0  0  0  0  0  0
  139.5830   69.4870  224.0100 C   0  0  0  0  0  0  0  0  0  0  0  0
  140.0790   69.8500  225.2450 C   0  0  0  0  0  0  0  0  0  0  0  0
  140.0160   68.9520  226.3090 C   0  0  0  0  0  0  0  0  0  0  0  0
  140.5210   69.3450  227.5290 C   0  0  0  0  0  0  0  0  0  0  0  0
  140.4300   68.1970  228.8520 Cl  0  0  0  0  0  0  0  0  0  0  0  0
  141.0690   70.6030  227.6680 C   0  0  0  0  0  0  0  0  0  0  0  0
  141.1440   71.5130  226.6280 C   0  0  0  0  0  0  0  0  0  0  0  0
  140.6350   71.1060  225.4120 C   0  0  0  0  0  0  0  0  0  0  0  0
  140.6690   71.9310  224.3520 N   0  0  0  0  0  0  0  0  0  0  0  0
  139.5060   74.1810  223.0910 H   0  0  0  0  0  0  0  0  0  0  0  0
  139.9843   74.1453  220.1025 H   0  0  0  0  0  0  0  0  0  0  0  0
  139.0124   75.3794  220.9702 H   0  0  0  0  0  0  0  0  0  0  0  0
  142.6512   77.6842  220.1708 H   0  0  0  0  0  0  0  0  0  0  0  0
  143.9538   76.5551  219.9034 H   0  0  0  0  0  0  0  0  0  0  0  0
  141.8962   77.6421  217.9682 H   0  0  0  0  0  0  0  0  0  0  0  0
  143.5578   77.1591  217.6205 H   0  0  0  0  0  0  0  0  0  0  0  0
  141.1124   75.5944  217.3886 H   0  0  0  0  0  0  0  0  0  0  0  0
  142.7515   75.1013  216.9332 H   0  0  0  0  0  0  0  0  0  0  0  0
  141.5167   73.8012  218.9093 H   0  0  0  0  0  0  0  0  0  0  0  0
  143.5328   74.2232  221.3823 H   0  0  0  0  0  0  0  0  0  0  0  0
  145.7559   73.2426  221.6547 H   0  0  0  0  0  0  0  0  0  0  0  0
  146.1443   72.7826  217.4796 H   0  0  0  0  0  0  0  0  0  0  0  0
  143.9026   73.7672  217.1441 H   0  0  0  0  0  0  0  0  0  0  0  0
  139.2349   70.0617  221.9570 H   0  0  0  0  0  0  0  0  0  0  0  0
  139.1415   68.4883  223.8771 H   0  0  0  0  0  0  0  0  0  0  0  0
  139.5737   67.9534  226.1778 H   0  0  0  0  0  0  0  0  0  0  0  0
  141.4649   70.8967  228.6513 H   0  0  0  0  0  0  0  0  0  0  0  0
  141.5871   72.5106  226.7641 H   0  0  0  0  0  0  0  0  0  0  0  0
  1  2  2  0
  2  3  1  0
  3  4  1  0
  4  5  1  0
  5  6  2  0
  5  7  1  0
  7  8  1  0
  8  9  1  0
  9 10  1  0
 10 11  1  0
 11 12  1  0
 12 13  2  0
 13 14  1  0
 14 15  2  0
 15 16  1  0
 16 17  2  0
  2 18  1  0
 18 19  2  0
 19 20  1  0
 20 21  2  0
 21 22  1  0
 22 23  2  0
 23 24  1  0
 23 25  1  0
 25 26  2  0
 26 27  1  0
 27 28  2  0
 11  7  1  0
 17 12  1  0
 28 18  1  0
 27 21  1  0
  3 29  1  0
  4 30  1  0
  4 31  1  0
  8 32  1  0
  8 33  1  0
  9 34  1  0
  9 35  1  0
 10 36  1  0
 10 37  1  0
 11 38  1  6
 13 39  1  0
 14 40  1  0
 16 41  1  0
 17 42  1  0
 19 43  1  0
 20 44  1  0
 22 45  1  0
 25 46  1  0
 26 47  1  0
M  END
>  <smiles>  (68) 
O=C(NCC(=O)N1CCCC1c1ccncc1)c1ccc2cc(Cl)ccc2n1

>  <score_type>  (68) 
oracle

>  <origin>  (68) 
autodockgpu

>  <m_score__min__energy>  (68) 
-8.5

>  <m_primary>  (68) 
energy

>  <rmsd>  (68) 
2.3460909657717472

>  <m_score__min__rmsd>  (68) 
2.3460909657717472

>  <meeko>  (68) 
{"free_energy": -8.12, "intermolecular_energy": -9.61, "internal_energy": -1.57, "cluster_size": 13, "cluster_id": 2, "rank_in_cluster": 4}

>  <energy>  (68) 
-8.33

>  <cluster_rmsd>  (68) 
0.65

>  <cluster>  (68) 
1

$$$$

     RDKit          3D

 47 50  0  0  0  0  0  0  0  0999 V2000
  140.0780   72.4380  220.7260 O   0  0  0  0  0  0  0  0  0  0  0  0
  139.8580   72.8390  221.9170 C   0  0  0  0  0  0  0  0  0  0  0  0
  139.5450   74.2040  222.1490 N   0  0  0  0  0  0  0  0  0  0  0  0
  139.4900   75.0820  221.0080 C   0  0  0  0  0  0  0  0  0  0  0  0
  140.3950   76.2190  221.2290 C   0  0  0  0  0  0  0  0  0  0  0  0
  141.6450   76.1800  221.0820 O   0  0  0  0  0  0  0  0  0  0  0  0
  139.8250   77.4550  221.6400 N   0  0  0  0  0  0  0  0  0  0  0  0
  138.9090   77.7110  222.7530 C   0  0  0  0  0  0  0  0  0  0  0  0
  137.8800   78.5990  222.1140 C   0  0  0  0  0  0  0  0  0  0  0  0
  138.5860   79.2530  220.9670 C   0  0  0  0  0  0  0  0  0  0  0  0
  140.0190   78.7840  221.0400 C   0  0  1  0  0  0  0  0  0  0  0  0
  140.8530   79.5320  221.9830 C   0  0  0  0  0  0  0  0  0  0  0  0
  140.4670   80.6330  222.6960 C   0  0  0  0  0  0  0  0  0  0  0  0
  141.3300   81.2690  223.5620 C   0  0  0  0  0  0  0  0  0  0  0  0
  142.5880   80.8560  223.7590 N   0  0  0  0  0  0  0  0  0  0  0  0
  143.0090   79.7640  223.0670 C   0  0  0  0  0  0  0  0  0  0  0  0
  142.1670   79.0970  222.1850 C   0  0  0  0  0  0  0  0  0  0  0  0
  139.9280   71.8910  223.0480 C   0  0  0  0  0  0  0  0  0  0  0  0
  139.4780   70.6020  222.8510 C   0  0  0  0  0  0  0  0  0  0  0  0
  139.5470   69.7260  223.9110 C   0  0  0  0  0  0  0  0  0  0  0  0
  140.0500   70.1230  225.1330 C   0  0  0  0  0  0  0  0  0  0  0  0
  140.1080   69.2140  226.1880 C   0  0  0  0  0  0  0  0  0  0  0  0
  140.6160   69.6410  227.3950 C   0  0  0  0  0  0  0  0  0  0  0  0
  140.6770   68.4780  228.7060 Cl  0  0  0  0  0  0  0  0  0  0  0  0
  141.0500   70.9430  227.5290 C   0  0  0  0  0  0  0  0  0  0  0  0
  141.0040   71.8650  226.4990 C   0  0  0  0  0  0  0  0  0  0  0  0
  140.4930   71.4240  225.2960 C   0  0  0  0  0  0  0  0  0  0  0  0
  140.4140   72.2580  224.2450 N   0  0  0  0  0  0  0  0  0  0  0  0
  139.3710   74.5060  223.1150 H   0  0  0  0  0  0  0  0  0  0  0  0
  139.8013   74.5338  220.1066 H   0  0  0  0  0  0  0  0  0  0  0  0
  138.4618   75.4488  220.8732 H   0  0  0  0  0  0  0  0  0  0  0  0
  138.4579   76.7780  223.1218 H   0  0  0  0  0  0  0  0  0  0  0  0
  139.3949   78.1578  223.6330 H   0  0  0  0  0  0  0  0  0  0  0  0
  137.0272   78.0047  221.7541 H   0  0  0  0  0  0  0  0  0  0  0  0
  137.4752   79.3364  222.8228 H   0  0  0  0  0  0  0  0  0  0  0  0
  138.1315   78.9466  220.0133 H   0  0  0  0  0  0  0  0  0  0  0  0
  138.5170   80.3494  221.0231 H   0  0  0  0  0  0  0  0  0  0  0  0
  140.5173   78.8638  220.0626 H   0  0  0  0  0  0  0  0  0  0  0  0
  139.4443   81.0199  222.5756 H   0  0  0  0  0  0  0  0  0  0  0  0
  140.9710   82.1507  224.1130 H   0  0  0  0  0  0  0  0  0  0  0  0
  144.0377   79.4008  223.2082 H   0  0  0  0  0  0  0  0  0  0  0  0
  142.5382   78.2169  221.6395 H   0  0  0  0  0  0  0  0  0  0  0  0
  139.0766   70.2839  221.8775 H   0  0  0  0  0  0  0  0  0  0  0  0
  139.1951   68.6919  223.7814 H   0  0  0  0  0  0  0  0  0  0  0  0
  139.7563   68.1797  226.0597 H   0  0  0  0  0  0  0  0  0  0  0  0
  141.4520   71.2637  228.5014 H   0  0  0  0  0  0  0  0  0  0  0  0
  141.3572   72.8982  226.6325 H   0  0  0  0  0  0  0  0  0  0  0  0
  1  2  2  0
  2  3  1  0
  3  4  1  0
  4  5  1  0
  5  6  2  0
  5  7  1  0
  7  8  1  0
  8  9  1  0
  9 10  1  0
 10 11  1  0
 11 12  1  0
 12 13  2  0
 13 14  1  0
 14 15  2  0
 15 16  1  0
 16 17  2  0
  2 18  1  0
 18 19  2  0
 19 20  1  0
 20 21  2  0
 21 22  1  0
 22 23  2  0
 23 24  1  0
 23 25  1  0
 25 26  2  0
 26 27  1  0
 27 28  2  0
 11  7  1  0
 17 12  1  0
 28 18  1  0
 27 21  1  0
  3 29  1  0
  4 30  1  0
  4 31  1  0
  8 32  1  0
  8 33  1  0
  9 34  1  0
  9 35  1  0
 10 36  1  0
 10 37  1  0
 11 38  1  6
 13 39  1  0
 14 40  1  0
 16 41  1  0
 17 42  1  0
 19 43  1  0
 20 44  1  0
 22 45  1  0
 25 46  1  0
 26 47  1  0
M  END
>  <smiles>  (69) 
O=C(NCC(=O)N1CCCC1c1ccncc1)c1ccc2cc(Cl)ccc2n1

>  <score_type>  (69) 
oracle

>  <origin>  (69) 
autodockgpu

>  <m_score__min__energy>  (69) 
-8.5

>  <m_primary>  (69) 
energy

>  <rmsd>  (69) 
2.8439834083726114

>  <m_score__min__rmsd>  (69) 
2.8439834083726114

>  <meeko>  (69) 
{"free_energy": -8.24, "intermolecular_energy": -9.74, "internal_energy": -1.27, "cluster_size": 33, "cluster_id": 1, "rank_in_cluster": 26}

>  <energy>  (69) 
-8.33

>  <cluster_rmsd>  (69) 
0.92

>  <cluster>  (69) 
1

$$$$

     RDKit          3D

 47 50  0  0  0  0  0  0  0  0999 V2000
  138.7620   71.5310  220.7390 O   0  0  0  0  0  0  0  0  0  0  0  0
  138.9910   72.0470  221.8840 C   0  0  0  0  0  0  0  0  0  0  0  0
  138.9510   73.4580  222.0360 N   0  0  0  0  0  0  0  0  0  0  0  0
  138.6500   74.2490  220.8710 C   0  0  0  0  0  0  0  0  0  0  0  0
  139.7780   74.1780  219.9320 C   0  0  0  0  0  0  0  0  0  0  0  0
  139.8030   73.4670  218.8930 O   0  0  0  0  0  0  0  0  0  0  0  0
  140.9290   74.9650  220.2110 N   0  0  0  0  0  0  0  0  0  0  0  0
  141.2340   75.7370  221.4180 C   0  0  0  0  0  0  0  0  0  0  0  0
  141.7200   77.0370  220.8430 C   0  0  0  0  0  0  0  0  0  0  0  0
  142.2300   76.6940  219.4770 C   0  0  0  0  0  0  0  0  0  0  0  0
  142.0980   75.1960  219.3490 C   0  0  1  0  0  0  0  0  0  0  0  0
  143.1970   74.4380  219.9520 C   0  0  0  0  0  0  0  0  0  0  0  0
  144.4480   74.9190  220.2240 C   0  0  0  0  0  0  0  0  0  0  0  0
  145.4170   74.1230  220.7950 C   0  0  0  0  0  0  0  0  0  0  0  0
  145.1990   72.8420  221.1160 N   0  0  0  0  0  0  0  0  0  0  0  0
  143.9670   72.3260  220.8600 C   0  0  0  0  0  0  0  0  0  0  0  0
  142.9650   73.0990  220.2850 C   0  0  0  0  0  0  0  0  0  0  0  0
  139.2940   71.1830  223.0430 C   0  0  0  0  0  0  0  0  0  0  0  0
  138.9480   69.8500  222.9750 C   0  0  0  0  0  0  0  0  0  0  0  0
  139.2350   69.0530  224.0610 C   0  0  0  0  0  0  0  0  0  0  0  0
  139.8490   69.5700  225.1820 C   0  0  0  0  0  0  0  0  0  0  0  0
  140.1270   68.7390  226.2670 C   0  0  0  0  0  0  0  0  0  0  0  0
  140.7420   69.2860  227.3710 C   0  0  0  0  0  0  0  0  0  0  0  0
  141.0800   68.2190  228.7220 Cl  0  0  0  0  0  0  0  0  0  0  0  0
  141.0640   70.6270  227.3790 C   0  0  0  0  0  0  0  0  0  0  0  0
  140.7990   71.4730  226.3180 C   0  0  0  0  0  0  0  0  0  0  0  0
  140.1830   70.9120  225.2170 C   0  0  0  0  0  0  0  0  0  0  0  0
  139.8920   71.6670  224.1450 N   0  0  0  0  0  0  0  0  0  0  0  0
  139.1390   73.8520  222.9660 H   0  0  0  0  0  0  0  0  0  0  0  0
  137.7430   73.8589  220.3861 H   0  0  0  0  0  0  0  0  0  0  0  0
  138.4829   75.2948  221.1684 H   0  0  0  0  0  0  0  0  0  0  0  0
  140.3359   75.8842  222.0358 H   0  0  0  0  0  0  0  0  0  0  0  0
  141.9593   75.2486  222.0853 H   0  0  0  0  0  0  0  0  0  0  0  0
  140.8954   77.7619  220.7764 H   0  0  0  0  0  0  0  0  0  0  0  0
  142.4977   77.4990  221.4689 H   0  0  0  0  0  0  0  0  0  0  0  0
  141.6283   77.1981  218.7064 H   0  0  0  0  0  0  0  0  0  0  0  0
  143.2718   77.0202  219.3417 H   0  0  0  0  0  0  0  0  0  0  0  0
  142.0563   74.8862  218.2944 H   0  0  0  0  0  0  0  0  0  0  0  0
  144.6861   75.9652  219.9814 H   0  0  0  0  0  0  0  0  0  0  0  0
  146.4078   74.5570  220.9947 H   0  0  0  0  0  0  0  0  0  0  0  0
  143.7593   71.2758  221.1131 H   0  0  0  0  0  0  0  0  0  0  0  0
  141.9786   72.6530  220.0896 H   0  0  0  0  0  0  0  0  0  0  0  0
  138.4581   69.4360  222.0814 H   0  0  0  0  0  0  0  0  0  0  0  0
  138.9698   67.9858  224.0335 H   0  0  0  0  0  0  0  0  0  0  0  0
  139.8613   67.6719  226.2415 H   0  0  0  0  0  0  0  0  0  0  0  0
  141.5546   71.0430  228.2713 H   0  0  0  0  0  0  0  0  0  0  0  0
  141.0656   72.5397  226.3495 H   0  0  0  0  0  0  0  0  0  0  0  0
  1  2  2  0
  2  3  1  0
  3  4  1  0
  4  5  1  0
  5  6  2  0
  5  7  1  0
  7  8  1  0
  8  9  1  0
  9 10  1  0
 10 11  1  0
 11 12  1  0
 12 13  2  0
 13 14  1  0
 14 15  2  0
 15 16  1  0
 16 17  2  0
  2 18  1  0
 18 19  2  0
 19 20  1  0
 20 21  2  0
 21 22  1  0
 22 23  2  0
 23 24  1  0
 23 25  1  0
 25 26  2  0
 26 27  1  0
 27 28  2  0
 11  7  1  0
 17 12  1  0
 28 18  1  0
 27 21  1  0
  3 29  1  0
  4 30  1  0
  4 31  1  0
  8 32  1  0
  8 33  1  0
  9 34  1  0
  9 35  1  0
 10 36  1  0
 10 37  1  0
 11 38  1  6
 13 39  1  0
 14 40  1  0
 16 41  1  0
 17 42  1  0
 19 43  1  0
 20 44  1  0
 22 45  1  0
 25 46  1  0
 26 47  1  0
M  END
>  <smiles>  (70) 
O=C(NCC(=O)N1CCCC1c1ccncc1)c1ccc2cc(Cl)ccc2n1

>  <score_type>  (70) 
oracle

>  <origin>  (70) 
autodockgpu

>  <m_score__min__energy>  (70) 
-8.5

>  <m_primary>  (70) 
energy

>  <rmsd>  (70) 
2.0637331460301103

>  <m_score__min__rmsd>  (70) 
2.0637331460301103

>  <meeko>  (70) 
{"free_energy": -7.53, "intermolecular_energy": -9.02, "internal_energy": -1.66, "cluster_size": 13, "cluster_id": 2, "rank_in_cluster": 13}

>  <energy>  (70) 
-8.32

>  <cluster_rmsd>  (70) 
0.44

>  <cluster>  (70) 
1

$$$$

     RDKit          3D

 47 50  0  0  0  0  0  0  0  0999 V2000
  138.4720   72.4790  221.3860 O   0  0  0  0  0  0  0  0  0  0  0  0
  139.5070   72.5530  222.1270 C   0  0  0  0  0  0  0  0  0  0  0  0
  140.4720   73.5650  221.8800 N   0  0  0  0  0  0  0  0  0  0  0  0
  140.2290   74.4720  220.7880 C   0  0  0  0  0  0  0  0  0  0  0  0
  141.3480   75.4190  220.6880 C   0  0  0  0  0  0  0  0  0  0  0  0
  142.5640   75.1070  220.7920 O   0  0  0  0  0  0  0  0  0  0  0  0
  141.0430   76.7890  220.4570 N   0  0  0  0  0  0  0  0  0  0  0  0
  139.7310   77.4100  220.2610 C   0  0  0  0  0  0  0  0  0  0  0  0
  139.9810   78.3050  219.0820 C   0  0  0  0  0  0  0  0  0  0  0  0
  141.4520   78.5900  219.1130 C   0  0  0  0  0  0  0  0  0  0  0  0
  141.9790   77.9200  220.3570 C   0  0  1  0  0  0  0  0  0  0  0  0
  141.8000   78.6970  221.5860 C   0  0  0  0  0  0  0  0  0  0  0  0
  141.4250   78.1980  222.8020 C   0  0  0  0  0  0  0  0  0  0  0  0
  141.2830   79.0150  223.9030 C   0  0  0  0  0  0  0  0  0  0  0  0
  141.5010   80.3350  223.8530 N   0  0  0  0  0  0  0  0  0  0  0  0
  141.8760   80.8690  222.6610 C   0  0  0  0  0  0  0  0  0  0  0  0
  142.0280   80.0760  221.5290 C   0  0  0  0  0  0  0  0  0  0  0  0
  139.7030   71.5940  223.2330 C   0  0  0  0  0  0  0  0  0  0  0  0
  139.3070   70.2860  223.0440 C   0  0  0  0  0  0  0  0  0  0  0  0
  139.4940   69.4000  224.0810 C   0  0  0  0  0  0  0  0  0  0  0  0
  140.0580   69.8050  225.2730 C   0  0  0  0  0  0  0  0  0  0  0  0
  140.2340   68.8850  226.3050 C   0  0  0  0  0  0  0  0  0  0  0  0
  140.8010   69.3210  227.4830 C   0  0  0  0  0  0  0  0  0  0  0  0
  141.0110   68.1440  228.7660 Cl  0  0  0  0  0  0  0  0  0  0  0  0
  141.1760   70.6420  227.6110 C   0  0  0  0  0  0  0  0  0  0  0  0
  141.0130   71.5740  226.6030 C   0  0  0  0  0  0  0  0  0  0  0  0
  140.4440   71.1240  225.4290 C   0  0  0  0  0  0  0  0  0  0  0  0
  140.2500   71.9680  224.4010 N   0  0  0  0  0  0  0  0  0  0  0  0
  141.2990   73.6060  222.4890 H   0  0  0  0  0  0  0  0  0  0  0  0
  140.1430   73.9038  219.8500 H   0  0  0  0  0  0  0  0  0  0  0  0
  139.2937   75.0228  220.9664 H   0  0  0  0  0  0  0  0  0  0  0  0
  138.9622   76.6565  220.0347 H   0  0  0  0  0  0  0  0  0  0  0  0
  139.3550   77.9406  221.1482 H   0  0  0  0  0  0  0  0  0  0  0  0
  139.7058   77.7967  218.1461 H   0  0  0  0  0  0  0  0  0  0  0  0
  139.3817   79.2262  219.1295 H   0  0  0  0  0  0  0  0  0  0  0  0
  141.9406   78.1750  218.2191 H   0  0  0  0  0  0  0  0  0  0  0  0
  141.6528   79.6715  219.1220 H   0  0  0  0  0  0  0  0  0  0  0  0
  143.0576   77.7194  220.2772 H   0  0  0  0  0  0  0  0  0  0  0  0
  141.2321   77.1199  222.9043 H   0  0  0  0  0  0  0  0  0  0  0  0
  140.9788   78.5651  224.8596 H   0  0  0  0  0  0  0  0  0  0  0  0
  142.0631   81.9507  222.5902 H   0  0  0  0  0  0  0  0  0  0  0  0
  142.3309   80.5382  220.5779 H   0  0  0  0  0  0  0  0  0  0  0  0
  138.8561   69.9613  222.0947 H   0  0  0  0  0  0  0  0  0  0  0  0
  139.1883   68.3506  223.9569 H   0  0  0  0  0  0  0  0  0  0  0  0
  139.9276   67.8357  226.1822 H   0  0  0  0  0  0  0  0  0  0  0  0
  141.6260   70.9695  228.5598 H   0  0  0  0  0  0  0  0  0  0  0  0
  141.3215   72.6221  226.7304 H   0  0  0  0  0  0  0  0  0  0  0  0
  1  2  2  0
  2  3  1  0
  3  4  1  0
  4  5  1  0
  5  6  2  0
  5  7  1  0
  7  8  1  0
  8  9  1  0
  9 10  1  0
 10 11  1  0
 11 12  1  0
 12 13  2  0
 13 14  1  0
 14 15  2  0
 15 16  1  0
 16 17  2  0
  2 18  1  0
 18 19  2  0
 19 20  1  0
 20 21  2  0
 21 22  1  0
 22 23  2  0
 23 24  1  0
 23 25  1  0
 25 26  2  0
 26 27  1  0
 27 28  2  0
 11  7  1  0
 17 12  1  0
 28 18  1  0
 27 21  1  0
  3 29  1  0
  4 30  1  0
  4 31  1  0
  8 32  1  0
  8 33  1  0
  9 34  1  0
  9 35  1  0
 10 36  1  0
 10 37  1  0
 11 38  1  6
 13 39  1  0
 14 40  1  0
 16 41  1  0
 17 42  1  0
 19 43  1  0
 20 44  1  0
 22 45  1  0
 25 46  1  0
 26 47  1  0
M  END
>  <smiles>  (71) 
O=C(NCC(=O)N1CCCC1c1ccncc1)c1ccc2cc(Cl)ccc2n1

>  <score_type>  (71) 
oracle

>  <origin>  (71) 
autodockgpu

>  <m_score__min__energy>  (71) 
-8.5

>  <m_primary>  (71) 
energy

>  <rmsd>  (71) 
1.8724443955386911

>  <m_score__min__rmsd>  (71) 
1.8724443955386911

>  <meeko>  (71) 
{"free_energy": -7.62, "intermolecular_energy": -9.11, "internal_energy": -1.41, "cluster_size": 33, "cluster_id": 1, "rank_in_cluster": 31}

>  <energy>  (71) 
-8.31

>  <cluster_rmsd>  (71) 
0.65

>  <cluster>  (71) 
1

$$$$

     RDKit          3D

 47 50  0  0  0  0  0  0  0  0999 V2000
  140.8190   73.3770  221.9170 O   0  0  0  0  0  0  0  0  0  0  0  0
  139.8140   72.9600  222.5820 C   0  0  0  0  0  0  0  0  0  0  0  0
  138.5260   73.4940  222.3110 N   0  0  0  0  0  0  0  0  0  0  0  0
  138.4190   74.4960  221.2820 C   0  0  0  0  0  0  0  0  0  0  0  0
  138.6590   75.8210  221.8700 C   0  0  0  0  0  0  0  0  0  0  0  0
  138.0170   76.3020  222.8410 O   0  0  0  0  0  0  0  0  0  0  0  0
  139.6890   76.6240  221.3060 N   0  0  0  0  0  0  0  0  0  0  0  0
  139.6330   77.4710  220.1130 C   0  0  0  0  0  0  0  0  0  0  0  0
  140.9120   77.1110  219.4130 C   0  0  0  0  0  0  0  0  0  0  0  0
  141.8240   76.6200  220.4950 C   0  0  0  0  0  0  0  0  0  0  0  0
  141.0670   76.7970  221.7890 C   0  0  1  0  0  0  0  0  0  0  0  0
  141.1300   78.1490  222.3470 C   0  0  0  0  0  0  0  0  0  0  0  0
  142.1680   79.0280  222.2020 C   0  0  0  0  0  0  0  0  0  0  0  0
  142.1310   80.2850  222.7680 C   0  0  0  0  0  0  0  0  0  0  0  0
  141.0910   80.7200  223.4890 N   0  0  0  0  0  0  0  0  0  0  0  0
  140.0390   79.8740  223.6550 C   0  0  0  0  0  0  0  0  0  0  0  0
  140.0400   78.6000  223.0990 C   0  0  0  0  0  0  0  0  0  0  0  0
  139.9860   71.9300  223.6260 C   0  0  0  0  0  0  0  0  0  0  0  0
  139.7000   70.6180  223.3060 C   0  0  0  0  0  0  0  0  0  0  0  0
  139.8630   69.6660  224.2860 C   0  0  0  0  0  0  0  0  0  0  0  0
  140.2980   70.0080  225.5490 C   0  0  0  0  0  0  0  0  0  0  0  0
  140.4530   69.0210  226.5220 C   0  0  0  0  0  0  0  0  0  0  0  0
  140.8900   69.3960  227.7730 C   0  0  0  0  0  0  0  0  0  0  0  0
  141.0770   68.1360  228.9780 Cl  0  0  0  0  0  0  0  0  0  0  0  0
  141.1600   70.7240  228.0320 C   0  0  0  0  0  0  0  0  0  0  0  0
  141.0140   71.7220  227.0860 C   0  0  0  0  0  0  0  0  0  0  0  0
  140.5760   71.3330  225.8370 C   0  0  0  0  0  0  0  0  0  0  0  0
  140.4080   72.2430  224.8620 N   0  0  0  0  0  0  0  0  0  0  0  0
  137.7300   73.1440  222.8590 H   0  0  0  0  0  0  0  0  0  0  0  0
  139.1664   74.3003  220.4990 H   0  0  0  0  0  0  0  0  0  0  0  0
  137.4123   74.4651  220.8398 H   0  0  0  0  0  0  0  0  0  0  0  0
  138.7568   77.2304  219.4930 H   0  0  0  0  0  0  0  0  0  0  0  0
  139.5364   78.5439  220.3354 H   0  0  0  0  0  0  0  0  0  0  0  0
  140.7356   76.3207  218.6685 H   0  0  0  0  0  0  0  0  0  0  0  0
  141.3398   77.9668  218.8701 H   0  0  0  0  0  0  0  0  0  0  0  0
  142.0681   75.5591  220.3370 H   0  0  0  0  0  0  0  0  0  0  0  0
  142.7736   77.1751  220.5044 H   0  0  0  0  0  0  0  0  0  0  0  0
  141.4494   76.1263  222.5726 H   0  0  0  0  0  0  0  0  0  0  0  0
  143.0518   78.7255  221.6211 H   0  0  0  0  0  0  0  0  0  0  0  0
  142.9899   80.9563  222.6211 H   0  0  0  0  0  0  0  0  0  0  0  0
  139.1692   80.2049  224.2415 H   0  0  0  0  0  0  0  0  0  0  0  0
  139.1741   77.9391  223.2520 H   0  0  0  0  0  0  0  0  0  0  0  0
  139.3527   70.3423  222.2993 H   0  0  0  0  0  0  0  0  0  0  0  0
  139.6423   68.6128  224.0577 H   0  0  0  0  0  0  0  0  0  0  0  0
  140.2314   67.9676  226.2955 H   0  0  0  0  0  0  0  0  0  0  0  0
  141.5076   71.0019  229.0380 H   0  0  0  0  0  0  0  0  0  0  0  0
  141.2361   72.7741  227.3179 H   0  0  0  0  0  0  0  0  0  0  0  0
  1  2  2  0
  2  3  1  0
  3  4  1  0
  4  5  1  0
  5  6  2  0
  5  7  1  0
  7  8  1  0
  8  9  1  0
  9 10  1  0
 10 11  1  0
 11 12  1  0
 12 13  2  0
 13 14  1  0
 14 15  2  0
 15 16  1  0
 16 17  2  0
  2 18  1  0
 18 19  2  0
 19 20  1  0
 20 21  2  0
 21 22  1  0
 22 23  2  0
 23 24  1  0
 23 25  1  0
 25 26  2  0
 26 27  1  0
 27 28  2  0
 11  7  1  0
 17 12  1  0
 28 18  1  0
 27 21  1  0
  3 29  1  0
  4 30  1  0
  4 31  1  0
  8 32  1  0
  8 33  1  0
  9 34  1  0
  9 35  1  0
 10 36  1  0
 10 37  1  0
 11 38  1  1
 13 39  1  0
 14 40  1  0
 16 41  1  0
 17 42  1  0
 19 43  1  0
 20 44  1  0
 22 45  1  0
 25 46  1  0
 26 47  1  0
M  END
>  <smiles>  (72) 
O=C(NCC(=O)N1CCCC1c1ccncc1)c1ccc2cc(Cl)ccc2n1

>  <score_type>  (72) 
oracle

>  <origin>  (72) 
autodockgpu

>  <m_score__min__energy>  (72) 
-8.5

>  <m_primary>  (72) 
energy

>  <rmsd>  (72) 
1.9642903229516966

>  <m_score__min__rmsd>  (72) 
1.9642903229516966

>  <meeko>  (72) 
{"free_energy": -8.2, "intermolecular_energy": -9.7, "internal_energy": -1.37, "cluster_size": 33, "cluster_id": 1, "rank_in_cluster": 28}

>  <energy>  (72) 
-8.3

>  <cluster_rmsd>  (72) 
0.63

>  <cluster>  (72) 
1

$$$$

     RDKit          3D

 47 50  0  0  0  0  0  0  0  0999 V2000
  139.8160   72.3760  220.7690 O   0  0  0  0  0  0  0  0  0  0  0  0
  139.7420   72.7870  221.9750 C   0  0  0  0  0  0  0  0  0  0  0  0
  139.5350   74.1680  222.2310 N   0  0  0  0  0  0  0  0  0  0  0  0
  139.4150   75.0500  221.0990 C   0  0  0  0  0  0  0  0  0  0  0  0
  140.7350   75.6130  220.7820 C   0  0  0  0  0  0  0  0  0  0  0  0
  141.8060   74.9510  220.7410 O   0  0  0  0  0  0  0  0  0  0  0  0
  140.8170   77.0040  220.5010 N   0  0  0  0  0  0  0  0  0  0  0  0
  139.7400   77.9220  220.1210 C   0  0  0  0  0  0  0  0  0  0  0  0
  140.3610   78.6770  218.9810 C   0  0  0  0  0  0  0  0  0  0  0  0
  141.8380   78.5900  219.2130 C   0  0  0  0  0  0  0  0  0  0  0  0
  142.0110   77.8630  220.5240 C   0  0  1  0  0  0  0  0  0  0  0  0
  141.8720   78.7110  221.7100 C   0  0  0  0  0  0  0  0  0  0  0  0
  141.4790   78.2940  222.9510 C   0  0  0  0  0  0  0  0  0  0  0  0
  141.3790   79.1740  224.0080 C   0  0  0  0  0  0  0  0  0  0  0  0
  141.6560   80.4770  223.8890 N   0  0  0  0  0  0  0  0  0  0  0  0
  142.0510   80.9310  222.6690 C   0  0  0  0  0  0  0  0  0  0  0  0
  142.1630   80.0730  221.5800 C   0  0  0  0  0  0  0  0  0  0  0  0
  139.8730   71.8350  223.0960 C   0  0  0  0  0  0  0  0  0  0  0  0
  139.4940   70.5250  222.8910 C   0  0  0  0  0  0  0  0  0  0  0  0
  139.6190   69.6450  223.9420 C   0  0  0  0  0  0  0  0  0  0  0  0
  140.1070   70.0580  225.1640 C   0  0  0  0  0  0  0  0  0  0  0  0
  140.2220   69.1440  226.2100 C   0  0  0  0  0  0  0  0  0  0  0  0
  140.7140   69.5890  227.4180 C   0  0  0  0  0  0  0  0  0  0  0  0
  140.8480   68.4190  228.7180 Cl  0  0  0  0  0  0  0  0  0  0  0  0
  141.0760   70.9120  227.5620 C   0  0  0  0  0  0  0  0  0  0  0  0
  140.9720   71.8380  226.5400 C   0  0  0  0  0  0  0  0  0  0  0  0
  140.4780   71.3800  225.3360 C   0  0  0  0  0  0  0  0  0  0  0  0
  140.3460   72.2180  224.2940 N   0  0  0  0  0  0  0  0  0  0  0  0
  139.4790   74.4780  223.2100 H   0  0  0  0  0  0  0  0  0  0  0  0
  139.0375   74.4871  220.2326 H   0  0  0  0  0  0  0  0  0  0  0  0
  138.7142   75.8636  221.3375 H   0  0  0  0  0  0  0  0  0  0  0  0
  138.8435   77.3737  219.7960 H   0  0  0  0  0  0  0  0  0  0  0  0
  139.3950   78.5657  220.9436 H   0  0  0  0  0  0  0  0  0  0  0  0
  140.0932   78.2138  218.0199 H   0  0  0  0  0  0  0  0  0  0  0  0
  140.0115   79.7191  218.9383 H   0  0  0  0  0  0  0  0  0  0  0  0
  142.3204   78.0296  218.3986 H   0  0  0  0  0  0  0  0  0  0  0  0
  142.3008   79.5875  219.2413 H   0  0  0  0  0  0  0  0  0  0  0  0
  143.0055   77.3986  220.5967 H   0  0  0  0  0  0  0  0  0  0  0  0
  141.2371   77.2328  223.1101 H   0  0  0  0  0  0  0  0  0  0  0  0
  141.0588   78.7892  224.9875 H   0  0  0  0  0  0  0  0  0  0  0  0
  142.2865   81.9979  222.5412 H   0  0  0  0  0  0  0  0  0  0  0  0
  142.4840   80.4700  220.6056 H   0  0  0  0  0  0  0  0  0  0  0  0
  139.1038   70.1935  221.9174 H   0  0  0  0  0  0  0  0  0  0  0  0
  139.3246   68.5941  223.8048 H   0  0  0  0  0  0  0  0  0  0  0  0
  139.9272   68.0929  226.0746 H   0  0  0  0  0  0  0  0  0  0  0  0
  141.4655   71.2462  228.5349 H   0  0  0  0  0  0  0  0  0  0  0  0
  141.2685   72.8880  226.6802 H   0  0  0  0  0  0  0  0  0  0  0  0
  1  2  2  0
  2  3  1  0
  3  4  1  0
  4  5  1  0
  5  6  2  0
  5  7  1  0
  7  8  1  0
  8  9  1  0
  9 10  1  0
 10 11  1  0
 11 12  1  0
 12 13  2  0
 13 14  1  0
 14 15  2  0
 15 16  1  0
 16 17  2  0
  2 18  1  0
 18 19  2  0
 19 20  1  0
 20 21  2  0
 21 22  1  0
 22 23  2  0
 23 24  1  0
 23 25  1  0
 25 26  2  0
 26 27  1  0
 27 28  2  0
 11  7  1  0
 17 12  1  0
 28 18  1  0
 27 21  1  0
  3 29  1  0
  4 30  1  0
  4 31  1  0
  8 32  1  0
  8 33  1  0
  9 34  1  0
  9 35  1  0
 10 36  1  0
 10 37  1  0
 11 38  1  6
 13 39  1  0
 14 40  1  0
 16 41  1  0
 17 42  1  0
 19 43  1  0
 20 44  1  0
 22 45  1  0
 25 46  1  0
 26 47  1  0
M  END
>  <smiles>  (73) 
O=C(NCC(=O)N1CCCC1c1ccncc1)c1ccc2cc(Cl)ccc2n1

>  <score_type>  (73) 
oracle

>  <origin>  (73) 
autodockgpu

>  <m_score__min__energy>  (73) 
-8.5

>  <m_primary>  (73) 
energy

>  <rmsd>  (73) 
1.9357588884565389

>  <m_score__min__rmsd>  (73) 
1.9357588884565389

>  <meeko>  (73) 
{"free_energy": -8.25, "intermolecular_energy": -9.75, "internal_energy": -1.36, "cluster_size": 33, "cluster_id": 1, "rank_in_cluster": 23}

>  <energy>  (73) 
-8.25

>  <cluster_rmsd>  (73) 
0.86

>  <cluster>  (73) 
1

$$$$

     RDKit          3D

 47 50  0  0  0  0  0  0  0  0999 V2000
  140.7710   72.5950  220.9000 O   0  0  0  0  0  0  0  0  0  0  0  0
  140.1430   72.8650  221.9770 C   0  0  0  0  0  0  0  0  0  0  0  0
  139.4610   74.1050  222.0960 N   0  0  0  0  0  0  0  0  0  0  0  0
  139.5150   75.0100  220.9780 C   0  0  0  0  0  0  0  0  0  0  0  0
  139.2000   76.3700  221.4390 C   0  0  0  0  0  0  0  0  0  0  0  0
  138.3030   76.6530  222.2760 O   0  0  0  0  0  0  0  0  0  0  0  0
  139.9590   77.4470  220.9050 N   0  0  0  0  0  0  0  0  0  0  0  0
  139.4780   78.6530  220.2280 C   0  0  0  0  0  0  0  0  0  0  0  0
  140.4010   78.7370  219.0460 C   0  0  0  0  0  0  0  0  0  0  0  0
  141.6420   78.0100  219.4670 C   0  0  0  0  0  0  0  0  0  0  0  0
  141.4210   77.6100  220.9050 C   0  0  1  0  0  0  0  0  0  0  0  0
  141.7070   78.6660  221.8780 C   0  0  0  0  0  0  0  0  0  0  0  0
  142.1760   79.9180  221.5880 C   0  0  0  0  0  0  0  0  0  0  0  0
  142.4150   80.8450  222.5800 C   0  0  0  0  0  0  0  0  0  0  0  0
  142.2070   80.5830  223.8750 N   0  0  0  0  0  0  0  0  0  0  0  0
  141.7400   79.3490  224.2040 C   0  0  0  0  0  0  0  0  0  0  0  0
  141.4880   78.3880  223.2320 C   0  0  0  0  0  0  0  0  0  0  0  0
  140.1230   71.8960  223.0920 C   0  0  0  0  0  0  0  0  0  0  0  0
  139.6030   70.6400  222.8590 C   0  0  0  0  0  0  0  0  0  0  0  0
  139.5890   69.7440  223.9050 C   0  0  0  0  0  0  0  0  0  0  0  0
  140.0770   70.0900  225.1470 C   0  0  0  0  0  0  0  0  0  0  0  0
  140.0500   69.1620  226.1870 C   0  0  0  0  0  0  0  0  0  0  0  0
  140.5460   69.5390  227.4160 C   0  0  0  0  0  0  0  0  0  0  0  0
  140.4990   68.3530  228.7070 Cl  0  0  0  0  0  0  0  0  0  0  0  0
  141.0520   70.8100  227.5860 C   0  0  0  0  0  0  0  0  0  0  0  0
  141.0920   71.7500  226.5720 C   0  0  0  0  0  0  0  0  0  0  0  0
  140.5910   71.3600  225.3460 C   0  0  0  0  0  0  0  0  0  0  0  0
  140.5930   72.2140  224.3090 N   0  0  0  0  0  0  0  0  0  0  0  0
  138.9620   74.3020  222.9720 H   0  0  0  0  0  0  0  0  0  0  0  0
  140.5244   74.9946  220.5410 H   0  0  0  0  0  0  0  0  0  0  0  0
  138.7838   74.7000  220.2169 H   0  0  0  0  0  0  0  0  0  0  0  0
  138.4308   78.5421  219.9102 H   0  0  0  0  0  0  0  0  0  0  0  0
  139.4874   79.5514  220.8626 H   0  0  0  0  0  0  0  0  0  0  0  0
  139.9489   78.2527  218.1679 H   0  0  0  0  0  0  0  0  0  0  0  0
  140.6105   79.7783  218.7600 H   0  0  0  0  0  0  0  0  0  0  0  0
  141.7937   77.1183  218.8411 H   0  0  0  0  0  0  0  0  0  0  0  0
  142.5361   78.6412  219.3568 H   0  0  0  0  0  0  0  0  0  0  0  0
  142.0562   76.7571  221.1860 H   0  0  0  0  0  0  0  0  0  0  0  0
  142.3667   80.1912  220.5397 H   0  0  0  0  0  0  0  0  0  0  0  0
  142.7913   81.8387  222.2955 H   0  0  0  0  0  0  0  0  0  0  0  0
  141.5579   79.1063  225.2613 H   0  0  0  0  0  0  0  0  0  0  0  0
  141.1123   77.3981  223.5302 H   0  0  0  0  0  0  0  0  0  0  0  0
  139.2118   70.3626  221.8690 H   0  0  0  0  0  0  0  0  0  0  0  0
  139.1813   68.7347  223.7466 H   0  0  0  0  0  0  0  0  0  0  0  0
  139.6423   68.1525  226.0301 H   0  0  0  0  0  0  0  0  0  0  0  0
  141.4427   71.0901  228.5754 H   0  0  0  0  0  0  0  0  0  0  0  0
  141.5023   72.7576  226.7343 H   0  0  0  0  0  0  0  0  0  0  0  0
  1  2  2  0
  2  3  1  0
  3  4  1  0
  4  5  1  0
  5  6  2  0
  5  7  1  0
  7  8  1  0
  8  9  1  0
  9 10  1  0
 10 11  1  0
 11 12  1  0
 12 13  2  0
 13 14  1  0
 14 15  2  0
 15 16  1  0
 16 17  2  0
  2 18  1  0
 18 19  2  0
 19 20  1  0
 20 21  2  0
 21 22  1  0
 22 23  2  0
 23 24  1  0
 23 25  1  0
 25 26  2  0
 26 27  1  0
 27 28  2  0
 11  7  1  0
 17 12  1  0
 28 18  1  0
 27 21  1  0
  3 29  1  0
  4 30  1  0
  4 31  1  0
  8 32  1  0
  8 33  1  0
  9 34  1  0
  9 35  1  0
 10 36  1  0
 10 37  1  0
 11 38  1  1
 13 39  1  0
 14 40  1  0
 16 41  1  0
 17 42  1  0
 19 43  1  0
 20 44  1  0
 22 45  1  0
 25 46  1  0
 26 47  1  0
M  END
>  <smiles>  (74) 
O=C(NCC(=O)N1CCCC1c1ccncc1)c1ccc2cc(Cl)ccc2n1

>  <score_type>  (74) 
oracle

>  <origin>  (74) 
autodockgpu

>  <m_score__min__energy>  (74) 
-8.5

>  <m_primary>  (74) 
energy

>  <rmsd>  (74) 
2.144723812481483

>  <m_score__min__rmsd>  (74) 
2.144723812481483

>  <meeko>  (74) 
{"free_energy": -8.42, "intermolecular_energy": -9.92, "internal_energy": -1.41, "cluster_size": 33, "cluster_id": 1, "rank_in_cluster": 7}

>  <energy>  (74) 
-8.25

>  <cluster_rmsd>  (74) 
0.6

>  <cluster>  (74) 
1

$$$$

     RDKit          3D

 47 50  0  0  0  0  0  0  0  0999 V2000
  137.1960   71.4740  220.9790 O   0  0  0  0  0  0  0  0  0  0  0  0
  137.7940   72.0290  221.9590 C   0  0  0  0  0  0  0  0  0  0  0  0
  138.0000   73.4330  221.9480 N   0  0  0  0  0  0  0  0  0  0  0  0
  137.5160   74.1730  220.8110 C   0  0  0  0  0  0  0  0  0  0  0  0
  137.7870   75.6040  221.0130 C   0  0  0  0  0  0  0  0  0  0  0  0
  136.9020   76.4950  221.1040 O   0  0  0  0  0  0  0  0  0  0  0  0
  139.1430   76.0180  221.1140 N   0  0  0  0  0  0  0  0  0  0  0  0
  140.0130   76.5500  220.0630 C   0  0  0  0  0  0  0  0  0  0  0  0
  141.2810   75.7760  220.2850 C   0  0  0  0  0  0  0  0  0  0  0  0
  141.2480   75.3770  221.7280 C   0  0  0  0  0  0  0  0  0  0  0  0
  140.0060   76.0090  222.3050 C   0  0  1  0  0  0  0  0  0  0  0  0
  140.1650   77.4120  222.6950 C   0  0  0  0  0  0  0  0  0  0  0  0
  139.1680   78.3460  222.7510 C   0  0  0  0  0  0  0  0  0  0  0  0
  139.4200   79.6470  223.1310 C   0  0  0  0  0  0  0  0  0  0  0  0
  140.6430   80.0750  223.4650 N   0  0  0  0  0  0  0  0  0  0  0  0
  141.6620   79.1750  223.4220 C   0  0  0  0  0  0  0  0  0  0  0  0
  141.4460   77.8560  223.0430 C   0  0  0  0  0  0  0  0  0  0  0  0
  138.2690   71.2180  223.0990 C   0  0  0  0  0  0  0  0  0  0  0  0
  137.7070   69.9730  223.2970 C   0  0  0  0  0  0  0  0  0  0  0  0
  138.1560   69.2250  224.3620 C   0  0  0  0  0  0  0  0  0  0  0  0
  139.1370   69.7030  225.2060 C   0  0  0  0  0  0  0  0  0  0  0  0
  139.5710   68.9220  226.2760 C   0  0  0  0  0  0  0  0  0  0  0  0
  140.5530   69.4280  227.1000 C   0  0  0  0  0  0  0  0  0  0  0  0
  141.0810   68.4270  228.4400 Cl  0  0  0  0  0  0  0  0  0  0  0  0
  141.0750   70.6800  226.8510 C   0  0  0  0  0  0  0  0  0  0  0  0
  140.6620   71.4740  225.7970 C   0  0  0  0  0  0  0  0  0  0  0  0
  139.6790   70.9550  224.9790 C   0  0  0  0  0  0  0  0  0  0  0  0
  139.2230   71.6650  223.9330 N   0  0  0  0  0  0  0  0  0  0  0  0
  138.4840   73.8600  222.7480 H   0  0  0  0  0  0  0  0  0  0  0  0
  138.0286   73.8265  219.9015 H   0  0  0  0  0  0  0  0  0  0  0  0
  136.4330   74.0144  220.7013 H   0  0  0  0  0  0  0  0  0  0  0  0
  139.5965   76.3564  219.0635 H   0  0  0  0  0  0  0  0  0  0  0  0
  140.1460   77.6410  220.1077 H   0  0  0  0  0  0  0  0  0  0  0  0
  141.3082   74.8861  219.6390 H   0  0  0  0  0  0  0  0  0  0  0  0
  142.1742   76.3705  220.0425 H   0  0  0  0  0  0  0  0  0  0  0  0
  141.1983   74.2821  221.8209 H   0  0  0  0  0  0  0  0  0  0  0  0
  142.1528   75.7082  222.2587 H   0  0  0  0  0  0  0  0  0  0  0  0
  139.6695   75.4779  223.2076 H   0  0  0  0  0  0  0  0  0  0  0  0
  138.1413   78.0526  222.4868 H   0  0  0  0  0  0  0  0  0  0  0  0
  138.5835   80.3607  223.1608 H   0  0  0  0  0  0  0  0  0  0  0  0
  142.6780   79.4982  223.6929 H   0  0  0  0  0  0  0  0  0  0  0  0
  142.2913   77.1526  223.0161 H   0  0  0  0  0  0  0  0  0  0  0  0
  136.9248   69.5904  222.6249 H   0  0  0  0  0  0  0  0  0  0  0  0
  137.7252   68.2292  224.5431 H   0  0  0  0  0  0  0  0  0  0  0  0
  139.1403   67.9264  226.4582 H   0  0  0  0  0  0  0  0  0  0  0  0
  141.8566   71.0650  227.5224 H   0  0  0  0  0  0  0  0  0  0  0  0
  141.0952   72.4694  225.6194 H   0  0  0  0  0  0  0  0  0  0  0  0
  1  2  2  0
  2  3  1  0
  3  4  1  0
  4  5  1  0
  5  6  2  0
  5  7  1  0
  7  8  1  0
  8  9  1  0
  9 10  1  0
 10 11  1  0
 11 12  1  0
 12 13  2  0
 13 14  1  0
 14 15  2  0
 15 16  1  0
 16 17  2  0
  2 18  1  0
 18 19  2  0
 19 20  1  0
 20 21  2  0
 21 22  1  0
 22 23  2  0
 23 24  1  0
 23 25  1  0
 25 26  2  0
 26 27  1  0
 27 28  2  0
 11  7  1  0
 17 12  1  0
 28 18  1  0
 27 21  1  0
  3 29  1  0
  4 30  1  0
  4 31  1  0
  8 32  1  0
  8 33  1  0
  9 34  1  0
  9 35  1  0
 10 36  1  0
 10 37  1  0
 11 38  1  1
 13 39  1  0
 14 40  1  0
 16 41  1  0
 17 42  1  0
 19 43  1  0
 20 44  1  0
 22 45  1  0
 25 46  1  0
 26 47  1  0
M  END
>  <smiles>  (75) 
O=C(NCC(=O)N1CCCC1c1ccncc1)c1ccc2cc(Cl)ccc2n1

>  <score_type>  (75) 
oracle

>  <origin>  (75) 
autodockgpu

>  <m_score__min__energy>  (75) 
-8.5

>  <m_primary>  (75) 
energy

>  <rmsd>  (75) 
2.2297727950390125

>  <m_score__min__rmsd>  (75) 
2.2297727950390125

>  <meeko>  (75) 
{"free_energy": -7.14, "intermolecular_energy": -8.63, "internal_energy": -1.56, "cluster_size": 33, "cluster_id": 1, "rank_in_cluster": 33}

>  <energy>  (75) 
-8.25

>  <cluster_rmsd>  (75) 
0.48

>  <cluster>  (75) 
1

$$$$

     RDKit          3D

 47 50  0  0  0  0  0  0  0  0999 V2000
  134.7640   68.4990  225.3250 O   0  0  0  0  0  0  0  0  0  0  0  0
  135.0280   69.7130  225.0350 C   0  0  0  0  0  0  0  0  0  0  0  0
  136.0590   70.0020  224.1030 N   0  0  0  0  0  0  0  0  0  0  0  0
  136.7680   68.8910  223.5220 C   0  0  0  0  0  0  0  0  0  0  0  0
  138.1200   68.8260  224.0950 C   0  0  0  0  0  0  0  0  0  0  0  0
  138.6630   67.7780  224.5340 O   0  0  0  0  0  0  0  0  0  0  0  0
  138.8740   70.0290  224.1620 N   0  0  0  0  0  0  0  0  0  0  0  0
  138.4070   71.4080  224.0000 C   0  0  0  0  0  0  0  0  0  0  0  0
  139.4500   71.9860  223.0870 C   0  0  0  0  0  0  0  0  0  0  0  0
  140.6730   71.1520  223.3140 C   0  0  0  0  0  0  0  0  0  0  0  0
  140.3160   70.1800  224.4110 C   0  0  1  0  0  0  0  0  0  0  0  0
  140.4340   70.7260  225.7650 C   0  0  0  0  0  0  0  0  0  0  0  0
  141.0910   71.8730  226.1130 C   0  0  0  0  0  0  0  0  0  0  0  0
  141.1460   72.3040  227.4210 C   0  0  0  0  0  0  0  0  0  0  0  0
  140.5660   71.6350  228.4240 N   0  0  0  0  0  0  0  0  0  0  0  0
  139.9020   70.4880  228.1190 C   0  0  0  0  0  0  0  0  0  0  0  0
  139.8270   70.0220  226.8110 C   0  0  0  0  0  0  0  0  0  0  0  0
  134.2660   70.8120  225.6640 C   0  0  0  0  0  0  0  0  0  0  0  0
  133.2200   70.4880  226.5020 C   0  0  0  0  0  0  0  0  0  0  0  0
  132.5170   71.5190  227.0830 C   0  0  0  0  0  0  0  0  0  0  0  0
  132.8450   72.8350  226.8350 C   0  0  0  0  0  0  0  0  0  0  0  0
  132.1140   73.8580  227.4380 C   0  0  0  0  0  0  0  0  0  0  0  0
  132.4680   75.1630  227.1710 C   0  0  0  0  0  0  0  0  0  0  0  0
  131.5330   76.4300  227.9410 Cl  0  0  0  0  0  0  0  0  0  0  0  0
  133.5240   75.4230  226.3230 C   0  0  0  0  0  0  0  0  0  0  0  0
  134.2650   74.4270  225.7130 C   0  0  0  0  0  0  0  0  0  0  0  0
  133.9000   73.1250  225.9890 C   0  0  0  0  0  0  0  0  0  0  0  0
  134.5700   72.1000  225.4350 N   0  0  0  0  0  0  0  0  0  0  0  0
  136.2550   70.9870  223.8850 H   0  0  0  0  0  0  0  0  0  0  0  0
  136.2305   67.9567  223.7412 H   0  0  0  0  0  0  0  0  0  0  0  0
  136.8351   69.0253  222.4323 H   0  0  0  0  0  0  0  0  0  0  0  0
  137.4092   71.4403  223.5380 H   0  0  0  0  0  0  0  0  0  0  0  0
  138.2971   71.9533  224.9490 H   0  0  0  0  0  0  0  0  0  0  0  0
  139.1255   71.9181  222.0382 H   0  0  0  0  0  0  0  0  0  0  0  0
  139.6334   73.0509  223.2929 H   0  0  0  0  0  0  0  0  0  0  0  0
  140.9417   70.6097  222.3954 H   0  0  0  0  0  0  0  0  0  0  0  0
  141.5379   71.7725  223.5913 H   0  0  0  0  0  0  0  0  0  0  0  0
  140.9615   69.2897  224.3838 H   0  0  0  0  0  0  0  0  0  0  0  0
  141.5875   72.4660  225.3308 H   0  0  0  0  0  0  0  0  0  0  0  0
  141.6876   73.2339  227.6491 H   0  0  0  0  0  0  0  0  0  0  0  0
  139.4144   69.9174  228.9232 H   0  0  0  0  0  0  0  0  0  0  0  0
  139.2844   69.0895  226.5961 H   0  0  0  0  0  0  0  0  0  0  0  0
  132.9557   69.4387  226.7000 H   0  0  0  0  0  0  0  0  0  0  0  0
  131.6787   71.2889  227.7570 H   0  0  0  0  0  0  0  0  0  0  0  0
  131.2746   73.6289  228.1109 H   0  0  0  0  0  0  0  0  0  0  0  0
  133.7894   76.4715  226.1223 H   0  0  0  0  0  0  0  0  0  0  0  0
  135.1038   74.6611  225.0410 H   0  0  0  0  0  0  0  0  0  0  0  0
  1  2  2  0
  2  3  1  0
  3  4  1  0
  4  5  1  0
  5  6  2  0
  5  7  1  0
  7  8  1  0
  8  9  1  0
  9 10  1  0
 10 11  1  0
 11 12  1  0
 12 13  2  0
 13 14  1  0
 14 15  2  0
 15 16  1  0
 16 17  2  0
  2 18  1  0
 18 19  2  0
 19 20  1  0
 20 21  2  0
 21 22  1  0
 22 23  2  0
 23 24  1  0
 23 25  1  0
 25 26  2  0
 26 27  1  0
 27 28  2  0
 11  7  1  0
 17 12  1  0
 28 18  1  0
 27 21  1  0
  3 29  1  0
  4 30  1  0
  4 31  1  0
  8 32  1  0
  8 33  1  0
  9 34  1  0
  9 35  1  0
 10 36  1  0
 10 37  1  0
 11 38  1  1
 13 39  1  0
 14 40  1  0
 16 41  1  0
 17 42  1  0
 19 43  1  0
 20 44  1  0
 22 45  1  0
 25 46  1  0
 26 47  1  0
M  END
>  <smiles>  (76) 
O=C(NCC(=O)N1CCCC1c1ccncc1)c1ccc2cc(Cl)ccc2n1

>  <score_type>  (76) 
oracle

>  <origin>  (76) 
autodockgpu

>  <m_score__min__energy>  (76) 
-8.5

>  <m_primary>  (76) 
energy

>  <rmsd>  (76) 
7.342601223972011

>  <m_score__min__rmsd>  (76) 
7.342601223972011

>  <meeko>  (76) 
{"free_energy": -7.9, "intermolecular_energy": -9.39, "internal_energy": -1.44, "cluster_size": 2, "cluster_id": 3, "rank_in_cluster": 1}

>  <energy>  (76) 
-8.24

>  <cluster_rmsd>  (76) 
1.16

>  <cluster>  (76) 
1

$$$$

     RDKit          3D

 47 50  0  0  0  0  0  0  0  0999 V2000
  139.3990   71.9150  220.7030 O   0  0  0  0  0  0  0  0  0  0  0  0
  139.1990   72.3330  221.8920 C   0  0  0  0  0  0  0  0  0  0  0  0
  138.7350   73.6600  222.0960 N   0  0  0  0  0  0  0  0  0  0  0  0
  138.5090   74.4780  220.9340 C   0  0  0  0  0  0  0  0  0  0  0  0
  138.7110   75.8900  221.2890 C   0  0  0  0  0  0  0  0  0  0  0  0
  137.7870   76.6980  221.5710 O   0  0  0  0  0  0  0  0  0  0  0  0
  140.0430   76.3870  221.3160 N   0  0  0  0  0  0  0  0  0  0  0  0
  140.8240   76.8360  222.4710 C   0  0  0  0  0  0  0  0  0  0  0  0
  141.4250   78.1160  221.9640 C   0  0  0  0  0  0  0  0  0  0  0  0
  141.4620   77.9660  220.4740 C   0  0  0  0  0  0  0  0  0  0  0  0
  140.9630   76.5730  220.1830 C   0  0  1  0  0  0  0  0  0  0  0  0
  141.9780   75.5260  220.3160 C   0  0  0  0  0  0  0  0  0  0  0  0
  141.7580   74.2460  220.7460 C   0  0  0  0  0  0  0  0  0  0  0  0
  142.7850   73.3310  220.8370 C   0  0  0  0  0  0  0  0  0  0  0  0
  144.0480   73.6310  220.5140 N   0  0  0  0  0  0  0  0  0  0  0  0
  144.3070   74.8940  220.0820 C   0  0  0  0  0  0  0  0  0  0  0  0
  143.2980   75.8440  219.9780 C   0  0  0  0  0  0  0  0  0  0  0  0
  139.4480   71.4470  223.0470 C   0  0  0  0  0  0  0  0  0  0  0  0
  139.0830   70.1210  222.9450 C   0  0  0  0  0  0  0  0  0  0  0  0
  139.3190   69.3030  224.0270 C   0  0  0  0  0  0  0  0  0  0  0  0
  139.9020   69.7920  225.1780 C   0  0  0  0  0  0  0  0  0  0  0  0
  140.1290   68.9390  226.2570 C   0  0  0  0  0  0  0  0  0  0  0  0
  140.7130   69.4590  227.3910 C   0  0  0  0  0  0  0  0  0  0  0  0
  140.9870   68.3660  228.7350 Cl  0  0  0  0  0  0  0  0  0  0  0  0
  141.0560   70.7940  227.4320 C   0  0  0  0  0  0  0  0  0  0  0  0
  140.8420   71.6610  226.3760 C   0  0  0  0  0  0  0  0  0  0  0  0
  140.2560   71.1280  225.2460 C   0  0  0  0  0  0  0  0  0  0  0  0
  140.0150   71.9040  224.1760 N   0  0  0  0  0  0  0  0  0  0  0  0
  138.5810   73.9770  223.0620 H   0  0  0  0  0  0  0  0  0  0  0  0
  139.2161   74.1935  220.1408 H   0  0  0  0  0  0  0  0  0  0  0  0
  137.4800   74.3315  220.5739 H   0  0  0  0  0  0  0  0  0  0  0  0
  140.1792   77.0156  223.3439 H   0  0  0  0  0  0  0  0  0  0  0  0
  141.5682   76.1026  222.8150 H   0  0  0  0  0  0  0  0  0  0  0  0
  140.8012   78.9756  222.2503 H   0  0  0  0  0  0  0  0  0  0  0  0
  142.4249   78.2972  222.3851 H   0  0  0  0  0  0  0  0  0  0  0  0
  140.8091   78.7128  219.9985 H   0  0  0  0  0  0  0  0  0  0  0  0
  142.4769   78.1207  220.0789 H   0  0  0  0  0  0  0  0  0  0  0  0
  140.5747   76.4929  219.1569 H   0  0  0  0  0  0  0  0  0  0  0  0
  140.7389   73.9402  221.0253 H   0  0  0  0  0  0  0  0  0  0  0  0
  142.5570   72.3141  221.1891 H   0  0  0  0  0  0  0  0  0  0  0  0
  145.3364   75.1695  219.8092 H   0  0  0  0  0  0  0  0  0  0  0  0
  143.5399   76.8577  219.6259 H   0  0  0  0  0  0  0  0  0  0  0  0
  138.6180   69.7293  222.0283 H   0  0  0  0  0  0  0  0  0  0  0  0
  139.0378   68.2409  223.9729 H   0  0  0  0  0  0  0  0  0  0  0  0
  139.8486   67.8767  226.2041 H   0  0  0  0  0  0  0  0  0  0  0  0
  141.5216   71.1878  228.3475 H   0  0  0  0  0  0  0  0  0  0  0  0
  141.1248   72.7225  226.4339 H   0  0  0  0  0  0  0  0  0  0  0  0
  1  2  2  0
  2  3  1  0
  3  4  1  0
  4  5  1  0
  5  6  2  0
  5  7  1  0
  7  8  1  0
  8  9  1  0
  9 10  1  0
 10 11  1  0
 11 12  1  0
 12 13  2  0
 13 14  1  0
 14 15  2  0
 15 16  1  0
 16 17  2  0
  2 18  1  0
 18 19  2  0
 19 20  1  0
 20 21  2  0
 21 22  1  0
 22 23  2  0
 23 24  1  0
 23 25  1  0
 25 26  2  0
 26 27  1  0
 27 28  2  0
 11  7  1  0
 17 12  1  0
 28 18  1  0
 27 21  1  0
  3 29  1  0
  4 30  1  0
  4 31  1  0
  8 32  1  0
  8 33  1  0
  9 34  1  0
  9 35  1  0
 10 36  1  0
 10 37  1  0
 11 38  1  6
 13 39  1  0
 14 40  1  0
 16 41  1  0
 17 42  1  0
 19 43  1  0
 20 44  1  0
 22 45  1  0
 25 46  1  0
 26 47  1  0
M  END
>  <smiles>  (77) 
O=C(NCC(=O)N1CCCC1c1ccncc1)c1ccc2cc(Cl)ccc2n1

>  <score_type>  (77) 
oracle

>  <origin>  (77) 
autodockgpu

>  <m_score__min__energy>  (77) 
-8.5

>  <m_primary>  (77) 
energy

>  <rmsd>  (77) 
2.3819607996315773

>  <m_score__min__rmsd>  (77) 
2.3819607996315773

>  <meeko>  (77) 
{"free_energy": -7.68, "intermolecular_energy": -9.17, "internal_energy": -1.66, "cluster_size": 13, "cluster_id": 2, "rank_in_cluster": 11}

>  <energy>  (77) 
-8.21

>  <cluster_rmsd>  (77) 
0.66

>  <cluster>  (77) 
1

$$$$

     RDKit          3D

 47 50  0  0  0  0  0  0  0  0999 V2000
  139.6320   72.1530  220.8590 O   0  0  0  0  0  0  0  0  0  0  0  0
  139.5940   72.5580  222.0680 C   0  0  0  0  0  0  0  0  0  0  0  0
  139.3840   73.9370  222.3380 N   0  0  0  0  0  0  0  0  0  0  0  0
  139.2220   74.8220  221.2140 C   0  0  0  0  0  0  0  0  0  0  0  0
  139.0890   76.2030  221.7010 C   0  0  0  0  0  0  0  0  0  0  0  0
  138.2110   76.5950  222.5140 O   0  0  0  0  0  0  0  0  0  0  0  0
  140.0140   77.1710  221.2220 N   0  0  0  0  0  0  0  0  0  0  0  0
  139.8150   78.1870  220.1870 C   0  0  0  0  0  0  0  0  0  0  0  0
  141.0700   78.0540  219.3720 C   0  0  0  0  0  0  0  0  0  0  0  0
  142.0860   77.4800  220.3110 C   0  0  0  0  0  0  0  0  0  0  0  0
  141.4040   77.3850  221.6530 C   0  0  1  0  0  0  0  0  0  0  0  0
  141.3980   78.6330  222.4190 C   0  0  0  0  0  0  0  0  0  0  0  0
  140.3520   79.1160  223.1560 C   0  0  0  0  0  0  0  0  0  0  0  0
  140.4460   80.3070  223.8450 C   0  0  0  0  0  0  0  0  0  0  0  0
  141.5530   81.0580  223.8370 N   0  0  0  0  0  0  0  0  0  0  0  0
  142.6160   80.6100  223.1160 C   0  0  0  0  0  0  0  0  0  0  0  0
  142.5580   79.4150  222.4090 C   0  0  0  0  0  0  0  0  0  0  0  0
  139.7660   71.6020  223.1810 C   0  0  0  0  0  0  0  0  0  0  0  0
  139.4030   70.2870  222.9770 C   0  0  0  0  0  0  0  0  0  0  0  0
  139.5670   69.4040  224.0200 C   0  0  0  0  0  0  0  0  0  0  0  0
  140.0780   69.8180  225.2320 C   0  0  0  0  0  0  0  0  0  0  0  0
  140.2330   68.9010  226.2700 C   0  0  0  0  0  0  0  0  0  0  0  0
  140.7470   69.3460  227.4680 C   0  0  0  0  0  0  0  0  0  0  0  0
  140.9310   68.1720  228.7580 Cl  0  0  0  0  0  0  0  0  0  0  0  0
  141.0930   70.6740  227.6110 C   0  0  0  0  0  0  0  0  0  0  0  0
  140.9490   71.6040  226.5970 C   0  0  0  0  0  0  0  0  0  0  0  0
  140.4330   71.1450  225.4030 C   0  0  0  0  0  0  0  0  0  0  0  0
  140.2620   71.9860  224.3690 N   0  0  0  0  0  0  0  0  0  0  0  0
  139.3570   74.2410  223.3190 H   0  0  0  0  0  0  0  0  0  0  0  0
  140.1009   74.7467  220.5568 H   0  0  0  0  0  0  0  0  0  0  0  0
  138.3208   74.5409  220.6493 H   0  0  0  0  0  0  0  0  0  0  0  0
  138.9215   77.9719  219.5826 H   0  0  0  0  0  0  0  0  0  0  0  0
  139.6505   79.1991  220.5853 H   0  0  0  0  0  0  0  0  0  0  0  0
  140.9070   77.3784  218.5194 H   0  0  0  0  0  0  0  0  0  0  0  0
  141.3939   79.0184  218.9536 H   0  0  0  0  0  0  0  0  0  0  0  0
  142.4007   76.4825  219.9706 H   0  0  0  0  0  0  0  0  0  0  0  0
  142.9885   78.1070  220.3609 H   0  0  0  0  0  0  0  0  0  0  0  0
  141.8882   76.6350  222.2957 H   0  0  0  0  0  0  0  0  0  0  0  0
  139.4149   78.5417  223.2002 H   0  0  0  0  0  0  0  0  0  0  0  0
  139.5768   80.6529  224.4237 H   0  0  0  0  0  0  0  0  0  0  0  0
  143.5404   81.2058  223.0921 H   0  0  0  0  0  0  0  0  0  0  0  0
  143.4344   79.0801  221.8348 H   0  0  0  0  0  0  0  0  0  0  0  0
  138.9952   69.9544  222.0110 H   0  0  0  0  0  0  0  0  0  0  0  0
  139.2854   68.3493  223.8843 H   0  0  0  0  0  0  0  0  0  0  0  0
  139.9514   67.8462  226.1357 H   0  0  0  0  0  0  0  0  0  0  0  0
  141.5022   71.0087  228.5757 H   0  0  0  0  0  0  0  0  0  0  0  0
  141.2321   72.6578  226.7361 H   0  0  0  0  0  0  0  0  0  0  0  0
  1  2  2  0
  2  3  1  0
  3  4  1  0
  4  5  1  0
  5  6  2  0
  5  7  1  0
  7  8  1  0
  8  9  1  0
  9 10  1  0
 10 11  1  0
 11 12  1  0
 12 13  2  0
 13 14  1  0
 14 15  2  0
 15 16  1  0
 16 17  2  0
  2 18  1  0
 18 19  2  0
 19 20  1  0
 20 21  2  0
 21 22  1  0
 22 23  2  0
 23 24  1  0
 23 25  1  0
 25 26  2  0
 26 27  1  0
 27 28  2  0
 11  7  1  0
 17 12  1  0
 28 18  1  0
 27 21  1  0
  3 29  1  0
  4 30  1  0
  4 31  1  0
  8 32  1  0
  8 33  1  0
  9 34  1  0
  9 35  1  0
 10 36  1  0
 10 37  1  0
 11 38  1  1
 13 39  1  0
 14 40  1  0
 16 41  1  0
 17 42  1  0
 19 43  1  0
 20 44  1  0
 22 45  1  0
 25 46  1  0
 26 47  1  0
M  END
>  <smiles>  (78) 
O=C(NCC(=O)N1CCCC1c1ccncc1)c1ccc2cc(Cl)ccc2n1

>  <score_type>  (78) 
oracle

>  <origin>  (78) 
autodockgpu

>  <m_score__min__energy>  (78) 
-8.5

>  <m_primary>  (78) 
energy

>  <rmsd>  (78) 
2.0265832985244385

>  <m_score__min__rmsd>  (78) 
2.0265832985244385

>  <meeko>  (78) 
{"free_energy": -8.38, "intermolecular_energy": -9.88, "internal_energy": -1.38, "cluster_size": 33, "cluster_id": 1, "rank_in_cluster": 12}

>  <energy>  (78) 
-8.2

>  <cluster_rmsd>  (78) 
0.65

>  <cluster>  (78) 
1

$$$$

     RDKit          3D

 47 50  0  0  0  0  0  0  0  0999 V2000
  140.6640   72.5380  220.9120 O   0  0  0  0  0  0  0  0  0  0  0  0
  140.0500   72.8020  221.9980 C   0  0  0  0  0  0  0  0  0  0  0  0
  139.3530   74.0330  222.1260 N   0  0  0  0  0  0  0  0  0  0  0  0
  139.3750   74.9360  221.0050 C   0  0  0  0  0  0  0  0  0  0  0  0
  140.6660   75.6400  220.9750 C   0  0  0  0  0  0  0  0  0  0  0  0
  141.7770   75.1120  221.2450 O   0  0  0  0  0  0  0  0  0  0  0  0
  140.6660   77.0160  220.6180 N   0  0  0  0  0  0  0  0  0  0  0  0
  139.5210   77.8840  220.3370 C   0  0  0  0  0  0  0  0  0  0  0  0
  139.9650   78.5940  219.0900 C   0  0  0  0  0  0  0  0  0  0  0  0
  141.4630   78.5570  219.1320 C   0  0  0  0  0  0  0  0  0  0  0  0
  141.8250   77.9050  220.4430 C   0  0  1  0  0  0  0  0  0  0  0  0
  141.8130   78.8110  221.5940 C   0  0  0  0  0  0  0  0  0  0  0  0
  142.1050   80.1460  221.5660 C   0  0  0  0  0  0  0  0  0  0  0  0
  142.0650   80.9170  222.7080 C   0  0  0  0  0  0  0  0  0  0  0  0
  141.7420   80.4130  223.9050 N   0  0  0  0  0  0  0  0  0  0  0  0
  141.4440   79.0880  223.9740 C   0  0  0  0  0  0  0  0  0  0  0  0
  141.4740   78.2800  222.8440 C   0  0  0  0  0  0  0  0  0  0  0  0
  140.0620   71.8360  223.1150 C   0  0  0  0  0  0  0  0  0  0  0  0
  139.5660   70.5680  222.8910 C   0  0  0  0  0  0  0  0  0  0  0  0
  139.5810   69.6760  223.9390 C   0  0  0  0  0  0  0  0  0  0  0  0
  140.0760   70.0350  225.1750 C   0  0  0  0  0  0  0  0  0  0  0  0
  140.0790   69.1080  226.2170 C   0  0  0  0  0  0  0  0  0  0  0  0
  140.5810   69.4980  227.4390 C   0  0  0  0  0  0  0  0  0  0  0  0
  140.5720   68.3150  228.7340 Cl  0  0  0  0  0  0  0  0  0  0  0  0
  141.0630   70.7800  227.6020 C   0  0  0  0  0  0  0  0  0  0  0  0
  141.0720   71.7170  226.5850 C   0  0  0  0  0  0  0  0  0  0  0  0
  140.5660   71.3140  225.3660 C   0  0  0  0  0  0  0  0  0  0  0  0
  140.5390   72.1660  224.3270 N   0  0  0  0  0  0  0  0  0  0  0  0
  138.8660   74.2250  223.0100 H   0  0  0  0  0  0  0  0  0  0  0  0
  139.2444   74.3676  220.0723 H   0  0  0  0  0  0  0  0  0  0  0  0
  138.5585   75.6665  221.1034 H   0  0  0  0  0  0  0  0  0  0  0  0
  138.6084   77.2963  220.1588 H   0  0  0  0  0  0  0  0  0  0  0  0
  139.2644   78.5611  221.1650 H   0  0  0  0  0  0  0  0  0  0  0  0
  139.5908   78.0743  218.1957 H   0  0  0  0  0  0  0  0  0  0  0  0
  139.5793   79.6230  219.0421 H   0  0  0  0  0  0  0  0  0  0  0  0
  141.8547   77.9669  218.2904 H   0  0  0  0  0  0  0  0  0  0  0  0
  141.8938   79.5658  219.0507 H   0  0  0  0  0  0  0  0  0  0  0  0
  142.8347   77.4699  220.4084 H   0  0  0  0  0  0  0  0  0  0  0  0
  142.3783   80.6161  220.6098 H   0  0  0  0  0  0  0  0  0  0  0  0
  142.3078   81.9872  222.6326 H   0  0  0  0  0  0  0  0  0  0  0  0
  141.1736   78.6467  224.9446 H   0  0  0  0  0  0  0  0  0  0  0  0
  141.2287   77.2114  222.9327 H   0  0  0  0  0  0  0  0  0  0  0  0
  139.1710   70.2792  221.9058 H   0  0  0  0  0  0  0  0  0  0  0  0
  139.1912   68.6585  223.7880 H   0  0  0  0  0  0  0  0  0  0  0  0
  139.6899   68.0902  226.0666 H   0  0  0  0  0  0  0  0  0  0  0  0
  141.4585   71.0705  228.5865 H   0  0  0  0  0  0  0  0  0  0  0  0
  141.4632   72.7333  226.7400 H   0  0  0  0  0  0  0  0  0  0  0  0
  1  2  2  0
  2  3  1  0
  3  4  1  0
  4  5  1  0
  5  6  2  0
  5  7  1  0
  7  8  1  0
  8  9  1  0
  9 10  1  0
 10 11  1  0
 11 12  1  0
 12 13  2  0
 13 14  1  0
 14 15  2  0
 15 16  1  0
 16 17  2  0
  2 18  1  0
 18 19  2  0
 19 20  1  0
 20 21  2  0
 21 22  1  0
 22 23  2  0
 23 24  1  0
 23 25  1  0
 25 26  2  0
 26 27  1  0
 27 28  2  0
 11  7  1  0
 17 12  1  0
 28 18  1  0
 27 21  1  0
  3 29  1  0
  4 30  1  0
  4 31  1  0
  8 32  1  0
  8 33  1  0
  9 34  1  0
  9 35  1  0
 10 36  1  0
 10 37  1  0
 11 38  1  6
 13 39  1  0
 14 40  1  0
 16 41  1  0
 17 42  1  0
 19 43  1  0
 20 44  1  0
 22 45  1  0
 25 46  1  0
 26 47  1  0
M  END
>  <smiles>  (79) 
O=C(NCC(=O)N1CCCC1c1ccncc1)c1ccc2cc(Cl)ccc2n1

>  <score_type>  (79) 
oracle

>  <origin>  (79) 
autodockgpu

>  <m_score__min__energy>  (79) 
-8.5

>  <m_primary>  (79) 
energy

>  <rmsd>  (79) 
1.9081833807961452

>  <m_score__min__rmsd>  (79) 
1.9081833807961452

>  <meeko>  (79) 
{"free_energy": -8.45, "intermolecular_energy": -9.94, "internal_energy": -1.19, "cluster_size": 33, "cluster_id": 1, "rank_in_cluster": 5}

>  <energy>  (79) 
-8.19

>  <cluster_rmsd>  (79) 
1.12

>  <cluster>  (79) 
1

$$$$

     RDKit          3D

 47 50  0  0  0  0  0  0  0  0999 V2000
  141.1380   72.5770  220.9240 O   0  0  0  0  0  0  0  0  0  0  0  0
  140.3770   72.8430  221.9130 C   0  0  0  0  0  0  0  0  0  0  0  0
  139.6320   74.0520  221.9170 N   0  0  0  0  0  0  0  0  0  0  0  0
  139.7760   74.9320  220.7870 C   0  0  0  0  0  0  0  0  0  0  0  0
  140.9650   75.7760  220.9780 C   0  0  0  0  0  0  0  0  0  0  0  0
  141.2010   76.4580  222.0100 O   0  0  0  0  0  0  0  0  0  0  0  0
  141.9200   75.8310  219.9260 N   0  0  0  0  0  0  0  0  0  0  0  0
  142.8810   76.8930  219.6230 C   0  0  0  0  0  0  0  0  0  0  0  0
  142.7240   77.0410  218.1360 C   0  0  0  0  0  0  0  0  0  0  0  0
  142.2110   75.7150  217.6640 C   0  0  0  0  0  0  0  0  0  0  0  0
  142.1740   74.8260  218.8820 C   0  0  1  0  0  0  0  0  0  0  0  0
  143.4590   74.2110  219.2220 C   0  0  0  0  0  0  0  0  0  0  0  0
  143.9610   74.0500  220.4840 C   0  0  0  0  0  0  0  0  0  0  0  0
  145.1860   73.4560  220.7010 C   0  0  0  0  0  0  0  0  0  0  0  0
  145.9540   73.0030  219.7020 N   0  0  0  0  0  0  0  0  0  0  0  0
  145.4880   73.1440  218.4330 C   0  0  0  0  0  0  0  0  0  0  0  0
  144.2580   73.7390  218.1750 C   0  0  0  0  0  0  0  0  0  0  0  0
  140.2690   71.9010  223.0460 C   0  0  0  0  0  0  0  0  0  0  0  0
  139.6930   70.6680  222.8200 C   0  0  0  0  0  0  0  0  0  0  0  0
  139.5970   69.7970  223.8810 C   0  0  0  0  0  0  0  0  0  0  0  0
  140.0610   70.1440  225.1330 C   0  0  0  0  0  0  0  0  0  0  0  0
  139.9500   69.2410  226.1890 C   0  0  0  0  0  0  0  0  0  0  0  0
  140.4240   69.6180  227.4270 C   0  0  0  0  0  0  0  0  0  0  0  0
  140.2720   68.4640  228.7390 Cl  0  0  0  0  0  0  0  0  0  0  0  0
  140.9900   70.8650  227.5900 C   0  0  0  0  0  0  0  0  0  0  0  0
  141.1120   71.7790  226.5590 C   0  0  0  0  0  0  0  0  0  0  0  0
  140.6330   71.3890  225.3250 C   0  0  0  0  0  0  0  0  0  0  0  0
  140.7140   72.2200  224.2720 N   0  0  0  0  0  0  0  0  0  0  0  0
  139.0260   74.2470  222.7240 H   0  0  0  0  0  0  0  0  0  0  0  0
  139.8915   74.3363  219.8695 H   0  0  0  0  0  0  0  0  0  0  0  0
  138.8827   75.5677  220.6983 H   0  0  0  0  0  0  0  0  0  0  0  0
  142.6244   77.8256  220.1468 H   0  0  0  0  0  0  0  0  0  0  0  0
  143.9093   76.6645  219.9400 H   0  0  0  0  0  0  0  0  0  0  0  0
  142.0045   77.8393  217.9012 H   0  0  0  0  0  0  0  0  0  0  0  0
  143.6704   77.3147  217.6468 H   0  0  0  0  0  0  0  0  0  0  0  0
  141.2019   75.8245  217.2400 H   0  0  0  0  0  0  0  0  0  0  0  0
  142.8518   75.2924  216.8761 H   0  0  0  0  0  0  0  0  0  0  0  0
  141.4641   73.9960  218.7513 H   0  0  0  0  0  0  0  0  0  0  0  0
  143.3742   74.4024  221.3451 H   0  0  0  0  0  0  0  0  0  0  0  0
  145.5465   73.3501  221.7348 H   0  0  0  0  0  0  0  0  0  0  0  0
  146.0968   72.7797  217.5923 H   0  0  0  0  0  0  0  0  0  0  0  0
  143.9094   73.8397  217.1366 H   0  0  0  0  0  0  0  0  0  0  0  0
  139.3219   70.3897  221.8226 H   0  0  0  0  0  0  0  0  0  0  0  0
  139.1425   68.8070  223.7282 H   0  0  0  0  0  0  0  0  0  0  0  0
  139.4949   68.2510  226.0379 H   0  0  0  0  0  0  0  0  0  0  0  0
  141.3618   71.1459  228.5864 H   0  0  0  0  0  0  0  0  0  0  0  0
  141.5682   72.7677  226.7150 H   0  0  0  0  0  0  0  0  0  0  0  0
  1  2  2  0
  2  3  1  0
  3  4  1  0
  4  5  1  0
  5  6  2  0
  5  7  1  0
  7  8  1  0
  8  9  1  0
  9 10  1  0
 10 11  1  0
 11 12  1  0
 12 13  2  0
 13 14  1  0
 14 15  2  0
 15 16  1  0
 16 17  2  0
  2 18  1  0
 18 19  2  0
 19 20  1  0
 20 21  2  0
 21 22  1  0
 22 23  2  0
 23 24  1  0
 23 25  1  0
 25 26  2  0
 26 27  1  0
 27 28  2  0
 11  7  1  0
 17 12  1  0
 28 18  1  0
 27 21  1  0
  3 29  1  0
  4 30  1  0
  4 31  1  0
  8 32  1  0
  8 33  1  0
  9 34  1  0
  9 35  1  0
 10 36  1  0
 10 37  1  0
 11 38  1  6
 13 39  1  0
 14 40  1  0
 16 41  1  0
 17 42  1  0
 19 43  1  0
 20 44  1  0
 22 45  1  0
 25 46  1  0
 26 47  1  0
M  END
>  <smiles>  (80) 
O=C(NCC(=O)N1CCCC1c1ccncc1)c1ccc2cc(Cl)ccc2n1

>  <score_type>  (80) 
oracle

>  <origin>  (80) 
autodockgpu

>  <m_score__min__energy>  (80) 
-8.5

>  <m_primary>  (80) 
energy

>  <rmsd>  (80) 
2.4136000913467455

>  <m_score__min__rmsd>  (80) 
2.4136000913467455

>  <meeko>  (80) 
{"free_energy": -8.12, "intermolecular_energy": -9.61, "internal_energy": -1.56, "cluster_size": 13, "cluster_id": 2, "rank_in_cluster": 5}

>  <energy>  (80) 
-7.81

>  <cluster_rmsd>  (80) 
1.0

>  <cluster>  (80) 
1

$$$$

     RDKit          3D

 47 50  0  0  0  0  0  0  0  0999 V2000
  139.3490   71.9780  220.7060 O   0  0  0  0  0  0  0  0  0  0  0  0
  139.3620   72.4280  221.8990 C   0  0  0  0  0  0  0  0  0  0  0  0
  139.1620   73.8160  222.1250 N   0  0  0  0  0  0  0  0  0  0  0  0
  138.9500   74.6580  220.9760 C   0  0  0  0  0  0  0  0  0  0  0  0
  138.7850   76.0500  221.4200 C   0  0  0  0  0  0  0  0  0  0  0  0
  137.8170   76.4740  222.1050 O   0  0  0  0  0  0  0  0  0  0  0  0
  139.7870   76.9900  221.0520 N   0  0  0  0  0  0  0  0  0  0  0  0
  139.7320   78.0190  220.0120 C   0  0  0  0  0  0  0  0  0  0  0  0
  141.0620   77.8500  219.3340 C   0  0  0  0  0  0  0  0  0  0  0  0
  141.9530   77.2360  220.3710 C   0  0  0  0  0  0  0  0  0  0  0  0
  141.1290   77.1540  221.6320 C   0  0  1  0  0  0  0  0  0  0  0  0
  141.0810   78.3970  222.4060 C   0  0  0  0  0  0  0  0  0  0  0  0
  140.0180   78.8440  223.1400 C   0  0  0  0  0  0  0  0  0  0  0  0
  140.0720   80.0320  223.8360 C   0  0  0  0  0  0  0  0  0  0  0  0
  141.1560   80.8160  223.8390 N   0  0  0  0  0  0  0  0  0  0  0  0
  142.2350   80.4060  223.1200 C   0  0  0  0  0  0  0  0  0  0  0  0
  142.2170   79.2140  222.4050 C   0  0  0  0  0  0  0  0  0  0  0  0
  139.5850   71.5150  223.0390 C   0  0  0  0  0  0  0  0  0  0  0  0
  139.2320   70.1900  222.8950 C   0  0  0  0  0  0  0  0  0  0  0  0
  139.4430   69.3470  223.9620 C   0  0  0  0  0  0  0  0  0  0  0  0
  139.9900   69.8110  225.1400 C   0  0  0  0  0  0  0  0  0  0  0  0
  140.1920   68.9330  226.2050 C   0  0  0  0  0  0  0  0  0  0  0  0
  140.7410   69.4280  227.3670 C   0  0  0  0  0  0  0  0  0  0  0  0
  140.9840   68.3040  228.6910 Cl  0  0  0  0  0  0  0  0  0  0  0  0
  141.0730   70.7640  227.4510 C   0  0  0  0  0  0  0  0  0  0  0  0
  140.8830   71.6550  226.4100 C   0  0  0  0  0  0  0  0  0  0  0  0
  140.3330   71.1470  225.2510 C   0  0  0  0  0  0  0  0  0  0  0  0
  140.1160   71.9480  224.1940 N   0  0  0  0  0  0  0  0  0  0  0  0
  139.1770   74.1580  223.0940 H   0  0  0  0  0  0  0  0  0  0  0  0
  139.8171   74.5869  220.3029 H   0  0  0  0  0  0  0  0  0  0  0  0
  138.0463   74.3315  220.4405 H   0  0  0  0  0  0  0  0  0  0  0  0
  138.9016   77.8375  219.3138 H   0  0  0  0  0  0  0  0  0  0  0  0
  139.5582   79.0333  220.4007 H   0  0  0  0  0  0  0  0  0  0  0  0
  140.9694   77.1859  218.4620 H   0  0  0  0  0  0  0  0  0  0  0  0
  141.4597   78.8058  218.9622 H   0  0  0  0  0  0  0  0  0  0  0  0
  142.2702   76.2310  220.0557 H   0  0  0  0  0  0  0  0  0  0  0  0
  142.8643   77.8329  220.5235 H   0  0  0  0  0  0  0  0  0  0  0  0
  141.5171   76.3840  222.3150 H   0  0  0  0  0  0  0  0  0  0  0  0
  139.0984   78.2415  223.1759 H   0  0  0  0  0  0  0  0  0  0  0  0
  139.1895   80.3480  224.4115 H   0  0  0  0  0  0  0  0  0  0  0  0
  143.1405   81.0303  223.1038 H   0  0  0  0  0  0  0  0  0  0  0  0
  143.1054   78.9097  221.8322 H   0  0  0  0  0  0  0  0  0  0  0  0
  138.7952   69.8183  221.9563 H   0  0  0  0  0  0  0  0  0  0  0  0
  139.1707   68.2849  223.8739 H   0  0  0  0  0  0  0  0  0  0  0  0
  139.9193   67.8708  226.1188 H   0  0  0  0  0  0  0  0  0  0  0  0
  141.5090   71.1383  228.3890 H   0  0  0  0  0  0  0  0  0  0  0  0
  141.1569   72.7164  226.5017 H   0  0  0  0  0  0  0  0  0  0  0  0
  1  2  2  0
  2  3  1  0
  3  4  1  0
  4  5  1  0
  5  6  2  0
  5  7  1  0
  7  8  1  0
  8  9  1  0
  9 10  1  0
 10 11  1  0
 11 12  1  0
 12 13  2  0
 13 14  1  0
 14 15  2  0
 15 16  1  0
 16 17  2  0
  2 18  1  0
 18 19  2  0
 19 20  1  0
 20 21  2  0
 21 22  1  0
 22 23  2  0
 23 24  1  0
 23 25  1  0
 25 26  2  0
 26 27  1  0
 27 28  2  0
 11  7  1  0
 17 12  1  0
 28 18  1  0
 27 21  1  0
  3 29  1  0
  4 30  1  0
  4 31  1  0
  8 32  1  0
  8 33  1  0
  9 34  1  0
  9 35  1  0
 10 36  1  0
 10 37  1  0
 11 38  1  1
 13 39  1  0
 14 40  1  0
 16 41  1  0
 17 42  1  0
 19 43  1  0
 20 44  1  0
 22 45  1  0
 25 46  1  0
 26 47  1  0
M  END
>  <smiles>  (81) 
O=C(NCC(=O)N1CCCC1c1ccncc1)c1ccc2cc(Cl)ccc2n1

>  <score_type>  (81) 
oracle

>  <origin>  (81) 
autodockgpu

>  <m_score__min__energy>  (81) 
-8.5

>  <m_primary>  (81) 
energy

>  <rmsd>  (81) 
1.9244819560400288

>  <m_score__min__rmsd>  (81) 
1.9244819560400288

>  <meeko>  (81) 
{"free_energy": -8.25, "intermolecular_energy": -9.74, "internal_energy": -1.39, "cluster_size": 33, "cluster_id": 1, "rank_in_cluster": 25}

>  <energy>  (81) 
-7.62

>  <cluster_rmsd>  (81) 
1.21

>  <cluster>  (81) 
1

$$$$

     RDKit          3D

 47 50  0  0  0  0  0  0  0  0999 V2000
  139.4000   72.7920  220.3260 O   0  0  0  0  0  0  0  0  0  0  0  0
  140.2530   72.8360  221.2740 C   0  0  0  0  0  0  0  0  0  0  0  0
  141.3700   73.7060  221.1690 N   0  0  0  0  0  0  0  0  0  0  0  0
  141.4870   74.5080  219.9790 C   0  0  0  0  0  0  0  0  0  0  0  0
  141.7790   75.8980  220.3580 C   0  0  0  0  0  0  0  0  0  0  0  0
  142.8270   76.5220  220.0450 O   0  0  0  0  0  0  0  0  0  0  0  0
  140.8120   76.5940  221.1350 N   0  0  0  0  0  0  0  0  0  0  0  0
  140.1390   76.1540  222.3580 C   0  0  0  0  0  0  0  0  0  0  0  0
  138.7100   76.5250  222.0800 C   0  0  0  0  0  0  0  0  0  0  0  0
  138.7840   77.6440  221.0860 C   0  0  0  0  0  0  0  0  0  0  0  0
  140.2530   77.9330  220.8950 C   0  0  1  0  0  0  0  0  0  0  0  0
  140.8370   78.8020  221.9190 C   0  0  0  0  0  0  0  0  0  0  0  0
  140.1490   79.4550  222.9040 C   0  0  0  0  0  0  0  0  0  0  0  0
  140.7930   80.2530  223.8240 C   0  0  0  0  0  0  0  0  0  0  0  0
  142.1190   80.4390  223.8140 N   0  0  0  0  0  0  0  0  0  0  0  0
  142.8380   79.8050  222.8500 C   0  0  0  0  0  0  0  0  0  0  0  0
  142.2230   78.9930  221.9040 C   0  0  0  0  0  0  0  0  0  0  0  0
  140.0810   71.9890  222.4710 C   0  0  0  0  0  0  0  0  0  0  0  0
  139.2620   70.8830  222.3800 C   0  0  0  0  0  0  0  0  0  0  0  0
  139.1070   70.1010  223.5020 C   0  0  0  0  0  0  0  0  0  0  0  0
  139.7500   70.4110  224.6820 C   0  0  0  0  0  0  0  0  0  0  0  0
  139.5750   69.5990  225.8010 C   0  0  0  0  0  0  0  0  0  0  0  0
  140.2320   69.9350  226.9650 C   0  0  0  0  0  0  0  0  0  0  0  0
  139.9940   68.8980  228.3590 Cl  0  0  0  0  0  0  0  0  0  0  0  0
  141.0380   71.0540  226.9940 C   0  0  0  0  0  0  0  0  0  0  0  0
  141.2290   71.8760  225.8980 C   0  0  0  0  0  0  0  0  0  0  0  0
  140.5650   71.5270  224.7390 C   0  0  0  0  0  0  0  0  0  0  0  0
  140.6980   72.2740  223.6300 N   0  0  0  0  0  0  0  0  0  0  0  0
  142.0450   73.7250  221.9440 H   0  0  0  0  0  0  0  0  0  0  0  0
  142.3027   74.1188  219.3521 H   0  0  0  0  0  0  0  0  0  0  0  0
  140.5438   74.4699  219.4142 H   0  0  0  0  0  0  0  0  0  0  0  0
  140.2486   75.0696  222.5063 H   0  0  0  0  0  0  0  0  0  0  0  0
  140.5443   76.6075  223.2746 H   0  0  0  0  0  0  0  0  0  0  0  0
  138.1638   75.6687  221.6577 H   0  0  0  0  0  0  0  0  0  0  0  0
  138.1753   76.8207  222.9947 H   0  0  0  0  0  0  0  0  0  0  0  0
  138.3271   77.3396  220.1328 H   0  0  0  0  0  0  0  0  0  0  0  0
  138.2405   78.5331  221.4384 H   0  0  0  0  0  0  0  0  0  0  0  0
  140.4425   78.4285  219.9314 H   0  0  0  0  0  0  0  0  0  0  0  0
  139.0566   79.3405  222.9631 H   0  0  0  0  0  0  0  0  0  0  0  0
  140.1945   80.7571  224.5971 H   0  0  0  0  0  0  0  0  0  0  0  0
  143.9295   79.9373  222.8179 H   0  0  0  0  0  0  0  0  0  0  0  0
  142.8325   78.4953  221.1354 H   0  0  0  0  0  0  0  0  0  0  0  0
  138.7485   70.6336  221.4397 H   0  0  0  0  0  0  0  0  0  0  0  0
  138.4590   69.2133  223.4567 H   0  0  0  0  0  0  0  0  0  0  0  0
  138.9277   68.7107  225.7563 H   0  0  0  0  0  0  0  0  0  0  0  0
  141.5532   71.3045  227.9331 H   0  0  0  0  0  0  0  0  0  0  0  0
  141.8774   72.7632  225.9474 H   0  0  0  0  0  0  0  0  0  0  0  0
  1  2  2  0
  2  3  1  0
  3  4  1  0
  4  5  1  0
  5  6  2  0
  5  7  1  0
  7  8  1  0
  8  9  1  0
  9 10  1  0
 10 11  1  0
 11 12  1  0
 12 13  2  0
 13 14  1  0
 14 15  2  0
 15 16  1  0
 16 17  2  0
  2 18  1  0
 18 19  2  0
 19 20  1  0
 20 21  2  0
 21 22  1  0
 22 23  2  0
 23 24  1  0
 23 25  1  0
 25 26  2  0
 26 27  1  0
 27 28  2  0
 11  7  1  0
 17 12  1  0
 28 18  1  0
 27 21  1  0
  3 29  1  0
  4 30  1  0
  4 31  1  0
  8 32  1  0
  8 33  1  0
  9 34  1  0
  9 35  1  0
 10 36  1  0
 10 37  1  0
 11 38  1  6
 13 39  1  0
 14 40  1  0
 16 41  1  0
 17 42  1  0
 19 43  1  0
 20 44  1  0
 22 45  1  0
 25 46  1  0
 26 47  1  0
M  END
>  <smiles>  (82) 
O=C(NCC(=O)N1CCCC1c1ccncc1)c1ccc2cc(Cl)ccc2n1

>  <score_type>  (82) 
oracle

>  <origin>  (82) 
autodockgpu

>  <m_score__min__energy>  (82) 
-8.5

>  <m_primary>  (82) 
energy

>  <rmsd>  (82) 
2.8963965370220484

>  <m_score__min__rmsd>  (82) 
2.8963965370220484

>  <meeko>  (82) 
{"free_energy": -7.38, "intermolecular_energy": -8.87, "internal_energy": -1.61, "cluster_size": 33, "cluster_id": 1, "rank_in_cluster": 32}

>  <energy>  (82) 
-7.38

>  <cluster_rmsd>  (82) 
1.55

>  <cluster>  (82) 
1

$$$$

     RDKit          3D

 47 50  0  0  0  0  0  0  0  0999 V2000
  140.3450   72.5160  220.8300 O   0  0  0  0  0  0  0  0  0  0  0  0
  139.9980   72.8730  222.0040 C   0  0  0  0  0  0  0  0  0  0  0  0
  139.5770   74.2090  222.2330 N   0  0  0  0  0  0  0  0  0  0  0  0
  139.5650   75.1100  221.1100 C   0  0  0  0  0  0  0  0  0  0  0  0
  139.0910   76.4290  221.5520 C   0  0  0  0  0  0  0  0  0  0  0  0
  138.1470   76.6170  222.3650 O   0  0  0  0  0  0  0  0  0  0  0  0
  139.7390   77.5810  221.0280 N   0  0  0  0  0  0  0  0  0  0  0  0
  139.1390   78.8370  220.5730 C   0  0  0  0  0  0  0  0  0  0  0  0
  139.8590   79.0760  219.2760 C   0  0  0  0  0  0  0  0  0  0  0  0
  141.1620   78.3480  219.4140 C   0  0  0  0  0  0  0  0  0  0  0  0
  141.1800   77.7890  220.8150 C   0  0  1  0  0  0  0  0  0  0  0  0
  141.6030   78.7440  221.8420 C   0  0  0  0  0  0  0  0  0  0  0  0
  142.1590   79.9720  221.6130 C   0  0  0  0  0  0  0  0  0  0  0  0
  142.5250   80.8010  222.6520 C   0  0  0  0  0  0  0  0  0  0  0  0
  142.3630   80.4610  223.9370 N   0  0  0  0  0  0  0  0  0  0  0  0
  141.8130   79.2470  224.2040 C   0  0  0  0  0  0  0  0  0  0  0  0
  141.4320   78.3840  223.1830 C   0  0  0  0  0  0  0  0  0  0  0  0
  140.0310   71.9030  223.1180 C   0  0  0  0  0  0  0  0  0  0  0  0
  139.5630   70.6260  222.8900 C   0  0  0  0  0  0  0  0  0  0  0  0
  139.5980   69.7300  223.9340 C   0  0  0  0  0  0  0  0  0  0  0  0
  140.0850   70.0960  225.1720 C   0  0  0  0  0  0  0  0  0  0  0  0
  140.1090   69.1670  226.2110 C   0  0  0  0  0  0  0  0  0  0  0  0
  140.6020   69.5630  227.4340 C   0  0  0  0  0  0  0  0  0  0  0  0
  140.6200   68.3760  228.7250 Cl  0  0  0  0  0  0  0  0  0  0  0  0
  141.0560   70.8550  227.6010 C   0  0  0  0  0  0  0  0  0  0  0  0
  141.0440   71.7950  226.5870 C   0  0  0  0  0  0  0  0  0  0  0  0
  140.5480   71.3850  225.3670 C   0  0  0  0  0  0  0  0  0  0  0  0
  140.5020   72.2400  224.3310 N   0  0  0  0  0  0  0  0  0  0  0  0
  139.3020   74.4750  223.1870 H   0  0  0  0  0  0  0  0  0  0  0  0
  140.5824   75.2027  220.7021 H   0  0  0  0  0  0  0  0  0  0  0  0
  138.8945   74.7191  220.3305 H   0  0  0  0  0  0  0  0  0  0  0  0
  138.0559   78.7281  220.4146 H   0  0  0  0  0  0  0  0  0  0  0  0
  139.2381   79.6622  221.2936 H   0  0  0  0  0  0  0  0  0  0  0  0
  139.2791   78.6736  218.4323 H   0  0  0  0  0  0  0  0  0  0  0  0
  140.0044   80.1479  219.0763 H   0  0  0  0  0  0  0  0  0  0  0  0
  141.2249   77.5339  218.6769 H   0  0  0  0  0  0  0  0  0  0  0  0
  142.0175   79.0161  219.2359 H   0  0  0  0  0  0  0  0  0  0  0  0
  141.8638   76.9312  220.8957 H   0  0  0  0  0  0  0  0  0  0  0  0
  142.3178   80.3058  220.5770 H   0  0  0  0  0  0  0  0  0  0  0  0
  142.9674   81.7801  222.4161 H   0  0  0  0  0  0  0  0  0  0  0  0
  141.6663   78.9409  225.2503 H   0  0  0  0  0  0  0  0  0  0  0  0
  140.9913   77.4074  223.4322 H   0  0  0  0  0  0  0  0  0  0  0  0
  139.1737   70.3326  221.9039 H   0  0  0  0  0  0  0  0  0  0  0  0
  139.2315   68.7045  223.7788 H   0  0  0  0  0  0  0  0  0  0  0  0
  139.7425   68.1413  226.0573 H   0  0  0  0  0  0  0  0  0  0  0  0
  141.4455   71.1510  228.5862 H   0  0  0  0  0  0  0  0  0  0  0  0
  141.4120   72.8194  226.7455 H   0  0  0  0  0  0  0  0  0  0  0  0
  1  2  2  0
  2  3  1  0
  3  4  1  0
  4  5  1  0
  5  6  2  0
  5  7  1  0
  7  8  1  0
  8  9  1  0
  9 10  1  0
 10 11  1  0
 11 12  1  0
 12 13  2  0
 13 14  1  0
 14 15  2  0
 15 16  1  0
 16 17  2  0
  2 18  1  0
 18 19  2  0
 19 20  1  0
 20 21  2  0
 21 22  1  0
 22 23  2  0
 23 24  1  0
 23 25  1  0
 25 26  2  0
 26 27  1  0
 27 28  2  0
 11  7  1  0
 17 12  1  0
 28 18  1  0
 27 21  1  0
  3 29  1  0
  4 30  1  0
  4 31  1  0
  8 32  1  0
  8 33  1  0
  9 34  1  0
  9 35  1  0
 10 36  1  0
 10 37  1  0
 11 38  1  6
 13 39  1  0
 14 40  1  0
 16 41  1  0
 17 42  1  0
 19 43  1  0
 20 44  1  0
 22 45  1  0
 25 46  1  0
 26 47  1  0
M  END
>  <smiles>  (83) 
O=C(NCC(=O)N1CCCC1c1ccncc1)c1ccc2cc(Cl)ccc2n1

>  <score_type>  (83) 
oracle

>  <origin>  (83) 
autodockgpu

>  <m_score__min__energy>  (83) 
-8.5

>  <m_primary>  (83) 
energy

>  <rmsd>  (83) 
2.2444359956914006

>  <m_score__min__rmsd>  (83) 
2.2444359956914006

>  <meeko>  (83) 
{"free_energy": -8.33, "intermolecular_energy": -9.82, "internal_energy": -1.46, "cluster_size": 33, "cluster_id": 1, "rank_in_cluster": 17}

>  <energy>  (83) 
-7.14

>  <cluster_rmsd>  (83) 
1.53

>  <cluster>  (83) 
1

$$$$

     RDKit          3D

 47 50  0  0  0  0  0  0  0  0999 V2000
  139.7680   74.7040  222.0290 O   0  0  0  0  0  0  0  0  0  0  0  0
  140.9410   74.9250  221.5770 C   0  0  0  0  0  0  0  0  0  0  0  0
  141.4430   76.2530  221.5590 N   0  0  0  0  0  0  0  0  0  0  0  0
  140.5900   77.3000  222.0590 C   0  0  0  0  0  0  0  0  0  0  0  0
  141.3520   78.1400  222.9940 C   0  0  0  0  0  0  0  0  0  0  0  0
  141.8330   77.7410  224.0870 O   0  0  0  0  0  0  0  0  0  0  0  0
  141.5630   79.5030  222.6470 N   0  0  0  0  0  0  0  0  0  0  0  0
  142.7250   80.3460  222.9330 C   0  0  0  0  0  0  0  0  0  0  0  0
  142.0810   81.6130  223.4170 C   0  0  0  0  0  0  0  0  0  0  0  0
  140.7170   81.6190  222.7970 C   0  0  0  0  0  0  0  0  0  0  0  0
  140.6580   80.3990  221.9110 C   0  0  1  0  0  0  0  0  0  0  0  0
  141.2620   80.5820  220.5890 C   0  0  0  0  0  0  0  0  0  0  0  0
  141.8200   79.5980  219.8210 C   0  0  0  0  0  0  0  0  0  0  0  0
  142.3650   79.8720  218.5840 C   0  0  0  0  0  0  0  0  0  0  0  0
  142.3830   81.1040  218.0630 N   0  0  0  0  0  0  0  0  0  0  0  0
  141.8370   82.1100  218.7970 C   0  0  0  0  0  0  0  0  0  0  0  0
  141.2790   81.8720  220.0480 C   0  0  0  0  0  0  0  0  0  0  0  0
  141.7700   73.8100  221.0780 C   0  0  0  0  0  0  0  0  0  0  0  0
  141.1840   72.5700  220.9360 C   0  0  0  0  0  0  0  0  0  0  0  0
  141.9650   71.5370  220.4690 C   0  0  0  0  0  0  0  0  0  0  0  0
  143.2930   71.7330  220.1540 C   0  0  0  0  0  0  0  0  0  0  0  0
  144.0600   70.6680  219.6840 C   0  0  0  0  0  0  0  0  0  0  0  0
  145.3830   70.8980  219.3760 C   0  0  0  0  0  0  0  0  0  0  0  0
  146.3260   69.5410  218.7880 Cl  0  0  0  0  0  0  0  0  0  0  0  0
  145.9120   72.1610  219.5400 C   0  0  0  0  0  0  0  0  0  0  0  0
  145.1740   73.2340  220.0040 C   0  0  0  0  0  0  0  0  0  0  0  0
  143.8500   72.9910  220.3080 C   0  0  0  0  0  0  0  0  0  0  0  0
  143.0650   73.9810  220.7650 N   0  0  0  0  0  0  0  0  0  0  0  0
  142.3900   76.4090  221.1910 H   0  0  0  0  0  0  0  0  0  0  0  0
  140.2321   77.9149  221.2201 H   0  0  0  0  0  0  0  0  0  0  0  0
  139.7278   76.8571  222.5791 H   0  0  0  0  0  0  0  0  0  0  0  0
  143.3613   79.8988  223.7109 H   0  0  0  0  0  0  0  0  0  0  0  0
  143.3917   80.4894  222.0699 H   0  0  0  0  0  0  0  0  0  0  0  0
  142.0064   81.6135  224.5145 H   0  0  0  0  0  0  0  0  0  0  0  0
  142.6638   82.5037  223.1395 H   0  0  0  0  0  0  0  0  0  0  0  0
  139.9426   81.5634  223.5762 H   0  0  0  0  0  0  0  0  0  0  0  0
  140.5382   82.5415  222.2251 H   0  0  0  0  0  0  0  0  0  0  0  0
  139.6198   80.0834  221.7308 H   0  0  0  0  0  0  0  0  0  0  0  0
  141.8346   78.5648  220.1981 H   0  0  0  0  0  0  0  0  0  0  0  0
  142.8016   79.0458  218.0036 H   0  0  0  0  0  0  0  0  0  0  0  0
  141.8368   83.1330  218.3928 H   0  0  0  0  0  0  0  0  0  0  0  0
  140.8463   82.7070  220.6185 H   0  0  0  0  0  0  0  0  0  0  0  0
  140.1251   72.4111  221.1881 H   0  0  0  0  0  0  0  0  0  0  0  0
  141.5219   70.5379  220.3450 H   0  0  0  0  0  0  0  0  0  0  0  0
  143.6193   69.6676  219.5619 H   0  0  0  0  0  0  0  0  0  0  0  0
  146.9710   72.3222  219.2898 H   0  0  0  0  0  0  0  0  0  0  0  0
  145.6201   74.2322  220.1249 H   0  0  0  0  0  0  0  0  0  0  0  0
  1  2  2  0
  2  3  1  0
  3  4  1  0
  4  5  1  0
  5  6  2  0
  5  7  1  0
  7  8  1  0
  8  9  1  0
  9 10  1  0
 10 11  1  0
 11 12  1  0
 12 13  2  0
 13 14  1  0
 14 15  2  0
 15 16  1  0
 16 17  2  0
  2 18  1  0
 18 19  2  0
 19 20  1  0
 20 21  2  0
 21 22  1  0
 22 23  2  0
 23 24  1  0
 23 25  1  0
 25 26  2  0
 26 27  1  0
 27 28  2  0
 11  7  1  0
 17 12  1  0
 28 18  1  0
 27 21  1  0
  3 29  1  0
  4 30  1  0
  4 31  1  0
  8 32  1  0
  8 33  1  0
  9 34  1  0
  9 35  1  0
 10 36  1  0
 10 37  1  0
 11 38  1  6
 13 39  1  0
 14 40  1  0
 16 41  1  0
 17 42  1  0
 19 43  1  0
 20 44  1  0
 22 45  1  0
 25 46  1  0
 26 47  1  0
M  END
>  <smiles>  (84) 
O=C(NCC(=O)N1CCCC1c1ccncc1)c1ccc2cc(Cl)ccc2n1

>  <score_type>  (84) 
oracle

>  <origin>  (84) 
autodockgpu

>  <m_score__min__energy>  (84) 
-8.5

>  <m_primary>  (84) 
energy

>  <rmsd>  (84) 
6.646230848306311

>  <m_score__min__rmsd>  (84) 
6.646230848306311

>  <meeko>  (84) 
{"free_energy": -7.3, "intermolecular_energy": -8.79, "internal_energy": -1.43, "cluster_size": 1, "cluster_id": 5, "rank_in_cluster": 1}

>  <energy>  (84) 
-8.16

>  <cluster_rmsd>  (84) 
0.0

>  <cluster>  (84) 
2

$$$$

     RDKit          3D

 47 50  0  0  0  0  0  0  0  0999 V2000
  140.6710   72.5520  220.8330 O   0  0  0  0  0  0  0  0  0  0  0  0
  140.1700   72.8780  221.9600 C   0  0  0  0  0  0  0  0  0  0  0  0
  139.6330   74.1810  222.1360 N   0  0  0  0  0  0  0  0  0  0  0  0
  139.6830   75.0830  221.0150 C   0  0  0  0  0  0  0  0  0  0  0  0
  139.1740   76.3990  221.4290 C   0  0  0  0  0  0  0  0  0  0  0  0
  138.1870   76.5790  222.1900 O   0  0  0  0  0  0  0  0  0  0  0  0
  139.8400   77.5550  220.9390 N   0  0  0  0  0  0  0  0  0  0  0  0
  139.2550   78.8100  220.4630 C   0  0  0  0  0  0  0  0  0  0  0  0
  140.0310   79.0580  219.2000 C   0  0  0  0  0  0  0  0  0  0  0  0
  141.3290   78.3350  219.3910 C   0  0  0  0  0  0  0  0  0  0  0  0
  141.2880   77.7700  220.7900 C   0  0  1  0  0  0  0  0  0  0  0  0
  141.6620   78.7220  221.8380 C   0  0  0  0  0  0  0  0  0  0  0  0
  142.1930   79.9670  221.6390 C   0  0  0  0  0  0  0  0  0  0  0  0
  142.5130   80.7910  222.6960 C   0  0  0  0  0  0  0  0  0  0  0  0
  142.3260   80.4320  223.9720 N   0  0  0  0  0  0  0  0  0  0  0  0
  141.7990   79.2010  224.2110 C   0  0  0  0  0  0  0  0  0  0  0  0
  141.4650   78.3420  223.1710 C   0  0  0  0  0  0  0  0  0  0  0  0
  140.1470   71.9090  223.0750 C   0  0  0  0  0  0  0  0  0  0  0  0
  139.6260   70.6530  222.8410 C   0  0  0  0  0  0  0  0  0  0  0  0
  139.6090   69.7580  223.8860 C   0  0  0  0  0  0  0  0  0  0  0  0
  140.0960   70.1020  225.1290 C   0  0  0  0  0  0  0  0  0  0  0  0
  140.0660   69.1740  226.1690 C   0  0  0  0  0  0  0  0  0  0  0  0
  140.5610   69.5490  227.3980 C   0  0  0  0  0  0  0  0  0  0  0  0
  140.5100   68.3630  228.6890 Cl  0  0  0  0  0  0  0  0  0  0  0  0
  141.0680   70.8200  227.5700 C   0  0  0  0  0  0  0  0  0  0  0  0
  141.1100   71.7590  226.5560 C   0  0  0  0  0  0  0  0  0  0  0  0
  140.6120   71.3710  225.3300 C   0  0  0  0  0  0  0  0  0  0  0  0
  140.6160   72.2250  224.2930 N   0  0  0  0  0  0  0  0  0  0  0  0
  139.2350   74.4230  223.0520 H   0  0  0  0  0  0  0  0  0  0  0  0
  140.7225   75.1829  220.6695 H   0  0  0  0  0  0  0  0  0  0  0  0
  139.0636   74.6886  220.1959 H   0  0  0  0  0  0  0  0  0  0  0  0
  138.1806   78.6969  220.2561 H   0  0  0  0  0  0  0  0  0  0  0  0
  139.3180   79.6325  221.1907 H   0  0  0  0  0  0  0  0  0  0  0  0
  139.4904   78.6576  218.3297 H   0  0  0  0  0  0  0  0  0  0  0  0
  140.1809   80.1315  219.0125 H   0  0  0  0  0  0  0  0  0  0  0  0
  141.4271   77.5243  218.6540 H   0  0  0  0  0  0  0  0  0  0  0  0
  142.1888   79.0070  219.2527 H   0  0  0  0  0  0  0  0  0  0  0  0
  141.9712   76.9146  220.8971 H   0  0  0  0  0  0  0  0  0  0  0  0
  142.3685   80.3183  220.6115 H   0  0  0  0  0  0  0  0  0  0  0  0
  142.9388   81.7826  222.4830 H   0  0  0  0  0  0  0  0  0  0  0  0
  141.6337   78.8786  225.2496 H   0  0  0  0  0  0  0  0  0  0  0  0
  141.0411   77.3526  223.3976 H   0  0  0  0  0  0  0  0  0  0  0  0
  139.2365   70.3759  221.8503 H   0  0  0  0  0  0  0  0  0  0  0  0
  139.1993   68.7496  223.7267 H   0  0  0  0  0  0  0  0  0  0  0  0
  139.6563   68.1654  226.0114 H   0  0  0  0  0  0  0  0  0  0  0  0
  141.4571   71.0997  228.5601 H   0  0  0  0  0  0  0  0  0  0  0  0
  141.5206   72.7663  226.7193 H   0  0  0  0  0  0  0  0  0  0  0  0
  1  2  2  0
  2  3  1  0
  3  4  1  0
  4  5  1  0
  5  6  2  0
  5  7  1  0
  7  8  1  0
  8  9  1  0
  9 10  1  0
 10 11  1  0
 11 12  1  0
 12 13  2  0
 13 14  1  0
 14 15  2  0
 15 16  1  0
 16 17  2  0
  2 18  1  0
 18 19  2  0
 19 20  1  0
 20 21  2  0
 21 22  1  0
 22 23  2  0
 23 24  1  0
 23 25  1  0
 25 26  2  0
 26 27  1  0
 27 28  2  0
 11  7  1  0
 17 12  1  0
 28 18  1  0
 27 21  1  0
  3 29  1  0
  4 30  1  0
  4 31  1  0
  8 32  1  0
  8 33  1  0
  9 34  1  0
  9 35  1  0
 10 36  1  0
 10 37  1  0
 11 38  1  6
 13 39  1  0
 14 40  1  0
 16 41  1  0
 17 42  1  0
 19 43  1  0
 20 44  1  0
 22 45  1  0
 25 46  1  0
 26 47  1  0
M  END
>  <smiles>  (85) 
O=C(NCC(=O)N1CCCC1c1ccncc1)c1ccc2cc(Cl)ccc2n1

>  <score_type>  (85) 
oracle

>  <origin>  (85) 
autodockgpu

>  <m_score__min__energy>  (85) 
-8.5

>  <m_primary>  (85) 
energy

>  <rmsd>  (85) 
2.245804086882568

>  <m_score__min__rmsd>  (85) 
2.245804086882568

>  <meeko>  (85) 
{"free_energy": -8.33, "intermolecular_energy": -9.82, "internal_energy": -1.44, "cluster_size": 33, "cluster_id": 1, "rank_in_cluster": 18}

>  <energy>  (85) 
-8.13

>  <cluster_rmsd>  (85) 
0.13

>  <cluster>  (85) 
2

$$$$

     RDKit          3D

 47 50  0  0  0  0  0  0  0  0999 V2000
  140.6550   72.5450  220.8940 O   0  0  0  0  0  0  0  0  0  0  0  0
  140.1320   72.8550  222.0150 C   0  0  0  0  0  0  0  0  0  0  0  0
  139.5530   74.1410  222.1850 N   0  0  0  0  0  0  0  0  0  0  0  0
  139.5870   75.0440  221.0640 C   0  0  0  0  0  0  0  0  0  0  0  0
  139.0500   76.3490  221.4780 C   0  0  0  0  0  0  0  0  0  0  0  0
  138.0380   76.5080  222.2100 O   0  0  0  0  0  0  0  0  0  0  0  0
  139.7170   77.5190  221.0220 N   0  0  0  0  0  0  0  0  0  0  0  0
  139.1350   78.8010  220.6190 C   0  0  0  0  0  0  0  0  0  0  0  0
  139.8790   79.0970  219.3480 C   0  0  0  0  0  0  0  0  0  0  0  0
  141.1730   78.3510  219.4700 C   0  0  0  0  0  0  0  0  0  0  0  0
  141.1630   77.7240  220.8430 C   0  0  1  0  0  0  0  0  0  0  0  0
  141.5770   78.6240  221.9220 C   0  0  0  0  0  0  0  0  0  0  0  0
  141.4380   78.3850  223.2610 C   0  0  0  0  0  0  0  0  0  0  0  0
  141.8610   79.2980  224.2030 C   0  0  0  0  0  0  0  0  0  0  0  0
  142.4280   80.4640  223.8720 N   0  0  0  0  0  0  0  0  0  0  0  0
  142.5830   80.7390  222.5490 C   0  0  0  0  0  0  0  0  0  0  0  0
  142.1680   79.8420  221.5710 C   0  0  0  0  0  0  0  0  0  0  0  0
  140.1270   71.8860  223.1290 C   0  0  0  0  0  0  0  0  0  0  0  0
  139.6190   70.6240  222.8980 C   0  0  0  0  0  0  0  0  0  0  0  0
  139.6190   69.7280  223.9420 C   0  0  0  0  0  0  0  0  0  0  0  0
  140.1090   70.0780  225.1830 C   0  0  0  0  0  0  0  0  0  0  0  0
  140.0960   69.1480  226.2220 C   0  0  0  0  0  0  0  0  0  0  0  0
  140.5940   69.5290  227.4490 C   0  0  0  0  0  0  0  0  0  0  0  0
  140.5650   68.3420  228.7390 Cl  0  0  0  0  0  0  0  0  0  0  0  0
  141.0880   70.8050  227.6180 C   0  0  0  0  0  0  0  0  0  0  0  0
  141.1130   71.7460  226.6040 C   0  0  0  0  0  0  0  0  0  0  0  0
  140.6120   71.3520  225.3810 C   0  0  0  0  0  0  0  0  0  0  0  0
  140.6000   72.2070  224.3450 N   0  0  0  0  0  0  0  0  0  0  0  0
  139.1380   74.3700  223.0960 H   0  0  0  0  0  0  0  0  0  0  0  0
  140.6250   75.1654  220.7207 H   0  0  0  0  0  0  0  0  0  0  0  0
  138.9781   74.6373  220.2431 H   0  0  0  0  0  0  0  0  0  0  0  0
  138.0540   78.7095  220.4371 H   0  0  0  0  0  0  0  0  0  0  0  0
  139.2281   79.5890  221.3808 H   0  0  0  0  0  0  0  0  0  0  0  0
  139.3098   78.7427  218.4759 H   0  0  0  0  0  0  0  0  0  0  0  0
  140.0374   80.1761  219.2051 H   0  0  0  0  0  0  0  0  0  0  0  0
  141.2405   77.5733  218.6950 H   0  0  0  0  0  0  0  0  0  0  0  0
  142.0373   79.0185  219.3378 H   0  0  0  0  0  0  0  0  0  0  0  0
  141.8382   76.8570  220.8930 H   0  0  0  0  0  0  0  0  0  0  0  0
  140.9782   77.4428  223.5940 H   0  0  0  0  0  0  0  0  0  0  0  0
  141.7273   79.0588  225.2683 H   0  0  0  0  0  0  0  0  0  0  0  0
  143.0459   81.6900  222.2467 H   0  0  0  0  0  0  0  0  0  0  0  0
  142.3061   80.0932  220.5090 H   0  0  0  0  0  0  0  0  0  0  0  0
  139.2262   70.3431  221.9097 H   0  0  0  0  0  0  0  0  0  0  0  0
  139.2212   68.7146  223.7843 H   0  0  0  0  0  0  0  0  0  0  0  0
  139.6977   68.1346  226.0658 H   0  0  0  0  0  0  0  0  0  0  0  0
  141.4808   71.0883  228.6056 H   0  0  0  0  0  0  0  0  0  0  0  0
  141.5126   72.7581  226.7653 H   0  0  0  0  0  0  0  0  0  0  0  0
  1  2  2  0
  2  3  1  0
  3  4  1  0
  4  5  1  0
  5  6  2  0
  5  7  1  0
  7  8  1  0
  8  9  1  0
  9 10  1  0
 10 11  1  0
 11 12  1  0
 12 13  2  0
 13 14  1  0
 14 15  2  0
 15 16  1  0
 16 17  2  0
  2 18  1  0
 18 19  2  0
 19 20  1  0
 20 21  2  0
 21 22  1  0
 22 23  2  0
 23 24  1  0
 23 25  1  0
 25 26  2  0
 26 27  1  0
 27 28  2  0
 11  7  1  0
 17 12  1  0
 28 18  1  0
 27 21  1  0
  3 29  1  0
  4 30  1  0
  4 31  1  0
  8 32  1  0
  8 33  1  0
  9 34  1  0
  9 35  1  0
 10 36  1  0
 10 37  1  0
 11 38  1  6
 13 39  1  0
 14 40  1  0
 16 41  1  0
 17 42  1  0
 19 43  1  0
 20 44  1  0
 22 45  1  0
 25 46  1  0
 26 47  1  0
M  END
>  <smiles>  (86) 
O=C(NCC(=O)N1CCCC1c1ccncc1)c1ccc2cc(Cl)ccc2n1

>  <score_type>  (86) 
oracle

>  <origin>  (86) 
autodockgpu

>  <m_score__min__energy>  (86) 
-8.5

>  <m_primary>  (86) 
energy

>  <rmsd>  (86) 
2.250733325637222

>  <m_score__min__rmsd>  (86) 
2.250733325637222

>  <meeko>  (86) 
{"free_energy": -8.3, "intermolecular_energy": -9.79, "internal_energy": -1.41, "cluster_size": 33, "cluster_id": 1, "rank_in_cluster": 22}

>  <energy>  (86) 
-8.12

>  <cluster_rmsd>  (86) 
0.09

>  <cluster>  (86) 
2

$$$$

     RDKit          3D

 47 50  0  0  0  0  0  0  0  0999 V2000
  140.1310   72.4680  220.7690 O   0  0  0  0  0  0  0  0  0  0  0  0
  139.8630   72.8420  221.9590 C   0  0  0  0  0  0  0  0  0  0  0  0
  139.4900   74.1900  222.2020 N   0  0  0  0  0  0  0  0  0  0  0  0
  139.4320   75.0830  221.0740 C   0  0  0  0  0  0  0  0  0  0  0  0
  140.7100   75.7990  220.9560 C   0  0  0  0  0  0  0  0  0  0  0  0
  141.8450   75.2620  221.0580 O   0  0  0  0  0  0  0  0  0  0  0  0
  140.6700   77.1990  220.7110 N   0  0  0  0  0  0  0  0  0  0  0  0
  139.4980   78.0640  220.5570 C   0  0  0  0  0  0  0  0  0  0  0  0
  139.8660   78.8780  219.3500 C   0  0  0  0  0  0  0  0  0  0  0  0
  141.3640   78.8680  219.3140 C   0  0  0  0  0  0  0  0  0  0  0  0
  141.8040   78.1220  220.5500 C   0  0  1  0  0  0  0  0  0  0  0  0
  141.8360   78.9340  221.7680 C   0  0  0  0  0  0  0  0  0  0  0  0
  142.1540   80.2620  221.8380 C   0  0  0  0  0  0  0  0  0  0  0  0
  142.1550   80.9400  223.0380 C   0  0  0  0  0  0  0  0  0  0  0  0
  141.8510   80.3480  224.2000 N   0  0  0  0  0  0  0  0  0  0  0  0
  141.5300   79.0270  224.1710 C   0  0  0  0  0  0  0  0  0  0  0  0
  141.5180   78.3110  222.9800 C   0  0  0  0  0  0  0  0  0  0  0  0
  139.9400   71.8800  223.0780 C   0  0  0  0  0  0  0  0  0  0  0  0
  139.4980   70.5900  222.8650 C   0  0  0  0  0  0  0  0  0  0  0  0
  139.5740   69.7020  223.9130 C   0  0  0  0  0  0  0  0  0  0  0  0
  140.0750   70.0860  225.1390 C   0  0  0  0  0  0  0  0  0  0  0  0
  140.1400   69.1630  226.1820 C   0  0  0  0  0  0  0  0  0  0  0  0
  140.6460   69.5780  227.3940 C   0  0  0  0  0  0  0  0  0  0  0  0
  140.7160   68.3980  228.6910 Cl  0  0  0  0  0  0  0  0  0  0  0  0
  141.0720   70.8810  227.5460 C   0  0  0  0  0  0  0  0  0  0  0  0
  141.0190   71.8150  226.5280 C   0  0  0  0  0  0  0  0  0  0  0  0
  140.5100   71.3870  225.3190 C   0  0  0  0  0  0  0  0  0  0  0  0
  140.4250   72.2340  224.2800 N   0  0  0  0  0  0  0  0  0  0  0  0
  139.2790   74.4690  223.1680 H   0  0  0  0  0  0  0  0  0  0  0  0
  139.2486   74.5047  220.1564 H   0  0  0  0  0  0  0  0  0  0  0  0
  138.6159   75.8064  221.2179 H   0  0  0  0  0  0  0  0  0  0  0  0
  138.5868   77.4742  220.3785 H   0  0  0  0  0  0  0  0  0  0  0  0
  139.2736   78.6690  221.4479 H   0  0  0  0  0  0  0  0  0  0  0  0
  139.4548   78.4225  218.4371 H   0  0  0  0  0  0  0  0  0  0  0  0
  139.4619   79.8997  219.4032 H   0  0  0  0  0  0  0  0  0  0  0  0
  141.7213   78.3538  218.4096 H   0  0  0  0  0  0  0  0  0  0  0  0
  141.7737   79.8886  219.2918 H   0  0  0  0  0  0  0  0  0  0  0  0
  142.8176   77.7116  220.4308 H   0  0  0  0  0  0  0  0  0  0  0  0
  142.4150   80.8015  220.9156 H   0  0  0  0  0  0  0  0  0  0  0  0
  142.4156   82.0087  223.0413 H   0  0  0  0  0  0  0  0  0  0  0  0
  141.2744   78.5143  225.1101 H   0  0  0  0  0  0  0  0  0  0  0  0
  141.2557   77.2428  222.9901 H   0  0  0  0  0  0  0  0  0  0  0  0
  139.0975   70.2816  221.8880 H   0  0  0  0  0  0  0  0  0  0  0  0
  139.2290   68.6673  223.7704 H   0  0  0  0  0  0  0  0  0  0  0  0
  139.7954   68.1280  226.0403 H   0  0  0  0  0  0  0  0  0  0  0  0
  141.4725   71.1914  228.5224 H   0  0  0  0  0  0  0  0  0  0  0  0
  141.3656   72.8486  226.6747 H   0  0  0  0  0  0  0  0  0  0  0  0
  1  2  2  0
  2  3  1  0
  3  4  1  0
  4  5  1  0
  5  6  2  0
  5  7  1  0
  7  8  1  0
  8  9  1  0
  9 10  1  0
 10 11  1  0
 11 12  1  0
 12 13  2  0
 13 14  1  0
 14 15  2  0
 15 16  1  0
 16 17  2  0
  2 18  1  0
 18 19  2  0
 19 20  1  0
 20 21  2  0
 21 22  1  0
 22 23  2  0
 23 24  1  0
 23 25  1  0
 25 26  2  0
 26 27  1  0
 27 28  2  0
 11  7  1  0
 17 12  1  0
 28 18  1  0
 27 21  1  0
  3 29  1  0
  4 30  1  0
  4 31  1  0
  8 32  1  0
  8 33  1  0
  9 34  1  0
  9 35  1  0
 10 36  1  0
 10 37  1  0
 11 38  1  6
 13 39  1  0
 14 40  1  0
 16 41  1  0
 17 42  1  0
 19 43  1  0
 20 44  1  0
 22 45  1  0
 25 46  1  0
 26 47  1  0
M  END
>  <smiles>  (87) 
O=C(NCC(=O)N1CCCC1c1ccncc1)c1ccc2cc(Cl)ccc2n1

>  <score_type>  (87) 
oracle

>  <origin>  (87) 
autodockgpu

>  <m_score__min__energy>  (87) 
-8.5

>  <m_primary>  (87) 
energy

>  <rmsd>  (87) 
2.049307814885115

>  <m_score__min__rmsd>  (87) 
2.049307814885115

>  <meeko>  (87) 
{"free_energy": -8.4, "intermolecular_energy": -9.89, "internal_energy": -1.26, "cluster_size": 33, "cluster_id": 1, "rank_in_cluster": 11}

>  <energy>  (87) 
-8.12

>  <cluster_rmsd>  (87) 
0.29

>  <cluster>  (87) 
2

$$$$

     RDKit          3D

 47 50  0  0  0  0  0  0  0  0999 V2000
  139.8050   72.0850  220.7940 O   0  0  0  0  0  0  0  0  0  0  0  0
  139.3480   72.3670  221.9510 C   0  0  0  0  0  0  0  0  0  0  0  0
  138.6200   73.5710  222.1410 N   0  0  0  0  0  0  0  0  0  0  0  0
  138.4300   74.4270  220.9980 C   0  0  0  0  0  0  0  0  0  0  0  0
  138.5830   75.8290  221.4120 C   0  0  0  0  0  0  0  0  0  0  0  0
  137.6330   76.5880  221.7400 O   0  0  0  0  0  0  0  0  0  0  0  0
  139.8960   76.3750  221.4450 N   0  0  0  0  0  0  0  0  0  0  0  0
  140.6890   76.7680  222.6110 C   0  0  0  0  0  0  0  0  0  0  0  0
  141.2280   78.1040  222.1860 C   0  0  0  0  0  0  0  0  0  0  0  0
  141.2320   78.0650  220.6880 C   0  0  0  0  0  0  0  0  0  0  0  0
  140.7780   76.6780  220.3070 C   0  0  1  0  0  0  0  0  0  0  0  0
  141.8350   75.6650  220.3390 C   0  0  0  0  0  0  0  0  0  0  0  0
  141.7210   74.4030  220.8540 C   0  0  0  0  0  0  0  0  0  0  0  0
  142.7780   73.5190  220.8360 C   0  0  0  0  0  0  0  0  0  0  0  0
  143.9720   73.8350  220.3200 N   0  0  0  0  0  0  0  0  0  0  0  0
  144.1250   75.0810  219.7970 C   0  0  0  0  0  0  0  0  0  0  0  0
  143.0810   75.9990  219.7980 C   0  0  0  0  0  0  0  0  0  0  0  0
  139.5750   71.4510  223.0870 C   0  0  0  0  0  0  0  0  0  0  0  0
  139.2040   70.1290  222.9470 C   0  0  0  0  0  0  0  0  0  0  0  0
  139.4200   69.2830  224.0100 C   0  0  0  0  0  0  0  0  0  0  0  0
  139.9870   69.7390  225.1810 C   0  0  0  0  0  0  0  0  0  0  0  0
  140.1930   68.8580  226.2420 C   0  0  0  0  0  0  0  0  0  0  0  0
  140.7630   69.3440  227.3980 C   0  0  0  0  0  0  0  0  0  0  0  0
  141.0110   68.2160  228.7170 Cl  0  0  0  0  0  0  0  0  0  0  0  0
  141.1130   70.6760  227.4780 C   0  0  0  0  0  0  0  0  0  0  0  0
  140.9200   71.5710  226.4410 C   0  0  0  0  0  0  0  0  0  0  0  0
  140.3480   71.0700  225.2890 C   0  0  0  0  0  0  0  0  0  0  0  0
  140.1270   71.8750  224.2360 N   0  0  0  0  0  0  0  0  0  0  0  0
  138.2620   73.7800  223.0810 H   0  0  0  0  0  0  0  0  0  0  0  0
  139.1797   74.1865  220.2298 H   0  0  0  0  0  0  0  0  0  0  0  0
  137.4226   74.2722  220.5843 H   0  0  0  0  0  0  0  0  0  0  0  0
  140.0610   76.8579  223.5096 H   0  0  0  0  0  0  0  0  0  0  0  0
  141.4687   76.0411  222.8826 H   0  0  0  0  0  0  0  0  0  0  0  0
  140.5800   78.9152  222.5494 H   0  0  0  0  0  0  0  0  0  0  0  0
  142.2311   78.2930  222.5960 H   0  0  0  0  0  0  0  0  0  0  0  0
  140.5395   78.8182  220.2842 H   0  0  0  0  0  0  0  0  0  0  0  0
  142.2296   78.2882  220.2818 H   0  0  0  0  0  0  0  0  0  0  0  0
  140.3660   76.6567  219.2873 H   0  0  0  0  0  0  0  0  0  0  0  0
  140.7633   74.0863  221.2928 H   0  0  0  0  0  0  0  0  0  0  0  0
  142.6350   72.5150  221.2621 H   0  0  0  0  0  0  0  0  0  0  0  0
  145.0947   75.3683  219.3643 H   0  0  0  0  0  0  0  0  0  0  0  0
  143.2365   76.9996  219.3684 H   0  0  0  0  0  0  0  0  0  0  0  0
  138.7497   69.7632  222.0144 H   0  0  0  0  0  0  0  0  0  0  0  0
  139.1353   68.2240  223.9242 H   0  0  0  0  0  0  0  0  0  0  0  0
  139.9069   67.7992  226.1578 H   0  0  0  0  0  0  0  0  0  0  0  0
  141.5669   71.0437  228.4101 H   0  0  0  0  0  0  0  0  0  0  0  0
  141.2079   72.6289  226.5300 H   0  0  0  0  0  0  0  0  0  0  0  0
  1  2  2  0
  2  3  1  0
  3  4  1  0
  4  5  1  0
  5  6  2  0
  5  7  1  0
  7  8  1  0
  8  9  1  0
  9 10  1  0
 10 11  1  0
 11 12  1  0
 12 13  2  0
 13 14  1  0
 14 15  2  0
 15 16  1  0
 16 17  2  0
  2 18  1  0
 18 19  2  0
 19 20  1  0
 20 21  2  0
 21 22  1  0
 22 23  2  0
 23 24  1  0
 23 25  1  0
 25 26  2  0
 26 27  1  0
 27 28  2  0
 11  7  1  0
 17 12  1  0
 28 18  1  0
 27 21  1  0
  3 29  1  0
  4 30  1  0
  4 31  1  0
  8 32  1  0
  8 33  1  0
  9 34  1  0
  9 35  1  0
 10 36  1  0
 10 37  1  0
 11 38  1  6
 13 39  1  0
 14 40  1  0
 16 41  1  0
 17 42  1  0
 19 43  1  0
 20 44  1  0
 22 45  1  0
 25 46  1  0
 26 47  1  0
M  END
>  <smiles>  (88) 
O=C(NCC(=O)N1CCCC1c1ccncc1)c1ccc2cc(Cl)ccc2n1

>  <score_type>  (88) 
oracle

>  <origin>  (88) 
autodockgpu

>  <m_score__min__energy>  (88) 
-8.5

>  <m_primary>  (88) 
energy

>  <rmsd>  (88) 
2.429986519297345

>  <m_score__min__rmsd>  (88) 
2.429986519297345

>  <meeko>  (88) 
{"free_energy": -7.7, "intermolecular_energy": -9.19, "internal_energy": -1.57, "cluster_size": 13, "cluster_id": 2, "rank_in_cluster": 10}

>  <energy>  (88) 
-8.12

>  <cluster_rmsd>  (88) 
0.08

>  <cluster>  (88) 
2

$$$$

     RDKit          3D

 47 50  0  0  0  0  0  0  0  0999 V2000
  140.5350   72.3070  220.7380 O   0  0  0  0  0  0  0  0  0  0  0  0
  140.1820   72.7020  221.8990 C   0  0  0  0  0  0  0  0  0  0  0  0
  139.8220   74.0620  222.0940 N   0  0  0  0  0  0  0  0  0  0  0  0
  139.8740   74.9400  220.9540 C   0  0  0  0  0  0  0  0  0  0  0  0
  141.0900   75.7620  221.0300 C   0  0  0  0  0  0  0  0  0  0  0  0
  141.4210   76.4620  222.0230 O   0  0  0  0  0  0  0  0  0  0  0  0
  141.9600   75.7710  219.9050 N   0  0  0  0  0  0  0  0  0  0  0  0
  142.8840   76.8230  219.4780 C   0  0  0  0  0  0  0  0  0  0  0  0
  142.6110   76.9000  218.0030 C   0  0  0  0  0  0  0  0  0  0  0  0
  142.0740   75.5510  217.6340 C   0  0  0  0  0  0  0  0  0  0  0  0
  142.1400   74.7200  218.8920 C   0  0  1  0  0  0  0  0  0  0  0  0
  143.4530   74.1280  219.1590 C   0  0  0  0  0  0  0  0  0  0  0  0
  144.3560   73.7250  218.2150 C   0  0  0  0  0  0  0  0  0  0  0  0
  145.5710   73.1760  218.5680 C   0  0  0  0  0  0  0  0  0  0  0  0
  145.9390   73.0040  219.8430 N   0  0  0  0  0  0  0  0  0  0  0  0
  145.0670   73.3930  220.8120 C   0  0  0  0  0  0  0  0  0  0  0  0
  143.8340   73.9490  220.4930 C   0  0  0  0  0  0  0  0  0  0  0  0
  140.1480   71.7550  223.0310 C   0  0  0  0  0  0  0  0  0  0  0  0
  139.6070   70.5030  222.8230 C   0  0  0  0  0  0  0  0  0  0  0  0
  139.5790   69.6280  223.8850 C   0  0  0  0  0  0  0  0  0  0  0  0
  140.0760   69.9880  225.1190 C   0  0  0  0  0  0  0  0  0  0  0  0
  140.0350   69.0800  226.1760 C   0  0  0  0  0  0  0  0  0  0  0  0
  140.5410   69.4700  227.3970 C   0  0  0  0  0  0  0  0  0  0  0  0
  140.4760   68.3090  228.7100 Cl  0  0  0  0  0  0  0  0  0  0  0  0
  141.0700   70.7360  227.5430 C   0  0  0  0  0  0  0  0  0  0  0  0
  141.1230   71.6550  226.5110 C   0  0  0  0  0  0  0  0  0  0  0  0
  140.6130   71.2520  225.2940 C   0  0  0  0  0  0  0  0  0  0  0  0
  140.6270   72.0860  224.2420 N   0  0  0  0  0  0  0  0  0  0  0  0
  139.5410   74.3590  223.0370 H   0  0  0  0  0  0  0  0  0  0  0  0
  139.8912   74.3427  220.0305 H   0  0  0  0  0  0  0  0  0  0  0  0
  138.9879   75.5918  220.9497 H   0  0  0  0  0  0  0  0  0  0  0  0
  142.6600   77.7778  219.9761 H   0  0  0  0  0  0  0  0  0  0  0  0
  143.9359   76.6154  219.7237 H   0  0  0  0  0  0  0  0  0  0  0  0
  141.8688   77.6830  217.7881 H   0  0  0  0  0  0  0  0  0  0  0  0
  143.5145   77.1547  217.4296 H   0  0  0  0  0  0  0  0  0  0  0  0
  141.0340   75.6356  217.2857 H   0  0  0  0  0  0  0  0  0  0  0  0
  142.6545   75.0950  216.8184 H   0  0  0  0  0  0  0  0  0  0  0  0
  141.4289   73.8815  218.8555 H   0  0  0  0  0  0  0  0  0  0  0  0
  144.1079   73.8412  217.1497 H   0  0  0  0  0  0  0  0  0  0  0  0
  146.2639   72.8678  217.7711 H   0  0  0  0  0  0  0  0  0  0  0  0
  145.3434   73.2649  221.8690 H   0  0  0  0  0  0  0  0  0  0  0  0
  143.1495   74.2519  221.2990 H   0  0  0  0  0  0  0  0  0  0  0  0
  139.2103   70.2131  221.8388 H   0  0  0  0  0  0  0  0  0  0  0  0
  139.1524   68.6236  223.7464 H   0  0  0  0  0  0  0  0  0  0  0  0
  139.6086   68.0754  226.0386 H   0  0  0  0  0  0  0  0  0  0  0  0
  141.4681   71.0278  228.5260 H   0  0  0  0  0  0  0  0  0  0  0  0
  141.5509   72.6583  226.6534 H   0  0  0  0  0  0  0  0  0  0  0  0
  1  2  2  0
  2  3  1  0
  3  4  1  0
  4  5  1  0
  5  6  2  0
  5  7  1  0
  7  8  1  0
  8  9  1  0
  9 10  1  0
 10 11  1  0
 11 12  1  0
 12 13  2  0
 13 14  1  0
 14 15  2  0
 15 16  1  0
 16 17  2  0
  2 18  1  0
 18 19  2  0
 19 20  1  0
 20 21  2  0
 21 22  1  0
 22 23  2  0
 23 24  1  0
 23 25  1  0
 25 26  2  0
 26 27  1  0
 27 28  2  0
 11  7  1  0
 17 12  1  0
 28 18  1  0
 27 21  1  0
  3 29  1  0
  4 30  1  0
  4 31  1  0
  8 32  1  0
  8 33  1  0
  9 34  1  0
  9 35  1  0
 10 36  1  0
 10 37  1  0
 11 38  1  6
 13 39  1  0
 14 40  1  0
 16 41  1  0
 17 42  1  0
 19 43  1  0
 20 44  1  0
 22 45  1  0
 25 46  1  0
 26 47  1  0
M  END
>  <smiles>  (89) 
O=C(NCC(=O)N1CCCC1c1ccncc1)c1ccc2cc(Cl)ccc2n1

>  <score_type>  (89) 
oracle

>  <origin>  (89) 
autodockgpu

>  <m_score__min__energy>  (89) 
-8.5

>  <m_primary>  (89) 
energy

>  <rmsd>  (89) 
2.370203445521985

>  <m_score__min__rmsd>  (89) 
2.370203445521985

>  <meeko>  (89) 
{"free_energy": -7.86, "intermolecular_energy": -9.35, "internal_energy": -1.61, "cluster_size": 13, "cluster_id": 2, "rank_in_cluster": 8}

>  <energy>  (89) 
-8.12

>  <cluster_rmsd>  (89) 
0.1

>  <cluster>  (89) 
2

$$$$

     RDKit          3D

 47 50  0  0  0  0  0  0  0  0999 V2000
  141.0040   72.4240  220.7650 O   0  0  0  0  0  0  0  0  0  0  0  0
  140.3570   72.7580  221.8130 C   0  0  0  0  0  0  0  0  0  0  0  0
  139.7210   74.0260  221.8670 N   0  0  0  0  0  0  0  0  0  0  0  0
  139.8390   74.8860  220.7180 C   0  0  0  0  0  0  0  0  0  0  0  0
  140.9620   75.8130  220.9200 C   0  0  0  0  0  0  0  0  0  0  0  0
  141.1160   76.5420  221.9350 O   0  0  0  0  0  0  0  0  0  0  0  0
  141.9490   75.8970  219.9000 N   0  0  0  0  0  0  0  0  0  0  0  0
  142.9230   76.9640  219.6600 C   0  0  0  0  0  0  0  0  0  0  0  0
  142.8120   77.1610  218.1750 C   0  0  0  0  0  0  0  0  0  0  0  0
  142.3080   75.8540  217.6440 C   0  0  0  0  0  0  0  0  0  0  0  0
  142.2310   74.9260  218.8310 C   0  0  1  0  0  0  0  0  0  0  0  0
  143.5020   74.2930  219.1900 C   0  0  0  0  0  0  0  0  0  0  0  0
  143.9730   74.1040  220.4590 C   0  0  0  0  0  0  0  0  0  0  0  0
  145.1880   73.4950  220.6940 C   0  0  0  0  0  0  0  0  0  0  0  0
  145.9760   73.0560  219.7050 N   0  0  0  0  0  0  0  0  0  0  0  0
  145.5410   73.2260  218.4280 C   0  0  0  0  0  0  0  0  0  0  0  0
  144.3230   73.8350  218.1530 C   0  0  0  0  0  0  0  0  0  0  0  0
  140.2700   71.8340  222.9610 C   0  0  0  0  0  0  0  0  0  0  0  0
  139.7150   70.5870  222.7590 C   0  0  0  0  0  0  0  0  0  0  0  0
  139.6380   69.7330  223.8350 C   0  0  0  0  0  0  0  0  0  0  0  0
  140.1000   70.1090  225.0790 C   0  0  0  0  0  0  0  0  0  0  0  0
  140.0080   69.2220  226.1510 C   0  0  0  0  0  0  0  0  0  0  0  0
  140.4790   69.6290  227.3800 C   0  0  0  0  0  0  0  0  0  0  0  0
  140.3520   68.4950  228.7120 Cl  0  0  0  0  0  0  0  0  0  0  0  0
  141.0240   70.8880  227.5200 C   0  0  0  0  0  0  0  0  0  0  0  0
  141.1260   71.7870  226.4730 C   0  0  0  0  0  0  0  0  0  0  0  0
  140.6510   71.3670  225.2480 C   0  0  0  0  0  0  0  0  0  0  0  0
  140.7140   72.1810  224.1810 N   0  0  0  0  0  0  0  0  0  0  0  0
  139.2060   74.2750  222.7200 H   0  0  0  0  0  0  0  0  0  0  0  0
  140.0217   74.2772  219.8202 H   0  0  0  0  0  0  0  0  0  0  0  0
  138.9080   75.4570  220.5872 H   0  0  0  0  0  0  0  0  0  0  0  0
  142.6543   77.8804  220.2058 H   0  0  0  0  0  0  0  0  0  0  0  0
  143.9403   76.7201  219.9999 H   0  0  0  0  0  0  0  0  0  0  0  0
  142.1034   77.9703  217.9448 H   0  0  0  0  0  0  0  0  0  0  0  0
  143.7742   77.4453  217.7241 H   0  0  0  0  0  0  0  0  0  0  0  0
  141.3126   75.9824  217.1938 H   0  0  0  0  0  0  0  0  0  0  0  0
  142.9700   75.4542  216.8618 H   0  0  0  0  0  0  0  0  0  0  0  0
  141.5221   74.1044  218.6508 H   0  0  0  0  0  0  0  0  0  0  0  0
  143.3691   74.4455  221.3127 H   0  0  0  0  0  0  0  0  0  0  0  0
  145.5222   73.3651  221.7339 H   0  0  0  0  0  0  0  0  0  0  0  0
  146.1669   72.8738  217.5948 H   0  0  0  0  0  0  0  0  0  0  0  0
  144.0002   73.9586  217.1087 H   0  0  0  0  0  0  0  0  0  0  0  0
  139.3454   70.2849  221.7680 H   0  0  0  0  0  0  0  0  0  0  0  0
  139.2003   68.7328  223.7008 H   0  0  0  0  0  0  0  0  0  0  0  0
  139.5700   68.2217  226.0186 H   0  0  0  0  0  0  0  0  0  0  0  0
  141.3949   71.1918  228.5100 H   0  0  0  0  0  0  0  0  0  0  0  0
  141.5640   72.7866  226.6107 H   0  0  0  0  0  0  0  0  0  0  0  0
  1  2  2  0
  2  3  1  0
  3  4  1  0
  4  5  1  0
  5  6  2  0
  5  7  1  0
  7  8  1  0
  8  9  1  0
  9 10  1  0
 10 11  1  0
 11 12  1  0
 12 13  2  0
 13 14  1  0
 14 15  2  0
 15 16  1  0
 16 17  2  0
  2 18  1  0
 18 19  2  0
 19 20  1  0
 20 21  2  0
 21 22  1  0
 22 23  2  0
 23 24  1  0
 23 25  1  0
 25 26  2  0
 26 27  1  0
 27 28  2  0
 11  7  1  0
 17 12  1  0
 28 18  1  0
 27 21  1  0
  3 29  1  0
  4 30  1  0
  4 31  1  0
  8 32  1  0
  8 33  1  0
  9 34  1  0
  9 35  1  0
 10 36  1  0
 10 37  1  0
 11 38  1  6
 13 39  1  0
 14 40  1  0
 16 41  1  0
 17 42  1  0
 19 43  1  0
 20 44  1  0
 22 45  1  0
 25 46  1  0
 26 47  1  0
M  END
>  <smiles>  (90) 
O=C(NCC(=O)N1CCCC1c1ccncc1)c1ccc2cc(Cl)ccc2n1

>  <score_type>  (90) 
oracle

>  <origin>  (90) 
autodockgpu

>  <m_score__min__energy>  (90) 
-8.5

>  <m_primary>  (90) 
energy

>  <rmsd>  (90) 
2.425481297018316

>  <m_score__min__rmsd>  (90) 
2.425481297018316

>  <meeko>  (90) 
{"free_energy": -8.12, "intermolecular_energy": -9.61, "internal_energy": -1.56, "cluster_size": 13, "cluster_id": 2, "rank_in_cluster": 6}

>  <energy>  (90) 
-7.97

>  <cluster_rmsd>  (90) 
0.36

>  <cluster>  (90) 
2

$$$$

     RDKit          3D

 47 50  0  0  0  0  0  0  0  0999 V2000
  134.9020   68.4990  225.3390 O   0  0  0  0  0  0  0  0  0  0  0  0
  135.1300   69.7110  225.0140 C   0  0  0  0  0  0  0  0  0  0  0  0
  136.1090   69.9980  224.0260 N   0  0  0  0  0  0  0  0  0  0  0  0
  136.8060   68.8870  223.4310 C   0  0  0  0  0  0  0  0  0  0  0  0
  138.1620   68.8080  223.9950 C   0  0  0  0  0  0  0  0  0  0  0  0
  138.7170   67.7450  224.3790 O   0  0  0  0  0  0  0  0  0  0  0  0
  138.9030   70.0150  224.1200 N   0  0  0  0  0  0  0  0  0  0  0  0
  138.4270   71.3940  223.9920 C   0  0  0  0  0  0  0  0  0  0  0  0
  139.4860   72.0110  223.1240 C   0  0  0  0  0  0  0  0  0  0  0  0
  140.7120   71.1800  223.3520 C   0  0  0  0  0  0  0  0  0  0  0  0
  140.3380   70.1690  224.4070 C   0  0  1  0  0  0  0  0  0  0  0  0
  140.4190   70.6700  225.7810 C   0  0  0  0  0  0  0  0  0  0  0  0
  139.8190   70.1100  226.8750 C   0  0  0  0  0  0  0  0  0  0  0  0
  139.9570   70.6590  228.1320 C   0  0  0  0  0  0  0  0  0  0  0  0
  140.6780   71.7630  228.3600 N   0  0  0  0  0  0  0  0  0  0  0  0
  141.2910   72.3490  227.2970 C   0  0  0  0  0  0  0  0  0  0  0  0
  141.1750   71.8240  226.0160 C   0  0  0  0  0  0  0  0  0  0  0  0
  134.3830   70.8100  225.6590 C   0  0  0  0  0  0  0  0  0  0  0  0
  133.3780   70.4860  226.5480 C   0  0  0  0  0  0  0  0  0  0  0  0
  132.6870   71.5160  227.1440 C   0  0  0  0  0  0  0  0  0  0  0  0
  132.9870   72.8330  226.8630 C   0  0  0  0  0  0  0  0  0  0  0  0
  132.2700   73.8550  227.4820 C   0  0  0  0  0  0  0  0  0  0  0  0
  132.5960   75.1600  227.1810 C   0  0  0  0  0  0  0  0  0  0  0  0
  131.6780   76.4270  227.9720 Cl  0  0  0  0  0  0  0  0  0  0  0  0
  133.6100   75.4200  226.2830 C   0  0  0  0  0  0  0  0  0  0  0  0
  134.3370   74.4250  225.6560 C   0  0  0  0  0  0  0  0  0  0  0  0
  134.0010   73.1230  225.9670 C   0  0  0  0  0  0  0  0  0  0  0  0
  134.6590   72.0980  225.3990 N   0  0  0  0  0  0  0  0  0  0  0  0
  136.2770   70.9810  223.7800 H   0  0  0  0  0  0  0  0  0  0  0  0
  136.2633   67.9546  223.6460 H   0  0  0  0  0  0  0  0  0  0  0  0
  136.8667   69.0296  222.3420 H   0  0  0  0  0  0  0  0  0  0  0  0
  137.4403   71.4328  223.5072 H   0  0  0  0  0  0  0  0  0  0  0  0
  138.2892   71.9067  224.9554 H   0  0  0  0  0  0  0  0  0  0  0  0
  139.1869   71.9756  222.0660 H   0  0  0  0  0  0  0  0  0  0  0  0
  139.6546   73.0698  223.3699 H   0  0  0  0  0  0  0  0  0  0  0  0
  141.0073   70.6712  222.4225 H   0  0  0  0  0  0  0  0  0  0  0  0
  141.5645   71.7981  223.6702 H   0  0  0  0  0  0  0  0  0  0  0  0
  140.9920   69.2855  224.3646 H   0  0  0  0  0  0  0  0  0  0  0  0
  139.2126   69.2009  226.7491 H   0  0  0  0  0  0  0  0  0  0  0  0
  139.4551   70.1707  228.9803 H   0  0  0  0  0  0  0  0  0  0  0  0
  141.8910   73.2574  227.4546 H   0  0  0  0  0  0  0  0  0  0  0  0
  141.6833   72.3212  225.1767 H   0  0  0  0  0  0  0  0  0  0  0  0
  133.1369   69.4366  226.7731 H   0  0  0  0  0  0  0  0  0  0  0  0
  131.8815   71.2853  227.8567 H   0  0  0  0  0  0  0  0  0  0  0  0
  131.4632   73.6258  228.1937 H   0  0  0  0  0  0  0  0  0  0  0  0
  133.8518   76.4686  226.0548 H   0  0  0  0  0  0  0  0  0  0  0  0
  135.1429   74.6594  224.9449 H   0  0  0  0  0  0  0  0  0  0  0  0
  1  2  2  0
  2  3  1  0
  3  4  1  0
  4  5  1  0
  5  6  2  0
  5  7  1  0
  7  8  1  0
  8  9  1  0
  9 10  1  0
 10 11  1  0
 11 12  1  0
 12 13  2  0
 13 14  1  0
 14 15  2  0
 15 16  1  0
 16 17  2  0
  2 18  1  0
 18 19  2  0
 19 20  1  0
 20 21  2  0
 21 22  1  0
 22 23  2  0
 23 24  1  0
 23 25  1  0
 25 26  2  0
 26 27  1  0
 27 28  2  0
 11  7  1  0
 17 12  1  0
 28 18  1  0
 27 21  1  0
  3 29  1  0
  4 30  1  0
  4 31  1  0
  8 32  1  0
  8 33  1  0
  9 34  1  0
  9 35  1  0
 10 36  1  0
 10 37  1  0
 11 38  1  1
 13 39  1  0
 14 40  1  0
 16 41  1  0
 17 42  1  0
 19 43  1  0
 20 44  1  0
 22 45  1  0
 25 46  1  0
 26 47  1  0
M  END
>  <smiles>  (91) 
O=C(NCC(=O)N1CCCC1c1ccncc1)c1ccc2cc(Cl)ccc2n1

>  <score_type>  (91) 
oracle

>  <origin>  (91) 
autodockgpu

>  <m_score__min__energy>  (91) 
-8.5

>  <m_primary>  (91) 
energy

>  <rmsd>  (91) 
7.290709001571876

>  <m_score__min__rmsd>  (91) 
7.290709001571876

>  <meeko>  (91) 
{"free_energy": -7.84, "intermolecular_energy": -9.33, "internal_energy": -1.42, "cluster_size": 2, "cluster_id": 3, "rank_in_cluster": 2}

>  <energy>  (91) 
-7.86

>  <cluster_rmsd>  (91) 
0.24

>  <cluster>  (91) 
2

$$$$

     RDKit          3D

 47 50  0  0  0  0  0  0  0  0999 V2000
  140.4100   72.4590  220.8660 O   0  0  0  0  0  0  0  0  0  0  0  0
  140.0200   72.7860  222.0360 C   0  0  0  0  0  0  0  0  0  0  0  0
  139.5510   74.1050  222.2730 N   0  0  0  0  0  0  0  0  0  0  0  0
  139.5400   75.0230  221.1630 C   0  0  0  0  0  0  0  0  0  0  0  0
  139.4550   76.3990  221.6730 C   0  0  0  0  0  0  0  0  0  0  0  0
  138.8170   76.7440  222.7030 O   0  0  0  0  0  0  0  0  0  0  0  0
  140.1380   77.4190  220.9550 N   0  0  0  0  0  0  0  0  0  0  0  0
  139.5760   78.4490  220.0790 C   0  0  0  0  0  0  0  0  0  0  0  0
  140.5010   78.3920  218.8970 C   0  0  0  0  0  0  0  0  0  0  0  0
  141.7880   77.8430  219.4340 C   0  0  0  0  0  0  0  0  0  0  0  0
  141.5840   77.6860  220.9200 C   0  0  1  0  0  0  0  0  0  0  0  0
  141.7840   78.9140  221.6920 C   0  0  0  0  0  0  0  0  0  0  0  0
  141.9870   80.1630  221.1730 C   0  0  0  0  0  0  0  0  0  0  0  0
  142.1650   81.2610  221.9870 C   0  0  0  0  0  0  0  0  0  0  0  0
  142.1510   81.1780  223.3220 N   0  0  0  0  0  0  0  0  0  0  0  0
  141.9520   79.9520  223.8770 C   0  0  0  0  0  0  0  0  0  0  0  0
  141.7690   78.8220  223.0880 C   0  0  0  0  0  0  0  0  0  0  0  0
  140.0540   71.8020  223.1360 C   0  0  0  0  0  0  0  0  0  0  0  0
  139.5820   70.5290  222.8920 C   0  0  0  0  0  0  0  0  0  0  0  0
  139.6180   69.6180  223.9240 C   0  0  0  0  0  0  0  0  0  0  0  0
  140.1110   69.9650  225.1640 C   0  0  0  0  0  0  0  0  0  0  0  0
  140.1350   69.0220  226.1900 C   0  0  0  0  0  0  0  0  0  0  0  0
  140.6340   69.4000  227.4170 C   0  0  0  0  0  0  0  0  0  0  0  0
  140.6530   68.1940  228.6910 Cl  0  0  0  0  0  0  0  0  0  0  0  0
  141.0920   70.6880  227.6000 C   0  0  0  0  0  0  0  0  0  0  0  0
  141.0790   71.6420  226.6000 C   0  0  0  0  0  0  0  0  0  0  0  0
  140.5770   71.2510  225.3750 C   0  0  0  0  0  0  0  0  0  0  0  0
  140.5300   72.1190  224.3520 N   0  0  0  0  0  0  0  0  0  0  0  0
  139.2420   74.3480  223.2230 H   0  0  0  0  0  0  0  0  0  0  0  0
  140.4641   74.9040  220.5783 H   0  0  0  0  0  0  0  0  0  0  0  0
  138.6727   74.8137  220.5196 H   0  0  0  0  0  0  0  0  0  0  0  0
  138.5426   78.2074  219.7898 H   0  0  0  0  0  0  0  0  0  0  0  0
  139.5138   79.4430  220.5461 H   0  0  0  0  0  0  0  0  0  0  0  0
  140.0933   77.7295  218.1193 H   0  0  0  0  0  0  0  0  0  0  0  0
  140.6366   79.3796  218.4320 H   0  0  0  0  0  0  0  0  0  0  0  0
  142.0099   76.8690  218.9735 H   0  0  0  0  0  0  0  0  0  0  0  0
  142.6346   78.5090  219.2113 H   0  0  0  0  0  0  0  0  0  0  0  0
  142.2772   76.9441  221.3432 H   0  0  0  0  0  0  0  0  0  0  0  0
  142.0087   80.2943  220.0811 H   0  0  0  0  0  0  0  0  0  0  0  0
  142.3248   82.2442  221.5204 H   0  0  0  0  0  0  0  0  0  0  0  0
  141.9355   79.8527  224.9724 H   0  0  0  0  0  0  0  0  0  0  0  0
  141.6106   77.8444  223.5668 H   0  0  0  0  0  0  0  0  0  0  0  0
  139.1889   70.2501  221.9032 H   0  0  0  0  0  0  0  0  0  0  0  0
  139.2471   68.5961  223.7562 H   0  0  0  0  0  0  0  0  0  0  0  0
  139.7641   67.9998  226.0238 H   0  0  0  0  0  0  0  0  0  0  0  0
  141.4860   70.9691  228.5878 H   0  0  0  0  0  0  0  0  0  0  0  0
  141.4505   72.6630  226.7719 H   0  0  0  0  0  0  0  0  0  0  0  0
  1  2  2  0
  2  3  1  0
  3  4  1  0
  4  5  1  0
  5  6  2  0
  5  7  1  0
  7  8  1  0
  8  9  1  0
  9 10  1  0
 10 11  1  0
 11 12  1  0
 12 13  2  0
 13 14  1  0
 14 15  2  0
 15 16  1  0
 16 17  2  0
  2 18  1  0
 18 19  2  0
 19 20  1  0
 20 21  2  0
 21 22  1  0
 22 23  2  0
 23 24  1  0
 23 25  1  0
 25 26  2  0
 26 27  1  0
 27 28  2  0
 11  7  1  0
 17 12  1  0
 28 18  1  0
 27 21  1  0
  3 29  1  0
  4 30  1  0
  4 31  1  0
  8 32  1  0
  8 33  1  0
  9 34  1  0
  9 35  1  0
 10 36  1  0
 10 37  1  0
 11 38  1  1
 13 39  1  0
 14 40  1  0
 16 41  1  0
 17 42  1  0
 19 43  1  0
 20 44  1  0
 22 45  1  0
 25 46  1  0
 26 47  1  0
M  END
>  <smiles>  (92) 
O=C(NCC(=O)N1CCCC1c1ccncc1)c1ccc2cc(Cl)ccc2n1

>  <score_type>  (92) 
oracle

>  <origin>  (92) 
autodockgpu

>  <m_score__min__energy>  (92) 
-8.5

>  <m_primary>  (92) 
energy

>  <rmsd>  (92) 
2.0387489548217603

>  <m_score__min__rmsd>  (92) 
2.0387489548217603

>  <meeko>  (92) 
{"free_energy": -8.38, "intermolecular_energy": -9.87, "internal_energy": -1.42, "cluster_size": 33, "cluster_id": 1, "rank_in_cluster": 13}

>  <energy>  (92) 
-7.74

>  <cluster_rmsd>  (92) 
0.39

>  <cluster>  (92) 
2

$$$$

     RDKit          3D

 47 50  0  0  0  0  0  0  0  0999 V2000
  140.9540   72.4850  220.8040 O   0  0  0  0  0  0  0  0  0  0  0  0
  140.3490   72.8250  221.8740 C   0  0  0  0  0  0  0  0  0  0  0  0
  139.7500   74.1090  221.9610 N   0  0  0  0  0  0  0  0  0  0  0  0
  139.8580   74.9780  220.8180 C   0  0  0  0  0  0  0  0  0  0  0  0
  141.0680   75.8030  220.9500 C   0  0  0  0  0  0  0  0  0  0  0  0
  141.3470   76.5110  221.9530 O   0  0  0  0  0  0  0  0  0  0  0  0
  141.9920   75.8070  219.8690 N   0  0  0  0  0  0  0  0  0  0  0  0
  142.9320   76.8590  219.4780 C   0  0  0  0  0  0  0  0  0  0  0  0
  142.7320   76.9210  217.9910 C   0  0  0  0  0  0  0  0  0  0  0  0
  142.2210   75.5660  217.6090 C   0  0  0  0  0  0  0  0  0  0  0  0
  142.2280   74.7470  218.8770 C   0  0  1  0  0  0  0  0  0  0  0  0
  143.5280   74.1640  219.2140 C   0  0  0  0  0  0  0  0  0  0  0  0
  144.0450   74.0310  220.4730 C   0  0  0  0  0  0  0  0  0  0  0  0
  145.2840   73.4670  220.6880 C   0  0  0  0  0  0  0  0  0  0  0  0
  146.0530   73.0170  219.6890 N   0  0  0  0  0  0  0  0  0  0  0  0
  145.5730   73.1310  218.4210 C   0  0  0  0  0  0  0  0  0  0  0  0
  144.3290   73.6950  218.1670 C   0  0  0  0  0  0  0  0  0  0  0  0
  140.2700   71.8900  223.0150 C   0  0  0  0  0  0  0  0  0  0  0  0
  139.7390   70.6350  222.7990 C   0  0  0  0  0  0  0  0  0  0  0  0
  139.6700   69.7720  223.8690 C   0  0  0  0  0  0  0  0  0  0  0  0
  140.1160   70.1460  225.1190 C   0  0  0  0  0  0  0  0  0  0  0  0
  140.0330   69.2500  226.1830 C   0  0  0  0  0  0  0  0  0  0  0  0
  140.4890   69.6550  227.4180 C   0  0  0  0  0  0  0  0  0  0  0  0
  140.3730   68.5080  228.7410 Cl  0  0  0  0  0  0  0  0  0  0  0  0
  141.0100   70.9220  227.5720 C   0  0  0  0  0  0  0  0  0  0  0  0
  141.1040   71.8310  226.5330 C   0  0  0  0  0  0  0  0  0  0  0  0
  140.6440   71.4130  225.3010 C   0  0  0  0  0  0  0  0  0  0  0  0
  140.7000   72.2360  224.2400 N   0  0  0  0  0  0  0  0  0  0  0  0
  139.2680   74.3620  222.8330 H   0  0  0  0  0  0  0  0  0  0  0  0
  139.9231   74.3736  219.9012 H   0  0  0  0  0  0  0  0  0  0  0  0
  138.9721   75.6277  220.7629 H   0  0  0  0  0  0  0  0  0  0  0  0
  142.6800   77.8175  219.9553 H   0  0  0  0  0  0  0  0  0  0  0  0
  143.9713   76.6582  219.7773 H   0  0  0  0  0  0  0  0  0  0  0  0
  141.9974   77.6978  217.7322 H   0  0  0  0  0  0  0  0  0  0  0  0
  143.6614   77.1755  217.4605 H   0  0  0  0  0  0  0  0  0  0  0  0
  141.1994   75.6416  217.2083 H   0  0  0  0  0  0  0  0  0  0  0  0
  142.8439   75.1055  216.8280 H   0  0  0  0  0  0  0  0  0  0  0  0
  141.5238   73.9043  218.8140 H   0  0  0  0  0  0  0  0  0  0  0  0
  143.4581   74.3824  221.3344 H   0  0  0  0  0  0  0  0  0  0  0  0
  145.6552   73.3834  221.7201 H   0  0  0  0  0  0  0  0  0  0  0  0
  146.1824   72.7692  217.5797 H   0  0  0  0  0  0  0  0  0  0  0  0
  143.9695   73.7738  217.1304 H   0  0  0  0  0  0  0  0  0  0  0  0
  139.3821   70.3337  221.8031 H   0  0  0  0  0  0  0  0  0  0  0  0
  139.2513   68.7652  223.7243 H   0  0  0  0  0  0  0  0  0  0  0  0
  139.6133   68.2433  226.0400 H   0  0  0  0  0  0  0  0  0  0  0  0
  141.3677   71.2245  228.5673 H   0  0  0  0  0  0  0  0  0  0  0  0
  141.5244   72.8366  226.6817 H   0  0  0  0  0  0  0  0  0  0  0  0
  1  2  2  0
  2  3  1  0
  3  4  1  0
  4  5  1  0
  5  6  2  0
  5  7  1  0
  7  8  1  0
  8  9  1  0
  9 10  1  0
 10 11  1  0
 11 12  1  0
 12 13  2  0
 13 14  1  0
 14 15  2  0
 15 16  1  0
 16 17  2  0
  2 18  1  0
 18 19  2  0
 19 20  1  0
 20 21  2  0
 21 22  1  0
 22 23  2  0
 23 24  1  0
 23 25  1  0
 25 26  2  0
 26 27  1  0
 27 28  2  0
 11  7  1  0
 17 12  1  0
 28 18  1  0
 27 21  1  0
  3 29  1  0
  4 30  1  0
  4 31  1  0
  8 32  1  0
  8 33  1  0
  9 34  1  0
  9 35  1  0
 10 36  1  0
 10 37  1  0
 11 38  1  6
 13 39  1  0
 14 40  1  0
 16 41  1  0
 17 42  1  0
 19 43  1  0
 20 44  1  0
 22 45  1  0
 25 46  1  0
 26 47  1  0
M  END
>  <smiles>  (93) 
O=C(NCC(=O)N1CCCC1c1ccncc1)c1ccc2cc(Cl)ccc2n1

>  <score_type>  (93) 
oracle

>  <origin>  (93) 
autodockgpu

>  <m_score__min__energy>  (93) 
-8.5

>  <m_primary>  (93) 
energy

>  <rmsd>  (93) 
2.4376115372332237

>  <m_score__min__rmsd>  (93) 
2.4376115372332237

>  <meeko>  (93) 
{"free_energy": -8.13, "intermolecular_energy": -9.62, "internal_energy": -1.59, "cluster_size": 13, "cluster_id": 2, "rank_in_cluster": 2}

>  <energy>  (93) 
-7.7

>  <cluster_rmsd>  (93) 
1.58

>  <cluster>  (93) 
2

$$$$

     RDKit          3D

 47 50  0  0  0  0  0  0  0  0999 V2000
  138.6720   72.6580  221.3470 O   0  0  0  0  0  0  0  0  0  0  0  0
  139.6710   72.7220  222.1370 C   0  0  0  0  0  0  0  0  0  0  0  0
  140.6360   73.7500  221.9620 N   0  0  0  0  0  0  0  0  0  0  0  0
  140.4340   74.6820  220.8840 C   0  0  0  0  0  0  0  0  0  0  0  0
  139.9440   75.9560  221.4300 C   0  0  0  0  0  0  0  0  0  0  0  0
  139.1210   76.0600  222.3780 O   0  0  0  0  0  0  0  0  0  0  0  0
  140.4300   77.1600  220.8510 N   0  0  0  0  0  0  0  0  0  0  0  0
  139.6790   78.1970  220.1400 C   0  0  0  0  0  0  0  0  0  0  0  0
  140.5520   78.4510  218.9450 C   0  0  0  0  0  0  0  0  0  0  0  0
  141.9300   78.0470  219.3740 C   0  0  0  0  0  0  0  0  0  0  0  0
  141.8140   77.6580  220.8270 C   0  0  1  0  0  0  0  0  0  0  0  0
  141.8520   78.7850  221.7610 C   0  0  0  0  0  0  0  0  0  0  0  0
  141.6380   78.7160  223.1100 C   0  0  0  0  0  0  0  0  0  0  0  0
  141.6950   79.8400  223.9070 C   0  0  0  0  0  0  0  0  0  0  0  0
  141.9600   81.0570  223.4170 N   0  0  0  0  0  0  0  0  0  0  0  0
  142.1790   81.1670  222.0800 C   0  0  0  0  0  0  0  0  0  0  0  0
  142.1290   80.0560  221.2450 C   0  0  0  0  0  0  0  0  0  0  0  0
  139.8250   71.7370  223.2260 C   0  0  0  0  0  0  0  0  0  0  0  0
  139.4230   70.4370  222.9970 C   0  0  0  0  0  0  0  0  0  0  0  0
  139.5700   69.5270  224.0180 C   0  0  0  0  0  0  0  0  0  0  0  0
  140.1030   69.8990  225.2340 C   0  0  0  0  0  0  0  0  0  0  0  0
  140.2400   68.9540  226.2500 C   0  0  0  0  0  0  0  0  0  0  0  0
  140.7770   69.3570  227.4530 C   0  0  0  0  0  0  0  0  0  0  0  0
  140.9380   68.1500  228.7150 Cl  0  0  0  0  0  0  0  0  0  0  0  0
  141.1610   70.6710  227.6220 C   0  0  0  0  0  0  0  0  0  0  0  0
  141.0360   71.6280  226.6310 C   0  0  0  0  0  0  0  0  0  0  0  0
  140.4970   71.2100  225.4320 C   0  0  0  0  0  0  0  0  0  0  0  0
  140.3420   72.0790  224.4180 N   0  0  0  0  0  0  0  0  0  0  0  0
  141.4330   73.7830  222.6100 H   0  0  0  0  0  0  0  0  0  0  0  0
  141.3861   74.8489  220.3591 H   0  0  0  0  0  0  0  0  0  0  0  0
  139.6954   74.2748  220.1778 H   0  0  0  0  0  0  0  0  0  0  0  0
  138.6848   77.8350  219.8390 H   0  0  0  0  0  0  0  0  0  0  0  0
  139.4820   79.0949  220.7442 H   0  0  0  0  0  0  0  0  0  0  0  0
  140.2208   77.8445  218.0891 H   0  0  0  0  0  0  0  0  0  0  0  0
  140.5127   79.5019  218.6223 H   0  0  0  0  0  0  0  0  0  0  0  0
  142.2817   77.1931  218.7763 H   0  0  0  0  0  0  0  0  0  0  0  0
  142.6528   78.8638  219.2313 H   0  0  0  0  0  0  0  0  0  0  0  0
  142.6312   76.9861  221.1283 H   0  0  0  0  0  0  0  0  0  0  0  0
  141.4153   77.7418  223.5698 H   0  0  0  0  0  0  0  0  0  0  0  0
  141.5158   79.7322  224.9869 H   0  0  0  0  0  0  0  0  0  0  0  0
  142.4003   82.1549  221.6497 H   0  0  0  0  0  0  0  0  0  0  0  0
  142.3092   80.1777  220.1667 H   0  0  0  0  0  0  0  0  0  0  0  0
  138.9980   70.1375  222.0276 H   0  0  0  0  0  0  0  0  0  0  0  0
  139.2568   68.4842  223.8616 H   0  0  0  0  0  0  0  0  0  0  0  0
  139.9267   67.9111  226.0947 H   0  0  0  0  0  0  0  0  0  0  0  0
  141.5867   70.9721  228.5905 H   0  0  0  0  0  0  0  0  0  0  0  0
  141.3506   72.6698  226.7910 H   0  0  0  0  0  0  0  0  0  0  0  0
  1  2  2  0
  2  3  1  0
  3  4  1  0
  4  5  1  0
  5  6  2  0
  5  7  1  0
  7  8  1  0
  8  9  1  0
  9 10  1  0
 10 11  1  0
 11 12  1  0
 12 13  2  0
 13 14  1  0
 14 15  2  0
 15 16  1  0
 16 17  2  0
  2 18  1  0
 18 19  2  0
 19 20  1  0
 20 21  2  0
 21 22  1  0
 22 23  2  0
 23 24  1  0
 23 25  1  0
 25 26  2  0
 26 27  1  0
 27 28  2  0
 11  7  1  0
 17 12  1  0
 28 18  1  0
 27 21  1  0
  3 29  1  0
  4 30  1  0
  4 31  1  0
  8 32  1  0
  8 33  1  0
  9 34  1  0
  9 35  1  0
 10 36  1  0
 10 37  1  0
 11 38  1  1
 13 39  1  0
 14 40  1  0
 16 41  1  0
 17 42  1  0
 19 43  1  0
 20 44  1  0
 22 45  1  0
 25 46  1  0
 26 47  1  0
M  END
>  <smiles>  (94) 
O=C(NCC(=O)N1CCCC1c1ccncc1)c1ccc2cc(Cl)ccc2n1

>  <score_type>  (94) 
oracle

>  <origin>  (94) 
autodockgpu

>  <m_score__min__energy>  (94) 
-8.5

>  <m_primary>  (94) 
energy

>  <rmsd>  (94) 
2.0748384370912727

>  <m_score__min__rmsd>  (94) 
2.0748384370912727

>  <meeko>  (94) 
{"free_energy": -7.81, "intermolecular_energy": -9.3, "internal_energy": -1.27, "cluster_size": 33, "cluster_id": 1, "rank_in_cluster": 30}

>  <energy>  (94) 
-7.68

>  <cluster_rmsd>  (94) 
1.53

>  <cluster>  (94) 
2

$$$$

     RDKit          3D

 47 50  0  0  0  0  0  0  0  0999 V2000
  140.4170   72.4900  220.8990 O   0  0  0  0  0  0  0  0  0  0  0  0
  140.0340   72.8160  222.0710 C   0  0  0  0  0  0  0  0  0  0  0  0
  139.5720   74.1370  222.3130 N   0  0  0  0  0  0  0  0  0  0  0  0
  139.5600   75.0570  221.2050 C   0  0  0  0  0  0  0  0  0  0  0  0
  139.3360   76.4190  221.7090 C   0  0  0  0  0  0  0  0  0  0  0  0
  138.5860   76.7110  222.6780 O   0  0  0  0  0  0  0  0  0  0  0  0
  140.0100   77.4900  221.0590 N   0  0  0  0  0  0  0  0  0  0  0  0
  139.4340   78.6010  220.2990 C   0  0  0  0  0  0  0  0  0  0  0  0
  140.3140   78.6370  219.0830 C   0  0  0  0  0  0  0  0  0  0  0  0
  141.6100   78.0260  219.5200 C   0  0  0  0  0  0  0  0  0  0  0  0
  141.4580   77.7390  220.9940 C   0  0  1  0  0  0  0  0  0  0  0  0
  141.7060   78.8920  221.8630 C   0  0  0  0  0  0  0  0  0  0  0  0
  141.6960   78.8800  223.2310 C   0  0  0  0  0  0  0  0  0  0  0  0
  141.9420   80.0220  223.9620 C   0  0  0  0  0  0  0  0  0  0  0  0
  142.2030   81.2030  223.3880 N   0  0  0  0  0  0  0  0  0  0  0  0
  142.2220   81.2550  222.0290 C   0  0  0  0  0  0  0  0  0  0  0  0
  141.9780   80.1240  221.2590 C   0  0  0  0  0  0  0  0  0  0  0  0
  140.0690   71.8290  223.1700 C   0  0  0  0  0  0  0  0  0  0  0  0
  139.6050   70.5540  222.9200 C   0  0  0  0  0  0  0  0  0  0  0  0
  139.6410   69.6420  223.9500 C   0  0  0  0  0  0  0  0  0  0  0  0
  140.1250   69.9890  225.1930 C   0  0  0  0  0  0  0  0  0  0  0  0
  140.1500   69.0430  226.2170 C   0  0  0  0  0  0  0  0  0  0  0  0
  140.6410   69.4210  227.4480 C   0  0  0  0  0  0  0  0  0  0  0  0
  140.6600   68.2130  228.7190 Cl  0  0  0  0  0  0  0  0  0  0  0  0
  141.0900   70.7110  227.6360 C   0  0  0  0  0  0  0  0  0  0  0  0
  141.0770   71.6680  226.6380 C   0  0  0  0  0  0  0  0  0  0  0  0
  140.5830   71.2760  225.4100 C   0  0  0  0  0  0  0  0  0  0  0  0
  140.5360   72.1470  224.3880 N   0  0  0  0  0  0  0  0  0  0  0  0
  139.2690   74.3790  223.2650 H   0  0  0  0  0  0  0  0  0  0  0  0
  140.5258   75.0133  220.6803 H   0  0  0  0  0  0  0  0  0  0  0  0
  138.7543   74.7843  220.5075 H   0  0  0  0  0  0  0  0  0  0  0  0
  138.3869   78.3999  220.0287 H   0  0  0  0  0  0  0  0  0  0  0  0
  139.4055   79.5503  220.8540 H   0  0  0  0  0  0  0  0  0  0  0  0
  139.8674   78.0516  218.2658 H   0  0  0  0  0  0  0  0  0  0  0  0
  140.4487   79.6602  218.7023 H   0  0  0  0  0  0  0  0  0  0  0  0
  141.7992   77.0943  218.9667 H   0  0  0  0  0  0  0  0  0  0  0  0
  142.4585   78.6985  219.3257 H   0  0  0  0  0  0  0  0  0  0  0  0
  142.1532   76.9530  221.3240 H   0  0  0  0  0  0  0  0  0  0  0  0
  141.4870   77.9380  223.7591 H   0  0  0  0  0  0  0  0  0  0  0  0
  141.9232   79.9608  225.0601 H   0  0  0  0  0  0  0  0  0  0  0  0
  142.4348   82.2115  221.5293 H   0  0  0  0  0  0  0  0  0  0  0  0
  141.9990   80.1986  220.1617 H   0  0  0  0  0  0  0  0  0  0  0  0
  139.2184   70.2752  221.9286 H   0  0  0  0  0  0  0  0  0  0  0  0
  139.2772   68.6182  223.7783 H   0  0  0  0  0  0  0  0  0  0  0  0
  139.7863   68.0190  226.0463 H   0  0  0  0  0  0  0  0  0  0  0  0
  141.4768   70.9921  228.6266 H   0  0  0  0  0  0  0  0  0  0  0  0
  141.4421   72.6906  226.8138 H   0  0  0  0  0  0  0  0  0  0  0  0
  1  2  2  0
  2  3  1  0
  3  4  1  0
  4  5  1  0
  5  6  2  0
  5  7  1  0
  7  8  1  0
  8  9  1  0
  9 10  1  0
 10 11  1  0
 11 12  1  0
 12 13  2  0
 13 14  1  0
 14 15  2  0
 15 16  1  0
 16 17  2  0
  2 18  1  0
 18 19  2  0
 19 20  1  0
 20 21  2  0
 21 22  1  0
 22 23  2  0
 23 24  1  0
 23 25  1  0
 25 26  2  0
 26 27  1  0
 27 28  2  0
 11  7  1  0
 17 12  1  0
 28 18  1  0
 27 21  1  0
  3 29  1  0
  4 30  1  0
  4 31  1  0
  8 32  1  0
  8 33  1  0
  9 34  1  0
  9 35  1  0
 10 36  1  0
 10 37  1  0
 11 38  1  1
 13 39  1  0
 14 40  1  0
 16 41  1  0
 17 42  1  0
 19 43  1  0
 20 44  1  0
 22 45  1  0
 25 46  1  0
 26 47  1  0
M  END
>  <smiles>  (95) 
O=C(NCC(=O)N1CCCC1c1ccncc1)c1ccc2cc(Cl)ccc2n1

>  <score_type>  (95) 
oracle

>  <origin>  (95) 
autodockgpu

>  <m_score__min__energy>  (95) 
-8.5

>  <m_primary>  (95) 
energy

>  <rmsd>  (95) 
2.1230630374708586

>  <m_score__min__rmsd>  (95) 
2.1230630374708586

>  <meeko>  (95) 
{"free_energy": -8.35, "intermolecular_energy": -9.84, "internal_energy": -1.36, "cluster_size": 33, "cluster_id": 1, "rank_in_cluster": 15}

>  <energy>  (95) 
-7.55

>  <cluster_rmsd>  (95) 
1.5

>  <cluster>  (95) 
2

$$$$

     RDKit          3D

 47 50  0  0  0  0  0  0  0  0999 V2000
  140.9700   73.1460  221.5960 O   0  0  0  0  0  0  0  0  0  0  0  0
  139.9520   72.9250  222.3320 C   0  0  0  0  0  0  0  0  0  0  0  0
  138.7590   73.6650  222.1170 N   0  0  0  0  0  0  0  0  0  0  0  0
  138.7590   74.6440  221.0610 C   0  0  0  0  0  0  0  0  0  0  0  0
  138.7350   75.9910  221.6480 C   0  0  0  0  0  0  0  0  0  0  0  0
  137.9080   76.3800  222.5150 O   0  0  0  0  0  0  0  0  0  0  0  0
  139.7120   76.9260  221.2110 N   0  0  0  0  0  0  0  0  0  0  0  0
  139.6060   77.9210  220.1410 C   0  0  0  0  0  0  0  0  0  0  0  0
  140.9100   77.7410  219.4170 C   0  0  0  0  0  0  0  0  0  0  0  0
  141.8470   77.1690  220.4360 C   0  0  0  0  0  0  0  0  0  0  0  0
  141.0740   77.1210  221.7310 C   0  0  1  0  0  0  0  0  0  0  0  0
  141.0450   78.3880  222.4660 C   0  0  0  0  0  0  0  0  0  0  0  0
  139.9780   78.8870  223.1610 C   0  0  0  0  0  0  0  0  0  0  0  0
  140.0510   80.0940  223.8220 C   0  0  0  0  0  0  0  0  0  0  0  0
  141.1570   80.8470  223.8270 N   0  0  0  0  0  0  0  0  0  0  0  0
  142.2400   80.3850  223.1470 C   0  0  0  0  0  0  0  0  0  0  0  0
  142.2040   79.1720  222.4680 C   0  0  0  0  0  0  0  0  0  0  0  0
  140.0110   71.9080  223.4010 C   0  0  0  0  0  0  0  0  0  0  0  0
  139.5650   70.6330  223.1180 C   0  0  0  0  0  0  0  0  0  0  0  0
  139.6250   69.6920  224.1210 C   0  0  0  0  0  0  0  0  0  0  0  0
  140.1140   70.0110  225.3710 C   0  0  0  0  0  0  0  0  0  0  0  0
  140.1620   69.0360  226.3660 C   0  0  0  0  0  0  0  0  0  0  0  0
  140.6570   69.3870  227.6030 C   0  0  0  0  0  0  0  0  0  0  0  0
  140.7060   68.1430  228.8390 Cl  0  0  0  0  0  0  0  0  0  0  0  0
  141.0880   70.6780  227.8250 C   0  0  0  0  0  0  0  0  0  0  0  0
  141.0520   71.6630  226.8550 C   0  0  0  0  0  0  0  0  0  0  0  0
  140.5540   71.2990  225.6210 C   0  0  0  0  0  0  0  0  0  0  0  0
  140.4840   72.1980  224.6250 N   0  0  0  0  0  0  0  0  0  0  0  0
  137.9510   73.4710  222.7220 H   0  0  0  0  0  0  0  0  0  0  0  0
  139.6660   74.5255  220.4500 H   0  0  0  0  0  0  0  0  0  0  0  0
  137.8714   74.5023  220.4270 H   0  0  0  0  0  0  0  0  0  0  0  0
  138.7507   77.7100  219.4823 H   0  0  0  0  0  0  0  0  0  0  0  0
  139.4376   78.9459  220.5034 H   0  0  0  0  0  0  0  0  0  0  0  0
  140.7896   77.0480  218.5713 H   0  0  0  0  0  0  0  0  0  0  0  0
  141.2835   78.6877  218.9995 H   0  0  0  0  0  0  0  0  0  0  0  0
  142.1613   76.1571  220.1408 H   0  0  0  0  0  0  0  0  0  0  0  0
  142.7578   77.7781  220.5327 H   0  0  0  0  0  0  0  0  0  0  0  0
  141.4962   76.3769  222.4225 H   0  0  0  0  0  0  0  0  0  0  0  0
  139.0407   78.3121  223.1931 H   0  0  0  0  0  0  0  0  0  0  0  0
  139.1652   80.4525  224.3669 H   0  0  0  0  0  0  0  0  0  0  0  0
  143.1633   80.9828  223.1337 H   0  0  0  0  0  0  0  0  0  0  0  0
  143.0964   78.8250  221.9265 H   0  0  0  0  0  0  0  0  0  0  0  0
  139.1739   70.3767  222.1223 H   0  0  0  0  0  0  0  0  0  0  0  0
  139.2769   68.6676  223.9223 H   0  0  0  0  0  0  0  0  0  0  0  0
  139.8133   68.0116  226.1685 H   0  0  0  0  0  0  0  0  0  0  0  0
  141.4787   70.9364  228.8203 H   0  0  0  0  0  0  0  0  0  0  0  0
  141.4029   72.6857  227.0573 H   0  0  0  0  0  0  0  0  0  0  0  0
  1  2  2  0
  2  3  1  0
  3  4  1  0
  4  5  1  0
  5  6  2  0
  5  7  1  0
  7  8  1  0
  8  9  1  0
  9 10  1  0
 10 11  1  0
 11 12  1  0
 12 13  2  0
 13 14  1  0
 14 15  2  0
 15 16  1  0
 16 17  2  0
  2 18  1  0
 18 19  2  0
 19 20  1  0
 20 21  2  0
 21 22  1  0
 22 23  2  0
 23 24  1  0
 23 25  1  0
 25 26  2  0
 26 27  1  0
 27 28  2  0
 11  7  1  0
 17 12  1  0
 28 18  1  0
 27 21  1  0
  3 29  1  0
  4 30  1  0
  4 31  1  0
  8 32  1  0
  8 33  1  0
  9 34  1  0
  9 35  1  0
 10 36  1  0
 10 37  1  0
 11 38  1  1
 13 39  1  0
 14 40  1  0
 16 41  1  0
 17 42  1  0
 19 43  1  0
 20 44  1  0
 22 45  1  0
 25 46  1  0
 26 47  1  0
M  END
>  <smiles>  (96) 
O=C(NCC(=O)N1CCCC1c1ccncc1)c1ccc2cc(Cl)ccc2n1

>  <score_type>  (96) 
oracle

>  <origin>  (96) 
autodockgpu

>  <m_score__min__energy>  (96) 
-8.5

>  <m_primary>  (96) 
energy

>  <rmsd>  (96) 
2.0254508077736277

>  <m_score__min__rmsd>  (96) 
2.0254508077736277

>  <meeko>  (96) 
{"free_energy": -8.44, "intermolecular_energy": -9.94, "internal_energy": -1.32, "cluster_size": 33, "cluster_id": 1, "rank_in_cluster": 6}

>  <energy>  (96) 
-7.53

>  <cluster_rmsd>  (96) 
1.17

>  <cluster>  (96) 
2

$$$$

     RDKit          3D

 47 50  0  0  0  0  0  0  0  0999 V2000
  140.5880   72.4780  220.8870 O   0  0  0  0  0  0  0  0  0  0  0  0
  140.0310   72.7640  221.9980 C   0  0  0  0  0  0  0  0  0  0  0  0
  139.3870   74.0190  222.1550 N   0  0  0  0  0  0  0  0  0  0  0  0
  139.3940   74.9210  221.0320 C   0  0  0  0  0  0  0  0  0  0  0  0
  140.6840   75.6230  220.9840 C   0  0  0  0  0  0  0  0  0  0  0  0
  141.8060   75.0740  221.1410 O   0  0  0  0  0  0  0  0  0  0  0  0
  140.6720   77.0250  220.7430 N   0  0  0  0  0  0  0  0  0  0  0  0
  139.5170   77.9090  220.5710 C   0  0  0  0  0  0  0  0  0  0  0  0
  139.9220   78.7220  219.3750 C   0  0  0  0  0  0  0  0  0  0  0  0
  141.4200   78.6880  219.3680 C   0  0  0  0  0  0  0  0  0  0  0  0
  141.8240   77.9300  220.6080 C   0  0  1  0  0  0  0  0  0  0  0  0
  141.8460   78.7360  221.8310 C   0  0  0  0  0  0  0  0  0  0  0  0
  141.5660   78.2870  223.0920 C   0  0  0  0  0  0  0  0  0  0  0  0
  141.6140   79.1280  224.1830 C   0  0  0  0  0  0  0  0  0  0  0  0
  141.9350   80.4230  224.0800 N   0  0  0  0  0  0  0  0  0  0  0  0
  142.2210   80.9070  222.8410 C   0  0  0  0  0  0  0  0  0  0  0  0
  142.1820   80.0890  221.7180 C   0  0  0  0  0  0  0  0  0  0  0  0
  140.0560   71.7970  223.1150 C   0  0  0  0  0  0  0  0  0  0  0  0
  139.5660   70.5270  222.8940 C   0  0  0  0  0  0  0  0  0  0  0  0
  139.5930   69.6340  223.9410 C   0  0  0  0  0  0  0  0  0  0  0  0
  140.0940   69.9950  225.1740 C   0  0  0  0  0  0  0  0  0  0  0  0
  140.1080   69.0690  226.2160 C   0  0  0  0  0  0  0  0  0  0  0  0
  140.6160   69.4610  227.4350 C   0  0  0  0  0  0  0  0  0  0  0  0
  140.6220   68.2770  228.7290 Cl  0  0  0  0  0  0  0  0  0  0  0  0
  141.0920   70.7460  227.5940 C   0  0  0  0  0  0  0  0  0  0  0  0
  141.0890   71.6830  226.5780 C   0  0  0  0  0  0  0  0  0  0  0  0
  140.5780   71.2780  225.3620 C   0  0  0  0  0  0  0  0  0  0  0  0
  140.5400   72.1290  224.3240 N   0  0  0  0  0  0  0  0  0  0  0  0
  138.9450   74.2290  223.0590 H   0  0  0  0  0  0  0  0  0  0  0  0
  139.2502   74.3516  220.1019 H   0  0  0  0  0  0  0  0  0  0  0  0
  138.5793   75.6521  221.1402 H   0  0  0  0  0  0  0  0  0  0  0  0
  138.6002   77.3347  220.3721 H   0  0  0  0  0  0  0  0  0  0  0  0
  139.2845   78.5133  221.4602 H   0  0  0  0  0  0  0  0  0  0  0  0
  139.5214   78.2771  218.4522 H   0  0  0  0  0  0  0  0  0  0  0  0
  139.5336   79.7499  219.4251 H   0  0  0  0  0  0  0  0  0  0  0  0
  141.7865   78.1722  218.4682 H   0  0  0  0  0  0  0  0  0  0  0  0
  141.8462   79.7020  219.3587 H   0  0  0  0  0  0  0  0  0  0  0  0
  142.8330   77.5038  220.5061 H   0  0  0  0  0  0  0  0  0  0  0  0
  141.2963   77.2307  223.2390 H   0  0  0  0  0  0  0  0  0  0  0  0
  141.3794   78.7188  225.1767 H   0  0  0  0  0  0  0  0  0  0  0  0
  142.4886   81.9677  222.7257 H   0  0  0  0  0  0  0  0  0  0  0  0
  142.4180   80.5103  220.7296 H   0  0  0  0  0  0  0  0  0  0  0  0
  139.1659   70.2367  221.9113 H   0  0  0  0  0  0  0  0  0  0  0  0
  139.2082   68.6144  223.7916 H   0  0  0  0  0  0  0  0  0  0  0  0
  139.7225   68.0494  226.0683 H   0  0  0  0  0  0  0  0  0  0  0  0
  141.4928   71.0387  228.5757 H   0  0  0  0  0  0  0  0  0  0  0  0
  141.4750   72.7016  226.7313 H   0  0  0  0  0  0  0  0  0  0  0  0
  1  2  2  0
  2  3  1  0
  3  4  1  0
  4  5  1  0
  5  6  2  0
  5  7  1  0
  7  8  1  0
  8  9  1  0
  9 10  1  0
 10 11  1  0
 11 12  1  0
 12 13  2  0
 13 14  1  0
 14 15  2  0
 15 16  1  0
 16 17  2  0
  2 18  1  0
 18 19  2  0
 19 20  1  0
 20 21  2  0
 21 22  1  0
 22 23  2  0
 23 24  1  0
 23 25  1  0
 25 26  2  0
 26 27  1  0
 27 28  2  0
 11  7  1  0
 17 12  1  0
 28 18  1  0
 27 21  1  0
  3 29  1  0
  4 30  1  0
  4 31  1  0
  8 32  1  0
  8 33  1  0
  9 34  1  0
  9 35  1  0
 10 36  1  0
 10 37  1  0
 11 38  1  6
 13 39  1  0
 14 40  1  0
 16 41  1  0
 17 42  1  0
 19 43  1  0
 20 44  1  0
 22 45  1  0
 25 46  1  0
 26 47  1  0
M  END
>  <smiles>  (97) 
O=C(NCC(=O)N1CCCC1c1ccncc1)c1ccc2cc(Cl)ccc2n1

>  <score_type>  (97) 
oracle

>  <origin>  (97) 
autodockgpu

>  <m_score__min__energy>  (97) 
-8.5

>  <m_primary>  (97) 
energy

>  <rmsd>  (97) 
1.9700678532550375

>  <m_score__min__rmsd>  (97) 
1.9700678532550375

>  <meeko>  (97) 
{"free_energy": -8.47, "intermolecular_energy": -9.96, "internal_energy": -1.22, "cluster_size": 33, "cluster_id": 1, "rank_in_cluster": 3}

>  <energy>  (97) 
-7.9

>  <cluster_rmsd>  (97) 
0.0

>  <cluster>  (97) 
3

$$$$

     RDKit          3D

 47 50  0  0  0  0  0  0  0  0999 V2000
  140.9840   73.2040  221.6410 O   0  0  0  0  0  0  0  0  0  0  0  0
  139.9620   72.9390  222.3580 C   0  0  0  0  0  0  0  0  0  0  0  0
  138.7460   73.6350  222.1260 N   0  0  0  0  0  0  0  0  0  0  0  0
  138.7270   74.6200  221.0760 C   0  0  0  0  0  0  0  0  0  0  0  0
  138.9100   75.9560  221.6620 C   0  0  0  0  0  0  0  0  0  0  0  0
  138.3790   76.3470  222.7350 O   0  0  0  0  0  0  0  0  0  0  0  0
  139.7450   76.8780  220.9730 N   0  0  0  0  0  0  0  0  0  0  0  0
  139.3590   77.9200  220.0200 C   0  0  0  0  0  0  0  0  0  0  0  0
  140.3660   77.7290  218.9220 C   0  0  0  0  0  0  0  0  0  0  0  0
  141.5460   77.0840  219.5830 C   0  0  0  0  0  0  0  0  0  0  0  0
  141.2090   77.0060  221.0510 C   0  0  1  0  0  0  0  0  0  0  0  0
  141.4630   78.2400  221.7970 C   0  0  0  0  0  0  0  0  0  0  0  0
  141.8960   79.4230  221.2650 C   0  0  0  0  0  0  0  0  0  0  0  0
  142.1070   80.5330  222.0550 C   0  0  0  0  0  0  0  0  0  0  0  0
  141.9060   80.5240  223.3780 N   0  0  0  0  0  0  0  0  0  0  0  0
  141.4750   79.3660  223.9450 C   0  0  0  0  0  0  0  0  0  0  0  0
  141.2520   78.2260  223.1810 C   0  0  0  0  0  0  0  0  0  0  0  0
  140.0420   71.9170  223.4210 C   0  0  0  0  0  0  0  0  0  0  0  0
  139.6250   70.6350  223.1310 C   0  0  0  0  0  0  0  0  0  0  0  0
  139.7030   69.6900  224.1280 C   0  0  0  0  0  0  0  0  0  0  0  0
  140.1820   70.0120  225.3800 C   0  0  0  0  0  0  0  0  0  0  0  0
  140.2500   69.0330  226.3710 C   0  0  0  0  0  0  0  0  0  0  0  0
  140.7340   69.3870  227.6110 C   0  0  0  0  0  0  0  0  0  0  0  0
  140.8080   68.1380  228.8390 Cl  0  0  0  0  0  0  0  0  0  0  0  0
  141.1360   70.6860  227.8410 C   0  0  0  0  0  0  0  0  0  0  0  0
  141.0800   71.6760  226.8760 C   0  0  0  0  0  0  0  0  0  0  0  0
  140.5930   71.3080  225.6390 C   0  0  0  0  0  0  0  0  0  0  0  0
  140.5060   72.2110  224.6470 N   0  0  0  0  0  0  0  0  0  0  0  0
  137.9360   73.4070  222.7160 H   0  0  0  0  0  0  0  0  0  0  0  0
  139.5412   74.4155  220.3652 H   0  0  0  0  0  0  0  0  0  0  0  0
  137.7633   74.5776  220.5473 H   0  0  0  0  0  0  0  0  0  0  0  0
  138.3336   77.7657  219.6529 H   0  0  0  0  0  0  0  0  0  0  0  0
  139.3570   78.9333  220.4481 H   0  0  0  0  0  0  0  0  0  0  0  0
  139.9600   77.0768  218.1347 H   0  0  0  0  0  0  0  0  0  0  0  0
  140.6334   78.6798  218.4378 H   0  0  0  0  0  0  0  0  0  0  0  0
  141.7093   76.0759  219.1742 H   0  0  0  0  0  0  0  0  0  0  0  0
  142.4680   77.6588  219.4113 H   0  0  0  0  0  0  0  0  0  0  0  0
  141.7910   76.2198  221.5541 H   0  0  0  0  0  0  0  0  0  0  0  0
  142.0801   79.4905  220.1826 H   0  0  0  0  0  0  0  0  0  0  0  0
  142.4540   81.4621  221.5793 H   0  0  0  0  0  0  0  0  0  0  0  0
  141.2991   79.3302  225.0303 H   0  0  0  0  0  0  0  0  0  0  0  0
  140.9060   77.3030  223.6692 H   0  0  0  0  0  0  0  0  0  0  0  0
  139.2417   70.3758  222.1331 H   0  0  0  0  0  0  0  0  0  0  0  0
  139.3775   68.6596  223.9225 H   0  0  0  0  0  0  0  0  0  0  0  0
  139.9247   68.0022  226.1671 H   0  0  0  0  0  0  0  0  0  0  0  0
  141.5192   70.9473  228.8385 H   0  0  0  0  0  0  0  0  0  0  0  0
  141.4075   72.7051  227.0848 H   0  0  0  0  0  0  0  0  0  0  0  0
  1  2  2  0
  2  3  1  0
  3  4  1  0
  4  5  1  0
  5  6  2  0
  5  7  1  0
  7  8  1  0
  8  9  1  0
  9 10  1  0
 10 11  1  0
 11 12  1  0
 12 13  2  0
 13 14  1  0
 14 15  2  0
 15 16  1  0
 16 17  2  0
  2 18  1  0
 18 19  2  0
 19 20  1  0
 20 21  2  0
 21 22  1  0
 22 23  2  0
 23 24  1  0
 23 25  1  0
 25 26  2  0
 26 27  1  0
 27 28  2  0
 11  7  1  0
 17 12  1  0
 28 18  1  0
 27 21  1  0
  3 29  1  0
  4 30  1  0
  4 31  1  0
  8 32  1  0
  8 33  1  0
  9 34  1  0
  9 35  1  0
 10 36  1  0
 10 37  1  0
 11 38  1  1
 13 39  1  0
 14 40  1  0
 16 41  1  0
 17 42  1  0
 19 43  1  0
 20 44  1  0
 22 45  1  0
 25 46  1  0
 26 47  1  0
M  END
>  <smiles>  (98) 
O=C(NCC(=O)N1CCCC1c1ccncc1)c1ccc2cc(Cl)ccc2n1

>  <score_type>  (98) 
oracle

>  <origin>  (98) 
autodockgpu

>  <m_score__min__energy>  (98) 
-8.5

>  <m_primary>  (98) 
energy

>  <rmsd>  (98) 
1.8440595636679749

>  <m_score__min__rmsd>  (98) 
1.8440595636679749

>  <meeko>  (98) 
{"free_energy": -8.21, "intermolecular_energy": -9.7, "internal_energy": -1.3, "cluster_size": 33, "cluster_id": 1, "rank_in_cluster": 27}

>  <energy>  (98) 
-7.84

>  <cluster_rmsd>  (98) 
0.12

>  <cluster>  (98) 
3

$$$$

     RDKit          3D

 47 50  0  0  0  0  0  0  0  0999 V2000
  140.9110   73.4060  221.9420 O   0  0  0  0  0  0  0  0  0  0  0  0
  139.8940   72.9870  222.5880 C   0  0  0  0  0  0  0  0  0  0  0  0
  138.6110   73.5220  222.2970 N   0  0  0  0  0  0  0  0  0  0  0  0
  138.5210   74.5270  221.2700 C   0  0  0  0  0  0  0  0  0  0  0  0
  138.7020   75.8550  221.8750 C   0  0  0  0  0  0  0  0  0  0  0  0
  138.0410   76.2930  222.8530 O   0  0  0  0  0  0  0  0  0  0  0  0
  139.6910   76.7110  221.3190 N   0  0  0  0  0  0  0  0  0  0  0  0
  139.5870   77.5860  220.1490 C   0  0  0  0  0  0  0  0  0  0  0  0
  140.8690   77.2940  219.4240 C   0  0  0  0  0  0  0  0  0  0  0  0
  141.8140   76.8120  220.4820 C   0  0  0  0  0  0  0  0  0  0  0  0
  141.0690   76.9260  221.7890 C   0  0  1  0  0  0  0  0  0  0  0  0
  141.0860   78.2660  222.3810 C   0  0  0  0  0  0  0  0  0  0  0  0
  140.0930   78.8190  223.1400 C   0  0  0  0  0  0  0  0  0  0  0  0
  140.2050   80.0930  223.6540 C   0  0  0  0  0  0  0  0  0  0  0  0
  141.2800   80.8620  223.4460 N   0  0  0  0  0  0  0  0  0  0  0  0
  142.2900   80.3470  222.6950 C   0  0  0  0  0  0  0  0  0  0  0  0
  142.2130   79.0660  222.1600 C   0  0  0  0  0  0  0  0  0  0  0  0
  140.0470   71.9530  223.6320 C   0  0  0  0  0  0  0  0  0  0  0  0
  139.7610   70.6440  223.3050 C   0  0  0  0  0  0  0  0  0  0  0  0
  139.9070   69.6880  224.2840 C   0  0  0  0  0  0  0  0  0  0  0  0
  140.3260   70.0250  225.5540 C   0  0  0  0  0  0  0  0  0  0  0  0
  140.4650   69.0350  226.5250 C   0  0  0  0  0  0  0  0  0  0  0  0
  140.8860   69.4050  227.7830 C   0  0  0  0  0  0  0  0  0  0  0  0
  141.0520   68.1400  228.9870 Cl  0  0  0  0  0  0  0  0  0  0  0  0
  141.1570   70.7310  228.0500 C   0  0  0  0  0  0  0  0  0  0  0  0
  141.0280   71.7320  227.1050 C   0  0  0  0  0  0  0  0  0  0  0  0
  140.6050   71.3480  225.8490 C   0  0  0  0  0  0  0  0  0  0  0  0
  140.4540   72.2610  224.8750 N   0  0  0  0  0  0  0  0  0  0  0  0
  137.8060   73.1710  222.8300 H   0  0  0  0  0  0  0  0  0  0  0  0
  139.3051   74.3555  220.5179 H   0  0  0  0  0  0  0  0  0  0  0  0
  137.5347   74.4730  220.7859 H   0  0  0  0  0  0  0  0  0  0  0  0
  138.7125   77.3279  219.5337 H   0  0  0  0  0  0  0  0  0  0  0  0
  139.4527   78.6483  220.4009 H   0  0  0  0  0  0  0  0  0  0  0  0
  140.7132   76.5163  218.6618 H   0  0  0  0  0  0  0  0  0  0  0  0
  141.2559   78.1790  218.8977 H   0  0  0  0  0  0  0  0  0  0  0  0
  142.0972   75.7659  220.2936 H   0  0  0  0  0  0  0  0  0  0  0  0
  142.7410   77.4040  220.4939 H   0  0  0  0  0  0  0  0  0  0  0  0
  141.4885   76.2514  222.5499 H   0  0  0  0  0  0  0  0  0  0  0  0
  139.1841   78.2343  223.3452 H   0  0  0  0  0  0  0  0  0  0  0  0
  139.3781   80.4933  224.2590 H   0  0  0  0  0  0  0  0  0  0  0  0
  143.1863   80.9564  222.5070 H   0  0  0  0  0  0  0  0  0  0  0  0
  143.0466   78.6772  221.5567 H   0  0  0  0  0  0  0  0  0  0  0  0
  139.4265   70.3725  222.2928 H   0  0  0  0  0  0  0  0  0  0  0  0
  139.6856   68.6364  224.0495 H   0  0  0  0  0  0  0  0  0  0  0  0
  140.2437   67.9830  226.2921 H   0  0  0  0  0  0  0  0  0  0  0  0
  141.4912   71.0047  229.0616 H   0  0  0  0  0  0  0  0  0  0  0  0
  141.2515   72.7825  227.3427 H   0  0  0  0  0  0  0  0  0  0  0  0
  1  2  2  0
  2  3  1  0
  3  4  1  0
  4  5  1  0
  5  6  2  0
  5  7  1  0
  7  8  1  0
  8  9  1  0
  9 10  1  0
 10 11  1  0
 11 12  1  0
 12 13  2  0
 13 14  1  0
 14 15  2  0
 15 16  1  0
 16 17  2  0
  2 18  1  0
 18 19  2  0
 19 20  1  0
 20 21  2  0
 21 22  1  0
 22 23  2  0
 23 24  1  0
 23 25  1  0
 25 26  2  0
 26 27  1  0
 27 28  2  0
 11  7  1  0
 17 12  1  0
 28 18  1  0
 27 21  1  0
  3 29  1  0
  4 30  1  0
  4 31  1  0
  8 32  1  0
  8 33  1  0
  9 34  1  0
  9 35  1  0
 10 36  1  0
 10 37  1  0
 11 38  1  1
 13 39  1  0
 14 40  1  0
 16 41  1  0
 17 42  1  0
 19 43  1  0
 20 44  1  0
 22 45  1  0
 25 46  1  0
 26 47  1  0
M  END
>  <smiles>  (99) 
O=C(NCC(=O)N1CCCC1c1ccncc1)c1ccc2cc(Cl)ccc2n1

>  <score_type>  (99) 
oracle

>  <origin>  (99) 
autodockgpu

>  <m_score__min__energy>  (99) 
-8.5

>  <m_primary>  (99) 
energy

>  <rmsd>  (99) 
1.993730338918175

>  <m_score__min__rmsd>  (99) 
1.993730338918175

>  <meeko>  (99) 
{"free_energy": -8.25, "intermolecular_energy": -9.75, "internal_energy": -1.37, "cluster_size": 33, "cluster_id": 1, "rank_in_cluster": 24}

>  <energy>  (99) 
-7.34

>  <cluster_rmsd>  (99) 
0.0

>  <cluster>  (99) 
4

$$$$

     RDKit          3D

 47 50  0  0  0  0  0  0  0  0999 V2000
  141.0870   72.5320  220.8870 O   0  0  0  0  0  0  0  0  0  0  0  0
  140.3550   72.8270  221.8890 C   0  0  0  0  0  0  0  0  0  0  0  0
  139.6500   74.0600  221.9010 N   0  0  0  0  0  0  0  0  0  0  0  0
  139.7990   74.9290  220.7630 C   0  0  0  0  0  0  0  0  0  0  0  0
  140.9960   75.7630  220.9440 C   0  0  0  0  0  0  0  0  0  0  0  0
  141.2420   76.4510  221.9700 O   0  0  0  0  0  0  0  0  0  0  0  0
  141.9490   75.8000  219.8890 N   0  0  0  0  0  0  0  0  0  0  0  0
  142.9160   76.8520  219.5710 C   0  0  0  0  0  0  0  0  0  0  0  0
  142.7560   76.9850  218.0840 C   0  0  0  0  0  0  0  0  0  0  0  0
  142.2330   75.6580  217.6270 C   0  0  0  0  0  0  0  0  0  0  0  0
  142.1930   74.7820  218.8550 C   0  0  1  0  0  0  0  0  0  0  0  0
  143.4740   74.1620  219.1980 C   0  0  0  0  0  0  0  0  0  0  0  0
  143.9800   74.0120  220.4600 C   0  0  0  0  0  0  0  0  0  0  0  0
  145.2010   73.4110  220.6800 C   0  0  0  0  0  0  0  0  0  0  0  0
  145.9630   72.9420  219.6850 N   0  0  0  0  0  0  0  0  0  0  0  0
  145.4940   73.0730  218.4150 C   0  0  0  0  0  0  0  0  0  0  0  0
  144.2680   73.6730  218.1540 C   0  0  0  0  0  0  0  0  0  0  0  0
  140.2410   71.8950  223.0290 C   0  0  0  0  0  0  0  0  0  0  0  0
  139.6550   70.6650  222.8130 C   0  0  0  0  0  0  0  0  0  0  0  0
  139.5520   69.8030  223.8820 C   0  0  0  0  0  0  0  0  0  0  0  0
  140.0200   70.1560  225.1300 C   0  0  0  0  0  0  0  0  0  0  0  0
  139.9020   69.2620  226.1940 C   0  0  0  0  0  0  0  0  0  0  0  0
  140.3800   69.6450  227.4280 C   0  0  0  0  0  0  0  0  0  0  0  0
  140.2190   68.5030  228.7490 Cl  0  0  0  0  0  0  0  0  0  0  0  0
  140.9550   70.8890  227.5810 C   0  0  0  0  0  0  0  0  0  0  0  0
  141.0840   71.7940  226.5430 C   0  0  0  0  0  0  0  0  0  0  0  0
  140.6020   71.3980  225.3120 C   0  0  0  0  0  0  0  0  0  0  0  0
  140.6890   72.2200  224.2530 N   0  0  0  0  0  0  0  0  0  0  0  0
  139.0670   74.2770  222.7190 H   0  0  0  0  0  0  0  0  0  0  0  0
  139.9065   74.3245  219.8503 H   0  0  0  0  0  0  0  0  0  0  0  0
  138.9114   75.5722  220.6709 H   0  0  0  0  0  0  0  0  0  0  0  0
  142.6673   77.7920  220.0853 H   0  0  0  0  0  0  0  0  0  0  0  0
  143.9437   76.6197  219.8872 H   0  0  0  0  0  0  0  0  0  0  0  0
  142.0412   77.7856  217.8427 H   0  0  0  0  0  0  0  0  0  0  0  0
  143.7031   77.2469  217.5896 H   0  0  0  0  0  0  0  0  0  0  0  0
  141.2237   75.7699  217.2042 H   0  0  0  0  0  0  0  0  0  0  0  0
  142.8688   75.2228  216.8419 H   0  0  0  0  0  0  0  0  0  0  0  0
  141.4768   73.9557  218.7350 H   0  0  0  0  0  0  0  0  0  0  0  0
  143.3993   74.3793  221.3190 H   0  0  0  0  0  0  0  0  0  0  0  0
  145.5631   73.3131  221.7141 H   0  0  0  0  0  0  0  0  0  0  0  0
  146.0981   72.6960  217.5766 H   0  0  0  0  0  0  0  0  0  0  0  0
  143.9176   73.7647  217.1154 H   0  0  0  0  0  0  0  0  0  0  0  0
  139.2816   70.3816  221.8179 H   0  0  0  0  0  0  0  0  0  0  0  0
  139.0884   68.8159  223.7378 H   0  0  0  0  0  0  0  0  0  0  0  0
  139.4383   68.2747  226.0513 H   0  0  0  0  0  0  0  0  0  0  0  0
  141.3286   71.1750  228.5753 H   0  0  0  0  0  0  0  0  0  0  0  0
  141.5477   72.7804  226.6913 H   0  0  0  0  0  0  0  0  0  0  0  0
  1  2  2  0
  2  3  1  0
  3  4  1  0
  4  5  1  0
  5  6  2  0
  5  7  1  0
  7  8  1  0
  8  9  1  0
  9 10  1  0
 10 11  1  0
 11 12  1  0
 12 13  2  0
 13 14  1  0
 14 15  2  0
 15 16  1  0
 16 17  2  0
  2 18  1  0
 18 19  2  0
 19 20  1  0
 20 21  2  0
 21 22  1  0
 22 23  2  0
 23 24  1  0
 23 25  1  0
 25 26  2  0
 26 27  1  0
 27 28  2  0
 11  7  1  0
 17 12  1  0
 28 18  1  0
 27 21  1  0
  3 29  1  0
  4 30  1  0
  4 31  1  0
  8 32  1  0
  8 33  1  0
  9 34  1  0
  9 35  1  0
 10 36  1  0
 10 37  1  0
 11 38  1  6
 13 39  1  0
 14 40  1  0
 16 41  1  0
 17 42  1  0
 19 43  1  0
 20 44  1  0
 22 45  1  0
 25 46  1  0
 26 47  1  0
M  END
>  <smiles>  (100) 
O=C(NCC(=O)N1CCCC1c1ccncc1)c1ccc2cc(Cl)ccc2n1

>  <score_type>  (100) 
oracle

>  <origin>  (100) 
autodockgpu

>  <m_score__min__energy>  (100) 
-8.5

>  <m_primary>  (100) 
energy

>  <rmsd>  (100) 
2.423171337118281

>  <m_score__min__rmsd>  (100) 
2.423171337118281

>  <meeko>  (100) 
{"free_energy": -8.12, "intermolecular_energy": -9.61, "internal_energy": -1.56, "cluster_size": 13, "cluster_id": 2, "rank_in_cluster": 3}

>  <energy>  (100) 
-7.3

>  <cluster_rmsd>  (100) 
0.0

>  <cluster>  (100) 
5

$$$$
