
     RDKit          3D

 51 54  0  0  0  0  0  0  0  0999 V2000
  141.4220   72.0500  221.7480 O   0  0  0  0  0  0  0  0  0  0  0  0
  140.4570   72.2650  222.5420 C   0  0  0  0  0  0  0  0  0  0  0  0
  139.5430   73.3120  222.1720 N   0  0  0  0  0  0  0  0  0  0  0  0
  139.8210   74.0050  220.9410 C   0  0  0  0  0  0  0  0  0  0  0  0
  140.5630   75.2760  221.1580 C   0  0  0  0  0  0  0  0  0  0  0  0
  141.8230   75.3430  221.1740 O   0  0  0  0  0  0  0  0  0  0  0  0
  139.8110   76.4560  221.3540 N   0  0  0  0  0  0  0  0  0  0  0  0
  139.3700   77.3200  220.2700 C   0  0  0  0  0  0  0  0  0  0  0  0
  137.8560   77.2910  220.2570 C   0  0  0  0  0  0  0  0  0  0  0  0
  137.2420   77.5190  221.5990 C   0  0  0  0  0  0  0  0  0  0  0  0
  137.9210   76.8320  222.7380 C   0  0  0  0  0  0  0  0  0  0  0  0
  139.4220   76.8850  222.7030 C   0  0  2  0  0  0  0  0  0  0  0  0
  139.9870   78.2140  222.9520 C   0  0  0  0  0  0  0  0  0  0  0  0
  139.2570   79.3430  223.2420 C   0  0  0  0  0  0  0  0  0  0  0  0
  139.8280   80.5800  223.4720 C   0  0  0  0  0  0  0  0  0  0  0  0
  139.0320   81.6380  223.7480 F   0  0  0  0  0  0  0  0  0  0  0  0
  141.1980   80.6680  223.4040 C   0  0  0  0  0  0  0  0  0  0  0  0
  141.9910   79.5700  223.1180 C   0  0  0  0  0  0  0  0  0  0  0  0
  143.3140   79.7470  223.0730 F   0  0  0  0  0  0  0  0  0  0  0  0
  141.3610   78.3570  222.8980 C   0  0  0  0  0  0  0  0  0  0  0  0
  140.2620   71.5040  223.7700 C   0  0  0  0  0  0  0  0  0  0  0  0
  139.5240   70.3400  223.6820 C   0  0  0  0  0  0  0  0  0  0  0  0
  139.2730   69.5370  224.7700 C   0  0  0  0  0  0  0  0  0  0  0  0
  139.8020   69.9520  225.9820 C   0  0  0  0  0  0  0  0  0  0  0  0
  139.5490   69.1470  227.0700 C   0  0  0  0  0  0  0  0  0  0  0  0
  140.0680   69.5440  228.2950 C   0  0  0  0  0  0  0  0  0  0  0  0
  140.8030   70.7090  228.3660 C   0  0  0  0  0  0  0  0  0  0  0  0
  141.0560   71.5150  227.2760 C   0  0  0  0  0  0  0  0  0  0  0  0
  140.5370   71.1180  226.0510 C   0  0  0  0  0  0  0  0  0  0  0  0
  140.7720   71.8960  224.9620 N   0  0  0  0  0  0  0  0  0  0  0  0
  138.7360   73.5320  222.7840 H   0  0  0  0  0  0  0  0  0  0  0  0
  140.4247   73.3498  220.2958 H   0  0  0  0  0  0  0  0  0  0  0  0
  138.8574   74.2560  220.4737 H   0  0  0  0  0  0  0  0  0  0  0  0
  139.7252   78.3472  220.4394 H   0  0  0  0  0  0  0  0  0  0  0  0
  139.7739   76.9733  219.3074 H   0  0  0  0  0  0  0  0  0  0  0  0
  137.4990   78.0755  219.5735 H   0  0  0  0  0  0  0  0  0  0  0  0
  137.5555   76.2841  219.9317 H   0  0  0  0  0  0  0  0  0  0  0  0
  137.2544   78.6006  221.7988 H   0  0  0  0  0  0  0  0  0  0  0  0
  136.2299   77.0913  221.5464 H   0  0  0  0  0  0  0  0  0  0  0  0
  137.5839   77.3046  223.6724 H   0  0  0  0  0  0  0  0  0  0  0  0
  137.6475   75.7690  222.6651 H   0  0  0  0  0  0  0  0  0  0  0  0
  139.8086   76.2424  223.5078 H   0  0  0  0  0  0  0  0  0  0  0  0
  138.1616   79.2567  223.2935 H   0  0  0  0  0  0  0  0  0  0  0  0
  141.6791   81.6410  223.5824 H   0  0  0  0  0  0  0  0  0  0  0  0
  141.9767   77.4740  222.6718 H   0  0  0  0  0  0  0  0  0  0  0  0
  139.1208   70.0432  222.7025 H   0  0  0  0  0  0  0  0  0  0  0  0
  138.6827   68.6129  224.6828 H   0  0  0  0  0  0  0  0  0  0  0  0
  138.9581   68.2243  226.9724 H   0  0  0  0  0  0  0  0  0  0  0  0
  139.8954   68.9378  229.1965 H   0  0  0  0  0  0  0  0  0  0  0  0
  141.2085   71.0109  229.3430 H   0  0  0  0  0  0  0  0  0  0  0  0
  141.6468   72.4378  227.3734 H   0  0  0  0  0  0  0  0  0  0  0  0
  1  2  2  0
  2  3  1  0
  3  4  1  0
  4  5  1  0
  5  6  2  0
  5  7  1  0
  7  8  1  0
  8  9  1  0
  9 10  1  0
 10 11  1  0
 11 12  1  0
 12 13  1  0
 13 14  2  0
 14 15  1  0
 15 16  1  0
 15 17  2  0
 17 18  1  0
 18 19  1  0
 18 20  2  0
  2 21  1  0
 21 22  2  0
 22 23  1  0
 23 24  2  0
 24 25  1  0
 25 26  2  0
 26 27  1  0
 27 28  2  0
 28 29  1  0
 29 30  2  0
 12  7  1  0
 20 13  1  0
 30 21  1  0
 29 24  1  0
  3 31  1  0
  4 32  1  0
  4 33  1  0
  8 34  1  0
  8 35  1  0
  9 36  1  0
  9 37  1  0
 10 38  1  0
 10 39  1  0
 11 40  1  0
 11 41  1  0
 12 42  1  1
 14 43  1  0
 17 44  1  0
 20 45  1  0
 22 46  1  0
 23 47  1  0
 25 48  1  0
 26 49  1  0
 27 50  1  0
 28 51  1  0
M  END
>  <smiles>  (1) 
O=C(NCC(=O)N1CCCCC1c1cc(F)cc(F)c1)c1ccc2ccccc2n1

>  <score_type>  (1) 
oracle

>  <origin>  (1) 
autodockgpu

>  <m_score__min__energy>  (1) 
-9.0199999999999996

>  <m_primary>  (1) 
energy

>  <rmsd>  (1) 
2.8249746257987596

>  <m_score__min__rmsd>  (1) 
2.8249746257987596

>  <meeko>  (1) 
{"free_energy": -8.44, "intermolecular_energy": -9.93, "internal_energy": -1.37, "cluster_size": 26, "cluster_id": 2, "rank_in_cluster": 23}

>  <energy>  (1) 
-9.02

>  <cluster_rmsd>  (1) 
0.0

>  <cluster>  (1) 
1

$$$$

     RDKit          3D

 51 54  0  0  0  0  0  0  0  0999 V2000
  140.6990   71.4240  221.3640 O   0  0  0  0  0  0  0  0  0  0  0  0
  140.2880   71.9790  222.4280 C   0  0  0  0  0  0  0  0  0  0  0  0
  139.8870   73.3560  222.3210 N   0  0  0  0  0  0  0  0  0  0  0  0
  139.9960   73.9580  221.0170 C   0  0  0  0  0  0  0  0  0  0  0  0
  140.8460   75.1790  221.0230 C   0  0  0  0  0  0  0  0  0  0  0  0
  142.1070   75.1380  220.9850 O   0  0  0  0  0  0  0  0  0  0  0  0
  140.2020   76.4340  221.0740 N   0  0  0  0  0  0  0  0  0  0  0  0
  140.1590   77.3640  219.9550 C   0  0  0  0  0  0  0  0  0  0  0  0
  138.7080   77.5130  219.5460 C   0  0  0  0  0  0  0  0  0  0  0  0
  137.7900   77.7870  220.6920 C   0  0  0  0  0  0  0  0  0  0  0  0
  138.0650   77.0040  221.9330 C   0  0  0  0  0  0  0  0  0  0  0  0
  139.5180   76.8810  222.2930 C   0  0  2  0  0  0  0  0  0  0  0  0
  140.1370   78.1300  222.7460 C   0  0  0  0  0  0  0  0  0  0  0  0
  141.4810   78.4140  222.6860 C   0  0  0  0  0  0  0  0  0  0  0  0
  142.0280   79.6050  223.1240 C   0  0  0  0  0  0  0  0  0  0  0  0
  143.3630   79.7990  223.0270 F   0  0  0  0  0  0  0  0  0  0  0  0
  141.1680   80.5440  223.6430 C   0  0  0  0  0  0  0  0  0  0  0  0
  139.8050   80.3210  223.7310 C   0  0  0  0  0  0  0  0  0  0  0  0
  139.0440   81.2890  224.2490 F   0  0  0  0  0  0  0  0  0  0  0  0
  139.3160   79.1080  223.2760 C   0  0  0  0  0  0  0  0  0  0  0  0
  140.2160   71.2780  223.7050 C   0  0  0  0  0  0  0  0  0  0  0  0
  139.6510   70.0180  223.7030 C   0  0  0  0  0  0  0  0  0  0  0  0
  139.5280   69.2590  224.8440 C   0  0  0  0  0  0  0  0  0  0  0  0
  140.0030   69.8220  226.0170 C   0  0  0  0  0  0  0  0  0  0  0  0
  139.8780   69.0600  227.1580 C   0  0  0  0  0  0  0  0  0  0  0  0
  140.3470   69.6050  228.3460 C   0  0  0  0  0  0  0  0  0  0  0  0
  140.9090   70.8640  228.3310 C   0  0  0  0  0  0  0  0  0  0  0  0
  141.0340   71.6260  227.1880 C   0  0  0  0  0  0  0  0  0  0  0  0
  140.5650   71.0820  226.0000 C   0  0  0  0  0  0  0  0  0  0  0  0
  140.6760   71.8150  224.8600 N   0  0  0  0  0  0  0  0  0  0  0  0
  139.5440   73.8600  223.1580 H   0  0  0  0  0  0  0  0  0  0  0  0
  140.4366   73.2247  220.3255 H   0  0  0  0  0  0  0  0  0  0  0  0
  138.9854   74.2555  220.7004 H   0  0  0  0  0  0  0  0  0  0  0  0
  140.5656   78.3393  220.2607 H   0  0  0  0  0  0  0  0  0  0  0  0
  140.7630   76.9898  219.1153 H   0  0  0  0  0  0  0  0  0  0  0  0
  138.6315   78.3463  218.8320 H   0  0  0  0  0  0  0  0  0  0  0  0
  138.3967   76.5547  219.1046 H   0  0  0  0  0  0  0  0  0  0  0  0
  137.8671   78.8557  220.9408 H   0  0  0  0  0  0  0  0  0  0  0  0
  136.7873   77.4828  220.3571 H   0  0  0  0  0  0  0  0  0  0  0  0
  137.5460   77.4952  222.7692 H   0  0  0  0  0  0  0  0  0  0  0  0
  137.7072   75.9821  221.7392 H   0  0  0  0  0  0  0  0  0  0  0  0
  139.6057   76.1823  223.1381 H   0  0  0  0  0  0  0  0  0  0  0  0
  142.1562   77.6532  222.2674 H   0  0  0  0  0  0  0  0  0  0  0  0
  141.5758   81.5016  223.9991 H   0  0  0  0  0  0  0  0  0  0  0  0
  138.2348   78.9155  223.3385 H   0  0  0  0  0  0  0  0  0  0  0  0
  139.2848   69.6048  222.7516 H   0  0  0  0  0  0  0  0  0  0  0  0
  139.0756   68.2565  224.8256 H   0  0  0  0  0  0  0  0  0  0  0  0
  139.4242   68.0584  227.1290 H   0  0  0  0  0  0  0  0  0  0  0  0
  140.2712   69.0398  229.2866 H   0  0  0  0  0  0  0  0  0  0  0  0
  141.2767   71.2824  229.2796 H   0  0  0  0  0  0  0  0  0  0  0  0
  141.4883   72.6274  227.2168 H   0  0  0  0  0  0  0  0  0  0  0  0
  1  2  2  0
  2  3  1  0
  3  4  1  0
  4  5  1  0
  5  6  2  0
  5  7  1  0
  7  8  1  0
  8  9  1  0
  9 10  1  0
 10 11  1  0
 11 12  1  0
 12 13  1  0
 13 14  2  0
 14 15  1  0
 15 16  1  0
 15 17  2  0
 17 18  1  0
 18 19  1  0
 18 20  2  0
  2 21  1  0
 21 22  2  0
 22 23  1  0
 23 24  2  0
 24 25  1  0
 25 26  2  0
 26 27  1  0
 27 28  2  0
 28 29  1  0
 29 30  2  0
 12  7  1  0
 20 13  1  0
 30 21  1  0
 29 24  1  0
  3 31  1  0
  4 32  1  0
  4 33  1  0
  8 34  1  0
  8 35  1  0
  9 36  1  0
  9 37  1  0
 10 38  1  0
 10 39  1  0
 11 40  1  0
 11 41  1  0
 12 42  1  1
 14 43  1  0
 17 44  1  0
 20 45  1  0
 22 46  1  0
 23 47  1  0
 25 48  1  0
 26 49  1  0
 27 50  1  0
 28 51  1  0
M  END
>  <smiles>  (2) 
O=C(NCC(=O)N1CCCCC1c1cc(F)cc(F)c1)c1ccc2ccccc2n1

>  <score_type>  (2) 
oracle

>  <origin>  (2) 
autodockgpu

>  <m_score__min__energy>  (2) 
-9.0199999999999996

>  <m_primary>  (2) 
energy

>  <rmsd>  (2) 
2.548893802926657

>  <m_score__min__rmsd>  (2) 
2.548893802926657

>  <meeko>  (2) 
{"free_energy": -8.54, "intermolecular_energy": -10.03, "internal_energy": -1.35, "cluster_size": 26, "cluster_id": 2, "rank_in_cluster": 18}

>  <energy>  (2) 
-8.92

>  <cluster_rmsd>  (2) 
0.9

>  <cluster>  (2) 
1

$$$$

     RDKit          3D

 51 54  0  0  0  0  0  0  0  0999 V2000
  140.0800   74.5950  220.0720 O   0  0  0  0  0  0  0  0  0  0  0  0
  140.0350   75.1660  221.2030 C   0  0  0  0  0  0  0  0  0  0  0  0
  139.3310   74.4700  222.2460 N   0  0  0  0  0  0  0  0  0  0  0  0
  138.7510   73.1990  221.8950 C   0  0  0  0  0  0  0  0  0  0  0  0
  139.5870   72.0510  222.3370 C   0  0  0  0  0  0  0  0  0  0  0  0
  140.6830   71.7480  221.7900 O   0  0  0  0  0  0  0  0  0  0  0  0
  139.1220   71.2730  223.4200 N   0  0  0  0  0  0  0  0  0  0  0  0
  137.8420   71.4880  224.0770 C   0  0  0  0  0  0  0  0  0  0  0  0
  137.0000   70.2510  223.8430 C   0  0  0  0  0  0  0  0  0  0  0  0
  137.7140   68.9760  224.1510 C   0  0  0  0  0  0  0  0  0  0  0  0
  139.1390   68.9180  223.7070 C   0  0  0  0  0  0  0  0  0  0  0  0
  139.9290   70.1700  223.9560 C   0  0  2  0  0  0  0  0  0  0  0  0
  140.2090   70.4390  225.3690 C   0  0  0  0  0  0  0  0  0  0  0  0
  140.7310   71.6100  225.8650 C   0  0  0  0  0  0  0  0  0  0  0  0
  140.9800   71.8260  227.2060 C   0  0  0  0  0  0  0  0  0  0  0  0
  141.4970   73.0110  227.6040 F   0  0  0  0  0  0  0  0  0  0  0  0
  140.6850   70.8040  228.0770 C   0  0  0  0  0  0  0  0  0  0  0  0
  140.1570   69.6000  227.6440 C   0  0  0  0  0  0  0  0  0  0  0  0
  139.8990   68.6640  228.5610 F   0  0  0  0  0  0  0  0  0  0  0  0
  139.9280   69.4440  226.2880 C   0  0  0  0  0  0  0  0  0  0  0  0
  140.6570   76.4610  221.4580 C   0  0  0  0  0  0  0  0  0  0  0  0
  141.1430   77.1530  220.3670 C   0  0  0  0  0  0  0  0  0  0  0  0
  141.7490   78.3830  220.4800 C   0  0  0  0  0  0  0  0  0  0  0  0
  141.8550   78.9070  221.7580 C   0  0  0  0  0  0  0  0  0  0  0  0
  142.4630   80.1380  221.8680 C   0  0  0  0  0  0  0  0  0  0  0  0
  142.5800   80.6820  223.1400 C   0  0  0  0  0  0  0  0  0  0  0  0
  142.0910   79.9770  224.2190 C   0  0  0  0  0  0  0  0  0  0  0  0
  141.4820   78.7450  224.1080 C   0  0  0  0  0  0  0  0  0  0  0  0
  141.3640   78.2000  222.8360 C   0  0  0  0  0  0  0  0  0  0  0  0
  140.7680   76.9860  222.7010 N   0  0  0  0  0  0  0  0  0  0  0  0
  139.2620   74.8900  223.1910 H   0  0  0  0  0  0  0  0  0  0  0  0
  137.7621   73.1190  222.3701 H   0  0  0  0  0  0  0  0  0  0  0  0
  138.6769   73.1564  220.7983 H   0  0  0  0  0  0  0  0  0  0  0  0
  137.9939   71.6410  225.1557 H   0  0  0  0  0  0  0  0  0  0  0  0
  137.3424   72.3805  223.6721 H   0  0  0  0  0  0  0  0  0  0  0  0
  136.1064   70.3124  224.4816 H   0  0  0  0  0  0  0  0  0  0  0  0
  136.7479   70.2296  222.7725 H   0  0  0  0  0  0  0  0  0  0  0  0
  137.6916   68.8289  225.2409 H   0  0  0  0  0  0  0  0  0  0  0  0
  137.1884   68.1901  223.5888 H   0  0  0  0  0  0  0  0  0  0  0  0
  139.6303   68.0917  224.2416 H   0  0  0  0  0  0  0  0  0  0  0  0
  139.1173   68.7782  222.6161 H   0  0  0  0  0  0  0  0  0  0  0  0
  140.9118   70.0579  223.4748 H   0  0  0  0  0  0  0  0  0  0  0  0
  140.9628   72.4182  225.1557 H   0  0  0  0  0  0  0  0  0  0  0  0
  140.8744   70.9475  229.1510 H   0  0  0  0  0  0  0  0  0  0  0  0
  139.5070   68.4937  225.9278 H   0  0  0  0  0  0  0  0  0  0  0  0
  141.0419   76.7035  219.3682 H   0  0  0  0  0  0  0  0  0  0  0  0
  142.1299   78.9228  219.6005 H   0  0  0  0  0  0  0  0  0  0  0  0
  142.8412   80.6695  220.9823 H   0  0  0  0  0  0  0  0  0  0  0  0
  143.0567   81.6627  223.2849 H   0  0  0  0  0  0  0  0  0  0  0  0
  142.1919   80.4204  225.2206 H   0  0  0  0  0  0  0  0  0  0  0  0
  141.1037   78.2136  224.9938 H   0  0  0  0  0  0  0  0  0  0  0  0
  1  2  2  0
  2  3  1  0
  3  4  1  0
  4  5  1  0
  5  6  2  0
  5  7  1  0
  7  8  1  0
  8  9  1  0
  9 10  1  0
 10 11  1  0
 11 12  1  0
 12 13  1  0
 13 14  2  0
 14 15  1  0
 15 16  1  0
 15 17  2  0
 17 18  1  0
 18 19  1  0
 18 20  2  0
  2 21  1  0
 21 22  2  0
 22 23  1  0
 23 24  2  0
 24 25  1  0
 25 26  2  0
 26 27  1  0
 27 28  2  0
 28 29  1  0
 29 30  2  0
 12  7  1  0
 20 13  1  0
 30 21  1  0
 29 24  1  0
  3 31  1  0
  4 32  1  0
  4 33  1  0
  8 34  1  0
  8 35  1  0
  9 36  1  0
  9 37  1  0
 10 38  1  0
 10 39  1  0
 11 40  1  0
 11 41  1  0
 12 42  1  6
 14 43  1  0
 17 44  1  0
 20 45  1  0
 22 46  1  0
 23 47  1  0
 25 48  1  0
 26 49  1  0
 27 50  1  0
 28 51  1  0
M  END
>  <smiles>  (3) 
O=C(NCC(=O)N1CCCCC1c1cc(F)cc(F)c1)c1ccc2ccccc2n1

>  <score_type>  (3) 
oracle

>  <origin>  (3) 
autodockgpu

>  <m_score__min__energy>  (3) 
-9.0199999999999996

>  <m_primary>  (3) 
energy

>  <rmsd>  (3) 
8.334478306990443

>  <m_score__min__rmsd>  (3) 
8.334478306990443

>  <meeko>  (3) 
{"free_energy": -8.76, "intermolecular_energy": -10.26, "internal_energy": -1.43, "cluster_size": 21, "cluster_id": 1, "rank_in_cluster": 14}

>  <energy>  (3) 
-8.91

>  <cluster_rmsd>  (3) 
0.15

>  <cluster>  (3) 
1

$$$$

     RDKit          3D

 51 54  0  0  0  0  0  0  0  0999 V2000
  140.3350   74.6190  220.2040 O   0  0  0  0  0  0  0  0  0  0  0  0
  140.1460   75.2870  221.2660 C   0  0  0  0  0  0  0  0  0  0  0  0
  139.3000   74.6850  222.2600 N   0  0  0  0  0  0  0  0  0  0  0  0
  138.7560   73.3890  221.9450 C   0  0  0  0  0  0  0  0  0  0  0  0
  139.6410   72.2780  222.3890 C   0  0  0  0  0  0  0  0  0  0  0  0
  140.8030   72.1020  221.9320 O   0  0  0  0  0  0  0  0  0  0  0  0
  139.1450   71.3880  223.3660 N   0  0  0  0  0  0  0  0  0  0  0  0
  137.8330   71.5170  223.9830 C   0  0  0  0  0  0  0  0  0  0  0  0
  137.0270   70.2960  223.5890 C   0  0  0  0  0  0  0  0  0  0  0  0
  137.7520   69.0080  223.8000 C   0  0  0  0  0  0  0  0  0  0  0  0
  139.1960   69.0160  223.4170 C   0  0  0  0  0  0  0  0  0  0  0  0
  139.9500   70.2500  223.8250 C   0  0  2  0  0  0  0  0  0  0  0  0
  140.1620   70.3780  225.2690 C   0  0  0  0  0  0  0  0  0  0  0  0
  139.8230   69.4320  226.2080 C   0  0  0  0  0  0  0  0  0  0  0  0
  140.0410   69.5910  227.5630 C   0  0  0  0  0  0  0  0  0  0  0  0
  139.6740   68.6060  228.4140 F   0  0  0  0  0  0  0  0  0  0  0  0
  140.6270   70.7630  227.9760 C   0  0  0  0  0  0  0  0  0  0  0  0
  140.9930   71.7560  227.0840 C   0  0  0  0  0  0  0  0  0  0  0  0
  141.5580   72.8620  227.5760 F   0  0  0  0  0  0  0  0  0  0  0  0
  140.7510   71.5390  225.7390 C   0  0  0  0  0  0  0  0  0  0  0  0
  140.7450   76.5980  221.4890 C   0  0  0  0  0  0  0  0  0  0  0  0
  141.2040   77.2790  220.3790 C   0  0  0  0  0  0  0  0  0  0  0  0
  141.7870   78.5220  220.4620 C   0  0  0  0  0  0  0  0  0  0  0  0
  141.8980   79.0730  221.7290 C   0  0  0  0  0  0  0  0  0  0  0  0
  142.4820   80.3170  221.8090 C   0  0  0  0  0  0  0  0  0  0  0  0
  142.6040   80.8870  223.0700 C   0  0  0  0  0  0  0  0  0  0  0  0
  142.1410   80.1930  224.1680 C   0  0  0  0  0  0  0  0  0  0  0  0
  141.5550   78.9470  224.0870 C   0  0  0  0  0  0  0  0  0  0  0  0
  141.4340   78.3770  222.8270 C   0  0  0  0  0  0  0  0  0  0  0  0
  140.8610   77.1480  222.7210 N   0  0  0  0  0  0  0  0  0  0  0  0
  139.1100   75.1860  223.1480 H   0  0  0  0  0  0  0  0  0  0  0  0
  137.7811   73.2846  222.4437 H   0  0  0  0  0  0  0  0  0  0  0  0
  138.6590   73.3233  220.8513 H   0  0  0  0  0  0  0  0  0  0  0  0
  137.9347   71.5637  225.0773 H   0  0  0  0  0  0  0  0  0  0  0  0
  137.3338   72.4378  223.6470 H   0  0  0  0  0  0  0  0  0  0  0  0
  136.1055   70.2789  224.1895 H   0  0  0  0  0  0  0  0  0  0  0  0
  136.8224   70.3784  222.5113 H   0  0  0  0  0  0  0  0  0  0  0  0
  137.6854   68.7519  224.8677 H   0  0  0  0  0  0  0  0  0  0  0  0
  137.2668   68.2749  223.1388 H   0  0  0  0  0  0  0  0  0  0  0  0
  139.6798   68.1480  223.8886 H   0  0  0  0  0  0  0  0  0  0  0  0
  139.2247   68.9852  222.3178 H   0  0  0  0  0  0  0  0  0  0  0  0
  140.9548   70.2039  223.3797 H   0  0  0  0  0  0  0  0  0  0  0  0
  139.3534   68.4994  225.8619 H   0  0  0  0  0  0  0  0  0  0  0  0
  140.8111   70.9170  229.0495 H   0  0  0  0  0  0  0  0  0  0  0  0
  141.0372   72.3178  225.0168 H   0  0  0  0  0  0  0  0  0  0  0  0
  141.0993   76.8092  219.3899 H   0  0  0  0  0  0  0  0  0  0  0  0
  142.1470   79.0521  219.5679 H   0  0  0  0  0  0  0  0  0  0  0  0
  142.8383   80.8396  220.9091 H   0  0  0  0  0  0  0  0  0  0  0  0
  143.0639   81.8789  223.1910 H   0  0  0  0  0  0  0  0  0  0  0  0
  142.2444   80.6572  225.1599 H   0  0  0  0  0  0  0  0  0  0  0  0
  141.1971   78.4248  224.9866 H   0  0  0  0  0  0  0  0  0  0  0  0
  1  2  2  0
  2  3  1  0
  3  4  1  0
  4  5  1  0
  5  6  2  0
  5  7  1  0
  7  8  1  0
  8  9  1  0
  9 10  1  0
 10 11  1  0
 11 12  1  0
 12 13  1  0
 13 14  2  0
 14 15  1  0
 15 16  1  0
 15 17  2  0
 17 18  1  0
 18 19  1  0
 18 20  2  0
  2 21  1  0
 21 22  2  0
 22 23  1  0
 23 24  2  0
 24 25  1  0
 25 26  2  0
 26 27  1  0
 27 28  2  0
 28 29  1  0
 29 30  2  0
 12  7  1  0
 20 13  1  0
 30 21  1  0
 29 24  1  0
  3 31  1  0
  4 32  1  0
  4 33  1  0
  8 34  1  0
  8 35  1  0
  9 36  1  0
  9 37  1  0
 10 38  1  0
 10 39  1  0
 11 40  1  0
 11 41  1  0
 12 42  1  6
 14 43  1  0
 17 44  1  0
 20 45  1  0
 22 46  1  0
 23 47  1  0
 25 48  1  0
 26 49  1  0
 27 50  1  0
 28 51  1  0
M  END
>  <smiles>  (4) 
O=C(NCC(=O)N1CCCCC1c1cc(F)cc(F)c1)c1ccc2ccccc2n1

>  <score_type>  (4) 
oracle

>  <origin>  (4) 
autodockgpu

>  <m_score__min__energy>  (4) 
-9.0199999999999996

>  <m_primary>  (4) 
energy

>  <rmsd>  (4) 
8.357862487539462

>  <m_score__min__rmsd>  (4) 
8.357862487539462

>  <meeko>  (4) 
{"free_energy": -8.86, "intermolecular_energy": -10.35, "internal_energy": -1.45, "cluster_size": 21, "cluster_id": 1, "rank_in_cluster": 8}

>  <energy>  (4) 
-8.91

>  <cluster_rmsd>  (4) 
0.9

>  <cluster>  (4) 
1

$$$$

     RDKit          3D

 51 54  0  0  0  0  0  0  0  0999 V2000
  141.0020   72.1480  221.7250 O   0  0  0  0  0  0  0  0  0  0  0  0
  140.0570   72.2050  222.5690 C   0  0  0  0  0  0  0  0  0  0  0  0
  138.9600   73.0760  222.2470 N   0  0  0  0  0  0  0  0  0  0  0  0
  139.0500   73.7920  221.0000 C   0  0  0  0  0  0  0  0  0  0  0  0
  138.9660   75.2660  221.1830 C   0  0  0  0  0  0  0  0  0  0  0  0
  137.8750   75.8740  221.3630 O   0  0  0  0  0  0  0  0  0  0  0  0
  140.1680   76.0070  221.1510 N   0  0  0  0  0  0  0  0  0  0  0  0
  141.4420   75.4970  221.6350 C   0  0  0  0  0  0  0  0  0  0  0  0
  142.3770   75.4150  220.4460 C   0  0  0  0  0  0  0  0  0  0  0  0
  142.4120   76.6640  219.6270 C   0  0  0  0  0  0  0  0  0  0  0  0
  141.0890   77.3200  219.4030 C   0  0  0  0  0  0  0  0  0  0  0  0
  140.1970   77.3710  220.6100 C   0  0  2  0  0  0  0  0  0  0  0  0
  140.6550   78.2820  221.6630 C   0  0  0  0  0  0  0  0  0  0  0  0
  141.9310   78.7810  221.7780 C   0  0  0  0  0  0  0  0  0  0  0  0
  142.3240   79.6400  222.7870 C   0  0  0  0  0  0  0  0  0  0  0  0
  143.6020   80.0810  222.8220 F   0  0  0  0  0  0  0  0  0  0  0  0
  141.3770   80.0030  223.7140 C   0  0  0  0  0  0  0  0  0  0  0  0
  140.0750   79.5370  223.6550 C   0  0  0  0  0  0  0  0  0  0  0  0
  139.2210   79.9430  224.5980 F   0  0  0  0  0  0  0  0  0  0  0  0
  139.7400   78.6800  222.6210 C   0  0  0  0  0  0  0  0  0  0  0  0
  140.0610   71.4360  223.8090 C   0  0  0  0  0  0  0  0  0  0  0  0
  139.4680   70.1890  223.7800 C   0  0  0  0  0  0  0  0  0  0  0  0
  139.4090   69.3710  224.8840 C   0  0  0  0  0  0  0  0  0  0  0  0
  139.9800   69.8590  226.0490 C   0  0  0  0  0  0  0  0  0  0  0  0
  139.9200   69.0390  227.1530 C   0  0  0  0  0  0  0  0  0  0  0  0
  140.4850   69.5080  228.3310 C   0  0  0  0  0  0  0  0  0  0  0  0
  141.0730   70.7550  228.3430 C   0  0  0  0  0  0  0  0  0  0  0  0
  141.1340   71.5770  227.2370 C   0  0  0  0  0  0  0  0  0  0  0  0
  140.5680   71.1080  226.0580 C   0  0  0  0  0  0  0  0  0  0  0  0
  140.6140   71.8990  224.9540 N   0  0  0  0  0  0  0  0  0  0  0  0
  138.1600   73.1630  222.9000 H   0  0  0  0  0  0  0  0  0  0  0  0
  140.0109   73.5498  220.5226 H   0  0  0  0  0  0  0  0  0  0  0  0
  138.1992   73.4834  220.3748 H   0  0  0  0  0  0  0  0  0  0  0  0
  141.8563   76.1780  222.3931 H   0  0  0  0  0  0  0  0  0  0  0  0
  141.3141   74.5075  222.0981 H   0  0  0  0  0  0  0  0  0  0  0  0
  143.3931   75.2126  220.8156 H   0  0  0  0  0  0  0  0  0  0  0  0
  142.0018   74.6119  219.7947 H   0  0  0  0  0  0  0  0  0  0  0  0
  143.0669   77.3860  220.1368 H   0  0  0  0  0  0  0  0  0  0  0  0
  142.7742   76.3645  218.6325 H   0  0  0  0  0  0  0  0  0  0  0  0
  141.2714   78.3520  219.0688 H   0  0  0  0  0  0  0  0  0  0  0  0
  140.5631   76.7074  218.6559 H   0  0  0  0  0  0  0  0  0  0  0  0
  139.2134   77.7502  220.2958 H   0  0  0  0  0  0  0  0  0  0  0  0
  142.6778   78.4810  221.0281 H   0  0  0  0  0  0  0  0  0  0  0  0
  141.6625   80.6852  224.5284 H   0  0  0  0  0  0  0  0  0  0  0  0
  138.7089   78.3018  222.5589 H   0  0  0  0  0  0  0  0  0  0  0  0
  139.0255   69.8362  222.8368 H   0  0  0  0  0  0  0  0  0  0  0  0
  138.9330   68.3801  224.8445 H   0  0  0  0  0  0  0  0  0  0  0  0
  139.4423   68.0494  227.1036 H   0  0  0  0  0  0  0  0  0  0  0  0
  140.4639   68.8930  229.2427 H   0  0  0  0  0  0  0  0  0  0  0  0
  141.5166   71.1131  229.2837 H   0  0  0  0  0  0  0  0  0  0  0  0
  141.6126   72.5662  227.2866 H   0  0  0  0  0  0  0  0  0  0  0  0
  1  2  2  0
  2  3  1  0
  3  4  1  0
  4  5  1  0
  5  6  2  0
  5  7  1  0
  7  8  1  0
  8  9  1  0
  9 10  1  0
 10 11  1  0
 11 12  1  0
 12 13  1  0
 13 14  2  0
 14 15  1  0
 15 16  1  0
 15 17  2  0
 17 18  1  0
 18 19  1  0
 18 20  2  0
  2 21  1  0
 21 22  2  0
 22 23  1  0
 23 24  2  0
 24 25  1  0
 25 26  2  0
 26 27  1  0
 27 28  2  0
 28 29  1  0
 29 30  2  0
 12  7  1  0
 20 13  1  0
 30 21  1  0
 29 24  1  0
  3 31  1  0
  4 32  1  0
  4 33  1  0
  8 34  1  0
  8 35  1  0
  9 36  1  0
  9 37  1  0
 10 38  1  0
 10 39  1  0
 11 40  1  0
 11 41  1  0
 12 42  1  6
 14 43  1  0
 17 44  1  0
 20 45  1  0
 22 46  1  0
 23 47  1  0
 25 48  1  0
 26 49  1  0
 27 50  1  0
 28 51  1  0
M  END
>  <smiles>  (5) 
O=C(NCC(=O)N1CCCCC1c1cc(F)cc(F)c1)c1ccc2ccccc2n1

>  <score_type>  (5) 
oracle

>  <origin>  (5) 
autodockgpu

>  <m_score__min__energy>  (5) 
-9.0199999999999996

>  <m_primary>  (5) 
energy

>  <rmsd>  (5) 
2.1633278440352908

>  <m_score__min__rmsd>  (5) 
2.1633278440352908

>  <meeko>  (5) 
{"free_energy": -8.67, "intermolecular_energy": -10.16, "internal_energy": -1.37, "cluster_size": 26, "cluster_id": 2, "rank_in_cluster": 9}

>  <energy>  (5) 
-8.9

>  <cluster_rmsd>  (5) 
0.91

>  <cluster>  (5) 
1

$$$$

     RDKit          3D

 51 54  0  0  0  0  0  0  0  0999 V2000
  140.7380   72.0270  221.5690 O   0  0  0  0  0  0  0  0  0  0  0  0
  139.9130   72.1670  222.5230 C   0  0  0  0  0  0  0  0  0  0  0  0
  138.8770   73.1460  222.3370 N   0  0  0  0  0  0  0  0  0  0  0  0
  138.8870   73.8640  221.0880 C   0  0  0  0  0  0  0  0  0  0  0  0
  138.9430   75.3380  221.2810 C   0  0  0  0  0  0  0  0  0  0  0  0
  137.9280   76.0340  221.5590 O   0  0  0  0  0  0  0  0  0  0  0  0
  140.1960   75.9760  221.1440 N   0  0  0  0  0  0  0  0  0  0  0  0
  141.4510   75.3930  221.5930 C   0  0  0  0  0  0  0  0  0  0  0  0
  142.3090   75.1700  220.3650 C   0  0  0  0  0  0  0  0  0  0  0  0
  142.3970   76.3640  219.4730 C   0  0  0  0  0  0  0  0  0  0  0  0
  141.1190   77.1120  219.2770 C   0  0  0  0  0  0  0  0  0  0  0  0
  140.3020   77.3020  220.5230 C   0  0  2  0  0  0  0  0  0  0  0  0
  140.8870   78.2290  221.4950 C   0  0  0  0  0  0  0  0  0  0  0  0
  141.1010   77.9510  222.8240 C   0  0  0  0  0  0  0  0  0  0  0  0
  141.6570   78.8540  223.7110 C   0  0  0  0  0  0  0  0  0  0  0  0
  141.8300   78.4940  225.0030 F   0  0  0  0  0  0  0  0  0  0  0  0
  142.0070   80.0890  223.2200 C   0  0  0  0  0  0  0  0  0  0  0  0
  141.8180   80.4330  221.8930 C   0  0  0  0  0  0  0  0  0  0  0  0
  142.1880   81.6550  221.5040 F   0  0  0  0  0  0  0  0  0  0  0  0
  141.2580   79.4860  221.0520 C   0  0  0  0  0  0  0  0  0  0  0  0
  139.9910   71.3860  223.7520 C   0  0  0  0  0  0  0  0  0  0  0  0
  139.5180   70.0890  223.7080 C   0  0  0  0  0  0  0  0  0  0  0  0
  139.5380   69.2560  224.8020 C   0  0  0  0  0  0  0  0  0  0  0  0
  140.0620   69.7800  225.9720 C   0  0  0  0  0  0  0  0  0  0  0  0
  140.0800   68.9440  227.0650 C   0  0  0  0  0  0  0  0  0  0  0  0
  140.6010   69.4490  228.2500 C   0  0  0  0  0  0  0  0  0  0  0  0
  141.0690   70.7460  228.2770 C   0  0  0  0  0  0  0  0  0  0  0  0
  141.0500   71.5830  227.1820 C   0  0  0  0  0  0  0  0  0  0  0  0
  140.5300   71.0780  225.9980 C   0  0  0  0  0  0  0  0  0  0  0  0
  140.5000   71.8850  224.9040 N   0  0  0  0  0  0  0  0  0  0  0  0
  138.1760   73.3020  223.0830 H   0  0  0  0  0  0  0  0  0  0  0  0
  139.7669   73.5502  220.5073 H   0  0  0  0  0  0  0  0  0  0  0  0
  137.9508   73.6305  220.5597 H   0  0  0  0  0  0  0  0  0  0  0  0
  141.9581   76.0796  222.2868 H   0  0  0  0  0  0  0  0  0  0  0  0
  141.2729   74.4446  222.1210 H   0  0  0  0  0  0  0  0  0  0  0  0
  143.3249   74.9058  220.6938 H   0  0  0  0  0  0  0  0  0  0  0  0
  141.8358   74.3660  219.7823 H   0  0  0  0  0  0  0  0  0  0  0  0
  143.1333   77.0574  219.9055 H   0  0  0  0  0  0  0  0  0  0  0  0
  142.6799   75.9816  218.4812 H   0  0  0  0  0  0  0  0  0  0  0  0
  141.3628   78.1057  218.8730 H   0  0  0  0  0  0  0  0  0  0  0  0
  140.5063   76.5041  218.5951 H   0  0  0  0  0  0  0  0  0  0  0  0
  139.3353   77.7426  220.2378 H   0  0  0  0  0  0  0  0  0  0  0  0
  140.8149   76.9582  223.2015 H   0  0  0  0  0  0  0  0  0  0  0  0
  142.4515   80.8274  223.9035 H   0  0  0  0  0  0  0  0  0  0  0  0
  141.1026   79.7424  219.9937 H   0  0  0  0  0  0  0  0  0  0  0  0
  139.1093   69.7074  222.7607 H   0  0  0  0  0  0  0  0  0  0  0  0
  139.1570   68.2254  224.7504 H   0  0  0  0  0  0  0  0  0  0  0  0
  139.6964   67.9149  227.0029 H   0  0  0  0  0  0  0  0  0  0  0  0
  140.6396   68.8231  229.1538 H   0  0  0  0  0  0  0  0  0  0  0  0
  141.4788   71.1327  229.2217 H   0  0  0  0  0  0  0  0  0  0  0  0
  141.4325   72.6125  227.2440 H   0  0  0  0  0  0  0  0  0  0  0  0
  1  2  2  0
  2  3  1  0
  3  4  1  0
  4  5  1  0
  5  6  2  0
  5  7  1  0
  7  8  1  0
  8  9  1  0
  9 10  1  0
 10 11  1  0
 11 12  1  0
 12 13  1  0
 13 14  2  0
 14 15  1  0
 15 16  1  0
 15 17  2  0
 17 18  1  0
 18 19  1  0
 18 20  2  0
  2 21  1  0
 21 22  2  0
 22 23  1  0
 23 24  2  0
 24 25  1  0
 25 26  2  0
 26 27  1  0
 27 28  2  0
 28 29  1  0
 29 30  2  0
 12  7  1  0
 20 13  1  0
 30 21  1  0
 29 24  1  0
  3 31  1  0
  4 32  1  0
  4 33  1  0
  8 34  1  0
  8 35  1  0
  9 36  1  0
  9 37  1  0
 10 38  1  0
 10 39  1  0
 11 40  1  0
 11 41  1  0
 12 42  1  6
 14 43  1  0
 17 44  1  0
 20 45  1  0
 22 46  1  0
 23 47  1  0
 25 48  1  0
 26 49  1  0
 27 50  1  0
 28 51  1  0
M  END
>  <smiles>  (6) 
O=C(NCC(=O)N1CCCCC1c1cc(F)cc(F)c1)c1ccc2ccccc2n1

>  <score_type>  (6) 
oracle

>  <origin>  (6) 
autodockgpu

>  <m_score__min__energy>  (6) 
-9.0199999999999996

>  <m_primary>  (6) 
energy

>  <rmsd>  (6) 
2.0889079852345143

>  <m_score__min__rmsd>  (6) 
2.0889079852345143

>  <meeko>  (6) 
{"free_energy": -8.76, "intermolecular_energy": -10.25, "internal_energy": -1.21, "cluster_size": 26, "cluster_id": 2, "rank_in_cluster": 4}

>  <energy>  (6) 
-8.9

>  <cluster_rmsd>  (6) 
0.79

>  <cluster>  (6) 
1

$$$$

     RDKit          3D

 51 54  0  0  0  0  0  0  0  0999 V2000
  140.2530   74.3790  220.1420 O   0  0  0  0  0  0  0  0  0  0  0  0
  140.0450   75.0740  221.1820 C   0  0  0  0  0  0  0  0  0  0  0  0
  139.1980   74.4880  222.1860 N   0  0  0  0  0  0  0  0  0  0  0  0
  138.6760   73.1760  221.9030 C   0  0  0  0  0  0  0  0  0  0  0  0
  139.5830   72.0910  222.3670 C   0  0  0  0  0  0  0  0  0  0  0  0
  140.7150   71.8770  221.8540 O   0  0  0  0  0  0  0  0  0  0  0  0
  139.1440   71.2710  223.4300 N   0  0  0  0  0  0  0  0  0  0  0  0
  137.8780   71.4580  224.1220 C   0  0  0  0  0  0  0  0  0  0  0  0
  137.0350   70.2270  223.8600 C   0  0  0  0  0  0  0  0  0  0  0  0
  137.7590   68.9440  224.1050 C   0  0  0  0  0  0  0  0  0  0  0  0
  139.1740   68.9070  223.6280 C   0  0  0  0  0  0  0  0  0  0  0  0
  139.9660   70.1530  223.9070 C   0  0  2  0  0  0  0  0  0  0  0  0
  140.2760   70.3700  225.3220 C   0  0  0  0  0  0  0  0  0  0  0  0
  140.8080   71.5230  225.8490 C   0  0  0  0  0  0  0  0  0  0  0  0
  141.0860   71.6890  227.1920 C   0  0  0  0  0  0  0  0  0  0  0  0
  141.6100   72.8600  227.6220 F   0  0  0  0  0  0  0  0  0  0  0  0
  140.8090   70.6360  228.0310 C   0  0  0  0  0  0  0  0  0  0  0  0
  140.2730   69.4480  227.5650 C   0  0  0  0  0  0  0  0  0  0  0  0
  140.0360   68.4780  228.4520 F   0  0  0  0  0  0  0  0  0  0  0  0
  140.0150   69.3410  226.2100 C   0  0  0  0  0  0  0  0  0  0  0  0
  140.6230   76.3990  221.3740 C   0  0  0  0  0  0  0  0  0  0  0  0
  141.2060   76.9980  220.2740 C   0  0  0  0  0  0  0  0  0  0  0  0
  141.7830   78.2460  220.3300 C   0  0  0  0  0  0  0  0  0  0  0  0
  141.7550   78.8880  221.5570 C   0  0  0  0  0  0  0  0  0  0  0  0
  142.3340   80.1360  221.6100 C   0  0  0  0  0  0  0  0  0  0  0  0
  142.3180   80.7980  222.8300 C   0  0  0  0  0  0  0  0  0  0  0  0
  141.7320   80.1860  223.9180 C   0  0  0  0  0  0  0  0  0  0  0  0
  141.1530   78.9360  223.8650 C   0  0  0  0  0  0  0  0  0  0  0  0
  141.1680   78.2740  222.6440 C   0  0  0  0  0  0  0  0  0  0  0  0
  140.6040   77.0390  222.5660 N   0  0  0  0  0  0  0  0  0  0  0  0
  138.9930   75.0110  223.0570 H   0  0  0  0  0  0  0  0  0  0  0  0
  137.7056   73.0655  222.4090 H   0  0  0  0  0  0  0  0  0  0  0  0
  138.5749   73.0841  220.8115 H   0  0  0  0  0  0  0  0  0  0  0  0
  138.0527   71.5717  225.2021 H   0  0  0  0  0  0  0  0  0  0  0  0
  137.3675   72.3633  223.7619 H   0  0  0  0  0  0  0  0  0  0  0  0
  136.1551   70.2612  224.5192 H   0  0  0  0  0  0  0  0  0  0  0  0
  136.7604   70.2444  222.7950 H   0  0  0  0  0  0  0  0  0  0  0  0
  137.7610   68.7568  225.1890 H   0  0  0  0  0  0  0  0  0  0  0  0
  137.2232   68.1776  223.5257 H   0  0  0  0  0  0  0  0  0  0  0  0
  139.6791   68.0630  224.1205 H   0  0  0  0  0  0  0  0  0  0  0  0
  139.1292   68.8073  222.5335 H   0  0  0  0  0  0  0  0  0  0  0  0
  140.9387   70.0632  223.4012 H   0  0  0  0  0  0  0  0  0  0  0  0
  141.0237   72.3573  225.1653 H   0  0  0  0  0  0  0  0  0  0  0  0
  141.0198   70.7407  229.1055 H   0  0  0  0  0  0  0  0  0  0  0  0
  139.5868   68.4040  225.8244 H   0  0  0  0  0  0  0  0  0  0  0  0
  141.2090   76.4565  219.3165 H   0  0  0  0  0  0  0  0  0  0  0  0
  142.2431   78.7102  219.4452 H   0  0  0  0  0  0  0  0  0  0  0  0
  142.7919   80.5912  220.7194 H   0  0  0  0  0  0  0  0  0  0  0  0
  142.7668   81.7975  222.9276 H   0  0  0  0  0  0  0  0  0  0  0  0
  141.7262   80.7231  224.8780 H   0  0  0  0  0  0  0  0  0  0  0  0
  140.6964   78.4801  224.7559 H   0  0  0  0  0  0  0  0  0  0  0  0
  1  2  2  0
  2  3  1  0
  3  4  1  0
  4  5  1  0
  5  6  2  0
  5  7  1  0
  7  8  1  0
  8  9  1  0
  9 10  1  0
 10 11  1  0
 11 12  1  0
 12 13  1  0
 13 14  2  0
 14 15  1  0
 15 16  1  0
 15 17  2  0
 17 18  1  0
 18 19  1  0
 18 20  2  0
  2 21  1  0
 21 22  2  0
 22 23  1  0
 23 24  2  0
 24 25  1  0
 25 26  2  0
 26 27  1  0
 27 28  2  0
 28 29  1  0
 29 30  2  0
 12  7  1  0
 20 13  1  0
 30 21  1  0
 29 24  1  0
  3 31  1  0
  4 32  1  0
  4 33  1  0
  8 34  1  0
  8 35  1  0
  9 36  1  0
  9 37  1  0
 10 38  1  0
 10 39  1  0
 11 40  1  0
 11 41  1  0
 12 42  1  6
 14 43  1  0
 17 44  1  0
 20 45  1  0
 22 46  1  0
 23 47  1  0
 25 48  1  0
 26 49  1  0
 27 50  1  0
 28 51  1  0
M  END
>  <smiles>  (7) 
O=C(NCC(=O)N1CCCCC1c1cc(F)cc(F)c1)c1ccc2ccccc2n1

>  <score_type>  (7) 
oracle

>  <origin>  (7) 
autodockgpu

>  <m_score__min__energy>  (7) 
-9.0199999999999996

>  <m_primary>  (7) 
energy

>  <rmsd>  (7) 
8.366001999244748

>  <m_score__min__rmsd>  (7) 
8.366001999244748

>  <meeko>  (7) 
{"free_energy": -8.7, "intermolecular_energy": -10.19, "internal_energy": -1.43, "cluster_size": 21, "cluster_id": 1, "rank_in_cluster": 17}

>  <energy>  (7) 
-8.86

>  <cluster_rmsd>  (7) 
0.31

>  <cluster>  (7) 
1

$$$$

     RDKit          3D

 51 54  0  0  0  0  0  0  0  0999 V2000
  140.8870   72.0070  221.6350 O   0  0  0  0  0  0  0  0  0  0  0  0
  140.0350   72.1730  222.5600 C   0  0  0  0  0  0  0  0  0  0  0  0
  139.0270   73.1720  222.3310 N   0  0  0  0  0  0  0  0  0  0  0  0
  139.0910   73.8780  221.0780 C   0  0  0  0  0  0  0  0  0  0  0  0
  138.9520   75.3490  221.2450 C   0  0  0  0  0  0  0  0  0  0  0  0
  137.8430   75.9160  221.4500 O   0  0  0  0  0  0  0  0  0  0  0  0
  140.1220   76.1370  221.1710 N   0  0  0  0  0  0  0  0  0  0  0  0
  141.4380   75.6680  221.5780 C   0  0  0  0  0  0  0  0  0  0  0  0
  142.3130   75.6490  220.3420 C   0  0  0  0  0  0  0  0  0  0  0  0
  142.2590   76.9160  219.5530 C   0  0  0  0  0  0  0  0  0  0  0  0
  140.9020   77.5240  219.4110 C   0  0  0  0  0  0  0  0  0  0  0  0
  140.0720   77.5130  220.6630 C   0  0  2  0  0  0  0  0  0  0  0  0
  140.5480   78.4180  221.7130 C   0  0  0  0  0  0  0  0  0  0  0  0
  141.8430   78.8580  221.8520 C   0  0  0  0  0  0  0  0  0  0  0  0
  142.2540   79.7120  222.8570 C   0  0  0  0  0  0  0  0  0  0  0  0
  143.5500   80.0920  222.9180 F   0  0  0  0  0  0  0  0  0  0  0  0
  141.3030   80.1350  223.7560 C   0  0  0  0  0  0  0  0  0  0  0  0
  139.9820   79.7300  223.6720 C   0  0  0  0  0  0  0  0  0  0  0  0
  139.1270   80.1910  224.5890 F   0  0  0  0  0  0  0  0  0  0  0  0
  139.6310   78.8740  222.6430 C   0  0  0  0  0  0  0  0  0  0  0  0
  140.0570   71.4030  223.7980 C   0  0  0  0  0  0  0  0  0  0  0  0
  139.5210   70.1310  223.7600 C   0  0  0  0  0  0  0  0  0  0  0  0
  139.4850   69.3090  224.8620 C   0  0  0  0  0  0  0  0  0  0  0  0
  140.0170   69.8200  226.0350 C   0  0  0  0  0  0  0  0  0  0  0  0
  139.9780   68.9960  227.1370 C   0  0  0  0  0  0  0  0  0  0  0  0
  140.5060   69.4880  228.3240 C   0  0  0  0  0  0  0  0  0  0  0  0
  141.0370   70.7610  228.3450 C   0  0  0  0  0  0  0  0  0  0  0  0
  141.0750   71.5860  227.2410 C   0  0  0  0  0  0  0  0  0  0  0  0
  140.5470   71.0940  226.0540 C   0  0  0  0  0  0  0  0  0  0  0  0
  140.5730   71.8890  224.9520 N   0  0  0  0  0  0  0  0  0  0  0  0
  138.3050   73.3510  223.0530 H   0  0  0  0  0  0  0  0  0  0  0  0
  140.0607   73.6670  220.6034 H   0  0  0  0  0  0  0  0  0  0  0  0
  138.2523   73.5317  220.4562 H   0  0  0  0  0  0  0  0  0  0  0  0
  141.8639   76.3485  222.3300 H   0  0  0  0  0  0  0  0  0  0  0  0
  141.3725   74.6644  222.0236 H   0  0  0  0  0  0  0  0  0  0  0  0
  143.3536   75.4780  220.6549 H   0  0  0  0  0  0  0  0  0  0  0  0
  141.9353   74.8467  219.6911 H   0  0  0  0  0  0  0  0  0  0  0  0
  142.9107   77.6517  220.0470 H   0  0  0  0  0  0  0  0  0  0  0  0
  142.5820   76.6534  218.5348 H   0  0  0  0  0  0  0  0  0  0  0  0
  141.0272   78.5695  219.0927 H   0  0  0  0  0  0  0  0  0  0  0  0
  140.3623   76.9081  218.6766 H   0  0  0  0  0  0  0  0  0  0  0  0
  139.0598   77.8604  220.4085 H   0  0  0  0  0  0  0  0  0  0  0  0
  142.5917   78.5116  221.1243 H   0  0  0  0  0  0  0  0  0  0  0  0
  141.6013   80.8161  224.5667 H   0  0  0  0  0  0  0  0  0  0  0  0
  138.5848   78.5441  222.5616 H   0  0  0  0  0  0  0  0  0  0  0  0
  139.1064   69.7606  222.8108 H   0  0  0  0  0  0  0  0  0  0  0  0
  139.0557   68.2973  224.8147 H   0  0  0  0  0  0  0  0  0  0  0  0
  139.5452   67.9863  227.0799 H   0  0  0  0  0  0  0  0  0  0  0  0
  140.5007   68.8710  229.2346 H   0  0  0  0  0  0  0  0  0  0  0  0
  141.4517   71.1374  229.2918 H   0  0  0  0  0  0  0  0  0  0  0  0
  141.5072   72.5959  227.2980 H   0  0  0  0  0  0  0  0  0  0  0  0
  1  2  2  0
  2  3  1  0
  3  4  1  0
  4  5  1  0
  5  6  2  0
  5  7  1  0
  7  8  1  0
  8  9  1  0
  9 10  1  0
 10 11  1  0
 11 12  1  0
 12 13  1  0
 13 14  2  0
 14 15  1  0
 15 16  1  0
 15 17  2  0
 17 18  1  0
 18 19  1  0
 18 20  2  0
  2 21  1  0
 21 22  2  0
 22 23  1  0
 23 24  2  0
 24 25  1  0
 25 26  2  0
 26 27  1  0
 27 28  2  0
 28 29  1  0
 29 30  2  0
 12  7  1  0
 20 13  1  0
 30 21  1  0
 29 24  1  0
  3 31  1  0
  4 32  1  0
  4 33  1  0
  8 34  1  0
  8 35  1  0
  9 36  1  0
  9 37  1  0
 10 38  1  0
 10 39  1  0
 11 40  1  0
 11 41  1  0
 12 42  1  6
 14 43  1  0
 17 44  1  0
 20 45  1  0
 22 46  1  0
 23 47  1  0
 25 48  1  0
 26 49  1  0
 27 50  1  0
 28 51  1  0
M  END
>  <smiles>  (8) 
O=C(NCC(=O)N1CCCCC1c1cc(F)cc(F)c1)c1ccc2ccccc2n1

>  <score_type>  (8) 
oracle

>  <origin>  (8) 
autodockgpu

>  <m_score__min__energy>  (8) 
-9.0199999999999996

>  <m_primary>  (8) 
energy

>  <rmsd>  (8) 
2.151461488312751

>  <m_score__min__rmsd>  (8) 
2.151461488312751

>  <meeko>  (8) 
{"free_energy": -8.72, "intermolecular_energy": -10.22, "internal_energy": -1.3, "cluster_size": 26, "cluster_id": 2, "rank_in_cluster": 7}

>  <energy>  (8) 
-8.86

>  <cluster_rmsd>  (8) 
0.95

>  <cluster>  (8) 
1

$$$$

     RDKit          3D

 51 54  0  0  0  0  0  0  0  0999 V2000
  140.7640   74.4060  220.9360 O   0  0  0  0  0  0  0  0  0  0  0  0
  139.8830   74.8960  221.7060 C   0  0  0  0  0  0  0  0  0  0  0  0
  138.8180   74.0160  222.1050 N   0  0  0  0  0  0  0  0  0  0  0  0
  138.8640   72.6730  221.5880 C   0  0  0  0  0  0  0  0  0  0  0  0
  139.7830   71.7970  222.3620 C   0  0  0  0  0  0  0  0  0  0  0  0
  140.9960   71.6320  222.0550 O   0  0  0  0  0  0  0  0  0  0  0  0
  139.2640   71.1240  223.4890 N   0  0  0  0  0  0  0  0  0  0  0  0
  137.9840   71.4470  224.1020 C   0  0  0  0  0  0  0  0  0  0  0  0
  137.0880   70.2350  223.9430 C   0  0  0  0  0  0  0  0  0  0  0  0
  137.7360   68.9560  224.3590 C   0  0  0  0  0  0  0  0  0  0  0  0
  139.1640   68.7990  223.9500 C   0  0  0  0  0  0  0  0  0  0  0  0
  140.0080   70.0290  224.1220 C   0  0  2  0  0  0  0  0  0  0  0  0
  140.2750   70.3890  225.5170 C   0  0  0  0  0  0  0  0  0  0  0  0
  140.9070   71.5380  225.9310 C   0  0  0  0  0  0  0  0  0  0  0  0
  141.1410   71.8430  227.2580 C   0  0  0  0  0  0  0  0  0  0  0  0
  141.7720   72.9970  227.5730 F   0  0  0  0  0  0  0  0  0  0  0  0
  140.7120   70.9390  228.2000 C   0  0  0  0  0  0  0  0  0  0  0  0
  140.0700   69.7640  227.8510 C   0  0  0  0  0  0  0  0  0  0  0  0
  139.6870   68.9440  228.8330 F   0  0  0  0  0  0  0  0  0  0  0  0
  139.8630   69.5140  226.5050 C   0  0  0  0  0  0  0  0  0  0  0  0
  139.9270   76.2760  222.1750 C   0  0  0  0  0  0  0  0  0  0  0  0
  138.7190   76.9190  222.3590 C   0  0  0  0  0  0  0  0  0  0  0  0
  138.6320   78.2200  222.7990 C   0  0  0  0  0  0  0  0  0  0  0  0
  139.8280   78.8700  223.0530 C   0  0  0  0  0  0  0  0  0  0  0  0
  139.7380   80.1720  223.4920 C   0  0  0  0  0  0  0  0  0  0  0  0
  140.9250   80.8440  223.7530 C   0  0  0  0  0  0  0  0  0  0  0  0
  142.1230   80.1870  223.5640 C   0  0  0  0  0  0  0  0  0  0  0  0
  142.2130   78.8830  223.1240 C   0  0  0  0  0  0  0  0  0  0  0  0
  141.0260   78.2120  222.8630 C   0  0  0  0  0  0  0  0  0  0  0  0
  141.0880   76.9250  222.4280 N   0  0  0  0  0  0  0  0  0  0  0  0
  138.0700   74.3640  222.7330 H   0  0  0  0  0  0  0  0  0  0  0  0
  137.8515   72.2448  221.6274 H   0  0  0  0  0  0  0  0  0  0  0  0
  139.2409   72.7245  220.5559 H   0  0  0  0  0  0  0  0  0  0  0  0
  138.1245   71.6735  225.1692 H   0  0  0  0  0  0  0  0  0  0  0  0
  137.5344   72.3287  223.6219 H   0  0  0  0  0  0  0  0  0  0  0  0
  136.1876   70.3848  224.5569 H   0  0  0  0  0  0  0  0  0  0  0  0
  136.8529   70.1450  222.8722 H   0  0  0  0  0  0  0  0  0  0  0  0
  137.6882   68.8924  225.4561 H   0  0  0  0  0  0  0  0  0  0  0  0
  137.1837   68.1552  223.8455 H   0  0  0  0  0  0  0  0  0  0  0  0
  139.6063   67.9934  224.5544 H   0  0  0  0  0  0  0  0  0  0  0  0
  139.1546   68.5785  222.8724 H   0  0  0  0  0  0  0  0  0  0  0  0
  140.9928   69.8371  223.6710 H   0  0  0  0  0  0  0  0  0  0  0  0
  141.2440   72.2520  225.1651 H   0  0  0  0  0  0  0  0  0  0  0  0
  140.8843   71.1563  229.2645 H   0  0  0  0  0  0  0  0  0  0  0  0
  139.3521   68.5853  226.2110 H   0  0  0  0  0  0  0  0  0  0  0  0
  137.7900   76.3699  222.1456 H   0  0  0  0  0  0  0  0  0  0  0  0
  137.6617   78.7182  222.9417 H   0  0  0  0  0  0  0  0  0  0  0  0
  138.7627   80.6614  223.6308 H   0  0  0  0  0  0  0  0  0  0  0  0
  140.9100   81.8859  224.1056 H   0  0  0  0  0  0  0  0  0  0  0  0
  143.0552   80.7315  223.7752 H   0  0  0  0  0  0  0  0  0  0  0  0
  143.1881   78.3933  222.9851 H   0  0  0  0  0  0  0  0  0  0  0  0
  1  2  2  0
  2  3  1  0
  3  4  1  0
  4  5  1  0
  5  6  2  0
  5  7  1  0
  7  8  1  0
  8  9  1  0
  9 10  1  0
 10 11  1  0
 11 12  1  0
 12 13  1  0
 13 14  2  0
 14 15  1  0
 15 16  1  0
 15 17  2  0
 17 18  1  0
 18 19  1  0
 18 20  2  0
  2 21  1  0
 21 22  2  0
 22 23  1  0
 23 24  2  0
 24 25  1  0
 25 26  2  0
 26 27  1  0
 27 28  2  0
 28 29  1  0
 29 30  2  0
 12  7  1  0
 20 13  1  0
 30 21  1  0
 29 24  1  0
  3 31  1  0
  4 32  1  0
  4 33  1  0
  8 34  1  0
  8 35  1  0
  9 36  1  0
  9 37  1  0
 10 38  1  0
 10 39  1  0
 11 40  1  0
 11 41  1  0
 12 42  1  6
 14 43  1  0
 17 44  1  0
 20 45  1  0
 22 46  1  0
 23 47  1  0
 25 48  1  0
 26 49  1  0
 27 50  1  0
 28 51  1  0
M  END
>  <smiles>  (9) 
O=C(NCC(=O)N1CCCCC1c1cc(F)cc(F)c1)c1ccc2ccccc2n1

>  <score_type>  (9) 
oracle

>  <origin>  (9) 
autodockgpu

>  <m_score__min__energy>  (9) 
-9.0199999999999996

>  <m_primary>  (9) 
energy

>  <rmsd>  (9) 
8.193161501429422

>  <m_score__min__rmsd>  (9) 
8.193161501429422

>  <meeko>  (9) 
{"free_energy": -8.91, "intermolecular_energy": -10.4, "internal_energy": -1.26, "cluster_size": 21, "cluster_id": 1, "rank_in_cluster": 3}

>  <energy>  (9) 
-8.84

>  <cluster_rmsd>  (9) 
0.35

>  <cluster>  (9) 
1

$$$$

     RDKit          3D

 51 54  0  0  0  0  0  0  0  0999 V2000
  140.6230   71.9130  221.5670 O   0  0  0  0  0  0  0  0  0  0  0  0
  139.8180   72.0830  222.5310 C   0  0  0  0  0  0  0  0  0  0  0  0
  138.7710   73.0480  222.3300 N   0  0  0  0  0  0  0  0  0  0  0  0
  138.7490   73.7190  221.0560 C   0  0  0  0  0  0  0  0  0  0  0  0
  138.7500   75.2000  221.1920 C   0  0  0  0  0  0  0  0  0  0  0  0
  137.6930   75.8810  221.2930 O   0  0  0  0  0  0  0  0  0  0  0  0
  139.9980   75.8620  221.2090 N   0  0  0  0  0  0  0  0  0  0  0  0
  141.2020   75.2980  221.8000 C   0  0  0  0  0  0  0  0  0  0  0  0
  142.2040   75.1000  220.6820 C   0  0  0  0  0  0  0  0  0  0  0  0
  142.3740   76.3020  219.8130 C   0  0  0  0  0  0  0  0  0  0  0  0
  141.1150   77.0270  219.4700 C   0  0  0  0  0  0  0  0  0  0  0  0
  140.1510   77.1930  220.6110 C   0  0  2  0  0  0  0  0  0  0  0  0
  140.5990   78.1240  221.6500 C   0  0  0  0  0  0  0  0  0  0  0  0
  141.8630   78.6560  221.7470 C   0  0  0  0  0  0  0  0  0  0  0  0
  142.2470   79.5320  222.7430 C   0  0  0  0  0  0  0  0  0  0  0  0
  143.5140   80.0040  222.7600 F   0  0  0  0  0  0  0  0  0  0  0  0
  141.3020   79.8810  223.6780 C   0  0  0  0  0  0  0  0  0  0  0  0
  140.0110   79.3830  223.6380 C   0  0  0  0  0  0  0  0  0  0  0  0
  139.1580   79.7770  224.5870 F   0  0  0  0  0  0  0  0  0  0  0  0
  139.6860   78.5090  222.6150 C   0  0  0  0  0  0  0  0  0  0  0  0
  139.9270   71.3510  223.7880 C   0  0  0  0  0  0  0  0  0  0  0  0
  139.4790   70.0450  223.7980 C   0  0  0  0  0  0  0  0  0  0  0  0
  139.5300   69.2530  224.9210 C   0  0  0  0  0  0  0  0  0  0  0  0
  140.0580   69.8310  226.0640 C   0  0  0  0  0  0  0  0  0  0  0  0
  140.1080   69.0360  227.1870 C   0  0  0  0  0  0  0  0  0  0  0  0
  140.6330   69.5950  228.3450 C   0  0  0  0  0  0  0  0  0  0  0  0
  141.0760   70.9000  228.3180 C   0  0  0  0  0  0  0  0  0  0  0  0
  141.0270   71.6960  227.1930 C   0  0  0  0  0  0  0  0  0  0  0  0
  140.5010   71.1370  226.0350 C   0  0  0  0  0  0  0  0  0  0  0  0
  140.4410   71.9020  224.9130 N   0  0  0  0  0  0  0  0  0  0  0  0
  138.0840   73.2280  223.0850 H   0  0  0  0  0  0  0  0  0  0  0  0
  139.6379   73.4168  220.4828 H   0  0  0  0  0  0  0  0  0  0  0  0
  137.8196   73.4312  220.5428 H   0  0  0  0  0  0  0  0  0  0  0  0
  141.6102   75.9881  222.5531 H   0  0  0  0  0  0  0  0  0  0  0  0
  140.9801   74.3421  222.2971 H   0  0  0  0  0  0  0  0  0  0  0  0
  143.1786   74.8525  221.1281 H   0  0  0  0  0  0  0  0  0  0  0  0
  141.8194   74.2914  220.0431 H   0  0  0  0  0  0  0  0  0  0  0  0
  143.0399   77.0059  220.3337 H   0  0  0  0  0  0  0  0  0  0  0  0
  142.7802   75.9322  218.8600 H   0  0  0  0  0  0  0  0  0  0  0  0
  141.3860   78.0279  219.1029 H   0  0  0  0  0  0  0  0  0  0  0  0
  140.5998   76.4125  218.7170 H   0  0  0  0  0  0  0  0  0  0  0  0
  139.2165   77.6168  220.2146 H   0  0  0  0  0  0  0  0  0  0  0  0
  142.6083   78.3685  220.9908 H   0  0  0  0  0  0  0  0  0  0  0  0
  141.5801   80.5774  224.4828 H   0  0  0  0  0  0  0  0  0  0  0  0
  138.6637   78.1057  222.5678 H   0  0  0  0  0  0  0  0  0  0  0  0
  139.0650   69.6214  222.8711 H   0  0  0  0  0  0  0  0  0  0  0  0
  139.1700   68.2136  224.9122 H   0  0  0  0  0  0  0  0  0  0  0  0
  139.7459   67.9975  227.1678 H   0  0  0  0  0  0  0  0  0  0  0  0
  140.6944   69.0044  229.2710 H   0  0  0  0  0  0  0  0  0  0  0  0
  141.4904   71.3290  229.2423 H   0  0  0  0  0  0  0  0  0  0  0  0
  141.3905   72.7340  227.2118 H   0  0  0  0  0  0  0  0  0  0  0  0
  1  2  2  0
  2  3  1  0
  3  4  1  0
  4  5  1  0
  5  6  2  0
  5  7  1  0
  7  8  1  0
  8  9  1  0
  9 10  1  0
 10 11  1  0
 11 12  1  0
 12 13  1  0
 13 14  2  0
 14 15  1  0
 15 16  1  0
 15 17  2  0
 17 18  1  0
 18 19  1  0
 18 20  2  0
  2 21  1  0
 21 22  2  0
 22 23  1  0
 23 24  2  0
 24 25  1  0
 25 26  2  0
 26 27  1  0
 27 28  2  0
 28 29  1  0
 29 30  2  0
 12  7  1  0
 20 13  1  0
 30 21  1  0
 29 24  1  0
  3 31  1  0
  4 32  1  0
  4 33  1  0
  8 34  1  0
  8 35  1  0
  9 36  1  0
  9 37  1  0
 10 38  1  0
 10 39  1  0
 11 40  1  0
 11 41  1  0
 12 42  1  6
 14 43  1  0
 17 44  1  0
 20 45  1  0
 22 46  1  0
 23 47  1  0
 25 48  1  0
 26 49  1  0
 27 50  1  0
 28 51  1  0
M  END
>  <smiles>  (10) 
O=C(NCC(=O)N1CCCCC1c1cc(F)cc(F)c1)c1ccc2ccccc2n1

>  <score_type>  (10) 
oracle

>  <origin>  (10) 
autodockgpu

>  <m_score__min__energy>  (10) 
-9.0199999999999996

>  <m_primary>  (10) 
energy

>  <rmsd>  (10) 
2.1419322686581337

>  <m_score__min__rmsd>  (10) 
2.1419322686581337

>  <meeko>  (10) 
{"free_energy": -8.6, "intermolecular_energy": -10.09, "internal_energy": -1.43, "cluster_size": 26, "cluster_id": 2, "rank_in_cluster": 13}

>  <energy>  (10) 
-8.83

>  <cluster_rmsd>  (10) 
0.93

>  <cluster>  (10) 
1

$$$$

     RDKit          3D

 51 54  0  0  0  0  0  0  0  0999 V2000
  140.8110   74.4730  221.1290 O   0  0  0  0  0  0  0  0  0  0  0  0
  139.8940   75.0120  221.8200 C   0  0  0  0  0  0  0  0  0  0  0  0
  138.7730   74.1790  222.1610 N   0  0  0  0  0  0  0  0  0  0  0  0
  138.8100   72.8220  221.6810 C   0  0  0  0  0  0  0  0  0  0  0  0
  139.7550   71.9710  222.4520 C   0  0  0  0  0  0  0  0  0  0  0  0
  140.9950   71.9370  222.2190 O   0  0  0  0  0  0  0  0  0  0  0  0
  139.2290   71.1690  223.4880 N   0  0  0  0  0  0  0  0  0  0  0  0
  137.9530   71.4250  224.1370 C   0  0  0  0  0  0  0  0  0  0  0  0
  137.0460   70.2510  223.8310 C   0  0  0  0  0  0  0  0  0  0  0  0
  137.6820   68.9240  224.0860 C   0  0  0  0  0  0  0  0  0  0  0  0
  139.1090   68.8060  223.6590 C   0  0  0  0  0  0  0  0  0  0  0  0
  139.9640   69.9980  223.9810 C   0  0  2  0  0  0  0  0  0  0  0  0
  140.2350   70.1810  225.4090 C   0  0  0  0  0  0  0  0  0  0  0  0
  140.7220   71.3330  225.9810 C   0  0  0  0  0  0  0  0  0  0  0  0
  140.9640   71.4670  227.3350 C   0  0  0  0  0  0  0  0  0  0  0  0
  141.4440   72.6390  227.8100 F   0  0  0  0  0  0  0  0  0  0  0  0
  140.6980   70.3820  228.1360 C   0  0  0  0  0  0  0  0  0  0  0  0
  140.2070   69.1940  227.6240 C   0  0  0  0  0  0  0  0  0  0  0  0
  139.9770   68.1920  228.4770 F   0  0  0  0  0  0  0  0  0  0  0  0
  139.9830   69.1200  226.2600 C   0  0  0  0  0  0  0  0  0  0  0  0
  139.9520   76.4020  222.2590 C   0  0  0  0  0  0  0  0  0  0  0  0
  138.7500   77.0480  222.4690 C   0  0  0  0  0  0  0  0  0  0  0  0
  138.6760   78.3580  222.8830 C   0  0  0  0  0  0  0  0  0  0  0  0
  139.8800   79.0140  223.0850 C   0  0  0  0  0  0  0  0  0  0  0  0
  139.8020   80.3250  223.4990 C   0  0  0  0  0  0  0  0  0  0  0  0
  140.9960   81.0020  223.7060 C   0  0  0  0  0  0  0  0  0  0  0  0
  142.1880   80.3420  223.4920 C   0  0  0  0  0  0  0  0  0  0  0  0
  142.2650   79.0300  223.0770 C   0  0  0  0  0  0  0  0  0  0  0  0
  141.0710   78.3520  222.8690 C   0  0  0  0  0  0  0  0  0  0  0  0
  141.1200   77.0570  222.4590 N   0  0  0  0  0  0  0  0  0  0  0  0
  137.9940   74.5670  222.7240 H   0  0  0  0  0  0  0  0  0  0  0  0
  137.8010   72.3915  221.7620 H   0  0  0  0  0  0  0  0  0  0  0  0
  139.1568   72.8459  220.6374 H   0  0  0  0  0  0  0  0  0  0  0  0
  138.0956   71.5168  225.2238 H   0  0  0  0  0  0  0  0  0  0  0  0
  137.5115   72.3632  223.7696 H   0  0  0  0  0  0  0  0  0  0  0  0
  136.1469   70.3326  224.4595 H   0  0  0  0  0  0  0  0  0  0  0  0
  136.8103   70.2957  222.7575 H   0  0  0  0  0  0  0  0  0  0  0  0
  137.6335   68.7263  225.1670 H   0  0  0  0  0  0  0  0  0  0  0  0
  137.1223   68.1973  223.4789 H   0  0  0  0  0  0  0  0  0  0  0  0
  139.5441   67.9279  224.1587 H   0  0  0  0  0  0  0  0  0  0  0  0
  139.0977   68.7205  222.5624 H   0  0  0  0  0  0  0  0  0  0  0  0
  140.9474   69.8547  223.5094 H   0  0  0  0  0  0  0  0  0  0  0  0
  140.9297   72.1925  225.3267 H   0  0  0  0  0  0  0  0  0  0  0  0
  140.8812   70.4607  229.2178 H   0  0  0  0  0  0  0  0  0  0  0  0
  139.5903   68.1834  225.8374 H   0  0  0  0  0  0  0  0  0  0  0  0
  137.8152   76.4938  222.2987 H   0  0  0  0  0  0  0  0  0  0  0  0
  137.7104   78.8592  223.0454 H   0  0  0  0  0  0  0  0  0  0  0  0
  138.8312   80.8167  223.6594 H   0  0  0  0  0  0  0  0  0  0  0  0
  140.9916   82.0512  224.0364 H   0  0  0  0  0  0  0  0  0  0  0  0
  143.1259   80.8913  223.6614 H   0  0  0  0  0  0  0  0  0  0  0  0
  143.2358   78.5383  222.9165 H   0  0  0  0  0  0  0  0  0  0  0  0
  1  2  2  0
  2  3  1  0
  3  4  1  0
  4  5  1  0
  5  6  2  0
  5  7  1  0
  7  8  1  0
  8  9  1  0
  9 10  1  0
 10 11  1  0
 11 12  1  0
 12 13  1  0
 13 14  2  0
 14 15  1  0
 15 16  1  0
 15 17  2  0
 17 18  1  0
 18 19  1  0
 18 20  2  0
  2 21  1  0
 21 22  2  0
 22 23  1  0
 23 24  2  0
 24 25  1  0
 25 26  2  0
 26 27  1  0
 27 28  2  0
 28 29  1  0
 29 30  2  0
 12  7  1  0
 20 13  1  0
 30 21  1  0
 29 24  1  0
  3 31  1  0
  4 32  1  0
  4 33  1  0
  8 34  1  0
  8 35  1  0
  9 36  1  0
  9 37  1  0
 10 38  1  0
 10 39  1  0
 11 40  1  0
 11 41  1  0
 12 42  1  6
 14 43  1  0
 17 44  1  0
 20 45  1  0
 22 46  1  0
 23 47  1  0
 25 48  1  0
 26 49  1  0
 27 50  1  0
 28 51  1  0
M  END
>  <smiles>  (11) 
O=C(NCC(=O)N1CCCCC1c1cc(F)cc(F)c1)c1ccc2ccccc2n1

>  <score_type>  (11) 
oracle

>  <origin>  (11) 
autodockgpu

>  <m_score__min__energy>  (11) 
-9.0199999999999996

>  <m_primary>  (11) 
energy

>  <rmsd>  (11) 
8.238468554285573

>  <m_score__min__rmsd>  (11) 
8.238468554285573

>  <meeko>  (11) 
{"free_energy": -8.86, "intermolecular_energy": -10.35, "internal_energy": -1.26, "cluster_size": 21, "cluster_id": 1, "rank_in_cluster": 7}

>  <energy>  (11) 
-8.79

>  <cluster_rmsd>  (11) 
0.98

>  <cluster>  (11) 
1

$$$$

     RDKit          3D

 51 54  0  0  0  0  0  0  0  0999 V2000
  137.4430   75.7330  222.7000 O   0  0  0  0  0  0  0  0  0  0  0  0
  138.6740   75.9770  222.5170 C   0  0  0  0  0  0  0  0  0  0  0  0
  139.4950   74.8680  222.1120 N   0  0  0  0  0  0  0  0  0  0  0  0
  138.8330   73.5990  221.9590 C   0  0  0  0  0  0  0  0  0  0  0  0
  139.7010   72.4540  222.3460 C   0  0  0  0  0  0  0  0  0  0  0  0
  140.8920   72.3300  221.9490 O   0  0  0  0  0  0  0  0  0  0  0  0
  139.1560   71.4680  223.1980 N   0  0  0  0  0  0  0  0  0  0  0  0
  137.8080   71.5290  223.7420 C   0  0  0  0  0  0  0  0  0  0  0  0
  137.0400   70.3510  223.1790 C   0  0  0  0  0  0  0  0  0  0  0  0
  137.7640   69.0510  223.3060 C   0  0  0  0  0  0  0  0  0  0  0  0
  139.2280   69.1040  223.0160 C   0  0  0  0  0  0  0  0  0  0  0  0
  139.9430   70.2930  223.5910 C   0  0  2  0  0  0  0  0  0  0  0  0
  140.0650   70.2790  225.0500 C   0  0  0  0  0  0  0  0  0  0  0  0
  139.7460   69.2150  225.8610 C   0  0  0  0  0  0  0  0  0  0  0  0
  139.8760   69.2390  227.2360 C   0  0  0  0  0  0  0  0  0  0  0  0
  139.5360   68.1450  227.9550 F   0  0  0  0  0  0  0  0  0  0  0  0
  140.3510   70.3960  227.8070 C   0  0  0  0  0  0  0  0  0  0  0  0
  140.6920   71.5030  227.0480 C   0  0  0  0  0  0  0  0  0  0  0  0
  141.1460   72.5840  227.6870 F   0  0  0  0  0  0  0  0  0  0  0  0
  140.5400   71.4180  225.6750 C   0  0  0  0  0  0  0  0  0  0  0  0
  139.2490   77.3050  222.6990 C   0  0  0  0  0  0  0  0  0  0  0  0
  138.3700   78.3630  222.8200 C   0  0  0  0  0  0  0  0  0  0  0  0
  138.7920   79.6600  222.9970 C   0  0  0  0  0  0  0  0  0  0  0  0
  140.1610   79.8660  223.0480 C   0  0  0  0  0  0  0  0  0  0  0  0
  140.5810   81.1650  223.2240 C   0  0  0  0  0  0  0  0  0  0  0  0
  141.9490   81.3950  223.2780 C   0  0  0  0  0  0  0  0  0  0  0  0
  142.8140   80.3270  223.1550 C   0  0  0  0  0  0  0  0  0  0  0  0
  142.3930   79.0260  222.9790 C   0  0  0  0  0  0  0  0  0  0  0  0
  141.0250   78.7960  222.9250 C   0  0  0  0  0  0  0  0  0  0  0  0
  140.5850   77.5220  222.7510 N   0  0  0  0  0  0  0  0  0  0  0  0
  140.5080   75.0100  221.9480 H   0  0  0  0  0  0  0  0  0  0  0  0
  137.9345   73.5909  222.5935 H   0  0  0  0  0  0  0  0  0  0  0  0
  138.5777   73.4809  220.8956 H   0  0  0  0  0  0  0  0  0  0  0  0
  137.8421   71.4659  224.8397 H   0  0  0  0  0  0  0  0  0  0  0  0
  137.3211   72.4769  223.4693 H   0  0  0  0  0  0  0  0  0  0  0  0
  136.0834   70.2705  223.7161 H   0  0  0  0  0  0  0  0  0  0  0  0
  136.9010   70.5398  222.1043 H   0  0  0  0  0  0  0  0  0  0  0  0
  137.6348   68.6895  224.3368 H   0  0  0  0  0  0  0  0  0  0  0  0
  137.3279   68.3849  222.5470 H   0  0  0  0  0  0  0  0  0  0  0  0
  139.6911   68.1949  223.4272 H   0  0  0  0  0  0  0  0  0  0  0  0
  139.3237   69.1848  221.9232 H   0  0  0  0  0  0  0  0  0  0  0  0
  140.9739   70.2938  223.2072 H   0  0  0  0  0  0  0  0  0  0  0  0
  139.3672   68.2961  225.3896 H   0  0  0  0  0  0  0  0  0  0  0  0
  140.4636   70.4438  228.9002 H   0  0  0  0  0  0  0  0  0  0  0  0
  140.8068   72.2885  225.0578 H   0  0  0  0  0  0  0  0  0  0  0  0
  137.2898   78.1606  222.7730 H   0  0  0  0  0  0  0  0  0  0  0  0
  138.0786   80.4917  223.0932 H   0  0  0  0  0  0  0  0  0  0  0  0
  139.8596   81.9900  223.3183 H   0  0  0  0  0  0  0  0  0  0  0  0
  142.3380   82.4145  223.4169 H   0  0  0  0  0  0  0  0  0  0  0  0
  143.8953   80.5238  223.1997 H   0  0  0  0  0  0  0  0  0  0  0  0
  143.1143   78.2009  222.8849 H   0  0  0  0  0  0  0  0  0  0  0  0
  1  2  2  0
  2  3  1  0
  3  4  1  0
  4  5  1  0
  5  6  2  0
  5  7  1  0
  7  8  1  0
  8  9  1  0
  9 10  1  0
 10 11  1  0
 11 12  1  0
 12 13  1  0
 13 14  2  0
 14 15  1  0
 15 16  1  0
 15 17  2  0
 17 18  1  0
 18 19  1  0
 18 20  2  0
  2 21  1  0
 21 22  2  0
 22 23  1  0
 23 24  2  0
 24 25  1  0
 25 26  2  0
 26 27  1  0
 27 28  2  0
 28 29  1  0
 29 30  2  0
 12  7  1  0
 20 13  1  0
 30 21  1  0
 29 24  1  0
  3 31  1  0
  4 32  1  0
  4 33  1  0
  8 34  1  0
  8 35  1  0
  9 36  1  0
  9 37  1  0
 10 38  1  0
 10 39  1  0
 11 40  1  0
 11 41  1  0
 12 42  1  6
 14 43  1  0
 17 44  1  0
 20 45  1  0
 22 46  1  0
 23 47  1  0
 25 48  1  0
 26 49  1  0
 27 50  1  0
 28 51  1  0
M  END
>  <smiles>  (12) 
O=C(NCC(=O)N1CCCCC1c1cc(F)cc(F)c1)c1ccc2ccccc2n1

>  <score_type>  (12) 
oracle

>  <origin>  (12) 
autodockgpu

>  <m_score__min__energy>  (12) 
-9.0199999999999996

>  <m_primary>  (12) 
energy

>  <rmsd>  (12) 
8.481620165821903

>  <m_score__min__rmsd>  (12) 
8.481620165821903

>  <meeko>  (12) 
{"free_energy": -8.19, "intermolecular_energy": -9.69, "internal_energy": -1.58, "cluster_size": 21, "cluster_id": 1, "rank_in_cluster": 21}

>  <energy>  (12) 
-8.78

>  <cluster_rmsd>  (12) 
0.93

>  <cluster>  (12) 
1

$$$$

     RDKit          3D

 51 54  0  0  0  0  0  0  0  0999 V2000
  140.3240   74.4480  220.1870 O   0  0  0  0  0  0  0  0  0  0  0  0
  140.1590   75.0990  221.2620 C   0  0  0  0  0  0  0  0  0  0  0  0
  139.3580   74.4690  222.2770 N   0  0  0  0  0  0  0  0  0  0  0  0
  138.8300   73.1670  221.9650 C   0  0  0  0  0  0  0  0  0  0  0  0
  139.6900   72.0660  222.4760 C   0  0  0  0  0  0  0  0  0  0  0  0
  140.8440   71.8300  222.0230 O   0  0  0  0  0  0  0  0  0  0  0  0
  139.1810   71.2560  223.5150 N   0  0  0  0  0  0  0  0  0  0  0  0
  137.8690   71.4460  224.1160 C   0  0  0  0  0  0  0  0  0  0  0  0
  137.0490   70.2090  223.8100 C   0  0  0  0  0  0  0  0  0  0  0  0
  137.7590   68.9320  224.1180 C   0  0  0  0  0  0  0  0  0  0  0  0
  139.2030   68.8950  223.7410 C   0  0  0  0  0  0  0  0  0  0  0  0
  139.9710   70.1460  224.0600 C   0  0  2  0  0  0  0  0  0  0  0  0
  140.1810   70.3790  225.4910 C   0  0  0  0  0  0  0  0  0  0  0  0
  139.7900   69.5290  226.4980 C   0  0  0  0  0  0  0  0  0  0  0  0
  140.0060   69.7840  227.8390 C   0  0  0  0  0  0  0  0  0  0  0  0
  139.5860   68.8890  228.7620 F   0  0  0  0  0  0  0  0  0  0  0  0
  140.6480   70.9560  228.1640 C   0  0  0  0  0  0  0  0  0  0  0  0
  141.0680   71.8550  227.1990 C   0  0  0  0  0  0  0  0  0  0  0  0
  141.6840   72.9680  227.6070 F   0  0  0  0  0  0  0  0  0  0  0  0
  140.8230   71.5430  225.8730 C   0  0  0  0  0  0  0  0  0  0  0  0
  140.7400   76.4190  221.4810 C   0  0  0  0  0  0  0  0  0  0  0  0
  141.1800   77.1070  220.3680 C   0  0  0  0  0  0  0  0  0  0  0  0
  141.7450   78.3590  220.4470 C   0  0  0  0  0  0  0  0  0  0  0  0
  141.8560   78.9110  221.7130 C   0  0  0  0  0  0  0  0  0  0  0  0
  142.4220   80.1640  221.7890 C   0  0  0  0  0  0  0  0  0  0  0  0
  142.5440   80.7360  223.0480 C   0  0  0  0  0  0  0  0  0  0  0  0
  142.0990   80.0350  224.1500 C   0  0  0  0  0  0  0  0  0  0  0  0
  141.5320   78.7810  224.0730 C   0  0  0  0  0  0  0  0  0  0  0  0
  141.4100   78.2080  222.8140 C   0  0  0  0  0  0  0  0  0  0  0  0
  140.8550   76.9710  222.7120 N   0  0  0  0  0  0  0  0  0  0  0  0
  139.1890   74.9560  223.1760 H   0  0  0  0  0  0  0  0  0  0  0  0
  137.8316   73.0736  222.4172 H   0  0  0  0  0  0  0  0  0  0  0  0
  138.7879   73.0772  220.8695 H   0  0  0  0  0  0  0  0  0  0  0  0
  137.9683   71.5720  225.2042 H   0  0  0  0  0  0  0  0  0  0  0  0
  137.3822   72.3455  223.7113 H   0  0  0  0  0  0  0  0  0  0  0  0
  136.1259   70.2468  224.4071 H   0  0  0  0  0  0  0  0  0  0  0  0
  136.8472   70.2141  222.7287 H   0  0  0  0  0  0  0  0  0  0  0  0
  137.6866   68.7562  225.2014 H   0  0  0  0  0  0  0  0  0  0  0  0
  137.2673   68.1578  223.5106 H   0  0  0  0  0  0  0  0  0  0  0  0
  139.6749   68.0581  224.2767 H   0  0  0  0  0  0  0  0  0  0  0  0
  139.2341   68.7838  222.6471 H   0  0  0  0  0  0  0  0  0  0  0  0
  140.9767   70.0542  223.6238 H   0  0  0  0  0  0  0  0  0  0  0  0
  139.2776   68.5957  226.2216 H   0  0  0  0  0  0  0  0  0  0  0  0
  140.8334   71.1861  229.2236 H   0  0  0  0  0  0  0  0  0  0  0  0
  141.1511   72.2469  225.0940 H   0  0  0  0  0  0  0  0  0  0  0  0
  141.0748   76.6359  219.3795 H   0  0  0  0  0  0  0  0  0  0  0  0
  142.0910   78.8945  219.5506 H   0  0  0  0  0  0  0  0  0  0  0  0
  142.7644   80.6916  220.8865 H   0  0  0  0  0  0  0  0  0  0  0  0
  142.9895   81.7348  223.1655 H   0  0  0  0  0  0  0  0  0  0  0  0
  142.2020   80.5009  225.1411 H   0  0  0  0  0  0  0  0  0  0  0  0
  141.1889   78.2537  224.9754 H   0  0  0  0  0  0  0  0  0  0  0  0
  1  2  2  0
  2  3  1  0
  3  4  1  0
  4  5  1  0
  5  6  2  0
  5  7  1  0
  7  8  1  0
  8  9  1  0
  9 10  1  0
 10 11  1  0
 11 12  1  0
 12 13  1  0
 13 14  2  0
 14 15  1  0
 15 16  1  0
 15 17  2  0
 17 18  1  0
 18 19  1  0
 18 20  2  0
  2 21  1  0
 21 22  2  0
 22 23  1  0
 23 24  2  0
 24 25  1  0
 25 26  2  0
 26 27  1  0
 27 28  2  0
 28 29  1  0
 29 30  2  0
 12  7  1  0
 20 13  1  0
 30 21  1  0
 29 24  1  0
  3 31  1  0
  4 32  1  0
  4 33  1  0
  8 34  1  0
  8 35  1  0
  9 36  1  0
  9 37  1  0
 10 38  1  0
 10 39  1  0
 11 40  1  0
 11 41  1  0
 12 42  1  6
 14 43  1  0
 17 44  1  0
 20 45  1  0
 22 46  1  0
 23 47  1  0
 25 48  1  0
 26 49  1  0
 27 50  1  0
 28 51  1  0
M  END
>  <smiles>  (13) 
O=C(NCC(=O)N1CCCCC1c1cc(F)cc(F)c1)c1ccc2ccccc2n1

>  <score_type>  (13) 
oracle

>  <origin>  (13) 
autodockgpu

>  <m_score__min__energy>  (13) 
-9.0199999999999996

>  <m_primary>  (13) 
energy

>  <rmsd>  (13) 
8.358124699920262

>  <m_score__min__rmsd>  (13) 
8.358124699920262

>  <meeko>  (13) 
{"free_energy": -8.9, "intermolecular_energy": -10.4, "internal_energy": -1.45, "cluster_size": 21, "cluster_id": 1, "rank_in_cluster": 5}

>  <energy>  (13) 
-8.77

>  <cluster_rmsd>  (13) 
0.95

>  <cluster>  (13) 
1

$$$$

     RDKit          3D

 51 54  0  0  0  0  0  0  0  0999 V2000
  140.8260   71.6020  221.4380 O   0  0  0  0  0  0  0  0  0  0  0  0
  140.2060   72.0660  222.4420 C   0  0  0  0  0  0  0  0  0  0  0  0
  139.5610   73.3390  222.2660 N   0  0  0  0  0  0  0  0  0  0  0  0
  139.6890   73.9520  220.9690 C   0  0  0  0  0  0  0  0  0  0  0  0
  139.3510   75.4010  220.9890 C   0  0  0  0  0  0  0  0  0  0  0  0
  138.1800   75.8310  221.1780 O   0  0  0  0  0  0  0  0  0  0  0  0
  140.3980   76.3270  220.7860 N   0  0  0  0  0  0  0  0  0  0  0  0
  141.8070   75.9650  220.7880 C   0  0  0  0  0  0  0  0  0  0  0  0
  142.3460   76.2400  219.3990 C   0  0  0  0  0  0  0  0  0  0  0  0
  141.9950   77.5960  218.8800 C   0  0  0  0  0  0  0  0  0  0  0  0
  140.6000   78.0490  219.1660 C   0  0  0  0  0  0  0  0  0  0  0  0
  140.1110   77.7480  220.5540 C   0  0  2  0  0  0  0  0  0  0  0  0
  140.7580   78.5340  221.6070 C   0  0  0  0  0  0  0  0  0  0  0  0
  141.0230   78.0870  222.8800 C   0  0  0  0  0  0  0  0  0  0  0  0
  141.6360   78.8590  223.8470 C   0  0  0  0  0  0  0  0  0  0  0  0
  141.8570   78.3360  225.0740 F   0  0  0  0  0  0  0  0  0  0  0  0
  141.9930   80.1410  223.5010 C   0  0  0  0  0  0  0  0  0  0  0  0
  141.7550   80.6530  222.2370 C   0  0  0  0  0  0  0  0  0  0  0  0
  142.1360   81.9090  221.9890 F   0  0  0  0  0  0  0  0  0  0  0  0
  141.1380   79.8300  221.3100 C   0  0  0  0  0  0  0  0  0  0  0  0
  140.1350   71.3630  223.7180 C   0  0  0  0  0  0  0  0  0  0  0  0
  139.5170   70.1280  223.7250 C   0  0  0  0  0  0  0  0  0  0  0  0
  139.3900   69.3710  224.8660 C   0  0  0  0  0  0  0  0  0  0  0  0
  139.9160   69.9080  226.0300 C   0  0  0  0  0  0  0  0  0  0  0  0
  139.7870   69.1470  227.1700 C   0  0  0  0  0  0  0  0  0  0  0  0
  140.3070   69.6670  228.3480 C   0  0  0  0  0  0  0  0  0  0  0  0
  140.9200   70.9010  228.3240 C   0  0  0  0  0  0  0  0  0  0  0  0
  141.0500   71.6630  227.1810 C   0  0  0  0  0  0  0  0  0  0  0  0
  140.5300   71.1430  226.0030 C   0  0  0  0  0  0  0  0  0  0  0  0
  140.6440   71.8750  224.8630 N   0  0  0  0  0  0  0  0  0  0  0  0
  139.0400   73.7660  223.0530 H   0  0  0  0  0  0  0  0  0  0  0  0
  140.7274   73.8365  220.6249 H   0  0  0  0  0  0  0  0  0  0  0  0
  138.9811   73.4525  220.2913 H   0  0  0  0  0  0  0  0  0  0  0  0
  142.3499   76.5703  221.5289 H   0  0  0  0  0  0  0  0  0  0  0  0
  141.9359   74.9051  221.0524 H   0  0  0  0  0  0  0  0  0  0  0  0
  143.4420   76.1512  219.4272 H   0  0  0  0  0  0  0  0  0  0  0  0
  141.8846   75.5057  218.7223 H   0  0  0  0  0  0  0  0  0  0  0  0
  142.6871   78.3221  219.3314 H   0  0  0  0  0  0  0  0  0  0  0  0
  142.0750   77.5321  217.7848 H   0  0  0  0  0  0  0  0  0  0  0  0
  140.5567   79.1380  219.0168 H   0  0  0  0  0  0  0  0  0  0  0  0
  139.9466   77.4900  218.4800 H   0  0  0  0  0  0  0  0  0  0  0  0
  139.0425   78.0042  220.6063 H   0  0  0  0  0  0  0  0  0  0  0  0
  140.7310   77.0594  223.1422 H   0  0  0  0  0  0  0  0  0  0  0  0
  142.4826   80.7792  224.2514 H   0  0  0  0  0  0  0  0  0  0  0  0
  140.9430   80.2214  220.3006 H   0  0  0  0  0  0  0  0  0  0  0  0
  139.1107   69.7347  222.7815 H   0  0  0  0  0  0  0  0  0  0  0  0
  138.8956   68.3884  224.8552 H   0  0  0  0  0  0  0  0  0  0  0  0
  139.2913   68.1653  227.1486 H   0  0  0  0  0  0  0  0  0  0  0  0
  140.2306   69.1012  229.2882 H   0  0  0  0  0  0  0  0  0  0  0  0
  141.3269   71.2993  229.2652 H   0  0  0  0  0  0  0  0  0  0  0  0
  141.5464   72.6444  227.2021 H   0  0  0  0  0  0  0  0  0  0  0  0
  1  2  2  0
  2  3  1  0
  3  4  1  0
  4  5  1  0
  5  6  2  0
  5  7  1  0
  7  8  1  0
  8  9  1  0
  9 10  1  0
 10 11  1  0
 11 12  1  0
 12 13  1  0
 13 14  2  0
 14 15  1  0
 15 16  1  0
 15 17  2  0
 17 18  1  0
 18 19  1  0
 18 20  2  0
  2 21  1  0
 21 22  2  0
 22 23  1  0
 23 24  2  0
 24 25  1  0
 25 26  2  0
 26 27  1  0
 27 28  2  0
 28 29  1  0
 29 30  2  0
 12  7  1  0
 20 13  1  0
 30 21  1  0
 29 24  1  0
  3 31  1  0
  4 32  1  0
  4 33  1  0
  8 34  1  0
  8 35  1  0
  9 36  1  0
  9 37  1  0
 10 38  1  0
 10 39  1  0
 11 40  1  0
 11 41  1  0
 12 42  1  6
 14 43  1  0
 17 44  1  0
 20 45  1  0
 22 46  1  0
 23 47  1  0
 25 48  1  0
 26 49  1  0
 27 50  1  0
 28 51  1  0
M  END
>  <smiles>  (14) 
O=C(NCC(=O)N1CCCCC1c1cc(F)cc(F)c1)c1ccc2ccccc2n1

>  <score_type>  (14) 
oracle

>  <origin>  (14) 
autodockgpu

>  <m_score__min__energy>  (14) 
-9.0199999999999996

>  <m_primary>  (14) 
energy

>  <rmsd>  (14) 
2.085830294436477

>  <m_score__min__rmsd>  (14) 
2.085830294436477

>  <meeko>  (14) 
{"free_energy": -8.66, "intermolecular_energy": -10.15, "internal_energy": -1.3, "cluster_size": 26, "cluster_id": 2, "rank_in_cluster": 10}

>  <energy>  (14) 
-8.76

>  <cluster_rmsd>  (14) 
0.93

>  <cluster>  (14) 
1

$$$$

     RDKit          3D

 51 54  0  0  0  0  0  0  0  0999 V2000
  138.5730   72.0160  222.3060 O   0  0  0  0  0  0  0  0  0  0  0  0
  139.6810   71.6750  222.8210 C   0  0  0  0  0  0  0  0  0  0  0  0
  140.8660   72.2180  222.2130 N   0  0  0  0  0  0  0  0  0  0  0  0
  140.6690   73.0910  221.0850 C   0  0  0  0  0  0  0  0  0  0  0  0
  140.2460   74.4590  221.4910 C   0  0  0  0  0  0  0  0  0  0  0  0
  139.3540   74.6730  222.3570 O   0  0  0  0  0  0  0  0  0  0  0  0
  140.8810   75.5580  220.8720 N   0  0  0  0  0  0  0  0  0  0  0  0
  142.2790   75.5600  220.4680 C   0  0  0  0  0  0  0  0  0  0  0  0
  142.3130   75.6920  218.9600 C   0  0  0  0  0  0  0  0  0  0  0  0
  141.4550   76.7970  218.4370 C   0  0  0  0  0  0  0  0  0  0  0  0
  140.1230   76.9390  219.0980 C   0  0  0  0  0  0  0  0  0  0  0  0
  140.1410   76.7950  220.5930 C   0  0  2  0  0  0  0  0  0  0  0  0
  140.7940   77.9000  221.3000 C   0  0  0  0  0  0  0  0  0  0  0  0
  141.1760   79.0900  220.7270 C   0  0  0  0  0  0  0  0  0  0  0  0
  141.7900   80.1100  221.4290 C   0  0  0  0  0  0  0  0  0  0  0  0
  142.1330   81.2480  220.7830 F   0  0  0  0  0  0  0  0  0  0  0  0
  142.0220   79.9070  222.7680 C   0  0  0  0  0  0  0  0  0  0  0  0
  141.6610   78.7320  223.4060 C   0  0  0  0  0  0  0  0  0  0  0  0
  141.9250   78.6220  224.7100 F   0  0  0  0  0  0  0  0  0  0  0  0
  141.0490   77.7470  222.6500 C   0  0  0  0  0  0  0  0  0  0  0  0
  139.7740   70.7800  223.9690 C   0  0  0  0  0  0  0  0  0  0  0  0
  139.2050   69.5280  223.8410 C   0  0  0  0  0  0  0  0  0  0  0  0
  139.2280   68.5970  224.8530 C   0  0  0  0  0  0  0  0  0  0  0  0
  139.8580   68.9740  226.0290 C   0  0  0  0  0  0  0  0  0  0  0  0
  139.8800   68.0410  227.0400 C   0  0  0  0  0  0  0  0  0  0  0  0
  140.5050   68.3970  228.2280 C   0  0  0  0  0  0  0  0  0  0  0  0
  141.0670   69.6520  228.3390 C   0  0  0  0  0  0  0  0  0  0  0  0
  141.0460   70.5860  227.3250 C   0  0  0  0  0  0  0  0  0  0  0  0
  140.4200   70.2290  226.1380 C   0  0  0  0  0  0  0  0  0  0  0  0
  140.3850   71.1340  225.1240 N   0  0  0  0  0  0  0  0  0  0  0  0
  141.7980   71.9730  222.5930 H   0  0  0  0  0  0  0  0  0  0  0  0
  141.6139   73.1649  220.5267 H   0  0  0  0  0  0  0  0  0  0  0  0
  139.8667   72.6625  220.4664 H   0  0  0  0  0  0  0  0  0  0  0  0
  142.8034   76.4084  220.9318 H   0  0  0  0  0  0  0  0  0  0  0  0
  142.7778   74.6335  220.7887 H   0  0  0  0  0  0  0  0  0  0  0  0
  143.3514   75.8820  218.6509 H   0  0  0  0  0  0  0  0  0  0  0  0
  141.9181   74.7529  218.5450 H   0  0  0  0  0  0  0  0  0  0  0  0
  142.0017   77.7425  218.5677 H   0  0  0  0  0  0  0  0  0  0  0  0
  141.2477   76.5492  217.3855 H   0  0  0  0  0  0  0  0  0  0  0  0
  139.7255   77.9356  218.8554 H   0  0  0  0  0  0  0  0  0  0  0  0
  139.4996   76.1171  218.7161 H   0  0  0  0  0  0  0  0  0  0  0  0
  139.1010   76.7868  220.9511 H   0  0  0  0  0  0  0  0  0  0  0  0
  140.9829   79.2379  219.6542 H   0  0  0  0  0  0  0  0  0  0  0  0
  142.5095   80.7022  223.3511 H   0  0  0  0  0  0  0  0  0  0  0  0
  140.7548   76.8080  223.1416 H   0  0  0  0  0  0  0  0  0  0  0  0
  138.7141   69.2652  222.8923 H   0  0  0  0  0  0  0  0  0  0  0  0
  138.7699   67.6039  224.7353 H   0  0  0  0  0  0  0  0  0  0  0  0
  139.4198   67.0501  226.9121 H   0  0  0  0  0  0  0  0  0  0  0  0
  140.5513   67.6886  229.0682 H   0  0  0  0  0  0  0  0  0  0  0  0
  141.5575   69.9216  229.2860 H   0  0  0  0  0  0  0  0  0  0  0  0
  141.5076   71.5764  227.4515 H   0  0  0  0  0  0  0  0  0  0  0  0
  1  2  2  0
  2  3  1  0
  3  4  1  0
  4  5  1  0
  5  6  2  0
  5  7  1  0
  7  8  1  0
  8  9  1  0
  9 10  1  0
 10 11  1  0
 11 12  1  0
 12 13  1  0
 13 14  2  0
 14 15  1  0
 15 16  1  0
 15 17  2  0
 17 18  1  0
 18 19  1  0
 18 20  2  0
  2 21  1  0
 21 22  2  0
 22 23  1  0
 23 24  2  0
 24 25  1  0
 25 26  2  0
 26 27  1  0
 27 28  2  0
 28 29  1  0
 29 30  2  0
 12  7  1  0
 20 13  1  0
 30 21  1  0
 29 24  1  0
  3 31  1  0
  4 32  1  0
  4 33  1  0
  8 34  1  0
  8 35  1  0
  9 36  1  0
  9 37  1  0
 10 38  1  0
 10 39  1  0
 11 40  1  0
 11 41  1  0
 12 42  1  1
 14 43  1  0
 17 44  1  0
 20 45  1  0
 22 46  1  0
 23 47  1  0
 25 48  1  0
 26 49  1  0
 27 50  1  0
 28 51  1  0
M  END
>  <smiles>  (15) 
O=C(NCC(=O)N1CCCCC1c1cc(F)cc(F)c1)c1ccc2ccccc2n1

>  <score_type>  (15) 
oracle

>  <origin>  (15) 
autodockgpu

>  <m_score__min__energy>  (15) 
-9.0199999999999996

>  <m_primary>  (15) 
energy

>  <rmsd>  (15) 
2.134985844911812

>  <m_score__min__rmsd>  (15) 
2.134985844911812

>  <meeko>  (15) 
{"free_energy": -8.31, "intermolecular_energy": -9.8, "internal_energy": -1.29, "cluster_size": 26, "cluster_id": 2, "rank_in_cluster": 25}

>  <energy>  (15) 
-8.74

>  <cluster_rmsd>  (15) 
0.96

>  <cluster>  (15) 
1

$$$$

     RDKit          3D

 51 54  0  0  0  0  0  0  0  0999 V2000
  140.8040   71.6100  221.3930 O   0  0  0  0  0  0  0  0  0  0  0  0
  140.3180   72.1400  222.4380 C   0  0  0  0  0  0  0  0  0  0  0  0
  139.9020   73.5120  222.3260 N   0  0  0  0  0  0  0  0  0  0  0  0
  140.0810   74.1380  221.0420 C   0  0  0  0  0  0  0  0  0  0  0  0
  141.4930   74.5360  220.7950 C   0  0  0  0  0  0  0  0  0  0  0  0
  142.4630   73.7370  220.9120 O   0  0  0  0  0  0  0  0  0  0  0  0
  141.7470   75.8720  220.4140 N   0  0  0  0  0  0  0  0  0  0  0  0
  143.0450   76.3470  219.9580 C   0  0  0  0  0  0  0  0  0  0  0  0
  142.8830   76.7910  218.5190 C   0  0  0  0  0  0  0  0  0  0  0  0
  141.7150   77.6950  218.3000 C   0  0  0  0  0  0  0  0  0  0  0  0
  140.4700   77.3200  219.0350 C   0  0  0  0  0  0  0  0  0  0  0  0
  140.6840   76.8820  220.4560 C   0  0  2  0  0  0  0  0  0  0  0  0
  141.0940   77.9560  221.3650 C   0  0  0  0  0  0  0  0  0  0  0  0
  141.2770   77.8190  222.7210 C   0  0  0  0  0  0  0  0  0  0  0  0
  141.6650   78.8570  223.5460 C   0  0  0  0  0  0  0  0  0  0  0  0
  141.8190   78.6310  224.8700 F   0  0  0  0  0  0  0  0  0  0  0  0
  141.8760   80.0840  222.9630 C   0  0  0  0  0  0  0  0  0  0  0  0
  141.7110   80.2890  221.6040 C   0  0  0  0  0  0  0  0  0  0  0  0
  141.9380   81.5140  221.1240 F   0  0  0  0  0  0  0  0  0  0  0  0
  141.3210   79.2100  220.8290 C   0  0  0  0  0  0  0  0  0  0  0  0
  140.1780   71.4170  223.6970 C   0  0  0  0  0  0  0  0  0  0  0  0
  139.5170   70.2060  223.6590 C   0  0  0  0  0  0  0  0  0  0  0  0
  139.3230   69.4320  224.7790 C   0  0  0  0  0  0  0  0  0  0  0  0
  139.8280   69.9280  225.9700 C   0  0  0  0  0  0  0  0  0  0  0  0
  139.6320   69.1520  227.0910 C   0  0  0  0  0  0  0  0  0  0  0  0
  140.1290   69.6300  228.2960 C   0  0  0  0  0  0  0  0  0  0  0  0
  140.7870   70.8420  228.3160 C   0  0  0  0  0  0  0  0  0  0  0  0
  140.9830   71.6190  227.1940 C   0  0  0  0  0  0  0  0  0  0  0  0
  140.4860   71.1410  225.9890 C   0  0  0  0  0  0  0  0  0  0  0  0
  140.6660   71.8890  224.8680 N   0  0  0  0  0  0  0  0  0  0  0  0
  139.4980   73.9970  223.1490 H   0  0  0  0  0  0  0  0  0  0  0  0
  139.7714   73.4308  220.2584 H   0  0  0  0  0  0  0  0  0  0  0  0
  139.4684   75.0515  221.0268 H   0  0  0  0  0  0  0  0  0  0  0  0
  143.3750   77.1935  220.5781 H   0  0  0  0  0  0  0  0  0  0  0  0
  143.8002   75.5512  220.0369 H   0  0  0  0  0  0  0  0  0  0  0  0
  143.7963   77.3230  218.2143 H   0  0  0  0  0  0  0  0  0  0  0  0
  142.7066   75.8854  217.9200 H   0  0  0  0  0  0  0  0  0  0  0  0
  142.0049   78.7075  218.6174 H   0  0  0  0  0  0  0  0  0  0  0  0
  141.4701   77.6212  217.2302 H   0  0  0  0  0  0  0  0  0  0  0  0
  139.8015   78.1935  219.0433 H   0  0  0  0  0  0  0  0  0  0  0  0
  140.0468   76.4540  218.5049 H   0  0  0  0  0  0  0  0  0  0  0  0
  139.7269   76.5091  220.8494 H   0  0  0  0  0  0  0  0  0  0  0  0
  141.1054   76.8308  223.1726 H   0  0  0  0  0  0  0  0  0  0  0  0
  142.1855   80.9288  223.5959 H   0  0  0  0  0  0  0  0  0  0  0  0
  141.1868   79.3559  219.7470 H   0  0  0  0  0  0  0  0  0  0  0  0
  139.1300   69.8456  222.6945 H   0  0  0  0  0  0  0  0  0  0  0  0
  138.7941   68.4687  224.7317 H   0  0  0  0  0  0  0  0  0  0  0  0
  139.1018   68.1899  227.0337 H   0  0  0  0  0  0  0  0  0  0  0  0
  139.9998   69.0502  229.2218 H   0  0  0  0  0  0  0  0  0  0  0  0
  141.1759   71.2080  229.2777 H   0  0  0  0  0  0  0  0  0  0  0  0
  141.5131   72.5812  227.2514 H   0  0  0  0  0  0  0  0  0  0  0  0
  1  2  2  0
  2  3  1  0
  3  4  1  0
  4  5  1  0
  5  6  2  0
  5  7  1  0
  7  8  1  0
  8  9  1  0
  9 10  1  0
 10 11  1  0
 11 12  1  0
 12 13  1  0
 13 14  2  0
 14 15  1  0
 15 16  1  0
 15 17  2  0
 17 18  1  0
 18 19  1  0
 18 20  2  0
  2 21  1  0
 21 22  2  0
 22 23  1  0
 23 24  2  0
 24 25  1  0
 25 26  2  0
 26 27  1  0
 27 28  2  0
 28 29  1  0
 29 30  2  0
 12  7  1  0
 20 13  1  0
 30 21  1  0
 29 24  1  0
  3 31  1  0
  4 32  1  0
  4 33  1  0
  8 34  1  0
  8 35  1  0
  9 36  1  0
  9 37  1  0
 10 38  1  0
 10 39  1  0
 11 40  1  0
 11 41  1  0
 12 42  1  1
 14 43  1  0
 17 44  1  0
 20 45  1  0
 22 46  1  0
 23 47  1  0
 25 48  1  0
 26 49  1  0
 27 50  1  0
 28 51  1  0
M  END
>  <smiles>  (16) 
O=C(NCC(=O)N1CCCCC1c1cc(F)cc(F)c1)c1ccc2ccccc2n1

>  <score_type>  (16) 
oracle

>  <origin>  (16) 
autodockgpu

>  <m_score__min__energy>  (16) 
-9.0199999999999996

>  <m_primary>  (16) 
energy

>  <rmsd>  (16) 
2.199484376817092

>  <m_score__min__rmsd>  (16) 
2.199484376817092

>  <meeko>  (16) 
{"free_energy": -8.76, "intermolecular_energy": -10.25, "internal_energy": -1.19, "cluster_size": 26, "cluster_id": 2, "rank_in_cluster": 5}

>  <energy>  (16) 
-8.74

>  <cluster_rmsd>  (16) 
0.97

>  <cluster>  (16) 
1

$$$$

     RDKit          3D

 51 54  0  0  0  0  0  0  0  0999 V2000
  141.2600   73.3100  221.7050 O   0  0  0  0  0  0  0  0  0  0  0  0
  140.2020   73.0800  222.3650 C   0  0  0  0  0  0  0  0  0  0  0  0
  139.2000   74.1120  222.3510 N   0  0  0  0  0  0  0  0  0  0  0  0
  139.5060   75.2960  221.5910 C   0  0  0  0  0  0  0  0  0  0  0  0
  139.0100   76.5360  222.2450 C   0  0  0  0  0  0  0  0  0  0  0  0
  137.9860   76.5610  222.9830 O   0  0  0  0  0  0  0  0  0  0  0  0
  139.7250   77.7330  222.0230 N   0  0  0  0  0  0  0  0  0  0  0  0
  139.0890   79.0150  221.7550 C   0  0  0  0  0  0  0  0  0  0  0  0
  139.4360   79.9400  222.9040 C   0  0  0  0  0  0  0  0  0  0  0  0
  140.8920   79.9610  223.2340 C   0  0  0  0  0  0  0  0  0  0  0  0
  141.5740   78.6320  223.2070 C   0  0  0  0  0  0  0  0  0  0  0  0
  141.1920   77.7510  222.0530 C   0  0  2  0  0  0  0  0  0  0  0  0
  141.6810   78.2120  220.7510 C   0  0  0  0  0  0  0  0  0  0  0  0
  141.7400   79.5250  220.3470 C   0  0  0  0  0  0  0  0  0  0  0  0
  142.2090   79.9210  219.1100 C   0  0  0  0  0  0  0  0  0  0  0  0
  142.2300   81.2370  218.7970 F   0  0  0  0  0  0  0  0  0  0  0  0
  142.6350   78.9370  218.2490 C   0  0  0  0  0  0  0  0  0  0  0  0
  142.6030   77.5970  218.5940 C   0  0  0  0  0  0  0  0  0  0  0  0
  143.0370   76.7090  217.6950 F   0  0  0  0  0  0  0  0  0  0  0  0
  142.1230   77.2620  219.8480 C   0  0  0  0  0  0  0  0  0  0  0  0
  139.9880   71.8420  223.1050 C   0  0  0  0  0  0  0  0  0  0  0  0
  139.3140   70.8260  222.4560 C   0  0  0  0  0  0  0  0  0  0  0  0
  139.0530   69.6130  223.0500 C   0  0  0  0  0  0  0  0  0  0  0  0
  139.5020   69.4490  224.3510 C   0  0  0  0  0  0  0  0  0  0  0  0
  139.2390   68.2340  224.9420 C   0  0  0  0  0  0  0  0  0  0  0  0
  139.6790   68.0480  226.2460 C   0  0  0  0  0  0  0  0  0  0  0  0
  140.3500   69.0730  226.8800 C   0  0  0  0  0  0  0  0  0  0  0  0
  140.6140   70.2890  226.2870 C   0  0  0  0  0  0  0  0  0  0  0  0
  140.1730   70.4750  224.9830 C   0  0  0  0  0  0  0  0  0  0  0  0
  140.4200   71.6670  224.3760 N   0  0  0  0  0  0  0  0  0  0  0  0
  138.3150   73.9780  222.8730 H   0  0  0  0  0  0  0  0  0  0  0  0
  140.5976   75.3697  221.4769 H   0  0  0  0  0  0  0  0  0  0  0  0
  139.0028   75.2074  220.6169 H   0  0  0  0  0  0  0  0  0  0  0  0
  139.4660   79.4317  220.8094 H   0  0  0  0  0  0  0  0  0  0  0  0
  137.9990   78.8975  221.6657 H   0  0  0  0  0  0  0  0  0  0  0  0
  139.1253   80.9604  222.6353 H   0  0  0  0  0  0  0  0  0  0  0  0
  138.9086   79.5632  223.7928 H   0  0  0  0  0  0  0  0  0  0  0  0
  141.3953   80.6157  222.5073 H   0  0  0  0  0  0  0  0  0  0  0  0
  140.9625   80.3170  224.2724 H   0  0  0  0  0  0  0  0  0  0  0  0
  142.6593   78.8053  223.1605 H   0  0  0  0  0  0  0  0  0  0  0  0
  141.2573   78.1032  224.1181 H   0  0  0  0  0  0  0  0  0  0  0  0
  141.6493   76.7628  222.2090 H   0  0  0  0  0  0  0  0  0  0  0  0
  141.3954   80.3011  221.0462 H   0  0  0  0  0  0  0  0  0  0  0  0
  143.0125   79.2235  217.2563 H   0  0  0  0  0  0  0  0  0  0  0  0
  142.0918   76.2012  220.1373 H   0  0  0  0  0  0  0  0  0  0  0  0
  138.9726   70.9934  221.4238 H   0  0  0  0  0  0  0  0  0  0  0  0
  138.5151   68.8136  222.5193 H   0  0  0  0  0  0  0  0  0  0  0  0
  138.7010   67.4408  224.4022 H   0  0  0  0  0  0  0  0  0  0  0  0
  139.4950   67.0964  226.7662 H   0  0  0  0  0  0  0  0  0  0  0  0
  140.6923   68.9115  227.9128 H   0  0  0  0  0  0  0  0  0  0  0  0
  141.1534   71.0819  226.8259 H   0  0  0  0  0  0  0  0  0  0  0  0
  1  2  2  0
  2  3  1  0
  3  4  1  0
  4  5  1  0
  5  6  2  0
  5  7  1  0
  7  8  1  0
  8  9  1  0
  9 10  1  0
 10 11  1  0
 11 12  1  0
 12 13  1  0
 13 14  2  0
 14 15  1  0
 15 16  1  0
 15 17  2  0
 17 18  1  0
 18 19  1  0
 18 20  2  0
  2 21  1  0
 21 22  2  0
 22 23  1  0
 23 24  2  0
 24 25  1  0
 25 26  2  0
 26 27  1  0
 27 28  2  0
 28 29  1  0
 29 30  2  0
 12  7  1  0
 20 13  1  0
 30 21  1  0
 29 24  1  0
  3 31  1  0
  4 32  1  0
  4 33  1  0
  8 34  1  0
  8 35  1  0
  9 36  1  0
  9 37  1  0
 10 38  1  0
 10 39  1  0
 11 40  1  0
 11 41  1  0
 12 42  1  1
 14 43  1  0
 17 44  1  0
 20 45  1  0
 22 46  1  0
 23 47  1  0
 25 48  1  0
 26 49  1  0
 27 50  1  0
 28 51  1  0
M  END
>  <smiles>  (17) 
O=C(NCC(=O)N1CCCCC1c1cc(F)cc(F)c1)c1ccc2ccccc2n1

>  <score_type>  (17) 
oracle

>  <origin>  (17) 
autodockgpu

>  <m_score__min__energy>  (17) 
-9.0199999999999996

>  <m_primary>  (17) 
energy

>  <rmsd>  (17) 
3.570774052975005

>  <m_score__min__rmsd>  (17) 
3.570774052975005

>  <meeko>  (17) 
{"free_energy": -8.19, "intermolecular_energy": -9.68, "internal_energy": -1.29, "cluster_size": 1, "cluster_id": 3, "rank_in_cluster": 1}

>  <energy>  (17) 
-8.7

>  <cluster_rmsd>  (17) 
0.96

>  <cluster>  (17) 
1

$$$$

     RDKit          3D

 51 54  0  0  0  0  0  0  0  0999 V2000
  140.4810   74.4830  220.2980 O   0  0  0  0  0  0  0  0  0  0  0  0
  140.1860   75.2050  221.2990 C   0  0  0  0  0  0  0  0  0  0  0  0
  139.2670   74.6400  222.2490 N   0  0  0  0  0  0  0  0  0  0  0  0
  138.7780   73.3160  221.9630 C   0  0  0  0  0  0  0  0  0  0  0  0
  139.6840   72.2520  222.4750 C   0  0  0  0  0  0  0  0  0  0  0  0
  140.8800   72.1260  222.0920 O   0  0  0  0  0  0  0  0  0  0  0  0
  139.1710   71.3490  223.4310 N   0  0  0  0  0  0  0  0  0  0  0  0
  137.8620   71.4880  224.0500 C   0  0  0  0  0  0  0  0  0  0  0  0
  137.0330   70.2930  223.6270 C   0  0  0  0  0  0  0  0  0  0  0  0
  137.7330   68.9860  223.8080 C   0  0  0  0  0  0  0  0  0  0  0  0
  139.1770   68.9760  223.4260 C   0  0  0  0  0  0  0  0  0  0  0  0
  139.9540   70.1850  223.8630 C   0  0  2  0  0  0  0  0  0  0  0  0
  140.1680   70.2760  225.3100 C   0  0  0  0  0  0  0  0  0  0  0  0
  140.5860   71.4020  225.9790 C   0  0  0  0  0  0  0  0  0  0  0  0
  140.7770   71.4490  227.3470 C   0  0  0  0  0  0  0  0  0  0  0  0
  141.1920   72.6000  227.9210 F   0  0  0  0  0  0  0  0  0  0  0  0
  140.5290   70.3000  228.0600 C   0  0  0  0  0  0  0  0  0  0  0  0
  140.1050   69.1330  227.4480 C   0  0  0  0  0  0  0  0  0  0  0  0
  139.8880   68.0640  228.2190 F   0  0  0  0  0  0  0  0  0  0  0  0
  139.9310   69.1480  226.0750 C   0  0  0  0  0  0  0  0  0  0  0  0
  140.7390   76.5400  221.4970 C   0  0  0  0  0  0  0  0  0  0  0  0
  141.0520   77.2670  220.3660 C   0  0  0  0  0  0  0  0  0  0  0  0
  141.5780   78.5370  220.4240 C   0  0  0  0  0  0  0  0  0  0  0  0
  141.7840   79.0660  221.6880 C   0  0  0  0  0  0  0  0  0  0  0  0
  142.3110   80.3370  221.7440 C   0  0  0  0  0  0  0  0  0  0  0  0
  142.5270   80.8860  223.0000 C   0  0  0  0  0  0  0  0  0  0  0  0
  142.2090   80.1460  224.1200 C   0  0  0  0  0  0  0  0  0  0  0  0
  141.6810   78.8730  224.0640 C   0  0  0  0  0  0  0  0  0  0  0  0
  141.4650   78.3240  222.8070 C   0  0  0  0  0  0  0  0  0  0  0  0
  140.9460   77.0700  222.7250 N   0  0  0  0  0  0  0  0  0  0  0  0
  138.9900   75.1850  223.0850 H   0  0  0  0  0  0  0  0  0  0  0  0
  137.7908   73.1952  222.4329 H   0  0  0  0  0  0  0  0  0  0  0  0
  138.7207   73.2093  220.8697 H   0  0  0  0  0  0  0  0  0  0  0  0
  137.9638   71.5065  225.1451 H   0  0  0  0  0  0  0  0  0  0  0  0
  137.3808   72.4259  223.7357 H   0  0  0  0  0  0  0  0  0  0  0  0
  136.1108   70.2796  224.2265 H   0  0  0  0  0  0  0  0  0  0  0  0
  136.8310   70.4047  222.5515 H   0  0  0  0  0  0  0  0  0  0  0  0
  137.6605   68.7060  224.8693 H   0  0  0  0  0  0  0  0  0  0  0  0
  137.2344   68.2779  223.1297 H   0  0  0  0  0  0  0  0  0  0  0  0
  139.6439   68.0880  223.8771 H   0  0  0  0  0  0  0  0  0  0  0  0
  139.2057   68.9710  222.3264 H   0  0  0  0  0  0  0  0  0  0  0  0
  140.9579   70.1293  223.4168 H   0  0  0  0  0  0  0  0  0  0  0  0
  140.7786   72.3138  225.3945 H   0  0  0  0  0  0  0  0  0  0  0  0
  140.6720   70.3083  229.1506 H   0  0  0  0  0  0  0  0  0  0  0  0
  139.5919   68.2294  225.5738 H   0  0  0  0  0  0  0  0  0  0  0  0
  140.8739   76.8132  219.3799 H   0  0  0  0  0  0  0  0  0  0  0  0
  141.8225   79.1035  219.5134 H   0  0  0  0  0  0  0  0  0  0  0  0
  142.5517   80.8960  220.8277 H   0  0  0  0  0  0  0  0  0  0  0  0
  142.9462   81.8979  223.1012 H   0  0  0  0  0  0  0  0  0  0  0  0
  142.3857   80.5944  225.1088 H   0  0  0  0  0  0  0  0  0  0  0  0
  141.4402   78.3140  224.9802 H   0  0  0  0  0  0  0  0  0  0  0  0
  1  2  2  0
  2  3  1  0
  3  4  1  0
  4  5  1  0
  5  6  2  0
  5  7  1  0
  7  8  1  0
  8  9  1  0
  9 10  1  0
 10 11  1  0
 11 12  1  0
 12 13  1  0
 13 14  2  0
 14 15  1  0
 15 16  1  0
 15 17  2  0
 17 18  1  0
 18 19  1  0
 18 20  2  0
  2 21  1  0
 21 22  2  0
 22 23  1  0
 23 24  2  0
 24 25  1  0
 25 26  2  0
 26 27  1  0
 27 28  2  0
 28 29  1  0
 29 30  2  0
 12  7  1  0
 20 13  1  0
 30 21  1  0
 29 24  1  0
  3 31  1  0
  4 32  1  0
  4 33  1  0
  8 34  1  0
  8 35  1  0
  9 36  1  0
  9 37  1  0
 10 38  1  0
 10 39  1  0
 11 40  1  0
 11 41  1  0
 12 42  1  6
 14 43  1  0
 17 44  1  0
 20 45  1  0
 22 46  1  0
 23 47  1  0
 25 48  1  0
 26 49  1  0
 27 50  1  0
 28 51  1  0
M  END
>  <smiles>  (18) 
O=C(NCC(=O)N1CCCCC1c1cc(F)cc(F)c1)c1ccc2ccccc2n1

>  <score_type>  (18) 
oracle

>  <origin>  (18) 
autodockgpu

>  <m_score__min__energy>  (18) 
-9.0199999999999996

>  <m_primary>  (18) 
energy

>  <rmsd>  (18) 
8.36424989869839

>  <m_score__min__rmsd>  (18) 
8.36424989869839

>  <meeko>  (18) 
{"free_energy": -8.79, "intermolecular_energy": -10.28, "internal_energy": -1.38, "cluster_size": 21, "cluster_id": 1, "rank_in_cluster": 11}

>  <energy>  (18) 
-8.7

>  <cluster_rmsd>  (18) 
0.92

>  <cluster>  (18) 
1

$$$$

     RDKit          3D

 51 54  0  0  0  0  0  0  0  0999 V2000
  140.6120   73.9900  220.2010 O   0  0  0  0  0  0  0  0  0  0  0  0
  140.2240   74.7230  221.1610 C   0  0  0  0  0  0  0  0  0  0  0  0
  139.2610   74.1460  222.0610 N   0  0  0  0  0  0  0  0  0  0  0  0
  138.8400   72.7980  221.7760 C   0  0  0  0  0  0  0  0  0  0  0  0
  139.7100   71.7810  222.4240 C   0  0  0  0  0  0  0  0  0  0  0  0
  140.8730   71.5110  222.0150 O   0  0  0  0  0  0  0  0  0  0  0  0
  139.2010   71.0920  223.5460 N   0  0  0  0  0  0  0  0  0  0  0  0
  137.9200   71.3970  224.1660 C   0  0  0  0  0  0  0  0  0  0  0  0
  137.0360   70.1790  223.9980 C   0  0  0  0  0  0  0  0  0  0  0  0
  137.6970   68.9010  224.4000 C   0  0  0  0  0  0  0  0  0  0  0  0
  139.1250   68.7620  223.9850 C   0  0  0  0  0  0  0  0  0  0  0  0
  139.9580   69.9990  224.1660 C   0  0  2  0  0  0  0  0  0  0  0  0
  140.2270   70.3480  225.5640 C   0  0  0  0  0  0  0  0  0  0  0  0
  140.8720   71.4870  225.9850 C   0  0  0  0  0  0  0  0  0  0  0  0
  141.1060   71.7820  227.3140 C   0  0  0  0  0  0  0  0  0  0  0  0
  141.7500   72.9270  227.6370 F   0  0  0  0  0  0  0  0  0  0  0  0
  140.6640   70.8780  228.2510 C   0  0  0  0  0  0  0  0  0  0  0  0
  140.0070   69.7130  227.8940 C   0  0  0  0  0  0  0  0  0  0  0  0
  139.6120   68.8930  228.8710 F   0  0  0  0  0  0  0  0  0  0  0  0
  139.8010   69.4730  226.5460 C   0  0  0  0  0  0  0  0  0  0  0  0
  140.7140   76.0810  221.3630 C   0  0  0  0  0  0  0  0  0  0  0  0
  141.3340   76.6940  220.2930 C   0  0  0  0  0  0  0  0  0  0  0  0
  141.8370   77.9730  220.3610 C   0  0  0  0  0  0  0  0  0  0  0  0
  141.6920   78.6330  221.5710 C   0  0  0  0  0  0  0  0  0  0  0  0
  142.1970   79.9120  221.6360 C   0  0  0  0  0  0  0  0  0  0  0  0
  142.0640   80.5920  222.8390 C   0  0  0  0  0  0  0  0  0  0  0  0
  141.4420   79.9660  223.8990 C   0  0  0  0  0  0  0  0  0  0  0  0
  140.9370   78.6840  223.8330 C   0  0  0  0  0  0  0  0  0  0  0  0
  141.0700   78.0040  222.6290 C   0  0  0  0  0  0  0  0  0  0  0  0
  140.5810   76.7390  222.5390 N   0  0  0  0  0  0  0  0  0  0  0  0
  138.9090   74.6990  222.8630 H   0  0  0  0  0  0  0  0  0  0  0  0
  137.8106   72.6654  222.1404 H   0  0  0  0  0  0  0  0  0  0  0  0
  138.9060   72.6501  220.6880 H   0  0  0  0  0  0  0  0  0  0  0  0
  138.0616   71.6146  225.2349 H   0  0  0  0  0  0  0  0  0  0  0  0
  137.4605   72.2790  223.6960 H   0  0  0  0  0  0  0  0  0  0  0  0
  136.1360   70.3145  224.6158 H   0  0  0  0  0  0  0  0  0  0  0  0
  136.7993   70.0971  222.9269 H   0  0  0  0  0  0  0  0  0  0  0  0
  137.6531   68.8262  225.4966 H   0  0  0  0  0  0  0  0  0  0  0  0
  137.1504   68.0999  223.8809 H   0  0  0  0  0  0  0  0  0  0  0  0
  139.5772   67.9551  224.5803 H   0  0  0  0  0  0  0  0  0  0  0  0
  139.1142   68.5518  222.9053 H   0  0  0  0  0  0  0  0  0  0  0  0
  140.9431   69.8216  223.7099 H   0  0  0  0  0  0  0  0  0  0  0  0
  141.2198   72.2006  225.2236 H   0  0  0  0  0  0  0  0  0  0  0  0
  140.8378   71.0869  229.3169 H   0  0  0  0  0  0  0  0  0  0  0  0
  139.2793   68.5524  226.2454 H   0  0  0  0  0  0  0  0  0  0  0  0
  141.4298   76.1382  219.3486 H   0  0  0  0  0  0  0  0  0  0  0  0
  142.3290   78.4473  219.4991 H   0  0  0  0  0  0  0  0  0  0  0  0
  142.6871   80.3773  220.7681 H   0  0  0  0  0  0  0  0  0  0  0  0
  142.4496   81.6167  222.9454 H   0  0  0  0  0  0  0  0  0  0  0  0
  141.3436   80.5174  224.8457 H   0  0  0  0  0  0  0  0  0  0  0  0
  140.4475   78.2179  224.7008 H   0  0  0  0  0  0  0  0  0  0  0  0
  1  2  2  0
  2  3  1  0
  3  4  1  0
  4  5  1  0
  5  6  2  0
  5  7  1  0
  7  8  1  0
  8  9  1  0
  9 10  1  0
 10 11  1  0
 11 12  1  0
 12 13  1  0
 13 14  2  0
 14 15  1  0
 15 16  1  0
 15 17  2  0
 17 18  1  0
 18 19  1  0
 18 20  2  0
  2 21  1  0
 21 22  2  0
 22 23  1  0
 23 24  2  0
 24 25  1  0
 25 26  2  0
 26 27  1  0
 27 28  2  0
 28 29  1  0
 29 30  2  0
 12  7  1  0
 20 13  1  0
 30 21  1  0
 29 24  1  0
  3 31  1  0
  4 32  1  0
  4 33  1  0
  8 34  1  0
  8 35  1  0
  9 36  1  0
  9 37  1  0
 10 38  1  0
 10 39  1  0
 11 40  1  0
 11 41  1  0
 12 42  1  6
 14 43  1  0
 17 44  1  0
 20 45  1  0
 22 46  1  0
 23 47  1  0
 25 48  1  0
 26 49  1  0
 27 50  1  0
 28 51  1  0
M  END
>  <smiles>  (19) 
O=C(NCC(=O)N1CCCCC1c1cc(F)cc(F)c1)c1ccc2ccccc2n1

>  <score_type>  (19) 
oracle

>  <origin>  (19) 
autodockgpu

>  <m_score__min__energy>  (19) 
-9.0199999999999996

>  <m_primary>  (19) 
energy

>  <rmsd>  (19) 
8.328183987485222

>  <m_score__min__rmsd>  (19) 
8.328183987485222

>  <meeko>  (19) 
{"free_energy": -8.7, "intermolecular_energy": -10.19, "internal_energy": -1.4, "cluster_size": 21, "cluster_id": 1, "rank_in_cluster": 18}

>  <energy>  (19) 
-8.64

>  <cluster_rmsd>  (19) 
0.9

>  <cluster>  (19) 
1

$$$$

     RDKit          3D

 51 54  0  0  0  0  0  0  0  0999 V2000
  140.6800   74.3540  221.0040 O   0  0  0  0  0  0  0  0  0  0  0  0
  139.7810   74.8520  221.7470 C   0  0  0  0  0  0  0  0  0  0  0  0
  138.7070   73.9770  222.1300 N   0  0  0  0  0  0  0  0  0  0  0  0
  138.7650   72.6280  221.6290 C   0  0  0  0  0  0  0  0  0  0  0  0
  139.7090   71.7750  222.4010 C   0  0  0  0  0  0  0  0  0  0  0  0
  140.9230   71.6370  222.0870 O   0  0  0  0  0  0  0  0  0  0  0  0
  139.2110   71.0940  223.5340 N   0  0  0  0  0  0  0  0  0  0  0  0
  137.9440   71.4150  224.1740 C   0  0  0  0  0  0  0  0  0  0  0  0
  137.0440   70.2060  224.0240 C   0  0  0  0  0  0  0  0  0  0  0  0
  137.6980   68.9220  224.4180 C   0  0  0  0  0  0  0  0  0  0  0  0
  139.1170   68.7660  223.9790 C   0  0  0  0  0  0  0  0  0  0  0  0
  139.9660   69.9940  224.1430 C   0  0  2  0  0  0  0  0  0  0  0  0
  140.2620   70.3440  225.5350 C   0  0  0  0  0  0  0  0  0  0  0  0
  140.7990   71.5390  225.9550 C   0  0  0  0  0  0  0  0  0  0  0  0
  141.0630   71.8320  227.2780 C   0  0  0  0  0  0  0  0  0  0  0  0
  141.5930   73.0340  227.6000 F   0  0  0  0  0  0  0  0  0  0  0  0
  140.7690   70.8660  228.2120 C   0  0  0  0  0  0  0  0  0  0  0  0
  140.2270   69.6430  227.8560 C   0  0  0  0  0  0  0  0  0  0  0  0
  139.9730   68.7650  228.8300 F   0  0  0  0  0  0  0  0  0  0  0  0
  139.9840   69.4080  226.5140 C   0  0  0  0  0  0  0  0  0  0  0  0
  139.8140   76.2380  222.2020 C   0  0  0  0  0  0  0  0  0  0  0  0
  141.0560   76.8090  222.3970 C   0  0  0  0  0  0  0  0  0  0  0  0
  141.2160   78.1060  222.8240 C   0  0  0  0  0  0  0  0  0  0  0  0
  140.0570   78.8310  223.0540 C   0  0  0  0  0  0  0  0  0  0  0  0
  140.2200   80.1300  223.4810 C   0  0  0  0  0  0  0  0  0  0  0  0
  139.0720   80.8740  223.7180 C   0  0  0  0  0  0  0  0  0  0  0  0
  137.8400   80.2890  223.5180 C   0  0  0  0  0  0  0  0  0  0  0  0
  137.6770   78.9880  223.0900 C   0  0  0  0  0  0  0  0  0  0  0  0
  138.8250   78.2440  222.8530 C   0  0  0  0  0  0  0  0  0  0  0  0
  138.6910   76.9580  222.4310 N   0  0  0  0  0  0  0  0  0  0  0  0
  137.9440   74.3310  222.7360 H   0  0  0  0  0  0  0  0  0  0  0  0
  137.7597   72.1856  221.6889 H   0  0  0  0  0  0  0  0  0  0  0  0
  139.1256   72.6716  220.5907 H   0  0  0  0  0  0  0  0  0  0  0  0
  138.1056   71.6340  225.2398 H   0  0  0  0  0  0  0  0  0  0  0  0
  137.4866   72.3008  223.7092 H   0  0  0  0  0  0  0  0  0  0  0  0
  136.1561   70.3526  224.6566 H   0  0  0  0  0  0  0  0  0  0  0  0
  136.7883   70.1241  222.9573 H   0  0  0  0  0  0  0  0  0  0  0  0
  137.6722   68.8505  225.5154 H   0  0  0  0  0  0  0  0  0  0  0  0
  137.1339   68.1257  223.9104 H   0  0  0  0  0  0  0  0  0  0  0  0
  139.5703   67.9554  224.5684 H   0  0  0  0  0  0  0  0  0  0  0  0
  139.0856   68.5532  222.9002 H   0  0  0  0  0  0  0  0  0  0  0  0
  140.9411   69.8039  223.6707 H   0  0  0  0  0  0  0  0  0  0  0  0
  141.0302   72.3014  225.1965 H   0  0  0  0  0  0  0  0  0  0  0  0
  140.9706   71.0715  229.2737 H   0  0  0  0  0  0  0  0  0  0  0  0
  139.5537   68.4408  226.2151 H   0  0  0  0  0  0  0  0  0  0  0  0
  141.9528   76.2022  222.2031 H   0  0  0  0  0  0  0  0  0  0  0  0
  142.2127   78.5460  222.9754 H   0  0  0  0  0  0  0  0  0  0  0  0
  141.2210   80.5615  223.6286 H   0  0  0  0  0  0  0  0  0  0  0  0
  139.1447   81.9167  224.0609 H   0  0  0  0  0  0  0  0  0  0  0  0
  136.9397   80.8913  223.7098 H   0  0  0  0  0  0  0  0  0  0  0  0
  136.6760   78.5565  222.9421 H   0  0  0  0  0  0  0  0  0  0  0  0
  1  2  2  0
  2  3  1  0
  3  4  1  0
  4  5  1  0
  5  6  2  0
  5  7  1  0
  7  8  1  0
  8  9  1  0
  9 10  1  0
 10 11  1  0
 11 12  1  0
 12 13  1  0
 13 14  2  0
 14 15  1  0
 15 16  1  0
 15 17  2  0
 17 18  1  0
 18 19  1  0
 18 20  2  0
  2 21  1  0
 21 22  2  0
 22 23  1  0
 23 24  2  0
 24 25  1  0
 25 26  2  0
 26 27  1  0
 27 28  2  0
 28 29  1  0
 29 30  2  0
 12  7  1  0
 20 13  1  0
 30 21  1  0
 29 24  1  0
  3 31  1  0
  4 32  1  0
  4 33  1  0
  8 34  1  0
  8 35  1  0
  9 36  1  0
  9 37  1  0
 10 38  1  0
 10 39  1  0
 11 40  1  0
 11 41  1  0
 12 42  1  6
 14 43  1  0
 17 44  1  0
 20 45  1  0
 22 46  1  0
 23 47  1  0
 25 48  1  0
 26 49  1  0
 27 50  1  0
 28 51  1  0
M  END
>  <smiles>  (20) 
O=C(NCC(=O)N1CCCCC1c1cc(F)cc(F)c1)c1ccc2ccccc2n1

>  <score_type>  (20) 
oracle

>  <origin>  (20) 
autodockgpu

>  <m_score__min__energy>  (20) 
-9.0199999999999996

>  <m_primary>  (20) 
energy

>  <rmsd>  (20) 
8.33280803474676

>  <m_score__min__rmsd>  (20) 
8.33280803474676

>  <meeko>  (20) 
{"free_energy": -8.28, "intermolecular_energy": -9.78, "internal_energy": -1.45, "cluster_size": 21, "cluster_id": 1, "rank_in_cluster": 20}

>  <energy>  (20) 
-8.28

>  <cluster_rmsd>  (20) 
0.68

>  <cluster>  (20) 
1

$$$$

     RDKit          3D

 51 54  0  0  0  0  0  0  0  0999 V2000
  140.7010   71.7540  221.4580 O   0  0  0  0  0  0  0  0  0  0  0  0
  139.9290   72.0560  222.4170 C   0  0  0  0  0  0  0  0  0  0  0  0
  138.9950   73.1240  222.1780 N   0  0  0  0  0  0  0  0  0  0  0  0
  139.0370   73.7360  220.8760 C   0  0  0  0  0  0  0  0  0  0  0  0
  139.0000   75.2220  220.9440 C   0  0  0  0  0  0  0  0  0  0  0  0
  137.9260   75.8830  220.9440 O   0  0  0  0  0  0  0  0  0  0  0  0
  140.2310   75.9120  221.0130 N   0  0  0  0  0  0  0  0  0  0  0  0
  141.4420   75.3450  221.5880 C   0  0  0  0  0  0  0  0  0  0  0  0
  142.4610   75.2330  220.4740 C   0  0  0  0  0  0  0  0  0  0  0  0
  142.6120   76.4860  219.6740 C   0  0  0  0  0  0  0  0  0  0  0  0
  141.3390   77.1980  219.3560 C   0  0  0  0  0  0  0  0  0  0  0  0
  140.3590   77.2770  220.4910 C   0  0  2  0  0  0  0  0  0  0  0  0
  140.7710   78.1600  221.5860 C   0  0  0  0  0  0  0  0  0  0  0  0
  142.0240   78.7080  221.7320 C   0  0  0  0  0  0  0  0  0  0  0  0
  142.3740   79.5380  222.7800 C   0  0  0  0  0  0  0  0  0  0  0  0
  143.6320   80.0310  222.8440 F   0  0  0  0  0  0  0  0  0  0  0  0
  141.4070   79.8190  223.7150 C   0  0  0  0  0  0  0  0  0  0  0  0
  140.1270   79.3010  223.6260 C   0  0  0  0  0  0  0  0  0  0  0  0
  139.2510   79.6280  224.5800 F   0  0  0  0  0  0  0  0  0  0  0  0
  139.8350   78.4760  222.5530 C   0  0  0  0  0  0  0  0  0  0  0  0
  139.9660   71.3710  223.7040 C   0  0  0  0  0  0  0  0  0  0  0  0
  139.4110   70.1080  223.7630 C   0  0  0  0  0  0  0  0  0  0  0  0
  139.3870   69.3630  224.9190 C   0  0  0  0  0  0  0  0  0  0  0  0
  139.9520   69.9440  226.0430 C   0  0  0  0  0  0  0  0  0  0  0  0
  139.9260   69.1960  227.1990 C   0  0  0  0  0  0  0  0  0  0  0  0
  140.4870   69.7580  228.3380 C   0  0  0  0  0  0  0  0  0  0  0  0
  141.0360   71.0200  228.2620 C   0  0  0  0  0  0  0  0  0  0  0  0
  141.0620   71.7690  227.1040 C   0  0  0  0  0  0  0  0  0  0  0  0
  140.5020   71.2070  225.9650 C   0  0  0  0  0  0  0  0  0  0  0  0
  140.5140   71.9250  224.8110 N   0  0  0  0  0  0  0  0  0  0  0  0
  138.3400   73.4130  222.9270 H   0  0  0  0  0  0  0  0  0  0  0  0
  139.9650   73.4288  220.3715 H   0  0  0  0  0  0  0  0  0  0  0  0
  138.1467   73.4043  220.3216 H   0  0  0  0  0  0  0  0  0  0  0  0
  141.8244   76.0021  222.3830 H   0  0  0  0  0  0  0  0  0  0  0  0
  141.2380   74.3582  222.0292 H   0  0  0  0  0  0  0  0  0  0  0  0
  143.4361   74.9843  220.9182 H   0  0  0  0  0  0  0  0  0  0  0  0
  142.1034   74.4522  219.7866 H   0  0  0  0  0  0  0  0  0  0  0  0
  143.2545   77.1757  220.2410 H   0  0  0  0  0  0  0  0  0  0  0  0
  143.0385   76.1798  218.7074 H   0  0  0  0  0  0  0  0  0  0  0  0
  141.5889   78.2240  219.0481 H   0  0  0  0  0  0  0  0  0  0  0  0
  140.8478   76.6136  218.5640 H   0  0  0  0  0  0  0  0  0  0  0  0
  139.4193   77.6996  220.1057 H   0  0  0  0  0  0  0  0  0  0  0  0
  142.7871   78.4734  220.9753 H   0  0  0  0  0  0  0  0  0  0  0  0
  141.6583   80.4762  224.5605 H   0  0  0  0  0  0  0  0  0  0  0  0
  138.8216   78.0569  222.4669 H   0  0  0  0  0  0  0  0  0  0  0  0
  138.9708   69.6810  222.8498 H   0  0  0  0  0  0  0  0  0  0  0  0
  138.9421   68.3575  224.9497 H   0  0  0  0  0  0  0  0  0  0  0  0
  139.4779   68.1916  227.2192 H   0  0  0  0  0  0  0  0  0  0  0  0
  140.4932   69.2036  229.2881 H   0  0  0  0  0  0  0  0  0  0  0  0
  141.4765   71.4525  229.1725 H   0  0  0  0  0  0  0  0  0  0  0  0
  141.5096   72.7736  227.0839 H   0  0  0  0  0  0  0  0  0  0  0  0
  1  2  2  0
  2  3  1  0
  3  4  1  0
  4  5  1  0
  5  6  2  0
  5  7  1  0
  7  8  1  0
  8  9  1  0
  9 10  1  0
 10 11  1  0
 11 12  1  0
 12 13  1  0
 13 14  2  0
 14 15  1  0
 15 16  1  0
 15 17  2  0
 17 18  1  0
 18 19  1  0
 18 20  2  0
  2 21  1  0
 21 22  2  0
 22 23  1  0
 23 24  2  0
 24 25  1  0
 25 26  2  0
 26 27  1  0
 27 28  2  0
 28 29  1  0
 29 30  2  0
 12  7  1  0
 20 13  1  0
 30 21  1  0
 29 24  1  0
  3 31  1  0
  4 32  1  0
  4 33  1  0
  8 34  1  0
  8 35  1  0
  9 36  1  0
  9 37  1  0
 10 38  1  0
 10 39  1  0
 11 40  1  0
 11 41  1  0
 12 42  1  6
 14 43  1  0
 17 44  1  0
 20 45  1  0
 22 46  1  0
 23 47  1  0
 25 48  1  0
 26 49  1  0
 27 50  1  0
 28 51  1  0
M  END
>  <smiles>  (21) 
O=C(NCC(=O)N1CCCCC1c1cc(F)cc(F)c1)c1ccc2ccccc2n1

>  <score_type>  (21) 
oracle

>  <origin>  (21) 
autodockgpu

>  <m_score__min__energy>  (21) 
-9.0199999999999996

>  <m_primary>  (21) 
energy

>  <rmsd>  (21) 
2.1330278993290146

>  <m_score__min__rmsd>  (21) 
2.1330278993290146

>  <meeko>  (21) 
{"free_energy": -8.69, "intermolecular_energy": -10.18, "internal_energy": -1.4, "cluster_size": 26, "cluster_id": 2, "rank_in_cluster": 8}

>  <energy>  (21) 
-8.19

>  <cluster_rmsd>  (21) 
1.14

>  <cluster>  (21) 
1

$$$$

     RDKit          3D

 51 54  0  0  0  0  0  0  0  0999 V2000
  140.7160   74.0960  220.3380 O   0  0  0  0  0  0  0  0  0  0  0  0
  140.2930   74.8680  221.2510 C   0  0  0  0  0  0  0  0  0  0  0  0
  139.2950   74.3310  222.1350 N   0  0  0  0  0  0  0  0  0  0  0  0
  138.8800   72.9740  221.8900 C   0  0  0  0  0  0  0  0  0  0  0  0
  139.7740   71.9790  222.5420 C   0  0  0  0  0  0  0  0  0  0  0  0
  140.9840   71.8260  222.2170 O   0  0  0  0  0  0  0  0  0  0  0  0
  139.2330   71.1760  223.5690 N   0  0  0  0  0  0  0  0  0  0  0  0
  137.9470   71.4310  224.2000 C   0  0  0  0  0  0  0  0  0  0  0  0
  137.0450   70.2570  223.8780 C   0  0  0  0  0  0  0  0  0  0  0  0
  137.6770   68.9300  224.1400 C   0  0  0  0  0  0  0  0  0  0  0  0
  139.1100   68.8120  223.7350 C   0  0  0  0  0  0  0  0  0  0  0  0
  139.9610   70.0040  224.0710 C   0  0  2  0  0  0  0  0  0  0  0  0
  140.2100   70.1850  225.5030 C   0  0  0  0  0  0  0  0  0  0  0  0
  140.6780   71.3400  226.0860 C   0  0  0  0  0  0  0  0  0  0  0  0
  140.9000   71.4720  227.4430 C   0  0  0  0  0  0  0  0  0  0  0  0
  141.3620   72.6460  227.9290 F   0  0  0  0  0  0  0  0  0  0  0  0
  140.6340   70.3820  228.2370 C   0  0  0  0  0  0  0  0  0  0  0  0
  140.1610   69.1910  227.7150 C   0  0  0  0  0  0  0  0  0  0  0  0
  139.9290   68.1840  228.5610 F   0  0  0  0  0  0  0  0  0  0  0  0
  139.9570   69.1190  226.3470 C   0  0  0  0  0  0  0  0  0  0  0  0
  140.7800   76.2340  221.4160 C   0  0  0  0  0  0  0  0  0  0  0  0
  141.1510   76.9130  220.2730 C   0  0  0  0  0  0  0  0  0  0  0  0
  141.6240   78.2050  220.3000 C   0  0  0  0  0  0  0  0  0  0  0  0
  141.7150   78.8060  221.5450 C   0  0  0  0  0  0  0  0  0  0  0  0
  142.1890   80.0990  221.5690 C   0  0  0  0  0  0  0  0  0  0  0  0
  142.2890   80.7210  222.8060 C   0  0  0  0  0  0  0  0  0  0  0  0
  141.9140   80.0280  223.9380 C   0  0  0  0  0  0  0  0  0  0  0  0
  141.4390   78.7330  223.9130 C   0  0  0  0  0  0  0  0  0  0  0  0
  141.3390   78.1110  222.6760 C   0  0  0  0  0  0  0  0  0  0  0  0
  140.8740   76.8340  222.6250 N   0  0  0  0  0  0  0  0  0  0  0  0
  138.9130   74.9170  222.9000 H   0  0  0  0  0  0  0  0  0  0  0  0
  137.8601   72.8410  222.2800 H   0  0  0  0  0  0  0  0  0  0  0  0
  138.9231   72.8018  220.8044 H   0  0  0  0  0  0  0  0  0  0  0  0
  138.0735   71.5206  225.2890 H   0  0  0  0  0  0  0  0  0  0  0  0
  137.5108   72.3699  223.8283 H   0  0  0  0  0  0  0  0  0  0  0  0
  136.1365   70.3373  224.4929 H   0  0  0  0  0  0  0  0  0  0  0  0
  136.8258   70.3036  222.8011 H   0  0  0  0  0  0  0  0  0  0  0  0
  137.6119   68.7303  225.2198 H   0  0  0  0  0  0  0  0  0  0  0  0
  137.1267   68.2048  223.5225 H   0  0  0  0  0  0  0  0  0  0  0  0
  139.5371   67.9334  224.2407 H   0  0  0  0  0  0  0  0  0  0  0  0
  139.1154   68.7275  222.6383 H   0  0  0  0  0  0  0  0  0  0  0  0
  140.9512   69.8613  223.6136 H   0  0  0  0  0  0  0  0  0  0  0  0
  140.8863   72.2037  225.4374 H   0  0  0  0  0  0  0  0  0  0  0  0
  140.8024   70.4589  229.3213 H   0  0  0  0  0  0  0  0  0  0  0  0
  139.5800   68.1797  225.9161 H   0  0  0  0  0  0  0  0  0  0  0  0
  141.0653   76.4016  219.3029 H   0  0  0  0  0  0  0  0  0  0  0  0
  141.9149   78.7335  219.3802 H   0  0  0  0  0  0  0  0  0  0  0  0
  142.4773   80.6188  220.6434 H   0  0  0  0  0  0  0  0  0  0  0  0
  142.6624   81.7529  222.8824 H   0  0  0  0  0  0  0  0  0  0  0  0
  141.9980   80.5340  224.9111 H   0  0  0  0  0  0  0  0  0  0  0  0
  141.1504   78.2130  224.8383 H   0  0  0  0  0  0  0  0  0  0  0  0
  1  2  2  0
  2  3  1  0
  3  4  1  0
  4  5  1  0
  5  6  2  0
  5  7  1  0
  7  8  1  0
  8  9  1  0
  9 10  1  0
 10 11  1  0
 11 12  1  0
 12 13  1  0
 13 14  2  0
 14 15  1  0
 15 16  1  0
 15 17  2  0
 17 18  1  0
 18 19  1  0
 18 20  2  0
  2 21  1  0
 21 22  2  0
 22 23  1  0
 23 24  2  0
 24 25  1  0
 25 26  2  0
 26 27  1  0
 27 28  2  0
 28 29  1  0
 29 30  2  0
 12  7  1  0
 20 13  1  0
 30 21  1  0
 29 24  1  0
  3 31  1  0
  4 32  1  0
  4 33  1  0
  8 34  1  0
  8 35  1  0
  9 36  1  0
  9 37  1  0
 10 38  1  0
 10 39  1  0
 11 40  1  0
 11 41  1  0
 12 42  1  6
 14 43  1  0
 17 44  1  0
 20 45  1  0
 22 46  1  0
 23 47  1  0
 25 48  1  0
 26 49  1  0
 27 50  1  0
 28 51  1  0
M  END
>  <smiles>  (22) 
O=C(NCC(=O)N1CCCCC1c1cc(F)cc(F)c1)c1ccc2ccccc2n1

>  <score_type>  (22) 
oracle

>  <origin>  (22) 
autodockgpu

>  <m_score__min__energy>  (22) 
-9.0199999999999996

>  <m_primary>  (22) 
energy

>  <rmsd>  (22) 
8.36087875757412

>  <m_score__min__rmsd>  (22) 
8.36087875757412

>  <meeko>  (22) 
{"free_energy": -8.74, "intermolecular_energy": -10.23, "internal_energy": -1.38, "cluster_size": 21, "cluster_id": 1, "rank_in_cluster": 15}

>  <energy>  (22) 
-8.77

>  <cluster_rmsd>  (22) 
0.0

>  <cluster>  (22) 
2

$$$$

     RDKit          3D

 51 54  0  0  0  0  0  0  0  0999 V2000
  140.9010   71.5940  221.3910 O   0  0  0  0  0  0  0  0  0  0  0  0
  140.3800   72.1300  222.4160 C   0  0  0  0  0  0  0  0  0  0  0  0
  139.9460   73.4930  222.2770 N   0  0  0  0  0  0  0  0  0  0  0  0
  140.1500   74.1060  220.9900 C   0  0  0  0  0  0  0  0  0  0  0  0
  141.5210   74.6620  220.8350 C   0  0  0  0  0  0  0  0  0  0  0  0
  142.5640   73.9900  221.0650 O   0  0  0  0  0  0  0  0  0  0  0  0
  141.6480   76.0030  220.4120 N   0  0  0  0  0  0  0  0  0  0  0  0
  142.8360   76.5340  219.7600 C   0  0  0  0  0  0  0  0  0  0  0  0
  142.4350   76.9500  218.3600 C   0  0  0  0  0  0  0  0  0  0  0  0
  141.2040   77.7940  218.3180 C   0  0  0  0  0  0  0  0  0  0  0  0
  140.1060   77.3710  219.2370 C   0  0  0  0  0  0  0  0  0  0  0  0
  140.5550   76.9620  220.6110 C   0  0  2  0  0  0  0  0  0  0  0  0
  141.0470   78.0660  221.4400 C   0  0  0  0  0  0  0  0  0  0  0  0
  141.3620   79.3230  220.9800 C   0  0  0  0  0  0  0  0  0  0  0  0
  141.8230   80.3390  221.7950 C   0  0  0  0  0  0  0  0  0  0  0  0
  142.1090   81.5450  221.2550 F   0  0  0  0  0  0  0  0  0  0  0  0
  141.9680   80.0600  223.1330 C   0  0  0  0  0  0  0  0  0  0  0  0
  141.6680   78.8160  223.6610 C   0  0  0  0  0  0  0  0  0  0  0  0
  141.8390   78.6350  224.9730 F   0  0  0  0  0  0  0  0  0  0  0  0
  141.2090   77.8390  222.7950 C   0  0  0  0  0  0  0  0  0  0  0  0
  140.2170   71.4200  223.6800 C   0  0  0  0  0  0  0  0  0  0  0  0
  139.5410   70.2160  223.6460 C   0  0  0  0  0  0  0  0  0  0  0  0
  139.3250   69.4550  224.7710 C   0  0  0  0  0  0  0  0  0  0  0  0
  139.8240   69.9560  225.9630 C   0  0  0  0  0  0  0  0  0  0  0  0
  139.6060   69.1920  227.0880 C   0  0  0  0  0  0  0  0  0  0  0  0
  140.0970   69.6750  228.2940 C   0  0  0  0  0  0  0  0  0  0  0  0
  140.7700   70.8780  228.3110 C   0  0  0  0  0  0  0  0  0  0  0  0
  140.9880   71.6420  227.1840 C   0  0  0  0  0  0  0  0  0  0  0  0
  140.4970   71.1600  225.9780 C   0  0  0  0  0  0  0  0  0  0  0  0
  140.6980   71.8960  224.8520 N   0  0  0  0  0  0  0  0  0  0  0  0
  139.5130   73.9810  223.0820 H   0  0  0  0  0  0  0  0  0  0  0  0
  139.9858   73.3492  220.2088 H   0  0  0  0  0  0  0  0  0  0  0  0
  139.4388   74.9404  220.9006 H   0  0  0  0  0  0  0  0  0  0  0  0
  143.2139   77.4039  220.3172 H   0  0  0  0  0  0  0  0  0  0  0  0
  143.6331   75.7767  219.7274 H   0  0  0  0  0  0  0  0  0  0  0  0
  143.2637   77.5209  217.9158 H   0  0  0  0  0  0  0  0  0  0  0  0
  142.2147   76.0292  217.7999 H   0  0  0  0  0  0  0  0  0  0  0  0
  141.4891   78.8233  218.5810 H   0  0  0  0  0  0  0  0  0  0  0  0
  140.8021   77.6934  217.2990 H   0  0  0  0  0  0  0  0  0  0  0  0
  139.4053   78.2124  219.3426 H   0  0  0  0  0  0  0  0  0  0  0  0
  139.6494   76.4792  218.7829 H   0  0  0  0  0  0  0  0  0  0  0  0
  139.6884   76.5494  221.1483 H   0  0  0  0  0  0  0  0  0  0  0  0
  141.2406   79.5306  219.9066 H   0  0  0  0  0  0  0  0  0  0  0  0
  142.3339   80.8500  223.8053 H   0  0  0  0  0  0  0  0  0  0  0  0
  140.9640   76.8456  223.1988 H   0  0  0  0  0  0  0  0  0  0  0  0
  139.1602   69.8513  222.6806 H   0  0  0  0  0  0  0  0  0  0  0  0
  138.7841   68.4982  224.7270 H   0  0  0  0  0  0  0  0  0  0  0  0
  139.0640   68.2363  227.0334 H   0  0  0  0  0  0  0  0  0  0  0  0
  139.9508   69.1051  229.2234 H   0  0  0  0  0  0  0  0  0  0  0  0
  141.1530   71.2476  229.2736 H   0  0  0  0  0  0  0  0  0  0  0  0
  141.5305   72.5974  227.2383 H   0  0  0  0  0  0  0  0  0  0  0  0
  1  2  2  0
  2  3  1  0
  3  4  1  0
  4  5  1  0
  5  6  2  0
  5  7  1  0
  7  8  1  0
  8  9  1  0
  9 10  1  0
 10 11  1  0
 11 12  1  0
 12 13  1  0
 13 14  2  0
 14 15  1  0
 15 16  1  0
 15 17  2  0
 17 18  1  0
 18 19  1  0
 18 20  2  0
  2 21  1  0
 21 22  2  0
 22 23  1  0
 23 24  2  0
 24 25  1  0
 25 26  2  0
 26 27  1  0
 27 28  2  0
 28 29  1  0
 29 30  2  0
 12  7  1  0
 20 13  1  0
 30 21  1  0
 29 24  1  0
  3 31  1  0
  4 32  1  0
  4 33  1  0
  8 34  1  0
  8 35  1  0
  9 36  1  0
  9 37  1  0
 10 38  1  0
 10 39  1  0
 11 40  1  0
 11 41  1  0
 12 42  1  1
 14 43  1  0
 17 44  1  0
 20 45  1  0
 22 46  1  0
 23 47  1  0
 25 48  1  0
 26 49  1  0
 27 50  1  0
 28 51  1  0
M  END
>  <smiles>  (23) 
O=C(NCC(=O)N1CCCCC1c1cc(F)cc(F)c1)c1ccc2ccccc2n1

>  <score_type>  (23) 
oracle

>  <origin>  (23) 
autodockgpu

>  <m_score__min__energy>  (23) 
-9.0199999999999996

>  <m_primary>  (23) 
energy

>  <rmsd>  (23) 
2.1693396164781324

>  <m_score__min__rmsd>  (23) 
2.1693396164781324

>  <meeko>  (23) 
{"free_energy": -8.77, "intermolecular_energy": -10.26, "internal_energy": -1.27, "cluster_size": 26, "cluster_id": 2, "rank_in_cluster": 1}

>  <energy>  (23) 
-8.76

>  <cluster_rmsd>  (23) 
0.15

>  <cluster>  (23) 
2

$$$$

     RDKit          3D

 51 54  0  0  0  0  0  0  0  0999 V2000
  138.9320   72.7800  222.2690 O   0  0  0  0  0  0  0  0  0  0  0  0
  140.0050   72.2460  222.6840 C   0  0  0  0  0  0  0  0  0  0  0  0
  141.2090   72.5950  221.9790 N   0  0  0  0  0  0  0  0  0  0  0  0
  141.0680   73.5130  220.8790 C   0  0  0  0  0  0  0  0  0  0  0  0
  140.7460   74.8940  221.3270 C   0  0  0  0  0  0  0  0  0  0  0  0
  140.0330   75.1390  222.3390 O   0  0  0  0  0  0  0  0  0  0  0  0
  141.2670   75.9720  220.5780 N   0  0  0  0  0  0  0  0  0  0  0  0
  142.6380   76.0280  220.0930 C   0  0  0  0  0  0  0  0  0  0  0  0
  142.5810   76.0240  218.5790 C   0  0  0  0  0  0  0  0  0  0  0  0
  141.6210   77.0190  218.0150 C   0  0  0  0  0  0  0  0  0  0  0  0
  140.3200   77.1340  218.7390 C   0  0  0  0  0  0  0  0  0  0  0  0
  140.4290   77.1270  220.2370 C   0  0  2  0  0  0  0  0  0  0  0  0
  141.0390   78.3320  220.8050 C   0  0  0  0  0  0  0  0  0  0  0  0
  141.2340   79.5150  220.1310 C   0  0  0  0  0  0  0  0  0  0  0  0
  141.8140   80.6310  220.7020 C   0  0  0  0  0  0  0  0  0  0  0  0
  141.9670   81.7520  219.9620 F   0  0  0  0  0  0  0  0  0  0  0  0
  142.2110   80.5360  222.0150 C   0  0  0  0  0  0  0  0  0  0  0  0
  142.0430   79.3760  222.7500 C   0  0  0  0  0  0  0  0  0  0  0  0
  142.4580   79.3740  224.0200 F   0  0  0  0  0  0  0  0  0  0  0  0
  141.4550   78.2910  222.1230 C   0  0  0  0  0  0  0  0  0  0  0  0
  140.0410   71.3240  223.8130 C   0  0  0  0  0  0  0  0  0  0  0  0
  139.5360   70.0550  223.6090 C   0  0  0  0  0  0  0  0  0  0  0  0
  139.5160   69.0980  224.5970 C   0  0  0  0  0  0  0  0  0  0  0  0
  140.0330   69.4670  225.8280 C   0  0  0  0  0  0  0  0  0  0  0  0
  140.0110   68.5070  226.8150 C   0  0  0  0  0  0  0  0  0  0  0  0
  140.5240   68.8540  228.0580 C   0  0  0  0  0  0  0  0  0  0  0  0
  141.0250   70.1260  228.2450 C   0  0  0  0  0  0  0  0  0  0  0  0
  141.0460   71.0860  227.2560 C   0  0  0  0  0  0  0  0  0  0  0  0
  140.5340   70.7390  226.0140 C   0  0  0  0  0  0  0  0  0  0  0  0
  140.5430   71.6690  225.0220 N   0  0  0  0  0  0  0  0  0  0  0  0
  142.1150   72.1890  222.2750 H   0  0  0  0  0  0  0  0  0  0  0  0
  142.0125   73.5362  220.3157 H   0  0  0  0  0  0  0  0  0  0  0  0
  140.2333   73.1610  220.2550 H   0  0  0  0  0  0  0  0  0  0  0  0
  143.1259   76.9474  220.4489 H   0  0  0  0  0  0  0  0  0  0  0  0
  143.2173   75.1693  220.4631 H   0  0  0  0  0  0  0  0  0  0  0  0
  143.5853   76.2518  218.1924 H   0  0  0  0  0  0  0  0  0  0  0  0
  142.2309   75.0275  218.2717 H   0  0  0  0  0  0  0  0  0  0  0  0
  142.1066   78.0059  218.0305 H   0  0  0  0  0  0  0  0  0  0  0  0
  141.3750   76.6638  217.0034 H   0  0  0  0  0  0  0  0  0  0  0  0
  139.8418   78.0769  218.4353 H   0  0  0  0  0  0  0  0  0  0  0  0
  139.7351   76.2429  218.4673 H   0  0  0  0  0  0  0  0  0  0  0  0
  139.4129   77.0827  220.6560 H   0  0  0  0  0  0  0  0  0  0  0  0
  140.9108   79.5756  219.0813 H   0  0  0  0  0  0  0  0  0  0  0  0
  142.6764   81.4091  222.4957 H   0  0  0  0  0  0  0  0  0  0  0  0
  141.3134   77.3618  222.6944 H   0  0  0  0  0  0  0  0  0  0  0  0
  139.1339   69.7994  222.6175 H   0  0  0  0  0  0  0  0  0  0  0  0
  139.1102   68.0913  224.4186 H   0  0  0  0  0  0  0  0  0  0  0  0
  139.6025   67.5033  226.6260 H   0  0  0  0  0  0  0  0  0  0  0  0
  140.5309   68.1251  228.8818 H   0  0  0  0  0  0  0  0  0  0  0  0
  141.4284   70.3875  229.2344 H   0  0  0  0  0  0  0  0  0  0  0  0
  141.4537   72.0901  227.4445 H   0  0  0  0  0  0  0  0  0  0  0  0
  1  2  2  0
  2  3  1  0
  3  4  1  0
  4  5  1  0
  5  6  2  0
  5  7  1  0
  7  8  1  0
  8  9  1  0
  9 10  1  0
 10 11  1  0
 11 12  1  0
 12 13  1  0
 13 14  2  0
 14 15  1  0
 15 16  1  0
 15 17  2  0
 17 18  1  0
 18 19  1  0
 18 20  2  0
  2 21  1  0
 21 22  2  0
 22 23  1  0
 23 24  2  0
 24 25  1  0
 25 26  2  0
 26 27  1  0
 27 28  2  0
 28 29  1  0
 29 30  2  0
 12  7  1  0
 20 13  1  0
 30 21  1  0
 29 24  1  0
  3 31  1  0
  4 32  1  0
  4 33  1  0
  8 34  1  0
  8 35  1  0
  9 36  1  0
  9 37  1  0
 10 38  1  0
 10 39  1  0
 11 40  1  0
 11 41  1  0
 12 42  1  1
 14 43  1  0
 17 44  1  0
 20 45  1  0
 22 46  1  0
 23 47  1  0
 25 48  1  0
 26 49  1  0
 27 50  1  0
 28 51  1  0
M  END
>  <smiles>  (24) 
O=C(NCC(=O)N1CCCCC1c1cc(F)cc(F)c1)c1ccc2ccccc2n1

>  <score_type>  (24) 
oracle

>  <origin>  (24) 
autodockgpu

>  <m_score__min__energy>  (24) 
-9.0199999999999996

>  <m_primary>  (24) 
energy

>  <rmsd>  (24) 
2.2289571459921036

>  <m_score__min__rmsd>  (24) 
2.2289571459921036

>  <meeko>  (24) 
{"free_energy": -8.15, "intermolecular_energy": -9.64, "internal_energy": -1.2, "cluster_size": 26, "cluster_id": 2, "rank_in_cluster": 26}

>  <energy>  (24) 
-8.76

>  <cluster_rmsd>  (24) 
0.12

>  <cluster>  (24) 
2

$$$$

     RDKit          3D

 51 54  0  0  0  0  0  0  0  0999 V2000
  140.1070   71.2840  221.2820 O   0  0  0  0  0  0  0  0  0  0  0  0
  139.7290   71.8500  222.3520 C   0  0  0  0  0  0  0  0  0  0  0  0
  139.1440   73.1570  222.2150 N   0  0  0  0  0  0  0  0  0  0  0  0
  139.0500   73.6830  220.8780 C   0  0  0  0  0  0  0  0  0  0  0  0
  139.7050   75.0120  220.7430 C   0  0  0  0  0  0  0  0  0  0  0  0
  139.2360   76.0650  221.2560 O   0  0  0  0  0  0  0  0  0  0  0  0
  140.9070   75.0860  220.0040 N   0  0  0  0  0  0  0  0  0  0  0  0
  141.0050   74.7570  218.5900 C   0  0  0  0  0  0  0  0  0  0  0  0
  141.3940   76.0250  217.8580 C   0  0  0  0  0  0  0  0  0  0  0  0
  142.5550   76.7370  218.4720 C   0  0  0  0  0  0  0  0  0  0  0  0
  142.5550   76.7910  219.9640 C   0  0  0  0  0  0  0  0  0  0  0  0
  142.1580   75.5110  220.6420 C   0  0  2  0  0  0  0  0  0  0  0  0
  143.1390   74.4300  220.5170 C   0  0  0  0  0  0  0  0  0  0  0  0
  144.4930   74.6040  220.3520 C   0  0  0  0  0  0  0  0  0  0  0  0
  145.3870   73.5570  220.2380 C   0  0  0  0  0  0  0  0  0  0  0  0
  146.7030   73.8220  220.0770 F   0  0  0  0  0  0  0  0  0  0  0  0
  144.8780   72.2810  220.2950 C   0  0  0  0  0  0  0  0  0  0  0  0
  143.5260   72.0370  220.4600 C   0  0  0  0  0  0  0  0  0  0  0  0
  143.1210   70.7650  220.5050 F   0  0  0  0  0  0  0  0  0  0  0  0
  142.6790   73.1260  220.5690 C   0  0  0  0  0  0  0  0  0  0  0  0
  139.8700   71.2290  223.6640 C   0  0  0  0  0  0  0  0  0  0  0  0
  139.4790   69.9100  223.7830 C   0  0  0  0  0  0  0  0  0  0  0  0
  139.5640   69.2160  224.9670 C   0  0  0  0  0  0  0  0  0  0  0  0
  140.0670   69.9080  226.0570 C   0  0  0  0  0  0  0  0  0  0  0  0
  140.1510   69.2110  227.2420 C   0  0  0  0  0  0  0  0  0  0  0  0
  140.6520   69.8850  228.3470 C   0  0  0  0  0  0  0  0  0  0  0  0
  141.0370   71.2020  228.2120 C   0  0  0  0  0  0  0  0  0  0  0  0
  140.9540   71.8990  227.0250 C   0  0  0  0  0  0  0  0  0  0  0  0
  140.4530   71.2250  225.9190 C   0  0  0  0  0  0  0  0  0  0  0  0
  140.3590   71.8920  224.7380 N   0  0  0  0  0  0  0  0  0  0  0  0
  138.8180   73.6660  223.0570 H   0  0  0  0  0  0  0  0  0  0  0  0
  139.5351   72.9784  220.1865 H   0  0  0  0  0  0  0  0  0  0  0  0
  137.9831   73.8099  220.6422 H   0  0  0  0  0  0  0  0  0  0  0  0
  141.7715   73.9832  218.4359 H   0  0  0  0  0  0  0  0  0  0  0  0
  140.0473   74.3683  218.2135 H   0  0  0  0  0  0  0  0  0  0  0  0
  141.6551   75.7626  216.8222 H   0  0  0  0  0  0  0  0  0  0  0  0
  140.5321   76.7063  217.9120 H   0  0  0  0  0  0  0  0  0  0  0  0
  143.4750   76.2267  218.1506 H   0  0  0  0  0  0  0  0  0  0  0  0
  142.4867   77.7803  218.1303 H   0  0  0  0  0  0  0  0  0  0  0  0
  143.5701   77.0535  220.2966 H   0  0  0  0  0  0  0  0  0  0  0  0
  141.7982   77.5378  220.2462 H   0  0  0  0  0  0  0  0  0  0  0  0
  142.0678   75.7056  221.7209 H   0  0  0  0  0  0  0  0  0  0  0  0
  144.8849   75.6309  220.3085 H   0  0  0  0  0  0  0  0  0  0  0  0
  145.5668   71.4279  220.2067 H   0  0  0  0  0  0  0  0  0  0  0  0
  141.6015   72.9486  220.7017 H   0  0  0  0  0  0  0  0  0  0  0  0
  139.0839   69.3940  222.8955 H   0  0  0  0  0  0  0  0  0  0  0  0
  139.2487   68.1650  225.0449 H   0  0  0  0  0  0  0  0  0  0  0  0
  139.8331   68.1601  227.3100 H   0  0  0  0  0  0  0  0  0  0  0  0
  140.7407   69.3752  229.3177 H   0  0  0  0  0  0  0  0  0  0  0  0
  141.4307   71.7237  229.0968 H   0  0  0  0  0  0  0  0  0  0  0  0
  141.2727   72.9496  226.9568 H   0  0  0  0  0  0  0  0  0  0  0  0
  1  2  2  0
  2  3  1  0
  3  4  1  0
  4  5  1  0
  5  6  2  0
  5  7  1  0
  7  8  1  0
  8  9  1  0
  9 10  1  0
 10 11  1  0
 11 12  1  0
 12 13  1  0
 13 14  2  0
 14 15  1  0
 15 16  1  0
 15 17  2  0
 17 18  1  0
 18 19  1  0
 18 20  2  0
  2 21  1  0
 21 22  2  0
 22 23  1  0
 23 24  2  0
 24 25  1  0
 25 26  2  0
 26 27  1  0
 27 28  2  0
 28 29  1  0
 29 30  2  0
 12  7  1  0
 20 13  1  0
 30 21  1  0
 29 24  1  0
  3 31  1  0
  4 32  1  0
  4 33  1  0
  8 34  1  0
  8 35  1  0
  9 36  1  0
  9 37  1  0
 10 38  1  0
 10 39  1  0
 11 40  1  0
 11 41  1  0
 12 42  1  1
 14 43  1  0
 17 44  1  0
 20 45  1  0
 22 46  1  0
 23 47  1  0
 25 48  1  0
 26 49  1  0
 27 50  1  0
 28 51  1  0
M  END
>  <smiles>  (25) 
O=C(NCC(=O)N1CCCCC1c1cc(F)cc(F)c1)c1ccc2ccccc2n1

>  <score_type>  (25) 
oracle

>  <origin>  (25) 
autodockgpu

>  <m_score__min__energy>  (25) 
-9.0199999999999996

>  <m_primary>  (25) 
energy

>  <rmsd>  (25) 
1.626504429965824

>  <m_score__min__rmsd>  (25) 
1.626504429965824

>  <meeko>  (25) 
{"free_energy": -8.12, "intermolecular_energy": -9.62, "internal_energy": -1.71, "cluster_size": 2, "cluster_id": 4, "rank_in_cluster": 2}

>  <energy>  (25) 
-8.76

>  <cluster_rmsd>  (25) 
1.17

>  <cluster>  (25) 
2

$$$$

     RDKit          3D

 51 54  0  0  0  0  0  0  0  0999 V2000
  140.7650   74.4800  221.1080 O   0  0  0  0  0  0  0  0  0  0  0  0
  139.8550   75.0040  221.8190 C   0  0  0  0  0  0  0  0  0  0  0  0
  138.7480   74.1560  222.1720 N   0  0  0  0  0  0  0  0  0  0  0  0
  138.7900   72.8040  221.6800 C   0  0  0  0  0  0  0  0  0  0  0  0
  139.7170   71.9420  222.4620 C   0  0  0  0  0  0  0  0  0  0  0  0
  140.9520   71.8610  222.2150 O   0  0  0  0  0  0  0  0  0  0  0  0
  139.1790   71.1860  223.5260 N   0  0  0  0  0  0  0  0  0  0  0  0
  137.8720   71.4380  224.1140 C   0  0  0  0  0  0  0  0  0  0  0  0
  137.0140   70.2180  223.8480 C   0  0  0  0  0  0  0  0  0  0  0  0
  137.6820   68.9300  224.2050 C   0  0  0  0  0  0  0  0  0  0  0  0
  139.1260   68.8350  223.8370 C   0  0  0  0  0  0  0  0  0  0  0  0
  139.9310   70.0720  224.1150 C   0  0  2  0  0  0  0  0  0  0  0  0
  140.1430   70.3490  225.5380 C   0  0  0  0  0  0  0  0  0  0  0  0
  139.7440   69.5350  226.5710 C   0  0  0  0  0  0  0  0  0  0  0  0
  139.9620   69.8310  227.9030 C   0  0  0  0  0  0  0  0  0  0  0  0
  139.5340   68.9710  228.8540 F   0  0  0  0  0  0  0  0  0  0  0  0
  140.6150   71.0070  228.1900 C   0  0  0  0  0  0  0  0  0  0  0  0
  141.0430   71.8710  227.1980 C   0  0  0  0  0  0  0  0  0  0  0  0
  141.6690   72.9900  227.5690 F   0  0  0  0  0  0  0  0  0  0  0  0
  140.7960   71.5190  225.8820 C   0  0  0  0  0  0  0  0  0  0  0  0
  139.9060   76.3910  222.2690 C   0  0  0  0  0  0  0  0  0  0  0  0
  138.7010   77.0240  222.5010 C   0  0  0  0  0  0  0  0  0  0  0  0
  138.6210   78.3290  222.9280 C   0  0  0  0  0  0  0  0  0  0  0  0
  139.8210   78.9950  223.1170 C   0  0  0  0  0  0  0  0  0  0  0  0
  139.7370   80.3010  223.5440 C   0  0  0  0  0  0  0  0  0  0  0  0
  140.9280   80.9890  223.7400 C   0  0  0  0  0  0  0  0  0  0  0  0
  142.1220   80.3420  223.5020 C   0  0  0  0  0  0  0  0  0  0  0  0
  142.2050   79.0330  223.0750 C   0  0  0  0  0  0  0  0  0  0  0  0
  141.0150   78.3460  222.8800 C   0  0  0  0  0  0  0  0  0  0  0  0
  141.0710   77.0550  222.4580 N   0  0  0  0  0  0  0  0  0  0  0  0
  137.9750   74.5320  222.7510 H   0  0  0  0  0  0  0  0  0  0  0  0
  137.7781   72.3763  221.7367 H   0  0  0  0  0  0  0  0  0  0  0  0
  139.1576   72.8365  220.6438 H   0  0  0  0  0  0  0  0  0  0  0  0
  137.9717   71.5988  225.1976 H   0  0  0  0  0  0  0  0  0  0  0  0
  137.4153   72.3376  223.6757 H   0  0  0  0  0  0  0  0  0  0  0  0
  136.0903   70.3065  224.4387 H   0  0  0  0  0  0  0  0  0  0  0  0
  136.8166   70.1910  222.7662 H   0  0  0  0  0  0  0  0  0  0  0  0
  137.5994   68.7950  225.2936 H   0  0  0  0  0  0  0  0  0  0  0  0
  137.1686   68.1504  223.6232 H   0  0  0  0  0  0  0  0  0  0  0  0
  139.5695   68.0037  224.4047 H   0  0  0  0  0  0  0  0  0  0  0  0
  139.1580   68.6838  222.7479 H   0  0  0  0  0  0  0  0  0  0  0  0
  140.9351   69.9336  223.6875 H   0  0  0  0  0  0  0  0  0  0  0  0
  139.2234   68.5979  226.3243 H   0  0  0  0  0  0  0  0  0  0  0  0
  140.8029   71.2688  229.2417 H   0  0  0  0  0  0  0  0  0  0  0  0
  141.1312   72.1942  225.0809 H   0  0  0  0  0  0  0  0  0  0  0  0
  137.7690   76.4629  222.3381 H   0  0  0  0  0  0  0  0  0  0  0  0
  137.6532   78.8191  223.1102 H   0  0  0  0  0  0  0  0  0  0  0  0
  138.7639   80.7816  223.7232 H   0  0  0  0  0  0  0  0  0  0  0  0
  140.9185   82.0350  224.0802 H   0  0  0  0  0  0  0  0  0  0  0  0
  143.0573   80.8988  223.6609 H   0  0  0  0  0  0  0  0  0  0  0  0
  143.1778   78.5518  222.8958 H   0  0  0  0  0  0  0  0  0  0  0  0
  1  2  2  0
  2  3  1  0
  3  4  1  0
  4  5  1  0
  5  6  2  0
  5  7  1  0
  7  8  1  0
  8  9  1  0
  9 10  1  0
 10 11  1  0
 11 12  1  0
 12 13  1  0
 13 14  2  0
 14 15  1  0
 15 16  1  0
 15 17  2  0
 17 18  1  0
 18 19  1  0
 18 20  2  0
  2 21  1  0
 21 22  2  0
 22 23  1  0
 23 24  2  0
 24 25  1  0
 25 26  2  0
 26 27  1  0
 27 28  2  0
 28 29  1  0
 29 30  2  0
 12  7  1  0
 20 13  1  0
 30 21  1  0
 29 24  1  0
  3 31  1  0
  4 32  1  0
  4 33  1  0
  8 34  1  0
  8 35  1  0
  9 36  1  0
  9 37  1  0
 10 38  1  0
 10 39  1  0
 11 40  1  0
 11 41  1  0
 12 42  1  6
 14 43  1  0
 17 44  1  0
 20 45  1  0
 22 46  1  0
 23 47  1  0
 25 48  1  0
 26 49  1  0
 27 50  1  0
 28 51  1  0
M  END
>  <smiles>  (26) 
O=C(NCC(=O)N1CCCCC1c1cc(F)cc(F)c1)c1ccc2ccccc2n1

>  <score_type>  (26) 
oracle

>  <origin>  (26) 
autodockgpu

>  <m_score__min__energy>  (26) 
-9.0199999999999996

>  <m_primary>  (26) 
energy

>  <rmsd>  (26) 
8.237495543037571

>  <m_score__min__rmsd>  (26) 
8.237495543037571

>  <meeko>  (26) 
{"free_energy": -9.02, "intermolecular_energy": -10.51, "internal_energy": -1.3, "cluster_size": 21, "cluster_id": 1, "rank_in_cluster": 1}

>  <energy>  (26) 
-8.76

>  <cluster_rmsd>  (26) 
0.2

>  <cluster>  (26) 
2

$$$$

     RDKit          3D

 51 54  0  0  0  0  0  0  0  0999 V2000
  140.0730   74.5840  220.1120 O   0  0  0  0  0  0  0  0  0  0  0  0
  140.0210   75.1820  221.2290 C   0  0  0  0  0  0  0  0  0  0  0  0
  139.2990   74.5170  222.2800 N   0  0  0  0  0  0  0  0  0  0  0  0
  138.7100   73.2450  221.9510 C   0  0  0  0  0  0  0  0  0  0  0  0
  139.5670   72.0990  222.3590 C   0  0  0  0  0  0  0  0  0  0  0  0
  140.6780   71.8460  221.8170 O   0  0  0  0  0  0  0  0  0  0  0  0
  139.1050   71.2650  223.4000 N   0  0  0  0  0  0  0  0  0  0  0  0
  137.8020   71.4090  224.0310 C   0  0  0  0  0  0  0  0  0  0  0  0
  137.0130   70.1500  223.7310 C   0  0  0  0  0  0  0  0  0  0  0  0
  137.7680   68.8920  224.0110 C   0  0  0  0  0  0  0  0  0  0  0  0
  139.2040   68.9030  223.6030 C   0  0  0  0  0  0  0  0  0  0  0  0
  139.9400   70.1740  223.9180 C   0  0  2  0  0  0  0  0  0  0  0  0
  140.1740   70.4000  225.3460 C   0  0  0  0  0  0  0  0  0  0  0  0
  139.8070   69.5410  226.3550 C   0  0  0  0  0  0  0  0  0  0  0  0
  140.0460   69.7900  227.6930 C   0  0  0  0  0  0  0  0  0  0  0  0
  139.6480   68.8870  228.6180 F   0  0  0  0  0  0  0  0  0  0  0  0
  140.6850   70.9640  228.0130 C   0  0  0  0  0  0  0  0  0  0  0  0
  141.0810   71.8720  227.0470 C   0  0  0  0  0  0  0  0  0  0  0  0
  141.6960   72.9870  227.4500 F   0  0  0  0  0  0  0  0  0  0  0  0
  140.8150   71.5660  225.7230 C   0  0  0  0  0  0  0  0  0  0  0  0
  140.6550   76.4750  221.4610 C   0  0  0  0  0  0  0  0  0  0  0  0
  141.1580   77.1380  220.3590 C   0  0  0  0  0  0  0  0  0  0  0  0
  141.7760   78.3630  220.4500 C   0  0  0  0  0  0  0  0  0  0  0  0
  141.8750   78.9160  221.7180 C   0  0  0  0  0  0  0  0  0  0  0  0
  142.4940   80.1420  221.8060 C   0  0  0  0  0  0  0  0  0  0  0  0
  142.6050   80.7140  223.0660 C   0  0  0  0  0  0  0  0  0  0  0  0
  142.0970   80.0390  224.1560 C   0  0  0  0  0  0  0  0  0  0  0  0
  141.4760   78.8110  224.0670 C   0  0  0  0  0  0  0  0  0  0  0  0
  141.3660   78.2390  222.8070 C   0  0  0  0  0  0  0  0  0  0  0  0
  140.7590   77.0270  222.6930 N   0  0  0  0  0  0  0  0  0  0  0  0
  139.2240   74.9590  223.2140 H   0  0  0  0  0  0  0  0  0  0  0  0
  137.7408   73.1614  222.4645 H   0  0  0  0  0  0  0  0  0  0  0  0
  138.5929   73.2030  220.8581 H   0  0  0  0  0  0  0  0  0  0  0  0
  137.9215   71.5281  225.1180 H   0  0  0  0  0  0  0  0  0  0  0  0
  137.2792   72.2968  223.6456 H   0  0  0  0  0  0  0  0  0  0  0  0
  136.1027   70.1543  224.3485 H   0  0  0  0  0  0  0  0  0  0  0  0
  136.7874   70.1588  222.6544 H   0  0  0  0  0  0  0  0  0  0  0  0
  137.7243   68.7038  225.0939 H   0  0  0  0  0  0  0  0  0  0  0  0
  137.2871   68.1088  223.4065 H   0  0  0  0  0  0  0  0  0  0  0  0
  139.7127   68.0761  224.1201 H   0  0  0  0  0  0  0  0  0  0  0  0
  139.2148   68.8030  222.5076 H   0  0  0  0  0  0  0  0  0  0  0  0
  140.9384   70.1171  223.4598 H   0  0  0  0  0  0  0  0  0  0  0  0
  139.2960   68.6058  226.0826 H   0  0  0  0  0  0  0  0  0  0  0  0
  140.8880   71.1888  229.0705 H   0  0  0  0  0  0  0  0  0  0  0  0
  141.1249   72.2764  224.9425 H   0  0  0  0  0  0  0  0  0  0  0  0
  141.0605   76.6677  219.3694 H   0  0  0  0  0  0  0  0  0  0  0  0
  142.1717   78.8781  219.5623 H   0  0  0  0  0  0  0  0  0  0  0  0
  142.8858   80.6493  220.9121 H   0  0  0  0  0  0  0  0  0  0  0  0
  143.0915   81.6923  223.1932 H   0  0  0  0  0  0  0  0  0  0  0  0
  142.1921   80.5044  225.1481 H   0  0  0  0  0  0  0  0  0  0  0  0
  141.0828   78.3040  224.9605 H   0  0  0  0  0  0  0  0  0  0  0  0
  1  2  2  0
  2  3  1  0
  3  4  1  0
  4  5  1  0
  5  6  2  0
  5  7  1  0
  7  8  1  0
  8  9  1  0
  9 10  1  0
 10 11  1  0
 11 12  1  0
 12 13  1  0
 13 14  2  0
 14 15  1  0
 15 16  1  0
 15 17  2  0
 17 18  1  0
 18 19  1  0
 18 20  2  0
  2 21  1  0
 21 22  2  0
 22 23  1  0
 23 24  2  0
 24 25  1  0
 25 26  2  0
 26 27  1  0
 27 28  2  0
 28 29  1  0
 29 30  2  0
 12  7  1  0
 20 13  1  0
 30 21  1  0
 29 24  1  0
  3 31  1  0
  4 32  1  0
  4 33  1  0
  8 34  1  0
  8 35  1  0
  9 36  1  0
  9 37  1  0
 10 38  1  0
 10 39  1  0
 11 40  1  0
 11 41  1  0
 12 42  1  6
 14 43  1  0
 17 44  1  0
 20 45  1  0
 22 46  1  0
 23 47  1  0
 25 48  1  0
 26 49  1  0
 27 50  1  0
 28 51  1  0
M  END
>  <smiles>  (27) 
O=C(NCC(=O)N1CCCCC1c1cc(F)cc(F)c1)c1ccc2ccccc2n1

>  <score_type>  (27) 
oracle

>  <origin>  (27) 
autodockgpu

>  <m_score__min__energy>  (27) 
-9.0199999999999996

>  <m_primary>  (27) 
energy

>  <rmsd>  (27) 
8.340088135763946

>  <m_score__min__rmsd>  (27) 
8.340088135763946

>  <meeko>  (27) 
{"free_energy": -8.83, "intermolecular_energy": -10.32, "internal_energy": -1.46, "cluster_size": 21, "cluster_id": 1, "rank_in_cluster": 10}

>  <energy>  (27) 
-8.74

>  <cluster_rmsd>  (27) 
1.18

>  <cluster>  (27) 
2

$$$$

     RDKit          3D

 51 54  0  0  0  0  0  0  0  0999 V2000
  140.5460   74.3510  220.3410 O   0  0  0  0  0  0  0  0  0  0  0  0
  140.2100   75.0990  221.3090 C   0  0  0  0  0  0  0  0  0  0  0  0
  139.2660   74.5510  222.2450 N   0  0  0  0  0  0  0  0  0  0  0  0
  138.8010   73.2140  221.9840 C   0  0  0  0  0  0  0  0  0  0  0  0
  139.7100   72.1760  222.5420 C   0  0  0  0  0  0  0  0  0  0  0  0
  140.9070   72.0390  222.1680 O   0  0  0  0  0  0  0  0  0  0  0  0
  139.1980   71.3120  223.5350 N   0  0  0  0  0  0  0  0  0  0  0  0
  137.9060   71.5000  224.1780 C   0  0  0  0  0  0  0  0  0  0  0  0
  137.0410   70.3130  223.8070 C   0  0  0  0  0  0  0  0  0  0  0  0
  137.7150   68.9960  224.0100 C   0  0  0  0  0  0  0  0  0  0  0  0
  139.1490   68.9410  223.5980 C   0  0  0  0  0  0  0  0  0  0  0  0
  139.9630   70.1430  223.9840 C   0  0  2  0  0  0  0  0  0  0  0  0
  140.2110   70.2700  225.4220 C   0  0  0  0  0  0  0  0  0  0  0  0
  140.6740   71.4030  226.0490 C   0  0  0  0  0  0  0  0  0  0  0  0
  140.8950   71.4840  227.4100 C   0  0  0  0  0  0  0  0  0  0  0  0
  141.3530   72.6400  227.9410 F   0  0  0  0  0  0  0  0  0  0  0  0
  140.6330   70.3630  228.1620 C   0  0  0  0  0  0  0  0  0  0  0  0
  140.1650   69.1910  227.5930 C   0  0  0  0  0  0  0  0  0  0  0  0
  139.9370   68.1520  228.4000 F   0  0  0  0  0  0  0  0  0  0  0  0
  139.9620   69.1720  226.2240 C   0  0  0  0  0  0  0  0  0  0  0  0
  140.7410   76.4460  221.4850 C   0  0  0  0  0  0  0  0  0  0  0  0
  141.0920   77.1400  220.3440 C   0  0  0  0  0  0  0  0  0  0  0  0
  141.6030   78.4160  220.3810 C   0  0  0  0  0  0  0  0  0  0  0  0
  141.7540   78.9880  221.6350 C   0  0  0  0  0  0  0  0  0  0  0  0
  142.2650   80.2660  221.6690 C   0  0  0  0  0  0  0  0  0  0  0  0
  142.4250   80.8580  222.9140 C   0  0  0  0  0  0  0  0  0  0  0  0
  142.0700   80.1510  224.0440 C   0  0  0  0  0  0  0  0  0  0  0  0
  141.5570   78.8710  224.0090 C   0  0  0  0  0  0  0  0  0  0  0  0
  141.3970   78.2790  222.7630 C   0  0  0  0  0  0  0  0  0  0  0  0
  140.8950   77.0170  222.7020 N   0  0  0  0  0  0  0  0  0  0  0  0
  138.9560   75.1180  223.0550 H   0  0  0  0  0  0  0  0  0  0  0  0
  137.8059   73.0918  222.4366 H   0  0  0  0  0  0  0  0  0  0  0  0
  138.7681   73.0783  220.8929 H   0  0  0  0  0  0  0  0  0  0  0  0
  138.0322   71.5472  225.2697 H   0  0  0  0  0  0  0  0  0  0  0  0
  137.4398   72.4399  223.8476 H   0  0  0  0  0  0  0  0  0  0  0  0
  136.1322   70.3378  224.4263 H   0  0  0  0  0  0  0  0  0  0  0  0
  136.8178   70.3993  222.7333 H   0  0  0  0  0  0  0  0  0  0  0  0
  137.6594   68.7476  225.0801 H   0  0  0  0  0  0  0  0  0  0  0  0
  137.1857   68.2813  223.3626 H   0  0  0  0  0  0  0  0  0  0  0  0
  139.6050   68.0551  224.0642 H   0  0  0  0  0  0  0  0  0  0  0  0
  139.1536   68.9046  222.4986 H   0  0  0  0  0  0  0  0  0  0  0  0
  140.9556   70.0507  223.5189 H   0  0  0  0  0  0  0  0  0  0  0  0
  140.8792   72.2917  225.4341 H   0  0  0  0  0  0  0  0  0  0  0  0
  140.8003   70.3986  229.2486 H   0  0  0  0  0  0  0  0  0  0  0  0
  139.5886   68.2488  225.7568 H   0  0  0  0  0  0  0  0  0  0  0  0
  140.9575   76.6529  219.3670 H   0  0  0  0  0  0  0  0  0  0  0  0
  141.8780   78.9555  219.4626 H   0  0  0  0  0  0  0  0  0  0  0  0
  142.5361   80.7975  220.7448 H   0  0  0  0  0  0  0  0  0  0  0  0
  142.8295   81.8774  222.9985 H   0  0  0  0  0  0  0  0  0  0  0  0
  142.2029   80.6329  225.0238 H   0  0  0  0  0  0  0  0  0  0  0  0
  141.2850   78.3394  224.9328 H   0  0  0  0  0  0  0  0  0  0  0  0
  1  2  2  0
  2  3  1  0
  3  4  1  0
  4  5  1  0
  5  6  2  0
  5  7  1  0
  7  8  1  0
  8  9  1  0
  9 10  1  0
 10 11  1  0
 11 12  1  0
 12 13  1  0
 13 14  2  0
 14 15  1  0
 15 16  1  0
 15 17  2  0
 17 18  1  0
 18 19  1  0
 18 20  2  0
  2 21  1  0
 21 22  2  0
 22 23  1  0
 23 24  2  0
 24 25  1  0
 25 26  2  0
 26 27  1  0
 27 28  2  0
 28 29  1  0
 29 30  2  0
 12  7  1  0
 20 13  1  0
 30 21  1  0
 29 24  1  0
  3 31  1  0
  4 32  1  0
  4 33  1  0
  8 34  1  0
  8 35  1  0
  9 36  1  0
  9 37  1  0
 10 38  1  0
 10 39  1  0
 11 40  1  0
 11 41  1  0
 12 42  1  6
 14 43  1  0
 17 44  1  0
 20 45  1  0
 22 46  1  0
 23 47  1  0
 25 48  1  0
 26 49  1  0
 27 50  1  0
 28 51  1  0
M  END
>  <smiles>  (28) 
O=C(NCC(=O)N1CCCCC1c1cc(F)cc(F)c1)c1ccc2ccccc2n1

>  <score_type>  (28) 
oracle

>  <origin>  (28) 
autodockgpu

>  <m_score__min__energy>  (28) 
-9.0199999999999996

>  <m_primary>  (28) 
energy

>  <rmsd>  (28) 
8.37977784809471

>  <m_score__min__rmsd>  (28) 
8.37977784809471

>  <meeko>  (28) 
{"free_energy": -8.77, "intermolecular_energy": -10.27, "internal_energy": -1.38, "cluster_size": 21, "cluster_id": 1, "rank_in_cluster": 13}

>  <energy>  (28) 
-8.72

>  <cluster_rmsd>  (28) 
1.49

>  <cluster>  (28) 
2

$$$$

     RDKit          3D

 51 54  0  0  0  0  0  0  0  0999 V2000
  140.0890   71.3130  221.2750 O   0  0  0  0  0  0  0  0  0  0  0  0
  139.6890   71.8620  222.3460 C   0  0  0  0  0  0  0  0  0  0  0  0
  139.0740   73.1550  222.2130 N   0  0  0  0  0  0  0  0  0  0  0  0
  138.9780   73.6890  220.8780 C   0  0  0  0  0  0  0  0  0  0  0  0
  138.9780   75.1760  220.8590 C   0  0  0  0  0  0  0  0  0  0  0  0
  137.9230   75.8610  220.7550 O   0  0  0  0  0  0  0  0  0  0  0  0
  140.2200   75.8400  220.9630 N   0  0  0  0  0  0  0  0  0  0  0  0
  141.4000   75.2500  221.5770 C   0  0  0  0  0  0  0  0  0  0  0  0
  142.4510   75.1120  220.4940 C   0  0  0  0  0  0  0  0  0  0  0  0
  142.6520   76.3580  219.6950 C   0  0  0  0  0  0  0  0  0  0  0  0
  141.4040   77.0960  219.3360 C   0  0  0  0  0  0  0  0  0  0  0  0
  140.3930   77.2010  220.4410 C   0  0  2  0  0  0  0  0  0  0  0  0
  140.7900   78.0790  221.5440 C   0  0  0  0  0  0  0  0  0  0  0  0
  142.0240   78.6710  221.6800 C   0  0  0  0  0  0  0  0  0  0  0  0
  142.3610   79.4940  222.7370 C   0  0  0  0  0  0  0  0  0  0  0  0
  143.6000   80.0330  222.7900 F   0  0  0  0  0  0  0  0  0  0  0  0
  141.4000   79.7220  223.6930 C   0  0  0  0  0  0  0  0  0  0  0  0
  140.1390   79.1580  223.6160 C   0  0  0  0  0  0  0  0  0  0  0  0
  139.2680   79.4350  224.5900 F   0  0  0  0  0  0  0  0  0  0  0  0
  139.8600   78.3420  222.5330 C   0  0  0  0  0  0  0  0  0  0  0  0
  139.8340   71.2360  223.6550 C   0  0  0  0  0  0  0  0  0  0  0  0
  139.4160   69.9250  223.7770 C   0  0  0  0  0  0  0  0  0  0  0  0
  139.5030   69.2270  224.9590 C   0  0  0  0  0  0  0  0  0  0  0  0
  140.0360   69.9070  226.0430 C   0  0  0  0  0  0  0  0  0  0  0  0
  140.1210   69.2060  227.2250 C   0  0  0  0  0  0  0  0  0  0  0  0
  140.6520   69.8670  228.3240 C   0  0  0  0  0  0  0  0  0  0  0  0
  141.0640   71.1750  228.1850 C   0  0  0  0  0  0  0  0  0  0  0  0
  140.9790   71.8770  227.0010 C   0  0  0  0  0  0  0  0  0  0  0  0
  140.4480   71.2160  225.9020 C   0  0  0  0  0  0  0  0  0  0  0  0
  140.3530   71.8860  224.7230 N   0  0  0  0  0  0  0  0  0  0  0  0
  138.7290   73.6510  223.0550 H   0  0  0  0  0  0  0  0  0  0  0  0
  139.8357   73.3286  220.2912 H   0  0  0  0  0  0  0  0  0  0  0  0
  138.0237   73.3489  220.4494 H   0  0  0  0  0  0  0  0  0  0  0  0
  141.7716   75.9021  222.3812 H   0  0  0  0  0  0  0  0  0  0  0  0
  141.1617   74.2696  222.0152 H   0  0  0  0  0  0  0  0  0  0  0  0
  143.4068   74.8450  220.9686 H   0  0  0  0  0  0  0  0  0  0  0  0
  142.0986   74.3358  219.7988 H   0  0  0  0  0  0  0  0  0  0  0  0
  143.2915   77.0363  220.2789 H   0  0  0  0  0  0  0  0  0  0  0  0
  143.1005   76.0388  218.7427 H   0  0  0  0  0  0  0  0  0  0  0  0
  141.6849   78.1150  219.0316 H   0  0  0  0  0  0  0  0  0  0  0  0
  140.9241   76.5188  218.5319 H   0  0  0  0  0  0  0  0  0  0  0  0
  139.4747   77.6428  220.0269 H   0  0  0  0  0  0  0  0  0  0  0  0
  142.7823   78.4790  220.9066 H   0  0  0  0  0  0  0  0  0  0  0  0
  141.6411   80.3733  224.5460 H   0  0  0  0  0  0  0  0  0  0  0  0
  138.8619   77.8861  222.4564 H   0  0  0  0  0  0  0  0  0  0  0  0
  138.9972   69.4195  222.8943 H   0  0  0  0  0  0  0  0  0  0  0  0
  139.1669   68.1827  225.0399 H   0  0  0  0  0  0  0  0  0  0  0  0
  139.7812   68.1622  227.2957 H   0  0  0  0  0  0  0  0  0  0  0  0
  140.7428   69.3539  229.2928 H   0  0  0  0  0  0  0  0  0  0  0  0
  141.4826   71.6858  229.0647 H   0  0  0  0  0  0  0  0  0  0  0  0
  141.3190   72.9207  226.9303 H   0  0  0  0  0  0  0  0  0  0  0  0
  1  2  2  0
  2  3  1  0
  3  4  1  0
  4  5  1  0
  5  6  2  0
  5  7  1  0
  7  8  1  0
  8  9  1  0
  9 10  1  0
 10 11  1  0
 11 12  1  0
 12 13  1  0
 13 14  2  0
 14 15  1  0
 15 16  1  0
 15 17  2  0
 17 18  1  0
 18 19  1  0
 18 20  2  0
  2 21  1  0
 21 22  2  0
 22 23  1  0
 23 24  2  0
 24 25  1  0
 25 26  2  0
 26 27  1  0
 27 28  2  0
 28 29  1  0
 29 30  2  0
 12  7  1  0
 20 13  1  0
 30 21  1  0
 29 24  1  0
  3 31  1  0
  4 32  1  0
  4 33  1  0
  8 34  1  0
  8 35  1  0
  9 36  1  0
  9 37  1  0
 10 38  1  0
 10 39  1  0
 11 40  1  0
 11 41  1  0
 12 42  1  6
 14 43  1  0
 17 44  1  0
 20 45  1  0
 22 46  1  0
 23 47  1  0
 25 48  1  0
 26 49  1  0
 27 50  1  0
 28 51  1  0
M  END
>  <smiles>  (29) 
O=C(NCC(=O)N1CCCCC1c1cc(F)cc(F)c1)c1ccc2ccccc2n1

>  <score_type>  (29) 
oracle

>  <origin>  (29) 
autodockgpu

>  <m_score__min__energy>  (29) 
-9.0199999999999996

>  <m_primary>  (29) 
energy

>  <rmsd>  (29) 
2.0949826213313427

>  <m_score__min__rmsd>  (29) 
2.0949826213313427

>  <meeko>  (29) 
{"free_energy": -8.64, "intermolecular_energy": -10.13, "internal_energy": -1.42, "cluster_size": 26, "cluster_id": 2, "rank_in_cluster": 11}

>  <energy>  (29) 
-8.69

>  <cluster_rmsd>  (29) 
1.41

>  <cluster>  (29) 
2

$$$$

     RDKit          3D

 51 54  0  0  0  0  0  0  0  0999 V2000
  140.8550   72.1900  221.6600 O   0  0  0  0  0  0  0  0  0  0  0  0
  139.9560   72.2290  222.5540 C   0  0  0  0  0  0  0  0  0  0  0  0
  138.8550   73.1240  222.3180 N   0  0  0  0  0  0  0  0  0  0  0  0
  138.8920   73.8810  221.0940 C   0  0  0  0  0  0  0  0  0  0  0  0
  138.9370   75.3490  221.3330 C   0  0  0  0  0  0  0  0  0  0  0  0
  137.9280   76.0180  221.6880 O   0  0  0  0  0  0  0  0  0  0  0  0
  140.1720   76.0110  221.1530 N   0  0  0  0  0  0  0  0  0  0  0  0
  141.4550   75.4440  221.5390 C   0  0  0  0  0  0  0  0  0  0  0  0
  142.2640   75.2530  220.2730 C   0  0  0  0  0  0  0  0  0  0  0  0
  142.2930   76.4610  219.3950 C   0  0  0  0  0  0  0  0  0  0  0  0
  140.9950   77.1880  219.2650 C   0  0  0  0  0  0  0  0  0  0  0  0
  140.2280   77.3460  220.5470 C   0  0  2  0  0  0  0  0  0  0  0  0
  140.8380   78.2700  221.5060 C   0  0  0  0  0  0  0  0  0  0  0  0
  141.0640   77.9980  222.8350 C   0  0  0  0  0  0  0  0  0  0  0  0
  141.6430   78.8970  223.7100 C   0  0  0  0  0  0  0  0  0  0  0  0
  141.8260   78.5420  225.0020 F   0  0  0  0  0  0  0  0  0  0  0  0
  142.0050   80.1240  223.2070 C   0  0  0  0  0  0  0  0  0  0  0  0
  141.8060   80.4620  221.8800 C   0  0  0  0  0  0  0  0  0  0  0  0
  142.1900   81.6770  221.4790 F   0  0  0  0  0  0  0  0  0  0  0  0
  141.2220   79.5190  221.0520 C   0  0  0  0  0  0  0  0  0  0  0  0
  140.0120   71.4180  223.7650 C   0  0  0  0  0  0  0  0  0  0  0  0
  139.5190   70.1310  223.6860 C   0  0  0  0  0  0  0  0  0  0  0  0
  139.5190   69.2700  224.7590 C   0  0  0  0  0  0  0  0  0  0  0  0
  140.0430   69.7580  225.9450 C   0  0  0  0  0  0  0  0  0  0  0  0
  140.0400   68.8950  227.0180 C   0  0  0  0  0  0  0  0  0  0  0  0
  140.5600   69.3630  228.2170 C   0  0  0  0  0  0  0  0  0  0  0  0
  141.0490   70.6520  228.2790 C   0  0  0  0  0  0  0  0  0  0  0  0
  141.0510   71.5150  227.2040 C   0  0  0  0  0  0  0  0  0  0  0  0
  140.5310   71.0470  226.0050 C   0  0  0  0  0  0  0  0  0  0  0  0
  140.5210   71.8810  224.9310 N   0  0  0  0  0  0  0  0  0  0  0  0
  138.0920   73.1970  223.0150 H   0  0  0  0  0  0  0  0  0  0  0  0
  139.7870   73.5886  220.5253 H   0  0  0  0  0  0  0  0  0  0  0  0
  137.9692   73.6612  220.5371 H   0  0  0  0  0  0  0  0  0  0  0  0
  141.9795   76.1297  222.2207 H   0  0  0  0  0  0  0  0  0  0  0  0
  141.3154   74.4851  222.0596 H   0  0  0  0  0  0  0  0  0  0  0  0
  143.2974   75.0029  220.5549 H   0  0  0  0  0  0  0  0  0  0  0  0
  141.7809   74.4483  219.6993 H   0  0  0  0  0  0  0  0  0  0  0  0
  143.0350   77.1616  219.8056 H   0  0  0  0  0  0  0  0  0  0  0  0
  142.5399   76.0976  218.3865 H   0  0  0  0  0  0  0  0  0  0  0  0
  141.2038   78.1915  218.8657 H   0  0  0  0  0  0  0  0  0  0  0  0
  140.3646   76.5781  218.6012 H   0  0  0  0  0  0  0  0  0  0  0  0
  139.2422   77.7722  220.3092 H   0  0  0  0  0  0  0  0  0  0  0  0
  140.7679   77.0119  223.2222 H   0  0  0  0  0  0  0  0  0  0  0  0
  142.4675   80.8604  223.8806 H   0  0  0  0  0  0  0  0  0  0  0  0
  141.0572   79.7720  219.9943 H   0  0  0  0  0  0  0  0  0  0  0  0
  139.1099   69.7800  222.7271 H   0  0  0  0  0  0  0  0  0  0  0  0
  139.1233   68.2467  224.6794 H   0  0  0  0  0  0  0  0  0  0  0  0
  139.6408   67.8739  226.9285 H   0  0  0  0  0  0  0  0  0  0  0  0
  140.5820   68.7151  229.1057 H   0  0  0  0  0  0  0  0  0  0  0  0
  141.4583   71.0092  229.2355 H   0  0  0  0  0  0  0  0  0  0  0  0
  141.4497   72.5363  227.2930 H   0  0  0  0  0  0  0  0  0  0  0  0
  1  2  2  0
  2  3  1  0
  3  4  1  0
  4  5  1  0
  5  6  2  0
  5  7  1  0
  7  8  1  0
  8  9  1  0
  9 10  1  0
 10 11  1  0
 11 12  1  0
 12 13  1  0
 13 14  2  0
 14 15  1  0
 15 16  1  0
 15 17  2  0
 17 18  1  0
 18 19  1  0
 18 20  2  0
  2 21  1  0
 21 22  2  0
 22 23  1  0
 23 24  2  0
 24 25  1  0
 25 26  2  0
 26 27  1  0
 27 28  2  0
 28 29  1  0
 29 30  2  0
 12  7  1  0
 20 13  1  0
 30 21  1  0
 29 24  1  0
  3 31  1  0
  4 32  1  0
  4 33  1  0
  8 34  1  0
  8 35  1  0
  9 36  1  0
  9 37  1  0
 10 38  1  0
 10 39  1  0
 11 40  1  0
 11 41  1  0
 12 42  1  6
 14 43  1  0
 17 44  1  0
 20 45  1  0
 22 46  1  0
 23 47  1  0
 25 48  1  0
 26 49  1  0
 27 50  1  0
 28 51  1  0
M  END
>  <smiles>  (30) 
O=C(NCC(=O)N1CCCCC1c1cc(F)cc(F)c1)c1ccc2ccccc2n1

>  <score_type>  (30) 
oracle

>  <origin>  (30) 
autodockgpu

>  <m_score__min__energy>  (30) 
-9.0199999999999996

>  <m_primary>  (30) 
energy

>  <rmsd>  (30) 
2.079088816438602

>  <m_score__min__rmsd>  (30) 
2.079088816438602

>  <meeko>  (30) 
{"free_energy": -8.74, "intermolecular_energy": -10.23, "internal_energy": -1.25, "cluster_size": 26, "cluster_id": 2, "rank_in_cluster": 6}

>  <energy>  (30) 
-8.67

>  <cluster_rmsd>  (30) 
1.46

>  <cluster>  (30) 
2

$$$$

     RDKit          3D

 51 54  0  0  0  0  0  0  0  0999 V2000
  140.8440   71.4640  221.3670 O   0  0  0  0  0  0  0  0  0  0  0  0
  140.3020   72.0110  222.3750 C   0  0  0  0  0  0  0  0  0  0  0  0
  139.7760   73.3350  222.1810 N   0  0  0  0  0  0  0  0  0  0  0  0
  139.9220   73.9000  220.8650 C   0  0  0  0  0  0  0  0  0  0  0  0
  140.7210   75.1540  220.8690 C   0  0  0  0  0  0  0  0  0  0  0  0
  141.9720   75.1720  220.7100 O   0  0  0  0  0  0  0  0  0  0  0  0
  140.0360   76.3740  221.0600 N   0  0  0  0  0  0  0  0  0  0  0  0
  139.7450   77.3130  219.9870 C   0  0  0  0  0  0  0  0  0  0  0  0
  138.2390   77.3910  219.8510 C   0  0  0  0  0  0  0  0  0  0  0  0
  137.5320   77.6050  221.1490 C   0  0  0  0  0  0  0  0  0  0  0  0
  138.0670   76.8250  222.3050 C   0  0  0  0  0  0  0  0  0  0  0  0
  139.5650   76.7730  222.3920 C   0  0  2  0  0  0  0  0  0  0  0  0
  140.1950   78.0470  222.7490 C   0  0  0  0  0  0  0  0  0  0  0  0
  141.5300   78.3400  222.5980 C   0  0  0  0  0  0  0  0  0  0  0  0
  142.0880   79.5550  222.9470 C   0  0  0  0  0  0  0  0  0  0  0  0
  143.4120   79.7550  222.7640 F   0  0  0  0  0  0  0  0  0  0  0  0
  141.2480   80.5090  223.4720 C   0  0  0  0  0  0  0  0  0  0  0  0
  139.8950   80.2790  223.6490 C   0  0  0  0  0  0  0  0  0  0  0  0
  139.1550   81.2630  224.1650 F   0  0  0  0  0  0  0  0  0  0  0  0
  139.3950   79.0420  223.2800 C   0  0  0  0  0  0  0  0  0  0  0  0
  140.2040   71.3510  223.6720 C   0  0  0  0  0  0  0  0  0  0  0  0
  139.5820   70.1190  223.7080 C   0  0  0  0  0  0  0  0  0  0  0  0
  139.4300   69.3990  224.8710 C   0  0  0  0  0  0  0  0  0  0  0  0
  139.9350   69.9740  226.0260 C   0  0  0  0  0  0  0  0  0  0  0  0
  139.7810   69.2520  227.1880 C   0  0  0  0  0  0  0  0  0  0  0  0
  140.2800   69.8080  228.3590 C   0  0  0  0  0  0  0  0  0  0  0  0
  140.8980   71.0400  228.3050 C   0  0  0  0  0  0  0  0  0  0  0  0
  141.0520   71.7620  227.1410 C   0  0  0  0  0  0  0  0  0  0  0  0
  140.5540   71.2060  225.9710 C   0  0  0  0  0  0  0  0  0  0  0  0
  140.6930   71.8990  224.8100 N   0  0  0  0  0  0  0  0  0  0  0  0
  139.3220   73.8300  222.9700 H   0  0  0  0  0  0  0  0  0  0  0  0
  140.4234   73.1643  220.2189 H   0  0  0  0  0  0  0  0  0  0  0  0
  138.9163   74.1458  220.4934 H   0  0  0  0  0  0  0  0  0  0  0  0
  140.1522   78.3045  220.2341 H   0  0  0  0  0  0  0  0  0  0  0  0
  140.2038   76.9804  219.0442 H   0  0  0  0  0  0  0  0  0  0  0  0
  137.9933   78.2266  219.1792 H   0  0  0  0  0  0  0  0  0  0  0  0
  137.9002   76.4224  219.4549 H   0  0  0  0  0  0  0  0  0  0  0  0
  137.5994   78.6738  221.4002 H   0  0  0  0  0  0  0  0  0  0  0  0
  136.5017   77.2518  220.9953 H   0  0  0  0  0  0  0  0  0  0  0  0
  137.6864   77.2812  223.2307 H   0  0  0  0  0  0  0  0  0  0  0  0
  137.7297   75.7880  222.1606 H   0  0  0  0  0  0  0  0  0  0  0  0
  139.8392   76.0710  223.1933 H   0  0  0  0  0  0  0  0  0  0  0  0
  142.1887   77.5661  222.1771 H   0  0  0  0  0  0  0  0  0  0  0  0
  141.6647   81.4854  223.7602 H   0  0  0  0  0  0  0  0  0  0  0  0
  138.3215   78.8432  223.4142 H   0  0  0  0  0  0  0  0  0  0  0  0
  139.1926   69.6962  222.7701 H   0  0  0  0  0  0  0  0  0  0  0  0
  138.9332   68.4177  224.8830 H   0  0  0  0  0  0  0  0  0  0  0  0
  139.2817   68.2719  227.1891 H   0  0  0  0  0  0  0  0  0  0  0  0
  140.1837   69.2735  229.3156 H   0  0  0  0  0  0  0  0  0  0  0  0
  141.2884   71.4687  229.2398 H   0  0  0  0  0  0  0  0  0  0  0  0
  141.5510   72.7423  227.1395 H   0  0  0  0  0  0  0  0  0  0  0  0
  1  2  2  0
  2  3  1  0
  3  4  1  0
  4  5  1  0
  5  6  2  0
  5  7  1  0
  7  8  1  0
  8  9  1  0
  9 10  1  0
 10 11  1  0
 11 12  1  0
 12 13  1  0
 13 14  2  0
 14 15  1  0
 15 16  1  0
 15 17  2  0
 17 18  1  0
 18 19  1  0
 18 20  2  0
  2 21  1  0
 21 22  2  0
 22 23  1  0
 23 24  2  0
 24 25  1  0
 25 26  2  0
 26 27  1  0
 27 28  2  0
 28 29  1  0
 29 30  2  0
 12  7  1  0
 20 13  1  0
 30 21  1  0
 29 24  1  0
  3 31  1  0
  4 32  1  0
  4 33  1  0
  8 34  1  0
  8 35  1  0
  9 36  1  0
  9 37  1  0
 10 38  1  0
 10 39  1  0
 11 40  1  0
 11 41  1  0
 12 42  1  1
 14 43  1  0
 17 44  1  0
 20 45  1  0
 22 46  1  0
 23 47  1  0
 25 48  1  0
 26 49  1  0
 27 50  1  0
 28 51  1  0
M  END
>  <smiles>  (31) 
O=C(NCC(=O)N1CCCCC1c1cc(F)cc(F)c1)c1ccc2ccccc2n1

>  <score_type>  (31) 
oracle

>  <origin>  (31) 
autodockgpu

>  <m_score__min__energy>  (31) 
-9.0199999999999996

>  <m_primary>  (31) 
energy

>  <rmsd>  (31) 
2.639394527690108

>  <m_score__min__rmsd>  (31) 
2.639394527690108

>  <meeko>  (31) 
{"free_energy": -8.55, "intermolecular_energy": -10.04, "internal_energy": -1.36, "cluster_size": 26, "cluster_id": 2, "rank_in_cluster": 17}

>  <energy>  (31) 
-8.66

>  <cluster_rmsd>  (31) 
1.05

>  <cluster>  (31) 
2

$$$$

     RDKit          3D

 51 54  0  0  0  0  0  0  0  0999 V2000
  140.8480   71.6400  221.3950 O   0  0  0  0  0  0  0  0  0  0  0  0
  140.3540   72.1600  222.4420 C   0  0  0  0  0  0  0  0  0  0  0  0
  139.9200   73.5270  222.3360 N   0  0  0  0  0  0  0  0  0  0  0  0
  140.0920   74.1600  221.0540 C   0  0  0  0  0  0  0  0  0  0  0  0
  141.4920   74.6080  220.8240 C   0  0  0  0  0  0  0  0  0  0  0  0
  142.4900   73.8530  220.9870 O   0  0  0  0  0  0  0  0  0  0  0  0
  141.7000   75.9390  220.4030 N   0  0  0  0  0  0  0  0  0  0  0  0
  142.9550   76.4220  219.8470 C   0  0  0  0  0  0  0  0  0  0  0  0
  142.6850   76.8390  218.4160 C   0  0  0  0  0  0  0  0  0  0  0  0
  141.4920   77.7250  218.2680 C   0  0  0  0  0  0  0  0  0  0  0  0
  140.3080   77.3480  219.0970 C   0  0  0  0  0  0  0  0  0  0  0  0
  140.6290   76.9380  220.5060 C   0  0  2  0  0  0  0  0  0  0  0  0
  141.0900   78.0320  221.3650 C   0  0  0  0  0  0  0  0  0  0  0  0
  141.3720   79.3080  220.9390 C   0  0  0  0  0  0  0  0  0  0  0  0
  141.8050   80.3140  221.7810 C   0  0  0  0  0  0  0  0  0  0  0  0
  142.0600   81.5420  221.2740 F   0  0  0  0  0  0  0  0  0  0  0  0
  141.9550   80.0040  223.1120 C   0  0  0  0  0  0  0  0  0  0  0  0
  141.6870   78.7390  223.6060 C   0  0  0  0  0  0  0  0  0  0  0  0
  141.8600   78.5280  224.9130 F   0  0  0  0  0  0  0  0  0  0  0  0
  141.2560   77.7730  222.7130 C   0  0  0  0  0  0  0  0  0  0  0  0
  140.2230   71.4300  223.6970 C   0  0  0  0  0  0  0  0  0  0  0  0
  139.5750   70.2110  223.6540 C   0  0  0  0  0  0  0  0  0  0  0  0
  139.3910   69.4310  224.7720 C   0  0  0  0  0  0  0  0  0  0  0  0
  139.8910   69.9270  225.9650 C   0  0  0  0  0  0  0  0  0  0  0  0
  139.7050   69.1430  227.0820 C   0  0  0  0  0  0  0  0  0  0  0  0
  140.1980   69.6210  228.2880 C   0  0  0  0  0  0  0  0  0  0  0  0
  140.8430   70.8400  228.3140 C   0  0  0  0  0  0  0  0  0  0  0  0
  141.0290   71.6240  227.1950 C   0  0  0  0  0  0  0  0  0  0  0  0
  140.5360   71.1460  225.9880 C   0  0  0  0  0  0  0  0  0  0  0  0
  140.7070   71.9010  224.8710 N   0  0  0  0  0  0  0  0  0  0  0  0
  139.5090   74.0020  223.1600 H   0  0  0  0  0  0  0  0  0  0  0  0
  139.8171   73.4428  220.2666 H   0  0  0  0  0  0  0  0  0  0  0  0
  139.4475   75.0512  221.0317 H   0  0  0  0  0  0  0  0  0  0  0  0
  143.3169   77.2832  220.4278 H   0  0  0  0  0  0  0  0  0  0  0  0
  143.7244   75.6368  219.8844 H   0  0  0  0  0  0  0  0  0  0  0  0
  143.5670   77.3768  218.0379 H   0  0  0  0  0  0  0  0  0  0  0  0
  142.4790   75.9215  217.8453 H   0  0  0  0  0  0  0  0  0  0  0  0
  141.7907   78.7461  218.5473 H   0  0  0  0  0  0  0  0  0  0  0  0
  141.1714   77.6296  217.2201 H   0  0  0  0  0  0  0  0  0  0  0  0
  139.6302   78.2133  219.1386 H   0  0  0  0  0  0  0  0  0  0  0  0
  139.8597   76.4676  218.6134 H   0  0  0  0  0  0  0  0  0  0  0  0
  139.7075   76.5617  220.9742 H   0  0  0  0  0  0  0  0  0  0  0  0
  141.2463   79.5404  219.8712 H   0  0  0  0  0  0  0  0  0  0  0  0
  142.2986   80.7854  223.8058 H   0  0  0  0  0  0  0  0  0  0  0  0
  141.0377   76.7628  223.0895 H   0  0  0  0  0  0  0  0  0  0  0  0
  139.1912   69.8500  222.6884 H   0  0  0  0  0  0  0  0  0  0  0  0
  138.8728   68.4620  224.7213 H   0  0  0  0  0  0  0  0  0  0  0  0
  139.1857   68.1752  227.0206 H   0  0  0  0  0  0  0  0  0  0  0  0
  140.0760   69.0354  229.2111 H   0  0  0  0  0  0  0  0  0  0  0  0
  141.2289   71.2055  229.2770 H   0  0  0  0  0  0  0  0  0  0  0  0
  141.5484   72.5917  227.2562 H   0  0  0  0  0  0  0  0  0  0  0  0
  1  2  2  0
  2  3  1  0
  3  4  1  0
  4  5  1  0
  5  6  2  0
  5  7  1  0
  7  8  1  0
  8  9  1  0
  9 10  1  0
 10 11  1  0
 11 12  1  0
 12 13  1  0
 13 14  2  0
 14 15  1  0
 15 16  1  0
 15 17  2  0
 17 18  1  0
 18 19  1  0
 18 20  2  0
  2 21  1  0
 21 22  2  0
 22 23  1  0
 23 24  2  0
 24 25  1  0
 25 26  2  0
 26 27  1  0
 27 28  2  0
 28 29  1  0
 29 30  2  0
 12  7  1  0
 20 13  1  0
 30 21  1  0
 29 24  1  0
  3 31  1  0
  4 32  1  0
  4 33  1  0
  8 34  1  0
  8 35  1  0
  9 36  1  0
  9 37  1  0
 10 38  1  0
 10 39  1  0
 11 40  1  0
 11 41  1  0
 12 42  1  1
 14 43  1  0
 17 44  1  0
 20 45  1  0
 22 46  1  0
 23 47  1  0
 25 48  1  0
 26 49  1  0
 27 50  1  0
 28 51  1  0
M  END
>  <smiles>  (32) 
O=C(NCC(=O)N1CCCCC1c1cc(F)cc(F)c1)c1ccc2ccccc2n1

>  <score_type>  (32) 
oracle

>  <origin>  (32) 
autodockgpu

>  <m_score__min__energy>  (32) 
-9.0199999999999996

>  <m_primary>  (32) 
energy

>  <rmsd>  (32) 
2.177459186465304

>  <m_score__min__rmsd>  (32) 
2.177459186465304

>  <meeko>  (32) 
{"free_energy": -8.76, "intermolecular_energy": -10.26, "internal_energy": -1.29, "cluster_size": 26, "cluster_id": 2, "rank_in_cluster": 3}

>  <energy>  (32) 
-8.64

>  <cluster_rmsd>  (32) 
1.41

>  <cluster>  (32) 
2

$$$$

     RDKit          3D

 51 54  0  0  0  0  0  0  0  0999 V2000
  140.3690   74.8110  220.2970 O   0  0  0  0  0  0  0  0  0  0  0  0
  139.8640   75.1360  221.4150 C   0  0  0  0  0  0  0  0  0  0  0  0
  139.2070   74.0900  222.1500 N   0  0  0  0  0  0  0  0  0  0  0  0
  139.1910   72.7860  221.5410 C   0  0  0  0  0  0  0  0  0  0  0  0
  139.9800   71.7880  222.3120 C   0  0  0  0  0  0  0  0  0  0  0  0
  141.1790   71.5020  222.0410 O   0  0  0  0  0  0  0  0  0  0  0  0
  139.3480   71.1390  223.3950 N   0  0  0  0  0  0  0  0  0  0  0  0
  138.0350   71.5090  223.9020 C   0  0  0  0  0  0  0  0  0  0  0  0
  137.1140   70.3290  223.6730 C   0  0  0  0  0  0  0  0  0  0  0  0
  137.6800   69.0290  224.1420 C   0  0  0  0  0  0  0  0  0  0  0  0
  139.1300   68.8210  223.8500 C   0  0  0  0  0  0  0  0  0  0  0  0
  140.0000   70.0210  224.0880 C   0  0  2  0  0  0  0  0  0  0  0  0
  140.1670   70.3780  225.4990 C   0  0  0  0  0  0  0  0  0  0  0  0
  139.6550   69.6700  226.5610 C   0  0  0  0  0  0  0  0  0  0  0  0
  139.8340   70.0400  227.8800 C   0  0  0  0  0  0  0  0  0  0  0  0
  139.2930   69.2830  228.8620 F   0  0  0  0  0  0  0  0  0  0  0  0
  140.5660   71.1780  228.1250 C   0  0  0  0  0  0  0  0  0  0  0  0
  141.1090   71.9350  227.1020 C   0  0  0  0  0  0  0  0  0  0  0  0
  141.8060   73.0260  227.4330 F   0  0  0  0  0  0  0  0  0  0  0  0
  140.8960   71.5140  225.8010 C   0  0  0  0  0  0  0  0  0  0  0  0
  139.9340   76.4930  221.9460 C   0  0  0  0  0  0  0  0  0  0  0  0
  138.7450   77.1860  222.0650 C   0  0  0  0  0  0  0  0  0  0  0  0
  138.6830   78.4710  222.5520 C   0  0  0  0  0  0  0  0  0  0  0  0
  139.8840   79.0510  222.9260 C   0  0  0  0  0  0  0  0  0  0  0  0
  139.8180   80.3370  223.4140 C   0  0  0  0  0  0  0  0  0  0  0  0
  141.0100   80.9400  223.7940 C   0  0  0  0  0  0  0  0  0  0  0  0
  142.1880   80.2340  223.6690 C   0  0  0  0  0  0  0  0  0  0  0  0
  142.2530   78.9450  223.1810 C   0  0  0  0  0  0  0  0  0  0  0  0
  141.0610   78.3430  222.8010 C   0  0  0  0  0  0  0  0  0  0  0  0
  141.0990   77.0740  222.3150 N   0  0  0  0  0  0  0  0  0  0  0  0
  138.7760   74.2990  223.0690 H   0  0  0  0  0  0  0  0  0  0  0  0
  138.1491   72.4391  221.4773 H   0  0  0  0  0  0  0  0  0  0  0  0
  139.6484   72.8765  220.5447 H   0  0  0  0  0  0  0  0  0  0  0  0
  138.0967   71.7352  224.9767 H   0  0  0  0  0  0  0  0  0  0  0  0
  137.6566   72.4038  223.3860 H   0  0  0  0  0  0  0  0  0  0  0  0
  136.1727   70.5129  224.2116 H   0  0  0  0  0  0  0  0  0  0  0  0
  136.9645   70.2426  222.5866 H   0  0  0  0  0  0  0  0  0  0  0  0
  137.5412   68.9714  225.2317 H   0  0  0  0  0  0  0  0  0  0  0  0
  137.1428   68.2458  223.5870 H   0  0  0  0  0  0  0  0  0  0  0  0
  139.4936   68.0029  224.4892 H   0  0  0  0  0  0  0  0  0  0  0  0
  139.1998   68.5970  222.7753 H   0  0  0  0  0  0  0  0  0  0  0  0
  141.0106   69.7923  223.7186 H   0  0  0  0  0  0  0  0  0  0  0  0
  139.0723   68.7614  226.3491 H   0  0  0  0  0  0  0  0  0  0  0  0
  140.7247   71.4962  229.1659 H   0  0  0  0  0  0  0  0  0  0  0  0
  141.3222   72.1046  224.9766 H   0  0  0  0  0  0  0  0  0  0  0  0
  137.8116   76.6911  221.7585 H   0  0  0  0  0  0  0  0  0  0  0  0
  137.7284   79.0104  222.6399 H   0  0  0  0  0  0  0  0  0  0  0  0
  138.8577   80.8665  223.4996 H   0  0  0  0  0  0  0  0  0  0  0  0
  141.0144   81.9665  224.1892 H   0  0  0  0  0  0  0  0  0  0  0  0
  143.1244   80.7239  223.9742 H   0  0  0  0  0  0  0  0  0  0  0  0
  143.2129   78.4144  223.0962 H   0  0  0  0  0  0  0  0  0  0  0  0
  1  2  2  0
  2  3  1  0
  3  4  1  0
  4  5  1  0
  5  6  2  0
  5  7  1  0
  7  8  1  0
  8  9  1  0
  9 10  1  0
 10 11  1  0
 11 12  1  0
 12 13  1  0
 13 14  2  0
 14 15  1  0
 15 16  1  0
 15 17  2  0
 17 18  1  0
 18 19  1  0
 18 20  2  0
  2 21  1  0
 21 22  2  0
 22 23  1  0
 23 24  2  0
 24 25  1  0
 25 26  2  0
 26 27  1  0
 27 28  2  0
 28 29  1  0
 29 30  2  0
 12  7  1  0
 20 13  1  0
 30 21  1  0
 29 24  1  0
  3 31  1  0
  4 32  1  0
  4 33  1  0
  8 34  1  0
  8 35  1  0
  9 36  1  0
  9 37  1  0
 10 38  1  0
 10 39  1  0
 11 40  1  0
 11 41  1  0
 12 42  1  6
 14 43  1  0
 17 44  1  0
 20 45  1  0
 22 46  1  0
 23 47  1  0
 25 48  1  0
 26 49  1  0
 27 50  1  0
 28 51  1  0
M  END
>  <smiles>  (33) 
O=C(NCC(=O)N1CCCCC1c1cc(F)cc(F)c1)c1ccc2ccccc2n1

>  <score_type>  (33) 
oracle

>  <origin>  (33) 
autodockgpu

>  <m_score__min__energy>  (33) 
-9.0199999999999996

>  <m_primary>  (33) 
energy

>  <rmsd>  (33) 
8.234129192936626

>  <m_score__min__rmsd>  (33) 
8.234129192936626

>  <meeko>  (33) 
{"free_energy": -8.84, "intermolecular_energy": -10.33, "internal_energy": -1.28, "cluster_size": 21, "cluster_id": 1, "rank_in_cluster": 9}

>  <energy>  (33) 
-8.64

>  <cluster_rmsd>  (33) 
1.46

>  <cluster>  (33) 
2

$$$$

     RDKit          3D

 51 54  0  0  0  0  0  0  0  0999 V2000
  139.4900   71.1770  221.3160 O   0  0  0  0  0  0  0  0  0  0  0  0
  139.4930   71.8280  222.4040 C   0  0  0  0  0  0  0  0  0  0  0  0
  139.2590   73.2440  222.3060 N   0  0  0  0  0  0  0  0  0  0  0  0
  139.0460   73.7710  220.9830 C   0  0  0  0  0  0  0  0  0  0  0  0
  139.0020   75.2580  220.9630 C   0  0  0  0  0  0  0  0  0  0  0  0
  137.9250   75.9120  220.8960 O   0  0  0  0  0  0  0  0  0  0  0  0
  140.2280   75.9570  221.0220 N   0  0  0  0  0  0  0  0  0  0  0  0
  141.4460   75.4010  221.5930 C   0  0  0  0  0  0  0  0  0  0  0  0
  142.4600   75.2930  220.4720 C   0  0  0  0  0  0  0  0  0  0  0  0
  142.5960   76.5440  219.6680 C   0  0  0  0  0  0  0  0  0  0  0  0
  141.3160   77.2450  219.3540 C   0  0  0  0  0  0  0  0  0  0  0  0
  140.3420   77.3220  220.4950 C   0  0  2  0  0  0  0  0  0  0  0  0
  140.7540   78.2110  221.5840 C   0  0  0  0  0  0  0  0  0  0  0  0
  142.0110   78.7470  221.7370 C   0  0  0  0  0  0  0  0  0  0  0  0
  142.3620   79.5830  222.7790 C   0  0  0  0  0  0  0  0  0  0  0  0
  143.6240   80.0640  222.8500 F   0  0  0  0  0  0  0  0  0  0  0  0
  141.3890   79.8850  223.7030 C   0  0  0  0  0  0  0  0  0  0  0  0
  140.1040   79.3790  223.6080 C   0  0  0  0  0  0  0  0  0  0  0  0
  139.2240   79.7260  224.5500 F   0  0  0  0  0  0  0  0  0  0  0  0
  139.8130   78.5470  222.5410 C   0  0  0  0  0  0  0  0  0  0  0  0
  139.7200   71.1970  223.7000 C   0  0  0  0  0  0  0  0  0  0  0  0
  139.4120   69.8560  223.8110 C   0  0  0  0  0  0  0  0  0  0  0  0
  139.5830   69.1510  224.9790 C   0  0  0  0  0  0  0  0  0  0  0  0
  140.0860   69.8560  226.0610 C   0  0  0  0  0  0  0  0  0  0  0  0
  140.2560   69.1480  227.2300 C   0  0  0  0  0  0  0  0  0  0  0  0
  140.7580   69.8340  228.3270 C   0  0  0  0  0  0  0  0  0  0  0  0
  141.0600   71.1740  228.1990 C   0  0  0  0  0  0  0  0  0  0  0  0
  140.8900   71.8820  227.0280 C   0  0  0  0  0  0  0  0  0  0  0  0
  140.3880   71.1960  225.9310 C   0  0  0  0  0  0  0  0  0  0  0  0
  140.2100   71.8730  224.7650 N   0  0  0  0  0  0  0  0  0  0  0  0
  139.2510   73.8260  223.1630 H   0  0  0  0  0  0  0  0  0  0  0  0
  139.8663   73.4335  220.3324 H   0  0  0  0  0  0  0  0  0  0  0  0
  138.0718   73.4027  220.6291 H   0  0  0  0  0  0  0  0  0  0  0  0
  141.8279   76.0637  222.3836 H   0  0  0  0  0  0  0  0  0  0  0  0
  141.2521   74.4146  222.0395 H   0  0  0  0  0  0  0  0  0  0  0  0
  143.4397   75.0532  220.9109 H   0  0  0  0  0  0  0  0  0  0  0  0
  142.1045   74.5072  219.7893 H   0  0  0  0  0  0  0  0  0  0  0  0
  143.2356   77.2407  220.2297 H   0  0  0  0  0  0  0  0  0  0  0  0
  143.0196   76.2379  218.7001 H   0  0  0  0  0  0  0  0  0  0  0  0
  141.5564   78.2714  219.0398 H   0  0  0  0  0  0  0  0  0  0  0  0
  140.8245   76.6534  218.5676 H   0  0  0  0  0  0  0  0  0  0  0  0
  139.3971   77.7373  220.1147 H   0  0  0  0  0  0  0  0  0  0  0  0
  142.7782   78.4966  220.9895 H   0  0  0  0  0  0  0  0  0  0  0  0
  141.6396   80.5491  224.5434 H   0  0  0  0  0  0  0  0  0  0  0  0
  138.7960   78.1377  222.4505 H   0  0  0  0  0  0  0  0  0  0  0  0
  139.0141   69.3307  222.9303 H   0  0  0  0  0  0  0  0  0  0  0  0
  139.3333   68.0821  225.0510 H   0  0  0  0  0  0  0  0  0  0  0  0
  140.0034   68.0792  227.2918 H   0  0  0  0  0  0  0  0  0  0  0  0
  140.9129   69.3165  229.2852 H   0  0  0  0  0  0  0  0  0  0  0  0
  141.4570   71.7052  229.0766 H   0  0  0  0  0  0  0  0  0  0  0  0
  141.1429   72.9507  226.9657 H   0  0  0  0  0  0  0  0  0  0  0  0
  1  2  2  0
  2  3  1  0
  3  4  1  0
  4  5  1  0
  5  6  2  0
  5  7  1  0
  7  8  1  0
  8  9  1  0
  9 10  1  0
 10 11  1  0
 11 12  1  0
 12 13  1  0
 13 14  2  0
 14 15  1  0
 15 16  1  0
 15 17  2  0
 17 18  1  0
 18 19  1  0
 18 20  2  0
  2 21  1  0
 21 22  2  0
 22 23  1  0
 23 24  2  0
 24 25  1  0
 25 26  2  0
 26 27  1  0
 27 28  2  0
 28 29  1  0
 29 30  2  0
 12  7  1  0
 20 13  1  0
 30 21  1  0
 29 24  1  0
  3 31  1  0
  4 32  1  0
  4 33  1  0
  8 34  1  0
  8 35  1  0
  9 36  1  0
  9 37  1  0
 10 38  1  0
 10 39  1  0
 11 40  1  0
 11 41  1  0
 12 42  1  6
 14 43  1  0
 17 44  1  0
 20 45  1  0
 22 46  1  0
 23 47  1  0
 25 48  1  0
 26 49  1  0
 27 50  1  0
 28 51  1  0
M  END
>  <smiles>  (34) 
O=C(NCC(=O)N1CCCCC1c1cc(F)cc(F)c1)c1ccc2ccccc2n1

>  <score_type>  (34) 
oracle

>  <origin>  (34) 
autodockgpu

>  <m_score__min__energy>  (34) 
-9.0199999999999996

>  <m_primary>  (34) 
energy

>  <rmsd>  (34) 
2.102190387082928

>  <m_score__min__rmsd>  (34) 
2.102190387082928

>  <meeko>  (34) 
{"free_energy": -8.6, "intermolecular_energy": -10.09, "internal_energy": -1.42, "cluster_size": 26, "cluster_id": 2, "rank_in_cluster": 14}

>  <energy>  (34) 
-8.6

>  <cluster_rmsd>  (34) 
1.5

>  <cluster>  (34) 
2

$$$$

     RDKit          3D

 51 54  0  0  0  0  0  0  0  0999 V2000
  140.6480   75.0670  221.0170 O   0  0  0  0  0  0  0  0  0  0  0  0
  139.9110   75.6570  221.8640 C   0  0  0  0  0  0  0  0  0  0  0  0
  138.8000   74.9060  222.3810 N   0  0  0  0  0  0  0  0  0  0  0  0
  138.6410   73.5640  221.8820 C   0  0  0  0  0  0  0  0  0  0  0  0
  139.6210   72.6160  222.4760 C   0  0  0  0  0  0  0  0  0  0  0  0
  140.8680   72.7370  222.3310 O   0  0  0  0  0  0  0  0  0  0  0  0
  139.1200   71.5360  223.2360 N   0  0  0  0  0  0  0  0  0  0  0  0
  137.7690   71.4860  223.7740 C   0  0  0  0  0  0  0  0  0  0  0  0
  137.0590   70.3270  223.1050 C   0  0  0  0  0  0  0  0  0  0  0  0
  137.8430   69.0560  223.1240 C   0  0  0  0  0  0  0  0  0  0  0  0
  139.3040   69.2020  222.8500 C   0  0  0  0  0  0  0  0  0  0  0  0
  139.9600   70.3690  223.5310 C   0  0  2  0  0  0  0  0  0  0  0  0
  140.0790   70.2330  224.9850 C   0  0  0  0  0  0  0  0  0  0  0  0
  139.7610   69.1050  225.7030 C   0  0  0  0  0  0  0  0  0  0  0  0
  139.8870   69.0150  227.0760 C   0  0  0  0  0  0  0  0  0  0  0  0
  139.5490   67.8640  227.7010 F   0  0  0  0  0  0  0  0  0  0  0  0
  140.3570   70.1230  227.7420 C   0  0  0  0  0  0  0  0  0  0  0  0
  140.6950   71.2890  227.0790 C   0  0  0  0  0  0  0  0  0  0  0  0
  141.1430   72.3160  227.8070 F   0  0  0  0  0  0  0  0  0  0  0  0
  140.5480   71.3180  225.7030 C   0  0  0  0  0  0  0  0  0  0  0  0
  140.1590   77.0250  222.3060 C   0  0  0  0  0  0  0  0  0  0  0  0
  139.0570   77.7980  222.6150 C   0  0  0  0  0  0  0  0  0  0  0  0
  139.1620   79.1000  223.0430 C   0  0  0  0  0  0  0  0  0  0  0  0
  140.4440   79.6150  223.1540 C   0  0  0  0  0  0  0  0  0  0  0  0
  140.5460   80.9200  223.5820 C   0  0  0  0  0  0  0  0  0  0  0  0
  141.8210   81.4560  223.7000 C   0  0  0  0  0  0  0  0  0  0  0  0
  142.9110   80.6710  223.3880 C   0  0  0  0  0  0  0  0  0  0  0  0
  142.8080   79.3650  222.9590 C   0  0  0  0  0  0  0  0  0  0  0  0
  141.5330   78.8280  222.8410 C   0  0  0  0  0  0  0  0  0  0  0  0
  141.4050   77.5420  222.4190 N   0  0  0  0  0  0  0  0  0  0  0  0
  138.1640   75.3380  223.0770 H   0  0  0  0  0  0  0  0  0  0  0  0
  137.6249   73.2168  222.1209 H   0  0  0  0  0  0  0  0  0  0  0  0
  138.8151   73.5882  220.7961 H   0  0  0  0  0  0  0  0  0  0  0  0
  137.8030   71.3288  224.8622 H   0  0  0  0  0  0  0  0  0  0  0  0
  137.2386   72.4303  223.5817 H   0  0  0  0  0  0  0  0  0  0  0  0
  136.1055   70.1555  223.6259 H   0  0  0  0  0  0  0  0  0  0  0  0
  136.9148   70.6020  222.0497 H   0  0  0  0  0  0  0  0  0  0  0  0
  137.7278   68.6007  224.1187 H   0  0  0  0  0  0  0  0  0  0  0  0
  137.4409   68.4389  222.3070 H   0  0  0  0  0  0  0  0  0  0  0  0
  139.8082   68.2833  223.1844 H   0  0  0  0  0  0  0  0  0  0  0  0
  139.3995   69.3812  221.7689 H   0  0  0  0  0  0  0  0  0  0  0  0
  140.9906   70.4520  223.1556 H   0  0  0  0  0  0  0  0  0  0  0  0
  139.3864   68.2275  225.1556 H   0  0  0  0  0  0  0  0  0  0  0  0
  140.4675   70.0805  228.8356 H   0  0  0  0  0  0  0  0  0  0  0  0
  140.8139   72.2374  225.1608 H   0  0  0  0  0  0  0  0  0  0  0  0
  138.0556   77.3541  222.5146 H   0  0  0  0  0  0  0  0  0  0  0  0
  138.2740   79.7024  223.2850 H   0  0  0  0  0  0  0  0  0  0  0  0
  139.6519   81.5145  223.8211 H   0  0  0  0  0  0  0  0  0  0  0  0
  141.9601   82.4935  224.0380 H   0  0  0  0  0  0  0  0  0  0  0  0
  143.9149   81.1098  223.4866 H   0  0  0  0  0  0  0  0  0  0  0  0
  143.7021   78.7708  222.7192 H   0  0  0  0  0  0  0  0  0  0  0  0
  1  2  2  0
  2  3  1  0
  3  4  1  0
  4  5  1  0
  5  6  2  0
  5  7  1  0
  7  8  1  0
  8  9  1  0
  9 10  1  0
 10 11  1  0
 11 12  1  0
 12 13  1  0
 13 14  2  0
 14 15  1  0
 15 16  1  0
 15 17  2  0
 17 18  1  0
 18 19  1  0
 18 20  2  0
  2 21  1  0
 21 22  2  0
 22 23  1  0
 23 24  2  0
 24 25  1  0
 25 26  2  0
 26 27  1  0
 27 28  2  0
 28 29  1  0
 29 30  2  0
 12  7  1  0
 20 13  1  0
 30 21  1  0
 29 24  1  0
  3 31  1  0
  4 32  1  0
  4 33  1  0
  8 34  1  0
  8 35  1  0
  9 36  1  0
  9 37  1  0
 10 38  1  0
 10 39  1  0
 11 40  1  0
 11 41  1  0
 12 42  1  6
 14 43  1  0
 17 44  1  0
 20 45  1  0
 22 46  1  0
 23 47  1  0
 25 48  1  0
 26 49  1  0
 27 50  1  0
 28 51  1  0
M  END
>  <smiles>  (35) 
O=C(NCC(=O)N1CCCCC1c1cc(F)cc(F)c1)c1ccc2ccccc2n1

>  <score_type>  (35) 
oracle

>  <origin>  (35) 
autodockgpu

>  <m_score__min__energy>  (35) 
-9.0199999999999996

>  <m_primary>  (35) 
energy

>  <rmsd>  (35) 
8.332113960543287

>  <m_score__min__rmsd>  (35) 
8.332113960543287

>  <meeko>  (35) 
{"free_energy": -8.9, "intermolecular_energy": -10.39, "internal_energy": -1.22, "cluster_size": 21, "cluster_id": 1, "rank_in_cluster": 6}

>  <energy>  (35) 
-8.6

>  <cluster_rmsd>  (35) 
1.45

>  <cluster>  (35) 
2

$$$$

     RDKit          3D

 51 54  0  0  0  0  0  0  0  0999 V2000
  140.4380   74.4120  220.2690 O   0  0  0  0  0  0  0  0  0  0  0  0
  140.1670   75.1210  221.2850 C   0  0  0  0  0  0  0  0  0  0  0  0
  139.2700   74.5450  222.2490 N   0  0  0  0  0  0  0  0  0  0  0  0
  138.7740   73.2250  221.9590 C   0  0  0  0  0  0  0  0  0  0  0  0
  139.6690   72.1550  222.4740 C   0  0  0  0  0  0  0  0  0  0  0  0
  140.8420   71.9750  222.0450 O   0  0  0  0  0  0  0  0  0  0  0  0
  139.1730   71.3070  223.4880 N   0  0  0  0  0  0  0  0  0  0  0  0
  137.8690   71.4740  224.1120 C   0  0  0  0  0  0  0  0  0  0  0  0
  137.0450   70.2490  223.7710 C   0  0  0  0  0  0  0  0  0  0  0  0
  137.7580   68.9610  224.0240 C   0  0  0  0  0  0  0  0  0  0  0  0
  139.1980   68.9390  223.6280 C   0  0  0  0  0  0  0  0  0  0  0  0
  139.9700   70.1780  223.9830 C   0  0  2  0  0  0  0  0  0  0  0  0
  140.1970   70.3590  225.4190 C   0  0  0  0  0  0  0  0  0  0  0  0
  139.8370   69.4620  226.3970 C   0  0  0  0  0  0  0  0  0  0  0  0
  140.0690   69.6690  227.7430 C   0  0  0  0  0  0  0  0  0  0  0  0
  139.6790   68.7310  228.6360 F   0  0  0  0  0  0  0  0  0  0  0  0
  140.6940   70.8380  228.1050 C   0  0  0  0  0  0  0  0  0  0  0  0
  141.0830   71.7820  227.1710 C   0  0  0  0  0  0  0  0  0  0  0  0
  141.6850   72.8900  227.6130 F   0  0  0  0  0  0  0  0  0  0  0  0
  140.8240   71.5190  225.8370 C   0  0  0  0  0  0  0  0  0  0  0  0
  140.7250   76.4540  221.4860 C   0  0  0  0  0  0  0  0  0  0  0  0
  141.0510   77.1800  220.3570 C   0  0  0  0  0  0  0  0  0  0  0  0
  141.5820   78.4470  220.4190 C   0  0  0  0  0  0  0  0  0  0  0  0
  141.7820   78.9750  221.6840 C   0  0  0  0  0  0  0  0  0  0  0  0
  142.3150   80.2430  221.7430 C   0  0  0  0  0  0  0  0  0  0  0  0
  142.5240   80.7920  223.0010 C   0  0  0  0  0  0  0  0  0  0  0  0
  142.1940   80.0540  224.1180 C   0  0  0  0  0  0  0  0  0  0  0  0
  141.6600   78.7840  224.0590 C   0  0  0  0  0  0  0  0  0  0  0  0
  141.4510   78.2350  222.8010 C   0  0  0  0  0  0  0  0  0  0  0  0
  140.9260   76.9830  222.7160 N   0  0  0  0  0  0  0  0  0  0  0  0
  139.0130   75.0800  223.0980 H   0  0  0  0  0  0  0  0  0  0  0  0
  137.7835   73.1103  222.4234 H   0  0  0  0  0  0  0  0  0  0  0  0
  138.7222   73.1200  220.8652 H   0  0  0  0  0  0  0  0  0  0  0  0
  137.9821   71.5597  225.2028 H   0  0  0  0  0  0  0  0  0  0  0  0
  137.3772   72.3877  223.7469 H   0  0  0  0  0  0  0  0  0  0  0  0
  136.1290   70.2652  224.3799 H   0  0  0  0  0  0  0  0  0  0  0  0
  136.8307   70.2935  222.6930 H   0  0  0  0  0  0  0  0  0  0  0  0
  137.6986   68.7458  225.1011 H   0  0  0  0  0  0  0  0  0  0  0  0
  137.2586   68.2089  223.3956 H   0  0  0  0  0  0  0  0  0  0  0  0
  139.6766   68.0834  224.1268 H   0  0  0  0  0  0  0  0  0  0  0  0
  139.2154   68.8682  222.5304 H   0  0  0  0  0  0  0  0  0  0  0  0
  140.9704   70.1026  223.5319 H   0  0  0  0  0  0  0  0  0  0  0  0
  139.3380   68.5305  226.0915 H   0  0  0  0  0  0  0  0  0  0  0  0
  140.8912   71.0293  229.1701 H   0  0  0  0  0  0  0  0  0  0  0  0
  141.1277   72.2591  225.0820 H   0  0  0  0  0  0  0  0  0  0  0  0
  140.8791   76.7269  219.3695 H   0  0  0  0  0  0  0  0  0  0  0  0
  141.8351   79.0126  219.5101 H   0  0  0  0  0  0  0  0  0  0  0  0
  142.5658   80.8000  220.8282 H   0  0  0  0  0  0  0  0  0  0  0  0
  142.9471   81.8020  223.1052 H   0  0  0  0  0  0  0  0  0  0  0  0
  142.3657   80.5018  225.1080 H   0  0  0  0  0  0  0  0  0  0  0  0
  141.4092   78.2271  224.9738 H   0  0  0  0  0  0  0  0  0  0  0  0
  1  2  2  0
  2  3  1  0
  3  4  1  0
  4  5  1  0
  5  6  2  0
  5  7  1  0
  7  8  1  0
  8  9  1  0
  9 10  1  0
 10 11  1  0
 11 12  1  0
 12 13  1  0
 13 14  2  0
 14 15  1  0
 15 16  1  0
 15 17  2  0
 17 18  1  0
 18 19  1  0
 18 20  2  0
  2 21  1  0
 21 22  2  0
 22 23  1  0
 23 24  2  0
 24 25  1  0
 25 26  2  0
 26 27  1  0
 27 28  2  0
 28 29  1  0
 29 30  2  0
 12  7  1  0
 20 13  1  0
 30 21  1  0
 29 24  1  0
  3 31  1  0
  4 32  1  0
  4 33  1  0
  8 34  1  0
  8 35  1  0
  9 36  1  0
  9 37  1  0
 10 38  1  0
 10 39  1  0
 11 40  1  0
 11 41  1  0
 12 42  1  6
 14 43  1  0
 17 44  1  0
 20 45  1  0
 22 46  1  0
 23 47  1  0
 25 48  1  0
 26 49  1  0
 27 50  1  0
 28 51  1  0
M  END
>  <smiles>  (36) 
O=C(NCC(=O)N1CCCCC1c1cc(F)cc(F)c1)c1ccc2ccccc2n1

>  <score_type>  (36) 
oracle

>  <origin>  (36) 
autodockgpu

>  <m_score__min__energy>  (36) 
-9.0199999999999996

>  <m_primary>  (36) 
energy

>  <rmsd>  (36) 
8.357348987542512

>  <m_score__min__rmsd>  (36) 
8.357348987542512

>  <meeko>  (36) 
{"free_energy": -8.91, "intermolecular_energy": -10.4, "internal_energy": -1.41, "cluster_size": 21, "cluster_id": 1, "rank_in_cluster": 4}

>  <energy>  (36) 
-8.57

>  <cluster_rmsd>  (36) 
1.47

>  <cluster>  (36) 
2

$$$$

     RDKit          3D

 51 54  0  0  0  0  0  0  0  0999 V2000
  140.8470   71.6530  221.3830 O   0  0  0  0  0  0  0  0  0  0  0  0
  140.3540   72.1720  222.4310 C   0  0  0  0  0  0  0  0  0  0  0  0
  139.9220   73.5400  222.3270 N   0  0  0  0  0  0  0  0  0  0  0  0
  140.0960   74.1750  221.0470 C   0  0  0  0  0  0  0  0  0  0  0  0
  141.5000   74.6030  220.8100 C   0  0  0  0  0  0  0  0  0  0  0  0
  142.4890   73.8370  220.9740 O   0  0  0  0  0  0  0  0  0  0  0  0
  141.7250   75.9300  220.3810 N   0  0  0  0  0  0  0  0  0  0  0  0
  142.9940   76.4020  219.8490 C   0  0  0  0  0  0  0  0  0  0  0  0
  142.7580   76.8060  218.4090 C   0  0  0  0  0  0  0  0  0  0  0  0
  141.5730   77.6960  218.2250 C   0  0  0  0  0  0  0  0  0  0  0  0
  140.3690   77.3330  219.0310 C   0  0  0  0  0  0  0  0  0  0  0  0
  140.6570   76.9340  220.4500 C   0  0  2  0  0  0  0  0  0  0  0  0
  141.1030   78.0340  221.3090 C   0  0  0  0  0  0  0  0  0  0  0  0
  141.3860   79.3100  220.8810 C   0  0  0  0  0  0  0  0  0  0  0  0
  141.8040   80.3210  221.7230 C   0  0  0  0  0  0  0  0  0  0  0  0
  142.0610   81.5470  221.2130 F   0  0  0  0  0  0  0  0  0  0  0  0
  141.9400   80.0180  223.0570 C   0  0  0  0  0  0  0  0  0  0  0  0
  141.6710   78.7550  223.5540 C   0  0  0  0  0  0  0  0  0  0  0  0
  141.8300   78.5510  224.8640 F   0  0  0  0  0  0  0  0  0  0  0  0
  141.2540   77.7830  222.6610 C   0  0  0  0  0  0  0  0  0  0  0  0
  140.2220   71.4400  223.6850 C   0  0  0  0  0  0  0  0  0  0  0  0
  139.5700   70.2230  223.6400 C   0  0  0  0  0  0  0  0  0  0  0  0
  139.3840   69.4410  224.7560 C   0  0  0  0  0  0  0  0  0  0  0  0
  139.8860   69.9330  225.9500 C   0  0  0  0  0  0  0  0  0  0  0  0
  139.6980   69.1480  227.0650 C   0  0  0  0  0  0  0  0  0  0  0  0
  140.1920   69.6230  228.2730 C   0  0  0  0  0  0  0  0  0  0  0  0
  140.8410   70.8400  228.3000 C   0  0  0  0  0  0  0  0  0  0  0  0
  141.0290   71.6250  227.1830 C   0  0  0  0  0  0  0  0  0  0  0  0
  140.5340   71.1510  225.9750 C   0  0  0  0  0  0  0  0  0  0  0  0
  140.7070   71.9080  224.8590 N   0  0  0  0  0  0  0  0  0  0  0  0
  139.5120   74.0140  223.1520 H   0  0  0  0  0  0  0  0  0  0  0  0
  139.8058   73.4650  220.2586 H   0  0  0  0  0  0  0  0  0  0  0  0
  139.4649   75.0758  221.0322 H   0  0  0  0  0  0  0  0  0  0  0  0
  143.3467   77.2673  220.4295 H   0  0  0  0  0  0  0  0  0  0  0  0
  143.7589   75.6140  219.9113 H   0  0  0  0  0  0  0  0  0  0  0  0
  143.6508   77.3359  218.0455 H   0  0  0  0  0  0  0  0  0  0  0  0
  142.5600   75.8837  217.8432 H   0  0  0  0  0  0  0  0  0  0  0  0
  141.8703   78.7186  218.5005 H   0  0  0  0  0  0  0  0  0  0  0  0
  141.2756   77.5914  217.1712 H   0  0  0  0  0  0  0  0  0  0  0  0
  139.6954   78.2024  219.0501 H   0  0  0  0  0  0  0  0  0  0  0  0
  139.9262   76.4509  218.5454 H   0  0  0  0  0  0  0  0  0  0  0  0
  139.7237   76.5650  220.9004 H   0  0  0  0  0  0  0  0  0  0  0  0
  141.2733   79.5371  219.8106 H   0  0  0  0  0  0  0  0  0  0  0  0
  142.2730   80.8040  223.7508 H   0  0  0  0  0  0  0  0  0  0  0  0
  141.0347   76.7740  223.0403 H   0  0  0  0  0  0  0  0  0  0  0  0
  139.1845   69.8654  222.6738 H   0  0  0  0  0  0  0  0  0  0  0  0
  138.8629   68.4737  224.7033 H   0  0  0  0  0  0  0  0  0  0  0  0
  139.1765   68.1816  227.0017 H   0  0  0  0  0  0  0  0  0  0  0  0
  140.0675   69.0369  229.1955 H   0  0  0  0  0  0  0  0  0  0  0  0
  141.2287   71.2028  229.2634 H   0  0  0  0  0  0  0  0  0  0  0  0
  141.5516   72.5909  227.2458 H   0  0  0  0  0  0  0  0  0  0  0  0
  1  2  2  0
  2  3  1  0
  3  4  1  0
  4  5  1  0
  5  6  2  0
  5  7  1  0
  7  8  1  0
  8  9  1  0
  9 10  1  0
 10 11  1  0
 11 12  1  0
 12 13  1  0
 13 14  2  0
 14 15  1  0
 15 16  1  0
 15 17  2  0
 17 18  1  0
 18 19  1  0
 18 20  2  0
  2 21  1  0
 21 22  2  0
 22 23  1  0
 23 24  2  0
 24 25  1  0
 25 26  2  0
 26 27  1  0
 27 28  2  0
 28 29  1  0
 29 30  2  0
 12  7  1  0
 20 13  1  0
 30 21  1  0
 29 24  1  0
  3 31  1  0
  4 32  1  0
  4 33  1  0
  8 34  1  0
  8 35  1  0
  9 36  1  0
  9 37  1  0
 10 38  1  0
 10 39  1  0
 11 40  1  0
 11 41  1  0
 12 42  1  1
 14 43  1  0
 17 44  1  0
 20 45  1  0
 22 46  1  0
 23 47  1  0
 25 48  1  0
 26 49  1  0
 27 50  1  0
 28 51  1  0
M  END
>  <smiles>  (37) 
O=C(NCC(=O)N1CCCCC1c1cc(F)cc(F)c1)c1ccc2ccccc2n1

>  <score_type>  (37) 
oracle

>  <origin>  (37) 
autodockgpu

>  <m_score__min__energy>  (37) 
-9.0199999999999996

>  <m_primary>  (37) 
energy

>  <rmsd>  (37) 
2.1820183954132775

>  <m_score__min__rmsd>  (37) 
2.1820183954132775

>  <meeko>  (37) 
{"free_energy": -8.76, "intermolecular_energy": -10.26, "internal_energy": -1.29, "cluster_size": 26, "cluster_id": 2, "rank_in_cluster": 2}

>  <energy>  (37) 
-8.57

>  <cluster_rmsd>  (37) 
1.49

>  <cluster>  (37) 
2

$$$$

     RDKit          3D

 51 54  0  0  0  0  0  0  0  0999 V2000
  140.3950   74.3620  220.1910 O   0  0  0  0  0  0  0  0  0  0  0  0
  140.1790   75.0370  221.2430 C   0  0  0  0  0  0  0  0  0  0  0  0
  139.3480   74.4200  222.2420 N   0  0  0  0  0  0  0  0  0  0  0  0
  138.8490   73.1030  221.9410 C   0  0  0  0  0  0  0  0  0  0  0  0
  139.7160   72.0270  222.4910 C   0  0  0  0  0  0  0  0  0  0  0  0
  140.8780   71.7920  222.0590 O   0  0  0  0  0  0  0  0  0  0  0  0
  139.2040   71.2390  223.5460 N   0  0  0  0  0  0  0  0  0  0  0  0
  137.9000   71.4560  224.1550 C   0  0  0  0  0  0  0  0  0  0  0  0
  137.0600   70.2280  223.8730 C   0  0  0  0  0  0  0  0  0  0  0  0
  137.7520   68.9440  224.1920 C   0  0  0  0  0  0  0  0  0  0  0  0
  139.1930   68.8800  223.8030 C   0  0  0  0  0  0  0  0  0  0  0  0
  139.9820   70.1240  224.0990 C   0  0  2  0  0  0  0  0  0  0  0  0
  140.2080   70.3730  225.5250 C   0  0  0  0  0  0  0  0  0  0  0  0
  139.8190   69.5380  226.5460 C   0  0  0  0  0  0  0  0  0  0  0  0
  140.0510   69.8080  227.8810 C   0  0  0  0  0  0  0  0  0  0  0  0
  139.6330   68.9280  228.8190 F   0  0  0  0  0  0  0  0  0  0  0  0
  140.7060   70.9770  228.1850 C   0  0  0  0  0  0  0  0  0  0  0  0
  141.1240   71.8610  227.2060 C   0  0  0  0  0  0  0  0  0  0  0  0
  141.7530   72.9740  227.5930 F   0  0  0  0  0  0  0  0  0  0  0  0
  140.8640   71.5360  225.8860 C   0  0  0  0  0  0  0  0  0  0  0  0
  140.7340   76.3690  221.4530 C   0  0  0  0  0  0  0  0  0  0  0  0
  141.0800   77.0930  220.3290 C   0  0  0  0  0  0  0  0  0  0  0  0
  141.6110   78.3600  220.3980 C   0  0  0  0  0  0  0  0  0  0  0  0
  141.7880   78.8900  221.6660 C   0  0  0  0  0  0  0  0  0  0  0  0
  142.3210   80.1580  221.7320 C   0  0  0  0  0  0  0  0  0  0  0  0
  142.5070   80.7090  222.9920 C   0  0  0  0  0  0  0  0  0  0  0  0
  142.1560   79.9730  224.1050 C   0  0  0  0  0  0  0  0  0  0  0  0
  141.6230   78.7030  224.0380 C   0  0  0  0  0  0  0  0  0  0  0  0
  141.4360   78.1520  222.7770 C   0  0  0  0  0  0  0  0  0  0  0  0
  140.9130   76.9010  222.6850 N   0  0  0  0  0  0  0  0  0  0  0  0
  139.1380   74.9250  223.1220 H   0  0  0  0  0  0  0  0  0  0  0  0
  137.8422   73.0000  222.3721 H   0  0  0  0  0  0  0  0  0  0  0  0
  138.8330   72.9932  220.8466 H   0  0  0  0  0  0  0  0  0  0  0  0
  138.0102   71.5952  225.2406 H   0  0  0  0  0  0  0  0  0  0  0  0
  137.4228   72.3569  223.7418 H   0  0  0  0  0  0  0  0  0  0  0  0
  136.1427   70.2880  224.4771 H   0  0  0  0  0  0  0  0  0  0  0  0
  136.8504   70.2217  222.7932 H   0  0  0  0  0  0  0  0  0  0  0  0
  137.6861   68.7835  225.2782 H   0  0  0  0  0  0  0  0  0  0  0  0
  137.2430   68.1695  223.5995 H   0  0  0  0  0  0  0  0  0  0  0  0
  139.6570   68.0433  224.3458 H   0  0  0  0  0  0  0  0  0  0  0  0
  139.2132   68.7534  222.7105 H   0  0  0  0  0  0  0  0  0  0  0  0
  140.9822   70.0111  223.6554 H   0  0  0  0  0  0  0  0  0  0  0  0
  139.2956   68.6061  226.2862 H   0  0  0  0  0  0  0  0  0  0  0  0
  140.9043   71.2177  229.2399 H   0  0  0  0  0  0  0  0  0  0  0  0
  141.1909   72.2276  225.0955 H   0  0  0  0  0  0  0  0  0  0  0  0
  140.9248   76.6385  219.3394 H   0  0  0  0  0  0  0  0  0  0  0  0
  141.8813   78.9237  219.4929 H   0  0  0  0  0  0  0  0  0  0  0  0
  142.5891   80.7129  220.8208 H   0  0  0  0  0  0  0  0  0  0  0  0
  142.9286   81.7190  223.1019 H   0  0  0  0  0  0  0  0  0  0  0  0
  142.3093   80.4226  225.0972 H   0  0  0  0  0  0  0  0  0  0  0  0
  141.3560   78.1473  224.9490 H   0  0  0  0  0  0  0  0  0  0  0  0
  1  2  2  0
  2  3  1  0
  3  4  1  0
  4  5  1  0
  5  6  2  0
  5  7  1  0
  7  8  1  0
  8  9  1  0
  9 10  1  0
 10 11  1  0
 11 12  1  0
 12 13  1  0
 13 14  2  0
 14 15  1  0
 15 16  1  0
 15 17  2  0
 17 18  1  0
 18 19  1  0
 18 20  2  0
  2 21  1  0
 21 22  2  0
 22 23  1  0
 23 24  2  0
 24 25  1  0
 25 26  2  0
 26 27  1  0
 27 28  2  0
 28 29  1  0
 29 30  2  0
 12  7  1  0
 20 13  1  0
 30 21  1  0
 29 24  1  0
  3 31  1  0
  4 32  1  0
  4 33  1  0
  8 34  1  0
  8 35  1  0
  9 36  1  0
  9 37  1  0
 10 38  1  0
 10 39  1  0
 11 40  1  0
 11 41  1  0
 12 42  1  6
 14 43  1  0
 17 44  1  0
 20 45  1  0
 22 46  1  0
 23 47  1  0
 25 48  1  0
 26 49  1  0
 27 50  1  0
 28 51  1  0
M  END
>  <smiles>  (38) 
O=C(NCC(=O)N1CCCCC1c1cc(F)cc(F)c1)c1ccc2ccccc2n1

>  <score_type>  (38) 
oracle

>  <origin>  (38) 
autodockgpu

>  <m_score__min__energy>  (38) 
-9.0199999999999996

>  <m_primary>  (38) 
energy

>  <rmsd>  (38) 
8.359178190813257

>  <m_score__min__rmsd>  (38) 
8.359178190813257

>  <meeko>  (38) 
{"free_energy": -8.92, "intermolecular_energy": -10.41, "internal_energy": -1.43, "cluster_size": 21, "cluster_id": 1, "rank_in_cluster": 2}

>  <energy>  (38) 
-8.55

>  <cluster_rmsd>  (38) 
1.48

>  <cluster>  (38) 
2

$$$$

     RDKit          3D

 51 54  0  0  0  0  0  0  0  0999 V2000
  139.8990   71.1630  221.2670 O   0  0  0  0  0  0  0  0  0  0  0  0
  139.6950   71.7980  222.3460 C   0  0  0  0  0  0  0  0  0  0  0  0
  139.2690   73.1650  222.2160 N   0  0  0  0  0  0  0  0  0  0  0  0
  139.1210   73.6690  220.8750 C   0  0  0  0  0  0  0  0  0  0  0  0
  139.8000   74.9780  220.6810 C   0  0  0  0  0  0  0  0  0  0  0  0
  139.3560   76.0590  221.1580 O   0  0  0  0  0  0  0  0  0  0  0  0
  140.9940   75.0000  219.9270 N   0  0  0  0  0  0  0  0  0  0  0  0
  141.0820   74.5560  218.5440 C   0  0  0  0  0  0  0  0  0  0  0  0
  141.4520   75.7620  217.7050 C   0  0  0  0  0  0  0  0  0  0  0  0
  142.6120   76.5320  218.2460 C   0  0  0  0  0  0  0  0  0  0  0  0
  142.6260   76.7100  219.7280 C   0  0  0  0  0  0  0  0  0  0  0  0
  142.2470   75.4880  220.5150 C   0  0  2  0  0  0  0  0  0  0  0  0
  143.2360   74.4080  220.4710 C   0  0  0  0  0  0  0  0  0  0  0  0
  144.5970   74.5840  220.3760 C   0  0  0  0  0  0  0  0  0  0  0  0
  145.4990   73.5390  220.3380 C   0  0  0  0  0  0  0  0  0  0  0  0
  146.8210   73.8060  220.2430 F   0  0  0  0  0  0  0  0  0  0  0  0
  144.9920   72.2630  220.3970 C   0  0  0  0  0  0  0  0  0  0  0  0
  143.6330   72.0160  220.4930 C   0  0  0  0  0  0  0  0  0  0  0  0
  143.2300   70.7440  220.5460 F   0  0  0  0  0  0  0  0  0  0  0  0
  142.7790   73.1050  220.5290 C   0  0  0  0  0  0  0  0  0  0  0  0
  139.8740   71.1940  223.6610 C   0  0  0  0  0  0  0  0  0  0  0  0
  139.5280   69.8640  223.7980 C   0  0  0  0  0  0  0  0  0  0  0  0
  139.6530   69.1840  224.9870 C   0  0  0  0  0  0  0  0  0  0  0  0
  140.1490   69.9030  226.0630 C   0  0  0  0  0  0  0  0  0  0  0  0
  140.2720   69.2200  227.2520 C   0  0  0  0  0  0  0  0  0  0  0  0
  140.7660   69.9210  228.3450 C   0  0  0  0  0  0  0  0  0  0  0  0
  141.1060   71.2490  228.1920 C   0  0  0  0  0  0  0  0  0  0  0  0
  140.9830   71.9320  227.0000 C   0  0  0  0  0  0  0  0  0  0  0  0
  140.4890   71.2310  225.9080 C   0  0  0  0  0  0  0  0  0  0  0  0
  140.3570   71.8830  224.7220 N   0  0  0  0  0  0  0  0  0  0  0  0
  139.0870   73.7320  223.0640 H   0  0  0  0  0  0  0  0  0  0  0  0
  139.5536   72.9398  220.1742 H   0  0  0  0  0  0  0  0  0  0  0  0
  138.0470   73.8187  220.6905 H   0  0  0  0  0  0  0  0  0  0  0  0
  141.8544   73.7788  218.4468 H   0  0  0  0  0  0  0  0  0  0  0  0
  140.1244   74.1294  218.2108 H   0  0  0  0  0  0  0  0  0  0  0  0
  141.7056   75.4166  216.6919 H   0  0  0  0  0  0  0  0  0  0  0  0
  140.5844   76.4381  217.7107 H   0  0  0  0  0  0  0  0  0  0  0  0
  143.5334   76.0044  217.9587 H   0  0  0  0  0  0  0  0  0  0  0  0
  142.5307   77.5428  217.8197 H   0  0  0  0  0  0  0  0  0  0  0  0
  143.6420   77.0075  220.0269 H   0  0  0  0  0  0  0  0  0  0  0  0
  141.8651   77.4714  219.9546 H   0  0  0  0  0  0  0  0  0  0  0  0
  142.1653   75.7723  221.5745 H   0  0  0  0  0  0  0  0  0  0  0  0
  144.9874   75.6113  220.3278 H   0  0  0  0  0  0  0  0  0  0  0  0
  145.6876   71.4114  220.3670 H   0  0  0  0  0  0  0  0  0  0  0  0
  141.6964   72.9266  220.6067 H   0  0  0  0  0  0  0  0  0  0  0  0
  139.1368   69.3271  222.9212 H   0  0  0  0  0  0  0  0  0  0  0  0
  139.3737   68.1241  225.0792 H   0  0  0  0  0  0  0  0  0  0  0  0
  139.9900   68.1599  227.3335 H   0  0  0  0  0  0  0  0  0  0  0  0
  140.8844   69.4238  229.3191 H   0  0  0  0  0  0  0  0  0  0  0  0
  141.4955   71.7916  229.0660 H   0  0  0  0  0  0  0  0  0  0  0  0
  141.2656   72.9919  226.9176 H   0  0  0  0  0  0  0  0  0  0  0  0
  1  2  2  0
  2  3  1  0
  3  4  1  0
  4  5  1  0
  5  6  2  0
  5  7  1  0
  7  8  1  0
  8  9  1  0
  9 10  1  0
 10 11  1  0
 11 12  1  0
 12 13  1  0
 13 14  2  0
 14 15  1  0
 15 16  1  0
 15 17  2  0
 17 18  1  0
 18 19  1  0
 18 20  2  0
  2 21  1  0
 21 22  2  0
 22 23  1  0
 23 24  2  0
 24 25  1  0
 25 26  2  0
 26 27  1  0
 27 28  2  0
 28 29  1  0
 29 30  2  0
 12  7  1  0
 20 13  1  0
 30 21  1  0
 29 24  1  0
  3 31  1  0
  4 32  1  0
  4 33  1  0
  8 34  1  0
  8 35  1  0
  9 36  1  0
  9 37  1  0
 10 38  1  0
 10 39  1  0
 11 40  1  0
 11 41  1  0
 12 42  1  1
 14 43  1  0
 17 44  1  0
 20 45  1  0
 22 46  1  0
 23 47  1  0
 25 48  1  0
 26 49  1  0
 27 50  1  0
 28 51  1  0
M  END
>  <smiles>  (39) 
O=C(NCC(=O)N1CCCCC1c1cc(F)cc(F)c1)c1ccc2ccccc2n1

>  <score_type>  (39) 
oracle

>  <origin>  (39) 
autodockgpu

>  <m_score__min__energy>  (39) 
-9.0199999999999996

>  <m_primary>  (39) 
energy

>  <rmsd>  (39) 
1.62931760967813

>  <m_score__min__rmsd>  (39) 
1.62931760967813

>  <meeko>  (39) 
{"free_energy": -8.18, "intermolecular_energy": -9.67, "internal_energy": -1.67, "cluster_size": 2, "cluster_id": 4, "rank_in_cluster": 1}

>  <energy>  (39) 
-8.54

>  <cluster_rmsd>  (39) 
1.44

>  <cluster>  (39) 
2

$$$$

     RDKit          3D

 51 54  0  0  0  0  0  0  0  0999 V2000
  140.2950   74.5360  220.0380 O   0  0  0  0  0  0  0  0  0  0  0  0
  140.1690   75.1340  221.1490 C   0  0  0  0  0  0  0  0  0  0  0  0
  139.4250   74.4440  222.1680 N   0  0  0  0  0  0  0  0  0  0  0  0
  138.9020   73.1490  221.8190 C   0  0  0  0  0  0  0  0  0  0  0  0
  139.7430   72.0360  222.3370 C   0  0  0  0  0  0  0  0  0  0  0  0
  140.8930   71.7780  221.8870 O   0  0  0  0  0  0  0  0  0  0  0  0
  139.2190   71.2410  223.3800 N   0  0  0  0  0  0  0  0  0  0  0  0
  137.9490   71.5080  224.0380 C   0  0  0  0  0  0  0  0  0  0  0  0
  137.0320   70.3400  223.7410 C   0  0  0  0  0  0  0  0  0  0  0  0
  137.6600   69.0090  223.9950 C   0  0  0  0  0  0  0  0  0  0  0  0
  139.0830   68.8790  223.5580 C   0  0  0  0  0  0  0  0  0  0  0  0
  139.9490   70.0660  223.8700 C   0  0  2  0  0  0  0  0  0  0  0  0
  140.2320   70.2510  225.2950 C   0  0  0  0  0  0  0  0  0  0  0  0
  140.7420   71.3970  225.8590 C   0  0  0  0  0  0  0  0  0  0  0  0
  140.9950   71.5330  227.2100 C   0  0  0  0  0  0  0  0  0  0  0  0
  141.4990   72.6980  227.6780 F   0  0  0  0  0  0  0  0  0  0  0  0
  140.7160   70.4570  228.0180 C   0  0  0  0  0  0  0  0  0  0  0  0
  140.2000   69.2750  227.5150 C   0  0  0  0  0  0  0  0  0  0  0  0
  139.9590   68.2810  228.3740 F   0  0  0  0  0  0  0  0  0  0  0  0
  139.9670   69.1990  226.1530 C   0  0  0  0  0  0  0  0  0  0  0  0
  140.7410   76.4510  221.4040 C   0  0  0  0  0  0  0  0  0  0  0  0
  141.1440   77.1870  220.3080 C   0  0  0  0  0  0  0  0  0  0  0  0
  141.6960   78.4420  220.4210 C   0  0  0  0  0  0  0  0  0  0  0  0
  141.8340   78.9460  221.7040 C   0  0  0  0  0  0  0  0  0  0  0  0
  142.3870   80.2020  221.8140 C   0  0  0  0  0  0  0  0  0  0  0  0
  142.5350   80.7270  223.0910 C   0  0  0  0  0  0  0  0  0  0  0  0
  142.1280   79.9790  224.1750 C   0  0  0  0  0  0  0  0  0  0  0  0
  141.5730   78.7210  224.0640 C   0  0  0  0  0  0  0  0  0  0  0  0
  141.4250   78.1960  222.7870 C   0  0  0  0  0  0  0  0  0  0  0  0
  140.8820   76.9570  222.6520 N   0  0  0  0  0  0  0  0  0  0  0  0
  139.2910   74.8850  223.0960 H   0  0  0  0  0  0  0  0  0  0  0  0
  137.8903   73.0521  222.2399 H   0  0  0  0  0  0  0  0  0  0  0  0
  138.8921   73.0774  220.7214 H   0  0  0  0  0  0  0  0  0  0  0  0
  138.1000   71.6011  225.1236 H   0  0  0  0  0  0  0  0  0  0  0  0
  137.5116   72.4486  223.6720 H   0  0  0  0  0  0  0  0  0  0  0  0
  136.1377   70.4296  224.3752 H   0  0  0  0  0  0  0  0  0  0  0  0
  136.7897   70.3838  222.6689 H   0  0  0  0  0  0  0  0  0  0  0  0
  137.6179   68.8146  225.0769 H   0  0  0  0  0  0  0  0  0  0  0  0
  137.0905   68.2850  223.3938 H   0  0  0  0  0  0  0  0  0  0  0  0
  139.5153   67.9994  224.0574 H   0  0  0  0  0  0  0  0  0  0  0  0
  139.0632   68.7899  222.4618 H   0  0  0  0  0  0  0  0  0  0  0  0
  140.9274   69.9141  223.3908 H   0  0  0  0  0  0  0  0  0  0  0  0
  140.9599   72.2500  225.1995 H   0  0  0  0  0  0  0  0  0  0  0  0
  140.9087   70.5374  229.0980 H   0  0  0  0  0  0  0  0  0  0  0  0
  139.5557   68.2673  225.7373 H   0  0  0  0  0  0  0  0  0  0  0  0
  141.0189   76.7530  219.3050 H   0  0  0  0  0  0  0  0  0  0  0  0
  142.0118   79.0162  219.5375 H   0  0  0  0  0  0  0  0  0  0  0  0
  142.6997   80.7681  220.9242 H   0  0  0  0  0  0  0  0  0  0  0  0
  142.9712   81.7264  223.2356 H   0  0  0  0  0  0  0  0  0  0  0  0
  142.2522   80.4074  225.1805 H   0  0  0  0  0  0  0  0  0  0  0  0
  141.2595   78.1550  224.9536 H   0  0  0  0  0  0  0  0  0  0  0  0
  1  2  2  0
  2  3  1  0
  3  4  1  0
  4  5  1  0
  5  6  2  0
  5  7  1  0
  7  8  1  0
  8  9  1  0
  9 10  1  0
 10 11  1  0
 11 12  1  0
 12 13  1  0
 13 14  2  0
 14 15  1  0
 15 16  1  0
 15 17  2  0
 17 18  1  0
 18 19  1  0
 18 20  2  0
  2 21  1  0
 21 22  2  0
 22 23  1  0
 23 24  2  0
 24 25  1  0
 25 26  2  0
 26 27  1  0
 27 28  2  0
 28 29  1  0
 29 30  2  0
 12  7  1  0
 20 13  1  0
 30 21  1  0
 29 24  1  0
  3 31  1  0
  4 32  1  0
  4 33  1  0
  8 34  1  0
  8 35  1  0
  9 36  1  0
  9 37  1  0
 10 38  1  0
 10 39  1  0
 11 40  1  0
 11 41  1  0
 12 42  1  6
 14 43  1  0
 17 44  1  0
 20 45  1  0
 22 46  1  0
 23 47  1  0
 25 48  1  0
 26 49  1  0
 27 50  1  0
 28 51  1  0
M  END
>  <smiles>  (40) 
O=C(NCC(=O)N1CCCCC1c1cc(F)cc(F)c1)c1ccc2ccccc2n1

>  <score_type>  (40) 
oracle

>  <origin>  (40) 
autodockgpu

>  <m_score__min__energy>  (40) 
-9.0199999999999996

>  <m_primary>  (40) 
energy

>  <rmsd>  (40) 
8.341796386069205

>  <m_score__min__rmsd>  (40) 
8.341796386069205

>  <meeko>  (40) 
{"free_energy": -8.74, "intermolecular_energy": -10.23, "internal_energy": -1.42, "cluster_size": 21, "cluster_id": 1, "rank_in_cluster": 16}

>  <energy>  (40) 
-8.54

>  <cluster_rmsd>  (40) 
1.58

>  <cluster>  (40) 
2

$$$$

     RDKit          3D

 51 54  0  0  0  0  0  0  0  0999 V2000
  141.4160   72.0020  221.7390 O   0  0  0  0  0  0  0  0  0  0  0  0
  140.4420   72.1960  222.5280 C   0  0  0  0  0  0  0  0  0  0  0  0
  139.4940   73.2050  222.1410 N   0  0  0  0  0  0  0  0  0  0  0  0
  139.7510   73.8890  220.9000 C   0  0  0  0  0  0  0  0  0  0  0  0
  140.5950   75.1010  221.0830 C   0  0  0  0  0  0  0  0  0  0  0  0
  141.8550   75.0600  221.1260 O   0  0  0  0  0  0  0  0  0  0  0  0
  139.9440   76.3480  221.2120 N   0  0  0  0  0  0  0  0  0  0  0  0
  139.7190   77.2580  220.0990 C   0  0  0  0  0  0  0  0  0  0  0  0
  138.2200   77.3780  219.9110 C   0  0  0  0  0  0  0  0  0  0  0  0
  137.4800   77.6590  221.1770 C   0  0  0  0  0  0  0  0  0  0  0  0
  137.9520   76.9010  222.3750 C   0  0  0  0  0  0  0  0  0  0  0  0
  139.4440   76.8050  222.5130 C   0  0  2  0  0  0  0  0  0  0  0  0
  140.1030   78.0700  222.8500 C   0  0  0  0  0  0  0  0  0  0  0  0
  141.4420   78.3350  222.6810 C   0  0  0  0  0  0  0  0  0  0  0  0
  142.0270   79.5420  223.0110 C   0  0  0  0  0  0  0  0  0  0  0  0
  143.3540   79.7140  222.8120 F   0  0  0  0  0  0  0  0  0  0  0  0
  141.2120   80.5180  223.5330 C   0  0  0  0  0  0  0  0  0  0  0  0
  139.8570   80.3170  223.7270 C   0  0  0  0  0  0  0  0  0  0  0  0
  139.1420   81.3220  224.2400 F   0  0  0  0  0  0  0  0  0  0  0  0
  139.3280   79.0860  223.3770 C   0  0  0  0  0  0  0  0  0  0  0  0
  140.2710   71.4460  223.7670 C   0  0  0  0  0  0  0  0  0  0  0  0
  139.5650   70.2620  223.6970 C   0  0  0  0  0  0  0  0  0  0  0  0
  139.3380   69.4680  224.7960 C   0  0  0  0  0  0  0  0  0  0  0  0
  139.8580   69.9130  226.0010 C   0  0  0  0  0  0  0  0  0  0  0  0
  139.6300   69.1170  227.1000 C   0  0  0  0  0  0  0  0  0  0  0  0
  140.1410   69.5440  228.3180 C   0  0  0  0  0  0  0  0  0  0  0  0
  140.8440   70.7290  228.3720 C   0  0  0  0  0  0  0  0  0  0  0  0
  141.0730   71.5270  227.2700 C   0  0  0  0  0  0  0  0  0  0  0  0
  140.5610   71.0990  226.0520 C   0  0  0  0  0  0  0  0  0  0  0  0
  140.7730   71.8690  224.9520 N   0  0  0  0  0  0  0  0  0  0  0  0
  138.6780   73.4060  222.7480 H   0  0  0  0  0  0  0  0  0  0  0  0
  140.2678   73.1988  220.2169 H   0  0  0  0  0  0  0  0  0  0  0  0
  138.7833   74.2137  220.4900 H   0  0  0  0  0  0  0  0  0  0  0  0
  140.1500   78.2442  220.3260 H   0  0  0  0  0  0  0  0  0  0  0  0
  140.1972   76.8794  219.1836 H   0  0  0  0  0  0  0  0  0  0  0  0
  138.0226   78.1969  219.2036 H   0  0  0  0  0  0  0  0  0  0  0  0
  137.8628   76.4072  219.5369 H   0  0  0  0  0  0  0  0  0  0  0  0
  137.5756   78.7329  221.3951 H   0  0  0  0  0  0  0  0  0  0  0  0
  136.4435   77.3351  221.0014 H   0  0  0  0  0  0  0  0  0  0  0  0
  137.5569   77.3993  223.2725 H   0  0  0  0  0  0  0  0  0  0  0  0
  137.5858   75.8709  222.2531 H   0  0  0  0  0  0  0  0  0  0  0  0
  139.6697   76.1215  223.3448 H   0  0  0  0  0  0  0  0  0  0  0  0
  142.0807   77.5441  222.2609 H   0  0  0  0  0  0  0  0  0  0  0  0
  141.6509   81.4893  223.8050 H   0  0  0  0  0  0  0  0  0  0  0  0
  138.2521   78.9103  223.5237 H   0  0  0  0  0  0  0  0  0  0  0  0
  139.1681   69.9409  222.7227 H   0  0  0  0  0  0  0  0  0  0  0  0
  138.7724   68.5274  224.7227 H   0  0  0  0  0  0  0  0  0  0  0  0
  139.0640   68.1775  227.0165 H   0  0  0  0  0  0  0  0  0  0  0  0
  139.9872   68.9451  229.2278 H   0  0  0  0  0  0  0  0  0  0  0  0
  141.2429   71.0550  229.3439 H   0  0  0  0  0  0  0  0  0  0  0  0
  141.6394   72.4663  227.3530 H   0  0  0  0  0  0  0  0  0  0  0  0
  1  2  2  0
  2  3  1  0
  3  4  1  0
  4  5  1  0
  5  6  2  0
  5  7  1  0
  7  8  1  0
  8  9  1  0
  9 10  1  0
 10 11  1  0
 11 12  1  0
 12 13  1  0
 13 14  2  0
 14 15  1  0
 15 16  1  0
 15 17  2  0
 17 18  1  0
 18 19  1  0
 18 20  2  0
  2 21  1  0
 21 22  2  0
 22 23  1  0
 23 24  2  0
 24 25  1  0
 25 26  2  0
 26 27  1  0
 27 28  2  0
 28 29  1  0
 29 30  2  0
 12  7  1  0
 20 13  1  0
 30 21  1  0
 29 24  1  0
  3 31  1  0
  4 32  1  0
  4 33  1  0
  8 34  1  0
  8 35  1  0
  9 36  1  0
  9 37  1  0
 10 38  1  0
 10 39  1  0
 11 40  1  0
 11 41  1  0
 12 42  1  1
 14 43  1  0
 17 44  1  0
 20 45  1  0
 22 46  1  0
 23 47  1  0
 25 48  1  0
 26 49  1  0
 27 50  1  0
 28 51  1  0
M  END
>  <smiles>  (41) 
O=C(NCC(=O)N1CCCCC1c1cc(F)cc(F)c1)c1ccc2ccccc2n1

>  <score_type>  (41) 
oracle

>  <origin>  (41) 
autodockgpu

>  <m_score__min__energy>  (41) 
-9.0199999999999996

>  <m_primary>  (41) 
energy

>  <rmsd>  (41) 
2.6822295092536668

>  <m_score__min__rmsd>  (41) 
2.6822295092536668

>  <meeko>  (41) 
{"free_energy": -8.47, "intermolecular_energy": -9.96, "internal_energy": -1.34, "cluster_size": 26, "cluster_id": 2, "rank_in_cluster": 21}

>  <energy>  (41) 
-8.51

>  <cluster_rmsd>  (41) 
1.49

>  <cluster>  (41) 
2

$$$$

     RDKit          3D

 51 54  0  0  0  0  0  0  0  0999 V2000
  140.9500   71.5410  221.4280 O   0  0  0  0  0  0  0  0  0  0  0  0
  140.3250   72.0150  222.4250 C   0  0  0  0  0  0  0  0  0  0  0  0
  139.6940   73.2930  222.2390 N   0  0  0  0  0  0  0  0  0  0  0  0
  139.8390   73.9010  220.9420 C   0  0  0  0  0  0  0  0  0  0  0  0
  140.6800   75.1270  220.9790 C   0  0  0  0  0  0  0  0  0  0  0  0
  141.9390   75.1000  220.8990 O   0  0  0  0  0  0  0  0  0  0  0  0
  140.0280   76.3730  221.1100 N   0  0  0  0  0  0  0  0  0  0  0  0
  139.8430   77.3060  220.0090 C   0  0  0  0  0  0  0  0  0  0  0  0
  138.3530   77.4350  219.7710 C   0  0  0  0  0  0  0  0  0  0  0  0
  137.5700   77.6920  221.0160 C   0  0  0  0  0  0  0  0  0  0  0  0
  137.9980   76.9090  222.2140 C   0  0  0  0  0  0  0  0  0  0  0  0
  139.4840   76.8060  222.4030 C   0  0  2  0  0  0  0  0  0  0  0  0
  140.1340   78.0620  222.7870 C   0  0  0  0  0  0  0  0  0  0  0  0
  141.4730   78.3390  222.6390 C   0  0  0  0  0  0  0  0  0  0  0  0
  142.0490   79.5370  223.0130 C   0  0  0  0  0  0  0  0  0  0  0  0
  143.3760   79.7220  222.8310 F   0  0  0  0  0  0  0  0  0  0  0  0
  141.2250   80.4920  223.5610 C   0  0  0  0  0  0  0  0  0  0  0  0
  139.8690   80.2770  223.7370 C   0  0  0  0  0  0  0  0  0  0  0  0
  139.1440   81.2610  224.2770 F   0  0  0  0  0  0  0  0  0  0  0  0
  139.3490   79.0570  223.3420 C   0  0  0  0  0  0  0  0  0  0  0  0
  140.2360   71.3170  223.7030 C   0  0  0  0  0  0  0  0  0  0  0  0
  139.6340   70.0740  223.7030 C   0  0  0  0  0  0  0  0  0  0  0  0
  139.4920   69.3200  224.8440 C   0  0  0  0  0  0  0  0  0  0  0  0
  139.9870   69.8690  226.0160 C   0  0  0  0  0  0  0  0  0  0  0  0
  139.8430   69.1120  227.1570 C   0  0  0  0  0  0  0  0  0  0  0  0
  140.3310   69.6430  228.3430 C   0  0  0  0  0  0  0  0  0  0  0  0
  140.9290   70.8860  228.3260 C   0  0  0  0  0  0  0  0  0  0  0  0
  141.0730   71.6430  227.1830 C   0  0  0  0  0  0  0  0  0  0  0  0
  140.5850   71.1120  225.9970 C   0  0  0  0  0  0  0  0  0  0  0  0
  140.7140   71.8400  224.8560 N   0  0  0  0  0  0  0  0  0  0  0  0
  139.1700   73.7280  223.0200 H   0  0  0  0  0  0  0  0  0  0  0  0
  140.3055   73.1735  220.2615 H   0  0  0  0  0  0  0  0  0  0  0  0
  138.8367   74.1933  220.5958 H   0  0  0  0  0  0  0  0  0  0  0  0
  140.2682   78.2861  220.2711 H   0  0  0  0  0  0  0  0  0  0  0  0
  140.3513   76.9439  219.1032 H   0  0  0  0  0  0  0  0  0  0  0  0
  138.1828   78.2692  219.0745 H   0  0  0  0  0  0  0  0  0  0  0  0
  138.0064   76.4736  219.3640 H   0  0  0  0  0  0  0  0  0  0  0  0
  137.6600   78.7610  221.2591 H   0  0  0  0  0  0  0  0  0  0  0  0
  136.5398   77.3741  220.7978 H   0  0  0  0  0  0  0  0  0  0  0  0
  137.5724   77.3902  223.1069 H   0  0  0  0  0  0  0  0  0  0  0  0
  137.6346   75.8825  222.0581 H   0  0  0  0  0  0  0  0  0  0  0  0
  139.6788   76.1062  223.2291 H   0  0  0  0  0  0  0  0  0  0  0  0
  142.1194   77.5651  222.1994 H   0  0  0  0  0  0  0  0  0  0  0  0
  141.6566   81.4559  223.8688 H   0  0  0  0  0  0  0  0  0  0  0  0
  138.2728   78.8716  223.4740 H   0  0  0  0  0  0  0  0  0  0  0  0
  139.2532   69.6714  222.7528 H   0  0  0  0  0  0  0  0  0  0  0  0
  139.0100   68.3314  224.8273 H   0  0  0  0  0  0  0  0  0  0  0  0
  139.3597   68.1242  227.1297 H   0  0  0  0  0  0  0  0  0  0  0  0
  140.2420   69.0801  229.2839 H   0  0  0  0  0  0  0  0  0  0  0  0
  141.3107   71.2942  229.2735 H   0  0  0  0  0  0  0  0  0  0  0  0
  141.5564   72.6307  227.2098 H   0  0  0  0  0  0  0  0  0  0  0  0
  1  2  2  0
  2  3  1  0
  3  4  1  0
  4  5  1  0
  5  6  2  0
  5  7  1  0
  7  8  1  0
  8  9  1  0
  9 10  1  0
 10 11  1  0
 11 12  1  0
 12 13  1  0
 13 14  2  0
 14 15  1  0
 15 16  1  0
 15 17  2  0
 17 18  1  0
 18 19  1  0
 18 20  2  0
  2 21  1  0
 21 22  2  0
 22 23  1  0
 23 24  2  0
 24 25  1  0
 25 26  2  0
 26 27  1  0
 27 28  2  0
 28 29  1  0
 29 30  2  0
 12  7  1  0
 20 13  1  0
 30 21  1  0
 29 24  1  0
  3 31  1  0
  4 32  1  0
  4 33  1  0
  8 34  1  0
  8 35  1  0
  9 36  1  0
  9 37  1  0
 10 38  1  0
 10 39  1  0
 11 40  1  0
 11 41  1  0
 12 42  1  1
 14 43  1  0
 17 44  1  0
 20 45  1  0
 22 46  1  0
 23 47  1  0
 25 48  1  0
 26 49  1  0
 27 50  1  0
 28 51  1  0
M  END
>  <smiles>  (42) 
O=C(NCC(=O)N1CCCCC1c1cc(F)cc(F)c1)c1ccc2ccccc2n1

>  <score_type>  (42) 
oracle

>  <origin>  (42) 
autodockgpu

>  <m_score__min__energy>  (42) 
-9.0199999999999996

>  <m_primary>  (42) 
energy

>  <rmsd>  (42) 
2.6132927329659252

>  <m_score__min__rmsd>  (42) 
2.6132927329659252

>  <meeko>  (42) 
{"free_energy": -8.57, "intermolecular_energy": -10.06, "internal_energy": -1.34, "cluster_size": 26, "cluster_id": 2, "rank_in_cluster": 16}

>  <energy>  (42) 
-8.47

>  <cluster_rmsd>  (42) 
1.55

>  <cluster>  (42) 
2

$$$$

     RDKit          3D

 51 54  0  0  0  0  0  0  0  0999 V2000
  140.9660   72.1470  221.7150 O   0  0  0  0  0  0  0  0  0  0  0  0
  140.0160   72.2230  222.5520 C   0  0  0  0  0  0  0  0  0  0  0  0
  138.9350   73.1100  222.2170 N   0  0  0  0  0  0  0  0  0  0  0  0
  139.0460   73.8180  220.9680 C   0  0  0  0  0  0  0  0  0  0  0  0
  138.9580   75.2930  221.1400 C   0  0  0  0  0  0  0  0  0  0  0  0
  137.8650   75.9000  221.3150 O   0  0  0  0  0  0  0  0  0  0  0  0
  140.1580   76.0360  221.1040 N   0  0  0  0  0  0  0  0  0  0  0  0
  141.4320   75.5350  221.5970 C   0  0  0  0  0  0  0  0  0  0  0  0
  142.3700   75.4440  220.4110 C   0  0  0  0  0  0  0  0  0  0  0  0
  142.4050   76.6850  219.5810 C   0  0  0  0  0  0  0  0  0  0  0  0
  141.0810   77.3340  219.3460 C   0  0  0  0  0  0  0  0  0  0  0  0
  140.1850   77.3950  220.5500 C   0  0  2  0  0  0  0  0  0  0  0  0
  140.6380   78.3170  221.5950 C   0  0  0  0  0  0  0  0  0  0  0  0
  141.9150   78.8130  221.7160 C   0  0  0  0  0  0  0  0  0  0  0  0
  142.3030   79.6820  222.7160 C   0  0  0  0  0  0  0  0  0  0  0  0
  143.5830   80.1180  222.7580 F   0  0  0  0  0  0  0  0  0  0  0  0
  141.3490   80.0610  223.6310 C   0  0  0  0  0  0  0  0  0  0  0  0
  140.0460   79.6000  223.5660 C   0  0  0  0  0  0  0  0  0  0  0  0
  139.1860   80.0220  224.4970 F   0  0  0  0  0  0  0  0  0  0  0  0
  139.7170   78.7310  222.5400 C   0  0  0  0  0  0  0  0  0  0  0  0
  139.9990   71.4610  223.7950 C   0  0  0  0  0  0  0  0  0  0  0  0
  139.3350   70.2500  223.7840 C   0  0  0  0  0  0  0  0  0  0  0  0
  139.2500   69.4410  224.8930 C   0  0  0  0  0  0  0  0  0  0  0  0
  139.8700   69.9000  226.0440 C   0  0  0  0  0  0  0  0  0  0  0  0
  139.7830   69.0890  227.1530 C   0  0  0  0  0  0  0  0  0  0  0  0
  140.3950   69.5300  228.3190 C   0  0  0  0  0  0  0  0  0  0  0  0
  141.0540   70.7420  228.3130 C   0  0  0  0  0  0  0  0  0  0  0  0
  141.1410   71.5540  227.2020 C   0  0  0  0  0  0  0  0  0  0  0  0
  140.5280   71.1130  226.0370 C   0  0  0  0  0  0  0  0  0  0  0  0
  140.5990   71.8960  224.9280 N   0  0  0  0  0  0  0  0  0  0  0  0
  138.1320   73.2120  222.8640 H   0  0  0  0  0  0  0  0  0  0  0  0
  140.0152   73.5735  220.5088 H   0  0  0  0  0  0  0  0  0  0  0  0
  138.2061   73.5050  220.3303 H   0  0  0  0  0  0  0  0  0  0  0  0
  141.8421   76.2250  222.3491 H   0  0  0  0  0  0  0  0  0  0  0  0
  141.3062   74.5500  222.0703 H   0  0  0  0  0  0  0  0  0  0  0  0
  143.3855   75.2467  220.7849 H   0  0  0  0  0  0  0  0  0  0  0  0
  141.9976   74.6345  219.7660 H   0  0  0  0  0  0  0  0  0  0  0  0
  143.0555   77.4137  220.0868 H   0  0  0  0  0  0  0  0  0  0  0  0
  142.7728   76.3780  218.5908 H   0  0  0  0  0  0  0  0  0  0  0  0
  141.2610   78.3630  219.0013 H   0  0  0  0  0  0  0  0  0  0  0  0
  140.5593   76.7117  218.6039 H   0  0  0  0  0  0  0  0  0  0  0  0
  139.2014   77.7689  220.2296 H   0  0  0  0  0  0  0  0  0  0  0  0
  142.6672   78.5007  220.9767 H   0  0  0  0  0  0  0  0  0  0  0  0
  141.6304   80.7519  224.4394 H   0  0  0  0  0  0  0  0  0  0  0  0
  138.6850   78.3559  222.4739 H   0  0  0  0  0  0  0  0  0  0  0  0
  138.8550   69.9194  222.8511 H   0  0  0  0  0  0  0  0  0  0  0  0
  138.7172   68.4790  224.8675 H   0  0  0  0  0  0  0  0  0  0  0  0
  139.2489   68.1280  227.1169 H   0  0  0  0  0  0  0  0  0  0  0  0
  140.3549   68.9215  229.2345 H   0  0  0  0  0  0  0  0  0  0  0  0
  141.5352   71.0782  229.2433 H   0  0  0  0  0  0  0  0  0  0  0  0
  141.6758   72.5146  227.2374 H   0  0  0  0  0  0  0  0  0  0  0  0
  1  2  2  0
  2  3  1  0
  3  4  1  0
  4  5  1  0
  5  6  2  0
  5  7  1  0
  7  8  1  0
  8  9  1  0
  9 10  1  0
 10 11  1  0
 11 12  1  0
 12 13  1  0
 13 14  2  0
 14 15  1  0
 15 16  1  0
 15 17  2  0
 17 18  1  0
 18 19  1  0
 18 20  2  0
  2 21  1  0
 21 22  2  0
 22 23  1  0
 23 24  2  0
 24 25  1  0
 25 26  2  0
 26 27  1  0
 27 28  2  0
 28 29  1  0
 29 30  2  0
 12  7  1  0
 20 13  1  0
 30 21  1  0
 29 24  1  0
  3 31  1  0
  4 32  1  0
  4 33  1  0
  8 34  1  0
  8 35  1  0
  9 36  1  0
  9 37  1  0
 10 38  1  0
 10 39  1  0
 11 40  1  0
 11 41  1  0
 12 42  1  6
 14 43  1  0
 17 44  1  0
 20 45  1  0
 22 46  1  0
 23 47  1  0
 25 48  1  0
 26 49  1  0
 27 50  1  0
 28 51  1  0
M  END
>  <smiles>  (43) 
O=C(NCC(=O)N1CCCCC1c1cc(F)cc(F)c1)c1ccc2ccccc2n1

>  <score_type>  (43) 
oracle

>  <origin>  (43) 
autodockgpu

>  <m_score__min__energy>  (43) 
-9.0199999999999996

>  <m_primary>  (43) 
energy

>  <rmsd>  (43) 
2.1544763324098324

>  <m_score__min__rmsd>  (43) 
2.1544763324098324

>  <meeko>  (43) 
{"free_energy": -8.64, "intermolecular_energy": -10.13, "internal_energy": -1.35, "cluster_size": 26, "cluster_id": 2, "rank_in_cluster": 12}

>  <energy>  (43) 
-8.47

>  <cluster_rmsd>  (43) 
1.57

>  <cluster>  (43) 
2

$$$$

     RDKit          3D

 51 54  0  0  0  0  0  0  0  0999 V2000
  140.7060   72.3330  221.7410 O   0  0  0  0  0  0  0  0  0  0  0  0
  139.7820   72.2690  222.6080 C   0  0  0  0  0  0  0  0  0  0  0  0
  138.6120   73.0670  222.3590 N   0  0  0  0  0  0  0  0  0  0  0  0
  138.6130   73.8530  221.1520 C   0  0  0  0  0  0  0  0  0  0  0  0
  138.6380   75.3150  221.4250 C   0  0  0  0  0  0  0  0  0  0  0  0
  137.6010   75.9800  221.6990 O   0  0  0  0  0  0  0  0  0  0  0  0
  139.8840   75.9770  221.3720 N   0  0  0  0  0  0  0  0  0  0  0  0
  141.1120   75.4290  221.9280 C   0  0  0  0  0  0  0  0  0  0  0  0
  142.0670   75.2020  220.7740 C   0  0  0  0  0  0  0  0  0  0  0  0
  142.2000   76.3820  219.8680 C   0  0  0  0  0  0  0  0  0  0  0  0
  140.9260   77.0980  219.5590 C   0  0  0  0  0  0  0  0  0  0  0  0
  140.0110   77.2930  220.7350 C   0  0  2  0  0  0  0  0  0  0  0  0
  140.5000   78.2500  221.7300 C   0  0  0  0  0  0  0  0  0  0  0  0
  141.7880   78.7260  221.8060 C   0  0  0  0  0  0  0  0  0  0  0  0
  142.2110   79.6300  222.7600 C   0  0  0  0  0  0  0  0  0  0  0  0
  143.4990   80.0430  222.7600 F   0  0  0  0  0  0  0  0  0  0  0  0
  141.2820   80.0660  223.6750 C   0  0  0  0  0  0  0  0  0  0  0  0
  139.9690   79.6280  223.6540 C   0  0  0  0  0  0  0  0  0  0  0  0
  139.1350   80.1050  224.5810 F   0  0  0  0  0  0  0  0  0  0  0  0
  139.6050   78.7220  222.6730 C   0  0  0  0  0  0  0  0  0  0  0  0
  139.8790   71.4380  223.8030 C   0  0  0  0  0  0  0  0  0  0  0  0
  139.4190   70.1400  223.7080 C   0  0  0  0  0  0  0  0  0  0  0  0
  139.4570   69.2610  224.7650 C   0  0  0  0  0  0  0  0  0  0  0  0
  139.9870   69.7420  225.9520 C   0  0  0  0  0  0  0  0  0  0  0  0
  140.0240   68.8600  227.0090 C   0  0  0  0  0  0  0  0  0  0  0  0
  140.5500   69.3200  228.2080 C   0  0  0  0  0  0  0  0  0  0  0  0
  141.0060   70.6200  228.2870 C   0  0  0  0  0  0  0  0  0  0  0  0
  140.9690   71.5020  227.2280 C   0  0  0  0  0  0  0  0  0  0  0  0
  140.4420   71.0420  226.0280 C   0  0  0  0  0  0  0  0  0  0  0  0
  140.3940   71.8940  224.9690 N   0  0  0  0  0  0  0  0  0  0  0  0
  137.8260   73.0540  223.0340 H   0  0  0  0  0  0  0  0  0  0  0  0
  139.5018   73.5893  220.5599 H   0  0  0  0  0  0  0  0  0  0  0  0
  137.6838   73.6303  220.6070 H   0  0  0  0  0  0  0  0  0  0  0  0
  141.5501   76.1388  222.6451 H   0  0  0  0  0  0  0  0  0  0  0  0
  140.9124   74.4868  222.4594 H   0  0  0  0  0  0  0  0  0  0  0  0
  143.0595   74.9654  221.1851 H   0  0  0  0  0  0  0  0  0  0  0  0
  141.6565   74.3776  220.1725 H   0  0  0  0  0  0  0  0  0  0  0  0
  142.8860   77.0990  220.3427 H   0  0  0  0  0  0  0  0  0  0  0  0
  142.5673   75.9884  218.9088 H   0  0  0  0  0  0  0  0  0  0  0  0
  141.1799   78.0891  219.1550 H   0  0  0  0  0  0  0  0  0  0  0  0
  140.3805   76.4644  218.8442 H   0  0  0  0  0  0  0  0  0  0  0  0
  139.0604   77.7072  220.3677 H   0  0  0  0  0  0  0  0  0  0  0  0
  142.5201   78.3674  221.0675 H   0  0  0  0  0  0  0  0  0  0  0  0
  141.5917   80.7851  224.4476 H   0  0  0  0  0  0  0  0  0  0  0  0
  138.5653   78.3640  222.6422 H   0  0  0  0  0  0  0  0  0  0  0  0
  139.0056   69.7950  222.7488 H   0  0  0  0  0  0  0  0  0  0  0  0
  139.0860   68.2295  224.6732 H   0  0  0  0  0  0  0  0  0  0  0  0
  139.6509   67.8303  226.9068 H   0  0  0  0  0  0  0  0  0  0  0  0
  140.6028   68.6569  229.0841 H   0  0  0  0  0  0  0  0  0  0  0  0
  141.4202   70.9705  229.2439 H   0  0  0  0  0  0  0  0  0  0  0  0
  141.3428   72.5315  227.3296 H   0  0  0  0  0  0  0  0  0  0  0  0
  1  2  2  0
  2  3  1  0
  3  4  1  0
  4  5  1  0
  5  6  2  0
  5  7  1  0
  7  8  1  0
  8  9  1  0
  9 10  1  0
 10 11  1  0
 11 12  1  0
 12 13  1  0
 13 14  2  0
 14 15  1  0
 15 16  1  0
 15 17  2  0
 17 18  1  0
 18 19  1  0
 18 20  2  0
  2 21  1  0
 21 22  2  0
 22 23  1  0
 23 24  2  0
 24 25  1  0
 25 26  2  0
 26 27  1  0
 27 28  2  0
 28 29  1  0
 29 30  2  0
 12  7  1  0
 20 13  1  0
 30 21  1  0
 29 24  1  0
  3 31  1  0
  4 32  1  0
  4 33  1  0
  8 34  1  0
  8 35  1  0
  9 36  1  0
  9 37  1  0
 10 38  1  0
 10 39  1  0
 11 40  1  0
 11 41  1  0
 12 42  1  6
 14 43  1  0
 17 44  1  0
 20 45  1  0
 22 46  1  0
 23 47  1  0
 25 48  1  0
 26 49  1  0
 27 50  1  0
 28 51  1  0
M  END
>  <smiles>  (44) 
O=C(NCC(=O)N1CCCCC1c1cc(F)cc(F)c1)c1ccc2ccccc2n1

>  <score_type>  (44) 
oracle

>  <origin>  (44) 
autodockgpu

>  <m_score__min__energy>  (44) 
-9.0199999999999996

>  <m_primary>  (44) 
energy

>  <rmsd>  (44) 
2.174411060142452

>  <m_score__min__rmsd>  (44) 
2.174411060142452

>  <meeko>  (44) 
{"free_energy": -8.54, "intermolecular_energy": -10.03, "internal_energy": -1.42, "cluster_size": 26, "cluster_id": 2, "rank_in_cluster": 19}

>  <energy>  (44) 
-8.44

>  <cluster_rmsd>  (44) 
1.65

>  <cluster>  (44) 
2

$$$$

     RDKit          3D

 51 54  0  0  0  0  0  0  0  0999 V2000
  141.2280   71.7100  221.5550 O   0  0  0  0  0  0  0  0  0  0  0  0
  140.4220   72.0950  222.4550 C   0  0  0  0  0  0  0  0  0  0  0  0
  139.6710   73.2890  222.1760 N   0  0  0  0  0  0  0  0  0  0  0  0
  139.9150   73.9210  220.9060 C   0  0  0  0  0  0  0  0  0  0  0  0
  140.7610   75.1390  221.0290 C   0  0  0  0  0  0  0  0  0  0  0  0
  142.0210   75.0990  221.0680 O   0  0  0  0  0  0  0  0  0  0  0  0
  140.1110   76.3910  221.1060 N   0  0  0  0  0  0  0  0  0  0  0  0
  140.0080   77.3150  219.9880 C   0  0  0  0  0  0  0  0  0  0  0  0
  138.5380   77.4530  219.6490 C   0  0  0  0  0  0  0  0  0  0  0  0
  137.6750   77.7270  220.8370 C   0  0  0  0  0  0  0  0  0  0  0  0
  138.0160   76.9510  222.0670 C   0  0  0  0  0  0  0  0  0  0  0  0
  139.4860   76.8390  222.3560 C   0  0  2  0  0  0  0  0  0  0  0  0
  140.1180   78.0930  222.7720 C   0  0  0  0  0  0  0  0  0  0  0  0
  141.4600   78.3750  222.6710 C   0  0  0  0  0  0  0  0  0  0  0  0
  142.0200   79.5720  223.0760 C   0  0  0  0  0  0  0  0  0  0  0  0
  143.3520   79.7620  222.9390 F   0  0  0  0  0  0  0  0  0  0  0  0
  141.1750   80.5190  223.6040 C   0  0  0  0  0  0  0  0  0  0  0  0
  139.8150   80.2990  223.7340 C   0  0  0  0  0  0  0  0  0  0  0  0
  139.0700   81.2760  224.2580 F   0  0  0  0  0  0  0  0  0  0  0  0
  139.3130   79.0800  223.3100 C   0  0  0  0  0  0  0  0  0  0  0  0
  140.2470   71.3800  223.7150 C   0  0  0  0  0  0  0  0  0  0  0  0
  139.5680   70.1780  223.6690 C   0  0  0  0  0  0  0  0  0  0  0  0
  139.3410   69.4130  224.7890 C   0  0  0  0  0  0  0  0  0  0  0  0
  139.8310   69.9070  225.9880 C   0  0  0  0  0  0  0  0  0  0  0  0
  139.6020   69.1400  227.1080 C   0  0  0  0  0  0  0  0  0  0  0  0
  140.0830   69.6160  228.3200 C   0  0  0  0  0  0  0  0  0  0  0  0
  140.7580   70.8180  228.3480 C   0  0  0  0  0  0  0  0  0  0  0  0
  140.9870   71.5860  227.2260 C   0  0  0  0  0  0  0  0  0  0  0  0
  140.5060   71.1100  226.0140 C   0  0  0  0  0  0  0  0  0  0  0  0
  140.7190   71.8500  224.8930 N   0  0  0  0  0  0  0  0  0  0  0  0
  138.9970   73.6500  222.8760 H   0  0  0  0  0  0  0  0  0  0  0  0
  140.4243   73.2028  220.2466 H   0  0  0  0  0  0  0  0  0  0  0  0
  138.9429   74.2294  220.4938 H   0  0  0  0  0  0  0  0  0  0  0  0
  140.4225   78.2942  220.2699 H   0  0  0  0  0  0  0  0  0  0  0  0
  140.5732   76.9412  219.1215 H   0  0  0  0  0  0  0  0  0  0  0  0
  138.4217   78.2822  218.9357 H   0  0  0  0  0  0  0  0  0  0  0  0
  138.2118   76.4907  219.2275 H   0  0  0  0  0  0  0  0  0  0  0  0
  137.7571   78.7974  221.0769 H   0  0  0  0  0  0  0  0  0  0  0  0
  136.6590   77.4154  220.5530 H   0  0  0  0  0  0  0  0  0  0  0  0
  137.5353   77.4426  222.9256 H   0  0  0  0  0  0  0  0  0  0  0  0
  137.6560   75.9259  221.8952 H   0  0  0  0  0  0  0  0  0  0  0  0
  139.6203   76.1452  223.1990 H   0  0  0  0  0  0  0  0  0  0  0  0
  142.1230   77.6074  222.2454 H   0  0  0  0  0  0  0  0  0  0  0  0
  141.5929   81.4817  223.9335 H   0  0  0  0  0  0  0  0  0  0  0  0
  138.2337   78.8899  223.4048 H   0  0  0  0  0  0  0  0  0  0  0  0
  139.1943   69.8187  222.6988 H   0  0  0  0  0  0  0  0  0  0  0  0
  138.7982   68.4577  224.7362 H   0  0  0  0  0  0  0  0  0  0  0  0
  139.0583   68.1858  227.0449 H   0  0  0  0  0  0  0  0  0  0  0  0
  139.9278   69.0421  229.2455 H   0  0  0  0  0  0  0  0  0  0  0  0
  141.1332   71.1831  229.3154 H   0  0  0  0  0  0  0  0  0  0  0  0
  141.5306   72.5402  227.2890 H   0  0  0  0  0  0  0  0  0  0  0  0
  1  2  2  0
  2  3  1  0
  3  4  1  0
  4  5  1  0
  5  6  2  0
  5  7  1  0
  7  8  1  0
  8  9  1  0
  9 10  1  0
 10 11  1  0
 11 12  1  0
 12 13  1  0
 13 14  2  0
 14 15  1  0
 15 16  1  0
 15 17  2  0
 17 18  1  0
 18 19  1  0
 18 20  2  0
  2 21  1  0
 21 22  2  0
 22 23  1  0
 23 24  2  0
 24 25  1  0
 25 26  2  0
 26 27  1  0
 27 28  2  0
 28 29  1  0
 29 30  2  0
 12  7  1  0
 20 13  1  0
 30 21  1  0
 29 24  1  0
  3 31  1  0
  4 32  1  0
  4 33  1  0
  8 34  1  0
  8 35  1  0
  9 36  1  0
  9 37  1  0
 10 38  1  0
 10 39  1  0
 11 40  1  0
 11 41  1  0
 12 42  1  1
 14 43  1  0
 17 44  1  0
 20 45  1  0
 22 46  1  0
 23 47  1  0
 25 48  1  0
 26 49  1  0
 27 50  1  0
 28 51  1  0
M  END
>  <smiles>  (45) 
O=C(NCC(=O)N1CCCCC1c1cc(F)cc(F)c1)c1ccc2ccccc2n1

>  <score_type>  (45) 
oracle

>  <origin>  (45) 
autodockgpu

>  <m_score__min__energy>  (45) 
-9.0199999999999996

>  <m_primary>  (45) 
energy

>  <rmsd>  (45) 
2.5949118340469135

>  <m_score__min__rmsd>  (45) 
2.5949118340469135

>  <meeko>  (45) 
{"free_energy": -8.57, "intermolecular_energy": -10.07, "internal_energy": -1.33, "cluster_size": 26, "cluster_id": 2, "rank_in_cluster": 15}

>  <energy>  (45) 
-8.34

>  <cluster_rmsd>  (45) 
1.41

>  <cluster>  (45) 
2

$$$$

     RDKit          3D

 51 54  0  0  0  0  0  0  0  0999 V2000
  140.4870   71.7150  221.4190 O   0  0  0  0  0  0  0  0  0  0  0  0
  139.7780   71.9980  222.4310 C   0  0  0  0  0  0  0  0  0  0  0  0
  138.8220   73.0600  222.2680 N   0  0  0  0  0  0  0  0  0  0  0  0
  138.7740   73.6900  220.9740 C   0  0  0  0  0  0  0  0  0  0  0  0
  138.7430   75.1750  221.0650 C   0  0  0  0  0  0  0  0  0  0  0  0
  137.6720   75.8420  221.0540 O   0  0  0  0  0  0  0  0  0  0  0  0
  139.9750   75.8580  221.1670 N   0  0  0  0  0  0  0  0  0  0  0  0
  141.1490   75.3070  221.8270 C   0  0  0  0  0  0  0  0  0  0  0  0
  142.2230   75.1400  220.7720 C   0  0  0  0  0  0  0  0  0  0  0  0
  142.4260   76.3560  219.9290 C   0  0  0  0  0  0  0  0  0  0  0  0
  141.1780   77.0640  219.5160 C   0  0  0  0  0  0  0  0  0  0  0  0
  140.1420   77.1990  220.5960 C   0  0  2  0  0  0  0  0  0  0  0  0
  140.5070   78.1240  221.6720 C   0  0  0  0  0  0  0  0  0  0  0  0
  139.6660   78.5420  222.6760 C   0  0  0  0  0  0  0  0  0  0  0  0
  140.0480   79.4170  223.6750 C   0  0  0  0  0  0  0  0  0  0  0  0
  139.1520   79.7740  224.6230 F   0  0  0  0  0  0  0  0  0  0  0  0
  141.3400   79.8830  223.6480 C   0  0  0  0  0  0  0  0  0  0  0  0
  142.2380   79.5020  222.6660 C   0  0  0  0  0  0  0  0  0  0  0  0
  143.4740   80.0050  222.7180 F   0  0  0  0  0  0  0  0  0  0  0  0
  141.7970   78.6220  221.6920 C   0  0  0  0  0  0  0  0  0  0  0  0
  139.9050   71.2970  223.7030 C   0  0  0  0  0  0  0  0  0  0  0  0
  139.4690   69.9870  223.7480 C   0  0  0  0  0  0  0  0  0  0  0  0
  139.5380   69.2230  224.8900 C   0  0  0  0  0  0  0  0  0  0  0  0
  140.0710   69.8330  226.0140 C   0  0  0  0  0  0  0  0  0  0  0  0
  140.1380   69.0650  227.1550 C   0  0  0  0  0  0  0  0  0  0  0  0
  140.6690   69.6560  228.2940 C   0  0  0  0  0  0  0  0  0  0  0  0
  141.0990   70.9650  228.2320 C   0  0  0  0  0  0  0  0  0  0  0  0
  141.0310   71.7330  227.0890 C   0  0  0  0  0  0  0  0  0  0  0  0
  140.5010   71.1420  225.9500 C   0  0  0  0  0  0  0  0  0  0  0  0
  140.4230   71.8790  224.8100 N   0  0  0  0  0  0  0  0  0  0  0  0
  138.2160   73.3340  223.0620 H   0  0  0  0  0  0  0  0  0  0  0  0
  139.6645   73.3900  220.4021 H   0  0  0  0  0  0  0  0  0  0  0  0
  137.8472   73.3657  220.4781 H   0  0  0  0  0  0  0  0  0  0  0  0
  141.4966   75.9944  222.6123 H   0  0  0  0  0  0  0  0  0  0  0  0
  140.9131   74.3415  222.2984 H   0  0  0  0  0  0  0  0  0  0  0  0
  143.1718   74.9036  221.2758 H   0  0  0  0  0  0  0  0  0  0  0  0
  141.8938   74.3330  220.1009 H   0  0  0  0  0  0  0  0  0  0  0  0
  143.0455   77.0644  220.4986 H   0  0  0  0  0  0  0  0  0  0  0  0
  142.8975   76.0052  218.9992 H   0  0  0  0  0  0  0  0  0  0  0  0
  141.4536   78.0740  219.1783 H   0  0  0  0  0  0  0  0  0  0  0  0
  140.7219   76.4506  218.7250 H   0  0  0  0  0  0  0  0  0  0  0  0
  139.2269   77.6124  220.1468 H   0  0  0  0  0  0  0  0  0  0  0  0
  138.6346   78.1598  222.6845 H   0  0  0  0  0  0  0  0  0  0  0  0
  141.6712   80.5807  224.4312 H   0  0  0  0  0  0  0  0  0  0  0  0
  142.4985   78.3075  220.9053 H   0  0  0  0  0  0  0  0  0  0  0  0
  139.0505   69.5374  222.8355 H   0  0  0  0  0  0  0  0  0  0  0  0
  139.1877   68.1805  224.9097 H   0  0  0  0  0  0  0  0  0  0  0  0
  139.7845   68.0234  227.1639 H   0  0  0  0  0  0  0  0  0  0  0  0
  140.7456   69.0879  229.2328 H   0  0  0  0  0  0  0  0  0  0  0  0
  141.5179   71.4199  229.1417 H   0  0  0  0  0  0  0  0  0  0  0  0
  141.3835   72.7750  227.0799 H   0  0  0  0  0  0  0  0  0  0  0  0
  1  2  2  0
  2  3  1  0
  3  4  1  0
  4  5  1  0
  5  6  2  0
  5  7  1  0
  7  8  1  0
  8  9  1  0
  9 10  1  0
 10 11  1  0
 11 12  1  0
 12 13  1  0
 13 14  2  0
 14 15  1  0
 15 16  1  0
 15 17  2  0
 17 18  1  0
 18 19  1  0
 18 20  2  0
  2 21  1  0
 21 22  2  0
 22 23  1  0
 23 24  2  0
 24 25  1  0
 25 26  2  0
 26 27  1  0
 27 28  2  0
 28 29  1  0
 29 30  2  0
 12  7  1  0
 20 13  1  0
 30 21  1  0
 29 24  1  0
  3 31  1  0
  4 32  1  0
  4 33  1  0
  8 34  1  0
  8 35  1  0
  9 36  1  0
  9 37  1  0
 10 38  1  0
 10 39  1  0
 11 40  1  0
 11 41  1  0
 12 42  1  6
 14 43  1  0
 17 44  1  0
 20 45  1  0
 22 46  1  0
 23 47  1  0
 25 48  1  0
 26 49  1  0
 27 50  1  0
 28 51  1  0
M  END
>  <smiles>  (46) 
O=C(NCC(=O)N1CCCCC1c1cc(F)cc(F)c1)c1ccc2ccccc2n1

>  <score_type>  (46) 
oracle

>  <origin>  (46) 
autodockgpu

>  <m_score__min__energy>  (46) 
-9.0199999999999996

>  <m_primary>  (46) 
energy

>  <rmsd>  (46) 
2.1451368897064804

>  <m_score__min__rmsd>  (46) 
2.1451368897064804

>  <meeko>  (46) 
{"free_energy": -8.51, "intermolecular_energy": -10.0, "internal_energy": -1.31, "cluster_size": 26, "cluster_id": 2, "rank_in_cluster": 20}

>  <energy>  (46) 
-8.31

>  <cluster_rmsd>  (46) 
1.26

>  <cluster>  (46) 
2

$$$$

     RDKit          3D

 51 54  0  0  0  0  0  0  0  0999 V2000
  141.3160   71.9380  221.6340 O   0  0  0  0  0  0  0  0  0  0  0  0
  140.4260   72.2180  222.4930 C   0  0  0  0  0  0  0  0  0  0  0  0
  139.5710   73.3340  222.1920 N   0  0  0  0  0  0  0  0  0  0  0  0
  139.8160   74.0160  220.9480 C   0  0  0  0  0  0  0  0  0  0  0  0
  140.6050   75.2640  221.1290 C   0  0  0  0  0  0  0  0  0  0  0  0
  141.8640   75.2750  221.2110 O   0  0  0  0  0  0  0  0  0  0  0  0
  139.9010   76.4860  221.2100 N   0  0  0  0  0  0  0  0  0  0  0  0
  139.6830   77.3680  220.0730 C   0  0  0  0  0  0  0  0  0  0  0  0
  138.1900   77.4250  219.8260 C   0  0  0  0  0  0  0  0  0  0  0  0
  137.3910   77.6970  221.0580 C   0  0  0  0  0  0  0  0  0  0  0  0
  137.8460   76.9790  222.2860 C   0  0  0  0  0  0  0  0  0  0  0  0
  139.3340   76.9450  222.4830 C   0  0  2  0  0  0  0  0  0  0  0  0
  139.9300   78.2410  222.8210 C   0  0  0  0  0  0  0  0  0  0  0  0
  139.2250   79.3730  223.1570 C   0  0  0  0  0  0  0  0  0  0  0  0
  139.8240   80.5780  223.4700 C   0  0  0  0  0  0  0  0  0  0  0  0
  139.0510   81.6410  223.7880 F   0  0  0  0  0  0  0  0  0  0  0  0
  141.1970   80.6290  223.4380 C   0  0  0  0  0  0  0  0  0  0  0  0
  141.9660   79.5260  223.1080 C   0  0  0  0  0  0  0  0  0  0  0  0
  143.2940   79.6680  223.1030 F   0  0  0  0  0  0  0  0  0  0  0  0
  141.3090   78.3460  222.8050 C   0  0  0  0  0  0  0  0  0  0  0  0
  140.2590   71.4610  223.7290 C   0  0  0  0  0  0  0  0  0  0  0  0
  139.5800   70.2620  223.6480 C   0  0  0  0  0  0  0  0  0  0  0  0
  139.3600   69.4600  224.7430 C   0  0  0  0  0  0  0  0  0  0  0  0
  139.8570   69.9140  225.9540 C   0  0  0  0  0  0  0  0  0  0  0  0
  139.6350   69.1090  227.0490 C   0  0  0  0  0  0  0  0  0  0  0  0
  140.1240   69.5440  228.2740 C   0  0  0  0  0  0  0  0  0  0  0  0
  140.8000   70.7450  228.3380 C   0  0  0  0  0  0  0  0  0  0  0  0
  141.0220   71.5500  227.2410 C   0  0  0  0  0  0  0  0  0  0  0  0
  140.5330   71.1150  226.0160 C   0  0  0  0  0  0  0  0  0  0  0  0
  140.7390   71.8920  224.9200 N   0  0  0  0  0  0  0  0  0  0  0  0
  138.8270   73.6080  222.8590 H   0  0  0  0  0  0  0  0  0  0  0  0
  140.3709   73.3416  220.2792 H   0  0  0  0  0  0  0  0  0  0  0  0
  138.8411   74.2954  220.5221 H   0  0  0  0  0  0  0  0  0  0  0  0
  140.0658   78.3743  220.2985 H   0  0  0  0  0  0  0  0  0  0  0  0
  140.2106   76.9936  219.1833 H   0  0  0  0  0  0  0  0  0  0  0  0
  137.9882   78.2237  219.0971 H   0  0  0  0  0  0  0  0  0  0  0  0
  137.8859   76.4348  219.4559 H   0  0  0  0  0  0  0  0  0  0  0  0
  137.4354   78.7774  221.2601 H   0  0  0  0  0  0  0  0  0  0  0  0
  136.3757   77.3287  220.8492 H   0  0  0  0  0  0  0  0  0  0  0  0
  137.3969   77.4759  223.1586 H   0  0  0  0  0  0  0  0  0  0  0  0
  137.5262   75.9331  222.1684 H   0  0  0  0  0  0  0  0  0  0  0  0
  139.5539   76.2859  223.3358 H   0  0  0  0  0  0  0  0  0  0  0  0
  138.1267   79.3161  223.1776 H   0  0  0  0  0  0  0  0  0  0  0  0
  141.7008   81.5759  223.6822 H   0  0  0  0  0  0  0  0  0  0  0  0
  141.9052   77.4598  222.5420 H   0  0  0  0  0  0  0  0  0  0  0  0
  139.1999   69.9352  222.6688 H   0  0  0  0  0  0  0  0  0  0  0  0
  138.8172   68.5067  224.6617 H   0  0  0  0  0  0  0  0  0  0  0  0
  139.0909   68.1574  226.9569 H   0  0  0  0  0  0  0  0  0  0  0  0
  139.9744   68.9393  229.1806 H   0  0  0  0  0  0  0  0  0  0  0  0
  141.1815   71.0774  229.3147 H   0  0  0  0  0  0  0  0  0  0  0  0
  141.5662   72.5015  227.3325 H   0  0  0  0  0  0  0  0  0  0  0  0
  1  2  2  0
  2  3  1  0
  3  4  1  0
  4  5  1  0
  5  6  2  0
  5  7  1  0
  7  8  1  0
  8  9  1  0
  9 10  1  0
 10 11  1  0
 11 12  1  0
 12 13  1  0
 13 14  2  0
 14 15  1  0
 15 16  1  0
 15 17  2  0
 17 18  1  0
 18 19  1  0
 18 20  2  0
  2 21  1  0
 21 22  2  0
 22 23  1  0
 23 24  2  0
 24 25  1  0
 25 26  2  0
 26 27  1  0
 27 28  2  0
 28 29  1  0
 29 30  2  0
 12  7  1  0
 20 13  1  0
 30 21  1  0
 29 24  1  0
  3 31  1  0
  4 32  1  0
  4 33  1  0
  8 34  1  0
  8 35  1  0
  9 36  1  0
  9 37  1  0
 10 38  1  0
 10 39  1  0
 11 40  1  0
 11 41  1  0
 12 42  1  1
 14 43  1  0
 17 44  1  0
 20 45  1  0
 22 46  1  0
 23 47  1  0
 25 48  1  0
 26 49  1  0
 27 50  1  0
 28 51  1  0
M  END
>  <smiles>  (47) 
O=C(NCC(=O)N1CCCCC1c1cc(F)cc(F)c1)c1ccc2ccccc2n1

>  <score_type>  (47) 
oracle

>  <origin>  (47) 
autodockgpu

>  <m_score__min__energy>  (47) 
-9.0199999999999996

>  <m_primary>  (47) 
energy

>  <rmsd>  (47) 
2.6901898348753672

>  <m_score__min__rmsd>  (47) 
2.6901898348753672

>  <meeko>  (47) 
{"free_energy": -8.47, "intermolecular_energy": -9.96, "internal_energy": -1.35, "cluster_size": 26, "cluster_id": 2, "rank_in_cluster": 22}

>  <energy>  (47) 
-8.15

>  <cluster_rmsd>  (47) 
1.2

>  <cluster>  (47) 
2

$$$$

     RDKit          3D

 51 54  0  0  0  0  0  0  0  0999 V2000
  140.1610   74.5810  220.0640 O   0  0  0  0  0  0  0  0  0  0  0  0
  140.0650   75.1740  221.1810 C   0  0  0  0  0  0  0  0  0  0  0  0
  139.3190   74.4940  222.2060 N   0  0  0  0  0  0  0  0  0  0  0  0
  138.7600   73.2150  221.8550 C   0  0  0  0  0  0  0  0  0  0  0  0
  139.6050   72.0790  222.3140 C   0  0  0  0  0  0  0  0  0  0  0  0
  140.7170   71.7950  221.7880 O   0  0  0  0  0  0  0  0  0  0  0  0
  139.1320   71.2930  223.3860 N   0  0  0  0  0  0  0  0  0  0  0  0
  137.8510   71.5100  224.0420 C   0  0  0  0  0  0  0  0  0  0  0  0
  137.0020   70.2810  223.7910 C   0  0  0  0  0  0  0  0  0  0  0  0
  137.7060   68.9980  224.0880 C   0  0  0  0  0  0  0  0  0  0  0  0
  139.1320   68.9350  223.6480 C   0  0  0  0  0  0  0  0  0  0  0  0
  139.9300   70.1790  223.9130 C   0  0  2  0  0  0  0  0  0  0  0  0
  140.2070   70.4300  225.3300 C   0  0  0  0  0  0  0  0  0  0  0  0
  140.7330   71.5930  225.8400 C   0  0  0  0  0  0  0  0  0  0  0  0
  140.9800   71.7930  227.1840 C   0  0  0  0  0  0  0  0  0  0  0  0
  141.5010   72.9700  227.5970 F   0  0  0  0  0  0  0  0  0  0  0  0
  140.6770   70.7630  228.0430 C   0  0  0  0  0  0  0  0  0  0  0  0
  140.1440   69.5660  227.5950 C   0  0  0  0  0  0  0  0  0  0  0  0
  139.8790   68.6210  228.5000 F   0  0  0  0  0  0  0  0  0  0  0  0
  139.9180   69.4260  226.2360 C   0  0  0  0  0  0  0  0  0  0  0  0
  140.6710   76.4750  221.4370 C   0  0  0  0  0  0  0  0  0  0  0  0
  141.1130   77.1920  220.3430 C   0  0  0  0  0  0  0  0  0  0  0  0
  141.7010   78.4300  220.4560 C   0  0  0  0  0  0  0  0  0  0  0  0
  141.8330   78.9390  221.7380 C   0  0  0  0  0  0  0  0  0  0  0  0
  142.4220   80.1780  221.8490 C   0  0  0  0  0  0  0  0  0  0  0  0
  142.5660   80.7070  223.1250 C   0  0  0  0  0  0  0  0  0  0  0  0
  142.1190   79.9790  224.2070 C   0  0  0  0  0  0  0  0  0  0  0  0
  141.5290   78.7370  224.0960 C   0  0  0  0  0  0  0  0  0  0  0  0
  141.3860   78.2080  222.8200 C   0  0  0  0  0  0  0  0  0  0  0  0
  140.8080   76.9850  222.6840 N   0  0  0  0  0  0  0  0  0  0  0  0
  139.2090   74.9320  223.1390 H   0  0  0  0  0  0  0  0  0  0  0  0
  137.7662   73.1252  222.3180 H   0  0  0  0  0  0  0  0  0  0  0  0
  138.7006   73.1657  220.7577 H   0  0  0  0  0  0  0  0  0  0  0  0
  138.0005   71.6498  225.1228 H   0  0  0  0  0  0  0  0  0  0  0  0
  137.3587   72.4106  223.6464 H   0  0  0  0  0  0  0  0  0  0  0  0
  136.1061   70.3414  224.4264 H   0  0  0  0  0  0  0  0  0  0  0  0
  136.7546   70.2729  222.7192 H   0  0  0  0  0  0  0  0  0  0  0  0
  137.6789   68.8397  225.1762 H   0  0  0  0  0  0  0  0  0  0  0  0
  137.1769   68.2216  223.5160 H   0  0  0  0  0  0  0  0  0  0  0  0
  139.6159   68.0996  224.1753 H   0  0  0  0  0  0  0  0  0  0  0  0
  139.1129   68.8071  222.5556 H   0  0  0  0  0  0  0  0  0  0  0  0
  140.9137   70.0662  223.4339 H   0  0  0  0  0  0  0  0  0  0  0  0
  140.9699   72.4080  225.1402 H   0  0  0  0  0  0  0  0  0  0  0  0
  140.8637   70.8938  229.1191 H   0  0  0  0  0  0  0  0  0  0  0  0
  139.4933   68.4821  225.8637 H   0  0  0  0  0  0  0  0  0  0  0  0
  140.9899   76.7555  219.3409 H   0  0  0  0  0  0  0  0  0  0  0  0
  142.0487   78.9876  219.5739 H   0  0  0  0  0  0  0  0  0  0  0  0
  142.7656   80.7284  220.9607 H   0  0  0  0  0  0  0  0  0  0  0  0
  143.0304   81.6935  223.2703 H   0  0  0  0  0  0  0  0  0  0  0  0
  142.2391   80.4111  225.2114 H   0  0  0  0  0  0  0  0  0  0  0  0
  141.1850   78.1867  224.9842 H   0  0  0  0  0  0  0  0  0  0  0  0
  1  2  2  0
  2  3  1  0
  3  4  1  0
  4  5  1  0
  5  6  2  0
  5  7  1  0
  7  8  1  0
  8  9  1  0
  9 10  1  0
 10 11  1  0
 11 12  1  0
 12 13  1  0
 13 14  2  0
 14 15  1  0
 15 16  1  0
 15 17  2  0
 17 18  1  0
 18 19  1  0
 18 20  2  0
  2 21  1  0
 21 22  2  0
 22 23  1  0
 23 24  2  0
 24 25  1  0
 25 26  2  0
 26 27  1  0
 27 28  2  0
 28 29  1  0
 29 30  2  0
 12  7  1  0
 20 13  1  0
 30 21  1  0
 29 24  1  0
  3 31  1  0
  4 32  1  0
  4 33  1  0
  8 34  1  0
  8 35  1  0
  9 36  1  0
  9 37  1  0
 10 38  1  0
 10 39  1  0
 11 40  1  0
 11 41  1  0
 12 42  1  6
 14 43  1  0
 17 44  1  0
 20 45  1  0
 22 46  1  0
 23 47  1  0
 25 48  1  0
 26 49  1  0
 27 50  1  0
 28 51  1  0
M  END
>  <smiles>  (48) 
O=C(NCC(=O)N1CCCCC1c1cc(F)cc(F)c1)c1ccc2ccccc2n1

>  <score_type>  (48) 
oracle

>  <origin>  (48) 
autodockgpu

>  <m_score__min__energy>  (48) 
-9.0199999999999996

>  <m_primary>  (48) 
energy

>  <rmsd>  (48) 
8.33155355137537

>  <m_score__min__rmsd>  (48) 
8.33155355137537

>  <meeko>  (48) 
{"free_energy": -8.78, "intermolecular_energy": -10.27, "internal_energy": -1.42, "cluster_size": 21, "cluster_id": 1, "rank_in_cluster": 12}

>  <energy>  (48) 
-8.19

>  <cluster_rmsd>  (48) 
0.0

>  <cluster>  (48) 
3

$$$$

     RDKit          3D

 51 54  0  0  0  0  0  0  0  0999 V2000
  140.3660   74.2130  220.1780 O   0  0  0  0  0  0  0  0  0  0  0  0
  140.0620   74.9150  221.1900 C   0  0  0  0  0  0  0  0  0  0  0  0
  139.1650   74.3170  222.1410 N   0  0  0  0  0  0  0  0  0  0  0  0
  138.7070   72.9840  221.8440 C   0  0  0  0  0  0  0  0  0  0  0  0
  139.6070   71.9370  222.3990 C   0  0  0  0  0  0  0  0  0  0  0  0
  140.7520   71.6940  221.9270 O   0  0  0  0  0  0  0  0  0  0  0  0
  139.1470   71.1870  223.5030 N   0  0  0  0  0  0  0  0  0  0  0  0
  137.8760   71.4290  224.1700 C   0  0  0  0  0  0  0  0  0  0  0  0
  137.0200   70.1950  223.9720 C   0  0  0  0  0  0  0  0  0  0  0  0
  137.7250   68.9210  224.3000 C   0  0  0  0  0  0  0  0  0  0  0  0
  139.1440   68.8390  223.8420 C   0  0  0  0  0  0  0  0  0  0  0  0
  139.9490   70.0890  224.0550 C   0  0  2  0  0  0  0  0  0  0  0  0
  140.2470   70.3850  225.4580 C   0  0  0  0  0  0  0  0  0  0  0  0
  140.7870   71.5620  225.9220 C   0  0  0  0  0  0  0  0  0  0  0  0
  141.0530   71.8050  227.2560 C   0  0  0  0  0  0  0  0  0  0  0  0
  141.5850   72.9930  227.6210 F   0  0  0  0  0  0  0  0  0  0  0  0
  140.7570   70.8060  228.1520 C   0  0  0  0  0  0  0  0  0  0  0  0
  140.2120   69.5980  227.7520 C   0  0  0  0  0  0  0  0  0  0  0  0
  139.9560   68.6840  228.6920 F   0  0  0  0  0  0  0  0  0  0  0  0
  139.9670   69.4140  226.4020 C   0  0  0  0  0  0  0  0  0  0  0  0
  140.5820   76.2620  221.3990 C   0  0  0  0  0  0  0  0  0  0  0  0
  141.3930   76.7860  220.4120 C   0  0  0  0  0  0  0  0  0  0  0  0
  141.9420   78.0440  220.4950 C   0  0  0  0  0  0  0  0  0  0  0  0
  141.6430   78.7780  221.6320 C   0  0  0  0  0  0  0  0  0  0  0  0
  142.1940   80.0370  221.7120 C   0  0  0  0  0  0  0  0  0  0  0  0
  141.9080   80.7900  222.8430 C   0  0  0  0  0  0  0  0  0  0  0  0
  141.0970   80.2520  223.8200 C   0  0  0  0  0  0  0  0  0  0  0  0
  140.5450   78.9910  223.7380 C   0  0  0  0  0  0  0  0  0  0  0  0
  140.8310   78.2380  222.6070 C   0  0  0  0  0  0  0  0  0  0  0  0
  140.2990   76.9910  222.5040 N   0  0  0  0  0  0  0  0  0  0  0  0
  138.8820   74.8450  222.9860 H   0  0  0  0  0  0  0  0  0  0  0  0
  137.7035   72.8514  222.2745 H   0  0  0  0  0  0  0  0  0  0  0  0
  138.6952   72.8699  220.7500 H   0  0  0  0  0  0  0  0  0  0  0  0
  138.0416   71.6037  225.2433 H   0  0  0  0  0  0  0  0  0  0  0  0
  137.3803   72.3175  223.7519 H   0  0  0  0  0  0  0  0  0  0  0  0
  136.1340   70.2788  224.6185 H   0  0  0  0  0  0  0  0  0  0  0  0
  136.7562   70.1527  222.9049 H   0  0  0  0  0  0  0  0  0  0  0  0
  137.7134   68.7982  225.3931 H   0  0  0  0  0  0  0  0  0  0  0  0
  137.1858   68.1282  223.7608 H   0  0  0  0  0  0  0  0  0  0  0  0
  139.6332   68.0198  224.3893 H   0  0  0  0  0  0  0  0  0  0  0  0
  139.1090   68.6753  222.7548 H   0  0  0  0  0  0  0  0  0  0  0  0
  140.9256   69.9578  223.5661 H   0  0  0  0  0  0  0  0  0  0  0  0
  141.0194   72.3517  225.1923 H   0  0  0  0  0  0  0  0  0  0  0  0
  140.9595   70.9714  229.2205 H   0  0  0  0  0  0  0  0  0  0  0  0
  139.5334   68.4599  226.0677 H   0  0  0  0  0  0  0  0  0  0  0  0
  141.6084   76.1730  219.5244 H   0  0  0  0  0  0  0  0  0  0  0  0
  142.5858   78.4473  219.6994 H   0  0  0  0  0  0  0  0  0  0  0  0
  142.8362   80.4313  220.9107 H   0  0  0  0  0  0  0  0  0  0  0  0
  142.3228   81.8023  222.9581 H   0  0  0  0  0  0  0  0  0  0  0  0
  140.8792   80.8600  224.7105 H   0  0  0  0  0  0  0  0  0  0  0  0
  139.9021   78.5964  224.5386 H   0  0  0  0  0  0  0  0  0  0  0  0
  1  2  2  0
  2  3  1  0
  3  4  1  0
  4  5  1  0
  5  6  2  0
  5  7  1  0
  7  8  1  0
  8  9  1  0
  9 10  1  0
 10 11  1  0
 11 12  1  0
 12 13  1  0
 13 14  2  0
 14 15  1  0
 15 16  1  0
 15 17  2  0
 17 18  1  0
 18 19  1  0
 18 20  2  0
  2 21  1  0
 21 22  2  0
 22 23  1  0
 23 24  2  0
 24 25  1  0
 25 26  2  0
 26 27  1  0
 27 28  2  0
 28 29  1  0
 29 30  2  0
 12  7  1  0
 20 13  1  0
 30 21  1  0
 29 24  1  0
  3 31  1  0
  4 32  1  0
  4 33  1  0
  8 34  1  0
  8 35  1  0
  9 36  1  0
  9 37  1  0
 10 38  1  0
 10 39  1  0
 11 40  1  0
 11 41  1  0
 12 42  1  6
 14 43  1  0
 17 44  1  0
 20 45  1  0
 22 46  1  0
 23 47  1  0
 25 48  1  0
 26 49  1  0
 27 50  1  0
 28 51  1  0
M  END
>  <smiles>  (49) 
O=C(NCC(=O)N1CCCCC1c1cc(F)cc(F)c1)c1ccc2ccccc2n1

>  <score_type>  (49) 
oracle

>  <origin>  (49) 
autodockgpu

>  <m_score__min__energy>  (49) 
-9.0199999999999996

>  <m_primary>  (49) 
energy

>  <rmsd>  (49) 
8.366925376330778

>  <m_score__min__rmsd>  (49) 
8.366925376330778

>  <meeko>  (49) 
{"free_energy": -8.64, "intermolecular_energy": -10.13, "internal_energy": -1.45, "cluster_size": 21, "cluster_id": 1, "rank_in_cluster": 19}

>  <energy>  (49) 
-8.18

>  <cluster_rmsd>  (49) 
0.0

>  <cluster>  (49) 
4

$$$$

     RDKit          3D

 51 54  0  0  0  0  0  0  0  0999 V2000
  141.1950   72.4950  222.3040 O   0  0  0  0  0  0  0  0  0  0  0  0
  140.1880   72.2140  223.0220 C   0  0  0  0  0  0  0  0  0  0  0  0
  138.9300   72.7750  222.6080 N   0  0  0  0  0  0  0  0  0  0  0  0
  138.9480   73.5950  221.4250 C   0  0  0  0  0  0  0  0  0  0  0  0
  138.9560   75.0490  221.7410 C   0  0  0  0  0  0  0  0  0  0  0  0
  138.0200   75.6220  222.3640 O   0  0  0  0  0  0  0  0  0  0  0  0
  140.0660   75.8120  221.3180 N   0  0  0  0  0  0  0  0  0  0  0  0
  141.4430   75.3490  221.4070 C   0  0  0  0  0  0  0  0  0  0  0  0
  141.9740   75.2360  219.9930 C   0  0  0  0  0  0  0  0  0  0  0  0
  141.7190   76.4500  219.1610 C   0  0  0  0  0  0  0  0  0  0  0  0
  140.3700   77.0690  219.3290 C   0  0  0  0  0  0  0  0  0  0  0  0
  139.8860   77.1530  220.7490 C   0  0  2  0  0  0  0  0  0  0  0  0
  140.6130   78.1160  221.5800 C   0  0  0  0  0  0  0  0  0  0  0  0
  140.9100   77.9470  222.9120 C   0  0  0  0  0  0  0  0  0  0  0  0
  141.5990   78.8800  223.6630 C   0  0  0  0  0  0  0  0  0  0  0  0
  141.8460   78.6300  224.9690 F   0  0  0  0  0  0  0  0  0  0  0  0
  142.0010   80.0310  223.0290 C   0  0  0  0  0  0  0  0  0  0  0  0
  141.7350   80.2630  221.6910 C   0  0  0  0  0  0  0  0  0  0  0  0
  142.1640   81.4090  221.1560 F   0  0  0  0  0  0  0  0  0  0  0  0
  141.0420   79.2910  220.9900 C   0  0  0  0  0  0  0  0  0  0  0  0
  140.2750   71.3690  224.2080 C   0  0  0  0  0  0  0  0  0  0  0  0
  140.9690   71.8710  225.2900 C   0  0  0  0  0  0  0  0  0  0  0  0
  141.1200   71.1700  226.4640 C   0  0  0  0  0  0  0  0  0  0  0  0
  140.5350   69.9140  226.5150 C   0  0  0  0  0  0  0  0  0  0  0  0
  140.6880   69.2140  227.6910 C   0  0  0  0  0  0  0  0  0  0  0  0
  140.1110   67.9530  227.7640 C   0  0  0  0  0  0  0  0  0  0  0  0
  139.4210   67.4660  226.6740 C   0  0  0  0  0  0  0  0  0  0  0  0
  139.2690   68.1680  225.4970 C   0  0  0  0  0  0  0  0  0  0  0  0
  139.8460   69.4290  225.4230 C   0  0  0  0  0  0  0  0  0  0  0  0
  139.7100   70.1410  224.2730 N   0  0  0  0  0  0  0  0  0  0  0  0
  138.0730   72.5790  223.1570 H   0  0  0  0  0  0  0  0  0  0  0  0
  139.8501   73.3553  220.8431 H   0  0  0  0  0  0  0  0  0  0  0  0
  138.0315   73.3812  220.8556 H   0  0  0  0  0  0  0  0  0  0  0  0
  142.0460   76.0697  221.9788 H   0  0  0  0  0  0  0  0  0  0  0  0
  141.4942   74.3775  221.9204 H   0  0  0  0  0  0  0  0  0  0  0  0
  143.0602   75.0692  220.0415 H   0  0  0  0  0  0  0  0  0  0  0  0
  141.4439   74.3993  219.5147 H   0  0  0  0  0  0  0  0  0  0  0  0
  142.4743   77.2057  219.4226 H   0  0  0  0  0  0  0  0  0  0  0  0
  141.7718   76.1169  218.1140 H   0  0  0  0  0  0  0  0  0  0  0  0
  140.4087   78.0894  218.9201 H   0  0  0  0  0  0  0  0  0  0  0  0
  139.6618   76.4149  218.7994 H   0  0  0  0  0  0  0  0  0  0  0  0
  138.8420   77.4994  220.7381 H   0  0  0  0  0  0  0  0  0  0  0  0
  140.5818   77.0203  223.4056 H   0  0  0  0  0  0  0  0  0  0  0  0
  142.5512   80.7913  223.6028 H   0  0  0  0  0  0  0  0  0  0  0  0
  140.8246   79.4593  219.9249 H   0  0  0  0  0  0  0  0  0  0  0  0
  141.4193   72.8714  225.2106 H   0  0  0  0  0  0  0  0  0  0  0  0
  141.6760   71.5844  227.3179 H   0  0  0  0  0  0  0  0  0  0  0  0
  141.2456   69.6372  228.5395 H   0  0  0  0  0  0  0  0  0  0  0  0
  140.2032   67.3504  228.6796 H   0  0  0  0  0  0  0  0  0  0  0  0
  138.9686   66.4660  226.7472 H   0  0  0  0  0  0  0  0  0  0  0  0
  138.7115   67.7450  224.6483 H   0  0  0  0  0  0  0  0  0  0  0  0
  1  2  2  0
  2  3  1  0
  3  4  1  0
  4  5  1  0
  5  6  2  0
  5  7  1  0
  7  8  1  0
  8  9  1  0
  9 10  1  0
 10 11  1  0
 11 12  1  0
 12 13  1  0
 13 14  2  0
 14 15  1  0
 15 16  1  0
 15 17  2  0
 17 18  1  0
 18 19  1  0
 18 20  2  0
  2 21  1  0
 21 22  2  0
 22 23  1  0
 23 24  2  0
 24 25  1  0
 25 26  2  0
 26 27  1  0
 27 28  2  0
 28 29  1  0
 29 30  2  0
 12  7  1  0
 20 13  1  0
 30 21  1  0
 29 24  1  0
  3 31  1  0
  4 32  1  0
  4 33  1  0
  8 34  1  0
  8 35  1  0
  9 36  1  0
  9 37  1  0
 10 38  1  0
 10 39  1  0
 11 40  1  0
 11 41  1  0
 12 42  1  6
 14 43  1  0
 17 44  1  0
 20 45  1  0
 22 46  1  0
 23 47  1  0
 25 48  1  0
 26 49  1  0
 27 50  1  0
 28 51  1  0
M  END
>  <smiles>  (50) 
O=C(NCC(=O)N1CCCCC1c1cc(F)cc(F)c1)c1ccc2ccccc2n1

>  <score_type>  (50) 
oracle

>  <origin>  (50) 
autodockgpu

>  <m_score__min__energy>  (50) 
-9.0199999999999996

>  <m_primary>  (50) 
energy

>  <rmsd>  (50) 
3.050989587830966

>  <m_score__min__rmsd>  (50) 
3.050989587830966

>  <meeko>  (50) 
{"free_energy": -8.34, "intermolecular_energy": -9.84, "internal_energy": -1.42, "cluster_size": 26, "cluster_id": 2, "rank_in_cluster": 24}

>  <energy>  (50) 
-8.12

>  <cluster_rmsd>  (50) 
0.16

>  <cluster>  (50) 
4

$$$$

     RDKit          3D

 51 54  0  0  0  0  0  0  0  0999 V2000
  141.1850   71.9700  221.5970 O   0  0  0  0  0  0  0  0  0  0  0  0
  140.3250   72.2530  222.4540 C   0  0  0  0  0  0  0  0  0  0  0  0
  139.4450   73.3670  222.2230 N   0  0  0  0  0  0  0  0  0  0  0  0
  139.4680   74.2000  221.0830 C   0  0  0  0  0  0  0  0  0  0  0  0
  140.5760   75.0900  220.7850 C   0  0  0  0  0  0  0  0  0  0  0  0
  141.3310   75.3190  221.8450 O   0  0  0  0  0  0  0  0  0  0  0  0
  141.0080   75.7390  219.6380 N   0  0  0  0  0  0  0  0  0  0  0  0
  140.2230   76.5410  218.7050 C   0  0  0  0  0  0  0  0  0  0  0  0
  140.7330   77.9570  218.7560 C   0  0  0  0  0  0  0  0  0  0  0  0
  141.8590   78.0680  219.7350 C   0  0  0  0  0  0  0  0  0  0  0  0
  142.9730   77.0590  219.5200 C   0  0  0  0  0  0  0  0  0  0  0  0
  142.4440   75.7020  219.2240 C   0  0  1  0  0  0  0  0  0  0  0  0
  143.1800   74.5490  219.6770 C   0  0  0  0  0  0  0  0  0  0  0  0
  144.3230   74.5670  220.4660 C   0  0  0  0  0  0  0  0  0  0  0  0
  144.9980   73.4240  220.8320 C   0  0  0  0  0  0  0  0  0  0  0  0
  146.1130   73.5300  221.6100 F   0  0  0  0  0  0  0  0  0  0  0  0
  144.5640   72.1940  220.4260 C   0  0  0  0  0  0  0  0  0  0  0  0
  143.4320   72.1420  219.6410 C   0  0  0  0  0  0  0  0  0  0  0  0
  142.9790   70.9300  219.2230 F   0  0  0  0  0  0  0  0  0  0  0  0
  142.7580   73.2850  219.2760 C   0  0  0  0  0  0  0  0  0  0  0  0
  140.2210   71.4530  223.6800 C   0  0  0  0  0  0  0  0  0  0  0  0
  139.6390   70.2040  223.6250 C   0  0  0  0  0  0  0  0  0  0  0  0
  139.4970   69.3830  224.7240 C   0  0  0  0  0  0  0  0  0  0  0  0
  139.9760   69.8730  225.9260 C   0  0  0  0  0  0  0  0  0  0  0  0
  139.8320   69.0430  227.0240 C   0  0  0  0  0  0  0  0  0  0  0  0
  140.3020   69.5120  228.2330 C   0  0  0  0  0  0  0  0  0  0  0  0
  140.8940   70.7610  228.3310 C   0  0  0  0  0  0  0  0  0  0  0  0
  141.0240   71.5660  227.2170 C   0  0  0  0  0  0  0  0  0  0  0  0
  140.5590   71.1180  225.9920 C   0  0  0  0  0  0  0  0  0  0  0  0
  140.6720   71.8880  224.8710 N   0  0  0  0  0  0  0  0  0  0  0  0
  138.7450   73.5160  223.0180 H   0  0  0  0  0  0  0  0  0  0  0  0
  139.3725   73.5312  220.2149 H   0  0  0  0  0  0  0  0  0  0  0  0
  138.6628   74.9138  221.3112 H   0  0  0  0  0  0  0  0  0  0  0  0
  140.3342   76.1418  217.6860 H   0  0  0  0  0  0  0  0  0  0  0  0
  139.1585   76.5107  218.9807 H   0  0  0  0  0  0  0  0  0  0  0  0
  141.0898   78.2505  217.7577 H   0  0  0  0  0  0  0  0  0  0  0  0
  139.9155   78.6207  219.0739 H   0  0  0  0  0  0  0  0  0  0  0  0
  142.2879   79.0777  219.6543 H   0  0  0  0  0  0  0  0  0  0  0  0
  141.4347   77.8631  220.7290 H   0  0  0  0  0  0  0  0  0  0  0  0
  143.5943   77.3903  218.6749 H   0  0  0  0  0  0  0  0  0  0  0  0
  143.5621   76.9998  220.4471 H   0  0  0  0  0  0  0  0  0  0  0  0
  142.5718   75.5146  218.1476 H   0  0  0  0  0  0  0  0  0  0  0  0
  144.7060   75.5377  220.8140 H   0  0  0  0  0  0  0  0  0  0  0  0
  145.0989   71.2774  220.7152 H   0  0  0  0  0  0  0  0  0  0  0  0
  141.8588   73.1968  218.6485 H   0  0  0  0  0  0  0  0  0  0  0  0
  139.2687   69.8437  222.6539 H   0  0  0  0  0  0  0  0  0  0  0  0
  139.0277   68.3910  224.6489 H   0  0  0  0  0  0  0  0  0  0  0  0
  139.3629   68.0519  226.9363 H   0  0  0  0  0  0  0  0  0  0  0  0
  140.2055   68.8857  229.1321 H   0  0  0  0  0  0  0  0  0  0  0  0
  141.2636   71.1142  229.3050 H   0  0  0  0  0  0  0  0  0  0  0  0
  141.4939   72.5569  227.3019 H   0  0  0  0  0  0  0  0  0  0  0  0
  1  2  2  0
  2  3  1  0
  3  4  1  0
  4  5  1  0
  5  6  2  0
  5  7  1  0
  7  8  1  0
  8  9  1  0
  9 10  1  0
 10 11  1  0
 11 12  1  0
 12 13  1  0
 13 14  2  0
 14 15  1  0
 15 16  1  0
 15 17  2  0
 17 18  1  0
 18 19  1  0
 18 20  2  0
  2 21  1  0
 21 22  2  0
 22 23  1  0
 23 24  2  0
 24 25  1  0
 25 26  2  0
 26 27  1  0
 27 28  2  0
 28 29  1  0
 29 30  2  0
 12  7  1  0
 20 13  1  0
 30 21  1  0
 29 24  1  0
  3 31  1  0
  4 32  1  0
  4 33  1  0
  8 34  1  0
  8 35  1  0
  9 36  1  0
  9 37  1  0
 10 38  1  0
 10 39  1  0
 11 40  1  0
 11 41  1  0
 12 42  1  6
 14 43  1  0
 17 44  1  0
 20 45  1  0
 22 46  1  0
 23 47  1  0
 25 48  1  0
 26 49  1  0
 27 50  1  0
 28 51  1  0
M  END
>  <smiles>  (51) 
O=C(NCC(=O)N1CCCCC1c1cc(F)cc(F)c1)c1ccc2ccccc2n1

>  <score_type>  (51) 
oracle

>  <origin>  (51) 
autodockgpu

>  <m_score__min__energy>  (51) 
-8.7899999999999991

>  <m_primary>  (51) 
energy

>  <rmsd>  (51) 
1.88014436001051

>  <m_score__min__rmsd>  (51) 
1.88014436001051

>  <meeko>  (51) 
{"free_energy": -8.34, "intermolecular_energy": -9.83, "internal_energy": -1.67, "cluster_size": 27, "cluster_id": 2, "rank_in_cluster": 10}

>  <energy>  (51) 
-8.79

>  <cluster_rmsd>  (51) 
0.0

>  <cluster>  (51) 
1

$$$$

     RDKit          3D

 51 54  0  0  0  0  0  0  0  0999 V2000
  140.9660   76.6240  218.2530 O   0  0  0  0  0  0  0  0  0  0  0  0
  142.0120   76.6560  218.9300 C   0  0  0  0  0  0  0  0  0  0  0  0
  142.3700   77.8710  219.6120 N   0  0  0  0  0  0  0  0  0  0  0  0
  141.6260   79.0720  219.5800 C   0  0  0  0  0  0  0  0  0  0  0  0
  141.4540   79.9190  220.7460 C   0  0  0  0  0  0  0  0  0  0  0  0
  140.8340   81.0490  220.4550 O   0  0  0  0  0  0  0  0  0  0  0  0
  141.7940   79.7940  222.0850 N   0  0  0  0  0  0  0  0  0  0  0  0
  142.8530   80.4840  222.8150 C   0  0  0  0  0  0  0  0  0  0  0  0
  142.2130   81.3520  223.8660 C   0  0  0  0  0  0  0  0  0  0  0  0
  140.7240   81.2210  223.8100 C   0  0  0  0  0  0  0  0  0  0  0  0
  140.2220   79.7880  223.8590 C   0  0  0  0  0  0  0  0  0  0  0  0
  141.0300   78.8880  222.9950 C   0  0  1  0  0  0  0  0  0  0  0  0
  140.3840   77.7750  222.3460 C   0  0  0  0  0  0  0  0  0  0  0  0
  139.1020   77.7730  221.8100 C   0  0  0  0  0  0  0  0  0  0  0  0
  138.5330   76.6590  221.2350 C   0  0  0  0  0  0  0  0  0  0  0  0
  137.2690   76.7420  220.7320 F   0  0  0  0  0  0  0  0  0  0  0  0
  139.2180   75.4800  221.1650 C   0  0  0  0  0  0  0  0  0  0  0  0
  140.4940   75.4480  221.6890 C   0  0  0  0  0  0  0  0  0  0  0  0
  141.1970   74.2860  221.6330 F   0  0  0  0  0  0  0  0  0  0  0  0
  141.0620   76.5630  222.2630 C   0  0  0  0  0  0  0  0  0  0  0  0
  142.8610   75.4630  219.0250 C   0  0  0  0  0  0  0  0  0  0  0  0
  142.6870   74.4360  218.1220 C   0  0  0  0  0  0  0  0  0  0  0  0
  143.4380   73.2780  218.1340 C   0  0  0  0  0  0  0  0  0  0  0  0
  144.4040   73.1810  219.1180 C   0  0  0  0  0  0  0  0  0  0  0  0
  145.1540   72.0170  219.1240 C   0  0  0  0  0  0  0  0  0  0  0  0
  146.1240   71.8980  220.0980 C   0  0  0  0  0  0  0  0  0  0  0  0
  146.3300   72.9070  221.0240 C   0  0  0  0  0  0  0  0  0  0  0  0
  145.5660   74.0560  220.9920 C   0  0  0  0  0  0  0  0  0  0  0  0
  144.5870   74.2000  220.0250 C   0  0  0  0  0  0  0  0  0  0  0  0
  143.8140   75.3230  219.9660 N   0  0  0  0  0  0  0  0  0  0  0  0
  143.2800   77.7850  220.1660 H   0  0  0  0  0  0  0  0  0  0  0  0
  142.0986   79.7026  218.8126 H   0  0  0  0  0  0  0  0  0  0  0  0
  140.6037   78.6973  219.4234 H   0  0  0  0  0  0  0  0  0  0  0  0
  143.5158   79.7479  223.2933 H   0  0  0  0  0  0  0  0  0  0  0  0
  143.4497   81.0998  222.1260 H   0  0  0  0  0  0  0  0  0  0  0  0
  142.5677   81.0404  224.8595 H   0  0  0  0  0  0  0  0  0  0  0  0
  142.4875   82.4009  223.6802 H   0  0  0  0  0  0  0  0  0  0  0  0
  140.2975   81.7652  224.6655 H   0  0  0  0  0  0  0  0  0  0  0  0
  140.4069   81.6337  222.8409 H   0  0  0  0  0  0  0  0  0  0  0  0
  140.2760   79.4275  224.8968 H   0  0  0  0  0  0  0  0  0  0  0  0
  139.1862   79.7767  223.4888 H   0  0  0  0  0  0  0  0  0  0  0  0
  141.6842   78.2894  223.6459 H   0  0  0  0  0  0  0  0  0  0  0  0
  138.5156   78.7030  221.8467 H   0  0  0  0  0  0  0  0  0  0  0  0
  138.7683   74.5868  220.7068 H   0  0  0  0  0  0  0  0  0  0  0  0
  142.0823   76.4935  222.6681 H   0  0  0  0  0  0  0  0  0  0  0  0
  141.9092   74.5451  217.3518 H   0  0  0  0  0  0  0  0  0  0  0  0
  143.2764   72.4751  217.3997 H   0  0  0  0  0  0  0  0  0  0  0  0
  144.9838   71.2212  218.3839 H   0  0  0  0  0  0  0  0  0  0  0  0
  146.7422   70.9891  220.1396 H   0  0  0  0  0  0  0  0  0  0  0  0
  147.1093   72.7917  221.7917 H   0  0  0  0  0  0  0  0  0  0  0  0
  145.7345   74.8529  221.7313 H   0  0  0  0  0  0  0  0  0  0  0  0
  1  2  2  0
  2  3  1  0
  3  4  1  0
  4  5  1  0
  5  6  2  0
  5  7  1  0
  7  8  1  0
  8  9  1  0
  9 10  1  0
 10 11  1  0
 11 12  1  0
 12 13  1  0
 13 14  2  0
 14 15  1  0
 15 16  1  0
 15 17  2  0
 17 18  1  0
 18 19  1  0
 18 20  2  0
  2 21  1  0
 21 22  2  0
 22 23  1  0
 23 24  2  0
 24 25  1  0
 25 26  2  0
 26 27  1  0
 27 28  2  0
 28 29  1  0
 29 30  2  0
 12  7  1  0
 20 13  1  0
 30 21  1  0
 29 24  1  0
  3 31  1  0
  4 32  1  0
  4 33  1  0
  8 34  1  0
  8 35  1  0
  9 36  1  0
  9 37  1  0
 10 38  1  0
 10 39  1  0
 11 40  1  0
 11 41  1  0
 12 42  1  1
 14 43  1  0
 17 44  1  0
 20 45  1  0
 22 46  1  0
 23 47  1  0
 25 48  1  0
 26 49  1  0
 27 50  1  0
 28 51  1  0
M  END
>  <smiles>  (52) 
O=C(NCC(=O)N1CCCCC1c1cc(F)cc(F)c1)c1ccc2ccccc2n1

>  <score_type>  (52) 
oracle

>  <origin>  (52) 
autodockgpu

>  <m_score__min__energy>  (52) 
-8.7899999999999991

>  <m_primary>  (52) 
energy

>  <rmsd>  (52) 
7.693035848342918

>  <m_score__min__rmsd>  (52) 
7.693035848342918

>  <meeko>  (52) 
{"free_energy": -7.04, "intermolecular_energy": -8.54, "internal_energy": -2.41, "cluster_size": 7, "cluster_id": 6, "rank_in_cluster": 4}

>  <energy>  (52) 
-8.78

>  <cluster_rmsd>  (52) 
0.05

>  <cluster>  (52) 
1

$$$$

     RDKit          3D

 51 54  0  0  0  0  0  0  0  0999 V2000
  141.4930   72.5640  221.7270 O   0  0  0  0  0  0  0  0  0  0  0  0
  140.5120   72.6790  222.4890 C   0  0  0  0  0  0  0  0  0  0  0  0
  139.6420   73.8160  222.3450 N   0  0  0  0  0  0  0  0  0  0  0  0
  139.8030   74.8500  221.3960 C   0  0  0  0  0  0  0  0  0  0  0  0
  140.8600   75.8400  221.4880 C   0  0  0  0  0  0  0  0  0  0  0  0
  140.9160   76.4010  222.6840 O   0  0  0  0  0  0  0  0  0  0  0  0
  141.8160   76.3140  220.6020 N   0  0  0  0  0  0  0  0  0  0  0  0
  142.7850   75.5480  219.8250 C   0  0  0  0  0  0  0  0  0  0  0  0
  142.4690   75.7330  218.3630 C   0  0  0  0  0  0  0  0  0  0  0  0
  141.2820   76.6280  218.1990 C   0  0  0  0  0  0  0  0  0  0  0  0
  141.3900   77.9500  218.9390 C   0  0  0  0  0  0  0  0  0  0  0  0
  141.9410   77.7750  220.3090 C   0  0  1  0  0  0  0  0  0  0  0  0
  141.4900   78.6490  221.3620 C   0  0  0  0  0  0  0  0  0  0  0  0
  142.2900   79.2490  222.3260 C   0  0  0  0  0  0  0  0  0  0  0  0
  141.7840   80.0460  223.3280 C   0  0  0  0  0  0  0  0  0  0  0  0
  142.6400   80.5980  224.2360 F   0  0  0  0  0  0  0  0  0  0  0  0
  140.4440   80.2880  223.4210 C   0  0  0  0  0  0  0  0  0  0  0  0
  139.6210   79.7060  222.4790 C   0  0  0  0  0  0  0  0  0  0  0  0
  138.2820   79.9300  222.5500 F   0  0  0  0  0  0  0  0  0  0  0  0
  140.1280   78.9100  221.4770 C   0  0  0  0  0  0  0  0  0  0  0  0
  140.2580   71.6620  223.5150 C   0  0  0  0  0  0  0  0  0  0  0  0
  139.5530   70.5250  223.1800 C   0  0  0  0  0  0  0  0  0  0  0  0
  139.2670   69.5170  224.0780 C   0  0  0  0  0  0  0  0  0  0  0  0
  139.7270   69.6930  225.3700 C   0  0  0  0  0  0  0  0  0  0  0  0
  139.4370   68.6780  226.2640 C   0  0  0  0  0  0  0  0  0  0  0  0
  139.8860   68.8320  227.5590 C   0  0  0  0  0  0  0  0  0  0  0  0
  140.5980   69.9600  227.9360 C   0  0  0  0  0  0  0  0  0  0  0  0
  140.8720   70.9550  227.0210 C   0  0  0  0  0  0  0  0  0  0  0  0
  140.4320   70.8240  225.7150 C   0  0  0  0  0  0  0  0  0  0  0  0
  140.6850   71.7900  224.7850 N   0  0  0  0  0  0  0  0  0  0  0  0
  138.8330   73.8110  223.0440 H   0  0  0  0  0  0  0  0  0  0  0  0
  139.9347   74.3531  220.4235 H   0  0  0  0  0  0  0  0  0  0  0  0
  138.9071   75.4618  221.5777 H   0  0  0  0  0  0  0  0  0  0  0  0
  143.8016   75.9118  220.0350 H   0  0  0  0  0  0  0  0  0  0  0  0
  142.7300   74.4827  220.0935 H   0  0  0  0  0  0  0  0  0  0  0  0
  143.3362   76.1838  217.8583 H   0  0  0  0  0  0  0  0  0  0  0  0
  142.2427   74.7526  217.9184 H   0  0  0  0  0  0  0  0  0  0  0  0
  141.1573   76.8421  217.1273 H   0  0  0  0  0  0  0  0  0  0  0  0
  140.4225   76.0942  218.6308 H   0  0  0  0  0  0  0  0  0  0  0  0
  142.0519   78.6216  218.3726 H   0  0  0  0  0  0  0  0  0  0  0  0
  140.3789   78.3736  219.0297 H   0  0  0  0  0  0  0  0  0  0  0  0
  142.9857   78.1192  220.3016 H   0  0  0  0  0  0  0  0  0  0  0  0
  143.3762   79.0798  222.2871 H   0  0  0  0  0  0  0  0  0  0  0  0
  140.0346   80.9248  224.2191 H   0  0  0  0  0  0  0  0  0  0  0  0
  139.4361   78.4671  220.7455 H   0  0  0  0  0  0  0  0  0  0  0  0
  139.2005   70.4160  222.1437 H   0  0  0  0  0  0  0  0  0  0  0  0
  138.7027   68.6205  223.7815 H   0  0  0  0  0  0  0  0  0  0  0  0
  138.8723   67.7860  225.9552 H   0  0  0  0  0  0  0  0  0  0  0  0
  139.6762   68.0491  228.3027 H   0  0  0  0  0  0  0  0  0  0  0  0
  140.9475   70.0625  228.9739 H   0  0  0  0  0  0  0  0  0  0  0  0
  141.4370   71.8477  227.3273 H   0  0  0  0  0  0  0  0  0  0  0  0
  1  2  2  0
  2  3  1  0
  3  4  1  0
  4  5  1  0
  5  6  2  0
  5  7  1  0
  7  8  1  0
  8  9  1  0
  9 10  1  0
 10 11  1  0
 11 12  1  0
 12 13  1  0
 13 14  2  0
 14 15  1  0
 15 16  1  0
 15 17  2  0
 17 18  1  0
 18 19  1  0
 18 20  2  0
  2 21  1  0
 21 22  2  0
 22 23  1  0
 23 24  2  0
 24 25  1  0
 25 26  2  0
 26 27  1  0
 27 28  2  0
 28 29  1  0
 29 30  2  0
 12  7  1  0
 20 13  1  0
 30 21  1  0
 29 24  1  0
  3 31  1  0
  4 32  1  0
  4 33  1  0
  8 34  1  0
  8 35  1  0
  9 36  1  0
  9 37  1  0
 10 38  1  0
 10 39  1  0
 11 40  1  0
 11 41  1  0
 12 42  1  6
 14 43  1  0
 17 44  1  0
 20 45  1  0
 22 46  1  0
 23 47  1  0
 25 48  1  0
 26 49  1  0
 27 50  1  0
 28 51  1  0
M  END
>  <smiles>  (53) 
O=C(NCC(=O)N1CCCCC1c1cc(F)cc(F)c1)c1ccc2ccccc2n1

>  <score_type>  (53) 
oracle

>  <origin>  (53) 
autodockgpu

>  <m_score__min__energy>  (53) 
-8.7899999999999991

>  <m_primary>  (53) 
energy

>  <rmsd>  (53) 
2.086867518925689

>  <m_score__min__rmsd>  (53) 
2.086867518925689

>  <meeko>  (53) 
{"free_energy": -8.56, "intermolecular_energy": -10.06, "internal_energy": -1.16, "cluster_size": 9, "cluster_id": 1, "rank_in_cluster": 9}

>  <energy>  (53) 
-8.75

>  <cluster_rmsd>  (53) 
0.06

>  <cluster>  (53) 
1

$$$$

     RDKit          3D

 51 54  0  0  0  0  0  0  0  0999 V2000
  141.4560   72.4250  221.6480 O   0  0  0  0  0  0  0  0  0  0  0  0
  140.5310   72.6410  222.4560 C   0  0  0  0  0  0  0  0  0  0  0  0
  139.7470   73.8390  222.3200 N   0  0  0  0  0  0  0  0  0  0  0  0
  139.9360   74.8280  221.3290 C   0  0  0  0  0  0  0  0  0  0  0  0
  140.9820   75.8310  221.4120 C   0  0  0  0  0  0  0  0  0  0  0  0
  141.1980   76.2260  222.6540 O   0  0  0  0  0  0  0  0  0  0  0  0
  141.7980   76.4510  220.4760 N   0  0  0  0  0  0  0  0  0  0  0  0
  142.7230   75.8300  219.5330 C   0  0  0  0  0  0  0  0  0  0  0  0
  142.2330   76.1140  218.1370 C   0  0  0  0  0  0  0  0  0  0  0  0
  140.9780   76.9260  218.1830 C   0  0  0  0  0  0  0  0  0  0  0  0
  141.0790   78.1840  219.0280 C   0  0  0  0  0  0  0  0  0  0  0  0
  141.7920   77.9360  220.3100 C   0  0  1  0  0  0  0  0  0  0  0  0
  141.4040   78.6800  221.4810 C   0  0  0  0  0  0  0  0  0  0  0  0
  142.2650   79.3100  222.3720 C   0  0  0  0  0  0  0  0  0  0  0  0
  141.8240   79.9740  223.4940 C   0  0  0  0  0  0  0  0  0  0  0  0
  142.7360   80.5680  224.3160 F   0  0  0  0  0  0  0  0  0  0  0  0
  140.4930   80.0450  223.7900 C   0  0  0  0  0  0  0  0  0  0  0  0
  139.6120   79.4280  222.9260 C   0  0  0  0  0  0  0  0  0  0  0  0
  138.2820   79.4820  223.1980 F   0  0  0  0  0  0  0  0  0  0  0  0
  140.0540   78.7650  221.8030 C   0  0  0  0  0  0  0  0  0  0  0  0
  140.2540   71.6790  223.5280 C   0  0  0  0  0  0  0  0  0  0  0  0
  139.5220   70.5450  223.2470 C   0  0  0  0  0  0  0  0  0  0  0  0
  139.2140   69.5870  224.1900 C   0  0  0  0  0  0  0  0  0  0  0  0
  139.6810   69.8110  225.4730 C   0  0  0  0  0  0  0  0  0  0  0  0
  139.3680   68.8450  226.4130 C   0  0  0  0  0  0  0  0  0  0  0  0
  139.8230   69.0490  227.7000 C   0  0  0  0  0  0  0  0  0  0  0  0
  140.5620   70.1760  228.0240 C   0  0  0  0  0  0  0  0  0  0  0  0
  140.8580   71.1210  227.0620 C   0  0  0  0  0  0  0  0  0  0  0  0
  140.4120   70.9400  225.7650 C   0  0  0  0  0  0  0  0  0  0  0  0
  140.6870   71.8550  224.7900 N   0  0  0  0  0  0  0  0  0  0  0  0
  138.9800   73.9210  223.0600 H   0  0  0  0  0  0  0  0  0  0  0  0
  140.1074   74.2864  220.3870 H   0  0  0  0  0  0  0  0  0  0  0  0
  139.0297   75.4399  221.4482 H   0  0  0  0  0  0  0  0  0  0  0  0
  143.7302   76.2514  219.6671 H   0  0  0  0  0  0  0  0  0  0  0  0
  142.7702   74.7447  219.7058 H   0  0  0  0  0  0  0  0  0  0  0  0
  143.0059   76.6713  217.5874 H   0  0  0  0  0  0  0  0  0  0  0  0
  142.0240   75.1604  217.6300 H   0  0  0  0  0  0  0  0  0  0  0  0
  140.7205   77.2211  217.1551 H   0  0  0  0  0  0  0  0  0  0  0  0
  140.2097   76.2928  218.6507 H   0  0  0  0  0  0  0  0  0  0  0  0
  141.6256   78.9510  218.4598 H   0  0  0  0  0  0  0  0  0  0  0  0
  140.0581   78.5181  219.2650 H   0  0  0  0  0  0  0  0  0  0  0  0
  142.8042   78.3583  220.2254 H   0  0  0  0  0  0  0  0  0  0  0  0
  143.3461   79.2764  222.1716 H   0  0  0  0  0  0  0  0  0  0  0  0
  140.1359   80.5751  224.6852 H   0  0  0  0  0  0  0  0  0  0  0  0
  139.3167   78.2881  221.1405 H   0  0  0  0  0  0  0  0  0  0  0  0
  139.1651   70.3966  222.2171 H   0  0  0  0  0  0  0  0  0  0  0  0
  138.6278   68.6917  223.9355 H   0  0  0  0  0  0  0  0  0  0  0  0
  138.7820   67.9532  226.1461 H   0  0  0  0  0  0  0  0  0  0  0  0
  139.5960   68.3068  228.4795 H   0  0  0  0  0  0  0  0  0  0  0  0
  140.9155   70.3186  229.0559 H   0  0  0  0  0  0  0  0  0  0  0  0
  141.4453   72.0130  227.3254 H   0  0  0  0  0  0  0  0  0  0  0  0
  1  2  2  0
  2  3  1  0
  3  4  1  0
  4  5  1  0
  5  6  2  0
  5  7  1  0
  7  8  1  0
  8  9  1  0
  9 10  1  0
 10 11  1  0
 11 12  1  0
 12 13  1  0
 13 14  2  0
 14 15  1  0
 15 16  1  0
 15 17  2  0
 17 18  1  0
 18 19  1  0
 18 20  2  0
  2 21  1  0
 21 22  2  0
 22 23  1  0
 23 24  2  0
 24 25  1  0
 25 26  2  0
 26 27  1  0
 27 28  2  0
 28 29  1  0
 29 30  2  0
 12  7  1  0
 20 13  1  0
 30 21  1  0
 29 24  1  0
  3 31  1  0
  4 32  1  0
  4 33  1  0
  8 34  1  0
  8 35  1  0
  9 36  1  0
  9 37  1  0
 10 38  1  0
 10 39  1  0
 11 40  1  0
 11 41  1  0
 12 42  1  6
 14 43  1  0
 17 44  1  0
 20 45  1  0
 22 46  1  0
 23 47  1  0
 25 48  1  0
 26 49  1  0
 27 50  1  0
 28 51  1  0
M  END
>  <smiles>  (54) 
O=C(NCC(=O)N1CCCCC1c1cc(F)cc(F)c1)c1ccc2ccccc2n1

>  <score_type>  (54) 
oracle

>  <origin>  (54) 
autodockgpu

>  <m_score__min__energy>  (54) 
-8.7899999999999991

>  <m_primary>  (54) 
energy

>  <rmsd>  (54) 
2.0747148826788053

>  <m_score__min__rmsd>  (54) 
2.0747148826788053

>  <meeko>  (54) 
{"free_energy": -8.59, "intermolecular_energy": -10.08, "internal_energy": -1.17, "cluster_size": 9, "cluster_id": 1, "rank_in_cluster": 7}

>  <energy>  (54) 
-8.74

>  <cluster_rmsd>  (54) 
0.1

>  <cluster>  (54) 
1

$$$$

     RDKit          3D

 51 54  0  0  0  0  0  0  0  0999 V2000
  139.0650   75.0970  221.6720 O   0  0  0  0  0  0  0  0  0  0  0  0
  140.1790   75.6170  221.8840 C   0  0  0  0  0  0  0  0  0  0  0  0
  141.3690   74.8400  221.6650 N   0  0  0  0  0  0  0  0  0  0  0  0
  141.3950   73.4980  221.2240 C   0  0  0  0  0  0  0  0  0  0  0  0
  142.5650   72.8990  220.6070 C   0  0  0  0  0  0  0  0  0  0  0  0
  142.3450   71.6530  220.2240 O   0  0  0  0  0  0  0  0  0  0  0  0
  143.8470   73.3520  220.3320 N   0  0  0  0  0  0  0  0  0  0  0  0
  145.1080   72.8960  220.9090 C   0  0  0  0  0  0  0  0  0  0  0  0
  145.9330   72.2800  219.8090 C   0  0  0  0  0  0  0  0  0  0  0  0
  145.1940   72.3390  218.5100 C   0  0  0  0  0  0  0  0  0  0  0  0
  144.6840   73.7220  218.1460 C   0  0  0  0  0  0  0  0  0  0  0  0
  144.0880   74.4200  219.3150 C   0  0  1  0  0  0  0  0  0  0  0  0
  142.9830   75.3210  219.1040 C   0  0  0  0  0  0  0  0  0  0  0  0
  141.8340   75.0490  218.3720 C   0  0  0  0  0  0  0  0  0  0  0  0
  140.8330   75.9740  218.1810 C   0  0  0  0  0  0  0  0  0  0  0  0
  139.7360   75.6260  217.4490 F   0  0  0  0  0  0  0  0  0  0  0  0
  140.9260   77.2280  218.7130 C   0  0  0  0  0  0  0  0  0  0  0  0
  142.0550   77.5310  219.4450 C   0  0  0  0  0  0  0  0  0  0  0  0
  142.1730   78.7730  219.9840 F   0  0  0  0  0  0  0  0  0  0  0  0
  143.0560   76.6050  219.6360 C   0  0  0  0  0  0  0  0  0  0  0  0
  140.2630   77.0050  222.3510 C   0  0  0  0  0  0  0  0  0  0  0  0
  139.1020   77.6960  222.6320 C   0  0  0  0  0  0  0  0  0  0  0  0
  139.0840   79.0020  223.0760 C   0  0  0  0  0  0  0  0  0  0  0  0
  140.3130   79.6160  223.2340 C   0  0  0  0  0  0  0  0  0  0  0  0
  140.2870   80.9260  223.6800 C   0  0  0  0  0  0  0  0  0  0  0  0
  141.5020   81.5590  223.8450 C   0  0  0  0  0  0  0  0  0  0  0  0
  142.6900   80.9010  223.5740 C   0  0  0  0  0  0  0  0  0  0  0  0
  142.6830   79.5940  223.1310 C   0  0  0  0  0  0  0  0  0  0  0  0
  141.4770   78.9370  222.9570 C   0  0  0  0  0  0  0  0  0  0  0  0
  141.4350   77.6450  222.5200 N   0  0  0  0  0  0  0  0  0  0  0  0
  142.2650   75.3840  221.8730 H   0  0  0  0  0  0  0  0  0  0  0  0
  141.1672   72.8826  222.1068 H   0  0  0  0  0  0  0  0  0  0  0  0
  140.6871   73.5250  220.3825 H   0  0  0  0  0  0  0  0  0  0  0  0
  145.6476   73.7491  221.3461 H   0  0  0  0  0  0  0  0  0  0  0  0
  144.9183   72.1569  221.7013 H   0  0  0  0  0  0  0  0  0  0  0  0
  146.8797   72.8318  219.7132 H   0  0  0  0  0  0  0  0  0  0  0  0
  146.1335   71.2277  220.0589 H   0  0  0  0  0  0  0  0  0  0  0  0
  145.8713   72.0001  217.7122 H   0  0  0  0  0  0  0  0  0  0  0  0
  144.3092   71.6949  218.6203 H   0  0  0  0  0  0  0  0  0  0  0  0
  145.5238   74.3214  217.7645 H   0  0  0  0  0  0  0  0  0  0  0  0
  143.9000   73.6057  217.3832 H   0  0  0  0  0  0  0  0  0  0  0  0
  144.8047   75.1806  219.6582 H   0  0  0  0  0  0  0  0  0  0  0  0
  141.7192   74.0503  217.9254 H   0  0  0  0  0  0  0  0  0  0  0  0
  140.1285   77.9706  218.5631 H   0  0  0  0  0  0  0  0  0  0  0  0
  143.9396   76.8885  220.2266 H   0  0  0  0  0  0  0  0  0  0  0  0
  138.1410   77.1786  222.4948 H   0  0  0  0  0  0  0  0  0  0  0  0
  138.1421   79.5271  223.2929 H   0  0  0  0  0  0  0  0  0  0  0  0
  139.3385   81.4404  223.8937 H   0  0  0  0  0  0  0  0  0  0  0  0
  141.5272   82.6009  224.1968 H   0  0  0  0  0  0  0  0  0  0  0  0
  143.6474   81.4246  223.7130 H   0  0  0  0  0  0  0  0  0  0  0  0
  143.6303   79.0773  222.9174 H   0  0  0  0  0  0  0  0  0  0  0  0
  1  2  2  0
  2  3  1  0
  3  4  1  0
  4  5  1  0
  5  6  2  0
  5  7  1  0
  7  8  1  0
  8  9  1  0
  9 10  1  0
 10 11  1  0
 11 12  1  0
 12 13  1  0
 13 14  2  0
 14 15  1  0
 15 16  1  0
 15 17  2  0
 17 18  1  0
 18 19  1  0
 18 20  2  0
  2 21  1  0
 21 22  2  0
 22 23  1  0
 23 24  2  0
 24 25  1  0
 25 26  2  0
 26 27  1  0
 27 28  2  0
 28 29  1  0
 29 30  2  0
 12  7  1  0
 20 13  1  0
 30 21  1  0
 29 24  1  0
  3 31  1  0
  4 32  1  0
  4 33  1  0
  8 34  1  0
  8 35  1  0
  9 36  1  0
  9 37  1  0
 10 38  1  0
 10 39  1  0
 11 40  1  0
 11 41  1  0
 12 42  1  1
 14 43  1  0
 17 44  1  0
 20 45  1  0
 22 46  1  0
 23 47  1  0
 25 48  1  0
 26 49  1  0
 27 50  1  0
 28 51  1  0
M  END
>  <smiles>  (55) 
O=C(NCC(=O)N1CCCCC1c1cc(F)cc(F)c1)c1ccc2ccccc2n1

>  <score_type>  (55) 
oracle

>  <origin>  (55) 
autodockgpu

>  <m_score__min__energy>  (55) 
-8.7899999999999991

>  <m_primary>  (55) 
energy

>  <rmsd>  (55) 
7.7429406120113935

>  <m_score__min__rmsd>  (55) 
7.7429406120113935

>  <meeko>  (55) 
{"free_energy": -6.96, "intermolecular_energy": -8.45, "internal_energy": -2.49, "cluster_size": 3, "cluster_id": 7, "rank_in_cluster": 2}

>  <energy>  (55) 
-8.61

>  <cluster_rmsd>  (55) 
0.17

>  <cluster>  (55) 
1

$$$$

     RDKit          3D

 51 54  0  0  0  0  0  0  0  0999 V2000
  141.4050   71.7390  222.1300 O   0  0  0  0  0  0  0  0  0  0  0  0
  140.5000   71.9450  222.9630 C   0  0  0  0  0  0  0  0  0  0  0  0
  139.4470   72.8690  222.6390 N   0  0  0  0  0  0  0  0  0  0  0  0
  139.3410   73.5930  221.4310 C   0  0  0  0  0  0  0  0  0  0  0  0
  140.3920   74.4700  220.9480 C   0  0  0  0  0  0  0  0  0  0  0  0
  141.2630   74.7730  221.8940 O   0  0  0  0  0  0  0  0  0  0  0  0
  140.6760   75.0480  219.7190 N   0  0  0  0  0  0  0  0  0  0  0  0
  139.7460   75.6500  218.7690 C   0  0  0  0  0  0  0  0  0  0  0  0
  140.0750   77.1160  218.6530 C   0  0  0  0  0  0  0  0  0  0  0  0
  141.2290   77.4600  219.5410 C   0  0  0  0  0  0  0  0  0  0  0  0
  142.4490   76.5770  219.3490 C   0  0  0  0  0  0  0  0  0  0  0  0
  142.0800   75.1420  219.2160 C   0  0  1  0  0  0  0  0  0  0  0  0
  142.9800   74.1390  219.7260 C   0  0  0  0  0  0  0  0  0  0  0  0
  142.7650   72.7660  219.7140 C   0  0  0  0  0  0  0  0  0  0  0  0
  143.6550   71.8650  220.2540 C   0  0  0  0  0  0  0  0  0  0  0  0
  143.3690   70.5330  220.2000 F   0  0  0  0  0  0  0  0  0  0  0  0
  144.8140   72.2890  220.8380 C   0  0  0  0  0  0  0  0  0  0  0  0
  145.0570   73.6470  220.8670 C   0  0  0  0  0  0  0  0  0  0  0  0
  146.2030   74.0960  221.4440 F   0  0  0  0  0  0  0  0  0  0  0  0
  144.1660   74.5470  220.3270 C   0  0  0  0  0  0  0  0  0  0  0  0
  140.5190   71.2490  224.2540 C   0  0  0  0  0  0  0  0  0  0  0  0
  141.0470   71.8850  225.3580 C   0  0  0  0  0  0  0  0  0  0  0  0
  141.1060   71.3090  226.6100 C   0  0  0  0  0  0  0  0  0  0  0  0
  140.6020   70.0270  226.7240 C   0  0  0  0  0  0  0  0  0  0  0  0
  140.6640   69.4560  227.9830 C   0  0  0  0  0  0  0  0  0  0  0  0
  140.1660   68.1770  228.1200 C   0  0  0  0  0  0  0  0  0  0  0  0
  139.6270   67.5030  227.0350 C   0  0  0  0  0  0  0  0  0  0  0  0
  139.5790   68.1000  225.7920 C   0  0  0  0  0  0  0  0  0  0  0  0
  140.0720   69.3820  225.6290 C   0  0  0  0  0  0  0  0  0  0  0  0
  140.0400   70.0010  224.4130 N   0  0  0  0  0  0  0  0  0  0  0  0
  138.7230   72.9660  223.4210 H   0  0  0  0  0  0  0  0  0  0  0  0
  139.1813   72.8449  220.6405 H   0  0  0  0  0  0  0  0  0  0  0  0
  138.5429   74.3113  221.6702 H   0  0  0  0  0  0  0  0  0  0  0  0
  139.8514   75.1658  217.7869 H   0  0  0  0  0  0  0  0  0  0  0  0
  138.7104   75.5192  219.1160 H   0  0  0  0  0  0  0  0  0  0  0  0
  140.3376   77.3478  217.6102 H   0  0  0  0  0  0  0  0  0  0  0  0
  139.1984   77.7053  218.9602 H   0  0  0  0  0  0  0  0  0  0  0  0
  141.5215   78.5008  219.3383 H   0  0  0  0  0  0  0  0  0  0  0  0
  140.8879   77.3059  220.5753 H   0  0  0  0  0  0  0  0  0  0  0  0
  142.9777   76.8941  218.4380 H   0  0  0  0  0  0  0  0  0  0  0  0
  143.0898   76.6833  220.2368 H   0  0  0  0  0  0  0  0  0  0  0  0
  142.1709   74.8626  218.1560 H   0  0  0  0  0  0  0  0  0  0  0  0
  141.8431   72.3822  219.2527 H   0  0  0  0  0  0  0  0  0  0  0  0
  145.5288   71.5733  221.2701 H   0  0  0  0  0  0  0  0  0  0  0  0
  144.3992   75.6210  220.3722 H   0  0  0  0  0  0  0  0  0  0  0  0
  141.4415   72.9043  225.2337 H   0  0  0  0  0  0  0  0  0  0  0  0
  141.5320   71.8421  227.4727 H   0  0  0  0  0  0  0  0  0  0  0  0
  141.0923   69.9991  228.8383 H   0  0  0  0  0  0  0  0  0  0  0  0
  140.1969   67.6852  229.1034 H   0  0  0  0  0  0  0  0  0  0  0  0
  139.2344   66.4839  227.1662 H   0  0  0  0  0  0  0  0  0  0  0  0
  139.1509   67.5592  224.9351 H   0  0  0  0  0  0  0  0  0  0  0  0
  1  2  2  0
  2  3  1  0
  3  4  1  0
  4  5  1  0
  5  6  2  0
  5  7  1  0
  7  8  1  0
  8  9  1  0
  9 10  1  0
 10 11  1  0
 11 12  1  0
 12 13  1  0
 13 14  2  0
 14 15  1  0
 15 16  1  0
 15 17  2  0
 17 18  1  0
 18 19  1  0
 18 20  2  0
  2 21  1  0
 21 22  2  0
 22 23  1  0
 23 24  2  0
 24 25  1  0
 25 26  2  0
 26 27  1  0
 27 28  2  0
 28 29  1  0
 29 30  2  0
 12  7  1  0
 20 13  1  0
 30 21  1  0
 29 24  1  0
  3 31  1  0
  4 32  1  0
  4 33  1  0
  8 34  1  0
  8 35  1  0
  9 36  1  0
  9 37  1  0
 10 38  1  0
 10 39  1  0
 11 40  1  0
 11 41  1  0
 12 42  1  6
 14 43  1  0
 17 44  1  0
 20 45  1  0
 22 46  1  0
 23 47  1  0
 25 48  1  0
 26 49  1  0
 27 50  1  0
 28 51  1  0
M  END
>  <smiles>  (56) 
O=C(NCC(=O)N1CCCCC1c1cc(F)cc(F)c1)c1ccc2ccccc2n1

>  <score_type>  (56) 
oracle

>  <origin>  (56) 
autodockgpu

>  <m_score__min__energy>  (56) 
-8.7899999999999991

>  <m_primary>  (56) 
energy

>  <rmsd>  (56) 
2.814930423046482

>  <m_score__min__rmsd>  (56) 
2.814930423046482

>  <meeko>  (56) 
{"free_energy": -8.09, "intermolecular_energy": -9.58, "internal_energy": -1.57, "cluster_size": 27, "cluster_id": 2, "rank_in_cluster": 17}

>  <energy>  (56) 
-8.6

>  <cluster_rmsd>  (56) 
0.28

>  <cluster>  (56) 
1

$$$$

     RDKit          3D

 51 54  0  0  0  0  0  0  0  0999 V2000
  140.2360   70.8770  221.2940 O   0  0  0  0  0  0  0  0  0  0  0  0
  140.0380   71.5540  222.3220 C   0  0  0  0  0  0  0  0  0  0  0  0
  139.7860   72.9650  222.1940 N   0  0  0  0  0  0  0  0  0  0  0  0
  139.7460   73.6770  220.9750 C   0  0  0  0  0  0  0  0  0  0  0  0
  140.2520   75.0310  220.8420 C   0  0  0  0  0  0  0  0  0  0  0  0
  140.2790   75.6710  221.9980 O   0  0  0  0  0  0  0  0  0  0  0  0
  140.7140   75.7870  219.7730 N   0  0  0  0  0  0  0  0  0  0  0  0
  139.9540   76.6790  218.9040 C   0  0  0  0  0  0  0  0  0  0  0  0
  140.4660   78.0810  219.1040 C   0  0  0  0  0  0  0  0  0  0  0  0
  141.5690   78.0910  220.1160 C   0  0  0  0  0  0  0  0  0  0  0  0
  142.6850   77.1020  219.8310 C   0  0  0  0  0  0  0  0  0  0  0  0
  142.1590   75.7830  219.3910 C   0  0  1  0  0  0  0  0  0  0  0  0
  142.8810   74.5870  219.7480 C   0  0  0  0  0  0  0  0  0  0  0  0
  144.0610   74.5320  220.4790 C   0  0  0  0  0  0  0  0  0  0  0  0
  144.7170   73.3530  220.7520 C   0  0  0  0  0  0  0  0  0  0  0  0
  145.8710   73.3870  221.4790 F   0  0  0  0  0  0  0  0  0  0  0  0
  144.2280   72.1590  220.3060 C   0  0  0  0  0  0  0  0  0  0  0  0
  143.0580   72.1790  219.5760 C   0  0  0  0  0  0  0  0  0  0  0  0
  142.5500   71.0050  219.1190 F   0  0  0  0  0  0  0  0  0  0  0  0
  142.4020   73.3590  219.3040 C   0  0  0  0  0  0  0  0  0  0  0  0
  140.0640   70.9120  223.6400 C   0  0  0  0  0  0  0  0  0  0  0  0
  139.5750   69.6300  223.7780 C   0  0  0  0  0  0  0  0  0  0  0  0
  139.5590   68.9480  224.9770 C   0  0  0  0  0  0  0  0  0  0  0  0
  140.0680   69.6170  226.0740 C   0  0  0  0  0  0  0  0  0  0  0  0
  140.0490   68.9260  227.2730 C   0  0  0  0  0  0  0  0  0  0  0  0
  140.5530   69.5750  228.3810 C   0  0  0  0  0  0  0  0  0  0  0  0
  141.0540   70.8630  228.2860 C   0  0  0  0  0  0  0  0  0  0  0  0
  141.0590   71.5260  227.0750 C   0  0  0  0  0  0  0  0  0  0  0  0
  140.5600   70.8960  225.9480 C   0  0  0  0  0  0  0  0  0  0  0  0
  140.5500   71.5230  224.7360 N   0  0  0  0  0  0  0  0  0  0  0  0
  139.6260   73.4460  223.1350 H   0  0  0  0  0  0  0  0  0  0  0  0
  140.3061   73.0696  220.2488 H   0  0  0  0  0  0  0  0  0  0  0  0
  138.6649   73.8277  220.8392 H   0  0  0  0  0  0  0  0  0  0  0  0
  140.0887   76.3798  217.8541 H   0  0  0  0  0  0  0  0  0  0  0  0
  138.8831   76.6272  219.1501 H   0  0  0  0  0  0  0  0  0  0  0  0
  140.8473   78.4681  218.1476 H   0  0  0  0  0  0  0  0  0  0  0  0
  139.6427   78.7148  219.4653 H   0  0  0  0  0  0  0  0  0  0  0  0
  142.0025   79.1016  220.1436 H   0  0  0  0  0  0  0  0  0  0  0  0
  141.1203   77.7930  221.0751 H   0  0  0  0  0  0  0  0  0  0  0  0
  143.3282   77.5107  219.0378 H   0  0  0  0  0  0  0  0  0  0  0  0
  143.2509   76.9496  220.7619 H   0  0  0  0  0  0  0  0  0  0  0  0
  142.3116   75.7008  218.3047 H   0  0  0  0  0  0  0  0  0  0  0  0
  144.4901   75.4720  220.8563 H   0  0  0  0  0  0  0  0  0  0  0  0
  144.7488   71.2143  220.5213 H   0  0  0  0  0  0  0  0  0  0  0  0
  141.4715   73.3294  218.7181 H   0  0  0  0  0  0  0  0  0  0  0  0
  139.1770   69.1249  222.8855 H   0  0  0  0  0  0  0  0  0  0  0  0
  139.1619   67.9252  225.0558 H   0  0  0  0  0  0  0  0  0  0  0  0
  139.6492   67.9034  227.3395 H   0  0  0  0  0  0  0  0  0  0  0  0
  140.5571   69.0623  229.3542 H   0  0  0  0  0  0  0  0  0  0  0  0
  141.4510   71.3615  229.1826 H   0  0  0  0  0  0  0  0  0  0  0  0
  141.4573   72.5491  227.0061 H   0  0  0  0  0  0  0  0  0  0  0  0
  1  2  2  0
  2  3  1  0
  3  4  1  0
  4  5  1  0
  5  6  2  0
  5  7  1  0
  7  8  1  0
  8  9  1  0
  9 10  1  0
 10 11  1  0
 11 12  1  0
 12 13  1  0
 13 14  2  0
 14 15  1  0
 15 16  1  0
 15 17  2  0
 17 18  1  0
 18 19  1  0
 18 20  2  0
  2 21  1  0
 21 22  2  0
 22 23  1  0
 23 24  2  0
 24 25  1  0
 25 26  2  0
 26 27  1  0
 27 28  2  0
 28 29  1  0
 29 30  2  0
 12  7  1  0
 20 13  1  0
 30 21  1  0
 29 24  1  0
  3 31  1  0
  4 32  1  0
  4 33  1  0
  8 34  1  0
  8 35  1  0
  9 36  1  0
  9 37  1  0
 10 38  1  0
 10 39  1  0
 11 40  1  0
 11 41  1  0
 12 42  1  6
 14 43  1  0
 17 44  1  0
 20 45  1  0
 22 46  1  0
 23 47  1  0
 25 48  1  0
 26 49  1  0
 27 50  1  0
 28 51  1  0
M  END
>  <smiles>  (57) 
O=C(NCC(=O)N1CCCCC1c1cc(F)cc(F)c1)c1ccc2ccccc2n1

>  <score_type>  (57) 
oracle

>  <origin>  (57) 
autodockgpu

>  <m_score__min__energy>  (57) 
-8.7899999999999991

>  <m_primary>  (57) 
energy

>  <rmsd>  (57) 
1.819214157598343

>  <m_score__min__rmsd>  (57) 
1.819214157598343

>  <meeko>  (57) 
{"free_energy": -7.94, "intermolecular_energy": -9.44, "internal_energy": -1.81, "cluster_size": 27, "cluster_id": 2, "rank_in_cluster": 21}

>  <energy>  (57) 
-8.59

>  <cluster_rmsd>  (57) 
0.18

>  <cluster>  (57) 
1

$$$$

     RDKit          3D

 51 54  0  0  0  0  0  0  0  0999 V2000
  139.5680   70.9260  221.4160 O   0  0  0  0  0  0  0  0  0  0  0  0
  139.7160   71.5630  222.4770 C   0  0  0  0  0  0  0  0  0  0  0  0
  139.7590   73.0010  222.4310 N   0  0  0  0  0  0  0  0  0  0  0  0
  139.6520   73.7810  221.2590 C   0  0  0  0  0  0  0  0  0  0  0  0
  140.5390   74.8950  220.9760 C   0  0  0  0  0  0  0  0  0  0  0  0
  141.0890   75.3870  222.0720 O   0  0  0  0  0  0  0  0  0  0  0  0
  140.9320   75.5420  219.8130 N   0  0  0  0  0  0  0  0  0  0  0  0
  140.0990   76.2570  218.8530 C   0  0  0  0  0  0  0  0  0  0  0  0
  140.5030   77.7080  218.8660 C   0  0  0  0  0  0  0  0  0  0  0  0
  141.6090   77.9290  219.8490 C   0  0  0  0  0  0  0  0  0  0  0  0
  142.7970   77.0000  219.6700 C   0  0  0  0  0  0  0  0  0  0  0  0
  142.3710   75.5990  219.4090 C   0  0  1  0  0  0  0  0  0  0  0  0
  143.1860   74.5170  219.9000 C   0  0  0  0  0  0  0  0  0  0  0  0
  144.4530   74.6350  220.4570 C   0  0  0  0  0  0  0  0  0  0  0  0
  145.1910   73.5500  220.8730 C   0  0  0  0  0  0  0  0  0  0  0  0
  146.4280   73.7530  221.4100 F   0  0  0  0  0  0  0  0  0  0  0  0
  144.7010   72.2810  220.7530 C   0  0  0  0  0  0  0  0  0  0  0  0
  143.4460   72.1290  220.2030 C   0  0  0  0  0  0  0  0  0  0  0  0
  142.9340   70.8770  220.0710 F   0  0  0  0  0  0  0  0  0  0  0  0
  142.7080   73.2150  219.7880 C   0  0  0  0  0  0  0  0  0  0  0  0
  139.8430   70.8480  223.7510 C   0  0  0  0  0  0  0  0  0  0  0  0
  139.4620   69.5240  223.8240 C   0  0  0  0  0  0  0  0  0  0  0  0
  139.5460   68.7720  224.9780 C   0  0  0  0  0  0  0  0  0  0  0  0
  140.0420   69.4140  226.0970 C   0  0  0  0  0  0  0  0  0  0  0  0
  140.1240   68.6530  227.2510 C   0  0  0  0  0  0  0  0  0  0  0  0
  140.6150   69.2740  228.3800 C   0  0  0  0  0  0  0  0  0  0  0  0
  141.0080   70.6020  228.3490 C   0  0  0  0  0  0  0  0  0  0  0  0
  140.9150   71.3350  227.1830 C   0  0  0  0  0  0  0  0  0  0  0  0
  140.4250   70.7350  226.0360 C   0  0  0  0  0  0  0  0  0  0  0  0
  140.3190   71.4300  224.8670 N   0  0  0  0  0  0  0  0  0  0  0  0
  139.8840   73.4440  223.3960 H   0  0  0  0  0  0  0  0  0  0  0  0
  139.7621   73.0822  220.4167 H   0  0  0  0  0  0  0  0  0  0  0  0
  138.6921   74.2940  221.4183 H   0  0  0  0  0  0  0  0  0  0  0  0
  140.2478   75.8383  217.8467 H   0  0  0  0  0  0  0  0  0  0  0  0
  139.0374   76.1564  219.1229 H   0  0  0  0  0  0  0  0  0  0  0  0
  140.8461   77.9984  217.8620 H   0  0  0  0  0  0  0  0  0  0  0  0
  139.6362   78.3187  219.1586 H   0  0  0  0  0  0  0  0  0  0  0  0
  141.9626   78.9652  219.7430 H   0  0  0  0  0  0  0  0  0  0  0  0
  141.1922   77.7202  220.8453 H   0  0  0  0  0  0  0  0  0  0  0  0
  143.3994   77.3528  218.8199 H   0  0  0  0  0  0  0  0  0  0  0  0
  143.3816   77.0107  220.6017 H   0  0  0  0  0  0  0  0  0  0  0  0
  142.5207   75.3911  218.3393 H   0  0  0  0  0  0  0  0  0  0  0  0
  144.8858   75.6399  220.5707 H   0  0  0  0  0  0  0  0  0  0  0  0
  145.2870   71.4107  221.0835 H   0  0  0  0  0  0  0  0  0  0  0  0
  141.7107   73.0482  219.3550 H   0  0  0  0  0  0  0  0  0  0  0  0
  139.0711   69.0429  222.9153 H   0  0  0  0  0  0  0  0  0  0  0  0
  139.2347   67.7173  225.0058 H   0  0  0  0  0  0  0  0  0  0  0  0
  139.8109   67.5986  227.2664 H   0  0  0  0  0  0  0  0  0  0  0  0
  140.6958   68.7066  229.3189 H   0  0  0  0  0  0  0  0  0  0  0  0
  141.3976   71.0766  229.2616 H   0  0  0  0  0  0  0  0  0  0  0  0
  141.2283   72.3893  227.1655 H   0  0  0  0  0  0  0  0  0  0  0  0
  1  2  2  0
  2  3  1  0
  3  4  1  0
  4  5  1  0
  5  6  2  0
  5  7  1  0
  7  8  1  0
  8  9  1  0
  9 10  1  0
 10 11  1  0
 11 12  1  0
 12 13  1  0
 13 14  2  0
 14 15  1  0
 15 16  1  0
 15 17  2  0
 17 18  1  0
 18 19  1  0
 18 20  2  0
  2 21  1  0
 21 22  2  0
 22 23  1  0
 23 24  2  0
 24 25  1  0
 25 26  2  0
 26 27  1  0
 27 28  2  0
 28 29  1  0
 29 30  2  0
 12  7  1  0
 20 13  1  0
 30 21  1  0
 29 24  1  0
  3 31  1  0
  4 32  1  0
  4 33  1  0
  8 34  1  0
  8 35  1  0
  9 36  1  0
  9 37  1  0
 10 38  1  0
 10 39  1  0
 11 40  1  0
 11 41  1  0
 12 42  1  6
 14 43  1  0
 17 44  1  0
 20 45  1  0
 22 46  1  0
 23 47  1  0
 25 48  1  0
 26 49  1  0
 27 50  1  0
 28 51  1  0
M  END
>  <smiles>  (58) 
O=C(NCC(=O)N1CCCCC1c1cc(F)cc(F)c1)c1ccc2ccccc2n1

>  <score_type>  (58) 
oracle

>  <origin>  (58) 
autodockgpu

>  <m_score__min__energy>  (58) 
-8.7899999999999991

>  <m_primary>  (58) 
energy

>  <rmsd>  (58) 
1.7231091043290796

>  <m_score__min__rmsd>  (58) 
1.7231091043290796

>  <meeko>  (58) 
{"free_energy": -8.28, "intermolecular_energy": -9.77, "internal_energy": -1.78, "cluster_size": 27, "cluster_id": 2, "rank_in_cluster": 12}

>  <energy>  (58) 
-8.58

>  <cluster_rmsd>  (58) 
0.3

>  <cluster>  (58) 
1

$$$$

     RDKit          3D

 51 54  0  0  0  0  0  0  0  0999 V2000
  141.4900   72.4740  221.6400 O   0  0  0  0  0  0  0  0  0  0  0  0
  140.5610   72.6690  222.4480 C   0  0  0  0  0  0  0  0  0  0  0  0
  139.7660   73.8620  222.3290 N   0  0  0  0  0  0  0  0  0  0  0  0
  139.9500   74.8680  221.3550 C   0  0  0  0  0  0  0  0  0  0  0  0
  140.9510   75.9110  221.4860 C   0  0  0  0  0  0  0  0  0  0  0  0
  141.0380   76.3690  222.7230 O   0  0  0  0  0  0  0  0  0  0  0  0
  141.8300   76.5190  220.6010 N   0  0  0  0  0  0  0  0  0  0  0  0
  142.8040   75.8850  219.7190 C   0  0  0  0  0  0  0  0  0  0  0  0
  142.4050   76.1680  218.2940 C   0  0  0  0  0  0  0  0  0  0  0  0
  141.1580   76.9940  218.2600 C   0  0  0  0  0  0  0  0  0  0  0  0
  141.2200   78.2540  219.1050 C   0  0  0  0  0  0  0  0  0  0  0  0
  141.8500   78.0040  220.4290 C   0  0  1  0  0  0  0  0  0  0  0  0
  141.3990   78.7560  221.5720 C   0  0  0  0  0  0  0  0  0  0  0  0
  140.0760   78.9780  221.9360 C   0  0  0  0  0  0  0  0  0  0  0  0
  139.7170   79.7400  223.0240 C   0  0  0  0  0  0  0  0  0  0  0  0
  138.3950   79.9070  223.3120 F   0  0  0  0  0  0  0  0  0  0  0  0
  140.6650   80.3280  223.8110 C   0  0  0  0  0  0  0  0  0  0  0  0
  141.9880   80.1280  223.4770 C   0  0  0  0  0  0  0  0  0  0  0  0
  142.9520   80.7030  224.2440 F   0  0  0  0  0  0  0  0  0  0  0  0
  142.3470   79.3650  222.3890 C   0  0  0  0  0  0  0  0  0  0  0  0
  140.2890   71.6860  223.5040 C   0  0  0  0  0  0  0  0  0  0  0  0
  139.5840   70.5410  223.1970 C   0  0  0  0  0  0  0  0  0  0  0  0
  139.2830   69.5640  224.1230 C   0  0  0  0  0  0  0  0  0  0  0  0
  139.7260   69.7800  225.4140 C   0  0  0  0  0  0  0  0  0  0  0  0
  139.4200   68.7950  226.3370 C   0  0  0  0  0  0  0  0  0  0  0  0
  139.8530   68.9910  227.6330 C   0  0  0  0  0  0  0  0  0  0  0  0
  140.5640   70.1270  227.9820 C   0  0  0  0  0  0  0  0  0  0  0  0
  140.8530   71.0920  227.0380 C   0  0  0  0  0  0  0  0  0  0  0  0
  140.4300   70.9190  225.7320 C   0  0  0  0  0  0  0  0  0  0  0  0
  140.7000   71.8540  224.7740 N   0  0  0  0  0  0  0  0  0  0  0  0
  138.9960   73.9240  223.0680 H   0  0  0  0  0  0  0  0  0  0  0  0
  140.1770   74.3440  220.4148 H   0  0  0  0  0  0  0  0  0  0  0  0
  139.0158   75.4415  221.4463 H   0  0  0  0  0  0  0  0  0  0  0  0
  143.8055   76.2963  219.9137 H   0  0  0  0  0  0  0  0  0  0  0  0
  142.8280   74.7999  219.8979 H   0  0  0  0  0  0  0  0  0  0  0  0
  143.2165   76.7146  217.7913 H   0  0  0  0  0  0  0  0  0  0  0  0
  142.2178   75.2147  217.7780 H   0  0  0  0  0  0  0  0  0  0  0  0
  140.9676   77.2876  217.2171 H   0  0  0  0  0  0  0  0  0  0  0  0
  140.3557   76.3709  218.6820 H   0  0  0  0  0  0  0  0  0  0  0  0
  141.8086   79.0130  218.5688 H   0  0  0  0  0  0  0  0  0  0  0  0
  140.1900   78.5995  219.2776 H   0  0  0  0  0  0  0  0  0  0  0  0
  142.8696   78.4162  220.4041 H   0  0  0  0  0  0  0  0  0  0  0  0
  139.2803   78.5241  221.3270 H   0  0  0  0  0  0  0  0  0  0  0  0
  140.3835   80.9397  224.6808 H   0  0  0  0  0  0  0  0  0  0  0  0
  143.4144   79.2327  222.1585 H   0  0  0  0  0  0  0  0  0  0  0  0
  139.2443   70.3997  222.1604 H   0  0  0  0  0  0  0  0  0  0  0  0
  138.7197   68.6600  223.8481 H   0  0  0  0  0  0  0  0  0  0  0  0
  138.8562   67.8950  226.0502 H   0  0  0  0  0  0  0  0  0  0  0  0
  139.6301   68.2341  228.3994 H   0  0  0  0  0  0  0  0  0  0  0  0
  140.9014   70.2616  229.0203 H   0  0  0  0  0  0  0  0  0  0  0  0
  141.4162   71.9931  227.3224 H   0  0  0  0  0  0  0  0  0  0  0  0
  1  2  2  0
  2  3  1  0
  3  4  1  0
  4  5  1  0
  5  6  2  0
  5  7  1  0
  7  8  1  0
  8  9  1  0
  9 10  1  0
 10 11  1  0
 11 12  1  0
 12 13  1  0
 13 14  2  0
 14 15  1  0
 15 16  1  0
 15 17  2  0
 17 18  1  0
 18 19  1  0
 18 20  2  0
  2 21  1  0
 21 22  2  0
 22 23  1  0
 23 24  2  0
 24 25  1  0
 25 26  2  0
 26 27  1  0
 27 28  2  0
 28 29  1  0
 29 30  2  0
 12  7  1  0
 20 13  1  0
 30 21  1  0
 29 24  1  0
  3 31  1  0
  4 32  1  0
  4 33  1  0
  8 34  1  0
  8 35  1  0
  9 36  1  0
  9 37  1  0
 10 38  1  0
 10 39  1  0
 11 40  1  0
 11 41  1  0
 12 42  1  6
 14 43  1  0
 17 44  1  0
 20 45  1  0
 22 46  1  0
 23 47  1  0
 25 48  1  0
 26 49  1  0
 27 50  1  0
 28 51  1  0
M  END
>  <smiles>  (59) 
O=C(NCC(=O)N1CCCCC1c1cc(F)cc(F)c1)c1ccc2ccccc2n1

>  <score_type>  (59) 
oracle

>  <origin>  (59) 
autodockgpu

>  <m_score__min__energy>  (59) 
-8.7899999999999991

>  <m_primary>  (59) 
energy

>  <rmsd>  (59) 
2.1437599742972524

>  <m_score__min__rmsd>  (59) 
2.1437599742972524

>  <meeko>  (59) 
{"free_energy": -8.79, "intermolecular_energy": -10.28, "internal_energy": -1.14, "cluster_size": 9, "cluster_id": 1, "rank_in_cluster": 1}

>  <energy>  (59) 
-8.56

>  <cluster_rmsd>  (59) 
0.29

>  <cluster>  (59) 
1

$$$$

     RDKit          3D

 51 54  0  0  0  0  0  0  0  0999 V2000
  141.3860   72.2500  221.5360 O   0  0  0  0  0  0  0  0  0  0  0  0
  140.5380   72.5420  222.4020 C   0  0  0  0  0  0  0  0  0  0  0  0
  139.8400   73.7960  222.3040 N   0  0  0  0  0  0  0  0  0  0  0  0
  140.0350   74.7600  221.2910 C   0  0  0  0  0  0  0  0  0  0  0  0
  141.0200   75.8210  221.3970 C   0  0  0  0  0  0  0  0  0  0  0  0
  141.0630   76.3430  222.6110 O   0  0  0  0  0  0  0  0  0  0  0  0
  141.9200   76.3930  220.5090 N   0  0  0  0  0  0  0  0  0  0  0  0
  142.9260   75.7260  219.6890 C   0  0  0  0  0  0  0  0  0  0  0  0
  142.5660   75.9340  218.2410 C   0  0  0  0  0  0  0  0  0  0  0  0
  141.3130   76.7430  218.1280 C   0  0  0  0  0  0  0  0  0  0  0  0
  141.3380   78.0440  218.9110 C   0  0  0  0  0  0  0  0  0  0  0  0
  141.9300   77.8670  220.2630 C   0  0  1  0  0  0  0  0  0  0  0  0
  141.4380   78.6710  221.3530 C   0  0  0  0  0  0  0  0  0  0  0  0
  142.2120   79.3010  222.3200 C   0  0  0  0  0  0  0  0  0  0  0  0
  141.6700   80.0250  223.3570 C   0  0  0  0  0  0  0  0  0  0  0  0
  142.5020   80.6130  224.2640 F   0  0  0  0  0  0  0  0  0  0  0  0
  140.3170   80.1600  223.4860 C   0  0  0  0  0  0  0  0  0  0  0  0
  139.5200   79.5470  222.5430 C   0  0  0  0  0  0  0  0  0  0  0  0
  138.1700   79.6650  222.6480 F   0  0  0  0  0  0  0  0  0  0  0  0
  140.0630   78.8230  221.5050 C   0  0  0  0  0  0  0  0  0  0  0  0
  140.2640   71.6120  223.5030 C   0  0  0  0  0  0  0  0  0  0  0  0
  139.5700   70.4480  223.2470 C   0  0  0  0  0  0  0  0  0  0  0  0
  139.2660   69.5160  224.2180 C   0  0  0  0  0  0  0  0  0  0  0  0
  139.6970   69.8000  225.5010 C   0  0  0  0  0  0  0  0  0  0  0  0
  139.3900   68.8600  226.4700 C   0  0  0  0  0  0  0  0  0  0  0  0
  139.8090   69.1230  227.7570 C   0  0  0  0  0  0  0  0  0  0  0  0
  140.5090   70.2800  228.0560 C   0  0  0  0  0  0  0  0  0  0  0  0
  140.8010   71.1990  227.0670 C   0  0  0  0  0  0  0  0  0  0  0  0
  140.3910   70.9580  225.7680 C   0  0  0  0  0  0  0  0  0  0  0  0
  140.6620   71.8450  224.7670 N   0  0  0  0  0  0  0  0  0  0  0  0
  139.1340   73.9420  223.0940 H   0  0  0  0  0  0  0  0  0  0  0  0
  140.2900   74.1977  220.3806 H   0  0  0  0  0  0  0  0  0  0  0  0
  139.0924   75.3252  221.3363 H   0  0  0  0  0  0  0  0  0  0  0  0
  143.9174   76.1571  219.8919 H   0  0  0  0  0  0  0  0  0  0  0  0
  142.9555   74.6515  219.9228 H   0  0  0  0  0  0  0  0  0  0  0  0
  143.3868   76.4640  217.7356 H   0  0  0  0  0  0  0  0  0  0  0  0
  142.4027   74.9540  217.7688 H   0  0  0  0  0  0  0  0  0  0  0  0
  141.1518   76.9825  217.0666 H   0  0  0  0  0  0  0  0  0  0  0  0
  140.5037   76.1328  218.5555 H   0  0  0  0  0  0  0  0  0  0  0  0
  141.9352   78.7819  218.3553 H   0  0  0  0  0  0  0  0  0  0  0  0
  140.3001   78.3863  219.0359 H   0  0  0  0  0  0  0  0  0  0  0  0
  142.9461   78.2881  220.2473 H   0  0  0  0  0  0  0  0  0  0  0  0
  143.3068   79.2172  222.2535 H   0  0  0  0  0  0  0  0  0  0  0  0
  139.8787   80.7376  224.3132 H   0  0  0  0  0  0  0  0  0  0  0  0
  139.3899   78.3508  220.7743 H   0  0  0  0  0  0  0  0  0  0  0  0
  139.2419   70.2525  222.2154 H   0  0  0  0  0  0  0  0  0  0  0  0
  138.7103   68.5960  223.9840 H   0  0  0  0  0  0  0  0  0  0  0  0
  138.8355   67.9425  226.2236 H   0  0  0  0  0  0  0  0  0  0  0  0
  139.5840   68.4034  228.5580 H   0  0  0  0  0  0  0  0  0  0  0  0
  140.8351   70.4686  229.0895 H   0  0  0  0  0  0  0  0  0  0  0  0
  141.3561   72.1168  227.3108 H   0  0  0  0  0  0  0  0  0  0  0  0
  1  2  2  0
  2  3  1  0
  3  4  1  0
  4  5  1  0
  5  6  2  0
  5  7  1  0
  7  8  1  0
  8  9  1  0
  9 10  1  0
 10 11  1  0
 11 12  1  0
 12 13  1  0
 13 14  2  0
 14 15  1  0
 15 16  1  0
 15 17  2  0
 17 18  1  0
 18 19  1  0
 18 20  2  0
  2 21  1  0
 21 22  2  0
 22 23  1  0
 23 24  2  0
 24 25  1  0
 25 26  2  0
 26 27  1  0
 27 28  2  0
 28 29  1  0
 29 30  2  0
 12  7  1  0
 20 13  1  0
 30 21  1  0
 29 24  1  0
  3 31  1  0
  4 32  1  0
  4 33  1  0
  8 34  1  0
  8 35  1  0
  9 36  1  0
  9 37  1  0
 10 38  1  0
 10 39  1  0
 11 40  1  0
 11 41  1  0
 12 42  1  6
 14 43  1  0
 17 44  1  0
 20 45  1  0
 22 46  1  0
 23 47  1  0
 25 48  1  0
 26 49  1  0
 27 50  1  0
 28 51  1  0
M  END
>  <smiles>  (60) 
O=C(NCC(=O)N1CCCCC1c1cc(F)cc(F)c1)c1ccc2ccccc2n1

>  <score_type>  (60) 
oracle

>  <origin>  (60) 
autodockgpu

>  <m_score__min__energy>  (60) 
-8.7899999999999991

>  <m_primary>  (60) 
energy

>  <rmsd>  (60) 
2.114516614717159

>  <m_score__min__rmsd>  (60) 
2.114516614717159

>  <meeko>  (60) 
{"free_energy": -8.6, "intermolecular_energy": -10.09, "internal_energy": -1.14, "cluster_size": 9, "cluster_id": 1, "rank_in_cluster": 6}

>  <energy>  (60) 
-8.48

>  <cluster_rmsd>  (60) 
0.0

>  <cluster>  (60) 
2

$$$$

     RDKit          3D

 51 54  0  0  0  0  0  0  0  0999 V2000
  139.2910   70.4790  221.4360 O   0  0  0  0  0  0  0  0  0  0  0  0
  139.9020   71.0200  222.3800 C   0  0  0  0  0  0  0  0  0  0  0  0
  140.6200   72.2430  222.1410 N   0  0  0  0  0  0  0  0  0  0  0  0
  140.7060   72.9070  220.8970 C   0  0  0  0  0  0  0  0  0  0  0  0
  141.1260   74.2910  220.7750 C   0  0  0  0  0  0  0  0  0  0  0  0
  141.3210   74.8600  221.9520 O   0  0  0  0  0  0  0  0  0  0  0  0
  141.3690   75.1330  219.6990 N   0  0  0  0  0  0  0  0  0  0  0  0
  140.4050   75.8960  218.9150 C   0  0  0  0  0  0  0  0  0  0  0  0
  140.6850   77.3620  219.1190 C   0  0  0  0  0  0  0  0  0  0  0  0
  141.8430   77.5440  220.0480 C   0  0  0  0  0  0  0  0  0  0  0  0
  143.0870   76.7660  219.6540 C   0  0  0  0  0  0  0  0  0  0  0  0
  142.7610   75.3840  219.2140 C   0  0  1  0  0  0  0  0  0  0  0  0
  143.7010   74.3240  219.4820 C   0  0  0  0  0  0  0  0  0  0  0  0
  143.7480   73.0920  218.8430 C   0  0  0  0  0  0  0  0  0  0  0  0
  144.6540   72.1100  219.1770 C   0  0  0  0  0  0  0  0  0  0  0  0
  144.6330   70.9270  218.4980 F   0  0  0  0  0  0  0  0  0  0  0  0
  145.5650   72.3080  220.1740 C   0  0  0  0  0  0  0  0  0  0  0  0
  145.5450   73.5210  220.8290 C   0  0  0  0  0  0  0  0  0  0  0  0
  146.4410   73.7430  221.8260 F   0  0  0  0  0  0  0  0  0  0  0  0
  144.6390   74.5030  220.4940 C   0  0  0  0  0  0  0  0  0  0  0  0
  139.8820   70.4070  223.7130 C   0  0  0  0  0  0  0  0  0  0  0  0
  139.2180   69.2130  223.8980 C   0  0  0  0  0  0  0  0  0  0  0  0
  139.1460   68.5650  225.1140 C   0  0  0  0  0  0  0  0  0  0  0  0
  139.7850   69.1760  226.1770 C   0  0  0  0  0  0  0  0  0  0  0  0
  139.7100   68.5200  227.3940 C   0  0  0  0  0  0  0  0  0  0  0  0
  140.3400   69.1120  228.4690 C   0  0  0  0  0  0  0  0  0  0  0  0
  141.0180   70.3120  228.3240 C   0  0  0  0  0  0  0  0  0  0  0  0
  141.0760   70.9420  227.0970 C   0  0  0  0  0  0  0  0  0  0  0  0
  140.4510   70.3680  226.0040 C   0  0  0  0  0  0  0  0  0  0  0  0
  140.4890   70.9650  224.7770 N   0  0  0  0  0  0  0  0  0  0  0  0
  141.1010   72.6210  223.0170 H   0  0  0  0  0  0  0  0  0  0  0  0
  141.4084   72.3205  220.2866 H   0  0  0  0  0  0  0  0  0  0  0  0
  139.6480   72.9676  220.6023 H   0  0  0  0  0  0  0  0  0  0  0  0
  140.5079   75.6423  217.8496 H   0  0  0  0  0  0  0  0  0  0  0  0
  139.3806   75.6572  219.2368 H   0  0  0  0  0  0  0  0  0  0  0  0
  140.9211   77.8249  218.1495 H   0  0  0  0  0  0  0  0  0  0  0  0
  139.7959   77.8389  219.5572 H   0  0  0  0  0  0  0  0  0  0  0  0
  142.0991   78.6134  220.0743 H   0  0  0  0  0  0  0  0  0  0  0  0
  141.5257   77.1569  221.0275 H   0  0  0  0  0  0  0  0  0  0  0  0
  143.5892   77.2926  218.8291 H   0  0  0  0  0  0  0  0  0  0  0  0
  143.7397   76.6974  220.5368 H   0  0  0  0  0  0  0  0  0  0  0  0
  142.8422   75.3477  218.1176 H   0  0  0  0  0  0  0  0  0  0  0  0
  143.0298   72.8916  218.0343 H   0  0  0  0  0  0  0  0  0  0  0  0
  146.2901   71.5267  220.4455 H   0  0  0  0  0  0  0  0  0  0  0  0
  144.6576   75.4563  221.0424 H   0  0  0  0  0  0  0  0  0  0  0  0
  138.7200   68.7533  223.0316 H   0  0  0  0  0  0  0  0  0  0  0  0
  138.6085   67.6125  225.2315 H   0  0  0  0  0  0  0  0  0  0  0  0
  139.1708   67.5670  227.4992 H   0  0  0  0  0  0  0  0  0  0  0  0
  140.3037   68.6250  229.4547 H   0  0  0  0  0  0  0  0  0  0  0  0
  141.5143   70.7664  229.1942 H   0  0  0  0  0  0  0  0  0  0  0  0
  141.6157   71.8944  226.9889 H   0  0  0  0  0  0  0  0  0  0  0  0
  1  2  2  0
  2  3  1  0
  3  4  1  0
  4  5  1  0
  5  6  2  0
  5  7  1  0
  7  8  1  0
  8  9  1  0
  9 10  1  0
 10 11  1  0
 11 12  1  0
 12 13  1  0
 13 14  2  0
 14 15  1  0
 15 16  1  0
 15 17  2  0
 17 18  1  0
 18 19  1  0
 18 20  2  0
  2 21  1  0
 21 22  2  0
 22 23  1  0
 23 24  2  0
 24 25  1  0
 25 26  2  0
 26 27  1  0
 27 28  2  0
 28 29  1  0
 29 30  2  0
 12  7  1  0
 20 13  1  0
 30 21  1  0
 29 24  1  0
  3 31  1  0
  4 32  1  0
  4 33  1  0
  8 34  1  0
  8 35  1  0
  9 36  1  0
  9 37  1  0
 10 38  1  0
 10 39  1  0
 11 40  1  0
 11 41  1  0
 12 42  1  6
 14 43  1  0
 17 44  1  0
 20 45  1  0
 22 46  1  0
 23 47  1  0
 25 48  1  0
 26 49  1  0
 27 50  1  0
 28 51  1  0
M  END
>  <smiles>  (61) 
O=C(NCC(=O)N1CCCCC1c1cc(F)cc(F)c1)c1ccc2ccccc2n1

>  <score_type>  (61) 
oracle

>  <origin>  (61) 
autodockgpu

>  <m_score__min__energy>  (61) 
-8.7899999999999991

>  <m_primary>  (61) 
energy

>  <rmsd>  (61) 
2.0144798050273227

>  <m_score__min__rmsd>  (61) 
2.0144798050273227

>  <meeko>  (61) 
{"free_energy": -7.84, "intermolecular_energy": -9.33, "internal_energy": -1.87, "cluster_size": 27, "cluster_id": 2, "rank_in_cluster": 25}

>  <energy>  (61) 
-8.45

>  <cluster_rmsd>  (61) 
0.28

>  <cluster>  (61) 
2

$$$$

     RDKit          3D

 51 54  0  0  0  0  0  0  0  0999 V2000
  139.2720   70.6940  221.4870 O   0  0  0  0  0  0  0  0  0  0  0  0
  139.5280   71.2940  222.5500 C   0  0  0  0  0  0  0  0  0  0  0  0
  139.6990   72.7220  222.5250 N   0  0  0  0  0  0  0  0  0  0  0  0
  139.6060   73.5330  221.3720 C   0  0  0  0  0  0  0  0  0  0  0  0
  140.4000   74.7350  221.1940 C   0  0  0  0  0  0  0  0  0  0  0  0
  141.0710   75.0570  222.2860 O   0  0  0  0  0  0  0  0  0  0  0  0
  140.6060   75.6050  220.1330 N   0  0  0  0  0  0  0  0  0  0  0  0
  139.6280   76.4500  219.4560 C   0  0  0  0  0  0  0  0  0  0  0  0
  140.0070   77.8890  219.6890 C   0  0  0  0  0  0  0  0  0  0  0  0
  141.2430   77.9710  220.5280 C   0  0  0  0  0  0  0  0  0  0  0  0
  142.4050   77.1430  220.0080 C   0  0  0  0  0  0  0  0  0  0  0  0
  141.9670   75.7990  219.5470 C   0  0  1  0  0  0  0  0  0  0  0  0
  142.8630   74.6810  219.7000 C   0  0  0  0  0  0  0  0  0  0  0  0
  142.5640   73.3510  219.4310 C   0  0  0  0  0  0  0  0  0  0  0  0
  143.4610   72.3270  219.6360 C   0  0  0  0  0  0  0  0  0  0  0  0
  143.0880   71.0470  219.3450 F   0  0  0  0  0  0  0  0  0  0  0  0
  144.7110   72.5770  220.1250 C   0  0  0  0  0  0  0  0  0  0  0  0
  145.0390   73.8870  220.4030 C   0  0  0  0  0  0  0  0  0  0  0  0
  146.2770   74.1640  220.8910 F   0  0  0  0  0  0  0  0  0  0  0  0
  144.1420   74.9110  220.1970 C   0  0  0  0  0  0  0  0  0  0  0  0
  139.6530   70.5430  223.8050 C   0  0  0  0  0  0  0  0  0  0  0  0
  139.1860   69.2470  223.8660 C   0  0  0  0  0  0  0  0  0  0  0  0
  139.2600   68.4660  225.0010 C   0  0  0  0  0  0  0  0  0  0  0  0
  139.8380   69.0490  226.1140 C   0  0  0  0  0  0  0  0  0  0  0  0
  139.9100   68.2600  227.2480 C   0  0  0  0  0  0  0  0  0  0  0  0
  140.4830   68.8210  228.3700 C   0  0  0  0  0  0  0  0  0  0  0  0
  140.9640   70.1200  228.3500 C   0  0  0  0  0  0  0  0  0  0  0  0
  140.8780   70.8820  227.2020 C   0  0  0  0  0  0  0  0  0  0  0  0
  140.3080   70.3420  226.0630 C   0  0  0  0  0  0  0  0  0  0  0  0
  140.2070   71.0680  224.9120 N   0  0  0  0  0  0  0  0  0  0  0  0
  139.9100   73.1320  223.4890 H   0  0  0  0  0  0  0  0  0  0  0  0
  139.8463   72.8801  220.5200 H   0  0  0  0  0  0  0  0  0  0  0  0
  138.5918   73.9472  221.4709 H   0  0  0  0  0  0  0  0  0  0  0  0
  139.6325   76.2338  218.3775 H   0  0  0  0  0  0  0  0  0  0  0  0
  138.6198   76.2543  219.8499 H   0  0  0  0  0  0  0  0  0  0  0  0
  140.1927   78.3767  218.7207 H   0  0  0  0  0  0  0  0  0  0  0  0
  139.1837   78.3954  220.2142 H   0  0  0  0  0  0  0  0  0  0  0  0
  141.5613   79.0231  220.5713 H   0  0  0  0  0  0  0  0  0  0  0  0
  140.9819   77.5635  221.5158 H   0  0  0  0  0  0  0  0  0  0  0  0
  142.8703   77.6739  219.1644 H   0  0  0  0  0  0  0  0  0  0  0  0
  143.1197   77.0039  220.8325 H   0  0  0  0  0  0  0  0  0  0  0  0
  141.9592   75.8014  218.4470 H   0  0  0  0  0  0  0  0  0  0  0  0
  141.5668   73.1055  219.0369 H   0  0  0  0  0  0  0  0  0  0  0  0
  145.4309   71.7621  220.2913 H   0  0  0  0  0  0  0  0  0  0  0  0
  144.4456   75.9417  220.4324 H   0  0  0  0  0  0  0  0  0  0  0  0
  138.7310   68.8134  222.9632 H   0  0  0  0  0  0  0  0  0  0  0  0
  138.8794   67.4341  225.0197 H   0  0  0  0  0  0  0  0  0  0  0  0
  139.5265   67.2290  227.2545 H   0  0  0  0  0  0  0  0  0  0  0  0
  140.5592   68.2287  229.2938 H   0  0  0  0  0  0  0  0  0  0  0  0
  141.4181   70.5477  229.2560 H   0  0  0  0  0  0  0  0  0  0  0  0
  141.2608   71.9132  227.1930 H   0  0  0  0  0  0  0  0  0  0  0  0
  1  2  2  0
  2  3  1  0
  3  4  1  0
  4  5  1  0
  5  6  2  0
  5  7  1  0
  7  8  1  0
  8  9  1  0
  9 10  1  0
 10 11  1  0
 11 12  1  0
 12 13  1  0
 13 14  2  0
 14 15  1  0
 15 16  1  0
 15 17  2  0
 17 18  1  0
 18 19  1  0
 18 20  2  0
  2 21  1  0
 21 22  2  0
 22 23  1  0
 23 24  2  0
 24 25  1  0
 25 26  2  0
 26 27  1  0
 27 28  2  0
 28 29  1  0
 29 30  2  0
 12  7  1  0
 20 13  1  0
 30 21  1  0
 29 24  1  0
  3 31  1  0
  4 32  1  0
  4 33  1  0
  8 34  1  0
  8 35  1  0
  9 36  1  0
  9 37  1  0
 10 38  1  0
 10 39  1  0
 11 40  1  0
 11 41  1  0
 12 42  1  6
 14 43  1  0
 17 44  1  0
 20 45  1  0
 22 46  1  0
 23 47  1  0
 25 48  1  0
 26 49  1  0
 27 50  1  0
 28 51  1  0
M  END
>  <smiles>  (62) 
O=C(NCC(=O)N1CCCCC1c1cc(F)cc(F)c1)c1ccc2ccccc2n1

>  <score_type>  (62) 
oracle

>  <origin>  (62) 
autodockgpu

>  <m_score__min__energy>  (62) 
-8.7899999999999991

>  <m_primary>  (62) 
energy

>  <rmsd>  (62) 
1.7563469762314043

>  <m_score__min__rmsd>  (62) 
1.7563469762314043

>  <meeko>  (62) 
{"free_energy": -7.97, "intermolecular_energy": -9.46, "internal_energy": -1.79, "cluster_size": 27, "cluster_id": 2, "rank_in_cluster": 20}

>  <energy>  (62) 
-8.43

>  <cluster_rmsd>  (62) 
0.16

>  <cluster>  (62) 
2

$$$$

     RDKit          3D

 51 54  0  0  0  0  0  0  0  0999 V2000
  140.1640   71.2530  221.3720 O   0  0  0  0  0  0  0  0  0  0  0  0
  139.9450   71.8370  222.4520 C   0  0  0  0  0  0  0  0  0  0  0  0
  139.6450   73.2440  222.4390 N   0  0  0  0  0  0  0  0  0  0  0  0
  139.5790   74.0520  221.2830 C   0  0  0  0  0  0  0  0  0  0  0  0
  140.6310   74.9820  220.9160 C   0  0  0  0  0  0  0  0  0  0  0  0
  141.3820   75.3210  221.9490 O   0  0  0  0  0  0  0  0  0  0  0  0
  141.0160   75.5800  219.7240 N   0  0  0  0  0  0  0  0  0  0  0  0
  140.1890   76.3220  218.7790 C   0  0  0  0  0  0  0  0  0  0  0  0
  140.6760   77.7470  218.7430 C   0  0  0  0  0  0  0  0  0  0  0  0
  141.8300   77.9240  219.6790 C   0  0  0  0  0  0  0  0  0  0  0  0
  142.9540   76.9230  219.4780 C   0  0  0  0  0  0  0  0  0  0  0  0
  142.4390   75.5450  219.2660 C   0  0  1  0  0  0  0  0  0  0  0  0
  143.2080   74.4280  219.7520 C   0  0  0  0  0  0  0  0  0  0  0  0
  142.8150   73.0950  219.7370 C   0  0  0  0  0  0  0  0  0  0  0  0
  143.5890   72.0810  220.2530 C   0  0  0  0  0  0  0  0  0  0  0  0
  143.1290   70.7980  220.1980 F   0  0  0  0  0  0  0  0  0  0  0  0
  144.8050   72.3450  220.8160 C   0  0  0  0  0  0  0  0  0  0  0  0
  145.2250   73.6580  220.8480 C   0  0  0  0  0  0  0  0  0  0  0  0
  146.4310   73.9480  221.4030 F   0  0  0  0  0  0  0  0  0  0  0  0
  144.4500   74.6720  220.3300 C   0  0  0  0  0  0  0  0  0  0  0  0
  139.9940   71.0900  223.7140 C   0  0  0  0  0  0  0  0  0  0  0  0
  139.5480   69.7860  223.7450 C   0  0  0  0  0  0  0  0  0  0  0  0
  139.5570   69.0080  224.8840 C   0  0  0  0  0  0  0  0  0  0  0  0
  140.0460   69.6020  226.0330 C   0  0  0  0  0  0  0  0  0  0  0  0
  140.0520   68.8150  227.1720 C   0  0  0  0  0  0  0  0  0  0  0  0
  140.5350   69.3870  228.3300 C   0  0  0  0  0  0  0  0  0  0  0  0
  140.9930   70.6950  228.3400 C   0  0  0  0  0  0  0  0  0  0  0  0
  140.9740   71.4550  227.1880 C   0  0  0  0  0  0  0  0  0  0  0  0
  140.4940   70.9030  226.0130 C   0  0  0  0  0  0  0  0  0  0  0  0
  140.4610   71.6260  224.8560 N   0  0  0  0  0  0  0  0  0  0  0  0
  139.4700   73.6410  223.4160 H   0  0  0  0  0  0  0  0  0  0  0  0
  139.4736   73.3608  220.4338 H   0  0  0  0  0  0  0  0  0  0  0  0
  138.7544   74.7352  221.5345 H   0  0  0  0  0  0  0  0  0  0  0  0
  140.2747   75.8741  217.7780 H   0  0  0  0  0  0  0  0  0  0  0  0
  139.1345   76.2892  219.0905 H   0  0  0  0  0  0  0  0  0  0  0  0
  140.9964   77.9955  217.7205 H   0  0  0  0  0  0  0  0  0  0  0  0
  139.8576   78.4133  219.0532 H   0  0  0  0  0  0  0  0  0  0  0  0
  142.2388   78.9351  219.5353 H   0  0  0  0  0  0  0  0  0  0  0  0
  141.4406   77.7620  220.6949 H   0  0  0  0  0  0  0  0  0  0  0  0
  143.5428   77.2217  218.5982 H   0  0  0  0  0  0  0  0  0  0  0  0
  143.5730   76.9190  220.3873 H   0  0  0  0  0  0  0  0  0  0  0  0
  142.5360   75.3067  218.1965 H   0  0  0  0  0  0  0  0  0  0  0  0
  141.8418   72.8391  219.2928 H   0  0  0  0  0  0  0  0  0  0  0  0
  145.4278   71.5381  221.2296 H   0  0  0  0  0  0  0  0  0  0  0  0
  144.8240   75.7055  220.3746 H   0  0  0  0  0  0  0  0  0  0  0  0
  139.1653   69.3432  222.8136 H   0  0  0  0  0  0  0  0  0  0  0  0
  139.1942   67.9696  224.8786 H   0  0  0  0  0  0  0  0  0  0  0  0
  139.6870   67.7775  227.1540 H   0  0  0  0  0  0  0  0  0  0  0  0
  140.5571   68.7972  229.2583 H   0  0  0  0  0  0  0  0  0  0  0  0
  141.3751   71.1315  229.2746 H   0  0  0  0  0  0  0  0  0  0  0  0
  141.3381   72.4929  227.2036 H   0  0  0  0  0  0  0  0  0  0  0  0
  1  2  2  0
  2  3  1  0
  3  4  1  0
  4  5  1  0
  5  6  2  0
  5  7  1  0
  7  8  1  0
  8  9  1  0
  9 10  1  0
 10 11  1  0
 11 12  1  0
 12 13  1  0
 13 14  2  0
 14 15  1  0
 15 16  1  0
 15 17  2  0
 17 18  1  0
 18 19  1  0
 18 20  2  0
  2 21  1  0
 21 22  2  0
 22 23  1  0
 23 24  2  0
 24 25  1  0
 25 26  2  0
 26 27  1  0
 27 28  2  0
 28 29  1  0
 29 30  2  0
 12  7  1  0
 20 13  1  0
 30 21  1  0
 29 24  1  0
  3 31  1  0
  4 32  1  0
  4 33  1  0
  8 34  1  0
  8 35  1  0
  9 36  1  0
  9 37  1  0
 10 38  1  0
 10 39  1  0
 11 40  1  0
 11 41  1  0
 12 42  1  6
 14 43  1  0
 17 44  1  0
 20 45  1  0
 22 46  1  0
 23 47  1  0
 25 48  1  0
 26 49  1  0
 27 50  1  0
 28 51  1  0
M  END
>  <smiles>  (63) 
O=C(NCC(=O)N1CCCCC1c1cc(F)cc(F)c1)c1ccc2ccccc2n1

>  <score_type>  (63) 
oracle

>  <origin>  (63) 
autodockgpu

>  <m_score__min__energy>  (63) 
-8.7899999999999991

>  <m_primary>  (63) 
energy

>  <rmsd>  (63) 
1.772070485917884

>  <m_score__min__rmsd>  (63) 
1.772070485917884

>  <meeko>  (63) 
{"free_energy": -8.39, "intermolecular_energy": -9.88, "internal_energy": -1.72, "cluster_size": 27, "cluster_id": 2, "rank_in_cluster": 6}

>  <energy>  (63) 
-8.41

>  <cluster_rmsd>  (63) 
0.33

>  <cluster>  (63) 
2

$$$$

     RDKit          3D

 51 54  0  0  0  0  0  0  0  0999 V2000
  140.7780   76.6320  218.6000 O   0  0  0  0  0  0  0  0  0  0  0  0
  141.9650   76.6840  218.9780 C   0  0  0  0  0  0  0  0  0  0  0  0
  142.5060   77.9410  219.4220 N   0  0  0  0  0  0  0  0  0  0  0  0
  141.7970   79.1620  219.4660 C   0  0  0  0  0  0  0  0  0  0  0  0
  141.5830   79.9000  220.6970 C   0  0  0  0  0  0  0  0  0  0  0  0
  140.8520   80.9850  220.5080 O   0  0  0  0  0  0  0  0  0  0  0  0
  141.9720   79.7090  222.0150 N   0  0  0  0  0  0  0  0  0  0  0  0
  143.0920   80.3210  222.7220 C   0  0  0  0  0  0  0  0  0  0  0  0
  142.5380   81.1770  223.8310 C   0  0  0  0  0  0  0  0  0  0  0  0
  141.0430   81.1160  223.8360 C   0  0  0  0  0  0  0  0  0  0  0  0
  140.4770   79.7070  223.8540 C   0  0  0  0  0  0  0  0  0  0  0  0
  141.2040   78.8040  222.9240 C   0  0  1  0  0  0  0  0  0  0  0  0
  140.4790   77.7480  222.2640 C   0  0  0  0  0  0  0  0  0  0  0  0
  139.2180   77.8560  221.6920 C   0  0  0  0  0  0  0  0  0  0  0  0
  138.5680   76.7920  221.1080 C   0  0  0  0  0  0  0  0  0  0  0  0
  137.3310   76.9830  220.5680 F   0  0  0  0  0  0  0  0  0  0  0  0
  139.1470   75.5550  221.0650 C   0  0  0  0  0  0  0  0  0  0  0  0
  140.3990   75.4150  221.6250 C   0  0  0  0  0  0  0  0  0  0  0  0
  140.9970   74.1950  221.5960 F   0  0  0  0  0  0  0  0  0  0  0  0
  141.0480   76.4800  222.2080 C   0  0  0  0  0  0  0  0  0  0  0  0
  142.7920   75.4720  218.9670 C   0  0  0  0  0  0  0  0  0  0  0  0
  142.5890   74.5240  217.9850 C   0  0  0  0  0  0  0  0  0  0  0  0
  143.3180   73.3560  217.8960 C   0  0  0  0  0  0  0  0  0  0  0  0
  144.2910   73.1610  218.8580 C   0  0  0  0  0  0  0  0  0  0  0  0
  145.0190   71.9880  218.7610 C   0  0  0  0  0  0  0  0  0  0  0  0
  145.9950   71.7720  219.7110 C   0  0  0  0  0  0  0  0  0  0  0  0
  146.2310   72.7000  220.7130 C   0  0  0  0  0  0  0  0  0  0  0  0
  145.4890   73.8620  220.7830 C   0  0  0  0  0  0  0  0  0  0  0  0
  144.5020   74.1000  219.8420 C   0  0  0  0  0  0  0  0  0  0  0  0
  143.7510   75.2390  219.8820 N   0  0  0  0  0  0  0  0  0  0  0  0
  143.5270   77.8690  219.7280 H   0  0  0  0  0  0  0  0  0  0  0  0
  142.3279   79.8470  218.7886 H   0  0  0  0  0  0  0  0  0  0  0  0
  140.7755   78.8362  219.2203 H   0  0  0  0  0  0  0  0  0  0  0  0
  143.7387   79.5376  223.1440 H   0  0  0  0  0  0  0  0  0  0  0  0
  143.6881   80.9345  222.0304 H   0  0  0  0  0  0  0  0  0  0  0  0
  142.9194   80.8122  224.7961 H   0  0  0  0  0  0  0  0  0  0  0  0
  142.8533   82.2186  223.6709 H   0  0  0  0  0  0  0  0  0  0  0  0
  140.6792   81.6452  224.7291 H   0  0  0  0  0  0  0  0  0  0  0  0
  140.7048   81.5803  222.8979 H   0  0  0  0  0  0  0  0  0  0  0  0
  140.5571   79.3050  224.8748 H   0  0  0  0  0  0  0  0  0  0  0  0
  139.4276   79.7578  223.5280 H   0  0  0  0  0  0  0  0  0  0  0  0
  141.8553   78.1507  223.5232 H   0  0  0  0  0  0  0  0  0  0  0  0
  138.7164   78.8349  221.7062 H   0  0  0  0  0  0  0  0  0  0  0  0
  138.6324   74.7012  220.6001 H   0  0  0  0  0  0  0  0  0  0  0  0
  142.0464   76.3235  222.6425 H   0  0  0  0  0  0  0  0  0  0  0  0
  141.8060   74.7090  217.2349 H   0  0  0  0  0  0  0  0  0  0  0  0
  143.1344   72.6184  217.1008 H   0  0  0  0  0  0  0  0  0  0  0  0
  144.8272   71.2588  217.9600 H   0  0  0  0  0  0  0  0  0  0  0  0
  146.5945   70.8505  219.6730 H   0  0  0  0  0  0  0  0  0  0  0  0
  147.0165   72.5089  221.4590 H   0  0  0  0  0  0  0  0  0  0  0  0
  145.6808   74.5940  221.5813 H   0  0  0  0  0  0  0  0  0  0  0  0
  1  2  2  0
  2  3  1  0
  3  4  1  0
  4  5  1  0
  5  6  2  0
  5  7  1  0
  7  8  1  0
  8  9  1  0
  9 10  1  0
 10 11  1  0
 11 12  1  0
 12 13  1  0
 13 14  2  0
 14 15  1  0
 15 16  1  0
 15 17  2  0
 17 18  1  0
 18 19  1  0
 18 20  2  0
  2 21  1  0
 21 22  2  0
 22 23  1  0
 23 24  2  0
 24 25  1  0
 25 26  2  0
 26 27  1  0
 27 28  2  0
 28 29  1  0
 29 30  2  0
 12  7  1  0
 20 13  1  0
 30 21  1  0
 29 24  1  0
  3 31  1  0
  4 32  1  0
  4 33  1  0
  8 34  1  0
  8 35  1  0
  9 36  1  0
  9 37  1  0
 10 38  1  0
 10 39  1  0
 11 40  1  0
 11 41  1  0
 12 42  1  1
 14 43  1  0
 17 44  1  0
 20 45  1  0
 22 46  1  0
 23 47  1  0
 25 48  1  0
 26 49  1  0
 27 50  1  0
 28 51  1  0
M  END
>  <smiles>  (64) 
O=C(NCC(=O)N1CCCCC1c1cc(F)cc(F)c1)c1ccc2ccccc2n1

>  <score_type>  (64) 
oracle

>  <origin>  (64) 
autodockgpu

>  <m_score__min__energy>  (64) 
-8.7899999999999991

>  <m_primary>  (64) 
energy

>  <rmsd>  (64) 
7.7566163760508315

>  <m_score__min__rmsd>  (64) 
7.7566163760508315

>  <meeko>  (64) 
{"free_energy": -7.06, "intermolecular_energy": -8.55, "internal_energy": -2.36, "cluster_size": 7, "cluster_id": 6, "rank_in_cluster": 1}

>  <energy>  (64) 
-8.39

>  <cluster_rmsd>  (64) 
0.27

>  <cluster>  (64) 
2

$$$$

     RDKit          3D

 51 54  0  0  0  0  0  0  0  0999 V2000
  140.1870   70.9820  221.3380 O   0  0  0  0  0  0  0  0  0  0  0  0
  139.9810   71.6120  222.3940 C   0  0  0  0  0  0  0  0  0  0  0  0
  139.7190   73.0250  222.3280 N   0  0  0  0  0  0  0  0  0  0  0  0
  139.6780   73.7910  221.1420 C   0  0  0  0  0  0  0  0  0  0  0  0
  140.6070   74.8740  220.8760 C   0  0  0  0  0  0  0  0  0  0  0  0
  141.2000   75.3060  221.9760 O   0  0  0  0  0  0  0  0  0  0  0  0
  141.0050   75.5410  219.7260 N   0  0  0  0  0  0  0  0  0  0  0  0
  140.1870   76.3320  218.8140 C   0  0  0  0  0  0  0  0  0  0  0  0
  140.6680   77.7590  218.8660 C   0  0  0  0  0  0  0  0  0  0  0  0
  141.8080   77.8870  219.8260 C   0  0  0  0  0  0  0  0  0  0  0  0
  142.9400   76.9030  219.5850 C   0  0  0  0  0  0  0  0  0  0  0  0
  142.4340   75.5370  219.2870 C   0  0  1  0  0  0  0  0  0  0  0  0
  143.2020   74.3970  219.7190 C   0  0  0  0  0  0  0  0  0  0  0  0
  142.8210   73.0650  219.6110 C   0  0  0  0  0  0  0  0  0  0  0  0
  143.5920   72.0260  220.0800 C   0  0  0  0  0  0  0  0  0  0  0  0
  143.1450   70.7460  219.9330 F   0  0  0  0  0  0  0  0  0  0  0  0
  144.7930   72.2620  220.6860 C   0  0  0  0  0  0  0  0  0  0  0  0
  145.2000   73.5740  220.8100 C   0  0  0  0  0  0  0  0  0  0  0  0
  146.3910   73.8370  221.4100 F   0  0  0  0  0  0  0  0  0  0  0  0
  144.4280   74.6130  220.3400 C   0  0  0  0  0  0  0  0  0  0  0  0
  140.0080   70.9110  223.6830 C   0  0  0  0  0  0  0  0  0  0  0  0
  139.5150   69.6260  223.7640 C   0  0  0  0  0  0  0  0  0  0  0  0
  139.4990   68.8910  224.9310 C   0  0  0  0  0  0  0  0  0  0  0  0
  140.0130   69.5090  226.0560 C   0  0  0  0  0  0  0  0  0  0  0  0
  139.9960   68.7650  227.2230 C   0  0  0  0  0  0  0  0  0  0  0  0
  140.5040   69.3630  228.3580 C   0  0  0  0  0  0  0  0  0  0  0  0
  141.0090   70.6520  228.3190 C   0  0  0  0  0  0  0  0  0  0  0  0
  141.0140   71.3680  227.1390 C   0  0  0  0  0  0  0  0  0  0  0  0
  140.5090   70.7910  225.9860 C   0  0  0  0  0  0  0  0  0  0  0  0
  140.4980   71.4720  224.8030 N   0  0  0  0  0  0  0  0  0  0  0  0
  139.5530   73.4620  223.2900 H   0  0  0  0  0  0  0  0  0  0  0  0
  139.7975   73.0769  220.3139 H   0  0  0  0  0  0  0  0  0  0  0  0
  138.7289   74.3345  221.2597 H   0  0  0  0  0  0  0  0  0  0  0  0
  140.2879   75.9423  217.7903 H   0  0  0  0  0  0  0  0  0  0  0  0
  139.1287   76.2772  219.1088 H   0  0  0  0  0  0  0  0  0  0  0  0
  141.0011   78.0666  217.8638 H   0  0  0  0  0  0  0  0  0  0  0  0
  139.8423   78.4033  219.2024 H   0  0  0  0  0  0  0  0  0  0  0  0
  142.2140   78.9061  219.7452 H   0  0  0  0  0  0  0  0  0  0  0  0
  141.4052   77.6661  220.8255 H   0  0  0  0  0  0  0  0  0  0  0  0
  143.5403   77.2536  218.7325 H   0  0  0  0  0  0  0  0  0  0  0  0
  143.5457   76.8494  220.5016 H   0  0  0  0  0  0  0  0  0  0  0  0
  142.5463   75.3599  218.2072 H   0  0  0  0  0  0  0  0  0  0  0  0
  141.8603   72.8306  219.1291 H   0  0  0  0  0  0  0  0  0  0  0  0
  145.4136   71.4352  221.0618 H   0  0  0  0  0  0  0  0  0  0  0  0
  144.7915   75.6443  220.4591 H   0  0  0  0  0  0  0  0  0  0  0  0
  139.1136   69.1629  222.8505 H   0  0  0  0  0  0  0  0  0  0  0  0
  139.0984   67.8671  224.9649 H   0  0  0  0  0  0  0  0  0  0  0  0
  139.5948   67.7410  227.2447 H   0  0  0  0  0  0  0  0  0  0  0  0
  140.5079   68.8079  229.3076 H   0  0  0  0  0  0  0  0  0  0  0  0
  141.4094   71.1089  229.2360 H   0  0  0  0  0  0  0  0  0  0  0  0
  141.4169   72.3913  227.1147 H   0  0  0  0  0  0  0  0  0  0  0  0
  1  2  2  0
  2  3  1  0
  3  4  1  0
  4  5  1  0
  5  6  2  0
  5  7  1  0
  7  8  1  0
  8  9  1  0
  9 10  1  0
 10 11  1  0
 11 12  1  0
 12 13  1  0
 13 14  2  0
 14 15  1  0
 15 16  1  0
 15 17  2  0
 17 18  1  0
 18 19  1  0
 18 20  2  0
  2 21  1  0
 21 22  2  0
 22 23  1  0
 23 24  2  0
 24 25  1  0
 25 26  2  0
 26 27  1  0
 27 28  2  0
 28 29  1  0
 29 30  2  0
 12  7  1  0
 20 13  1  0
 30 21  1  0
 29 24  1  0
  3 31  1  0
  4 32  1  0
  4 33  1  0
  8 34  1  0
  8 35  1  0
  9 36  1  0
  9 37  1  0
 10 38  1  0
 10 39  1  0
 11 40  1  0
 11 41  1  0
 12 42  1  6
 14 43  1  0
 17 44  1  0
 20 45  1  0
 22 46  1  0
 23 47  1  0
 25 48  1  0
 26 49  1  0
 27 50  1  0
 28 51  1  0
M  END
>  <smiles>  (65) 
O=C(NCC(=O)N1CCCCC1c1cc(F)cc(F)c1)c1ccc2ccccc2n1

>  <score_type>  (65) 
oracle

>  <origin>  (65) 
autodockgpu

>  <m_score__min__energy>  (65) 
-8.7899999999999991

>  <m_primary>  (65) 
energy

>  <rmsd>  (65) 
1.7791490199611681

>  <m_score__min__rmsd>  (65) 
1.7791490199611681

>  <meeko>  (65) 
{"free_energy": -8.43, "intermolecular_energy": -9.92, "internal_energy": -1.75, "cluster_size": 27, "cluster_id": 2, "rank_in_cluster": 3}

>  <energy>  (65) 
-8.39

>  <cluster_rmsd>  (65) 
0.14

>  <cluster>  (65) 
2

$$$$

     RDKit          3D

 51 54  0  0  0  0  0  0  0  0999 V2000
  140.7640   76.6800  218.5030 O   0  0  0  0  0  0  0  0  0  0  0  0
  141.9180   76.6710  218.9740 C   0  0  0  0  0  0  0  0  0  0  0  0
  142.4780   77.8950  219.4820 N   0  0  0  0  0  0  0  0  0  0  0  0
  141.8230   79.1470  219.4900 C   0  0  0  0  0  0  0  0  0  0  0  0
  141.5200   79.8640  220.7160 C   0  0  0  0  0  0  0  0  0  0  0  0
  140.7120   80.8890  220.5080 O   0  0  0  0  0  0  0  0  0  0  0  0
  141.8880   79.7010  222.0430 N   0  0  0  0  0  0  0  0  0  0  0  0
  142.9690   80.3600  222.7670 C   0  0  0  0  0  0  0  0  0  0  0  0
  142.3620   81.2070  223.8550 C   0  0  0  0  0  0  0  0  0  0  0  0
  140.8700   81.0920  223.8290 C   0  0  0  0  0  0  0  0  0  0  0  0
  140.3540   79.6640  223.8510 C   0  0  0  0  0  0  0  0  0  0  0  0
  141.1340   78.7780  222.9460 C   0  0  1  0  0  0  0  0  0  0  0  0
  140.4620   77.6900  222.2830 C   0  0  0  0  0  0  0  0  0  0  0  0
  139.2150   77.7490  221.6710 C   0  0  0  0  0  0  0  0  0  0  0  0
  138.6160   76.6560  221.0870 C   0  0  0  0  0  0  0  0  0  0  0  0
  137.3910   76.8000  220.5060 F   0  0  0  0  0  0  0  0  0  0  0  0
  139.2330   75.4380  221.0820 C   0  0  0  0  0  0  0  0  0  0  0  0
  140.4710   75.3450  221.6820 C   0  0  0  0  0  0  0  0  0  0  0  0
  141.1060   74.1430  221.6920 F   0  0  0  0  0  0  0  0  0  0  0  0
  141.0700   76.4390  222.2660 C   0  0  0  0  0  0  0  0  0  0  0  0
  142.6880   75.4220  219.0070 C   0  0  0  0  0  0  0  0  0  0  0  0
  142.2590   74.3440  218.2620 C   0  0  0  0  0  0  0  0  0  0  0  0
  142.9170   73.1320  218.2310 C   0  0  0  0  0  0  0  0  0  0  0  0
  144.0620   73.0330  219.0000 C   0  0  0  0  0  0  0  0  0  0  0  0
  144.7180   71.8150  218.9630 C   0  0  0  0  0  0  0  0  0  0  0  0
  145.8630   71.6930  219.7230 C   0  0  0  0  0  0  0  0  0  0  0  0
  146.3280   72.7530  220.4850 C   0  0  0  0  0  0  0  0  0  0  0  0
  145.6520   73.9560  220.5000 C   0  0  0  0  0  0  0  0  0  0  0  0
  144.5000   74.1030  219.7470 C   0  0  0  0  0  0  0  0  0  0  0  0
  143.8070   75.2790  219.7400 N   0  0  0  0  0  0  0  0  0  0  0  0
  143.4680   77.7730  219.8650 H   0  0  0  0  0  0  0  0  0  0  0  0
  142.4490   79.8225  218.8885 H   0  0  0  0  0  0  0  0  0  0  0  0
  140.8179   78.8765  219.1342 H   0  0  0  0  0  0  0  0  0  0  0  0
  143.6340   79.6046  223.2110 H   0  0  0  0  0  0  0  0  0  0  0  0
  143.5568   80.9879  222.0813 H   0  0  0  0  0  0  0  0  0  0  0  0
  142.7356   80.8660  224.8318 H   0  0  0  0  0  0  0  0  0  0  0  0
  142.6436   82.2576  223.6907 H   0  0  0  0  0  0  0  0  0  0  0  0
  140.4684   81.6172  224.7081 H   0  0  0  0  0  0  0  0  0  0  0  0
  140.5360   81.5336  222.8785 H   0  0  0  0  0  0  0  0  0  0  0  0
  140.4261   79.2757  224.8777 H   0  0  0  0  0  0  0  0  0  0  0  0
  139.3107   79.6733  223.5027 H   0  0  0  0  0  0  0  0  0  0  0  0
  141.7960   78.1555  223.5659 H   0  0  0  0  0  0  0  0  0  0  0  0
  138.6835   78.7119  221.6527 H   0  0  0  0  0  0  0  0  0  0  0  0
  138.7591   74.5617  220.6157 H   0  0  0  0  0  0  0  0  0  0  0  0
  142.0588   76.3200  222.7330 H   0  0  0  0  0  0  0  0  0  0  0  0
  141.3445   74.4563  217.6611 H   0  0  0  0  0  0  0  0  0  0  0  0
  142.5504   72.2891  217.6267 H   0  0  0  0  0  0  0  0  0  0  0  0
  144.3425   70.9797  218.3536 H   0  0  0  0  0  0  0  0  0  0  0  0
  146.4144   70.7412  219.7241 H   0  0  0  0  0  0  0  0  0  0  0  0
  147.2437   72.6345  221.0829 H   0  0  0  0  0  0  0  0  0  0  0  0
  146.0266   74.7934  221.1070 H   0  0  0  0  0  0  0  0  0  0  0  0
  1  2  2  0
  2  3  1  0
  3  4  1  0
  4  5  1  0
  5  6  2  0
  5  7  1  0
  7  8  1  0
  8  9  1  0
  9 10  1  0
 10 11  1  0
 11 12  1  0
 12 13  1  0
 13 14  2  0
 14 15  1  0
 15 16  1  0
 15 17  2  0
 17 18  1  0
 18 19  1  0
 18 20  2  0
  2 21  1  0
 21 22  2  0
 22 23  1  0
 23 24  2  0
 24 25  1  0
 25 26  2  0
 26 27  1  0
 27 28  2  0
 28 29  1  0
 29 30  2  0
 12  7  1  0
 20 13  1  0
 30 21  1  0
 29 24  1  0
  3 31  1  0
  4 32  1  0
  4 33  1  0
  8 34  1  0
  8 35  1  0
  9 36  1  0
  9 37  1  0
 10 38  1  0
 10 39  1  0
 11 40  1  0
 11 41  1  0
 12 42  1  1
 14 43  1  0
 17 44  1  0
 20 45  1  0
 22 46  1  0
 23 47  1  0
 25 48  1  0
 26 49  1  0
 27 50  1  0
 28 51  1  0
M  END
>  <smiles>  (66) 
O=C(NCC(=O)N1CCCCC1c1cc(F)cc(F)c1)c1ccc2ccccc2n1

>  <score_type>  (66) 
oracle

>  <origin>  (66) 
autodockgpu

>  <m_score__min__energy>  (66) 
-8.7899999999999991

>  <m_primary>  (66) 
energy

>  <rmsd>  (66) 
7.678385521830926

>  <m_score__min__rmsd>  (66) 
7.678385521830926

>  <meeko>  (66) 
{"free_energy": -6.9, "intermolecular_energy": -8.39, "internal_energy": -2.51, "cluster_size": 7, "cluster_id": 6, "rank_in_cluster": 6}

>  <energy>  (66) 
-8.39

>  <cluster_rmsd>  (66) 
0.26

>  <cluster>  (66) 
2

$$$$

     RDKit          3D

 51 54  0  0  0  0  0  0  0  0999 V2000
  141.2630   72.0900  221.7380 O   0  0  0  0  0  0  0  0  0  0  0  0
  140.3170   72.2910  222.5250 C   0  0  0  0  0  0  0  0  0  0  0  0
  139.3710   73.3340  222.2310 N   0  0  0  0  0  0  0  0  0  0  0  0
  139.4190   74.1830  221.1030 C   0  0  0  0  0  0  0  0  0  0  0  0
  140.5420   75.0610  220.8300 C   0  0  0  0  0  0  0  0  0  0  0  0
  141.3160   75.2250  221.8880 O   0  0  0  0  0  0  0  0  0  0  0  0
  140.9720   75.7530  219.7080 N   0  0  0  0  0  0  0  0  0  0  0  0
  140.1810   76.5650  218.7900 C   0  0  0  0  0  0  0  0  0  0  0  0
  140.6600   77.9900  218.8880 C   0  0  0  0  0  0  0  0  0  0  0  0
  141.7720   78.0960  219.8830 C   0  0  0  0  0  0  0  0  0  0  0  0
  142.9110   77.1170  219.6520 C   0  0  0  0  0  0  0  0  0  0  0  0
  142.4130   75.7590  219.3090 C   0  0  1  0  0  0  0  0  0  0  0  0
  143.1690   74.6090  219.7370 C   0  0  0  0  0  0  0  0  0  0  0  0
  144.3440   74.6310  220.4780 C   0  0  0  0  0  0  0  0  0  0  0  0
  145.0340   73.4910  220.8210 C   0  0  0  0  0  0  0  0  0  0  0  0
  146.1810   73.6010  221.5510 F   0  0  0  0  0  0  0  0  0  0  0  0
  144.5860   72.2590  220.4400 C   0  0  0  0  0  0  0  0  0  0  0  0
  143.4220   72.2010  219.7020 C   0  0  0  0  0  0  0  0  0  0  0  0
  142.9540   70.9880  219.3090 F   0  0  0  0  0  0  0  0  0  0  0  0
  142.7320   73.3430  219.3600 C   0  0  0  0  0  0  0  0  0  0  0  0
  140.1790   71.4680  223.7320 C   0  0  0  0  0  0  0  0  0  0  0  0
  139.5110   70.2640  223.6560 C   0  0  0  0  0  0  0  0  0  0  0  0
  139.3330   69.4260  224.7370 C   0  0  0  0  0  0  0  0  0  0  0  0
  139.8660   69.8500  225.9410 C   0  0  0  0  0  0  0  0  0  0  0  0
  139.6840   69.0030  227.0210 C   0  0  0  0  0  0  0  0  0  0  0  0
  140.2070   69.4060  228.2320 C   0  0  0  0  0  0  0  0  0  0  0  0
  140.8850   70.6090  228.3490 C   0  0  0  0  0  0  0  0  0  0  0  0
  141.0510   71.4310  227.2530 C   0  0  0  0  0  0  0  0  0  0  0  0
  140.5350   71.0490  226.0270 C   0  0  0  0  0  0  0  0  0  0  0  0
  140.6800   71.8390  224.9240 N   0  0  0  0  0  0  0  0  0  0  0  0
  138.6010   73.4160  222.9680 H   0  0  0  0  0  0  0  0  0  0  0  0
  139.3240   73.5279  220.2245 H   0  0  0  0  0  0  0  0  0  0  0  0
  138.6216   74.9050  221.3327 H   0  0  0  0  0  0  0  0  0  0  0  0
  140.3121   76.1982  217.7613 H   0  0  0  0  0  0  0  0  0  0  0  0
  139.1144   76.5043  219.0523 H   0  0  0  0  0  0  0  0  0  0  0  0
  141.0217   78.3199  217.9029 H   0  0  0  0  0  0  0  0  0  0  0  0
  139.8249   78.6268  219.2151 H   0  0  0  0  0  0  0  0  0  0  0  0
  142.1798   79.1166  219.8369 H   0  0  0  0  0  0  0  0  0  0  0  0
  141.3409   77.8528  220.8654 H   0  0  0  0  0  0  0  0  0  0  0  0
  143.5353   77.4863  218.8250 H   0  0  0  0  0  0  0  0  0  0  0  0
  143.4910   77.0424  220.5837 H   0  0  0  0  0  0  0  0  0  0  0  0
  142.5546   75.6073  218.2288 H   0  0  0  0  0  0  0  0  0  0  0  0
  144.7405   75.6035  220.8052 H   0  0  0  0  0  0  0  0  0  0  0  0
  145.1339   71.3448  220.7119 H   0  0  0  0  0  0  0  0  0  0  0  0
  141.8075   73.2513  218.7710 H   0  0  0  0  0  0  0  0  0  0  0  0
  139.0991   69.9562  222.6836 H   0  0  0  0  0  0  0  0  0  0  0  0
  138.7954   68.4706  224.6464 H   0  0  0  0  0  0  0  0  0  0  0  0
  139.1454   68.0495  226.9177 H   0  0  0  0  0  0  0  0  0  0  0  0
  140.0843   68.7640  229.1167 H   0  0  0  0  0  0  0  0  0  0  0  0
  141.2945   70.9113  229.3242 H   0  0  0  0  0  0  0  0  0  0  0  0
  141.5904   72.3844  227.3533 H   0  0  0  0  0  0  0  0  0  0  0  0
  1  2  2  0
  2  3  1  0
  3  4  1  0
  4  5  1  0
  5  6  2  0
  5  7  1  0
  7  8  1  0
  8  9  1  0
  9 10  1  0
 10 11  1  0
 11 12  1  0
 12 13  1  0
 13 14  2  0
 14 15  1  0
 15 16  1  0
 15 17  2  0
 17 18  1  0
 18 19  1  0
 18 20  2  0
  2 21  1  0
 21 22  2  0
 22 23  1  0
 23 24  2  0
 24 25  1  0
 25 26  2  0
 26 27  1  0
 27 28  2  0
 28 29  1  0
 29 30  2  0
 12  7  1  0
 20 13  1  0
 30 21  1  0
 29 24  1  0
  3 31  1  0
  4 32  1  0
  4 33  1  0
  8 34  1  0
  8 35  1  0
  9 36  1  0
  9 37  1  0
 10 38  1  0
 10 39  1  0
 11 40  1  0
 11 41  1  0
 12 42  1  6
 14 43  1  0
 17 44  1  0
 20 45  1  0
 22 46  1  0
 23 47  1  0
 25 48  1  0
 26 49  1  0
 27 50  1  0
 28 51  1  0
M  END
>  <smiles>  (67) 
O=C(NCC(=O)N1CCCCC1c1cc(F)cc(F)c1)c1ccc2ccccc2n1

>  <score_type>  (67) 
oracle

>  <origin>  (67) 
autodockgpu

>  <m_score__min__energy>  (67) 
-8.7899999999999991

>  <m_primary>  (67) 
energy

>  <rmsd>  (67) 
1.8879055988031388

>  <m_score__min__rmsd>  (67) 
1.8879055988031388

>  <meeko>  (67) 
{"free_energy": -8.38, "intermolecular_energy": -9.88, "internal_energy": -1.61, "cluster_size": 27, "cluster_id": 2, "rank_in_cluster": 8}

>  <energy>  (67) 
-8.38

>  <cluster_rmsd>  (67) 
0.39

>  <cluster>  (67) 
2

$$$$

     RDKit          3D

 51 54  0  0  0  0  0  0  0  0999 V2000
  141.0860   71.8410  221.5220 O   0  0  0  0  0  0  0  0  0  0  0  0
  140.3100   72.1990  222.4290 C   0  0  0  0  0  0  0  0  0  0  0  0
  139.5100   73.3800  222.2420 N   0  0  0  0  0  0  0  0  0  0  0  0
  139.5270   74.2010  221.0930 C   0  0  0  0  0  0  0  0  0  0  0  0
  140.6890   74.9780  220.7020 C   0  0  0  0  0  0  0  0  0  0  0  0
  141.5220   75.1730  221.7090 O   0  0  0  0  0  0  0  0  0  0  0  0
  141.1090   75.5480  219.5090 N   0  0  0  0  0  0  0  0  0  0  0  0
  140.3030   76.2230  218.4980 C   0  0  0  0  0  0  0  0  0  0  0  0
  140.7380   77.6640  218.4330 C   0  0  0  0  0  0  0  0  0  0  0  0
  141.8370   77.9180  219.4150 C   0  0  0  0  0  0  0  0  0  0  0  0
  143.0060   76.9550  219.3060 C   0  0  0  0  0  0  0  0  0  0  0  0
  142.5530   75.5510  219.1210 C   0  0  1  0  0  0  0  0  0  0  0  0
  143.3390   74.4820  219.6840 C   0  0  0  0  0  0  0  0  0  0  0  0
  144.4830   74.6280  220.4580 C   0  0  0  0  0  0  0  0  0  0  0  0
  145.2060   73.5580  220.9340 C   0  0  0  0  0  0  0  0  0  0  0  0
  146.3180   73.7890  221.6880 F   0  0  0  0  0  0  0  0  0  0  0  0
  144.8240   72.2760  220.6590 C   0  0  0  0  0  0  0  0  0  0  0  0
  143.6920   72.0970  219.8910 C   0  0  0  0  0  0  0  0  0  0  0  0
  143.2900   70.8310  219.6020 F   0  0  0  0  0  0  0  0  0  0  0  0
  142.9690   73.1680  219.4170 C   0  0  0  0  0  0  0  0  0  0  0  0
  140.2200   71.4190  223.6690 C   0  0  0  0  0  0  0  0  0  0  0  0
  139.6360   70.1700  223.6410 C   0  0  0  0  0  0  0  0  0  0  0  0
  139.5090   69.3660  224.7550 C   0  0  0  0  0  0  0  0  0  0  0  0
  140.0030   69.8750  225.9420 C   0  0  0  0  0  0  0  0  0  0  0  0
  139.8730   69.0620  227.0550 C   0  0  0  0  0  0  0  0  0  0  0  0
  140.3590   69.5500  228.2500 C   0  0  0  0  0  0  0  0  0  0  0  0
  140.9530   70.7990  228.3210 C   0  0  0  0  0  0  0  0  0  0  0  0
  141.0690   71.5860  227.1920 C   0  0  0  0  0  0  0  0  0  0  0  0
  140.5880   71.1200  225.9810 C   0  0  0  0  0  0  0  0  0  0  0  0
  140.6870   71.8720  224.8470 N   0  0  0  0  0  0  0  0  0  0  0  0
  138.8780   73.5910  223.0780 H   0  0  0  0  0  0  0  0  0  0  0  0
  139.3025   73.5399  220.2429 H   0  0  0  0  0  0  0  0  0  0  0  0
  138.8137   74.9906  221.3720 H   0  0  0  0  0  0  0  0  0  0  0  0
  140.4552   75.7437  217.5197 H   0  0  0  0  0  0  0  0  0  0  0  0
  139.2362   76.1599  218.7587 H   0  0  0  0  0  0  0  0  0  0  0  0
  141.0985   77.8890  217.4184 H   0  0  0  0  0  0  0  0  0  0  0  0
  139.8813   78.3084  218.6795 H   0  0  0  0  0  0  0  0  0  0  0  0
  142.2148   78.9384  219.2532 H   0  0  0  0  0  0  0  0  0  0  0  0
  141.4042   77.7766  220.4163 H   0  0  0  0  0  0  0  0  0  0  0  0
  143.6263   77.2448  218.4450 H   0  0  0  0  0  0  0  0  0  0  0  0
  143.5791   77.0074  220.2435 H   0  0  0  0  0  0  0  0  0  0  0  0
  142.7105   75.2780  218.0671 H   0  0  0  0  0  0  0  0  0  0  0  0
  144.8265   75.6442  220.7014 H   0  0  0  0  0  0  0  0  0  0  0  0
  145.3983   71.4170  221.0363 H   0  0  0  0  0  0  0  0  0  0  0  0
  142.0719   72.9792  218.8090 H   0  0  0  0  0  0  0  0  0  0  0  0
  139.2516   69.7954  222.6809 H   0  0  0  0  0  0  0  0  0  0  0  0
  139.0396   68.3726  224.7017 H   0  0  0  0  0  0  0  0  0  0  0  0
  139.4025   68.0699  226.9891 H   0  0  0  0  0  0  0  0  0  0  0  0
  140.2735   68.9381  229.1601 H   0  0  0  0  0  0  0  0  0  0  0  0
  141.3355   71.1672  229.2844 H   0  0  0  0  0  0  0  0  0  0  0  0
  141.5410   72.5776  227.2550 H   0  0  0  0  0  0  0  0  0  0  0  0
  1  2  2  0
  2  3  1  0
  3  4  1  0
  4  5  1  0
  5  6  2  0
  5  7  1  0
  7  8  1  0
  8  9  1  0
  9 10  1  0
 10 11  1  0
 11 12  1  0
 12 13  1  0
 13 14  2  0
 14 15  1  0
 15 16  1  0
 15 17  2  0
 17 18  1  0
 18 19  1  0
 18 20  2  0
  2 21  1  0
 21 22  2  0
 22 23  1  0
 23 24  2  0
 24 25  1  0
 25 26  2  0
 26 27  1  0
 27 28  2  0
 28 29  1  0
 29 30  2  0
 12  7  1  0
 20 13  1  0
 30 21  1  0
 29 24  1  0
  3 31  1  0
  4 32  1  0
  4 33  1  0
  8 34  1  0
  8 35  1  0
  9 36  1  0
  9 37  1  0
 10 38  1  0
 10 39  1  0
 11 40  1  0
 11 41  1  0
 12 42  1  6
 14 43  1  0
 17 44  1  0
 20 45  1  0
 22 46  1  0
 23 47  1  0
 25 48  1  0
 26 49  1  0
 27 50  1  0
 28 51  1  0
M  END
>  <smiles>  (68) 
O=C(NCC(=O)N1CCCCC1c1cc(F)cc(F)c1)c1ccc2ccccc2n1

>  <score_type>  (68) 
oracle

>  <origin>  (68) 
autodockgpu

>  <m_score__min__energy>  (68) 
-8.7899999999999991

>  <m_primary>  (68) 
energy

>  <rmsd>  (68) 
1.8339690498699155

>  <m_score__min__rmsd>  (68) 
1.8339690498699155

>  <meeko>  (68) 
{"free_energy": -8.41, "intermolecular_energy": -9.9, "internal_energy": -1.61, "cluster_size": 27, "cluster_id": 2, "rank_in_cluster": 4}

>  <energy>  (68) 
-8.38

>  <cluster_rmsd>  (68) 
1.38

>  <cluster>  (68) 
2

$$$$

     RDKit          3D

 51 54  0  0  0  0  0  0  0  0999 V2000
  139.8820   71.3010  221.3310 O   0  0  0  0  0  0  0  0  0  0  0  0
  139.8120   71.9440  222.3970 C   0  0  0  0  0  0  0  0  0  0  0  0
  139.6300   73.3700  222.3450 N   0  0  0  0  0  0  0  0  0  0  0  0
  139.5260   74.1350  221.1620 C   0  0  0  0  0  0  0  0  0  0  0  0
  140.4560   75.1990  220.8330 C   0  0  0  0  0  0  0  0  0  0  0  0
  140.9650   75.7700  221.9110 O   0  0  0  0  0  0  0  0  0  0  0  0
  140.9230   75.7360  219.6420 N   0  0  0  0  0  0  0  0  0  0  0  0
  140.1840   76.5050  218.6470 C   0  0  0  0  0  0  0  0  0  0  0  0
  140.7690   77.8920  218.5930 C   0  0  0  0  0  0  0  0  0  0  0  0
  141.8990   78.0160  219.5660 C   0  0  0  0  0  0  0  0  0  0  0  0
  142.9580   76.9350  219.4340 C   0  0  0  0  0  0  0  0  0  0  0  0
  142.3550   75.5900  219.2390 C   0  0  1  0  0  0  0  0  0  0  0  0
  143.0280   74.4370  219.7810 C   0  0  0  0  0  0  0  0  0  0  0  0
  142.5150   73.1470  219.8500 C   0  0  0  0  0  0  0  0  0  0  0  0
  143.2010   72.0980  220.4170 C   0  0  0  0  0  0  0  0  0  0  0  0
  142.6250   70.8620  220.4440 F   0  0  0  0  0  0  0  0  0  0  0  0
  144.4450   72.2810  220.9510 C   0  0  0  0  0  0  0  0  0  0  0  0
  144.9830   73.5500  220.8990 C   0  0  0  0  0  0  0  0  0  0  0  0
  146.2200   73.7600  221.4230 F   0  0  0  0  0  0  0  0  0  0  0  0
  144.2960   74.5990  220.3310 C   0  0  0  0  0  0  0  0  0  0  0  0
  139.9160   71.2450  223.6830 C   0  0  0  0  0  0  0  0  0  0  0  0
  139.5480   69.9180  223.7630 C   0  0  0  0  0  0  0  0  0  0  0  0
  139.6120   69.1820  224.9280 C   0  0  0  0  0  0  0  0  0  0  0  0
  140.0720   69.8430  226.0510 C   0  0  0  0  0  0  0  0  0  0  0  0
  140.1340   69.0980  227.2160 C   0  0  0  0  0  0  0  0  0  0  0  0
  140.5910   69.7380  228.3500 C   0  0  0  0  0  0  0  0  0  0  0  0
  140.9700   71.0700  228.3110 C   0  0  0  0  0  0  0  0  0  0  0  0
  140.8970   71.7870  227.1340 C   0  0  0  0  0  0  0  0  0  0  0  0
  140.4420   71.1670  225.9830 C   0  0  0  0  0  0  0  0  0  0  0  0
  140.3570   71.8470  224.8030 N   0  0  0  0  0  0  0  0  0  0  0  0
  139.5790   73.8180  223.3150 H   0  0  0  0  0  0  0  0  0  0  0  0
  139.5772   73.4175  220.3298 H   0  0  0  0  0  0  0  0  0  0  0  0
  138.5973   74.6969  221.3400 H   0  0  0  0  0  0  0  0  0  0  0  0
  140.2752   76.0240  217.6620 H   0  0  0  0  0  0  0  0  0  0  0  0
  139.1191   76.5526  218.9184 H   0  0  0  0  0  0  0  0  0  0  0  0
  141.1413   78.0897  217.5770 H   0  0  0  0  0  0  0  0  0  0  0  0
  139.9881   78.6207  218.8560 H   0  0  0  0  0  0  0  0  0  0  0  0
  142.3818   78.9922  219.4109 H   0  0  0  0  0  0  0  0  0  0  0  0
  141.4634   77.9097  220.5704 H   0  0  0  0  0  0  0  0  0  0  0  0
  143.5973   77.1670  218.5695 H   0  0  0  0  0  0  0  0  0  0  0  0
  143.5430   76.9149  220.3653 H   0  0  0  0  0  0  0  0  0  0  0  0
  142.4713   75.3147  218.1804 H   0  0  0  0  0  0  0  0  0  0  0  0
  141.5154   72.9563  219.4324 H   0  0  0  0  0  0  0  0  0  0  0  0
  144.9979   71.4461  221.4062 H   0  0  0  0  0  0  0  0  0  0  0  0
  144.7631   75.5947  220.3113 H   0  0  0  0  0  0  0  0  0  0  0  0
  139.1849   69.4212  222.8512 H   0  0  0  0  0  0  0  0  0  0  0  0
  139.3125   68.1241  224.9613 H   0  0  0  0  0  0  0  0  0  0  0  0
  139.8318   68.0405  227.2370 H   0  0  0  0  0  0  0  0  0  0  0  0
  140.6552   69.1831  229.2976 H   0  0  0  0  0  0  0  0  0  0  0  0
  141.3324   71.5606  229.2264 H   0  0  0  0  0  0  0  0  0  0  0  0
  141.1985   72.8446  227.1107 H   0  0  0  0  0  0  0  0  0  0  0  0
  1  2  2  0
  2  3  1  0
  3  4  1  0
  4  5  1  0
  5  6  2  0
  5  7  1  0
  7  8  1  0
  8  9  1  0
  9 10  1  0
 10 11  1  0
 11 12  1  0
 12 13  1  0
 13 14  2  0
 14 15  1  0
 15 16  1  0
 15 17  2  0
 17 18  1  0
 18 19  1  0
 18 20  2  0
  2 21  1  0
 21 22  2  0
 22 23  1  0
 23 24  2  0
 24 25  1  0
 25 26  2  0
 26 27  1  0
 27 28  2  0
 28 29  1  0
 29 30  2  0
 12  7  1  0
 20 13  1  0
 30 21  1  0
 29 24  1  0
  3 31  1  0
  4 32  1  0
  4 33  1  0
  8 34  1  0
  8 35  1  0
  9 36  1  0
  9 37  1  0
 10 38  1  0
 10 39  1  0
 11 40  1  0
 11 41  1  0
 12 42  1  6
 14 43  1  0
 17 44  1  0
 20 45  1  0
 22 46  1  0
 23 47  1  0
 25 48  1  0
 26 49  1  0
 27 50  1  0
 28 51  1  0
M  END
>  <smiles>  (69) 
O=C(NCC(=O)N1CCCCC1c1cc(F)cc(F)c1)c1ccc2ccccc2n1

>  <score_type>  (69) 
oracle

>  <origin>  (69) 
autodockgpu

>  <m_score__min__energy>  (69) 
-8.7899999999999991

>  <m_primary>  (69) 
energy

>  <rmsd>  (69) 
1.7982733601604959

>  <m_score__min__rmsd>  (69) 
1.7982733601604959

>  <meeko>  (69) 
{"free_energy": -8.28, "intermolecular_energy": -9.77, "internal_energy": -1.85, "cluster_size": 27, "cluster_id": 2, "rank_in_cluster": 13}

>  <energy>  (69) 
-8.34

>  <cluster_rmsd>  (69) 
0.38

>  <cluster>  (69) 
2

$$$$

     RDKit          3D

 51 54  0  0  0  0  0  0  0  0999 V2000
  141.4210   72.3560  221.5870 O   0  0  0  0  0  0  0  0  0  0  0  0
  140.5350   72.6070  222.4280 C   0  0  0  0  0  0  0  0  0  0  0  0
  139.7940   73.8350  222.3200 N   0  0  0  0  0  0  0  0  0  0  0  0
  139.9860   74.8170  221.3220 C   0  0  0  0  0  0  0  0  0  0  0  0
  141.0000   75.8510  221.4250 C   0  0  0  0  0  0  0  0  0  0  0  0
  141.0070   76.4270  222.6140 O   0  0  0  0  0  0  0  0  0  0  0  0
  141.9550   76.3530  220.5530 N   0  0  0  0  0  0  0  0  0  0  0  0
  142.9410   75.6140  219.7720 C   0  0  0  0  0  0  0  0  0  0  0  0
  142.6340   75.8160  218.3110 C   0  0  0  0  0  0  0  0  0  0  0  0
  141.4340   76.6960  218.1500 C   0  0  0  0  0  0  0  0  0  0  0  0
  141.5160   78.0070  218.9120 C   0  0  0  0  0  0  0  0  0  0  0  0
  142.0600   77.8200  220.2830 C   0  0  1  0  0  0  0  0  0  0  0  0
  141.5870   78.6700  221.3460 C   0  0  0  0  0  0  0  0  0  0  0  0
  142.3630   79.2270  222.3540 C   0  0  0  0  0  0  0  0  0  0  0  0
  141.8370   80.0040  223.3610 C   0  0  0  0  0  0  0  0  0  0  0  0
  142.6690   80.5140  224.3130 F   0  0  0  0  0  0  0  0  0  0  0  0
  140.4980   80.2660  223.4160 C   0  0  0  0  0  0  0  0  0  0  0  0
  139.6990   79.7280  222.4300 C   0  0  0  0  0  0  0  0  0  0  0  0
  138.3620   79.9730  222.4620 F   0  0  0  0  0  0  0  0  0  0  0  0
  140.2270   78.9520  221.4230 C   0  0  0  0  0  0  0  0  0  0  0  0
  140.2600   71.6560  223.5100 C   0  0  0  0  0  0  0  0  0  0  0  0
  139.5600   70.5010  223.2330 C   0  0  0  0  0  0  0  0  0  0  0  0
  139.2550   69.5500  224.1860 C   0  0  0  0  0  0  0  0  0  0  0  0
  139.6920   69.8050  225.4730 C   0  0  0  0  0  0  0  0  0  0  0  0
  139.3830   68.8470  226.4230 C   0  0  0  0  0  0  0  0  0  0  0  0
  139.8090   69.0810  227.7140 C   0  0  0  0  0  0  0  0  0  0  0  0
  140.5150   70.2300  228.0340 C   0  0  0  0  0  0  0  0  0  0  0  0
  140.8080   71.1670  227.0630 C   0  0  0  0  0  0  0  0  0  0  0  0
  140.3920   70.9550  225.7610 C   0  0  0  0  0  0  0  0  0  0  0  0
  140.6640   71.8610  224.7770 N   0  0  0  0  0  0  0  0  0  0  0  0
  139.0590   73.9460  223.0870 H   0  0  0  0  0  0  0  0  0  0  0  0
  140.2028   74.2691  220.3931 H   0  0  0  0  0  0  0  0  0  0  0  0
  139.0591   75.4036  221.4041 H   0  0  0  0  0  0  0  0  0  0  0  0
  143.9503   75.9899  219.9956 H   0  0  0  0  0  0  0  0  0  0  0  0
  142.8997   74.5440  220.0238 H   0  0  0  0  0  0  0  0  0  0  0  0
  143.4983   76.2873  217.8202 H   0  0  0  0  0  0  0  0  0  0  0  0
  142.4261   74.8390  217.8503 H   0  0  0  0  0  0  0  0  0  0  0  0
  141.3156   76.9254  217.0807 H   0  0  0  0  0  0  0  0  0  0  0  0
  140.5786   76.1426  218.5647 H   0  0  0  0  0  0  0  0  0  0  0  0
  142.1710   78.6979  218.3610 H   0  0  0  0  0  0  0  0  0  0  0  0
  140.4974   78.4123  219.0025 H   0  0  0  0  0  0  0  0  0  0  0  0
  143.0991   78.1808  220.2882 H   0  0  0  0  0  0  0  0  0  0  0  0
  143.4468   79.0388  222.3474 H   0  0  0  0  0  0  0  0  0  0  0  0
  140.0718   80.8849  224.2193 H   0  0  0  0  0  0  0  0  0  0  0  0
  139.5531   78.5425  220.6561 H   0  0  0  0  0  0  0  0  0  0  0  0
  139.2272   70.3283  222.1989 H   0  0  0  0  0  0  0  0  0  0  0  0
  138.6941   68.6377  223.9350 H   0  0  0  0  0  0  0  0  0  0  0  0
  138.8219   67.9382  226.1599 H   0  0  0  0  0  0  0  0  0  0  0  0
  139.5852   68.3453  228.5006 H   0  0  0  0  0  0  0  0  0  0  0  0
  140.8446   70.3968  229.0701 H   0  0  0  0  0  0  0  0  0  0  0  0
  141.3689   72.0767  227.3234 H   0  0  0  0  0  0  0  0  0  0  0  0
  1  2  2  0
  2  3  1  0
  3  4  1  0
  4  5  1  0
  5  6  2  0
  5  7  1  0
  7  8  1  0
  8  9  1  0
  9 10  1  0
 10 11  1  0
 11 12  1  0
 12 13  1  0
 13 14  2  0
 14 15  1  0
 15 16  1  0
 15 17  2  0
 17 18  1  0
 18 19  1  0
 18 20  2  0
  2 21  1  0
 21 22  2  0
 22 23  1  0
 23 24  2  0
 24 25  1  0
 25 26  2  0
 26 27  1  0
 27 28  2  0
 28 29  1  0
 29 30  2  0
 12  7  1  0
 20 13  1  0
 30 21  1  0
 29 24  1  0
  3 31  1  0
  4 32  1  0
  4 33  1  0
  8 34  1  0
  8 35  1  0
  9 36  1  0
  9 37  1  0
 10 38  1  0
 10 39  1  0
 11 40  1  0
 11 41  1  0
 12 42  1  6
 14 43  1  0
 17 44  1  0
 20 45  1  0
 22 46  1  0
 23 47  1  0
 25 48  1  0
 26 49  1  0
 27 50  1  0
 28 51  1  0
M  END
>  <smiles>  (70) 
O=C(NCC(=O)N1CCCCC1c1cc(F)cc(F)c1)c1ccc2ccccc2n1

>  <score_type>  (70) 
oracle

>  <origin>  (70) 
autodockgpu

>  <m_score__min__energy>  (70) 
-8.7899999999999991

>  <m_primary>  (70) 
energy

>  <rmsd>  (70) 
2.1385061119623376

>  <m_score__min__rmsd>  (70) 
2.1385061119623376

>  <meeko>  (70) 
{"free_energy": -8.58, "intermolecular_energy": -10.07, "internal_energy": -1.13, "cluster_size": 9, "cluster_id": 1, "rank_in_cluster": 8}

>  <energy>  (70) 
-8.32

>  <cluster_rmsd>  (70) 
0.28

>  <cluster>  (70) 
2

$$$$

     RDKit          3D

 51 54  0  0  0  0  0  0  0  0999 V2000
  140.2000   71.2440  221.3020 O   0  0  0  0  0  0  0  0  0  0  0  0
  139.9930   71.8850  222.3520 C   0  0  0  0  0  0  0  0  0  0  0  0
  139.7070   73.2920  222.2690 N   0  0  0  0  0  0  0  0  0  0  0  0
  139.6420   74.0410  221.0730 C   0  0  0  0  0  0  0  0  0  0  0  0
  140.5600   75.1260  220.7770 C   0  0  0  0  0  0  0  0  0  0  0  0
  141.0500   75.6780  221.8730 O   0  0  0  0  0  0  0  0  0  0  0  0
  141.0300   75.6970  219.6030 N   0  0  0  0  0  0  0  0  0  0  0  0
  140.2750   76.4200  218.5860 C   0  0  0  0  0  0  0  0  0  0  0  0
  140.7690   77.8430  218.5540 C   0  0  0  0  0  0  0  0  0  0  0  0
  141.8550   78.0370  219.5640 C   0  0  0  0  0  0  0  0  0  0  0  0
  142.9860   77.0290  219.4660 C   0  0  0  0  0  0  0  0  0  0  0  0
  142.4810   75.6470  219.2480 C   0  0  1  0  0  0  0  0  0  0  0  0
  143.2100   74.5390  219.8110 C   0  0  0  0  0  0  0  0  0  0  0  0
  144.4470   74.6080  220.4400 C   0  0  0  0  0  0  0  0  0  0  0  0
  145.1030   73.4990  220.9230 C   0  0  0  0  0  0  0  0  0  0  0  0
  146.3150   73.6540  221.5290 F   0  0  0  0  0  0  0  0  0  0  0  0
  144.5570   72.2530  220.8020 C   0  0  0  0  0  0  0  0  0  0  0  0
  143.3300   72.1500  220.1810 C   0  0  0  0  0  0  0  0  0  0  0  0
  142.7640   70.9210  220.0470 F   0  0  0  0  0  0  0  0  0  0  0  0
  142.6730   73.2600  219.6990 C   0  0  0  0  0  0  0  0  0  0  0  0
  140.0430   71.2030  223.6500 C   0  0  0  0  0  0  0  0  0  0  0  0
  139.5750   69.9100  223.7520 C   0  0  0  0  0  0  0  0  0  0  0  0
  139.5820   69.1910  224.9300 C   0  0  0  0  0  0  0  0  0  0  0  0
  140.0920   69.8350  226.0420 C   0  0  0  0  0  0  0  0  0  0  0  0
  140.0970   69.1070  227.2200 C   0  0  0  0  0  0  0  0  0  0  0  0
  140.6020   69.7300  228.3420 C   0  0  0  0  0  0  0  0  0  0  0  0
  141.0820   71.0280  228.2810 C   0  0  0  0  0  0  0  0  0  0  0  0
  141.0640   71.7280  227.0910 C   0  0  0  0  0  0  0  0  0  0  0  0
  140.5630   71.1250  225.9510 C   0  0  0  0  0  0  0  0  0  0  0  0
  140.5300   71.7880  224.7590 N   0  0  0  0  0  0  0  0  0  0  0  0
  139.5410   73.7400  223.2250 H   0  0  0  0  0  0  0  0  0  0  0  0
  139.7527   73.3160  220.2531 H   0  0  0  0  0  0  0  0  0  0  0  0
  138.6914   74.5802  221.1982 H   0  0  0  0  0  0  0  0  0  0  0  0
  140.4297   75.9502  217.6035 H   0  0  0  0  0  0  0  0  0  0  0  0
  139.2010   76.3964  218.8225 H   0  0  0  0  0  0  0  0  0  0  0  0
  141.1611   78.0688  217.5514 H   0  0  0  0  0  0  0  0  0  0  0  0
  139.9335   78.5178  218.7920 H   0  0  0  0  0  0  0  0  0  0  0  0
  142.2774   79.0433  219.4268 H   0  0  0  0  0  0  0  0  0  0  0  0
  141.3940   77.8984  220.5531 H   0  0  0  0  0  0  0  0  0  0  0  0
  143.6374   77.3064  218.6241 H   0  0  0  0  0  0  0  0  0  0  0  0
  143.5385   77.0436  220.4171 H   0  0  0  0  0  0  0  0  0  0  0  0
  142.6516   75.3836  218.1937 H   0  0  0  0  0  0  0  0  0  0  0  0
  144.9230   75.5928  220.5570 H   0  0  0  0  0  0  0  0  0  0  0  0
  145.0774   71.3633  221.1862 H   0  0  0  0  0  0  0  0  0  0  0  0
  141.6954   73.1321  219.2113 H   0  0  0  0  0  0  0  0  0  0  0  0
  139.1756   69.4268  222.8481 H   0  0  0  0  0  0  0  0  0  0  0  0
  139.2019   68.1600  224.9814 H   0  0  0  0  0  0  0  0  0  0  0  0
  139.7147   68.0763  227.2591 H   0  0  0  0  0  0  0  0  0  0  0  0
  140.6240   69.1884  229.2992 H   0  0  0  0  0  0  0  0  0  0  0  0
  141.4809   71.5051  229.1883 H   0  0  0  0  0  0  0  0  0  0  0  0
  141.4457   72.7588  227.0496 H   0  0  0  0  0  0  0  0  0  0  0  0
  1  2  2  0
  2  3  1  0
  3  4  1  0
  4  5  1  0
  5  6  2  0
  5  7  1  0
  7  8  1  0
  8  9  1  0
  9 10  1  0
 10 11  1  0
 11 12  1  0
 12 13  1  0
 13 14  2  0
 14 15  1  0
 15 16  1  0
 15 17  2  0
 17 18  1  0
 18 19  1  0
 18 20  2  0
  2 21  1  0
 21 22  2  0
 22 23  1  0
 23 24  2  0
 24 25  1  0
 25 26  2  0
 26 27  1  0
 27 28  2  0
 28 29  1  0
 29 30  2  0
 12  7  1  0
 20 13  1  0
 30 21  1  0
 29 24  1  0
  3 31  1  0
  4 32  1  0
  4 33  1  0
  8 34  1  0
  8 35  1  0
  9 36  1  0
  9 37  1  0
 10 38  1  0
 10 39  1  0
 11 40  1  0
 11 41  1  0
 12 42  1  6
 14 43  1  0
 17 44  1  0
 20 45  1  0
 22 46  1  0
 23 47  1  0
 25 48  1  0
 26 49  1  0
 27 50  1  0
 28 51  1  0
M  END
>  <smiles>  (71) 
O=C(NCC(=O)N1CCCCC1c1cc(F)cc(F)c1)c1ccc2ccccc2n1

>  <score_type>  (71) 
oracle

>  <origin>  (71) 
autodockgpu

>  <m_score__min__energy>  (71) 
-8.7899999999999991

>  <m_primary>  (71) 
energy

>  <rmsd>  (71) 
1.814588882391184

>  <m_score__min__rmsd>  (71) 
1.814588882391184

>  <meeko>  (71) 
{"free_energy": -8.39, "intermolecular_energy": -9.88, "internal_energy": -1.73, "cluster_size": 27, "cluster_id": 2, "rank_in_cluster": 7}

>  <energy>  (71) 
-8.28

>  <cluster_rmsd>  (71) 
0.31

>  <cluster>  (71) 
2

$$$$

     RDKit          3D

 51 54  0  0  0  0  0  0  0  0999 V2000
  141.1660   71.8470  221.7710 O   0  0  0  0  0  0  0  0  0  0  0  0
  140.2220   72.0170  222.5670 C   0  0  0  0  0  0  0  0  0  0  0  0
  139.2600   73.0530  222.3020 N   0  0  0  0  0  0  0  0  0  0  0  0
  139.2900   73.9280  221.1940 C   0  0  0  0  0  0  0  0  0  0  0  0
  140.3830   74.8520  220.9540 C   0  0  0  0  0  0  0  0  0  0  0  0
  141.2380   74.8870  221.9610 O   0  0  0  0  0  0  0  0  0  0  0  0
  140.7210   75.6930  219.9030 N   0  0  0  0  0  0  0  0  0  0  0  0
  139.8390   76.5310  219.0990 C   0  0  0  0  0  0  0  0  0  0  0  0
  140.2080   77.9720  219.3400 C   0  0  0  0  0  0  0  0  0  0  0  0
  141.3410   78.0610  220.3130 C   0  0  0  0  0  0  0  0  0  0  0  0
  142.5440   77.2080  219.9490 C   0  0  0  0  0  0  0  0  0  0  0  0
  142.1430   75.8580  219.4730 C   0  0  1  0  0  0  0  0  0  0  0  0
  143.0000   74.7340  219.7540 C   0  0  0  0  0  0  0  0  0  0  0  0
  144.2220   74.7820  220.4140 C   0  0  0  0  0  0  0  0  0  0  0  0
  145.0070   73.6700  220.6170 C   0  0  0  0  0  0  0  0  0  0  0  0
  146.1930   73.8030  221.2760 F   0  0  0  0  0  0  0  0  0  0  0  0
  144.6130   72.4420  220.1670 C   0  0  0  0  0  0  0  0  0  0  0  0
  143.4050   72.3600  219.5070 C   0  0  0  0  0  0  0  0  0  0  0  0
  142.9890   71.1500  219.0480 F   0  0  0  0  0  0  0  0  0  0  0  0
  142.6200   73.4730  219.3050 C   0  0  0  0  0  0  0  0  0  0  0  0
  140.1010   71.1650  223.7550 C   0  0  0  0  0  0  0  0  0  0  0  0
  139.4270   69.9660  223.6620 C   0  0  0  0  0  0  0  0  0  0  0  0
  139.2640   69.1010  224.7250 C   0  0  0  0  0  0  0  0  0  0  0  0
  139.8200   69.4930  225.9290 C   0  0  0  0  0  0  0  0  0  0  0  0
  139.6530   68.6210  226.9900 C   0  0  0  0  0  0  0  0  0  0  0  0
  140.1990   68.9910  228.2010 C   0  0  0  0  0  0  0  0  0  0  0  0
  140.8850   70.1880  228.3370 C   0  0  0  0  0  0  0  0  0  0  0  0
  141.0350   71.0370  227.2590 C   0  0  0  0  0  0  0  0  0  0  0  0
  140.4950   70.6880  226.0330 C   0  0  0  0  0  0  0  0  0  0  0  0
  140.6250   71.5040  224.9470 N   0  0  0  0  0  0  0  0  0  0  0  0
  138.4920   73.1070  223.0440 H   0  0  0  0  0  0  0  0  0  0  0  0
  139.2291   73.2897  220.3002 H   0  0  0  0  0  0  0  0  0  0  0  0
  138.4643   74.6154  221.4299 H   0  0  0  0  0  0  0  0  0  0  0  0
  139.9641   76.2880  218.0335 H   0  0  0  0  0  0  0  0  0  0  0  0
  138.7898   76.3560  219.3793 H   0  0  0  0  0  0  0  0  0  0  0  0
  140.5097   78.4336  218.3882 H   0  0  0  0  0  0  0  0  0  0  0  0
  139.3370   78.5003  219.7550 H   0  0  0  0  0  0  0  0  0  0  0  0
  141.6664   79.1103  220.3683 H   0  0  0  0  0  0  0  0  0  0  0  0
  140.9630   77.6803  221.2733 H   0  0  0  0  0  0  0  0  0  0  0  0
  143.1096   77.7126  219.1518 H   0  0  0  0  0  0  0  0  0  0  0  0
  143.1585   77.0821  220.8527 H   0  0  0  0  0  0  0  0  0  0  0  0
  142.2614   75.8338  218.3797 H   0  0  0  0  0  0  0  0  0  0  0  0
  144.5777   75.7522  220.7910 H   0  0  0  0  0  0  0  0  0  0  0  0
  145.2371   71.5502  220.3255 H   0  0  0  0  0  0  0  0  0  0  0  0
  141.6638   73.3620  218.7727 H   0  0  0  0  0  0  0  0  0  0  0  0
  138.9966   69.6840  222.6898 H   0  0  0  0  0  0  0  0  0  0  0  0
  138.7207   68.1503  224.6201 H   0  0  0  0  0  0  0  0  0  0  0  0
  139.1078   67.6728  226.8726 H   0  0  0  0  0  0  0  0  0  0  0  0
  140.0887   68.3272  229.0712 H   0  0  0  0  0  0  0  0  0  0  0  0
  141.3133   70.4635  229.3120 H   0  0  0  0  0  0  0  0  0  0  0  0
  141.5805   71.9854  227.3734 H   0  0  0  0  0  0  0  0  0  0  0  0
  1  2  2  0
  2  3  1  0
  3  4  1  0
  4  5  1  0
  5  6  2  0
  5  7  1  0
  7  8  1  0
  8  9  1  0
  9 10  1  0
 10 11  1  0
 11 12  1  0
 12 13  1  0
 13 14  2  0
 14 15  1  0
 15 16  1  0
 15 17  2  0
 17 18  1  0
 18 19  1  0
 18 20  2  0
  2 21  1  0
 21 22  2  0
 22 23  1  0
 23 24  2  0
 24 25  1  0
 25 26  2  0
 26 27  1  0
 27 28  2  0
 28 29  1  0
 29 30  2  0
 12  7  1  0
 20 13  1  0
 30 21  1  0
 29 24  1  0
  3 31  1  0
  4 32  1  0
  4 33  1  0
  8 34  1  0
  8 35  1  0
  9 36  1  0
  9 37  1  0
 10 38  1  0
 10 39  1  0
 11 40  1  0
 11 41  1  0
 12 42  1  6
 14 43  1  0
 17 44  1  0
 20 45  1  0
 22 46  1  0
 23 47  1  0
 25 48  1  0
 26 49  1  0
 27 50  1  0
 28 51  1  0
M  END
>  <smiles>  (72) 
O=C(NCC(=O)N1CCCCC1c1cc(F)cc(F)c1)c1ccc2ccccc2n1

>  <score_type>  (72) 
oracle

>  <origin>  (72) 
autodockgpu

>  <m_score__min__energy>  (72) 
-8.7899999999999991

>  <m_primary>  (72) 
energy

>  <rmsd>  (72) 
1.801357613739385

>  <m_score__min__rmsd>  (72) 
1.801357613739385

>  <meeko>  (72) 
{"free_energy": -8.26, "intermolecular_energy": -9.75, "internal_energy": -1.52, "cluster_size": 27, "cluster_id": 2, "rank_in_cluster": 15}

>  <energy>  (72) 
-8.28

>  <cluster_rmsd>  (72) 
0.35

>  <cluster>  (72) 
2

$$$$

     RDKit          3D

 51 54  0  0  0  0  0  0  0  0999 V2000
  140.7050   76.3830  218.6520 O   0  0  0  0  0  0  0  0  0  0  0  0
  141.8760   76.5400  219.0510 C   0  0  0  0  0  0  0  0  0  0  0  0
  142.3130   77.8520  219.4460 N   0  0  0  0  0  0  0  0  0  0  0  0
  141.5160   79.0180  219.4160 C   0  0  0  0  0  0  0  0  0  0  0  0
  141.1160   79.7250  220.6190 C   0  0  0  0  0  0  0  0  0  0  0  0
  140.0920   80.5320  220.4080 O   0  0  0  0  0  0  0  0  0  0  0  0
  141.5710   79.7290  221.9300 N   0  0  0  0  0  0  0  0  0  0  0  0
  142.6530   80.5210  222.5070 C   0  0  0  0  0  0  0  0  0  0  0  0
  142.0600   81.4490  223.5350 C   0  0  0  0  0  0  0  0  0  0  0  0
  140.5800   81.2520  223.6200 C   0  0  0  0  0  0  0  0  0  0  0  0
  140.1530   79.8100  223.8280 C   0  0  0  0  0  0  0  0  0  0  0  0
  140.9290   78.8730  222.9730 C   0  0  1  0  0  0  0  0  0  0  0  0
  140.2860   77.6830  222.4750 C   0  0  0  0  0  0  0  0  0  0  0  0
  138.9290   77.5360  222.2140 C   0  0  0  0  0  0  0  0  0  0  0  0
  138.3770   76.3550  221.7730 C   0  0  0  0  0  0  0  0  0  0  0  0
  137.0350   76.2950  221.5380 F   0  0  0  0  0  0  0  0  0  0  0  0
  139.1540   75.2500  221.5690 C   0  0  0  0  0  0  0  0  0  0  0  0
  140.5050   75.3630  221.8200 C   0  0  0  0  0  0  0  0  0  0  0  0
  141.3010   74.2790  221.6260 F   0  0  0  0  0  0  0  0  0  0  0  0
  141.0570   76.5450  222.2610 C   0  0  0  0  0  0  0  0  0  0  0  0
  142.7890   75.3930  219.1150 C   0  0  0  0  0  0  0  0  0  0  0  0
  142.6600   74.3740  218.1950 C   0  0  0  0  0  0  0  0  0  0  0  0
  143.4720   73.2590  218.1780 C   0  0  0  0  0  0  0  0  0  0  0  0
  144.4540   73.1960  219.1490 C   0  0  0  0  0  0  0  0  0  0  0  0
  145.2650   72.0750  219.1250 C   0  0  0  0  0  0  0  0  0  0  0  0
  146.2520   71.9910  220.0850 C   0  0  0  0  0  0  0  0  0  0  0  0
  146.4160   72.9940  221.0270 C   0  0  0  0  0  0  0  0  0  0  0  0
  145.5910   74.1010  221.0240 C   0  0  0  0  0  0  0  0  0  0  0  0
  144.5930   74.2080  220.0720 C   0  0  0  0  0  0  0  0  0  0  0  0
  143.7600   75.2880  220.0410 N   0  0  0  0  0  0  0  0  0  0  0  0
  143.3300   77.8710  219.7750 H   0  0  0  0  0  0  0  0  0  0  0  0
  142.0659   79.7471  218.8028 H   0  0  0  0  0  0  0  0  0  0  0  0
  140.5538   78.6220  219.0591 H   0  0  0  0  0  0  0  0  0  0  0  0
  143.3873   79.8560  222.9851 H   0  0  0  0  0  0  0  0  0  0  0  0
  143.1616   81.0991  221.7214 H   0  0  0  0  0  0  0  0  0  0  0  0
  142.5109   81.2393  224.5162 H   0  0  0  0  0  0  0  0  0  0  0  0
  142.2662   82.4884  223.2399 H   0  0  0  0  0  0  0  0  0  0  0  0
  140.2008   81.8486  224.4627 H   0  0  0  0  0  0  0  0  0  0  0  0
  140.1639   81.5674  222.6518 H   0  0  0  0  0  0  0  0  0  0  0  0
  140.3098   79.5414  224.8831 H   0  0  0  0  0  0  0  0  0  0  0  0
  139.0919   79.7253  223.5506 H   0  0  0  0  0  0  0  0  0  0  0  0
  141.6625   78.3588  223.6114 H   0  0  0  0  0  0  0  0  0  0  0  0
  138.2672   78.4013  222.3666 H   0  0  0  0  0  0  0  0  0  0  0  0
  138.7173   74.3038  221.2170 H   0  0  0  0  0  0  0  0  0  0  0  0
  142.1397   76.5907  222.4497 H   0  0  0  0  0  0  0  0  0  0  0  0
  141.8686   74.4544  217.4353 H   0  0  0  0  0  0  0  0  0  0  0  0
  143.3448   72.4617  217.4309 H   0  0  0  0  0  0  0  0  0  0  0  0
  145.1284   71.2845  218.3724 H   0  0  0  0  0  0  0  0  0  0  0  0
  146.9181   71.1158  220.1030 H   0  0  0  0  0  0  0  0  0  0  0  0
  147.2100   72.9075  221.7833 H   0  0  0  0  0  0  0  0  0  0  0  0
  145.7265   74.8937  221.7746 H   0  0  0  0  0  0  0  0  0  0  0  0
  1  2  2  0
  2  3  1  0
  3  4  1  0
  4  5  1  0
  5  6  2  0
  5  7  1  0
  7  8  1  0
  8  9  1  0
  9 10  1  0
 10 11  1  0
 11 12  1  0
 12 13  1  0
 13 14  2  0
 14 15  1  0
 15 16  1  0
 15 17  2  0
 17 18  1  0
 18 19  1  0
 18 20  2  0
  2 21  1  0
 21 22  2  0
 22 23  1  0
 23 24  2  0
 24 25  1  0
 25 26  2  0
 26 27  1  0
 27 28  2  0
 28 29  1  0
 29 30  2  0
 12  7  1  0
 20 13  1  0
 30 21  1  0
 29 24  1  0
  3 31  1  0
  4 32  1  0
  4 33  1  0
  8 34  1  0
  8 35  1  0
  9 36  1  0
  9 37  1  0
 10 38  1  0
 10 39  1  0
 11 40  1  0
 11 41  1  0
 12 42  1  1
 14 43  1  0
 17 44  1  0
 20 45  1  0
 22 46  1  0
 23 47  1  0
 25 48  1  0
 26 49  1  0
 27 50  1  0
 28 51  1  0
M  END
>  <smiles>  (73) 
O=C(NCC(=O)N1CCCCC1c1cc(F)cc(F)c1)c1ccc2ccccc2n1

>  <score_type>  (73) 
oracle

>  <origin>  (73) 
autodockgpu

>  <m_score__min__energy>  (73) 
-8.7899999999999991

>  <m_primary>  (73) 
energy

>  <rmsd>  (73) 
7.633017010209376

>  <m_score__min__rmsd>  (73) 
7.633017010209376

>  <meeko>  (73) 
{"free_energy": -6.97, "intermolecular_energy": -8.46, "internal_energy": -2.35, "cluster_size": 7, "cluster_id": 6, "rank_in_cluster": 5}

>  <energy>  (73) 
-8.28

>  <cluster_rmsd>  (73) 
0.34

>  <cluster>  (73) 
2

$$$$

     RDKit          3D

 51 54  0  0  0  0  0  0  0  0999 V2000
  140.0220   70.9130  221.3760 O   0  0  0  0  0  0  0  0  0  0  0  0
  139.9000   71.5550  222.4380 C   0  0  0  0  0  0  0  0  0  0  0  0
  139.7330   72.9830  222.3790 N   0  0  0  0  0  0  0  0  0  0  0  0
  139.6980   73.7500  221.1940 C   0  0  0  0  0  0  0  0  0  0  0  0
  140.1980   75.1110  221.1270 C   0  0  0  0  0  0  0  0  0  0  0  0
  140.5140   75.5870  222.3180 O   0  0  0  0  0  0  0  0  0  0  0  0
  140.4170   76.0070  220.0900 N   0  0  0  0  0  0  0  0  0  0  0  0
  139.4450   76.8570  219.4110 C   0  0  0  0  0  0  0  0  0  0  0  0
  139.8030   78.2940  219.6850 C   0  0  0  0  0  0  0  0  0  0  0  0
  141.0200   78.3690  220.5520 C   0  0  0  0  0  0  0  0  0  0  0  0
  142.2020   77.5660  220.0380 C   0  0  0  0  0  0  0  0  0  0  0  0
  141.7890   76.2280  219.5380 C   0  0  1  0  0  0  0  0  0  0  0  0
  142.6930   75.1160  219.6850 C   0  0  0  0  0  0  0  0  0  0  0  0
  143.9790   75.1710  220.2060 C   0  0  0  0  0  0  0  0  0  0  0  0
  144.8030   74.0710  220.2830 C   0  0  0  0  0  0  0  0  0  0  0  0
  146.0530   74.2120  220.8100 F   0  0  0  0  0  0  0  0  0  0  0  0
  144.3840   72.8500  219.8390 C   0  0  0  0  0  0  0  0  0  0  0  0
  143.1120   72.7610  219.3150 C   0  0  0  0  0  0  0  0  0  0  0  0
  142.6700   71.5570  218.8660 F   0  0  0  0  0  0  0  0  0  0  0  0
  142.2880   73.8620  219.2390 C   0  0  0  0  0  0  0  0  0  0  0  0
  139.9290   70.8540  223.7260 C   0  0  0  0  0  0  0  0  0  0  0  0
  139.3890   69.5880  223.8190 C   0  0  0  0  0  0  0  0  0  0  0  0
  139.3710   68.8540  224.9870 C   0  0  0  0  0  0  0  0  0  0  0  0
  139.9320   69.4530  226.1000 C   0  0  0  0  0  0  0  0  0  0  0  0
  139.9120   68.7100  227.2680 C   0  0  0  0  0  0  0  0  0  0  0  0
  140.4660   69.2880  228.3920 C   0  0  0  0  0  0  0  0  0  0  0  0
  141.0180   70.5580  228.3400 C   0  0  0  0  0  0  0  0  0  0  0  0
  141.0240   71.2730  227.1600 C   0  0  0  0  0  0  0  0  0  0  0  0
  140.4740   70.7160  226.0190 C   0  0  0  0  0  0  0  0  0  0  0  0
  140.4630   71.3960  224.8360 N   0  0  0  0  0  0  0  0  0  0  0  0
  139.6330   73.4300  223.3450 H   0  0  0  0  0  0  0  0  0  0  0  0
  140.2663   73.1793  220.4447 H   0  0  0  0  0  0  0  0  0  0  0  0
  138.6171   73.9017  221.0574 H   0  0  0  0  0  0  0  0  0  0  0  0
  139.4755   76.6657  218.3282 H   0  0  0  0  0  0  0  0  0  0  0  0
  138.4306   76.6418  219.7780 H   0  0  0  0  0  0  0  0  0  0  0  0
  140.0038   78.8060  218.7324 H   0  0  0  0  0  0  0  0  0  0  0  0
  138.9633   78.7796  220.2037 H   0  0  0  0  0  0  0  0  0  0  0  0
  141.3256   79.4230  220.6268 H   0  0  0  0  0  0  0  0  0  0  0  0
  140.7424   77.9352  221.5240 H   0  0  0  0  0  0  0  0  0  0  0  0
  142.6784   78.1210  219.2164 H   0  0  0  0  0  0  0  0  0  0  0  0
  142.9012   77.4162  220.8738 H   0  0  0  0  0  0  0  0  0  0  0  0
  141.8057   76.2550  218.4385 H   0  0  0  0  0  0  0  0  0  0  0  0
  144.3561   76.1367  220.5736 H   0  0  0  0  0  0  0  0  0  0  0  0
  145.0385   71.9679  219.8973 H   0  0  0  0  0  0  0  0  0  0  0  0
  141.2803   73.7464  218.8133 H   0  0  0  0  0  0  0  0  0  0  0  0
  138.9500   69.1406  222.9151 H   0  0  0  0  0  0  0  0  0  0  0  0
  138.9336   67.8457  225.0306 H   0  0  0  0  0  0  0  0  0  0  0  0
  139.4732   67.7018  227.2988 H   0  0  0  0  0  0  0  0  0  0  0  0
  140.4695   68.7332  229.3419 H   0  0  0  0  0  0  0  0  0  0  0  0
  141.4552   71.0000  229.2475 H   0  0  0  0  0  0  0  0  0  0  0  0
  141.4638   72.2807  227.1265 H   0  0  0  0  0  0  0  0  0  0  0  0
  1  2  2  0
  2  3  1  0
  3  4  1  0
  4  5  1  0
  5  6  2  0
  5  7  1  0
  7  8  1  0
  8  9  1  0
  9 10  1  0
 10 11  1  0
 11 12  1  0
 12 13  1  0
 13 14  2  0
 14 15  1  0
 15 16  1  0
 15 17  2  0
 17 18  1  0
 18 19  1  0
 18 20  2  0
  2 21  1  0
 21 22  2  0
 22 23  1  0
 23 24  2  0
 24 25  1  0
 25 26  2  0
 26 27  1  0
 27 28  2  0
 28 29  1  0
 29 30  2  0
 12  7  1  0
 20 13  1  0
 30 21  1  0
 29 24  1  0
  3 31  1  0
  4 32  1  0
  4 33  1  0
  8 34  1  0
  8 35  1  0
  9 36  1  0
  9 37  1  0
 10 38  1  0
 10 39  1  0
 11 40  1  0
 11 41  1  0
 12 42  1  6
 14 43  1  0
 17 44  1  0
 20 45  1  0
 22 46  1  0
 23 47  1  0
 25 48  1  0
 26 49  1  0
 27 50  1  0
 28 51  1  0
M  END
>  <smiles>  (74) 
O=C(NCC(=O)N1CCCCC1c1cc(F)cc(F)c1)c1ccc2ccccc2n1

>  <score_type>  (74) 
oracle

>  <origin>  (74) 
autodockgpu

>  <m_score__min__energy>  (74) 
-8.7899999999999991

>  <m_primary>  (74) 
energy

>  <rmsd>  (74) 
1.8173796211431381

>  <m_score__min__rmsd>  (74) 
1.8173796211431381

>  <meeko>  (74) 
{"free_energy": -7.93, "intermolecular_energy": -9.42, "internal_energy": -1.7, "cluster_size": 27, "cluster_id": 2, "rank_in_cluster": 22}

>  <energy>  (74) 
-8.26

>  <cluster_rmsd>  (74) 
0.49

>  <cluster>  (74) 
2

$$$$

     RDKit          3D

 51 54  0  0  0  0  0  0  0  0999 V2000
  141.4850   72.5340  221.6410 O   0  0  0  0  0  0  0  0  0  0  0  0
  140.5450   72.7200  222.4400 C   0  0  0  0  0  0  0  0  0  0  0  0
  139.7430   73.9080  222.3140 N   0  0  0  0  0  0  0  0  0  0  0  0
  139.9300   74.9180  221.3440 C   0  0  0  0  0  0  0  0  0  0  0  0
  140.9560   75.9380  221.4630 C   0  0  0  0  0  0  0  0  0  0  0  0
  141.0880   76.3720  222.7040 O   0  0  0  0  0  0  0  0  0  0  0  0
  141.8210   76.5430  220.5630 N   0  0  0  0  0  0  0  0  0  0  0  0
  142.7770   75.9060  219.6630 C   0  0  0  0  0  0  0  0  0  0  0  0
  142.3530   76.1920  218.2460 C   0  0  0  0  0  0  0  0  0  0  0  0
  141.1080   77.0210  218.2340 C   0  0  0  0  0  0  0  0  0  0  0  0
  141.1900   78.2810  219.0790 C   0  0  0  0  0  0  0  0  0  0  0  0
  141.8420   78.0280  220.3910 C   0  0  1  0  0  0  0  0  0  0  0  0
  141.4140   78.7810  221.5420 C   0  0  0  0  0  0  0  0  0  0  0  0
  140.0990   79.0080  221.9280 C   0  0  0  0  0  0  0  0  0  0  0  0
  139.7620   79.7710  223.0230 C   0  0  0  0  0  0  0  0  0  0  0  0
  138.4450   79.9440  223.3340 F   0  0  0  0  0  0  0  0  0  0  0  0
  140.7260   80.3530  223.7950 C   0  0  0  0  0  0  0  0  0  0  0  0
  142.0420   80.1490  223.4380 C   0  0  0  0  0  0  0  0  0  0  0  0
  143.0210   80.7170  224.1900 F   0  0  0  0  0  0  0  0  0  0  0  0
  142.3780   79.3840  222.3430 C   0  0  0  0  0  0  0  0  0  0  0  0
  140.2690   71.7340  223.4900 C   0  0  0  0  0  0  0  0  0  0  0  0
  139.5480   70.6000  223.1810 C   0  0  0  0  0  0  0  0  0  0  0  0
  139.2420   69.6200  224.1020 C   0  0  0  0  0  0  0  0  0  0  0  0
  139.6980   69.8220  225.3920 C   0  0  0  0  0  0  0  0  0  0  0  0
  139.3870   68.8340  226.3100 C   0  0  0  0  0  0  0  0  0  0  0  0
  139.8320   69.0150  227.6040 C   0  0  0  0  0  0  0  0  0  0  0  0
  140.5600   70.1400  227.9550 C   0  0  0  0  0  0  0  0  0  0  0  0
  140.8540   71.1070  227.0160 C   0  0  0  0  0  0  0  0  0  0  0  0
  140.4190   70.9500  225.7120 C   0  0  0  0  0  0  0  0  0  0  0  0
  140.6920   71.8870  224.7590 N   0  0  0  0  0  0  0  0  0  0  0  0
  138.9650   73.9630  223.0450 H   0  0  0  0  0  0  0  0  0  0  0  0
  140.1270   74.3968  220.3955 H   0  0  0  0  0  0  0  0  0  0  0  0
  139.0106   75.5110  221.4583 H   0  0  0  0  0  0  0  0  0  0  0  0
  143.7833   76.3135  219.8399 H   0  0  0  0  0  0  0  0  0  0  0  0
  142.8006   74.8207  219.8406 H   0  0  0  0  0  0  0  0  0  0  0  0
  143.1569   76.7371  217.7297 H   0  0  0  0  0  0  0  0  0  0  0  0
  142.1537   75.2396  217.7330 H   0  0  0  0  0  0  0  0  0  0  0  0
  140.8998   77.3156  217.1948 H   0  0  0  0  0  0  0  0  0  0  0  0
  140.3109   76.4002  218.6691 H   0  0  0  0  0  0  0  0  0  0  0  0
  141.7720   79.0380  218.5329 H   0  0  0  0  0  0  0  0  0  0  0  0
  140.1646   78.6304  219.2700 H   0  0  0  0  0  0  0  0  0  0  0  0
  142.8623   78.4368  220.3480 H   0  0  0  0  0  0  0  0  0  0  0  0
  139.2912   78.5581  221.3322 H   0  0  0  0  0  0  0  0  0  0  0  0
  140.4620   80.9633  224.6712 H   0  0  0  0  0  0  0  0  0  0  0  0
  143.4406   79.2458  222.0945 H   0  0  0  0  0  0  0  0  0  0  0  0
  139.1987   70.4702  222.1460 H   0  0  0  0  0  0  0  0  0  0  0  0
  138.6657   68.7249  223.8251 H   0  0  0  0  0  0  0  0  0  0  0  0
  138.8102   67.9431  226.0209 H   0  0  0  0  0  0  0  0  0  0  0  0
  139.6055   68.2556  228.3669 H   0  0  0  0  0  0  0  0  0  0  0  0
  140.9067   70.2634  228.9916 H   0  0  0  0  0  0  0  0  0  0  0  0
  141.4314   71.9984  227.3026 H   0  0  0  0  0  0  0  0  0  0  0  0
  1  2  2  0
  2  3  1  0
  3  4  1  0
  4  5  1  0
  5  6  2  0
  5  7  1  0
  7  8  1  0
  8  9  1  0
  9 10  1  0
 10 11  1  0
 11 12  1  0
 12 13  1  0
 13 14  2  0
 14 15  1  0
 15 16  1  0
 15 17  2  0
 17 18  1  0
 18 19  1  0
 18 20  2  0
  2 21  1  0
 21 22  2  0
 22 23  1  0
 23 24  2  0
 24 25  1  0
 25 26  2  0
 26 27  1  0
 27 28  2  0
 28 29  1  0
 29 30  2  0
 12  7  1  0
 20 13  1  0
 30 21  1  0
 29 24  1  0
  3 31  1  0
  4 32  1  0
  4 33  1  0
  8 34  1  0
  8 35  1  0
  9 36  1  0
  9 37  1  0
 10 38  1  0
 10 39  1  0
 11 40  1  0
 11 41  1  0
 12 42  1  6
 14 43  1  0
 17 44  1  0
 20 45  1  0
 22 46  1  0
 23 47  1  0
 25 48  1  0
 26 49  1  0
 27 50  1  0
 28 51  1  0
M  END
>  <smiles>  (75) 
O=C(NCC(=O)N1CCCCC1c1cc(F)cc(F)c1)c1ccc2ccccc2n1

>  <score_type>  (75) 
oracle

>  <origin>  (75) 
autodockgpu

>  <m_score__min__energy>  (75) 
-8.7899999999999991

>  <m_primary>  (75) 
energy

>  <rmsd>  (75) 
2.1436292903801877

>  <m_score__min__rmsd>  (75) 
2.1436292903801877

>  <meeko>  (75) 
{"free_energy": -8.75, "intermolecular_energy": -10.24, "internal_energy": -1.17, "cluster_size": 9, "cluster_id": 1, "rank_in_cluster": 3}

>  <energy>  (75) 
-8.25

>  <cluster_rmsd>  (75) 
0.3

>  <cluster>  (75) 
2

$$$$

     RDKit          3D

 51 54  0  0  0  0  0  0  0  0999 V2000
  133.1730   70.0860  226.5000 O   0  0  0  0  0  0  0  0  0  0  0  0
  133.7420   71.1610  226.2250 C   0  0  0  0  0  0  0  0  0  0  0  0
  134.9680   71.1340  225.4750 N   0  0  0  0  0  0  0  0  0  0  0  0
  135.6130   69.9660  225.0110 C   0  0  0  0  0  0  0  0  0  0  0  0
  136.7710   70.0050  224.1370 C   0  0  0  0  0  0  0  0  0  0  0  0
  137.2290   71.2330  223.9680 O   0  0  0  0  0  0  0  0  0  0  0  0
  137.4960   69.0380  223.4540 N   0  0  0  0  0  0  0  0  0  0  0  0
  137.0030   68.0430  222.5070 C   0  0  0  0  0  0  0  0  0  0  0  0
  137.6130   68.3320  221.1600 C   0  0  0  0  0  0  0  0  0  0  0  0
  138.5070   69.5290  221.2410 C   0  0  0  0  0  0  0  0  0  0  0  0
  139.5480   69.4550  222.3440 C   0  0  0  0  0  0  0  0  0  0  0  0
  138.9780   68.9290  223.6120 C   0  0  1  0  0  0  0  0  0  0  0  0
  139.4960   69.4130  224.8660 C   0  0  0  0  0  0  0  0  0  0  0  0
  140.0760   70.6560  225.0860 C   0  0  0  0  0  0  0  0  0  0  0  0
  140.5830   71.0390  226.3070 C   0  0  0  0  0  0  0  0  0  0  0  0
  141.1360   72.2790  226.4390 F   0  0  0  0  0  0  0  0  0  0  0  0
  140.5400   70.1960  227.3800 C   0  0  0  0  0  0  0  0  0  0  0  0
  139.9710   68.9540  227.1950 C   0  0  0  0  0  0  0  0  0  0  0  0
  139.9150   68.0940  228.2470 F   0  0  0  0  0  0  0  0  0  0  0  0
  139.4630   68.5720  225.9740 C   0  0  0  0  0  0  0  0  0  0  0  0
  133.1580   72.4330  226.6660 C   0  0  0  0  0  0  0  0  0  0  0  0
  131.9470   72.4290  227.3250 C   0  0  0  0  0  0  0  0  0  0  0  0
  131.3230   73.5740  227.7760 C   0  0  0  0  0  0  0  0  0  0  0  0
  131.9780   74.7680  227.5350 C   0  0  0  0  0  0  0  0  0  0  0  0
  131.3470   75.9120  227.9900 C   0  0  0  0  0  0  0  0  0  0  0  0
  131.9820   77.1150  227.7600 C   0  0  0  0  0  0  0  0  0  0  0  0
  133.2000   77.1630  227.1020 C   0  0  0  0  0  0  0  0  0  0  0  0
  133.8050   76.0030  226.6600 C   0  0  0  0  0  0  0  0  0  0  0  0
  133.1870   74.7840  226.8780 C   0  0  0  0  0  0  0  0  0  0  0  0
  133.7570   73.6190  226.4540 N   0  0  0  0  0  0  0  0  0  0  0  0
  135.3660   72.1090  225.2910 H   0  0  0  0  0  0  0  0  0  0  0  0
  135.9278   69.4146  225.9092 H   0  0  0  0  0  0  0  0  0  0  0  0
  134.8473   69.5360  224.3486 H   0  0  0  0  0  0  0  0  0  0  0  0
  137.2948   67.0359  222.8395 H   0  0  0  0  0  0  0  0  0  0  0  0
  135.9057   68.0887  222.4448 H   0  0  0  0  0  0  0  0  0  0  0  0
  138.2008   67.4615  220.8335 H   0  0  0  0  0  0  0  0  0  0  0  0
  136.8078   68.5349  220.4386 H   0  0  0  0  0  0  0  0  0  0  0  0
  139.0304   69.6344  220.2792 H   0  0  0  0  0  0  0  0  0  0  0  0
  137.8624   70.3899  221.4720 H   0  0  0  0  0  0  0  0  0  0  0  0
  140.3634   68.7921  222.0191 H   0  0  0  0  0  0  0  0  0  0  0  0
  139.9159   70.4742  222.5334 H   0  0  0  0  0  0  0  0  0  0  0  0
  139.3169   67.8894  223.7323 H   0  0  0  0  0  0  0  0  0  0  0  0
  140.1326   71.3655  224.2473 H   0  0  0  0  0  0  0  0  0  0  0  0
  140.9450   70.4971  228.3574 H   0  0  0  0  0  0  0  0  0  0  0  0
  139.0175   67.5715  225.8711 H   0  0  0  0  0  0  0  0  0  0  0  0
  131.4523   71.4623  227.5004 H   0  0  0  0  0  0  0  0  0  0  0  0
  130.3561   73.5390  228.2993 H   0  0  0  0  0  0  0  0  0  0  0  0
  130.3803   75.8645  228.5128 H   0  0  0  0  0  0  0  0  0  0  0  0
  131.5144   78.0494  228.1040 H   0  0  0  0  0  0  0  0  0  0  0  0
  133.6893   78.1331  226.9302 H   0  0  0  0  0  0  0  0  0  0  0  0
  134.7721   76.0476  226.1379 H   0  0  0  0  0  0  0  0  0  0  0  0
  1  2  2  0
  2  3  1  0
  3  4  1  0
  4  5  1  0
  5  6  2  0
  5  7  1  0
  7  8  1  0
  8  9  1  0
  9 10  1  0
 10 11  1  0
 11 12  1  0
 12 13  1  0
 13 14  2  0
 14 15  1  0
 15 16  1  0
 15 17  2  0
 17 18  1  0
 18 19  1  0
 18 20  2  0
  2 21  1  0
 21 22  2  0
 22 23  1  0
 23 24  2  0
 24 25  1  0
 25 26  2  0
 26 27  1  0
 27 28  2  0
 28 29  1  0
 29 30  2  0
 12  7  1  0
 20 13  1  0
 30 21  1  0
 29 24  1  0
  3 31  1  0
  4 32  1  0
  4 33  1  0
  8 34  1  0
  8 35  1  0
  9 36  1  0
  9 37  1  0
 10 38  1  0
 10 39  1  0
 11 40  1  0
 11 41  1  0
 12 42  1  1
 14 43  1  0
 17 44  1  0
 20 45  1  0
 22 46  1  0
 23 47  1  0
 25 48  1  0
 26 49  1  0
 27 50  1  0
 28 51  1  0
M  END
>  <smiles>  (76) 
O=C(NCC(=O)N1CCCCC1c1cc(F)cc(F)c1)c1ccc2ccccc2n1

>  <score_type>  (76) 
oracle

>  <origin>  (76) 
autodockgpu

>  <m_score__min__energy>  (76) 
-8.7899999999999991

>  <m_primary>  (76) 
energy

>  <rmsd>  (76) 
8.618894373973385

>  <m_score__min__rmsd>  (76) 
8.618894373973385

>  <meeko>  (76) 
{"free_energy": -7.53, "intermolecular_energy": -9.02, "internal_energy": -1.85, "cluster_size": 1, "cluster_id": 4, "rank_in_cluster": 1}

>  <energy>  (76) 
-8.09

>  <cluster_rmsd>  (76) 
0.8

>  <cluster>  (76) 
2

$$$$

     RDKit          3D

 51 54  0  0  0  0  0  0  0  0999 V2000
  139.9430   73.1350  222.7950 O   0  0  0  0  0  0  0  0  0  0  0  0
  140.1920   71.9140  222.8390 C   0  0  0  0  0  0  0  0  0  0  0  0
  140.4420   71.2050  221.6130 N   0  0  0  0  0  0  0  0  0  0  0  0
  140.4250   71.7790  220.3220 C   0  0  0  0  0  0  0  0  0  0  0  0
  141.5890   72.4110  219.7300 C   0  0  0  0  0  0  0  0  0  0  0  0
  141.3260   72.9370  218.5470 O   0  0  0  0  0  0  0  0  0  0  0  0
  142.9040   72.5850  220.1400 N   0  0  0  0  0  0  0  0  0  0  0  0
  143.8770   71.5620  220.5070 C   0  0  0  0  0  0  0  0  0  0  0  0
  145.0050   71.6050  219.5100 C   0  0  0  0  0  0  0  0  0  0  0  0
  144.7540   72.6690  218.4890 C   0  0  0  0  0  0  0  0  0  0  0  0
  144.4460   74.0360  219.0740 C   0  0  0  0  0  0  0  0  0  0  0  0
  143.5120   73.9480  220.2280 C   0  0  1  0  0  0  0  0  0  0  0  0
  142.5760   75.0200  220.4540 C   0  0  0  0  0  0  0  0  0  0  0  0
  141.5430   75.0220  221.3820 C   0  0  0  0  0  0  0  0  0  0  0  0
  140.6620   76.0710  221.5180 C   0  0  0  0  0  0  0  0  0  0  0  0
  139.6740   75.9930  222.4560 F   0  0  0  0  0  0  0  0  0  0  0  0
  140.7660   77.1800  220.7290 C   0  0  0  0  0  0  0  0  0  0  0  0
  141.7810   77.2100  219.7970 C   0  0  0  0  0  0  0  0  0  0  0  0
  141.9060   78.3030  218.9980 F   0  0  0  0  0  0  0  0  0  0  0  0
  142.6620   76.1610  219.6620 C   0  0  0  0  0  0  0  0  0  0  0  0
  140.2280   71.2190  224.1300 C   0  0  0  0  0  0  0  0  0  0  0  0
  140.6650   71.8950  225.2500 C   0  0  0  0  0  0  0  0  0  0  0  0
  140.7320   71.3230  226.5040 C   0  0  0  0  0  0  0  0  0  0  0  0
  140.3330   70.0030  226.6020 C   0  0  0  0  0  0  0  0  0  0  0  0
  140.4030   69.4370  227.8630 C   0  0  0  0  0  0  0  0  0  0  0  0
  140.0090   68.1200  227.9840 C   0  0  0  0  0  0  0  0  0  0  0  0
  139.5640   67.4060  226.8840 C   0  0  0  0  0  0  0  0  0  0  0  0
  139.5060   67.9990  225.6390 C   0  0  0  0  0  0  0  0  0  0  0  0
  139.8950   69.3190  225.4910 C   0  0  0  0  0  0  0  0  0  0  0  0
  139.8500   69.9360  224.2740 N   0  0  0  0  0  0  0  0  0  0  0  0
  140.6480   70.1670  221.7670 H   0  0  0  0  0  0  0  0  0  0  0  0
  140.1336   70.9719  219.6337 H   0  0  0  0  0  0  0  0  0  0  0  0
  139.7544   72.6386  220.4686 H   0  0  0  0  0  0  0  0  0  0  0  0
  144.2648   71.7623  221.5167 H   0  0  0  0  0  0  0  0  0  0  0  0
  143.4038   70.5690  220.5023 H   0  0  0  0  0  0  0  0  0  0  0  0
  145.9465   71.8216  220.0361 H   0  0  0  0  0  0  0  0  0  0  0  0
  145.0724   70.6310  219.0032 H   0  0  0  0  0  0  0  0  0  0  0  0
  145.6500   72.7585  217.8573 H   0  0  0  0  0  0  0  0  0  0  0  0
  143.8621   72.3597  217.9244 H   0  0  0  0  0  0  0  0  0  0  0  0
  145.3854   74.4983  219.4113 H   0  0  0  0  0  0  0  0  0  0  0  0
  143.9648   74.6410  218.2915 H   0  0  0  0  0  0  0  0  0  0  0  0
  144.0941   74.0956  221.1496 H   0  0  0  0  0  0  0  0  0  0  0  0
  141.4234   74.1467  222.0374 H   0  0  0  0  0  0  0  0  0  0  0  0
  140.0642   78.0206  220.8334 H   0  0  0  0  0  0  0  0  0  0  0  0
  143.4578   76.2266  218.9055 H   0  0  0  0  0  0  0  0  0  0  0  0
  140.9761   72.9441  225.1378 H   0  0  0  0  0  0  0  0  0  0  0  0
  141.0844   71.8877  227.3797 H   0  0  0  0  0  0  0  0  0  0  0  0
  140.7574   70.0120  228.7312 H   0  0  0  0  0  0  0  0  0  0  0  0
  140.0490   67.6304  228.9682 H   0  0  0  0  0  0  0  0  0  0  0  0
  139.2541   66.3573  227.0035 H   0  0  0  0  0  0  0  0  0  0  0  0
  139.1526   67.4257  224.7693 H   0  0  0  0  0  0  0  0  0  0  0  0
  1  2  2  0
  2  3  1  0
  3  4  1  0
  4  5  1  0
  5  6  2  0
  5  7  1  0
  7  8  1  0
  8  9  1  0
  9 10  1  0
 10 11  1  0
 11 12  1  0
 12 13  1  0
 13 14  2  0
 14 15  1  0
 15 16  1  0
 15 17  2  0
 17 18  1  0
 18 19  1  0
 18 20  2  0
  2 21  1  0
 21 22  2  0
 22 23  1  0
 23 24  2  0
 24 25  1  0
 25 26  2  0
 26 27  1  0
 27 28  2  0
 28 29  1  0
 29 30  2  0
 12  7  1  0
 20 13  1  0
 30 21  1  0
 29 24  1  0
  3 31  1  0
  4 32  1  0
  4 33  1  0
  8 34  1  0
  8 35  1  0
  9 36  1  0
  9 37  1  0
 10 38  1  0
 10 39  1  0
 11 40  1  0
 11 41  1  0
 12 42  1  1
 14 43  1  0
 17 44  1  0
 20 45  1  0
 22 46  1  0
 23 47  1  0
 25 48  1  0
 26 49  1  0
 27 50  1  0
 28 51  1  0
M  END
>  <smiles>  (77) 
O=C(NCC(=O)N1CCCCC1c1cc(F)cc(F)c1)c1ccc2ccccc2n1

>  <score_type>  (77) 
oracle

>  <origin>  (77) 
autodockgpu

>  <m_score__min__energy>  (77) 
-8.7899999999999991

>  <m_primary>  (77) 
energy

>  <rmsd>  (77) 
4.238903560853328

>  <m_score__min__rmsd>  (77) 
4.238903560853328

>  <meeko>  (77) 
{"free_energy": -7.58, "intermolecular_energy": -9.08, "internal_energy": -1.73, "cluster_size": 2, "cluster_id": 3, "rank_in_cluster": 2}

>  <energy>  (77) 
-8.06

>  <cluster_rmsd>  (77) 
0.46

>  <cluster>  (77) 
2

$$$$

     RDKit          3D

 51 54  0  0  0  0  0  0  0  0999 V2000
  141.4660   72.4310  221.6680 O   0  0  0  0  0  0  0  0  0  0  0  0
  140.5380   72.6350  222.4750 C   0  0  0  0  0  0  0  0  0  0  0  0
  139.7440   73.8270  222.3450 N   0  0  0  0  0  0  0  0  0  0  0  0
  139.9270   74.8240  221.3600 C   0  0  0  0  0  0  0  0  0  0  0  0
  140.9820   75.8180  221.4380 C   0  0  0  0  0  0  0  0  0  0  0  0
  141.2020   76.2160  222.6790 O   0  0  0  0  0  0  0  0  0  0  0  0
  141.8010   76.4280  220.5000 N   0  0  0  0  0  0  0  0  0  0  0  0
  142.7120   75.7960  219.5510 C   0  0  0  0  0  0  0  0  0  0  0  0
  142.2200   76.0890  218.1580 C   0  0  0  0  0  0  0  0  0  0  0  0
  140.9750   76.9180  218.2110 C   0  0  0  0  0  0  0  0  0  0  0  0
  141.0980   78.1730  219.0570 C   0  0  0  0  0  0  0  0  0  0  0  0
  141.8140   77.9140  220.3340 C   0  0  1  0  0  0  0  0  0  0  0  0
  141.4430   78.6610  221.5090 C   0  0  0  0  0  0  0  0  0  0  0  0
  142.3160   79.2800  222.3950 C   0  0  0  0  0  0  0  0  0  0  0  0
  141.8900   79.9490  223.5200 C   0  0  0  0  0  0  0  0  0  0  0  0
  142.8140   80.5300  224.3380 F   0  0  0  0  0  0  0  0  0  0  0  0
  140.5620   80.0350  223.8240 C   0  0  0  0  0  0  0  0  0  0  0  0
  139.6680   79.4310  222.9650 C   0  0  0  0  0  0  0  0  0  0  0  0
  138.3400   79.5010  223.2440 F   0  0  0  0  0  0  0  0  0  0  0  0
  140.0950   78.7630  221.8390 C   0  0  0  0  0  0  0  0  0  0  0  0
  140.2670   71.6640  223.5410 C   0  0  0  0  0  0  0  0  0  0  0  0
  139.5540   70.5210  223.2490 C   0  0  0  0  0  0  0  0  0  0  0  0
  139.2520   69.5540  224.1860 C   0  0  0  0  0  0  0  0  0  0  0  0
  139.7060   69.7790  225.4720 C   0  0  0  0  0  0  0  0  0  0  0  0
  139.4000   68.8040  226.4070 C   0  0  0  0  0  0  0  0  0  0  0  0
  139.8430   69.0080  227.6970 C   0  0  0  0  0  0  0  0  0  0  0  0
  140.5630   70.1440  228.0320 C   0  0  0  0  0  0  0  0  0  0  0  0
  140.8520   71.0980  227.0770 C   0  0  0  0  0  0  0  0  0  0  0  0
  140.4190   70.9160  225.7750 C   0  0  0  0  0  0  0  0  0  0  0  0
  140.6880   71.8400  224.8070 N   0  0  0  0  0  0  0  0  0  0  0  0
  138.9750   73.8980  223.0840 H   0  0  0  0  0  0  0  0  0  0  0  0
  140.0812   74.2899  220.4108 H   0  0  0  0  0  0  0  0  0  0  0  0
  139.0271   75.4416  221.4970 H   0  0  0  0  0  0  0  0  0  0  0  0
  143.7257   76.2028  219.6809 H   0  0  0  0  0  0  0  0  0  0  0  0
  142.7439   74.7098  219.7215 H   0  0  0  0  0  0  0  0  0  0  0  0
  142.9978   76.6371  217.6061 H   0  0  0  0  0  0  0  0  0  0  0  0
  141.9964   75.1392  217.6501 H   0  0  0  0  0  0  0  0  0  0  0  0
  140.7163   77.2178  217.1847 H   0  0  0  0  0  0  0  0  0  0  0  0
  140.2002   76.2947  218.6812 H   0  0  0  0  0  0  0  0  0  0  0  0
  141.6520   78.9332  218.4867 H   0  0  0  0  0  0  0  0  0  0  0  0
  140.0831   78.5205  219.3002 H   0  0  0  0  0  0  0  0  0  0  0  0
  142.8308   78.3235  220.2422 H   0  0  0  0  0  0  0  0  0  0  0  0
  143.3954   79.2334  222.1883 H   0  0  0  0  0  0  0  0  0  0  0  0
  140.2170   80.5674  224.7226 H   0  0  0  0  0  0  0  0  0  0  0  0
  139.3479   78.2959  221.1805 H   0  0  0  0  0  0  0  0  0  0  0  0
  139.2078   70.3720  222.2156 H   0  0  0  0  0  0  0  0  0  0  0  0
  138.6802   68.6518  223.9234 H   0  0  0  0  0  0  0  0  0  0  0  0
  138.8281   67.9054  226.1324 H   0  0  0  0  0  0  0  0  0  0  0  0
  139.6218   68.2585  228.4711 H   0  0  0  0  0  0  0  0  0  0  0  0
  140.9069   70.2865  229.0671 H   0  0  0  0  0  0  0  0  0  0  0  0
  141.4232   71.9978  227.3492 H   0  0  0  0  0  0  0  0  0  0  0  0
  1  2  2  0
  2  3  1  0
  3  4  1  0
  4  5  1  0
  5  6  2  0
  5  7  1  0
  7  8  1  0
  8  9  1  0
  9 10  1  0
 10 11  1  0
 11 12  1  0
 12 13  1  0
 13 14  2  0
 14 15  1  0
 15 16  1  0
 15 17  2  0
 17 18  1  0
 18 19  1  0
 18 20  2  0
  2 21  1  0
 21 22  2  0
 22 23  1  0
 23 24  2  0
 24 25  1  0
 25 26  2  0
 26 27  1  0
 27 28  2  0
 28 29  1  0
 29 30  2  0
 12  7  1  0
 20 13  1  0
 30 21  1  0
 29 24  1  0
  3 31  1  0
  4 32  1  0
  4 33  1  0
  8 34  1  0
  8 35  1  0
  9 36  1  0
  9 37  1  0
 10 38  1  0
 10 39  1  0
 11 40  1  0
 11 41  1  0
 12 42  1  6
 14 43  1  0
 17 44  1  0
 20 45  1  0
 22 46  1  0
 23 47  1  0
 25 48  1  0
 26 49  1  0
 27 50  1  0
 28 51  1  0
M  END
>  <smiles>  (78) 
O=C(NCC(=O)N1CCCCC1c1cc(F)cc(F)c1)c1ccc2ccccc2n1

>  <score_type>  (78) 
oracle

>  <origin>  (78) 
autodockgpu

>  <m_score__min__energy>  (78) 
-8.7899999999999991

>  <m_primary>  (78) 
energy

>  <rmsd>  (78) 
2.0694538740858444

>  <m_score__min__rmsd>  (78) 
2.0694538740858444

>  <meeko>  (78) 
{"free_energy": -8.61, "intermolecular_energy": -10.1, "internal_energy": -1.17, "cluster_size": 9, "cluster_id": 1, "rank_in_cluster": 5}

>  <energy>  (78) 
-7.97

>  <cluster_rmsd>  (78) 
0.49

>  <cluster>  (78) 
2

$$$$

     RDKit          3D

 51 54  0  0  0  0  0  0  0  0999 V2000
  140.8200   71.5480  221.4240 O   0  0  0  0  0  0  0  0  0  0  0  0
  140.2020   72.0550  222.3800 C   0  0  0  0  0  0  0  0  0  0  0  0
  139.5740   73.3380  222.2080 N   0  0  0  0  0  0  0  0  0  0  0  0
  139.5980   74.1040  221.0210 C   0  0  0  0  0  0  0  0  0  0  0  0
  140.6570   75.0500  220.7210 C   0  0  0  0  0  0  0  0  0  0  0  0
  141.4090   75.3100  221.7770 O   0  0  0  0  0  0  0  0  0  0  0  0
  141.0470   75.7280  219.5750 N   0  0  0  0  0  0  0  0  0  0  0  0
  140.2180   76.5070  218.6610 C   0  0  0  0  0  0  0  0  0  0  0  0
  140.6720   77.9420  218.7200 C   0  0  0  0  0  0  0  0  0  0  0  0
  141.8060   78.0880  219.6850 C   0  0  0  0  0  0  0  0  0  0  0  0
  142.9570   77.1260  219.4450 C   0  0  0  0  0  0  0  0  0  0  0  0
  142.4780   75.7520  219.1410 C   0  0  1  0  0  0  0  0  0  0  0  0
  143.2650   74.6250  219.5720 C   0  0  0  0  0  0  0  0  0  0  0  0
  142.9790   73.2870  219.3320 C   0  0  0  0  0  0  0  0  0  0  0  0
  143.7600   72.2580  219.8070 C   0  0  0  0  0  0  0  0  0  0  0  0
  143.4090   70.9710  219.5240 F   0  0  0  0  0  0  0  0  0  0  0  0
  144.8750   72.5110  220.5540 C   0  0  0  0  0  0  0  0  0  0  0  0
  145.1870   73.8300  220.8120 C   0  0  0  0  0  0  0  0  0  0  0  0
  146.2900   74.1100  221.5540 F   0  0  0  0  0  0  0  0  0  0  0  0
  144.4050   74.8590  220.3350 C   0  0  0  0  0  0  0  0  0  0  0  0
  140.1210   71.3450  223.6610 C   0  0  0  0  0  0  0  0  0  0  0  0
  139.5610   70.0850  223.7010 C   0  0  0  0  0  0  0  0  0  0  0  0
  139.4430   69.3430  224.8580 C   0  0  0  0  0  0  0  0  0  0  0  0
  139.9220   69.9260  226.0160 C   0  0  0  0  0  0  0  0  0  0  0  0
  139.8010   69.1760  227.1730 C   0  0  0  0  0  0  0  0  0  0  0  0
  140.2730   69.7380  228.3410 C   0  0  0  0  0  0  0  0  0  0  0  0
  140.8420   71.0010  228.3430 C   0  0  0  0  0  0  0  0  0  0  0  0
  140.9490   71.7250  227.1730 C   0  0  0  0  0  0  0  0  0  0  0  0
  140.4830   71.1830  225.9880 C   0  0  0  0  0  0  0  0  0  0  0  0
  140.5730   71.8720  224.8130 N   0  0  0  0  0  0  0  0  0  0  0  0
  139.0690   73.6750  223.0880 H   0  0  0  0  0  0  0  0  0  0  0  0
  139.5910   73.3813  220.1917 H   0  0  0  0  0  0  0  0  0  0  0  0
  138.7363   74.7717  221.1680 H   0  0  0  0  0  0  0  0  0  0  0  0
  140.3310   76.1226  217.6366 H   0  0  0  0  0  0  0  0  0  0  0  0
  139.1595   76.4314  218.9504 H   0  0  0  0  0  0  0  0  0  0  0  0
  141.0031   78.2594  217.7202 H   0  0  0  0  0  0  0  0  0  0  0  0
  139.8332   78.5694  219.0557 H   0  0  0  0  0  0  0  0  0  0  0  0
  142.1933   79.1148  219.6091 H   0  0  0  0  0  0  0  0  0  0  0  0
  141.4037   77.8563  220.6822 H   0  0  0  0  0  0  0  0  0  0  0  0
  143.5537   77.4904  218.5958 H   0  0  0  0  0  0  0  0  0  0  0  0
  143.5602   77.0808  220.3637 H   0  0  0  0  0  0  0  0  0  0  0  0
  142.5981   75.5807  218.0611 H   0  0  0  0  0  0  0  0  0  0  0  0
  142.0886   73.0388  218.7357 H   0  0  0  0  0  0  0  0  0  0  0  0
  145.5021   71.6922  220.9364 H   0  0  0  0  0  0  0  0  0  0  0  0
  144.6902   75.8964  220.5641 H   0  0  0  0  0  0  0  0  0  0  0  0
  139.1893   69.6494  222.7618 H   0  0  0  0  0  0  0  0  0  0  0  0
  138.9914   68.3400  224.8589 H   0  0  0  0  0  0  0  0  0  0  0  0
  139.3475   68.1739  227.1616 H   0  0  0  0  0  0  0  0  0  0  0  0
  140.1965   69.1757  229.2834 H   0  0  0  0  0  0  0  0  0  0  0  0
  141.2119   71.4307  229.2856 H   0  0  0  0  0  0  0  0  0  0  0  0
  141.4022   72.7273  227.1823 H   0  0  0  0  0  0  0  0  0  0  0  0
  1  2  2  0
  2  3  1  0
  3  4  1  0
  4  5  1  0
  5  6  2  0
  5  7  1  0
  7  8  1  0
  8  9  1  0
  9 10  1  0
 10 11  1  0
 11 12  1  0
 12 13  1  0
 13 14  2  0
 14 15  1  0
 15 16  1  0
 15 17  2  0
 17 18  1  0
 18 19  1  0
 18 20  2  0
  2 21  1  0
 21 22  2  0
 22 23  1  0
 23 24  2  0
 24 25  1  0
 25 26  2  0
 26 27  1  0
 27 28  2  0
 28 29  1  0
 29 30  2  0
 12  7  1  0
 20 13  1  0
 30 21  1  0
 29 24  1  0
  3 31  1  0
  4 32  1  0
  4 33  1  0
  8 34  1  0
  8 35  1  0
  9 36  1  0
  9 37  1  0
 10 38  1  0
 10 39  1  0
 11 40  1  0
 11 41  1  0
 12 42  1  6
 14 43  1  0
 17 44  1  0
 20 45  1  0
 22 46  1  0
 23 47  1  0
 25 48  1  0
 26 49  1  0
 27 50  1  0
 28 51  1  0
M  END
>  <smiles>  (79) 
O=C(NCC(=O)N1CCCCC1c1cc(F)cc(F)c1)c1ccc2ccccc2n1

>  <score_type>  (79) 
oracle

>  <origin>  (79) 
autodockgpu

>  <m_score__min__energy>  (79) 
-8.7899999999999991

>  <m_primary>  (79) 
energy

>  <rmsd>  (79) 
1.8603929997507571

>  <m_score__min__rmsd>  (79) 
1.8603929997507571

>  <meeko>  (79) 
{"free_energy": -8.39, "intermolecular_energy": -9.89, "internal_energy": -1.65, "cluster_size": 27, "cluster_id": 2, "rank_in_cluster": 5}

>  <energy>  (79) 
-7.97

>  <cluster_rmsd>  (79) 
0.67

>  <cluster>  (79) 
2

$$$$

     RDKit          3D

 51 54  0  0  0  0  0  0  0  0999 V2000
  139.3080   70.5950  221.4200 O   0  0  0  0  0  0  0  0  0  0  0  0
  139.8760   71.1550  222.3780 C   0  0  0  0  0  0  0  0  0  0  0  0
  140.5230   72.4220  222.1650 N   0  0  0  0  0  0  0  0  0  0  0  0
  140.5820   73.1100  220.9320 C   0  0  0  0  0  0  0  0  0  0  0  0
  141.0180   74.4900  220.8250 C   0  0  0  0  0  0  0  0  0  0  0  0
  141.4460   74.9700  221.9790 O   0  0  0  0  0  0  0  0  0  0  0  0
  141.0870   75.4000  219.7800 N   0  0  0  0  0  0  0  0  0  0  0  0
  139.9930   76.1230  219.1410 C   0  0  0  0  0  0  0  0  0  0  0  0
  140.1850   77.5950  219.3990 C   0  0  0  0  0  0  0  0  0  0  0  0
  141.4180   77.8200  220.2160 C   0  0  0  0  0  0  0  0  0  0  0  0
  142.6670   77.1630  219.6560 C   0  0  0  0  0  0  0  0  0  0  0  0
  142.3980   75.7820  219.1730 C   0  0  1  0  0  0  0  0  0  0  0  0
  143.4350   74.7880  219.2840 C   0  0  0  0  0  0  0  0  0  0  0  0
  143.6630   73.7410  218.3990 C   0  0  0  0  0  0  0  0  0  0  0  0
  144.6530   72.8040  218.5890 C   0  0  0  0  0  0  0  0  0  0  0  0
  144.8110   71.8080  217.6700 F   0  0  0  0  0  0  0  0  0  0  0  0
  145.4730   72.8600  219.6790 C   0  0  0  0  0  0  0  0  0  0  0  0
  145.2720   73.8870  220.5780 C   0  0  0  0  0  0  0  0  0  0  0  0
  146.0740   73.9660  221.6730 F   0  0  0  0  0  0  0  0  0  0  0  0
  144.2820   74.8250  220.3870 C   0  0  0  0  0  0  0  0  0  0  0  0
  139.8780   70.5220  223.7010 C   0  0  0  0  0  0  0  0  0  0  0  0
  139.2490   69.3070  223.8710 C   0  0  0  0  0  0  0  0  0  0  0  0
  139.2000   68.6390  225.0770 C   0  0  0  0  0  0  0  0  0  0  0  0
  139.8270   69.2510  226.1470 C   0  0  0  0  0  0  0  0  0  0  0  0
  139.7750   68.5740  227.3530 C   0  0  0  0  0  0  0  0  0  0  0  0
  140.3930   69.1670  228.4340 C   0  0  0  0  0  0  0  0  0  0  0  0
  141.0370   70.3870  228.3060 C   0  0  0  0  0  0  0  0  0  0  0  0
  141.0720   71.0370  227.0880 C   0  0  0  0  0  0  0  0  0  0  0  0
  140.4590   70.4640  225.9890 C   0  0  0  0  0  0  0  0  0  0  0  0
  140.4740   71.0800  224.7710 N   0  0  0  0  0  0  0  0  0  0  0  0
  140.9720   72.8140  223.0520 H   0  0  0  0  0  0  0  0  0  0  0  0
  141.2577   72.5264  220.2895 H   0  0  0  0  0  0  0  0  0  0  0  0
  139.5167   73.1911  220.6700 H   0  0  0  0  0  0  0  0  0  0  0  0
  140.0025   75.9308  218.0580 H   0  0  0  0  0  0  0  0  0  0  0  0
  139.0279   75.7891  219.5498 H   0  0  0  0  0  0  0  0  0  0  0  0
  140.2842   78.1223  218.4387 H   0  0  0  0  0  0  0  0  0  0  0  0
  139.3141   77.9793  219.9503 H   0  0  0  0  0  0  0  0  0  0  0  0
  141.5971   78.9035  220.2782 H   0  0  0  0  0  0  0  0  0  0  0  0
  141.2335   77.3601  221.1981 H   0  0  0  0  0  0  0  0  0  0  0  0
  143.0406   77.7671  218.8161 H   0  0  0  0  0  0  0  0  0  0  0  0
  143.4119   77.1029  220.4632 H   0  0  0  0  0  0  0  0  0  0  0  0
  142.3663   75.8054  218.0737 H   0  0  0  0  0  0  0  0  0  0  0  0
  143.0241   73.6575  217.5075 H   0  0  0  0  0  0  0  0  0  0  0  0
  146.2655   72.1132  219.8349 H   0  0  0  0  0  0  0  0  0  0  0  0
  144.1572   75.6276  221.1288 H   0  0  0  0  0  0  0  0  0  0  0  0
  138.7608   68.8462  222.9996 H   0  0  0  0  0  0  0  0  0  0  0  0
  138.6891   67.6705  225.1820 H   0  0  0  0  0  0  0  0  0  0  0  0
  139.2629   67.6049  227.4453 H   0  0  0  0  0  0  0  0  0  0  0  0
  140.3743   68.6640  229.4121 H   0  0  0  0  0  0  0  0  0  0  0  0
  141.5242   70.8414  229.1813 H   0  0  0  0  0  0  0  0  0  0  0  0
  141.5848   72.0055  226.9926 H   0  0  0  0  0  0  0  0  0  0  0  0
  1  2  2  0
  2  3  1  0
  3  4  1  0
  4  5  1  0
  5  6  2  0
  5  7  1  0
  7  8  1  0
  8  9  1  0
  9 10  1  0
 10 11  1  0
 11 12  1  0
 12 13  1  0
 13 14  2  0
 14 15  1  0
 15 16  1  0
 15 17  2  0
 17 18  1  0
 18 19  1  0
 18 20  2  0
  2 21  1  0
 21 22  2  0
 22 23  1  0
 23 24  2  0
 24 25  1  0
 25 26  2  0
 26 27  1  0
 27 28  2  0
 28 29  1  0
 29 30  2  0
 12  7  1  0
 20 13  1  0
 30 21  1  0
 29 24  1  0
  3 31  1  0
  4 32  1  0
  4 33  1  0
  8 34  1  0
  8 35  1  0
  9 36  1  0
  9 37  1  0
 10 38  1  0
 10 39  1  0
 11 40  1  0
 11 41  1  0
 12 42  1  6
 14 43  1  0
 17 44  1  0
 20 45  1  0
 22 46  1  0
 23 47  1  0
 25 48  1  0
 26 49  1  0
 27 50  1  0
 28 51  1  0
M  END
>  <smiles>  (80) 
O=C(NCC(=O)N1CCCCC1c1cc(F)cc(F)c1)c1ccc2ccccc2n1

>  <score_type>  (80) 
oracle

>  <origin>  (80) 
autodockgpu

>  <m_score__min__energy>  (80) 
-8.7899999999999991

>  <m_primary>  (80) 
energy

>  <rmsd>  (80) 
1.9033423620349907

>  <m_score__min__rmsd>  (80) 
1.9033423620349907

>  <meeko>  (80) 
{"free_energy": -7.5, "intermolecular_energy": -8.99, "internal_energy": -1.88, "cluster_size": 27, "cluster_id": 2, "rank_in_cluster": 27}

>  <energy>  (80) 
-7.94

>  <cluster_rmsd>  (80) 
0.47

>  <cluster>  (80) 
2

$$$$

     RDKit          3D

 51 54  0  0  0  0  0  0  0  0999 V2000
  140.8060   76.5980  218.6090 O   0  0  0  0  0  0  0  0  0  0  0  0
  141.9940   76.6630  218.9830 C   0  0  0  0  0  0  0  0  0  0  0  0
  142.5240   77.9270  219.4190 N   0  0  0  0  0  0  0  0  0  0  0  0
  141.8030   79.1420  219.4590 C   0  0  0  0  0  0  0  0  0  0  0  0
  141.4820   79.8230  220.7000 C   0  0  0  0  0  0  0  0  0  0  0  0
  140.6180   80.8060  220.5220 O   0  0  0  0  0  0  0  0  0  0  0  0
  141.8800   79.6590  222.0190 N   0  0  0  0  0  0  0  0  0  0  0  0
  142.9880   80.3060  222.7140 C   0  0  0  0  0  0  0  0  0  0  0  0
  142.4190   81.1650  223.8130 C   0  0  0  0  0  0  0  0  0  0  0  0
  140.9260   81.0700  223.8240 C   0  0  0  0  0  0  0  0  0  0  0  0
  140.3910   79.6490  223.8640 C   0  0  0  0  0  0  0  0  0  0  0  0
  141.1360   78.7500  222.9430 C   0  0  1  0  0  0  0  0  0  0  0  0
  140.4330   77.6680  222.3010 C   0  0  0  0  0  0  0  0  0  0  0  0
  139.1400   77.7190  221.7950 C   0  0  0  0  0  0  0  0  0  0  0  0
  138.5170   76.6320  221.2250 C   0  0  0  0  0  0  0  0  0  0  0  0
  137.2450   76.7680  220.7510 F   0  0  0  0  0  0  0  0  0  0  0  0
  139.1550   75.4290  221.1300 C   0  0  0  0  0  0  0  0  0  0  0  0
  140.4400   75.3440  221.6230 C   0  0  0  0  0  0  0  0  0  0  0  0
  141.0970   74.1580  221.5420 F   0  0  0  0  0  0  0  0  0  0  0  0
  141.0630   76.4320  222.1930 C   0  0  0  0  0  0  0  0  0  0  0  0
  142.8320   75.4590  218.9760 C   0  0  0  0  0  0  0  0  0  0  0  0
  142.6540   74.5180  217.9840 C   0  0  0  0  0  0  0  0  0  0  0  0
  143.3950   73.3570  217.8960 C   0  0  0  0  0  0  0  0  0  0  0  0
  144.3550   73.1640  218.8720 C   0  0  0  0  0  0  0  0  0  0  0  0
  145.0950   71.9980  218.7780 C   0  0  0  0  0  0  0  0  0  0  0  0
  146.0590   71.7840  219.7410 C   0  0  0  0  0  0  0  0  0  0  0  0
  146.2700   72.7050  220.7540 C   0  0  0  0  0  0  0  0  0  0  0  0
  145.5150   73.8600  220.8210 C   0  0  0  0  0  0  0  0  0  0  0  0
  144.5420   74.0970  219.8660 C   0  0  0  0  0  0  0  0  0  0  0  0
  143.7790   75.2280  219.9030 N   0  0  0  0  0  0  0  0  0  0  0  0
  143.5470   77.8670  219.7220 H   0  0  0  0  0  0  0  0  0  0  0  0
  142.3819   79.8595  218.8589 H   0  0  0  0  0  0  0  0  0  0  0  0
  140.8079   78.8225  219.1159 H   0  0  0  0  0  0  0  0  0  0  0  0
  143.6533   79.5432  223.1447 H   0  0  0  0  0  0  0  0  0  0  0  0
  143.5676   80.9232  222.0118 H   0  0  0  0  0  0  0  0  0  0  0  0
  142.8118   80.8226  224.7818 H   0  0  0  0  0  0  0  0  0  0  0  0
  142.7103   82.2111  223.6375 H   0  0  0  0  0  0  0  0  0  0  0  0
  140.5532   81.6037  224.7107 H   0  0  0  0  0  0  0  0  0  0  0  0
  140.5749   81.5126  222.8801 H   0  0  0  0  0  0  0  0  0  0  0  0
  140.4834   79.2629  224.8899 H   0  0  0  0  0  0  0  0  0  0  0  0
  139.3394   79.6714  223.5420 H   0  0  0  0  0  0  0  0  0  0  0  0
  141.8048   78.1206  223.5484 H   0  0  0  0  0  0  0  0  0  0  0  0
  138.5900   78.6699  221.8524 H   0  0  0  0  0  0  0  0  0  0  0  0
  138.6611   74.5574  220.6758 H   0  0  0  0  0  0  0  0  0  0  0  0
  142.0888   76.3206  222.5741 H   0  0  0  0  0  0  0  0  0  0  0  0
  141.8812   74.7022  217.2232 H   0  0  0  0  0  0  0  0  0  0  0  0
  143.2306   72.6243  217.0922 H   0  0  0  0  0  0  0  0  0  0  0  0
  144.9216   71.2727  217.9694 H   0  0  0  0  0  0  0  0  0  0  0  0
  146.6688   70.8692  219.7041 H   0  0  0  0  0  0  0  0  0  0  0  0
  147.0450   72.5152  221.5112 H   0  0  0  0  0  0  0  0  0  0  0  0
  145.6863   74.5869  221.6286 H   0  0  0  0  0  0  0  0  0  0  0  0
  1  2  2  0
  2  3  1  0
  3  4  1  0
  4  5  1  0
  5  6  2  0
  5  7  1  0
  7  8  1  0
  8  9  1  0
  9 10  1  0
 10 11  1  0
 11 12  1  0
 12 13  1  0
 13 14  2  0
 14 15  1  0
 15 16  1  0
 15 17  2  0
 17 18  1  0
 18 19  1  0
 18 20  2  0
  2 21  1  0
 21 22  2  0
 22 23  1  0
 23 24  2  0
 24 25  1  0
 25 26  2  0
 26 27  1  0
 27 28  2  0
 28 29  1  0
 29 30  2  0
 12  7  1  0
 20 13  1  0
 30 21  1  0
 29 24  1  0
  3 31  1  0
  4 32  1  0
  4 33  1  0
  8 34  1  0
  8 35  1  0
  9 36  1  0
  9 37  1  0
 10 38  1  0
 10 39  1  0
 11 40  1  0
 11 41  1  0
 12 42  1  1
 14 43  1  0
 17 44  1  0
 20 45  1  0
 22 46  1  0
 23 47  1  0
 25 48  1  0
 26 49  1  0
 27 50  1  0
 28 51  1  0
M  END
>  <smiles>  (81) 
O=C(NCC(=O)N1CCCCC1c1cc(F)cc(F)c1)c1ccc2ccccc2n1

>  <score_type>  (81) 
oracle

>  <origin>  (81) 
autodockgpu

>  <m_score__min__energy>  (81) 
-8.7899999999999991

>  <m_primary>  (81) 
energy

>  <rmsd>  (81) 
7.74710430494047

>  <m_score__min__rmsd>  (81) 
7.74710430494047

>  <meeko>  (81) 
{"free_energy": -7.05, "intermolecular_energy": -8.55, "internal_energy": -2.36, "cluster_size": 7, "cluster_id": 6, "rank_in_cluster": 2}

>  <energy>  (81) 
-7.93

>  <cluster_rmsd>  (81) 
0.69

>  <cluster>  (81) 
2

$$$$

     RDKit          3D

 51 54  0  0  0  0  0  0  0  0999 V2000
  141.4980   72.5960  221.6690 O   0  0  0  0  0  0  0  0  0  0  0  0
  140.5410   72.7450  222.4540 C   0  0  0  0  0  0  0  0  0  0  0  0
  139.7080   73.9110  222.3310 N   0  0  0  0  0  0  0  0  0  0  0  0
  139.8810   74.9380  221.3780 C   0  0  0  0  0  0  0  0  0  0  0  0
  140.9280   75.9380  221.4850 C   0  0  0  0  0  0  0  0  0  0  0  0
  141.0640   76.3890  222.7190 O   0  0  0  0  0  0  0  0  0  0  0  0
  141.8090   76.5110  220.5790 N   0  0  0  0  0  0  0  0  0  0  0  0
  142.7450   75.8400  219.6830 C   0  0  0  0  0  0  0  0  0  0  0  0
  142.3270   76.1270  218.2640 C   0  0  0  0  0  0  0  0  0  0  0  0
  141.1070   76.9920  218.2470 C   0  0  0  0  0  0  0  0  0  0  0  0
  141.2260   78.2550  219.0820 C   0  0  0  0  0  0  0  0  0  0  0  0
  141.8730   77.9930  220.3950 C   0  0  1  0  0  0  0  0  0  0  0  0
  141.4680   78.7680  221.5410 C   0  0  0  0  0  0  0  0  0  0  0  0
  140.1610   79.0400  221.9250 C   0  0  0  0  0  0  0  0  0  0  0  0
  139.8480   79.8210  223.0140 C   0  0  0  0  0  0  0  0  0  0  0  0
  138.5370   80.0380  223.3230 F   0  0  0  0  0  0  0  0  0  0  0  0
  140.8300   80.3760  223.7840 C   0  0  0  0  0  0  0  0  0  0  0  0
  142.1390   80.1260  223.4290 C   0  0  0  0  0  0  0  0  0  0  0  0
  143.1360   80.6680  224.1780 F   0  0  0  0  0  0  0  0  0  0  0  0
  142.4510   79.3450  222.3400 C   0  0  0  0  0  0  0  0  0  0  0  0
  140.2770   71.7370  223.4880 C   0  0  0  0  0  0  0  0  0  0  0  0
  139.5610   70.6050  223.1600 C   0  0  0  0  0  0  0  0  0  0  0  0
  139.2660   69.6060  224.0650 C   0  0  0  0  0  0  0  0  0  0  0  0
  139.7270   69.7860  225.3560 C   0  0  0  0  0  0  0  0  0  0  0  0
  139.4270   68.7790  226.2570 C   0  0  0  0  0  0  0  0  0  0  0  0
  139.8780   68.9390  227.5510 C   0  0  0  0  0  0  0  0  0  0  0  0
  140.6000   70.0620  227.9200 C   0  0  0  0  0  0  0  0  0  0  0  0
  140.8840   71.0490  226.9980 C   0  0  0  0  0  0  0  0  0  0  0  0
  140.4420   70.9120  225.6930 C   0  0  0  0  0  0  0  0  0  0  0  0
  140.7050   71.8690  224.7560 N   0  0  0  0  0  0  0  0  0  0  0  0
  138.9170   73.9350  223.0500 H   0  0  0  0  0  0  0  0  0  0  0  0
  140.0380   74.4346  220.4127 H   0  0  0  0  0  0  0  0  0  0  0  0
  138.9763   75.5437  221.5352 H   0  0  0  0  0  0  0  0  0  0  0  0
  143.7628   76.2200  219.8554 H   0  0  0  0  0  0  0  0  0  0  0  0
  142.7380   74.7559  219.8691 H   0  0  0  0  0  0  0  0  0  0  0  0
  143.1457   76.6440  217.7421 H   0  0  0  0  0  0  0  0  0  0  0  0
  142.0989   75.1767  217.7591 H   0  0  0  0  0  0  0  0  0  0  0  0
  140.9065   77.2847  217.2058 H   0  0  0  0  0  0  0  0  0  0  0  0
  140.2929   76.3979  218.6878 H   0  0  0  0  0  0  0  0  0  0  0  0
  141.8283   78.9912  218.5294 H   0  0  0  0  0  0  0  0  0  0  0  0
  140.2113   78.6349  219.2718 H   0  0  0  0  0  0  0  0  0  0  0  0
  142.9051   78.3706  220.3473 H   0  0  0  0  0  0  0  0  0  0  0  0
  139.3393   78.6119  221.3320 H   0  0  0  0  0  0  0  0  0  0  0  0
  140.5856   81.0001  224.6562 H   0  0  0  0  0  0  0  0  0  0  0  0
  143.5089   79.1714  222.0934 H   0  0  0  0  0  0  0  0  0  0  0  0
  139.2071   70.4927  222.1245 H   0  0  0  0  0  0  0  0  0  0  0  0
  138.6937   68.7127  223.7744 H   0  0  0  0  0  0  0  0  0  0  0  0
  138.8541   67.8900  225.9546 H   0  0  0  0  0  0  0  0  0  0  0  0
  139.6611   68.1636  228.3004 H   0  0  0  0  0  0  0  0  0  0  0  0
  140.9502   70.1682  228.9573 H   0  0  0  0  0  0  0  0  0  0  0  0
  141.4576   71.9384  227.2979 H   0  0  0  0  0  0  0  0  0  0  0  0
  1  2  2  0
  2  3  1  0
  3  4  1  0
  4  5  1  0
  5  6  2  0
  5  7  1  0
  7  8  1  0
  8  9  1  0
  9 10  1  0
 10 11  1  0
 11 12  1  0
 12 13  1  0
 13 14  2  0
 14 15  1  0
 15 16  1  0
 15 17  2  0
 17 18  1  0
 18 19  1  0
 18 20  2  0
  2 21  1  0
 21 22  2  0
 22 23  1  0
 23 24  2  0
 24 25  1  0
 25 26  2  0
 26 27  1  0
 27 28  2  0
 28 29  1  0
 29 30  2  0
 12  7  1  0
 20 13  1  0
 30 21  1  0
 29 24  1  0
  3 31  1  0
  4 32  1  0
  4 33  1  0
  8 34  1  0
  8 35  1  0
  9 36  1  0
  9 37  1  0
 10 38  1  0
 10 39  1  0
 11 40  1  0
 11 41  1  0
 12 42  1  6
 14 43  1  0
 17 44  1  0
 20 45  1  0
 22 46  1  0
 23 47  1  0
 25 48  1  0
 26 49  1  0
 27 50  1  0
 28 51  1  0
M  END
>  <smiles>  (82) 
O=C(NCC(=O)N1CCCCC1c1cc(F)cc(F)c1)c1ccc2ccccc2n1

>  <score_type>  (82) 
oracle

>  <origin>  (82) 
autodockgpu

>  <m_score__min__energy>  (82) 
-8.7899999999999991

>  <m_primary>  (82) 
energy

>  <rmsd>  (82) 
2.1322508977889085

>  <m_score__min__rmsd>  (82) 
2.1322508977889085

>  <meeko>  (82) 
{"free_energy": -8.74, "intermolecular_energy": -10.23, "internal_energy": -1.17, "cluster_size": 9, "cluster_id": 1, "rank_in_cluster": 4}

>  <energy>  (82) 
-7.88

>  <cluster_rmsd>  (82) 
0.84

>  <cluster>  (82) 
2

$$$$

     RDKit          3D

 51 54  0  0  0  0  0  0  0  0999 V2000
  141.1840   71.4990  221.5200 O   0  0  0  0  0  0  0  0  0  0  0  0
  140.4020   71.9300  222.3900 C   0  0  0  0  0  0  0  0  0  0  0  0
  139.6480   73.1260  222.1240 N   0  0  0  0  0  0  0  0  0  0  0  0
  139.7180   73.8850  220.9350 C   0  0  0  0  0  0  0  0  0  0  0  0
  140.6710   74.9640  220.7490 C   0  0  0  0  0  0  0  0  0  0  0  0
  141.2790   75.2930  221.8750 O   0  0  0  0  0  0  0  0  0  0  0  0
  141.0790   75.7100  219.6530 N   0  0  0  0  0  0  0  0  0  0  0  0
  140.2640   76.5370  218.7700 C   0  0  0  0  0  0  0  0  0  0  0  0
  140.7070   77.9690  218.9230 C   0  0  0  0  0  0  0  0  0  0  0  0
  141.8210   78.0630  219.9170 C   0  0  0  0  0  0  0  0  0  0  0  0
  142.9820   77.1240  219.6440 C   0  0  0  0  0  0  0  0  0  0  0  0
  142.5180   75.7670  219.2500 C   0  0  1  0  0  0  0  0  0  0  0  0
  143.3040   74.6210  219.6300 C   0  0  0  0  0  0  0  0  0  0  0  0
  144.4550   74.6400  220.4080 C   0  0  0  0  0  0  0  0  0  0  0  0
  145.1780   73.5060  220.7020 C   0  0  0  0  0  0  0  0  0  0  0  0
  146.2960   73.6120  221.4750 F   0  0  0  0  0  0  0  0  0  0  0  0
  144.7890   72.2850  220.2290 C   0  0  0  0  0  0  0  0  0  0  0  0
  143.6510   72.2320  219.4520 C   0  0  0  0  0  0  0  0  0  0  0  0
  143.2430   71.0290  218.9680 F   0  0  0  0  0  0  0  0  0  0  0  0
  142.9280   73.3670  219.1600 C   0  0  0  0  0  0  0  0  0  0  0  0
  140.2590   71.2180  223.6650 C   0  0  0  0  0  0  0  0  0  0  0  0
  139.6060   70.0040  223.6920 C   0  0  0  0  0  0  0  0  0  0  0  0
  139.4240   69.2650  224.8430 C   0  0  0  0  0  0  0  0  0  0  0  0
  139.9380   69.8040  226.0090 C   0  0  0  0  0  0  0  0  0  0  0  0
  139.7530   69.0560  227.1590 C   0  0  0  0  0  0  0  0  0  0  0  0
  140.2580   69.5740  228.3340 C   0  0  0  0  0  0  0  0  0  0  0  0
  140.9210   70.7910  228.3490 C   0  0  0  0  0  0  0  0  0  0  0  0
  141.0900   71.5120  227.1850 C   0  0  0  0  0  0  0  0  0  0  0  0
  140.5920   71.0140  225.9930 C   0  0  0  0  0  0  0  0  0  0  0  0
  140.7420   71.7020  224.8240 N   0  0  0  0  0  0  0  0  0  0  0  0
  139.0070   73.4020  222.9340 H   0  0  0  0  0  0  0  0  0  0  0  0
  139.9104   73.1657  220.1253 H   0  0  0  0  0  0  0  0  0  0  0  0
  138.7639   74.4317  220.9623 H   0  0  0  0  0  0  0  0  0  0  0  0
  140.4005   76.2146  217.7272 H   0  0  0  0  0  0  0  0  0  0  0  0
  139.2003   76.4386  219.0326 H   0  0  0  0  0  0  0  0  0  0  0  0
  141.0552   78.3473  217.9505 H   0  0  0  0  0  0  0  0  0  0  0  0
  139.8577   78.5709  219.2785 H   0  0  0  0  0  0  0  0  0  0  0  0
  142.2031   79.0945  219.9099 H   0  0  0  0  0  0  0  0  0  0  0  0
  141.4006   77.7698  220.8903 H   0  0  0  0  0  0  0  0  0  0  0  0
  143.5927   77.5412  218.8297 H   0  0  0  0  0  0  0  0  0  0  0  0
  143.5675   77.0281  220.5703 H   0  0  0  0  0  0  0  0  0  0  0  0
  142.6604   75.6598  218.1645 H   0  0  0  0  0  0  0  0  0  0  0  0
  144.8040   75.6039  220.8067 H   0  0  0  0  0  0  0  0  0  0  0  0
  145.3635   71.3758  220.4599 H   0  0  0  0  0  0  0  0  0  0  0  0
  142.0261   73.2793  218.5364 H   0  0  0  0  0  0  0  0  0  0  0  0
  139.2096   69.6039  222.7471 H   0  0  0  0  0  0  0  0  0  0  0  0
  138.8982   68.2988  224.8340 H   0  0  0  0  0  0  0  0  0  0  0  0
  139.2263   68.0906  227.1371 H   0  0  0  0  0  0  0  0  0  0  0  0
  140.1326   69.0132  229.2720 H   0  0  0  0  0  0  0  0  0  0  0  0
  141.3158   71.1853  229.2970 H   0  0  0  0  0  0  0  0  0  0  0  0
  141.6174   72.4771  227.2038 H   0  0  0  0  0  0  0  0  0  0  0  0
  1  2  2  0
  2  3  1  0
  3  4  1  0
  4  5  1  0
  5  6  2  0
  5  7  1  0
  7  8  1  0
  8  9  1  0
  9 10  1  0
 10 11  1  0
 11 12  1  0
 12 13  1  0
 13 14  2  0
 14 15  1  0
 15 16  1  0
 15 17  2  0
 17 18  1  0
 18 19  1  0
 18 20  2  0
  2 21  1  0
 21 22  2  0
 22 23  1  0
 23 24  2  0
 24 25  1  0
 25 26  2  0
 26 27  1  0
 27 28  2  0
 28 29  1  0
 29 30  2  0
 12  7  1  0
 20 13  1  0
 30 21  1  0
 29 24  1  0
  3 31  1  0
  4 32  1  0
  4 33  1  0
  8 34  1  0
  8 35  1  0
  9 36  1  0
  9 37  1  0
 10 38  1  0
 10 39  1  0
 11 40  1  0
 11 41  1  0
 12 42  1  6
 14 43  1  0
 17 44  1  0
 20 45  1  0
 22 46  1  0
 23 47  1  0
 25 48  1  0
 26 49  1  0
 27 50  1  0
 28 51  1  0
M  END
>  <smiles>  (83) 
O=C(NCC(=O)N1CCCCC1c1cc(F)cc(F)c1)c1ccc2ccccc2n1

>  <score_type>  (83) 
oracle

>  <origin>  (83) 
autodockgpu

>  <m_score__min__energy>  (83) 
-8.7899999999999991

>  <m_primary>  (83) 
energy

>  <rmsd>  (83) 
1.9047463674167129

>  <m_score__min__rmsd>  (83) 
1.9047463674167129

>  <meeko>  (83) 
{"free_energy": -8.28, "intermolecular_energy": -9.77, "internal_energy": -1.63, "cluster_size": 27, "cluster_id": 2, "rank_in_cluster": 14}

>  <energy>  (83) 
-7.87

>  <cluster_rmsd>  (83) 
0.71

>  <cluster>  (83) 
2

$$$$

     RDKit          3D

 51 54  0  0  0  0  0  0  0  0999 V2000
  140.3150   71.7900  221.1360 O   0  0  0  0  0  0  0  0  0  0  0  0
  140.0190   72.2810  222.2430 C   0  0  0  0  0  0  0  0  0  0  0  0
  139.6610   73.6720  222.3190 N   0  0  0  0  0  0  0  0  0  0  0  0
  139.6170   74.5630  221.2240 C   0  0  0  0  0  0  0  0  0  0  0  0
  140.8110   75.1480  220.6410 C   0  0  0  0  0  0  0  0  0  0  0  0
  141.7570   75.3530  221.5410 O   0  0  0  0  0  0  0  0  0  0  0  0
  141.1690   75.5280  219.3550 N   0  0  0  0  0  0  0  0  0  0  0  0
  140.3350   76.1560  218.3360 C   0  0  0  0  0  0  0  0  0  0  0  0
  140.8900   77.5280  218.0540 C   0  0  0  0  0  0  0  0  0  0  0  0
  142.0940   77.7850  218.9040 C   0  0  0  0  0  0  0  0  0  0  0  0
  143.1570   76.7040  218.8230 C   0  0  0  0  0  0  0  0  0  0  0  0
  142.5650   75.3400  218.8550 C   0  0  1  0  0  0  0  0  0  0  0  0
  143.3000   74.2720  219.4830 C   0  0  0  0  0  0  0  0  0  0  0  0
  142.9290   72.9340  219.5190 C   0  0  0  0  0  0  0  0  0  0  0  0
  143.6650   71.9710  220.1720 C   0  0  0  0  0  0  0  0  0  0  0  0
  143.2310   70.6780  220.1570 F   0  0  0  0  0  0  0  0  0  0  0  0
  144.8170   72.2950  220.8290 C   0  0  0  0  0  0  0  0  0  0  0  0
  145.2140   73.6160  220.8130 C   0  0  0  0  0  0  0  0  0  0  0  0
  146.3560   73.9660  221.4600 F   0  0  0  0  0  0  0  0  0  0  0  0
  144.4770   74.5780  220.1600 C   0  0  0  0  0  0  0  0  0  0  0  0
  140.0400   71.4430  223.4470 C   0  0  0  0  0  0  0  0  0  0  0  0
  139.5700   70.1480  223.3770 C   0  0  0  0  0  0  0  0  0  0  0  0
  139.5500   69.2890  224.4560 C   0  0  0  0  0  0  0  0  0  0  0  0
  140.0350   69.7870  225.6510 C   0  0  0  0  0  0  0  0  0  0  0  0
  140.0130   68.9190  226.7290 C   0  0  0  0  0  0  0  0  0  0  0  0
  140.4920   69.3960  227.9310 C   0  0  0  0  0  0  0  0  0  0  0  0
  140.9730   70.6900  228.0430 C   0  0  0  0  0  0  0  0  0  0  0  0
  140.9820   71.5320  226.9500 C   0  0  0  0  0  0  0  0  0  0  0  0
  140.5070   71.0780  225.7320 C   0  0  0  0  0  0  0  0  0  0  0  0
  140.5010   71.8840  224.6310 N   0  0  0  0  0  0  0  0  0  0  0  0
  139.4220   73.9870  223.3130 H   0  0  0  0  0  0  0  0  0  0  0  0
  139.1149   74.0202  220.4096 H   0  0  0  0  0  0  0  0  0  0  0  0
  139.1324   75.4433  221.6714 H   0  0  0  0  0  0  0  0  0  0  0  0
  140.3512   75.5516  217.4171 H   0  0  0  0  0  0  0  0  0  0  0  0
  139.2958   76.2314  218.6887 H   0  0  0  0  0  0  0  0  0  0  0  0
  141.1737   77.5938  216.9933 H   0  0  0  0  0  0  0  0  0  0  0  0
  140.1211   78.2799  218.2854 H   0  0  0  0  0  0  0  0  0  0  0  0
  142.5447   78.7363  218.5847 H   0  0  0  0  0  0  0  0  0  0  0  0
  141.7450   77.8068  219.9470 H   0  0  0  0  0  0  0  0  0  0  0  0
  143.7177   76.8263  217.8846 H   0  0  0  0  0  0  0  0  0  0  0  0
  143.8174   76.8094  219.6964 H   0  0  0  0  0  0  0  0  0  0  0  0
  142.6000   74.9294  217.8351 H   0  0  0  0  0  0  0  0  0  0  0  0
  142.0063   72.6303  219.0029 H   0  0  0  0  0  0  0  0  0  0  0  0
  145.4081   71.5294  221.3529 H   0  0  0  0  0  0  0  0  0  0  0  0
  144.8289   75.6201  220.1737 H   0  0  0  0  0  0  0  0  0  0  0  0
  139.1918   69.7816  222.4112 H   0  0  0  0  0  0  0  0  0  0  0  0
  139.1680   68.2611  224.3701 H   0  0  0  0  0  0  0  0  0  0  0  0
  139.6298   67.8926  226.6311 H   0  0  0  0  0  0  0  0  0  0  0  0
  140.4921   68.7394  228.8135 H   0  0  0  0  0  0  0  0  0  0  0  0
  141.3510   71.0494  229.0115 H   0  0  0  0  0  0  0  0  0  0  0  0
  141.3647   72.5588  227.0462 H   0  0  0  0  0  0  0  0  0  0  0  0
  1  2  2  0
  2  3  1  0
  3  4  1  0
  4  5  1  0
  5  6  2  0
  5  7  1  0
  7  8  1  0
  8  9  1  0
  9 10  1  0
 10 11  1  0
 11 12  1  0
 12 13  1  0
 13 14  2  0
 14 15  1  0
 15 16  1  0
 15 17  2  0
 17 18  1  0
 18 19  1  0
 18 20  2  0
  2 21  1  0
 21 22  2  0
 22 23  1  0
 23 24  2  0
 24 25  1  0
 25 26  2  0
 26 27  1  0
 27 28  2  0
 28 29  1  0
 29 30  2  0
 12  7  1  0
 20 13  1  0
 30 21  1  0
 29 24  1  0
  3 31  1  0
  4 32  1  0
  4 33  1  0
  8 34  1  0
  8 35  1  0
  9 36  1  0
  9 37  1  0
 10 38  1  0
 10 39  1  0
 11 40  1  0
 11 41  1  0
 12 42  1  6
 14 43  1  0
 17 44  1  0
 20 45  1  0
 22 46  1  0
 23 47  1  0
 25 48  1  0
 26 49  1  0
 27 50  1  0
 28 51  1  0
M  END
>  <smiles>  (84) 
O=C(NCC(=O)N1CCCCC1c1cc(F)cc(F)c1)c1ccc2ccccc2n1

>  <score_type>  (84) 
oracle

>  <origin>  (84) 
autodockgpu

>  <m_score__min__energy>  (84) 
-8.7899999999999991

>  <m_primary>  (84) 
energy

>  <rmsd>  (84) 
1.8208816685675668

>  <m_score__min__rmsd>  (84) 
1.8208816685675668

>  <meeko>  (84) 
{"free_energy": -7.97, "intermolecular_energy": -9.46, "internal_energy": -1.74, "cluster_size": 27, "cluster_id": 2, "rank_in_cluster": 19}

>  <energy>  (84) 
-7.84

>  <cluster_rmsd>  (84) 
0.92

>  <cluster>  (84) 
2

$$$$

     RDKit          3D

 51 54  0  0  0  0  0  0  0  0999 V2000
  139.9650   71.2410  221.3410 O   0  0  0  0  0  0  0  0  0  0  0  0
  139.8890   71.8860  222.4060 C   0  0  0  0  0  0  0  0  0  0  0  0
  139.7160   73.3130  222.3510 N   0  0  0  0  0  0  0  0  0  0  0  0
  139.6260   74.0770  221.1670 C   0  0  0  0  0  0  0  0  0  0  0  0
  140.5460   75.1570  220.8590 C   0  0  0  0  0  0  0  0  0  0  0  0
  141.0580   75.7020  221.9490 O   0  0  0  0  0  0  0  0  0  0  0  0
  141.0000   75.7290  219.6800 N   0  0  0  0  0  0  0  0  0  0  0  0
  140.2330   76.4590  218.6770 C   0  0  0  0  0  0  0  0  0  0  0  0
  140.7340   77.8790  218.6410 C   0  0  0  0  0  0  0  0  0  0  0  0
  141.8370   78.0650  219.6340 C   0  0  0  0  0  0  0  0  0  0  0  0
  142.9610   77.0510  219.5150 C   0  0  0  0  0  0  0  0  0  0  0  0
  142.4450   75.6730  219.3010 C   0  0  1  0  0  0  0  0  0  0  0  0
  143.1770   74.5590  219.8490 C   0  0  0  0  0  0  0  0  0  0  0  0
  144.4250   74.6190  220.4570 C   0  0  0  0  0  0  0  0  0  0  0  0
  145.0830   73.5060  220.9260 C   0  0  0  0  0  0  0  0  0  0  0  0
  146.3070   73.6530  221.5110 F   0  0  0  0  0  0  0  0  0  0  0  0
  144.5280   72.2630  220.8130 C   0  0  0  0  0  0  0  0  0  0  0  0
  143.2890   72.1680  220.2140 C   0  0  0  0  0  0  0  0  0  0  0  0
  142.7140   70.9440  220.0880 F   0  0  0  0  0  0  0  0  0  0  0  0
  142.6310   73.2830  219.7450 C   0  0  0  0  0  0  0  0  0  0  0  0
  139.9770   71.1880  223.6940 C   0  0  0  0  0  0  0  0  0  0  0  0
  139.5850   69.8680  223.7760 C   0  0  0  0  0  0  0  0  0  0  0  0
  139.6330   69.1330  224.9420 C   0  0  0  0  0  0  0  0  0  0  0  0
  140.1040   69.7880  226.0650 C   0  0  0  0  0  0  0  0  0  0  0  0
  140.1500   69.0440  227.2310 C   0  0  0  0  0  0  0  0  0  0  0  0
  140.6160   69.6780  228.3640 C   0  0  0  0  0  0  0  0  0  0  0  0
  141.0200   71.0020  228.3240 C   0  0  0  0  0  0  0  0  0  0  0  0
  140.9630   71.7180  227.1450 C   0  0  0  0  0  0  0  0  0  0  0  0
  140.4980   71.1050  225.9950 C   0  0  0  0  0  0  0  0  0  0  0  0
  140.4280   71.7840  224.8130 N   0  0  0  0  0  0  0  0  0  0  0  0
  139.6590   73.7620  223.3200 H   0  0  0  0  0  0  0  0  0  0  0  0
  139.7074   73.3612  220.3357 H   0  0  0  0  0  0  0  0  0  0  0  0
  138.6846   74.6236  221.3248 H   0  0  0  0  0  0  0  0  0  0  0  0
  140.3696   75.9911  217.6909 H   0  0  0  0  0  0  0  0  0  0  0  0
  139.1627   76.4406  218.9304 H   0  0  0  0  0  0  0  0  0  0  0  0
  141.1112   78.1054  217.6328 H   0  0  0  0  0  0  0  0  0  0  0  0
  139.9060   78.5574  218.8943 H   0  0  0  0  0  0  0  0  0  0  0  0
  142.2625   79.0695  219.4925 H   0  0  0  0  0  0  0  0  0  0  0  0
  141.3914   77.9266  220.6301 H   0  0  0  0  0  0  0  0  0  0  0  0
  143.6005   77.3274  218.6637 H   0  0  0  0  0  0  0  0  0  0  0  0
  143.5288   77.0597  220.4571 H   0  0  0  0  0  0  0  0  0  0  0  0
  142.5969   75.4128  218.2431 H   0  0  0  0  0  0  0  0  0  0  0  0
  144.9085   75.6008  220.5682 H   0  0  0  0  0  0  0  0  0  0  0  0
  145.0503   71.3698  221.1863 H   0  0  0  0  0  0  0  0  0  0  0  0
  141.6443   73.1616  219.2741 H   0  0  0  0  0  0  0  0  0  0  0  0
  139.2150   69.3762  222.8643 H   0  0  0  0  0  0  0  0  0  0  0  0
  139.3134   68.0810  224.9768 H   0  0  0  0  0  0  0  0  0  0  0  0
  139.8287   67.9922  227.2533 H   0  0  0  0  0  0  0  0  0  0  0  0
  140.6674   69.1240  229.3129 H   0  0  0  0  0  0  0  0  0  0  0  0
  141.3895   71.4873  229.2394 H   0  0  0  0  0  0  0  0  0  0  0  0
  141.2853   72.7694  227.1200 H   0  0  0  0  0  0  0  0  0  0  0  0
  1  2  2  0
  2  3  1  0
  3  4  1  0
  4  5  1  0
  5  6  2  0
  5  7  1  0
  7  8  1  0
  8  9  1  0
  9 10  1  0
 10 11  1  0
 11 12  1  0
 12 13  1  0
 13 14  2  0
 14 15  1  0
 15 16  1  0
 15 17  2  0
 17 18  1  0
 18 19  1  0
 18 20  2  0
  2 21  1  0
 21 22  2  0
 22 23  1  0
 23 24  2  0
 24 25  1  0
 25 26  2  0
 26 27  1  0
 27 28  2  0
 28 29  1  0
 29 30  2  0
 12  7  1  0
 20 13  1  0
 30 21  1  0
 29 24  1  0
  3 31  1  0
  4 32  1  0
  4 33  1  0
  8 34  1  0
  8 35  1  0
  9 36  1  0
  9 37  1  0
 10 38  1  0
 10 39  1  0
 11 40  1  0
 11 41  1  0
 12 42  1  6
 14 43  1  0
 17 44  1  0
 20 45  1  0
 22 46  1  0
 23 47  1  0
 25 48  1  0
 26 49  1  0
 27 50  1  0
 28 51  1  0
M  END
>  <smiles>  (85) 
O=C(NCC(=O)N1CCCCC1c1cc(F)cc(F)c1)c1ccc2ccccc2n1

>  <score_type>  (85) 
oracle

>  <origin>  (85) 
autodockgpu

>  <m_score__min__energy>  (85) 
-8.7899999999999991

>  <m_primary>  (85) 
energy

>  <rmsd>  (85) 
1.8085254583894492

>  <m_score__min__rmsd>  (85) 
1.8085254583894492

>  <meeko>  (85) 
{"free_energy": -8.32, "intermolecular_energy": -9.82, "internal_energy": -1.78, "cluster_size": 27, "cluster_id": 2, "rank_in_cluster": 11}

>  <energy>  (85) 
-7.59

>  <cluster_rmsd>  (85) 
1.28

>  <cluster>  (85) 
2

$$$$

     RDKit          3D

 51 54  0  0  0  0  0  0  0  0999 V2000
  140.3980   73.4130  222.4250 O   0  0  0  0  0  0  0  0  0  0  0  0
  140.3070   72.1690  222.4220 C   0  0  0  0  0  0  0  0  0  0  0  0
  140.3430   71.4670  221.1670 N   0  0  0  0  0  0  0  0  0  0  0  0
  140.4690   72.0740  219.8980 C   0  0  0  0  0  0  0  0  0  0  0  0
  141.7410   72.5340  219.3720 C   0  0  0  0  0  0  0  0  0  0  0  0
  141.6230   73.0570  218.1640 O   0  0  0  0  0  0  0  0  0  0  0  0
  143.0380   72.5470  219.8640 N   0  0  0  0  0  0  0  0  0  0  0  0
  143.8010   71.4380  220.4260 C   0  0  0  0  0  0  0  0  0  0  0  0
  144.9800   71.1730  219.5250 C   0  0  0  0  0  0  0  0  0  0  0  0
  144.9730   72.1230  218.3700 C   0  0  0  0  0  0  0  0  0  0  0  0
  144.8640   73.5850  218.7650 C   0  0  0  0  0  0  0  0  0  0  0  0
  143.8600   73.7960  219.8410 C   0  0  1  0  0  0  0  0  0  0  0  0
  143.1060   75.0230  219.8640 C   0  0  0  0  0  0  0  0  0  0  0  0
  143.2780   76.1050  219.0100 C   0  0  0  0  0  0  0  0  0  0  0  0
  142.5430   77.2640  219.1140 C   0  0  0  0  0  0  0  0  0  0  0  0
  142.7740   78.2800  218.2320 F   0  0  0  0  0  0  0  0  0  0  0  0
  141.5930   77.4080  220.0840 C   0  0  0  0  0  0  0  0  0  0  0  0
  141.3980   76.3520  220.9500 C   0  0  0  0  0  0  0  0  0  0  0  0
  140.4590   76.4690  221.9250 F   0  0  0  0  0  0  0  0  0  0  0  0
  142.1330   75.1920  220.8440 C   0  0  0  0  0  0  0  0  0  0  0  0
  140.1660   71.4410  223.6880 C   0  0  0  0  0  0  0  0  0  0  0  0
  139.4790   70.2450  223.7070 C   0  0  0  0  0  0  0  0  0  0  0  0
  139.2970   69.4920  224.8480 C   0  0  0  0  0  0  0  0  0  0  0  0
  139.8460   69.9960  226.0130 C   0  0  0  0  0  0  0  0  0  0  0  0
  139.6600   69.2350  227.1540 C   0  0  0  0  0  0  0  0  0  0  0  0
  140.1990   69.7180  228.3280 C   0  0  0  0  0  0  0  0  0  0  0  0
  140.8970   70.9150  228.3520 C   0  0  0  0  0  0  0  0  0  0  0  0
  141.0670   71.6510  227.1960 C   0  0  0  0  0  0  0  0  0  0  0  0
  140.5340   71.1880  226.0060 C   0  0  0  0  0  0  0  0  0  0  0  0
  140.6830   71.8910  224.8460 N   0  0  0  0  0  0  0  0  0  0  0  0
  140.2620   70.4070  221.2810 H   0  0  0  0  0  0  0  0  0  0  0  0
  140.0854   71.3428  219.1712 H   0  0  0  0  0  0  0  0  0  0  0  0
  139.9338   73.0229  220.0501 H   0  0  0  0  0  0  0  0  0  0  0  0
  144.1544   71.7020  221.4337 H   0  0  0  0  0  0  0  0  0  0  0  0
  143.1692   70.5405  220.4989 H   0  0  0  0  0  0  0  0  0  0  0  0
  145.9106   71.3035  220.0969 H   0  0  0  0  0  0  0  0  0  0  0  0
  144.9145   70.1437  219.1427 H   0  0  0  0  0  0  0  0  0  0  0  0
  145.9078   71.9871  217.8063 H   0  0  0  0  0  0  0  0  0  0  0  0
  144.0777   71.8895  217.7751 H   0  0  0  0  0  0  0  0  0  0  0  0
  145.8454   73.9310  219.1217 H   0  0  0  0  0  0  0  0  0  0  0  0
  144.5400   74.1534  217.8807 H   0  0  0  0  0  0  0  0  0  0  0  0
  144.4014   73.9665  220.7832 H   0  0  0  0  0  0  0  0  0  0  0  0
  144.0352   76.0323  218.2154 H   0  0  0  0  0  0  0  0  0  0  0  0
  141.0042   78.3330  220.1718 H   0  0  0  0  0  0  0  0  0  0  0  0
  141.9450   74.3745  221.5556 H   0  0  0  0  0  0  0  0  0  0  0  0
  139.0543   69.8725  222.7631 H   0  0  0  0  0  0  0  0  0  0  0  0
  138.7445   68.5410  224.8323 H   0  0  0  0  0  0  0  0  0  0  0  0
  139.1058   68.2852  227.1257 H   0  0  0  0  0  0  0  0  0  0  0  0
  140.0731   69.1450  229.2585 H   0  0  0  0  0  0  0  0  0  0  0  0
  141.3189   71.2817  229.2994 H   0  0  0  0  0  0  0  0  0  0  0  0
  141.6229   72.5999  227.2210 H   0  0  0  0  0  0  0  0  0  0  0  0
  1  2  2  0
  2  3  1  0
  3  4  1  0
  4  5  1  0
  5  6  2  0
  5  7  1  0
  7  8  1  0
  8  9  1  0
  9 10  1  0
 10 11  1  0
 11 12  1  0
 12 13  1  0
 13 14  2  0
 14 15  1  0
 15 16  1  0
 15 17  2  0
 17 18  1  0
 18 19  1  0
 18 20  2  0
  2 21  1  0
 21 22  2  0
 22 23  1  0
 23 24  2  0
 24 25  1  0
 25 26  2  0
 26 27  1  0
 27 28  2  0
 28 29  1  0
 29 30  2  0
 12  7  1  0
 20 13  1  0
 30 21  1  0
 29 24  1  0
  3 31  1  0
  4 32  1  0
  4 33  1  0
  8 34  1  0
  8 35  1  0
  9 36  1  0
  9 37  1  0
 10 38  1  0
 10 39  1  0
 11 40  1  0
 11 41  1  0
 12 42  1  1
 14 43  1  0
 17 44  1  0
 20 45  1  0
 22 46  1  0
 23 47  1  0
 25 48  1  0
 26 49  1  0
 27 50  1  0
 28 51  1  0
M  END
>  <smiles>  (86) 
O=C(NCC(=O)N1CCCCC1c1cc(F)cc(F)c1)c1ccc2ccccc2n1

>  <score_type>  (86) 
oracle

>  <origin>  (86) 
autodockgpu

>  <m_score__min__energy>  (86) 
-8.7899999999999991

>  <m_primary>  (86) 
energy

>  <rmsd>  (86) 
3.7685025542849804

>  <m_score__min__rmsd>  (86) 
3.7685025542849804

>  <meeko>  (86) 
{"free_energy": -7.7, "intermolecular_energy": -9.19, "internal_energy": -1.51, "cluster_size": 2, "cluster_id": 3, "rank_in_cluster": 1}

>  <energy>  (86) 
-7.5

>  <cluster_rmsd>  (86) 
0.99

>  <cluster>  (86) 
2

$$$$

     RDKit          3D

 51 54  0  0  0  0  0  0  0  0999 V2000
  140.5580   71.2580  221.3920 O   0  0  0  0  0  0  0  0  0  0  0  0
  140.1210   71.8120  222.4200 C   0  0  0  0  0  0  0  0  0  0  0  0
  139.6410   73.1650  222.3380 N   0  0  0  0  0  0  0  0  0  0  0  0
  139.6220   73.9520  221.1660 C   0  0  0  0  0  0  0  0  0  0  0  0
  140.6210   74.9680  220.8880 C   0  0  0  0  0  0  0  0  0  0  0  0
  141.2950   75.3160  221.9700 O   0  0  0  0  0  0  0  0  0  0  0  0
  141.0180   75.6410  219.7410 N   0  0  0  0  0  0  0  0  0  0  0  0
  140.1970   76.4280  218.8270 C   0  0  0  0  0  0  0  0  0  0  0  0
  140.6660   77.8580  218.8840 C   0  0  0  0  0  0  0  0  0  0  0  0
  141.8020   77.9920  219.8480 C   0  0  0  0  0  0  0  0  0  0  0  0
  142.9420   77.0180  219.6090 C   0  0  0  0  0  0  0  0  0  0  0  0
  142.4480   75.6490  219.3060 C   0  0  1  0  0  0  0  0  0  0  0  0
  143.2230   74.5140  219.7380 C   0  0  0  0  0  0  0  0  0  0  0  0
  142.8490   73.1800  219.6340 C   0  0  0  0  0  0  0  0  0  0  0  0
  143.6270   72.1460  220.1020 C   0  0  0  0  0  0  0  0  0  0  0  0
  143.1860   70.8630  219.9590 F   0  0  0  0  0  0  0  0  0  0  0  0
  144.8280   72.3900  220.7050 C   0  0  0  0  0  0  0  0  0  0  0  0
  145.2290   73.7040  220.8260 C   0  0  0  0  0  0  0  0  0  0  0  0
  146.4190   73.9740  221.4230 F   0  0  0  0  0  0  0  0  0  0  0  0
  144.4500   74.7370  220.3560 C   0  0  0  0  0  0  0  0  0  0  0  0
  140.1030   71.0830  223.6940 C   0  0  0  0  0  0  0  0  0  0  0  0
  139.5720   69.8110  223.7370 C   0  0  0  0  0  0  0  0  0  0  0  0
  139.5120   69.0520  224.8880 C   0  0  0  0  0  0  0  0  0  0  0  0
  140.0200   69.6310  226.0360 C   0  0  0  0  0  0  0  0  0  0  0  0
  139.9580   68.8640  227.1860 C   0  0  0  0  0  0  0  0  0  0  0  0
  140.4590   69.4220  228.3430 C   0  0  0  0  0  0  0  0  0  0  0  0
  141.0010   70.6970  228.3420 C   0  0  0  0  0  0  0  0  0  0  0  0
  141.0500   71.4380  227.1780 C   0  0  0  0  0  0  0  0  0  0  0  0
  140.5530   70.9000  226.0040 C   0  0  0  0  0  0  0  0  0  0  0  0
  140.5850   71.6060  224.8360 N   0  0  0  0  0  0  0  0  0  0  0  0
  139.2870   73.5380  223.2750 H   0  0  0  0  0  0  0  0  0  0  0  0
  139.6635   73.2455  220.3239 H   0  0  0  0  0  0  0  0  0  0  0  0
  138.7198   74.5620  221.3209 H   0  0  0  0  0  0  0  0  0  0  0  0
  140.3052   76.0414  217.8029 H   0  0  0  0  0  0  0  0  0  0  0  0
  139.1380   76.3641  219.1175 H   0  0  0  0  0  0  0  0  0  0  0  0
  140.9997   78.1709  217.8837 H   0  0  0  0  0  0  0  0  0  0  0  0
  139.8342   78.4950  219.2192 H   0  0  0  0  0  0  0  0  0  0  0  0
  142.2005   79.0144  219.7710 H   0  0  0  0  0  0  0  0  0  0  0  0
  141.3974   77.7650  220.8454 H   0  0  0  0  0  0  0  0  0  0  0  0
  143.5427   77.3753  218.7596 H   0  0  0  0  0  0  0  0  0  0  0  0
  143.5448   76.9670  220.5277 H   0  0  0  0  0  0  0  0  0  0  0  0
  142.5655   75.4755  218.2261 H   0  0  0  0  0  0  0  0  0  0  0  0
  141.8878   72.9396  219.1561 H   0  0  0  0  0  0  0  0  0  0  0  0
  145.4536   71.5671  221.0810 H   0  0  0  0  0  0  0  0  0  0  0  0
  144.8082   75.7705  220.4724 H   0  0  0  0  0  0  0  0  0  0  0  0
  139.1760   69.3792  222.8060 H   0  0  0  0  0  0  0  0  0  0  0  0
  139.0824   68.0393  224.8918 H   0  0  0  0  0  0  0  0  0  0  0  0
  139.5272   67.8519  227.1775 H   0  0  0  0  0  0  0  0  0  0  0  0
  140.4279   68.8467  229.2801 H   0  0  0  0  0  0  0  0  0  0  0  0
  141.3956   71.1226  229.2764 H   0  0  0  0  0  0  0  0  0  0  0  0
  141.4815   72.4498  227.1839 H   0  0  0  0  0  0  0  0  0  0  0  0
  1  2  2  0
  2  3  1  0
  3  4  1  0
  4  5  1  0
  5  6  2  0
  5  7  1  0
  7  8  1  0
  8  9  1  0
  9 10  1  0
 10 11  1  0
 11 12  1  0
 12 13  1  0
 13 14  2  0
 14 15  1  0
 15 16  1  0
 15 17  2  0
 17 18  1  0
 18 19  1  0
 18 20  2  0
  2 21  1  0
 21 22  2  0
 22 23  1  0
 23 24  2  0
 24 25  1  0
 25 26  2  0
 26 27  1  0
 27 28  2  0
 28 29  1  0
 29 30  2  0
 12  7  1  0
 20 13  1  0
 30 21  1  0
 29 24  1  0
  3 31  1  0
  4 32  1  0
  4 33  1  0
  8 34  1  0
  8 35  1  0
  9 36  1  0
  9 37  1  0
 10 38  1  0
 10 39  1  0
 11 40  1  0
 11 41  1  0
 12 42  1  6
 14 43  1  0
 17 44  1  0
 20 45  1  0
 22 46  1  0
 23 47  1  0
 25 48  1  0
 26 49  1  0
 27 50  1  0
 28 51  1  0
M  END
>  <smiles>  (87) 
O=C(NCC(=O)N1CCCCC1c1cc(F)cc(F)c1)c1ccc2ccccc2n1

>  <score_type>  (87) 
oracle

>  <origin>  (87) 
autodockgpu

>  <m_score__min__energy>  (87) 
-8.7899999999999991

>  <m_primary>  (87) 
energy

>  <rmsd>  (87) 
1.8131476779471396

>  <m_score__min__rmsd>  (87) 
1.8131476779471396

>  <meeko>  (87) 
{"free_energy": -8.48, "intermolecular_energy": -9.97, "internal_energy": -1.66, "cluster_size": 27, "cluster_id": 2, "rank_in_cluster": 1}

>  <energy>  (87) 
-7.7

>  <cluster_rmsd>  (87) 
0.0

>  <cluster>  (87) 
3

$$$$

     RDKit          3D

 51 54  0  0  0  0  0  0  0  0999 V2000
  141.1030   71.8510  221.5850 O   0  0  0  0  0  0  0  0  0  0  0  0
  140.2960   72.1890  222.4730 C   0  0  0  0  0  0  0  0  0  0  0  0
  139.4690   73.3480  222.2640 N   0  0  0  0  0  0  0  0  0  0  0  0
  139.4910   74.1670  221.1140 C   0  0  0  0  0  0  0  0  0  0  0  0
  140.6340   74.9870  220.7570 C   0  0  0  0  0  0  0  0  0  0  0  0
  141.4400   75.1950  221.7840 O   0  0  0  0  0  0  0  0  0  0  0  0
  141.0600   75.5880  219.5810 N   0  0  0  0  0  0  0  0  0  0  0  0
  140.2660   76.3380  218.6130 C   0  0  0  0  0  0  0  0  0  0  0  0
  140.7610   77.7600  218.5990 C   0  0  0  0  0  0  0  0  0  0  0  0
  141.8850   77.9280  219.5710 C   0  0  0  0  0  0  0  0  0  0  0  0
  143.0110   76.9230  219.4030 C   0  0  0  0  0  0  0  0  0  0  0  0
  142.4960   75.5480  219.1690 C   0  0  1  0  0  0  0  0  0  0  0  0
  143.2450   74.4250  219.6740 C   0  0  0  0  0  0  0  0  0  0  0  0
  142.8860   73.0870  219.5660 C   0  0  0  0  0  0  0  0  0  0  0  0
  143.6340   72.0660  220.1060 C   0  0  0  0  0  0  0  0  0  0  0  0
  143.2120   70.7780  219.9540 F   0  0  0  0  0  0  0  0  0  0  0  0
  144.7870   72.3280  220.7900 C   0  0  0  0  0  0  0  0  0  0  0  0
  145.1710   73.6460  220.9170 C   0  0  0  0  0  0  0  0  0  0  0  0
  146.3140   73.9350  221.5930 F   0  0  0  0  0  0  0  0  0  0  0  0
  144.4220   74.6670  220.3750 C   0  0  0  0  0  0  0  0  0  0  0  0
  140.1990   71.4090  223.7120 C   0  0  0  0  0  0  0  0  0  0  0  0
  139.5810   70.1760  223.6870 C   0  0  0  0  0  0  0  0  0  0  0  0
  139.4430   69.3740  224.8010 C   0  0  0  0  0  0  0  0  0  0  0  0
  139.9640   69.8660  225.9840 C   0  0  0  0  0  0  0  0  0  0  0  0
  139.8230   69.0560  227.0970 C   0  0  0  0  0  0  0  0  0  0  0  0
  140.3350   69.5270  228.2880 C   0  0  0  0  0  0  0  0  0  0  0  0
  140.9630   70.7600  228.3550 C   0  0  0  0  0  0  0  0  0  0  0  0
  141.0880   71.5460  227.2260 C   0  0  0  0  0  0  0  0  0  0  0  0
  140.5830   71.0950  226.0200 C   0  0  0  0  0  0  0  0  0  0  0  0
  140.6900   71.8470  224.8860 N   0  0  0  0  0  0  0  0  0  0  0  0
  138.8130   73.5440  223.0850 H   0  0  0  0  0  0  0  0  0  0  0  0
  139.3185   73.4964  220.2593 H   0  0  0  0  0  0  0  0  0  0  0  0
  138.7401   74.9295  221.3685 H   0  0  0  0  0  0  0  0  0  0  0  0
  140.3810   75.8939  217.6132 H   0  0  0  0  0  0  0  0  0  0  0  0
  139.2020   76.3089  218.8905 H   0  0  0  0  0  0  0  0  0  0  0  0
  141.1148   78.0111  217.5882 H   0  0  0  0  0  0  0  0  0  0  0  0
  139.9363   78.4287  218.8866 H   0  0  0  0  0  0  0  0  0  0  0  0
  142.3025   78.9377  219.4439 H   0  0  0  0  0  0  0  0  0  0  0  0
  141.4624   77.7635  220.5732 H   0  0  0  0  0  0  0  0  0  0  0  0
  143.6296   77.2221  218.5440 H   0  0  0  0  0  0  0  0  0  0  0  0
  143.6006   76.9130  220.3316 H   0  0  0  0  0  0  0  0  0  0  0  0
  142.6251   75.3133  218.1021 H   0  0  0  0  0  0  0  0  0  0  0  0
  141.9628   72.8326  219.0247 H   0  0  0  0  0  0  0  0  0  0  0  0
  145.3882   71.5157  221.2243 H   0  0  0  0  0  0  0  0  0  0  0  0
  144.7647   75.7047  220.5002 H   0  0  0  0  0  0  0  0  0  0  0  0
  139.1776   69.8137  222.7299 H   0  0  0  0  0  0  0  0  0  0  0  0
  138.9447   68.3946  224.7510 H   0  0  0  0  0  0  0  0  0  0  0  0
  139.3237   68.0778  227.0346 H   0  0  0  0  0  0  0  0  0  0  0  0
  140.2434   68.9150  229.1974 H   0  0  0  0  0  0  0  0  0  0  0  0
  141.3653   71.1160  229.3149 H   0  0  0  0  0  0  0  0  0  0  0  0
  141.5863   72.5249  227.2858 H   0  0  0  0  0  0  0  0  0  0  0  0
  1  2  2  0
  2  3  1  0
  3  4  1  0
  4  5  1  0
  5  6  2  0
  5  7  1  0
  7  8  1  0
  8  9  1  0
  9 10  1  0
 10 11  1  0
 11 12  1  0
 12 13  1  0
 13 14  2  0
 14 15  1  0
 15 16  1  0
 15 17  2  0
 17 18  1  0
 18 19  1  0
 18 20  2  0
  2 21  1  0
 21 22  2  0
 22 23  1  0
 23 24  2  0
 24 25  1  0
 25 26  2  0
 26 27  1  0
 27 28  2  0
 28 29  1  0
 29 30  2  0
 12  7  1  0
 20 13  1  0
 30 21  1  0
 29 24  1  0
  3 31  1  0
  4 32  1  0
  4 33  1  0
  8 34  1  0
  8 35  1  0
  9 36  1  0
  9 37  1  0
 10 38  1  0
 10 39  1  0
 11 40  1  0
 11 41  1  0
 12 42  1  6
 14 43  1  0
 17 44  1  0
 20 45  1  0
 22 46  1  0
 23 47  1  0
 25 48  1  0
 26 49  1  0
 27 50  1  0
 28 51  1  0
M  END
>  <smiles>  (88) 
O=C(NCC(=O)N1CCCCC1c1cc(F)cc(F)c1)c1ccc2ccccc2n1

>  <score_type>  (88) 
oracle

>  <origin>  (88) 
autodockgpu

>  <m_score__min__energy>  (88) 
-8.7899999999999991

>  <m_primary>  (88) 
energy

>  <rmsd>  (88) 
1.853368994219592

>  <m_score__min__rmsd>  (88) 
1.853368994219592

>  <meeko>  (88) 
{"free_energy": -8.45, "intermolecular_energy": -9.95, "internal_energy": -1.61, "cluster_size": 27, "cluster_id": 2, "rank_in_cluster": 2}

>  <energy>  (88) 
-7.58

>  <cluster_rmsd>  (88) 
0.93

>  <cluster>  (88) 
3

$$$$

     RDKit          3D

 51 54  0  0  0  0  0  0  0  0999 V2000
  140.0090   70.9060  221.3540 O   0  0  0  0  0  0  0  0  0  0  0  0
  139.9240   71.5590  222.4130 C   0  0  0  0  0  0  0  0  0  0  0  0
  139.8030   72.9910  222.3460 N   0  0  0  0  0  0  0  0  0  0  0  0
  139.7770   73.7510  221.1550 C   0  0  0  0  0  0  0  0  0  0  0  0
  140.1940   75.1400  221.1030 C   0  0  0  0  0  0  0  0  0  0  0  0
  140.4180   75.6400  222.3060 O   0  0  0  0  0  0  0  0  0  0  0  0
  140.4100   76.0430  220.0720 N   0  0  0  0  0  0  0  0  0  0  0  0
  139.4360   76.8990  219.4030 C   0  0  0  0  0  0  0  0  0  0  0  0
  139.7960   78.3340  219.6850 C   0  0  0  0  0  0  0  0  0  0  0  0
  141.0160   78.4020  220.5480 C   0  0  0  0  0  0  0  0  0  0  0  0
  142.1960   77.6020  220.0240 C   0  0  0  0  0  0  0  0  0  0  0  0
  141.7800   76.2680  219.5160 C   0  0  1  0  0  0  0  0  0  0  0  0
  142.6840   75.1540  219.6520 C   0  0  0  0  0  0  0  0  0  0  0  0
  143.9650   75.2010  220.1880 C   0  0  0  0  0  0  0  0  0  0  0  0
  144.7890   74.1010  220.2530 C   0  0  0  0  0  0  0  0  0  0  0  0
  146.0330   74.2320  220.7950 F   0  0  0  0  0  0  0  0  0  0  0  0
  144.3760   72.8870  219.7830 C   0  0  0  0  0  0  0  0  0  0  0  0
  143.1090   72.8060  219.2440 C   0  0  0  0  0  0  0  0  0  0  0  0
  142.6740   71.6100  218.7680 F   0  0  0  0  0  0  0  0  0  0  0  0
  142.2850   73.9070  219.1800 C   0  0  0  0  0  0  0  0  0  0  0  0
  139.9470   70.8670  223.7060 C   0  0  0  0  0  0  0  0  0  0  0  0
  139.3890   69.6100  223.8100 C   0  0  0  0  0  0  0  0  0  0  0  0
  139.3650   68.8850  224.9840 C   0  0  0  0  0  0  0  0  0  0  0  0
  139.9400   69.4820  226.0900 C   0  0  0  0  0  0  0  0  0  0  0  0
  139.9140   68.7480  227.2630 C   0  0  0  0  0  0  0  0  0  0  0  0
  140.4820   69.3250  228.3800 C   0  0  0  0  0  0  0  0  0  0  0  0
  141.0540   70.5850  228.3170 C   0  0  0  0  0  0  0  0  0  0  0  0
  141.0660   71.2920  227.1310 C   0  0  0  0  0  0  0  0  0  0  0  0
  140.5010   70.7350  225.9970 C   0  0  0  0  0  0  0  0  0  0  0  0
  140.4960   71.4080  224.8090 N   0  0  0  0  0  0  0  0  0  0  0  0
  139.7330   73.4480  223.3090 H   0  0  0  0  0  0  0  0  0  0  0  0
  140.4147   73.2144  220.4371 H   0  0  0  0  0  0  0  0  0  0  0  0
  138.6965   73.8346  220.9666 H   0  0  0  0  0  0  0  0  0  0  0  0
  139.4617   76.7151  218.3188 H   0  0  0  0  0  0  0  0  0  0  0  0
  138.4231   76.6823  219.7732 H   0  0  0  0  0  0  0  0  0  0  0  0
  139.9939   78.8521  218.7351 H   0  0  0  0  0  0  0  0  0  0  0  0
  138.9585   78.8171  220.2097 H   0  0  0  0  0  0  0  0  0  0  0  0
  141.3225   79.4553  220.6294 H   0  0  0  0  0  0  0  0  0  0  0  0
  140.7416   77.9612  221.5178 H   0  0  0  0  0  0  0  0  0  0  0  0
  142.6699   78.1625  219.2047 H   0  0  0  0  0  0  0  0  0  0  0  0
  142.8983   77.4459  220.8561 H   0  0  0  0  0  0  0  0  0  0  0  0
  141.7922   76.3037  218.4167 H   0  0  0  0  0  0  0  0  0  0  0  0
  144.3369   76.1601  220.5777 H   0  0  0  0  0  0  0  0  0  0  0  0
  145.0310   72.0046  219.8326 H   0  0  0  0  0  0  0  0  0  0  0  0
  141.2815   73.7979  218.7428 H   0  0  0  0  0  0  0  0  0  0  0  0
  138.9401   69.1624  222.9111 H   0  0  0  0  0  0  0  0  0  0  0  0
  138.9118   67.8841  225.0368 H   0  0  0  0  0  0  0  0  0  0  0  0
  139.4597   67.7470  227.3030 H   0  0  0  0  0  0  0  0  0  0  0  0
  140.4806   68.7770  229.3338 H   0  0  0  0  0  0  0  0  0  0  0  0
  141.5025   71.0261  229.2194 H   0  0  0  0  0  0  0  0  0  0  0  0
  141.5220   72.2921  227.0877 H   0  0  0  0  0  0  0  0  0  0  0  0
  1  2  2  0
  2  3  1  0
  3  4  1  0
  4  5  1  0
  5  6  2  0
  5  7  1  0
  7  8  1  0
  8  9  1  0
  9 10  1  0
 10 11  1  0
 11 12  1  0
 12 13  1  0
 13 14  2  0
 14 15  1  0
 15 16  1  0
 15 17  2  0
 17 18  1  0
 18 19  1  0
 18 20  2  0
  2 21  1  0
 21 22  2  0
 22 23  1  0
 23 24  2  0
 24 25  1  0
 25 26  2  0
 26 27  1  0
 27 28  2  0
 28 29  1  0
 29 30  2  0
 12  7  1  0
 20 13  1  0
 30 21  1  0
 29 24  1  0
  3 31  1  0
  4 32  1  0
  4 33  1  0
  8 34  1  0
  8 35  1  0
  9 36  1  0
  9 37  1  0
 10 38  1  0
 10 39  1  0
 11 40  1  0
 11 41  1  0
 12 42  1  6
 14 43  1  0
 17 44  1  0
 20 45  1  0
 22 46  1  0
 23 47  1  0
 25 48  1  0
 26 49  1  0
 27 50  1  0
 28 51  1  0
M  END
>  <smiles>  (89) 
O=C(NCC(=O)N1CCCCC1c1cc(F)cc(F)c1)c1ccc2ccccc2n1

>  <score_type>  (89) 
oracle

>  <origin>  (89) 
autodockgpu

>  <m_score__min__energy>  (89) 
-8.7899999999999991

>  <m_primary>  (89) 
energy

>  <rmsd>  (89) 
1.836164971262878

>  <m_score__min__rmsd>  (89) 
1.836164971262878

>  <meeko>  (89) 
{"free_energy": -7.87, "intermolecular_energy": -9.36, "internal_energy": -1.73, "cluster_size": 27, "cluster_id": 2, "rank_in_cluster": 24}

>  <energy>  (89) 
-7.53

>  <cluster_rmsd>  (89) 
0.0

>  <cluster>  (89) 
4

$$$$

     RDKit          3D

 51 54  0  0  0  0  0  0  0  0999 V2000
  139.1450   71.4190  221.6470 O   0  0  0  0  0  0  0  0  0  0  0  0
  139.8310   71.6800  222.6540 C   0  0  0  0  0  0  0  0  0  0  0  0
  140.6020   72.8940  222.6830 N   0  0  0  0  0  0  0  0  0  0  0  0
  140.6610   73.8450  221.6400 C   0  0  0  0  0  0  0  0  0  0  0  0
  141.5200   73.6860  220.4810 C   0  0  0  0  0  0  0  0  0  0  0  0
  142.1600   72.5300  220.4890 O   0  0  0  0  0  0  0  0  0  0  0  0
  141.8040   74.4770  219.3770 N   0  0  0  0  0  0  0  0  0  0  0  0
  140.8780   74.9960  218.3770 C   0  0  0  0  0  0  0  0  0  0  0  0
  140.8740   76.5000  218.4720 C   0  0  0  0  0  0  0  0  0  0  0  0
  141.8090   76.9530  219.5490 C   0  0  0  0  0  0  0  0  0  0  0  0
  143.2120   76.3830  219.4370 C   0  0  0  0  0  0  0  0  0  0  0  0
  143.1980   74.9360  219.0950 C   0  0  1  0  0  0  0  0  0  0  0  0
  144.2380   74.0840  219.6130 C   0  0  0  0  0  0  0  0  0  0  0  0
  144.9600   74.2940  220.7820 C   0  0  0  0  0  0  0  0  0  0  0  0
  145.9680   73.4540  221.1980 C   0  0  0  0  0  0  0  0  0  0  0  0
  146.6280   73.7320  222.3600 F   0  0  0  0  0  0  0  0  0  0  0  0
  146.3130   72.3550  220.4660 C   0  0  0  0  0  0  0  0  0  0  0  0
  145.6160   72.1180  219.3000 C   0  0  0  0  0  0  0  0  0  0  0  0
  145.9390   71.0310  218.5510 F   0  0  0  0  0  0  0  0  0  0  0  0
  144.6070   72.9580  218.8840 C   0  0  0  0  0  0  0  0  0  0  0  0
  139.8460   70.7530  223.7920 C   0  0  0  0  0  0  0  0  0  0  0  0
  139.2290   69.5250  223.6720 C   0  0  0  0  0  0  0  0  0  0  0  0
  139.1930   68.5910  224.6860 C   0  0  0  0  0  0  0  0  0  0  0  0
  139.8180   68.9410  225.8690 C   0  0  0  0  0  0  0  0  0  0  0  0
  139.7780   67.9990  226.8820 C   0  0  0  0  0  0  0  0  0  0  0  0
  140.3950   68.3270  228.0720 C   0  0  0  0  0  0  0  0  0  0  0  0
  141.0250   69.5500  228.2330 C   0  0  0  0  0  0  0  0  0  0  0  0
  141.0480   70.4690  227.2030 C   0  0  0  0  0  0  0  0  0  0  0  0
  140.4360   70.1640  226.0000 C   0  0  0  0  0  0  0  0  0  0  0  0
  140.4410   71.0490  224.9620 N   0  0  0  0  0  0  0  0  0  0  0  0
  141.1480   73.0190  223.5930 H   0  0  0  0  0  0  0  0  0  0  0  0
  139.6363   73.9327  221.2497 H   0  0  0  0  0  0  0  0  0  0  0  0
  141.1266   74.7032  222.1467 H   0  0  0  0  0  0  0  0  0  0  0  0
  141.2038   74.6875  217.3727 H   0  0  0  0  0  0  0  0  0  0  0  0
  139.8667   74.6020  218.5560 H   0  0  0  0  0  0  0  0  0  0  0  0
  141.1949   76.9256  217.5097 H   0  0  0  0  0  0  0  0  0  0  0  0
  139.8566   76.8414  218.7134 H   0  0  0  0  0  0  0  0  0  0  0  0
  141.8781   78.0500  219.5066 H   0  0  0  0  0  0  0  0  0  0  0  0
  141.3950   76.5880  220.5005 H   0  0  0  0  0  0  0  0  0  0  0  0
  143.7557   76.9286  218.6517 H   0  0  0  0  0  0  0  0  0  0  0  0
  143.7049   76.4972  220.4137 H   0  0  0  0  0  0  0  0  0  0  0  0
  143.4726   74.8343  218.0347 H   0  0  0  0  0  0  0  0  0  0  0  0
  144.7153   75.1694  221.4015 H   0  0  0  0  0  0  0  0  0  0  0  0
  147.1187   71.6820  220.7946 H   0  0  0  0  0  0  0  0  0  0  0  0
  144.0769   72.7318  217.9471 H   0  0  0  0  0  0  0  0  0  0  0  0
  138.7404   69.2780  222.7179 H   0  0  0  0  0  0  0  0  0  0  0  0
  138.6935   67.6190  224.5605 H   0  0  0  0  0  0  0  0  0  0  0  0
  139.2758   67.0300  226.7445 H   0  0  0  0  0  0  0  0  0  0  0  0
  140.3864   67.6075  228.9040 H   0  0  0  0  0  0  0  0  0  0  0  0
  141.5112   69.7911  229.1898 H   0  0  0  0  0  0  0  0  0  0  0  0
  141.5501   71.4384  227.3379 H   0  0  0  0  0  0  0  0  0  0  0  0
  1  2  2  0
  2  3  1  0
  3  4  1  0
  4  5  1  0
  5  6  2  0
  5  7  1  0
  7  8  1  0
  8  9  1  0
  9 10  1  0
 10 11  1  0
 11 12  1  0
 12 13  1  0
 13 14  2  0
 14 15  1  0
 15 16  1  0
 15 17  2  0
 17 18  1  0
 18 19  1  0
 18 20  2  0
  2 21  1  0
 21 22  2  0
 22 23  1  0
 23 24  2  0
 24 25  1  0
 25 26  2  0
 26 27  1  0
 27 28  2  0
 28 29  1  0
 29 30  2  0
 12  7  1  0
 20 13  1  0
 30 21  1  0
 29 24  1  0
  3 31  1  0
  4 32  1  0
  4 33  1  0
  8 34  1  0
  8 35  1  0
  9 36  1  0
  9 37  1  0
 10 38  1  0
 10 39  1  0
 11 40  1  0
 11 41  1  0
 12 42  1  6
 14 43  1  0
 17 44  1  0
 20 45  1  0
 22 46  1  0
 23 47  1  0
 25 48  1  0
 26 49  1  0
 27 50  1  0
 28 51  1  0
M  END
>  <smiles>  (90) 
O=C(NCC(=O)N1CCCCC1c1cc(F)cc(F)c1)c1ccc2ccccc2n1

>  <score_type>  (90) 
oracle

>  <origin>  (90) 
autodockgpu

>  <m_score__min__energy>  (90) 
-8.7899999999999991

>  <m_primary>  (90) 
energy

>  <rmsd>  (90) 
2.1559924696628516

>  <m_score__min__rmsd>  (90) 
2.1559924696628516

>  <meeko>  (90) 
{"free_energy": -7.59, "intermolecular_energy": -9.08, "internal_energy": -1.51, "cluster_size": 27, "cluster_id": 2, "rank_in_cluster": 26}

>  <energy>  (90) 
-7.08

>  <cluster_rmsd>  (90) 
0.0

>  <cluster>  (90) 
5

$$$$

     RDKit          3D

 51 54  0  0  0  0  0  0  0  0999 V2000
  139.6600   73.3950  222.7120 O   0  0  0  0  0  0  0  0  0  0  0  0
  140.1870   72.2660  222.6630 C   0  0  0  0  0  0  0  0  0  0  0  0
  140.8690   71.8620  221.4620 N   0  0  0  0  0  0  0  0  0  0  0  0
  140.9950   72.6470  220.2950 C   0  0  0  0  0  0  0  0  0  0  0  0
  141.4870   74.0130  220.3180 C   0  0  0  0  0  0  0  0  0  0  0  0
  141.7110   74.4420  221.5480 O   0  0  0  0  0  0  0  0  0  0  0  0
  141.7720   74.9500  219.3360 N   0  0  0  0  0  0  0  0  0  0  0  0
  140.8370   75.6880  218.4940 C   0  0  0  0  0  0  0  0  0  0  0  0
  140.9590   77.1530  218.8260 C   0  0  0  0  0  0  0  0  0  0  0  0
  141.9840   77.3590  219.8960 C   0  0  0  0  0  0  0  0  0  0  0  0
  143.3290   76.7180  219.6020 C   0  0  0  0  0  0  0  0  0  0  0  0
  143.1810   75.3510  219.0380 C   0  0  1  0  0  0  0  0  0  0  0  0
  144.1770   74.3560  219.3450 C   0  0  0  0  0  0  0  0  0  0  0  0
  144.4660   73.2270  218.5890 C   0  0  0  0  0  0  0  0  0  0  0  0
  145.4090   72.2960  218.9640 C   0  0  0  0  0  0  0  0  0  0  0  0
  145.6330   71.2160  218.1630 F   0  0  0  0  0  0  0  0  0  0  0  0
  146.1170   72.4440  220.1230 C   0  0  0  0  0  0  0  0  0  0  0  0
  145.8530   73.5530  220.8970 C   0  0  0  0  0  0  0  0  0  0  0  0
  146.5430   73.7240  222.0560 F   0  0  0  0  0  0  0  0  0  0  0  0
  144.9100   74.4840  220.5210 C   0  0  0  0  0  0  0  0  0  0  0  0
  140.1080   71.3690  223.8210 C   0  0  0  0  0  0  0  0  0  0  0  0
  139.4700   70.1530  223.6920 C   0  0  0  0  0  0  0  0  0  0  0  0
  139.3470   69.2460  224.7240 C   0  0  0  0  0  0  0  0  0  0  0  0
  139.9050   69.6120  225.9350 C   0  0  0  0  0  0  0  0  0  0  0  0
  139.7790   68.6970  226.9660 C   0  0  0  0  0  0  0  0  0  0  0  0
  140.3280   69.0410  228.1840 C   0  0  0  0  0  0  0  0  0  0  0  0
  140.9770   70.2530  228.3560 C   0  0  0  0  0  0  0  0  0  0  0  0
  141.0870   71.1440  227.3070 C   0  0  0  0  0  0  0  0  0  0  0  0
  140.5440   70.8220  226.0760 C   0  0  0  0  0  0  0  0  0  0  0  0
  140.6350   71.6810  225.0190 N   0  0  0  0  0  0  0  0  0  0  0  0
  141.2870   70.8810  221.5320 H   0  0  0  0  0  0  0  0  0  0  0  0
  141.6688   72.0918  219.6258 H   0  0  0  0  0  0  0  0  0  0  0  0
  139.9428   72.7933  220.0095 H   0  0  0  0  0  0  0  0  0  0  0  0
  141.0819   75.5248  217.4341 H   0  0  0  0  0  0  0  0  0  0  0  0
  139.8086   75.3420  218.6748 H   0  0  0  0  0  0  0  0  0  0  0  0
  141.2600   77.7057  217.9238 H   0  0  0  0  0  0  0  0  0  0  0  0
  139.9868   77.5206  219.1861 H   0  0  0  0  0  0  0  0  0  0  0  0
  142.1378   78.4408  220.0225 H   0  0  0  0  0  0  0  0  0  0  0  0
  141.5949   76.8745  220.8037 H   0  0  0  0  0  0  0  0  0  0  0  0
  143.8707   77.3445  218.8781 H   0  0  0  0  0  0  0  0  0  0  0  0
  143.8821   76.6374  220.5494 H   0  0  0  0  0  0  0  0  0  0  0  0
  143.3877   75.4041  217.9589 H   0  0  0  0  0  0  0  0  0  0  0  0
  143.9171   73.0696  217.6488 H   0  0  0  0  0  0  0  0  0  0  0  0
  146.8714   71.7037  220.4276 H   0  0  0  0  0  0  0  0  0  0  0  0
  144.7311   75.3544  221.1694 H   0  0  0  0  0  0  0  0  0  0  0  0
  139.0366   69.8929  222.7150 H   0  0  0  0  0  0  0  0  0  0  0  0
  138.8325   68.2830  224.5907 H   0  0  0  0  0  0  0  0  0  0  0  0
  139.2631   67.7365  226.8203 H   0  0  0  0  0  0  0  0  0  0  0  0
  140.2494   68.3431  229.0307 H   0  0  0  0  0  0  0  0  0  0  0  0
  141.4079   70.5073  229.3356 H   0  0  0  0  0  0  0  0  0  0  0  0
  141.6036   72.1047  227.4493 H   0  0  0  0  0  0  0  0  0  0  0  0
  1  2  2  0
  2  3  1  0
  3  4  1  0
  4  5  1  0
  5  6  2  0
  5  7  1  0
  7  8  1  0
  8  9  1  0
  9 10  1  0
 10 11  1  0
 11 12  1  0
 12 13  1  0
 13 14  2  0
 14 15  1  0
 15 16  1  0
 15 17  2  0
 17 18  1  0
 18 19  1  0
 18 20  2  0
  2 21  1  0
 21 22  2  0
 22 23  1  0
 23 24  2  0
 24 25  1  0
 25 26  2  0
 26 27  1  0
 27 28  2  0
 28 29  1  0
 29 30  2  0
 12  7  1  0
 20 13  1  0
 30 21  1  0
 29 24  1  0
  3 31  1  0
  4 32  1  0
  4 33  1  0
  8 34  1  0
  8 35  1  0
  9 36  1  0
  9 37  1  0
 10 38  1  0
 10 39  1  0
 11 40  1  0
 11 41  1  0
 12 42  1  6
 14 43  1  0
 17 44  1  0
 20 45  1  0
 22 46  1  0
 23 47  1  0
 25 48  1  0
 26 49  1  0
 27 50  1  0
 28 51  1  0
M  END
>  <smiles>  (91) 
O=C(NCC(=O)N1CCCCC1c1cc(F)cc(F)c1)c1ccc2ccccc2n1

>  <score_type>  (91) 
oracle

>  <origin>  (91) 
autodockgpu

>  <m_score__min__energy>  (91) 
-8.7899999999999991

>  <m_primary>  (91) 
energy

>  <rmsd>  (91) 
2.31803982076098

>  <m_score__min__rmsd>  (91) 
2.31803982076098

>  <meeko>  (91) 
{"free_energy": -8.38, "intermolecular_energy": -9.87, "internal_energy": -1.27, "cluster_size": 27, "cluster_id": 2, "rank_in_cluster": 9}

>  <energy>  (91) 
-7.06

>  <cluster_rmsd>  (91) 
0.0

>  <cluster>  (91) 
6

$$$$

     RDKit          3D

 51 54  0  0  0  0  0  0  0  0999 V2000
  139.5520   71.0800  221.4000 O   0  0  0  0  0  0  0  0  0  0  0  0
  139.6600   71.6910  222.4810 C   0  0  0  0  0  0  0  0  0  0  0  0
  139.6770   73.1290  222.4760 N   0  0  0  0  0  0  0  0  0  0  0  0
  139.5860   73.9400  221.3220 C   0  0  0  0  0  0  0  0  0  0  0  0
  140.6210   74.8850  220.9460 C   0  0  0  0  0  0  0  0  0  0  0  0
  141.3630   75.2510  221.9760 O   0  0  0  0  0  0  0  0  0  0  0  0
  140.9970   75.4750  219.7470 N   0  0  0  0  0  0  0  0  0  0  0  0
  140.1490   76.1430  218.7660 C   0  0  0  0  0  0  0  0  0  0  0  0
  140.5520   77.5930  218.7030 C   0  0  0  0  0  0  0  0  0  0  0  0
  141.6720   77.8610  219.6570 C   0  0  0  0  0  0  0  0  0  0  0  0
  142.8580   76.9240  219.5070 C   0  0  0  0  0  0  0  0  0  0  0  0
  142.4290   75.5130  219.3210 C   0  0  1  0  0  0  0  0  0  0  0  0
  143.2520   74.4560  219.8520 C   0  0  0  0  0  0  0  0  0  0  0  0
  144.4960   74.6100  220.4510 C   0  0  0  0  0  0  0  0  0  0  0  0
  145.2450   73.5480  220.9040 C   0  0  0  0  0  0  0  0  0  0  0  0
  146.4570   73.7870  221.4830 F   0  0  0  0  0  0  0  0  0  0  0  0
  144.7900   72.2660  220.7810 C   0  0  0  0  0  0  0  0  0  0  0  0
  143.5590   72.0780  220.1890 C   0  0  0  0  0  0  0  0  0  0  0  0
  143.0830   70.8130  220.0520 F   0  0  0  0  0  0  0  0  0  0  0  0
  142.8100   73.1420  219.7360 C   0  0  0  0  0  0  0  0  0  0  0  0
  139.7670   70.9430  223.7390 C   0  0  0  0  0  0  0  0  0  0  0  0
  139.3810   69.6190  223.7740 C   0  0  0  0  0  0  0  0  0  0  0  0
  139.4470   68.8380  224.9090 C   0  0  0  0  0  0  0  0  0  0  0  0
  139.9300   69.4500  226.0510 C   0  0  0  0  0  0  0  0  0  0  0  0
  139.9940   68.6600  227.1860 C   0  0  0  0  0  0  0  0  0  0  0  0
  140.4730   69.2500  228.3370 C   0  0  0  0  0  0  0  0  0  0  0  0
  140.8720   70.5770  228.3440 C   0  0  0  0  0  0  0  0  0  0  0  0
  140.7970   71.3390  227.1960 C   0  0  0  0  0  0  0  0  0  0  0  0
  140.3190   70.7700  226.0280 C   0  0  0  0  0  0  0  0  0  0  0  0
  140.2310   71.4950  224.8750 N   0  0  0  0  0  0  0  0  0  0  0  0
  139.7690   73.5480  223.4550 H   0  0  0  0  0  0  0  0  0  0  0  0
  139.4800   73.2499  220.4720 H   0  0  0  0  0  0  0  0  0  0  0  0
  138.7548   74.6109  221.5847 H   0  0  0  0  0  0  0  0  0  0  0  0
  140.2831   75.6763  217.7790 H   0  0  0  0  0  0  0  0  0  0  0  0
  139.0916   76.0554  219.0564 H   0  0  0  0  0  0  0  0  0  0  0  0
  140.8797   77.8347  217.6812 H   0  0  0  0  0  0  0  0  0  0  0  0
  139.6892   78.2171  218.9789 H   0  0  0  0  0  0  0  0  0  0  0  0
  142.0237   78.8906  219.4950 H   0  0  0  0  0  0  0  0  0  0  0  0
  141.2698   77.7009  220.6682 H   0  0  0  0  0  0  0  0  0  0  0  0
  143.4483   77.2346  218.6323 H   0  0  0  0  0  0  0  0  0  0  0  0
  143.4558   76.9801  220.4287 H   0  0  0  0  0  0  0  0  0  0  0  0
  142.5631   75.2538  218.2604 H   0  0  0  0  0  0  0  0  0  0  0  0
  144.9004   75.6262  220.5685 H   0  0  0  0  0  0  0  0  0  0  0  0
  145.3846   71.4137  221.1415 H   0  0  0  0  0  0  0  0  0  0  0  0
  141.8335   72.9467  219.2687 H   0  0  0  0  0  0  0  0  0  0  0  0
  139.0007   69.1623  222.8484 H   0  0  0  0  0  0  0  0  0  0  0  0
  139.1321   67.7840  224.9058 H   0  0  0  0  0  0  0  0  0  0  0  0
  139.6765   67.6069  227.1706 H   0  0  0  0  0  0  0  0  0  0  0  0
  140.5392   68.6589  229.2623 H   0  0  0  0  0  0  0  0  0  0  0  0
  141.2519   71.0270  229.2730 H   0  0  0  0  0  0  0  0  0  0  0  0
  141.1150   72.3919  227.2089 H   0  0  0  0  0  0  0  0  0  0  0  0
  1  2  2  0
  2  3  1  0
  3  4  1  0
  4  5  1  0
  5  6  2  0
  5  7  1  0
  7  8  1  0
  8  9  1  0
  9 10  1  0
 10 11  1  0
 11 12  1  0
 12 13  1  0
 13 14  2  0
 14 15  1  0
 15 16  1  0
 15 17  2  0
 17 18  1  0
 18 19  1  0
 18 20  2  0
  2 21  1  0
 21 22  2  0
 22 23  1  0
 23 24  2  0
 24 25  1  0
 25 26  2  0
 26 27  1  0
 27 28  2  0
 28 29  1  0
 29 30  2  0
 12  7  1  0
 20 13  1  0
 30 21  1  0
 29 24  1  0
  3 31  1  0
  4 32  1  0
  4 33  1  0
  8 34  1  0
  8 35  1  0
  9 36  1  0
  9 37  1  0
 10 38  1  0
 10 39  1  0
 11 40  1  0
 11 41  1  0
 12 42  1  6
 14 43  1  0
 17 44  1  0
 20 45  1  0
 22 46  1  0
 23 47  1  0
 25 48  1  0
 26 49  1  0
 27 50  1  0
 28 51  1  0
M  END
>  <smiles>  (92) 
O=C(NCC(=O)N1CCCCC1c1cc(F)cc(F)c1)c1ccc2ccccc2n1

>  <score_type>  (92) 
oracle

>  <origin>  (92) 
autodockgpu

>  <m_score__min__energy>  (92) 
-8.7899999999999991

>  <m_primary>  (92) 
energy

>  <rmsd>  (92) 
1.697489977449691

>  <m_score__min__rmsd>  (92) 
1.697489977449691

>  <meeko>  (92) 
{"free_energy": -8.25, "intermolecular_energy": -9.74, "internal_energy": -1.73, "cluster_size": 27, "cluster_id": 2, "rank_in_cluster": 16}

>  <energy>  (92) 
-7.05

>  <cluster_rmsd>  (92) 
0.12

>  <cluster>  (92) 
6

$$$$

     RDKit          3D

 51 54  0  0  0  0  0  0  0  0999 V2000
  140.1000   71.7400  221.1290 O   0  0  0  0  0  0  0  0  0  0  0  0
  139.9020   72.2630  222.2430 C   0  0  0  0  0  0  0  0  0  0  0  0
  139.6040   73.6680  222.3150 N   0  0  0  0  0  0  0  0  0  0  0  0
  139.5170   74.5400  221.2070 C   0  0  0  0  0  0  0  0  0  0  0  0
  140.6550   75.2930  220.7120 C   0  0  0  0  0  0  0  0  0  0  0  0
  141.4570   75.6850  221.6860 O   0  0  0  0  0  0  0  0  0  0  0  0
  141.0780   75.6790  219.4480 N   0  0  0  0  0  0  0  0  0  0  0  0
  140.2940   76.2930  218.3820 C   0  0  0  0  0  0  0  0  0  0  0  0
  140.8410   77.6740  218.1310 C   0  0  0  0  0  0  0  0  0  0  0  0
  141.9910   77.9510  219.0470 C   0  0  0  0  0  0  0  0  0  0  0  0
  143.0740   76.8870  219.0280 C   0  0  0  0  0  0  0  0  0  0  0  0
  142.5030   75.5140  219.0270 C   0  0  1  0  0  0  0  0  0  0  0  0
  143.2200   74.4590  219.6970 C   0  0  0  0  0  0  0  0  0  0  0  0
  144.4570   74.5760  220.3190 C   0  0  0  0  0  0  0  0  0  0  0  0
  145.1010   73.5120  220.9090 C   0  0  0  0  0  0  0  0  0  0  0  0
  146.3140   73.7140  221.4990 F   0  0  0  0  0  0  0  0  0  0  0  0
  144.5420   72.2670  220.9090 C   0  0  0  0  0  0  0  0  0  0  0  0
  143.3140   72.1160  220.2990 C   0  0  0  0  0  0  0  0  0  0  0  0
  142.7360   70.8860  220.2840 F   0  0  0  0  0  0  0  0  0  0  0  0
  142.6700   73.1810  219.7090 C   0  0  0  0  0  0  0  0  0  0  0  0
  139.9750   71.4460  223.4600 C   0  0  0  0  0  0  0  0  0  0  0  0
  139.5420   70.1370  223.4220 C   0  0  0  0  0  0  0  0  0  0  0  0
  139.5730   69.2960  224.5150 C   0  0  0  0  0  0  0  0  0  0  0  0
  140.0690   69.8290  225.6900 C   0  0  0  0  0  0  0  0  0  0  0  0
  140.0980   68.9790  226.7820 C   0  0  0  0  0  0  0  0  0  0  0  0
  140.5890   69.4900  227.9650 C   0  0  0  0  0  0  0  0  0  0  0  0
  141.0340   70.8000  228.0450 C   0  0  0  0  0  0  0  0  0  0  0  0
  140.9930   71.6230  226.9380 C   0  0  0  0  0  0  0  0  0  0  0  0
  140.5040   71.1340  225.7390 C   0  0  0  0  0  0  0  0  0  0  0  0
  140.4500   71.9210  224.6260 N   0  0  0  0  0  0  0  0  0  0  0  0
  139.4480   74.0100  223.3160 H   0  0  0  0  0  0  0  0  0  0  0  0
  139.1670   73.9269  220.3634 H   0  0  0  0  0  0  0  0  0  0  0  0
  138.8736   75.3402  221.6018 H   0  0  0  0  0  0  0  0  0  0  0  0
  140.3734   75.6889  217.4661 H   0  0  0  0  0  0  0  0  0  0  0  0
  139.2351   76.3511  218.6743 H   0  0  0  0  0  0  0  0  0  0  0  0
  141.1827   77.7450  217.0878 H   0  0  0  0  0  0  0  0  0  0  0  0
  140.0479   78.4127  218.3187 H   0  0  0  0  0  0  0  0  0  0  0  0
  142.4438   78.9090  218.7518 H   0  0  0  0  0  0  0  0  0  0  0  0
  141.5835   77.9681  220.0686 H   0  0  0  0  0  0  0  0  0  0  0  0
  143.6857   77.0184  218.1232 H   0  0  0  0  0  0  0  0  0  0  0  0
  143.6814   77.0028  219.9378 H   0  0  0  0  0  0  0  0  0  0  0  0
  142.6003   75.1041  218.0109 H   0  0  0  0  0  0  0  0  0  0  0  0
  144.9432   75.5625  220.3409 H   0  0  0  0  0  0  0  0  0  0  0  0
  145.0529   71.4137  221.3790 H   0  0  0  0  0  0  0  0  0  0  0  0
  141.6920   73.0163  219.2332 H   0  0  0  0  0  0  0  0  0  0  0  0
  139.1521   69.7436  222.4716 H   0  0  0  0  0  0  0  0  0  0  0  0
  139.2213   68.2555  224.4547 H   0  0  0  0  0  0  0  0  0  0  0  0
  139.7444   67.9399  226.7093 H   0  0  0  0  0  0  0  0  0  0  0  0
  140.6280   68.8487  228.8578 H   0  0  0  0  0  0  0  0  0  0  0  0
  141.4230   71.1869  228.9984 H   0  0  0  0  0  0  0  0  0  0  0  0
  141.3470   72.6621  227.0081 H   0  0  0  0  0  0  0  0  0  0  0  0
  1  2  2  0
  2  3  1  0
  3  4  1  0
  4  5  1  0
  5  6  2  0
  5  7  1  0
  7  8  1  0
  8  9  1  0
  9 10  1  0
 10 11  1  0
 11 12  1  0
 12 13  1  0
 13 14  2  0
 14 15  1  0
 15 16  1  0
 15 17  2  0
 17 18  1  0
 18 19  1  0
 18 20  2  0
  2 21  1  0
 21 22  2  0
 22 23  1  0
 23 24  2  0
 24 25  1  0
 25 26  2  0
 26 27  1  0
 27 28  2  0
 28 29  1  0
 29 30  2  0
 12  7  1  0
 20 13  1  0
 30 21  1  0
 29 24  1  0
  3 31  1  0
  4 32  1  0
  4 33  1  0
  8 34  1  0
  8 35  1  0
  9 36  1  0
  9 37  1  0
 10 38  1  0
 10 39  1  0
 11 40  1  0
 11 41  1  0
 12 42  1  6
 14 43  1  0
 17 44  1  0
 20 45  1  0
 22 46  1  0
 23 47  1  0
 25 48  1  0
 26 49  1  0
 27 50  1  0
 28 51  1  0
M  END
>  <smiles>  (93) 
O=C(NCC(=O)N1CCCCC1c1cc(F)cc(F)c1)c1ccc2ccccc2n1

>  <score_type>  (93) 
oracle

>  <origin>  (93) 
autodockgpu

>  <m_score__min__energy>  (93) 
-8.7899999999999991

>  <m_primary>  (93) 
energy

>  <rmsd>  (93) 
1.7836013822075365

>  <m_score__min__rmsd>  (93) 
1.7836013822075365

>  <meeko>  (93) 
{"free_energy": -8.06, "intermolecular_energy": -9.55, "internal_energy": -1.79, "cluster_size": 27, "cluster_id": 2, "rank_in_cluster": 18}

>  <energy>  (93) 
-7.05

>  <cluster_rmsd>  (93) 
0.27

>  <cluster>  (93) 
6

$$$$

     RDKit          3D

 51 54  0  0  0  0  0  0  0  0999 V2000
  139.4670   74.4030  221.8760 O   0  0  0  0  0  0  0  0  0  0  0  0
  140.6000   74.8910  221.6940 C   0  0  0  0  0  0  0  0  0  0  0  0
  140.8130   76.2890  221.9600 N   0  0  0  0  0  0  0  0  0  0  0  0
  139.8260   77.1900  222.4170 C   0  0  0  0  0  0  0  0  0  0  0  0
  139.6460   78.5120  221.8450 C   0  0  0  0  0  0  0  0  0  0  0  0
  138.6190   78.5620  221.0160 O   0  0  0  0  0  0  0  0  0  0  0  0
  140.3130   79.7210  221.9860 N   0  0  0  0  0  0  0  0  0  0  0  0
  139.9360   80.8680  222.8050 C   0  0  0  0  0  0  0  0  0  0  0  0
  140.9920   81.0580  223.8630 C   0  0  0  0  0  0  0  0  0  0  0  0
  142.0590   80.0190  223.7230 C   0  0  0  0  0  0  0  0  0  0  0  0
  142.6500   79.9160  222.3280 C   0  0  0  0  0  0  0  0  0  0  0  0
  141.6020   79.9790  221.2750 C   0  0  1  0  0  0  0  0  0  0  0  0
  141.7880   79.2320  220.0570 C   0  0  0  0  0  0  0  0  0  0  0  0
  142.2320   77.9180  219.9630 C   0  0  0  0  0  0  0  0  0  0  0  0
  142.4220   77.2780  218.7600 C   0  0  0  0  0  0  0  0  0  0  0  0
  142.8590   75.9860  218.7550 F   0  0  0  0  0  0  0  0  0  0  0  0
  142.1790   77.9180  217.5790 C   0  0  0  0  0  0  0  0  0  0  0  0
  141.7380   79.2240  217.6370 C   0  0  0  0  0  0  0  0  0  0  0  0
  141.4900   79.8850  216.4760 F   0  0  0  0  0  0  0  0  0  0  0  0
  141.5480   79.8640  218.8420 C   0  0  0  0  0  0  0  0  0  0  0  0
  141.6960   74.0420  221.2140 C   0  0  0  0  0  0  0  0  0  0  0  0
  141.4460   72.7170  220.9210 C   0  0  0  0  0  0  0  0  0  0  0  0
  142.4130   71.8450  220.4650 C   0  0  0  0  0  0  0  0  0  0  0  0
  143.6850   72.3630  220.3060 C   0  0  0  0  0  0  0  0  0  0  0  0
  144.6500   71.4830  219.8480 C   0  0  0  0  0  0  0  0  0  0  0  0
  145.9270   71.9780  219.6820 C   0  0  0  0  0  0  0  0  0  0  0  0
  146.2180   73.3030  219.9640 C   0  0  0  0  0  0  0  0  0  0  0  0
  145.2340   74.1570  220.4200 C   0  0  0  0  0  0  0  0  0  0  0  0
  143.9460   73.6840  220.5950 C   0  0  0  0  0  0  0  0  0  0  0  0
  142.9490   74.5010  221.0440 N   0  0  0  0  0  0  0  0  0  0  0  0
  141.8190   76.5990  221.7750 H   0  0  0  0  0  0  0  0  0  0  0  0
  138.8626   76.6727  222.2975 H   0  0  0  0  0  0  0  0  0  0  0  0
  140.1933   77.4311  223.4254 H   0  0  0  0  0  0  0  0  0  0  0  0
  139.8716   81.7689  222.1771 H   0  0  0  0  0  0  0  0  0  0  0  0
  138.9557   80.6950  223.2731 H   0  0  0  0  0  0  0  0  0  0  0  0
  141.4407   82.0563  223.7529 H   0  0  0  0  0  0  0  0  0  0  0  0
  140.5265   80.9618  224.8550 H   0  0  0  0  0  0  0  0  0  0  0  0
  142.8709   80.2620  224.4243 H   0  0  0  0  0  0  0  0  0  0  0  0
  141.5855   79.0496  223.9375 H   0  0  0  0  0  0  0  0  0  0  0  0
  143.3548   80.7472  222.1783 H   0  0  0  0  0  0  0  0  0  0  0  0
  143.1587   78.9443  222.2445 H   0  0  0  0  0  0  0  0  0  0  0  0
  141.6410   80.9771  220.8142 H   0  0  0  0  0  0  0  0  0  0  0  0
  142.4406   77.3657  220.8912 H   0  0  0  0  0  0  0  0  0  0  0  0
  142.3295   77.4103  216.6149 H   0  0  0  0  0  0  0  0  0  0  0  0
  141.1959   80.9061  218.8430 H   0  0  0  0  0  0  0  0  0  0  0  0
  140.4231   72.3364  221.0581 H   0  0  0  0  0  0  0  0  0  0  0  0
  142.1840   70.7929  220.2398 H   0  0  0  0  0  0  0  0  0  0  0  0
  144.4089   70.4330  219.6257 H   0  0  0  0  0  0  0  0  0  0  0  0
  146.7246   71.3120  219.3210 H   0  0  0  0  0  0  0  0  0  0  0  0
  147.2425   73.6778  219.8232 H   0  0  0  0  0  0  0  0  0  0  0  0
  145.4727   75.2074  220.6429 H   0  0  0  0  0  0  0  0  0  0  0  0
  1  2  2  0
  2  3  1  0
  3  4  1  0
  4  5  1  0
  5  6  2  0
  5  7  1  0
  7  8  1  0
  8  9  1  0
  9 10  1  0
 10 11  1  0
 11 12  1  0
 12 13  1  0
 13 14  2  0
 14 15  1  0
 15 16  1  0
 15 17  2  0
 17 18  1  0
 18 19  1  0
 18 20  2  0
  2 21  1  0
 21 22  2  0
 22 23  1  0
 23 24  2  0
 24 25  1  0
 25 26  2  0
 26 27  1  0
 27 28  2  0
 28 29  1  0
 29 30  2  0
 12  7  1  0
 20 13  1  0
 30 21  1  0
 29 24  1  0
  3 31  1  0
  4 32  1  0
  4 33  1  0
  8 34  1  0
  8 35  1  0
  9 36  1  0
  9 37  1  0
 10 38  1  0
 10 39  1  0
 11 40  1  0
 11 41  1  0
 12 42  1  6
 14 43  1  0
 17 44  1  0
 20 45  1  0
 22 46  1  0
 23 47  1  0
 25 48  1  0
 26 49  1  0
 27 50  1  0
 28 51  1  0
M  END
>  <smiles>  (94) 
O=C(NCC(=O)N1CCCCC1c1cc(F)cc(F)c1)c1ccc2ccccc2n1

>  <score_type>  (94) 
oracle

>  <origin>  (94) 
autodockgpu

>  <m_score__min__energy>  (94) 
-8.7899999999999991

>  <m_primary>  (94) 
energy

>  <rmsd>  (94) 
6.570926811876755

>  <m_score__min__rmsd>  (94) 
6.570926811876755

>  <meeko>  (94) 
{"free_energy": -7.08, "intermolecular_energy": -8.57, "internal_energy": -2.12, "cluster_size": 1, "cluster_id": 5, "rank_in_cluster": 1}

>  <energy>  (94) 
-7.04

>  <cluster_rmsd>  (94) 
0.26

>  <cluster>  (94) 
6

$$$$

     RDKit          3D

 51 54  0  0  0  0  0  0  0  0999 V2000
  139.0770   75.0540  221.8390 O   0  0  0  0  0  0  0  0  0  0  0  0
  140.1890   75.6030  221.9650 C   0  0  0  0  0  0  0  0  0  0  0  0
  141.3790   74.8520  221.6700 N   0  0  0  0  0  0  0  0  0  0  0  0
  141.4080   73.5050  221.2430 C   0  0  0  0  0  0  0  0  0  0  0  0
  142.5630   72.9130  220.5940 C   0  0  0  0  0  0  0  0  0  0  0  0
  142.3270   71.6810  220.1800 O   0  0  0  0  0  0  0  0  0  0  0  0
  143.8460   73.3630  220.3130 N   0  0  0  0  0  0  0  0  0  0  0  0
  145.1080   72.9020  220.8820 C   0  0  0  0  0  0  0  0  0  0  0  0
  145.9260   72.2850  219.7770 C   0  0  0  0  0  0  0  0  0  0  0  0
  145.1800   72.3490  218.4820 C   0  0  0  0  0  0  0  0  0  0  0  0
  144.6720   73.7350  218.1230 C   0  0  0  0  0  0  0  0  0  0  0  0
  144.0840   74.4330  219.2970 C   0  0  1  0  0  0  0  0  0  0  0  0
  142.9810   75.3370  219.0930 C   0  0  0  0  0  0  0  0  0  0  0  0
  141.8400   75.0810  218.3430 C   0  0  0  0  0  0  0  0  0  0  0  0
  140.8400   76.0090  218.1610 C   0  0  0  0  0  0  0  0  0  0  0  0
  139.7520   75.6760  217.4100 F   0  0  0  0  0  0  0  0  0  0  0  0
  140.9270   77.2510  218.7210 C   0  0  0  0  0  0  0  0  0  0  0  0
  142.0480   77.5390  219.4710 C   0  0  0  0  0  0  0  0  0  0  0  0
  142.1600   78.7690  220.0380 F   0  0  0  0  0  0  0  0  0  0  0  0
  143.0470   76.6090  219.6530 C   0  0  0  0  0  0  0  0  0  0  0  0
  140.2710   76.9990  222.4090 C   0  0  0  0  0  0  0  0  0  0  0  0
  139.1090   77.6970  222.6620 C   0  0  0  0  0  0  0  0  0  0  0  0
  139.0900   79.0110  223.0830 C   0  0  0  0  0  0  0  0  0  0  0  0
  140.3180   79.6250  223.2470 C   0  0  0  0  0  0  0  0  0  0  0  0
  140.2910   80.9420  223.6700 C   0  0  0  0  0  0  0  0  0  0  0  0
  141.5050   81.5740  223.8400 C   0  0  0  0  0  0  0  0  0  0  0  0
  142.6950   80.9070  223.5970 C   0  0  0  0  0  0  0  0  0  0  0  0
  142.6890   79.5930  223.1760 C   0  0  0  0  0  0  0  0  0  0  0  0
  141.4840   78.9370  222.9980 C   0  0  0  0  0  0  0  0  0  0  0  0
  141.4430   77.6370  222.5820 N   0  0  0  0  0  0  0  0  0  0  0  0
  142.2750   75.4200  221.8070 H   0  0  0  0  0  0  0  0  0  0  0  0
  141.2178   72.8971  222.1398 H   0  0  0  0  0  0  0  0  0  0  0  0
  140.6726   73.5142  220.4250 H   0  0  0  0  0  0  0  0  0  0  0  0
  145.6526   73.7526  221.3178 H   0  0  0  0  0  0  0  0  0  0  0  0
  144.9197   72.1618  221.6736 H   0  0  0  0  0  0  0  0  0  0  0  0
  146.8740   72.8339  219.6773 H   0  0  0  0  0  0  0  0  0  0  0  0
  146.1249   71.2317  220.0240 H   0  0  0  0  0  0  0  0  0  0  0  0
  145.8518   72.0095  217.6799 H   0  0  0  0  0  0  0  0  0  0  0  0
  144.2937   71.7076  218.5961 H   0  0  0  0  0  0  0  0  0  0  0  0
  145.5116   74.3325  217.7382 H   0  0  0  0  0  0  0  0  0  0  0  0
  143.8837   73.6224  217.3641 H   0  0  0  0  0  0  0  0  0  0  0  0
  144.8038   75.1914  219.6387 H   0  0  0  0  0  0  0  0  0  0  0  0
  141.7309   74.0922  217.8735 H   0  0  0  0  0  0  0  0  0  0  0  0
  140.1305   77.9963  218.5789 H   0  0  0  0  0  0  0  0  0  0  0  0
  143.9238   76.8799  220.2595 H   0  0  0  0  0  0  0  0  0  0  0  0
  138.1483   77.1801  222.5211 H   0  0  0  0  0  0  0  0  0  0  0  0
  138.1468   79.5424  223.2780 H   0  0  0  0  0  0  0  0  0  0  0  0
  139.3415   81.4630  223.8626 H   0  0  0  0  0  0  0  0  0  0  0  0
  141.5289   82.6221  224.1731 H   0  0  0  0  0  0  0  0  0  0  0  0
  143.6523   81.4293  223.7409 H   0  0  0  0  0  0  0  0  0  0  0  0
  143.6372   79.0699  222.9829 H   0  0  0  0  0  0  0  0  0  0  0  0
  1  2  2  0
  2  3  1  0
  3  4  1  0
  4  5  1  0
  5  6  2  0
  5  7  1  0
  7  8  1  0
  8  9  1  0
  9 10  1  0
 10 11  1  0
 11 12  1  0
 12 13  1  0
 13 14  2  0
 14 15  1  0
 15 16  1  0
 15 17  2  0
 17 18  1  0
 18 19  1  0
 18 20  2  0
  2 21  1  0
 21 22  2  0
 22 23  1  0
 23 24  2  0
 24 25  1  0
 25 26  2  0
 26 27  1  0
 27 28  2  0
 28 29  1  0
 29 30  2  0
 12  7  1  0
 20 13  1  0
 30 21  1  0
 29 24  1  0
  3 31  1  0
  4 32  1  0
  4 33  1  0
  8 34  1  0
  8 35  1  0
  9 36  1  0
  9 37  1  0
 10 38  1  0
 10 39  1  0
 11 40  1  0
 11 41  1  0
 12 42  1  1
 14 43  1  0
 17 44  1  0
 20 45  1  0
 22 46  1  0
 23 47  1  0
 25 48  1  0
 26 49  1  0
 27 50  1  0
 28 51  1  0
M  END
>  <smiles>  (95) 
O=C(NCC(=O)N1CCCCC1c1cc(F)cc(F)c1)c1ccc2ccccc2n1

>  <score_type>  (95) 
oracle

>  <origin>  (95) 
autodockgpu

>  <m_score__min__energy>  (95) 
-8.7899999999999991

>  <m_primary>  (95) 
energy

>  <rmsd>  (95) 
7.741880169778042

>  <m_score__min__rmsd>  (95) 
7.741880169778042

>  <meeko>  (95) 
{"free_energy": -6.97, "intermolecular_energy": -8.46, "internal_energy": -2.49, "cluster_size": 3, "cluster_id": 7, "rank_in_cluster": 1}

>  <energy>  (95) 
-6.97

>  <cluster_rmsd>  (95) 
0.48

>  <cluster>  (95) 
6

$$$$

     RDKit          3D

 51 54  0  0  0  0  0  0  0  0999 V2000
  140.7570   76.5930  218.6920 O   0  0  0  0  0  0  0  0  0  0  0  0
  141.9530   76.6030  219.0430 C   0  0  0  0  0  0  0  0  0  0  0  0
  142.5580   77.8470  219.4390 N   0  0  0  0  0  0  0  0  0  0  0  0
  141.9030   79.0990  219.4620 C   0  0  0  0  0  0  0  0  0  0  0  0
  141.3910   79.6920  220.6840 C   0  0  0  0  0  0  0  0  0  0  0  0
  140.3170   80.4310  220.4680 O   0  0  0  0  0  0  0  0  0  0  0  0
  141.7810   79.6460  222.0150 N   0  0  0  0  0  0  0  0  0  0  0  0
  142.8310   80.4140  222.6750 C   0  0  0  0  0  0  0  0  0  0  0  0
  142.1880   81.3020  223.7080 C   0  0  0  0  0  0  0  0  0  0  0  0
  140.7050   81.1030  223.7110 C   0  0  0  0  0  0  0  0  0  0  0  0
  140.2700   79.6540  223.8420 C   0  0  0  0  0  0  0  0  0  0  0  0
  141.0890   78.7500  222.9910 C   0  0  1  0  0  0  0  0  0  0  0  0
  140.4720   77.5810  222.4160 C   0  0  0  0  0  0  0  0  0  0  0  0
  141.0730   76.3410  222.2410 C   0  0  0  0  0  0  0  0  0  0  0  0
  140.4330   75.2770  221.6490 C   0  0  0  0  0  0  0  0  0  0  0  0
  141.0950   74.0920  221.5170 F   0  0  0  0  0  0  0  0  0  0  0  0
  139.1500   75.3940  221.1970 C   0  0  0  0  0  0  0  0  0  0  0  0
  138.5240   76.6120  221.3540 C   0  0  0  0  0  0  0  0  0  0  0  0
  137.2470   76.7560  220.9120 F   0  0  0  0  0  0  0  0  0  0  0  0
  139.1650   77.6770  221.9470 C   0  0  0  0  0  0  0  0  0  0  0  0
  142.7260   75.3560  219.0490 C   0  0  0  0  0  0  0  0  0  0  0  0
  142.3300   74.3110  218.2410 C   0  0  0  0  0  0  0  0  0  0  0  0
  142.9940   73.1040  218.1810 C   0  0  0  0  0  0  0  0  0  0  0  0
  144.1100   72.9730  218.9870 C   0  0  0  0  0  0  0  0  0  0  0  0
  144.7720   71.7590  218.9200 C   0  0  0  0  0  0  0  0  0  0  0  0
  145.8880   71.6060  219.7160 C   0  0  0  0  0  0  0  0  0  0  0  0
  146.3200   72.6320  220.5420 C   0  0  0  0  0  0  0  0  0  0  0  0
  145.6380   73.8320  220.5850 C   0  0  0  0  0  0  0  0  0  0  0  0
  144.5150   74.0090  219.7960 C   0  0  0  0  0  0  0  0  0  0  0  0
  143.8180   75.1830  219.8160 N   0  0  0  0  0  0  0  0  0  0  0  0
  143.5820   77.7400  219.7240 H   0  0  0  0  0  0  0  0  0  0  0  0
  142.6180   79.8248  219.0472 H   0  0  0  0  0  0  0  0  0  0  0  0
  140.9750   78.8765  218.9149 H   0  0  0  0  0  0  0  0  0  0  0  0
  143.5416   79.7303  223.1624 H   0  0  0  0  0  0  0  0  0  0  0  0
  143.3762   81.0223  221.9383 H   0  0  0  0  0  0  0  0  0  0  0  0
  142.5898   81.0534  224.7014 H   0  0  0  0  0  0  0  0  0  0  0  0
  142.4083   82.3520  223.4652 H   0  0  0  0  0  0  0  0  0  0  0  0
  140.2833   81.6672  224.5559 H   0  0  0  0  0  0  0  0  0  0  0  0
  140.3375   81.4557  222.7360 H   0  0  0  0  0  0  0  0  0  0  0  0
  140.3745   79.3449  224.8925 H   0  0  0  0  0  0  0  0  0  0  0  0
  139.2241   79.5806  223.5092 H   0  0  0  0  0  0  0  0  0  0  0  0
  141.7910   78.2106  223.6439 H   0  0  0  0  0  0  0  0  0  0  0  0
  142.1066   76.2038  222.5914 H   0  0  0  0  0  0  0  0  0  0  0  0
  138.6337   74.5457  220.7239 H   0  0  0  0  0  0  0  0  0  0  0  0
  138.6284   78.6314  222.0531 H   0  0  0  0  0  0  0  0  0  0  0  0
  141.4382   74.4474  217.6117 H   0  0  0  0  0  0  0  0  0  0  0  0
  142.6538   72.2881  217.5263 H   0  0  0  0  0  0  0  0  0  0  0  0
  144.4230   70.9510  218.2602 H   0  0  0  0  0  0  0  0  0  0  0  0
  146.4430   70.6565  219.6951 H   0  0  0  0  0  0  0  0  0  0  0  0
  147.2131   72.4892  221.1681 H   0  0  0  0  0  0  0  0  0  0  0  0
  145.9854   74.6425  221.2426 H   0  0  0  0  0  0  0  0  0  0  0  0
  1  2  2  0
  2  3  1  0
  3  4  1  0
  4  5  1  0
  5  6  2  0
  5  7  1  0
  7  8  1  0
  8  9  1  0
  9 10  1  0
 10 11  1  0
 11 12  1  0
 12 13  1  0
 13 14  2  0
 14 15  1  0
 15 16  1  0
 15 17  2  0
 17 18  1  0
 18 19  1  0
 18 20  2  0
  2 21  1  0
 21 22  2  0
 22 23  1  0
 23 24  2  0
 24 25  1  0
 25 26  2  0
 26 27  1  0
 27 28  2  0
 28 29  1  0
 29 30  2  0
 12  7  1  0
 20 13  1  0
 30 21  1  0
 29 24  1  0
  3 31  1  0
  4 32  1  0
  4 33  1  0
  8 34  1  0
  8 35  1  0
  9 36  1  0
  9 37  1  0
 10 38  1  0
 10 39  1  0
 11 40  1  0
 11 41  1  0
 12 42  1  1
 14 43  1  0
 17 44  1  0
 20 45  1  0
 22 46  1  0
 23 47  1  0
 25 48  1  0
 26 49  1  0
 27 50  1  0
 28 51  1  0
M  END
>  <smiles>  (96) 
O=C(NCC(=O)N1CCCCC1c1cc(F)cc(F)c1)c1ccc2ccccc2n1

>  <score_type>  (96) 
oracle

>  <origin>  (96) 
autodockgpu

>  <m_score__min__energy>  (96) 
-8.7899999999999991

>  <m_primary>  (96) 
energy

>  <rmsd>  (96) 
7.651334385046047

>  <m_score__min__rmsd>  (96) 
7.651334385046047

>  <meeko>  (96) 
{"free_energy": -6.88, "intermolecular_energy": -8.37, "internal_energy": -2.46, "cluster_size": 7, "cluster_id": 6, "rank_in_cluster": 7}

>  <energy>  (96) 
-6.9

>  <cluster_rmsd>  (96) 
0.21

>  <cluster>  (96) 
6

$$$$

     RDKit          3D

 51 54  0  0  0  0  0  0  0  0999 V2000
  140.9290   76.6010  218.2760 O   0  0  0  0  0  0  0  0  0  0  0  0
  142.0000   76.6560  218.9100 C   0  0  0  0  0  0  0  0  0  0  0  0
  142.3730   77.8880  219.5520 N   0  0  0  0  0  0  0  0  0  0  0  0
  141.6170   79.0820  219.5250 C   0  0  0  0  0  0  0  0  0  0  0  0
  141.3760   79.8830  220.7110 C   0  0  0  0  0  0  0  0  0  0  0  0
  140.6360   80.9470  220.4530 O   0  0  0  0  0  0  0  0  0  0  0  0
  141.7480   79.7690  222.0430 N   0  0  0  0  0  0  0  0  0  0  0  0
  142.8170   80.4710  222.7440 C   0  0  0  0  0  0  0  0  0  0  0  0
  142.1940   81.3410  223.8050 C   0  0  0  0  0  0  0  0  0  0  0  0
  140.7050   81.1970  223.7850 C   0  0  0  0  0  0  0  0  0  0  0  0
  140.2170   79.7600  223.8530 C   0  0  0  0  0  0  0  0  0  0  0  0
  141.0120   78.8610  222.9750 C   0  0  1  0  0  0  0  0  0  0  0  0
  140.3600   77.7400  222.3470 C   0  0  0  0  0  0  0  0  0  0  0  0
  139.0530   77.7120  221.8770 C   0  0  0  0  0  0  0  0  0  0  0  0
  138.4830   76.5900  221.3190 C   0  0  0  0  0  0  0  0  0  0  0  0
  137.1930   76.6470  220.8800 F   0  0  0  0  0  0  0  0  0  0  0  0
  139.1910   75.4280  221.2020 C   0  0  0  0  0  0  0  0  0  0  0  0
  140.4920   75.4220  221.6610 C   0  0  0  0  0  0  0  0  0  0  0  0
  141.2180   74.2790  221.5570 F   0  0  0  0  0  0  0  0  0  0  0  0
  141.0620   76.5450  222.2180 C   0  0  0  0  0  0  0  0  0  0  0  0
  142.8640   75.4730  218.9950 C   0  0  0  0  0  0  0  0  0  0  0  0
  142.7290   74.4690  218.0590 C   0  0  0  0  0  0  0  0  0  0  0  0
  143.4960   73.3220  218.0600 C   0  0  0  0  0  0  0  0  0  0  0  0
  144.4370   73.2100  219.0670 C   0  0  0  0  0  0  0  0  0  0  0  0
  145.2030   72.0580  219.0610 C   0  0  0  0  0  0  0  0  0  0  0  0
  146.1490   71.9250  220.0570 C   0  0  0  0  0  0  0  0  0  0  0  0
  146.3160   72.9110  221.0160 C   0  0  0  0  0  0  0  0  0  0  0  0
  145.5360   74.0500  220.9950 C   0  0  0  0  0  0  0  0  0  0  0  0
  144.5810   74.2070  220.0060 C   0  0  0  0  0  0  0  0  0  0  0  0
  143.7930   75.3200  219.9570 N   0  0  0  0  0  0  0  0  0  0  0  0
  143.3060   77.8220  220.0710 H   0  0  0  0  0  0  0  0  0  0  0  0
  142.1205   79.7453  218.8064 H   0  0  0  0  0  0  0  0  0  0  0  0
  140.6086   78.7035  219.3017 H   0  0  0  0  0  0  0  0  0  0  0  0
  143.4963   79.7429  223.2114 H   0  0  0  0  0  0  0  0  0  0  0  0
  143.3929   81.0873  222.0380 H   0  0  0  0  0  0  0  0  0  0  0  0
  142.5747   81.0390  224.7918 H   0  0  0  0  0  0  0  0  0  0  0  0
  142.4550   82.3909  223.6061 H   0  0  0  0  0  0  0  0  0  0  0  0
  140.2942   81.7419  224.6477 H   0  0  0  0  0  0  0  0  0  0  0  0
  140.3613   81.6021  222.8218 H   0  0  0  0  0  0  0  0  0  0  0  0
  140.2984   79.4058  224.8912 H   0  0  0  0  0  0  0  0  0  0  0  0
  139.1732   79.7383  223.5065 H   0  0  0  0  0  0  0  0  0  0  0  0
  141.6856   78.2702  223.6132 H   0  0  0  0  0  0  0  0  0  0  0  0
  138.4468   78.6267  221.9541 H   0  0  0  0  0  0  0  0  0  0  0  0
  138.7398   74.5286  220.7575 H   0  0  0  0  0  0  0  0  0  0  0  0
  142.1026   76.4963  222.5714 H   0  0  0  0  0  0  0  0  0  0  0  0
  141.9708   74.5888  217.2711 H   0  0  0  0  0  0  0  0  0  0  0  0
  143.3657   72.5379  217.2996 H   0  0  0  0  0  0  0  0  0  0  0  0
  145.0640   71.2810  218.2949 H   0  0  0  0  0  0  0  0  0  0  0  0
  146.7790   71.0239  220.0900 H   0  0  0  0  0  0  0  0  0  0  0  0
  147.0765   72.7852  221.8008 H   0  0  0  0  0  0  0  0  0  0  0  0
  145.6729   74.8283  221.7602 H   0  0  0  0  0  0  0  0  0  0  0  0
  1  2  2  0
  2  3  1  0
  3  4  1  0
  4  5  1  0
  5  6  2  0
  5  7  1  0
  7  8  1  0
  8  9  1  0
  9 10  1  0
 10 11  1  0
 11 12  1  0
 12 13  1  0
 13 14  2  0
 14 15  1  0
 15 16  1  0
 15 17  2  0
 17 18  1  0
 18 19  1  0
 18 20  2  0
  2 21  1  0
 21 22  2  0
 22 23  1  0
 23 24  2  0
 24 25  1  0
 25 26  2  0
 26 27  1  0
 27 28  2  0
 28 29  1  0
 29 30  2  0
 12  7  1  0
 20 13  1  0
 30 21  1  0
 29 24  1  0
  3 31  1  0
  4 32  1  0
  4 33  1  0
  8 34  1  0
  8 35  1  0
  9 36  1  0
  9 37  1  0
 10 38  1  0
 10 39  1  0
 11 40  1  0
 11 41  1  0
 12 42  1  1
 14 43  1  0
 17 44  1  0
 20 45  1  0
 22 46  1  0
 23 47  1  0
 25 48  1  0
 26 49  1  0
 27 50  1  0
 28 51  1  0
M  END
>  <smiles>  (97) 
O=C(NCC(=O)N1CCCCC1c1cc(F)cc(F)c1)c1ccc2ccccc2n1

>  <score_type>  (97) 
oracle

>  <origin>  (97) 
autodockgpu

>  <m_score__min__energy>  (97) 
-8.7899999999999991

>  <m_primary>  (97) 
energy

>  <rmsd>  (97) 
7.704181412467435

>  <m_score__min__rmsd>  (97) 
7.704181412467435

>  <meeko>  (97) 
{"free_energy": -7.05, "intermolecular_energy": -8.54, "internal_energy": -2.41, "cluster_size": 7, "cluster_id": 6, "rank_in_cluster": 3}

>  <energy>  (97) 
-6.88

>  <cluster_rmsd>  (97) 
0.29

>  <cluster>  (97) 
6

$$$$

     RDKit          3D

 51 54  0  0  0  0  0  0  0  0999 V2000
  139.0610   75.1040  221.8580 O   0  0  0  0  0  0  0  0  0  0  0  0
  140.1770   75.6500  221.9600 C   0  0  0  0  0  0  0  0  0  0  0  0
  141.3590   74.8950  221.6410 N   0  0  0  0  0  0  0  0  0  0  0  0
  141.3750   73.5480  221.2160 C   0  0  0  0  0  0  0  0  0  0  0  0
  142.4950   72.9650  220.5010 C   0  0  0  0  0  0  0  0  0  0  0  0
  142.1840   71.8090  219.9420 O   0  0  0  0  0  0  0  0  0  0  0  0
  143.8060   73.3620  220.2760 N   0  0  0  0  0  0  0  0  0  0  0  0
  145.0250   72.8260  220.8730 C   0  0  0  0  0  0  0  0  0  0  0  0
  145.8510   72.2030  219.7780 C   0  0  0  0  0  0  0  0  0  0  0  0
  145.1540   72.3390  218.4610 C   0  0  0  0  0  0  0  0  0  0  0  0
  144.7240   73.7570  218.1260 C   0  0  0  0  0  0  0  0  0  0  0  0
  144.1280   74.4470  219.3010 C   0  0  1  0  0  0  0  0  0  0  0  0
  143.0760   75.4080  219.0870 C   0  0  0  0  0  0  0  0  0  0  0  0
  142.9900   76.6690  219.6640 C   0  0  0  0  0  0  0  0  0  0  0  0
  141.9340   77.5230  219.4430 C   0  0  0  0  0  0  0  0  0  0  0  0
  141.9280   78.7450  220.0480 F   0  0  0  0  0  0  0  0  0  0  0  0
  140.8990   77.1610  218.6290 C   0  0  0  0  0  0  0  0  0  0  0  0
  140.9530   75.9150  218.0410 C   0  0  0  0  0  0  0  0  0  0  0  0
  139.9350   75.5290  217.2270 F   0  0  0  0  0  0  0  0  0  0  0  0
  142.0100   75.0620  218.2630 C   0  0  0  0  0  0  0  0  0  0  0  0
  140.2720   77.0470  222.4000 C   0  0  0  0  0  0  0  0  0  0  0  0
  139.1170   77.7590  222.6440 C   0  0  0  0  0  0  0  0  0  0  0  0
  139.1100   79.0740  223.0600 C   0  0  0  0  0  0  0  0  0  0  0  0
  140.3440   79.6750  223.2290 C   0  0  0  0  0  0  0  0  0  0  0  0
  140.3280   80.9940  223.6470 C   0  0  0  0  0  0  0  0  0  0  0  0
  141.5490   81.6130  223.8220 C   0  0  0  0  0  0  0  0  0  0  0  0
  142.7330   80.9320  223.5880 C   0  0  0  0  0  0  0  0  0  0  0  0
  142.7150   79.6160  223.1710 C   0  0  0  0  0  0  0  0  0  0  0  0
  141.5030   78.9730  222.9880 C   0  0  0  0  0  0  0  0  0  0  0  0
  141.4500   77.6730  222.5770 N   0  0  0  0  0  0  0  0  0  0  0  0
  142.2580   75.4610  221.7580 H   0  0  0  0  0  0  0  0  0  0  0  0
  141.2438   72.9407  222.1237 H   0  0  0  0  0  0  0  0  0  0  0  0
  140.5924   73.5483  220.4430 H   0  0  0  0  0  0  0  0  0  0  0  0
  145.5928   73.6372  221.3521 H   0  0  0  0  0  0  0  0  0  0  0  0
  144.7755   72.0735  221.6356 H   0  0  0  0  0  0  0  0  0  0  0  0
  146.8263   72.7091  219.7264 H   0  0  0  0  0  0  0  0  0  0  0  0
  145.9922   71.1349  219.9997 H   0  0  0  0  0  0  0  0  0  0  0  0
  145.8367   71.9903  217.6721 H   0  0  0  0  0  0  0  0  0  0  0  0
  144.2351   71.7379  218.5268 H   0  0  0  0  0  0  0  0  0  0  0  0
  145.6033   74.3250  217.7881 H   0  0  0  0  0  0  0  0  0  0  0  0
  143.9593   73.7044  217.3370 H   0  0  0  0  0  0  0  0  0  0  0  0
  144.8701   75.1596  219.6903 H   0  0  0  0  0  0  0  0  0  0  0  0
  143.8028   76.9995  220.3274 H   0  0  0  0  0  0  0  0  0  0  0  0
  140.0521   77.8395  218.4488 H   0  0  0  0  0  0  0  0  0  0  0  0
  142.0119   74.0767  217.7740 H   0  0  0  0  0  0  0  0  0  0  0  0
  138.1514   77.2523  222.4995 H   0  0  0  0  0  0  0  0  0  0  0  0
  138.1717   79.6165  223.2476 H   0  0  0  0  0  0  0  0  0  0  0  0
  139.3831   81.5261  223.8318 H   0  0  0  0  0  0  0  0  0  0  0  0
  141.5828   82.6618  224.1519 H   0  0  0  0  0  0  0  0  0  0  0  0
  143.6952   81.4442  223.7357 H   0  0  0  0  0  0  0  0  0  0  0  0
  143.6583   79.0816  222.9853 H   0  0  0  0  0  0  0  0  0  0  0  0
  1  2  2  0
  2  3  1  0
  3  4  1  0
  4  5  1  0
  5  6  2  0
  5  7  1  0
  7  8  1  0
  8  9  1  0
  9 10  1  0
 10 11  1  0
 11 12  1  0
 12 13  1  0
 13 14  2  0
 14 15  1  0
 15 16  1  0
 15 17  2  0
 17 18  1  0
 18 19  1  0
 18 20  2  0
  2 21  1  0
 21 22  2  0
 22 23  1  0
 23 24  2  0
 24 25  1  0
 25 26  2  0
 26 27  1  0
 27 28  2  0
 28 29  1  0
 29 30  2  0
 12  7  1  0
 20 13  1  0
 30 21  1  0
 29 24  1  0
  3 31  1  0
  4 32  1  0
  4 33  1  0
  8 34  1  0
  8 35  1  0
  9 36  1  0
  9 37  1  0
 10 38  1  0
 10 39  1  0
 11 40  1  0
 11 41  1  0
 12 42  1  1
 14 43  1  0
 17 44  1  0
 20 45  1  0
 22 46  1  0
 23 47  1  0
 25 48  1  0
 26 49  1  0
 27 50  1  0
 28 51  1  0
M  END
>  <smiles>  (98) 
O=C(NCC(=O)N1CCCCC1c1cc(F)cc(F)c1)c1ccc2ccccc2n1

>  <score_type>  (98) 
oracle

>  <origin>  (98) 
autodockgpu

>  <m_score__min__energy>  (98) 
-8.7899999999999991

>  <m_primary>  (98) 
energy

>  <rmsd>  (98) 
7.765504346367203

>  <m_score__min__rmsd>  (98) 
7.765504346367203

>  <meeko>  (98) 
{"free_energy": -6.91, "intermolecular_energy": -8.4, "internal_energy": -2.46, "cluster_size": 3, "cluster_id": 7, "rank_in_cluster": 3}

>  <energy>  (98) 
-6.97

>  <cluster_rmsd>  (98) 
0.0

>  <cluster>  (98) 
7

$$$$

     RDKit          3D

 51 54  0  0  0  0  0  0  0  0999 V2000
  141.4530   72.4840  221.6300 O   0  0  0  0  0  0  0  0  0  0  0  0
  140.5290   72.6800  222.4440 C   0  0  0  0  0  0  0  0  0  0  0  0
  139.7380   73.8760  222.3310 N   0  0  0  0  0  0  0  0  0  0  0  0
  139.9190   74.8830  221.3580 C   0  0  0  0  0  0  0  0  0  0  0  0
  140.9420   75.9070  221.4710 C   0  0  0  0  0  0  0  0  0  0  0  0
  141.0730   76.3480  222.7090 O   0  0  0  0  0  0  0  0  0  0  0  0
  141.8050   76.5100  220.5670 N   0  0  0  0  0  0  0  0  0  0  0  0
  142.7540   75.8710  219.6620 C   0  0  0  0  0  0  0  0  0  0  0  0
  142.3250   76.1600  218.2470 C   0  0  0  0  0  0  0  0  0  0  0  0
  141.0830   76.9940  218.2430 C   0  0  0  0  0  0  0  0  0  0  0  0
  141.1740   78.2520  219.0880 C   0  0  0  0  0  0  0  0  0  0  0  0
  141.8310   77.9950  220.3970 C   0  0  1  0  0  0  0  0  0  0  0  0
  141.4120   78.7490  221.5510 C   0  0  0  0  0  0  0  0  0  0  0  0
  140.0990   78.9780  221.9450 C   0  0  0  0  0  0  0  0  0  0  0  0
  139.7710   79.7410  223.0430 C   0  0  0  0  0  0  0  0  0  0  0  0
  138.4560   79.9160  223.3620 F   0  0  0  0  0  0  0  0  0  0  0  0
  140.7410   80.3210  223.8090 C   0  0  0  0  0  0  0  0  0  0  0  0
  142.0540   80.1140  223.4440 C   0  0  0  0  0  0  0  0  0  0  0  0
  143.0390   80.6800  224.1890 F   0  0  0  0  0  0  0  0  0  0  0  0
  142.3820   79.3490  222.3470 C   0  0  0  0  0  0  0  0  0  0  0  0
  140.2600   71.6970  223.5000 C   0  0  0  0  0  0  0  0  0  0  0  0
  139.5440   70.5590  223.1980 C   0  0  0  0  0  0  0  0  0  0  0  0
  139.2440   69.5810  224.1240 C   0  0  0  0  0  0  0  0  0  0  0  0
  139.7020   69.7910  225.4120 C   0  0  0  0  0  0  0  0  0  0  0  0
  139.3990   68.8060  226.3360 C   0  0  0  0  0  0  0  0  0  0  0  0
  139.8460   68.9950  227.6270 C   0  0  0  0  0  0  0  0  0  0  0  0
  140.5700   70.1250  227.9720 C   0  0  0  0  0  0  0  0  0  0  0  0
  140.8570   71.0900  227.0270 C   0  0  0  0  0  0  0  0  0  0  0  0
  140.4190   70.9240  225.7250 C   0  0  0  0  0  0  0  0  0  0  0  0
  140.6860   71.8580  224.7670 N   0  0  0  0  0  0  0  0  0  0  0  0
  138.9720   73.9400  223.0750 H   0  0  0  0  0  0  0  0  0  0  0  0
  140.1152   74.3595  220.4106 H   0  0  0  0  0  0  0  0  0  0  0  0
  138.9980   75.4733  221.4731 H   0  0  0  0  0  0  0  0  0  0  0  0
  143.7626   76.2746  219.8348 H   0  0  0  0  0  0  0  0  0  0  0  0
  142.7741   74.7854  219.8381 H   0  0  0  0  0  0  0  0  0  0  0  0
  143.1285   76.7026  217.7275 H   0  0  0  0  0  0  0  0  0  0  0  0
  142.1202   75.2092  217.7331 H   0  0  0  0  0  0  0  0  0  0  0  0
  140.8701   77.2904  217.2053 H   0  0  0  0  0  0  0  0  0  0  0  0
  140.2863   76.3757  218.6823 H   0  0  0  0  0  0  0  0  0  0  0  0
  141.7567   79.0070  218.5399 H   0  0  0  0  0  0  0  0  0  0  0  0
  140.1510   78.6056  219.2839 H   0  0  0  0  0  0  0  0  0  0  0  0
  142.8527   78.3999  220.3502 H   0  0  0  0  0  0  0  0  0  0  0  0
  139.2866   78.5301  221.3539 H   0  0  0  0  0  0  0  0  0  0  0  0
  140.4837   80.9321  224.6867 H   0  0  0  0  0  0  0  0  0  0  0  0
  143.4429   79.2082  222.0926 H   0  0  0  0  0  0  0  0  0  0  0  0
  139.1932   70.4231  222.1643 H   0  0  0  0  0  0  0  0  0  0  0  0
  138.6711   68.6822  223.8522 H   0  0  0  0  0  0  0  0  0  0  0  0
  138.8262   67.9107  226.0528 H   0  0  0  0  0  0  0  0  0  0  0  0
  139.6246   68.2379  228.3937 H   0  0  0  0  0  0  0  0  0  0  0  0
  140.9190   70.2543  229.0071 H   0  0  0  0  0  0  0  0  0  0  0  0
  141.4306   71.9857  227.3076 H   0  0  0  0  0  0  0  0  0  0  0  0
  1  2  2  0
  2  3  1  0
  3  4  1  0
  4  5  1  0
  5  6  2  0
  5  7  1  0
  7  8  1  0
  8  9  1  0
  9 10  1  0
 10 11  1  0
 11 12  1  0
 12 13  1  0
 13 14  2  0
 14 15  1  0
 15 16  1  0
 15 17  2  0
 17 18  1  0
 18 19  1  0
 18 20  2  0
  2 21  1  0
 21 22  2  0
 22 23  1  0
 23 24  2  0
 24 25  1  0
 25 26  2  0
 26 27  1  0
 27 28  2  0
 28 29  1  0
 29 30  2  0
 12  7  1  0
 20 13  1  0
 30 21  1  0
 29 24  1  0
  3 31  1  0
  4 32  1  0
  4 33  1  0
  8 34  1  0
  8 35  1  0
  9 36  1  0
  9 37  1  0
 10 38  1  0
 10 39  1  0
 11 40  1  0
 11 41  1  0
 12 42  1  6
 14 43  1  0
 17 44  1  0
 20 45  1  0
 22 46  1  0
 23 47  1  0
 25 48  1  0
 26 49  1  0
 27 50  1  0
 28 51  1  0
M  END
>  <smiles>  (99) 
O=C(NCC(=O)N1CCCCC1c1cc(F)cc(F)c1)c1ccc2ccccc2n1

>  <score_type>  (99) 
oracle

>  <origin>  (99) 
autodockgpu

>  <m_score__min__energy>  (99) 
-8.7899999999999991

>  <m_primary>  (99) 
energy

>  <rmsd>  (99) 
2.1187884816100144

>  <m_score__min__rmsd>  (99) 
2.1187884816100144

>  <meeko>  (99) 
{"free_energy": -8.78, "intermolecular_energy": -10.27, "internal_energy": -1.16, "cluster_size": 9, "cluster_id": 1, "rank_in_cluster": 2}

>  <energy>  (99) 
-6.96

>  <cluster_rmsd>  (99) 
0.05

>  <cluster>  (99) 
7

$$$$

     RDKit          3D

 51 54  0  0  0  0  0  0  0  0999 V2000
  138.5730   71.0050  221.7590 O   0  0  0  0  0  0  0  0  0  0  0  0
  139.5050   71.3010  222.5320 C   0  0  0  0  0  0  0  0  0  0  0  0
  140.4250   72.3410  222.1560 N   0  0  0  0  0  0  0  0  0  0  0  0
  140.3720   73.0770  220.9510 C   0  0  0  0  0  0  0  0  0  0  0  0
  140.9780   74.3880  220.8070 C   0  0  0  0  0  0  0  0  0  0  0  0
  141.3460   74.8990  221.9690 O   0  0  0  0  0  0  0  0  0  0  0  0
  141.2540   75.2080  219.7220 N   0  0  0  0  0  0  0  0  0  0  0  0
  140.3170   75.9820  218.9150 C   0  0  0  0  0  0  0  0  0  0  0  0
  140.6310   77.4440  219.1010 C   0  0  0  0  0  0  0  0  0  0  0  0
  141.7830   77.6110  220.0410 C   0  0  0  0  0  0  0  0  0  0  0  0
  143.0120   76.7980  219.6730 C   0  0  0  0  0  0  0  0  0  0  0  0
  142.6570   75.4170  219.2500 C   0  0  1  0  0  0  0  0  0  0  0  0
  143.5670   74.3400  219.5440 C   0  0  0  0  0  0  0  0  0  0  0  0
  143.4950   73.0470  219.0390 C   0  0  0  0  0  0  0  0  0  0  0  0
  144.3810   72.0560  219.3930 C   0  0  0  0  0  0  0  0  0  0  0  0
  144.2410   70.8130  218.8500 F   0  0  0  0  0  0  0  0  0  0  0  0
  145.3930   72.3020  220.2770 C   0  0  0  0  0  0  0  0  0  0  0  0
  145.4910   73.5750  220.7980 C   0  0  0  0  0  0  0  0  0  0  0  0
  146.4880   73.8470  221.6800 F   0  0  0  0  0  0  0  0  0  0  0  0
  144.6050   74.5670  220.4420 C   0  0  0  0  0  0  0  0  0  0  0  0
  139.6530   70.5930  223.8090 C   0  0  0  0  0  0  0  0  0  0  0  0
  139.1710   69.3060  223.9270 C   0  0  0  0  0  0  0  0  0  0  0  0
  139.2660   68.5640  225.0860 C   0  0  0  0  0  0  0  0  0  0  0  0
  139.8820   69.1760  226.1620 C   0  0  0  0  0  0  0  0  0  0  0  0
  139.9740   68.4250  227.3210 C   0  0  0  0  0  0  0  0  0  0  0  0
  140.5850   69.0160  228.4080 C   0  0  0  0  0  0  0  0  0  0  0  0
  141.0830   70.3070  228.3290 C   0  0  0  0  0  0  0  0  0  0  0  0
  140.9760   71.0300  227.1590 C   0  0  0  0  0  0  0  0  0  0  0  0
  140.3670   70.4590  226.0550 C   0  0  0  0  0  0  0  0  0  0  0  0
  140.2450   71.1470  224.8820 N   0  0  0  0  0  0  0  0  0  0  0  0
  141.1790   72.5160  222.8920 H   0  0  0  0  0  0  0  0  0  0  0  0
  140.8374   72.4402  220.1842 H   0  0  0  0  0  0  0  0  0  0  0  0
  139.3007   73.3168  220.8820 H   0  0  0  0  0  0  0  0  0  0  0  0
  140.4256   75.7098  217.8548 H   0  0  0  0  0  0  0  0  0  0  0  0
  139.2834   75.7727  219.2277 H   0  0  0  0  0  0  0  0  0  0  0  0
  140.8895   77.8865  218.1277 H   0  0  0  0  0  0  0  0  0  0  0  0
  139.7491   77.9492  219.5217 H   0  0  0  0  0  0  0  0  0  0  0  0
  142.0647   78.6742  220.0554 H   0  0  0  0  0  0  0  0  0  0  0  0
  141.4452   77.2453  221.0219 H   0  0  0  0  0  0  0  0  0  0  0  0
  143.5358   77.2997  218.8460 H   0  0  0  0  0  0  0  0  0  0  0  0
  143.6534   76.7275  220.5638 H   0  0  0  0  0  0  0  0  0  0  0  0
  142.7496   75.3613  218.1553 H   0  0  0  0  0  0  0  0  0  0  0  0
  142.6941   72.8055  218.3247 H   0  0  0  0  0  0  0  0  0  0  0  0
  146.1042   71.5130  220.5629 H   0  0  0  0  0  0  0  0  0  0  0  0
  144.7214   75.5690  220.8808 H   0  0  0  0  0  0  0  0  0  0  0  0
  138.6861   68.8480  223.0523 H   0  0  0  0  0  0  0  0  0  0  0  0
  138.8723   67.5389  225.1508 H   0  0  0  0  0  0  0  0  0  0  0  0
  139.5769   67.4005  227.3734 H   0  0  0  0  0  0  0  0  0  0  0  0
  140.6781   68.4551  229.3497 H   0  0  0  0  0  0  0  0  0  0  0  0
  141.5678   70.7591  229.2069 H   0  0  0  0  0  0  0  0  0  0  0  0
  141.3725   72.0546  227.1038 H   0  0  0  0  0  0  0  0  0  0  0  0
  1  2  2  0
  2  3  1  0
  3  4  1  0
  4  5  1  0
  5  6  2  0
  5  7  1  0
  7  8  1  0
  8  9  1  0
  9 10  1  0
 10 11  1  0
 11 12  1  0
 12 13  1  0
 13 14  2  0
 14 15  1  0
 15 16  1  0
 15 17  2  0
 17 18  1  0
 18 19  1  0
 18 20  2  0
  2 21  1  0
 21 22  2  0
 22 23  1  0
 23 24  2  0
 24 25  1  0
 25 26  2  0
 26 27  1  0
 27 28  2  0
 28 29  1  0
 29 30  2  0
 12  7  1  0
 20 13  1  0
 30 21  1  0
 29 24  1  0
  3 31  1  0
  4 32  1  0
  4 33  1  0
  8 34  1  0
  8 35  1  0
  9 36  1  0
  9 37  1  0
 10 38  1  0
 10 39  1  0
 11 40  1  0
 11 41  1  0
 12 42  1  6
 14 43  1  0
 17 44  1  0
 20 45  1  0
 22 46  1  0
 23 47  1  0
 25 48  1  0
 26 49  1  0
 27 50  1  0
 28 51  1  0
M  END
>  <smiles>  (100) 
O=C(NCC(=O)N1CCCCC1c1cc(F)cc(F)c1)c1ccc2ccccc2n1

>  <score_type>  (100) 
oracle

>  <origin>  (100) 
autodockgpu

>  <m_score__min__energy>  (100) 
-8.7899999999999991

>  <m_primary>  (100) 
energy

>  <rmsd>  (100) 
1.9287318621979823

>  <m_score__min__rmsd>  (100) 
1.9287318621979823

>  <meeko>  (100) 
{"free_energy": -7.88, "intermolecular_energy": -9.37, "internal_energy": -1.73, "cluster_size": 27, "cluster_id": 2, "rank_in_cluster": 23}

>  <energy>  (100) 
-6.91

>  <cluster_rmsd>  (100) 
0.12

>  <cluster>  (100) 
7

$$$$
