
     RDKit          3D

 46 49  0  0  0  0  0  0  0  0999 V2000
  139.7900   72.2310  220.8280 O   0  0  0  0  0  0  0  0  0  0  0  0
  139.7400   72.6120  222.0350 C   0  0  0  0  0  0  0  0  0  0  0  0
  139.5520   74.0040  222.2540 N   0  0  0  0  0  0  0  0  0  0  0  0
  139.4310   74.8800  221.1080 C   0  0  0  0  0  0  0  0  0  0  0  0
  140.1700   76.1650  221.3310 C   0  0  0  0  0  0  0  0  0  0  0  0
  141.4250   76.2170  221.0890 O   0  0  0  0  0  0  0  0  0  0  0  0
  139.4510   77.2920  221.8040 N   0  0  0  0  0  0  0  0  0  0  0  0
  138.2980   77.2800  222.7040 C   0  0  0  0  0  0  0  0  0  0  0  0
  137.7770   78.6750  222.7390 C   0  0  0  0  0  0  0  0  0  0  0  0
  138.4340   79.3610  221.5730 C   0  0  0  0  0  0  0  0  0  0  0  0
  139.7450   78.6490  221.4690 C   0  0  1  0  0  0  0  0  0  0  0  0
  140.8420   79.2640  222.2420 C   0  0  0  0  0  0  0  0  0  0  0  0
  141.1700   78.7980  223.4960 C   0  0  0  0  0  0  0  0  0  0  0  0
  142.1830   79.3670  224.2110 N   0  0  0  0  0  0  0  0  0  0  0  0
  142.8900   80.3980  223.7100 C   0  0  0  0  0  0  0  0  0  0  0  0
  142.5930   80.8760  222.4860 N   0  0  0  0  0  0  0  0  0  0  0  0
  141.5840   80.3210  221.7560 C   0  0  0  0  0  0  0  0  0  0  0  0
  139.8670   71.6930  223.1590 C   0  0  0  0  0  0  0  0  0  0  0  0
  139.4480   70.3770  222.9450 C   0  0  0  0  0  0  0  0  0  0  0  0
  139.5260   69.4360  223.9400 C   0  0  0  0  0  0  0  0  0  0  0  0
  140.0380   69.8530  225.1580 C   0  0  0  0  0  0  0  0  0  0  0  0
  140.1360   68.9380  226.1900 C   0  0  0  0  0  0  0  0  0  0  0  0
  140.6380   69.2950  227.4270 C   0  0  0  0  0  0  0  0  0  0  0  0
  140.7720   68.1530  228.7520 Cl  0  0  0  0  0  0  0  0  0  0  0  0
  141.0440   70.6140  227.5970 C   0  0  0  0  0  0  0  0  0  0  0  0
  140.9570   71.5500  226.5840 C   0  0  0  0  0  0  0  0  0  0  0  0
  140.4530   71.1760  225.3550 C   0  0  0  0  0  0  0  0  0  0  0  0
  140.3580   72.0650  224.3530 N   0  0  0  0  0  0  0  0  0  0  0  0
  139.5060   74.3610  223.2510 H   0  0  0  0  0  0  0  0  0  0  0  0
  139.8473   74.3748  220.2240 H   0  0  0  0  0  0  0  0  0  0  0  0
  138.3664   75.1110  220.9555 H   0  0  0  0  0  0  0  0  0  0  0  0
  137.5258   76.5950  222.3239 H   0  0  0  0  0  0  0  0  0  0  0  0
  138.5806   76.9346  223.7094 H   0  0  0  0  0  0  0  0  0  0  0  0
  136.6828   78.6827  222.6265 H   0  0  0  0  0  0  0  0  0  0  0  0
  137.9973   79.1762  223.6930 H   0  0  0  0  0  0  0  0  0  0  0  0
  137.8414   79.2372  220.6546 H   0  0  0  0  0  0  0  0  0  0  0  0
  138.5370   80.4479  221.7074 H   0  0  0  0  0  0  0  0  0  0  0  0
  140.1614   78.7194  220.4533 H   0  0  0  0  0  0  0  0  0  0  0  0
  140.6079   77.9562  223.9265 H   0  0  0  0  0  0  0  0  0  0  0  0
  143.7050   80.8471  224.2967 H   0  0  0  0  0  0  0  0  0  0  0  0
  141.3566   80.7245  220.7583 H   0  0  0  0  0  0  0  0  0  0  0  0
  139.0485   70.0907  221.9609 H   0  0  0  0  0  0  0  0  0  0  0  0
  139.1974   68.3987  223.7784 H   0  0  0  0  0  0  0  0  0  0  0  0
  139.8067   67.9019  226.0225 H   0  0  0  0  0  0  0  0  0  0  0  0
  141.4486   70.9233  228.5720 H   0  0  0  0  0  0  0  0  0  0  0  0
  141.2869   72.5852  226.7560 H   0  0  0  0  0  0  0  0  0  0  0  0
  1  2  2  0
  2  3  1  0
  3  4  1  0
  4  5  1  0
  5  6  2  0
  5  7  1  0
  7  8  1  0
  8  9  1  0
  9 10  1  0
 10 11  1  0
 11 12  1  0
 12 13  2  0
 13 14  1  0
 14 15  2  0
 15 16  1  0
 16 17  2  0
  2 18  1  0
 18 19  2  0
 19 20  1  0
 20 21  2  0
 21 22  1  0
 22 23  2  0
 23 24  1  0
 23 25  1  0
 25 26  2  0
 26 27  1  0
 27 28  2  0
 11  7  1  0
 17 12  1  0
 28 18  1  0
 27 21  1  0
  3 29  1  0
  4 30  1  0
  4 31  1  0
  8 32  1  0
  8 33  1  0
  9 34  1  0
  9 35  1  0
 10 36  1  0
 10 37  1  0
 11 38  1  6
 13 39  1  0
 15 40  1  0
 17 41  1  0
 19 42  1  0
 20 43  1  0
 22 44  1  0
 25 45  1  0
 26 46  1  0
M  END
>  <smiles>  (1) 
O=C(NCC(=O)N1CCC[C@H]1c1cncnc1)c1ccc2cc(Cl)ccc2n1

>  <score_type>  (1) 
oracle

>  <origin>  (1) 
autodockgpu

>  <m_score__min__energy>  (1) 
-8.1600000000000001

>  <m_primary>  (1) 
energy

>  <rmsd>  (1) 
2.9066665892985206

>  <m_score__min__rmsd>  (1) 
2.9066665892985206

>  <meeko>  (1) 
{"free_energy": -8.02, "intermolecular_energy": -9.51, "internal_energy": -1.16, "cluster_size": 18, "cluster_id": 1, "rank_in_cluster": 8}

>  <energy>  (1) 
-8.16

>  <cluster_rmsd>  (1) 
0.0

>  <cluster>  (1) 
1

$$$$

     RDKit          3D

 46 49  0  0  0  0  0  0  0  0999 V2000
  134.7040   68.5780  225.3240 O   0  0  0  0  0  0  0  0  0  0  0  0
  135.0630   69.7770  225.1340 C   0  0  0  0  0  0  0  0  0  0  0  0
  136.1980   69.9760  224.3000 N   0  0  0  0  0  0  0  0  0  0  0  0
  136.8560   68.8180  223.7310 C   0  0  0  0  0  0  0  0  0  0  0  0
  138.3360   68.8730  223.9590 C   0  0  0  0  0  0  0  0  0  0  0  0
  138.9570   67.8090  224.3040 O   0  0  0  0  0  0  0  0  0  0  0  0
  139.0070   70.1100  223.7830 N   0  0  0  0  0  0  0  0  0  0  0  0
  138.4870   71.3010  223.1140 C   0  0  0  0  0  0  0  0  0  0  0  0
  139.6260   72.2550  223.0060 C   0  0  0  0  0  0  0  0  0  0  0  0
  140.8490   71.4290  223.2950 C   0  0  0  0  0  0  0  0  0  0  0  0
  140.3300   70.3940  224.2420 C   0  0  1  0  0  0  0  0  0  0  0  0
  140.4360   70.7580  225.6690 C   0  0  0  0  0  0  0  0  0  0  0  0
  139.7910   70.0170  226.6360 C   0  0  0  0  0  0  0  0  0  0  0  0
  139.8880   70.3540  227.9550 N   0  0  0  0  0  0  0  0  0  0  0  0
  140.6160   71.4170  228.3470 C   0  0  0  0  0  0  0  0  0  0  0  0
  141.2570   72.1610  227.4250 N   0  0  0  0  0  0  0  0  0  0  0  0
  141.1730   71.8410  226.1020 C   0  0  0  0  0  0  0  0  0  0  0  0
  134.3700   70.9130  225.7280 C   0  0  0  0  0  0  0  0  0  0  0  0
  133.3380   70.6220  226.6240 C   0  0  0  0  0  0  0  0  0  0  0  0
  132.6250   71.6210  227.2360 C   0  0  0  0  0  0  0  0  0  0  0  0
  132.9770   72.9230  226.9240 C   0  0  0  0  0  0  0  0  0  0  0  0
  132.2850   73.9630  227.5180 C   0  0  0  0  0  0  0  0  0  0  0  0
  132.5890   75.2830  227.2450 C   0  0  0  0  0  0  0  0  0  0  0  0
  131.7270   76.6190  227.9840 Cl  0  0  0  0  0  0  0  0  0  0  0  0
  133.6230   75.5290  226.3470 C   0  0  0  0  0  0  0  0  0  0  0  0
  134.3320   74.5110  225.7390 C   0  0  0  0  0  0  0  0  0  0  0  0
  134.0130   73.1980  226.0230 C   0  0  0  0  0  0  0  0  0  0  0  0
  134.6850   72.1890  225.4460 N   0  0  0  0  0  0  0  0  0  0  0  0
  136.5290   70.9660  224.1180 H   0  0  0  0  0  0  0  0  0  0  0  0
  136.4535   67.9087  224.2013 H   0  0  0  0  0  0  0  0  0  0  0  0
  136.6694   68.8073  222.6470 H   0  0  0  0  0  0  0  0  0  0  0  0
  138.1120   71.0416  222.1130 H   0  0  0  0  0  0  0  0  0  0  0  0
  137.6508   71.7411  223.6771 H   0  0  0  0  0  0  0  0  0  0  0  0
  139.6780   72.6831  221.9941 H   0  0  0  0  0  0  0  0  0  0  0  0
  139.5244   73.1025  223.6998 H   0  0  0  0  0  0  0  0  0  0  0  0
  141.2411   70.9661  222.3774 H   0  0  0  0  0  0  0  0  0  0  0  0
  141.6851   72.0151  223.7041 H   0  0  0  0  0  0  0  0  0  0  0  0
  140.9520   69.4868  224.2271 H   0  0  0  0  0  0  0  0  0  0  0  0
  139.1909   69.1436  226.3410 H   0  0  0  0  0  0  0  0  0  0  0  0
  140.6868   71.6762  229.4137 H   0  0  0  0  0  0  0  0  0  0  0  0
  141.7044   72.4598  225.3640 H   0  0  0  0  0  0  0  0  0  0  0  0
  133.0929   69.5722  226.8425 H   0  0  0  0  0  0  0  0  0  0  0  0
  131.8113   71.3981  227.9419 H   0  0  0  0  0  0  0  0  0  0  0  0
  131.4735   73.7338  228.2244 H   0  0  0  0  0  0  0  0  0  0  0  0
  133.8853   76.5713  226.1128 H   0  0  0  0  0  0  0  0  0  0  0  0
  135.1439   74.7446  225.0345 H   0  0  0  0  0  0  0  0  0  0  0  0
  1  2  2  0
  2  3  1  0
  3  4  1  0
  4  5  1  0
  5  6  2  0
  5  7  1  0
  7  8  1  0
  8  9  1  0
  9 10  1  0
 10 11  1  0
 11 12  1  0
 12 13  2  0
 13 14  1  0
 14 15  2  0
 15 16  1  0
 16 17  2  0
  2 18  1  0
 18 19  2  0
 19 20  1  0
 20 21  2  0
 21 22  1  0
 22 23  2  0
 23 24  1  0
 23 25  1  0
 25 26  2  0
 26 27  1  0
 27 28  2  0
 11  7  1  0
 17 12  1  0
 28 18  1  0
 27 21  1  0
  3 29  1  0
  4 30  1  0
  4 31  1  0
  8 32  1  0
  8 33  1  0
  9 34  1  0
  9 35  1  0
 10 36  1  0
 10 37  1  0
 11 38  1  1
 13 39  1  0
 15 40  1  0
 17 41  1  0
 19 42  1  0
 20 43  1  0
 22 44  1  0
 25 45  1  0
 26 46  1  0
M  END
>  <smiles>  (2) 
O=C(NCC(=O)N1CCC[C@H]1c1cncnc1)c1ccc2cc(Cl)ccc2n1

>  <score_type>  (2) 
oracle

>  <origin>  (2) 
autodockgpu

>  <m_score__min__energy>  (2) 
-8.1600000000000001

>  <m_primary>  (2) 
energy

>  <rmsd>  (2) 
7.205641343909361

>  <m_score__min__rmsd>  (2) 
7.205641343909361

>  <meeko>  (2) 
{"free_energy": -7.57, "intermolecular_energy": -9.06, "internal_energy": -1.34, "cluster_size": 4, "cluster_id": 3, "rank_in_cluster": 3}

>  <energy>  (2) 
-8.11

>  <cluster_rmsd>  (2) 
0.41

>  <cluster>  (2) 
1

$$$$

     RDKit          3D

 46 49  0  0  0  0  0  0  0  0999 V2000
  141.7440   73.3700  220.6100 O   0  0  0  0  0  0  0  0  0  0  0  0
  141.0290   74.1440  221.3130 C   0  0  0  0  0  0  0  0  0  0  0  0
  140.0420   73.5290  222.1310 N   0  0  0  0  0  0  0  0  0  0  0  0
  139.9190   72.0870  222.1110 C   0  0  0  0  0  0  0  0  0  0  0  0
  139.9260   71.5240  223.5000 C   0  0  0  0  0  0  0  0  0  0  0  0
  140.5120   72.1710  224.4350 O   0  0  0  0  0  0  0  0  0  0  0  0
  139.2770   70.2860  223.7370 N   0  0  0  0  0  0  0  0  0  0  0  0
  139.1910   69.1520  222.8170 C   0  0  0  0  0  0  0  0  0  0  0  0
  138.2450   68.1800  223.4330 C   0  0  0  0  0  0  0  0  0  0  0  0
  137.5450   68.9570  224.5140 C   0  0  0  0  0  0  0  0  0  0  0  0
  138.5870   69.9410  224.9400 C   0  0  1  0  0  0  0  0  0  0  0  0
  139.4480   69.4850  226.0490 C   0  0  0  0  0  0  0  0  0  0  0  0
  139.9530   70.3810  226.9660 C   0  0  0  0  0  0  0  0  0  0  0  0
  140.7490   69.9590  227.9900 N   0  0  0  0  0  0  0  0  0  0  0  0
  141.0620   68.6580  228.1340 C   0  0  0  0  0  0  0  0  0  0  0  0
  140.5840   67.7570  227.2540 N   0  0  0  0  0  0  0  0  0  0  0  0
  139.7860   68.1590  226.2230 C   0  0  0  0  0  0  0  0  0  0  0  0
  141.1880   75.5920  221.3020 C   0  0  0  0  0  0  0  0  0  0  0  0
  141.9280   76.1360  220.2480 C   0  0  0  0  0  0  0  0  0  0  0  0
  142.1350   77.4880  220.1480 C   0  0  0  0  0  0  0  0  0  0  0  0
  141.5770   78.2820  221.1360 C   0  0  0  0  0  0  0  0  0  0  0  0
  141.7590   79.6510  221.0750 C   0  0  0  0  0  0  0  0  0  0  0  0
  141.2280   80.4940  222.0320 C   0  0  0  0  0  0  0  0  0  0  0  0
  141.4450   82.2340  221.9780 Cl  0  0  0  0  0  0  0  0  0  0  0  0
  140.4970   79.9120  223.0630 C   0  0  0  0  0  0  0  0  0  0  0  0
  140.2990   78.5480  223.1500 C   0  0  0  0  0  0  0  0  0  0  0  0
  140.8380   77.7210  222.1850 C   0  0  0  0  0  0  0  0  0  0  0  0
  140.6610   76.3910  222.2450 N   0  0  0  0  0  0  0  0  0  0  0  0
  139.4250   74.1440  222.7330 H   0  0  0  0  0  0  0  0  0  0  0  0
  138.9744   71.8141  221.6178 H   0  0  0  0  0  0  0  0  0  0  0  0
  140.7768   71.6714  221.5620 H   0  0  0  0  0  0  0  0  0  0  0  0
  138.8121   69.4837  221.8390 H   0  0  0  0  0  0  0  0  0  0  0  0
  140.1788   68.6968  222.6525 H   0  0  0  0  0  0  0  0  0  0  0  0
  137.5226   67.8167  222.6873 H   0  0  0  0  0  0  0  0  0  0  0  0
  138.7606   67.2921  223.8276 H   0  0  0  0  0  0  0  0  0  0  0  0
  136.6538   69.4683  224.1211 H   0  0  0  0  0  0  0  0  0  0  0  0
  137.1785   68.3260  225.3371 H   0  0  0  0  0  0  0  0  0  0  0  0
  138.1341   70.8313  225.4007 H   0  0  0  0  0  0  0  0  0  0  0  0
  139.7112   71.4499  226.8710 H   0  0  0  0  0  0  0  0  0  0  0  0
  141.7044   68.3323  228.9654 H   0  0  0  0  0  0  0  0  0  0  0  0
  139.4037   67.4091  225.5148 H   0  0  0  0  0  0  0  0  0  0  0  0
  142.3521   75.4671  219.4846 H   0  0  0  0  0  0  0  0  0  0  0  0
  142.7171   77.9216  219.3215 H   0  0  0  0  0  0  0  0  0  0  0  0
  142.3402   80.0791  220.2450 H   0  0  0  0  0  0  0  0  0  0  0  0
  140.0612   80.5615  223.8364 H   0  0  0  0  0  0  0  0  0  0  0  0
  139.7166   78.1241  223.9813 H   0  0  0  0  0  0  0  0  0  0  0  0
  1  2  2  0
  2  3  1  0
  3  4  1  0
  4  5  1  0
  5  6  2  0
  5  7  1  0
  7  8  1  0
  8  9  1  0
  9 10  1  0
 10 11  1  0
 11 12  1  0
 12 13  2  0
 13 14  1  0
 14 15  2  0
 15 16  1  0
 16 17  2  0
  2 18  1  0
 18 19  2  0
 19 20  1  0
 20 21  2  0
 21 22  1  0
 22 23  2  0
 23 24  1  0
 23 25  1  0
 25 26  2  0
 26 27  1  0
 27 28  2  0
 11  7  1  0
 17 12  1  0
 28 18  1  0
 27 21  1  0
  3 29  1  0
  4 30  1  0
  4 31  1  0
  8 32  1  0
  8 33  1  0
  9 34  1  0
  9 35  1  0
 10 36  1  0
 10 37  1  0
 11 38  1  1
 13 39  1  0
 15 40  1  0
 17 41  1  0
 19 42  1  0
 20 43  1  0
 22 44  1  0
 25 45  1  0
 26 46  1  0
M  END
>  <smiles>  (3) 
O=C(NCC(=O)N1CCC[C@H]1c1cncnc1)c1ccc2cc(Cl)ccc2n1

>  <score_type>  (3) 
oracle

>  <origin>  (3) 
autodockgpu

>  <m_score__min__energy>  (3) 
-8.1600000000000001

>  <m_primary>  (3) 
energy

>  <rmsd>  (3) 
8.480148956153757

>  <m_score__min__rmsd>  (3) 
8.480148956153757

>  <meeko>  (3) 
{"free_energy": -7.64, "intermolecular_energy": -9.13, "internal_energy": -1.24, "cluster_size": 1, "cluster_id": 5, "rank_in_cluster": 1}

>  <energy>  (3) 
-8.09

>  <cluster_rmsd>  (3) 
0.15

>  <cluster>  (3) 
1

$$$$

     RDKit          3D

 46 49  0  0  0  0  0  0  0  0999 V2000
  140.1620   72.3450  220.6260 O   0  0  0  0  0  0  0  0  0  0  0  0
  139.7050   72.6490  221.7670 C   0  0  0  0  0  0  0  0  0  0  0  0
  139.0200   73.8910  221.8670 N   0  0  0  0  0  0  0  0  0  0  0  0
  138.8900   74.7130  220.6820 C   0  0  0  0  0  0  0  0  0  0  0  0
  138.7570   76.1620  221.0420 C   0  0  0  0  0  0  0  0  0  0  0  0
  137.6020   76.7110  221.0160 O   0  0  0  0  0  0  0  0  0  0  0  0
  139.9230   76.8840  221.4040 N   0  0  0  0  0  0  0  0  0  0  0  0
  140.2370   77.4380  222.7210 C   0  0  0  0  0  0  0  0  0  0  0  0
  141.4580   78.2720  222.5460 C   0  0  0  0  0  0  0  0  0  0  0  0
  141.5910   78.4550  221.0590 C   0  0  0  0  0  0  0  0  0  0  0  0
  141.0010   77.1910  220.5190 C   0  0  1  0  0  0  0  0  0  0  0  0
  141.9730   76.1000  220.3080 C   0  0  0  0  0  0  0  0  0  0  0  0
  142.9690   76.2140  219.3640 C   0  0  0  0  0  0  0  0  0  0  0  0
  143.8670   75.2050  219.1690 N   0  0  0  0  0  0  0  0  0  0  0  0
  143.8040   74.0720  219.8930 C   0  0  0  0  0  0  0  0  0  0  0  0
  142.8400   73.9300  220.8240 N   0  0  0  0  0  0  0  0  0  0  0  0
  141.9340   74.9270  221.0340 C   0  0  0  0  0  0  0  0  0  0  0  0
  139.8590   71.7900  222.9340 C   0  0  0  0  0  0  0  0  0  0  0  0
  139.4810   70.4520  222.7840 C   0  0  0  0  0  0  0  0  0  0  0  0
  139.5870   69.5630  223.8240 C   0  0  0  0  0  0  0  0  0  0  0  0
  140.0850   70.0540  225.0190 C   0  0  0  0  0  0  0  0  0  0  0  0
  140.2110   69.1930  226.0940 C   0  0  0  0  0  0  0  0  0  0  0  0
  140.7000   69.6240  227.3130 C   0  0  0  0  0  0  0  0  0  0  0  0
  140.8680   68.5530  228.6910 Cl  0  0  0  0  0  0  0  0  0  0  0  0
  141.0640   70.9630  227.4180 C   0  0  0  0  0  0  0  0  0  0  0  0
  140.9500   71.8460  226.3610 C   0  0  0  0  0  0  0  0  0  0  0  0
  140.4580   71.3970  225.1520 C   0  0  0  0  0  0  0  0  0  0  0  0
  140.3370   72.2330  224.1080 N   0  0  0  0  0  0  0  0  0  0  0  0
  138.6240   74.1800  222.8060 H   0  0  0  0  0  0  0  0  0  0  0  0
  139.7823   74.5797  220.0527 H   0  0  0  0  0  0  0  0  0  0  0  0
  137.9845   74.4033  220.1397 H   0  0  0  0  0  0  0  0  0  0  0  0
  139.4023   78.0566  223.0823 H   0  0  0  0  0  0  0  0  0  0  0  0
  140.4016   76.6403  223.4603 H   0  0  0  0  0  0  0  0  0  0  0  0
  141.3378   79.2442  223.0465 H   0  0  0  0  0  0  0  0  0  0  0  0
  142.3486   77.8003  222.9868 H   0  0  0  0  0  0  0  0  0  0  0  0
  141.0269   79.3347  220.7154 H   0  0  0  0  0  0  0  0  0  0  0  0
  142.6265   78.6287  220.7311 H   0  0  0  0  0  0  0  0  0  0  0  0
  140.6351   77.3247  219.4903 H   0  0  0  0  0  0  0  0  0  0  0  0
  143.0417   77.1300  218.7593 H   0  0  0  0  0  0  0  0  0  0  0  0
  144.5348   73.2670  219.7258 H   0  0  0  0  0  0  0  0  0  0  0  0
  141.1548   74.7935  221.7989 H   0  0  0  0  0  0  0  0  0  0  0  0
  139.0918   70.1060  221.8151 H   0  0  0  0  0  0  0  0  0  0  0  0
  139.2902   68.5096  223.7135 H   0  0  0  0  0  0  0  0  0  0  0  0
  139.9150   68.1401  225.9762 H   0  0  0  0  0  0  0  0  0  0  0  0
  141.4567   71.3320  228.3770 H   0  0  0  0  0  0  0  0  0  0  0  0
  141.2488   72.8977  226.4821 H   0  0  0  0  0  0  0  0  0  0  0  0
  1  2  2  0
  2  3  1  0
  3  4  1  0
  4  5  1  0
  5  6  2  0
  5  7  1  0
  7  8  1  0
  8  9  1  0
  9 10  1  0
 10 11  1  0
 11 12  1  0
 12 13  2  0
 13 14  1  0
 14 15  2  0
 15 16  1  0
 16 17  2  0
  2 18  1  0
 18 19  2  0
 19 20  1  0
 20 21  2  0
 21 22  1  0
 22 23  2  0
 23 24  1  0
 23 25  1  0
 25 26  2  0
 26 27  1  0
 27 28  2  0
 11  7  1  0
 17 12  1  0
 28 18  1  0
 27 21  1  0
  3 29  1  0
  4 30  1  0
  4 31  1  0
  8 32  1  0
  8 33  1  0
  9 34  1  0
  9 35  1  0
 10 36  1  0
 10 37  1  0
 11 38  1  6
 13 39  1  0
 15 40  1  0
 17 41  1  0
 19 42  1  0
 20 43  1  0
 22 44  1  0
 25 45  1  0
 26 46  1  0
M  END
>  <smiles>  (4) 
O=C(NCC(=O)N1CCC[C@H]1c1cncnc1)c1ccc2cc(Cl)ccc2n1

>  <score_type>  (4) 
oracle

>  <origin>  (4) 
autodockgpu

>  <m_score__min__energy>  (4) 
-8.1600000000000001

>  <m_primary>  (4) 
energy

>  <rmsd>  (4) 
2.7216321751403565

>  <m_score__min__rmsd>  (4) 
2.7216321751403565

>  <meeko>  (4) 
{"free_energy": -7.42, "intermolecular_energy": -8.91, "internal_energy": -1.38, "cluster_size": 1, "cluster_id": 6, "rank_in_cluster": 1}

>  <energy>  (4) 
-8.08

>  <cluster_rmsd>  (4) 
0.37

>  <cluster>  (4) 
1

$$$$

     RDKit          3D

 46 49  0  0  0  0  0  0  0  0999 V2000
  141.3520   73.4040  220.7280 O   0  0  0  0  0  0  0  0  0  0  0  0
  140.6480   74.2150  221.4000 C   0  0  0  0  0  0  0  0  0  0  0  0
  139.5850   73.6550  222.1620 N   0  0  0  0  0  0  0  0  0  0  0  0
  139.3810   72.2220  222.1240 C   0  0  0  0  0  0  0  0  0  0  0  0
  139.8380   71.5780  223.3980 C   0  0  0  0  0  0  0  0  0  0  0  0
  140.6870   72.1840  224.1380 O   0  0  0  0  0  0  0  0  0  0  0  0
  139.3090   70.3090  223.7470 N   0  0  0  0  0  0  0  0  0  0  0  0
  139.3420   69.0930  222.9340 C   0  0  0  0  0  0  0  0  0  0  0  0
  138.4890   68.0950  223.6370 C   0  0  0  0  0  0  0  0  0  0  0  0
  137.7070   68.8950  224.6430 C   0  0  0  0  0  0  0  0  0  0  0  0
  138.6460   70.0100  224.9770 C   0  0  1  0  0  0  0  0  0  0  0  0
  139.5370   69.7420  226.1230 C   0  0  0  0  0  0  0  0  0  0  0  0
  140.2440   70.7620  226.7210 C   0  0  0  0  0  0  0  0  0  0  0  0
  141.0690   70.5140  227.7800 N   0  0  0  0  0  0  0  0  0  0  0  0
  141.2130   69.2680  228.2690 C   0  0  0  0  0  0  0  0  0  0  0  0
  140.5350   68.2500  227.7040 N   0  0  0  0  0  0  0  0  0  0  0  0
  139.7070   68.4760  226.6460 C   0  0  0  0  0  0  0  0  0  0  0  0
  140.8900   75.6520  221.4080 C   0  0  0  0  0  0  0  0  0  0  0  0
  141.7850   76.1440  220.4530 C   0  0  0  0  0  0  0  0  0  0  0  0
  142.0810   77.4810  220.3790 C   0  0  0  0  0  0  0  0  0  0  0  0
  141.4520   78.3130  221.2900 C   0  0  0  0  0  0  0  0  0  0  0  0
  141.7190   79.6690  221.2510 C   0  0  0  0  0  0  0  0  0  0  0  0
  141.1230   80.5490  222.1350 C   0  0  0  0  0  0  0  0  0  0  0  0
  141.4450   82.2730  222.1070 Cl  0  0  0  0  0  0  0  0  0  0  0  0
  140.2390   80.0180  223.0680 C   0  0  0  0  0  0  0  0  0  0  0  0
  139.9520   78.6680  223.1300 C   0  0  0  0  0  0  0  0  0  0  0  0
  140.5580   77.8040  222.2400 C   0  0  0  0  0  0  0  0  0  0  0  0
  140.2980   76.4870  222.2780 N   0  0  0  0  0  0  0  0  0  0  0  0
  138.9740   74.3020  222.7350 H   0  0  0  0  0  0  0  0  0  0  0  0
  138.3101   72.0152  221.9809 H   0  0  0  0  0  0  0  0  0  0  0  0
  139.9693   71.8072  221.2922 H   0  0  0  0  0  0  0  0  0  0  0  0
  138.9416   69.2957  221.9297 H   0  0  0  0  0  0  0  0  0  0  0  0
  140.3705   68.7229  222.8110 H   0  0  0  0  0  0  0  0  0  0  0  0
  137.8117   67.5968  222.9278 H   0  0  0  0  0  0  0  0  0  0  0  0
  139.0851   67.3017  224.1117 H   0  0  0  0  0  0  0  0  0  0  0  0
  136.7740   69.2797  224.2053 H   0  0  0  0  0  0  0  0  0  0  0  0
  137.3955   68.3088  225.5201 H   0  0  0  0  0  0  0  0  0  0  0  0
  138.1064   70.8910  225.3547 H   0  0  0  0  0  0  0  0  0  0  0  0
  140.1425   71.7891  226.3404 H   0  0  0  0  0  0  0  0  0  0  0  0
  141.8797   69.0823  229.1240 H   0  0  0  0  0  0  0  0  0  0  0  0
  139.1622   67.6314  226.1989 H   0  0  0  0  0  0  0  0  0  0  0  0
  142.2603   75.4459  219.7482 H   0  0  0  0  0  0  0  0  0  0  0  0
  142.7851   77.8742  219.6310 H   0  0  0  0  0  0  0  0  0  0  0  0
  142.4221   80.0567  220.4991 H   0  0  0  0  0  0  0  0  0  0  0  0
  139.7507   80.6972  223.7823 H   0  0  0  0  0  0  0  0  0  0  0  0
  139.2466   78.2848  223.8821 H   0  0  0  0  0  0  0  0  0  0  0  0
  1  2  2  0
  2  3  1  0
  3  4  1  0
  4  5  1  0
  5  6  2  0
  5  7  1  0
  7  8  1  0
  8  9  1  0
  9 10  1  0
 10 11  1  0
 11 12  1  0
 12 13  2  0
 13 14  1  0
 14 15  2  0
 15 16  1  0
 16 17  2  0
  2 18  1  0
 18 19  2  0
 19 20  1  0
 20 21  2  0
 21 22  1  0
 22 23  2  0
 23 24  1  0
 23 25  1  0
 25 26  2  0
 26 27  1  0
 27 28  2  0
 11  7  1  0
 17 12  1  0
 28 18  1  0
 27 21  1  0
  3 29  1  0
  4 30  1  0
  4 31  1  0
  8 32  1  0
  8 33  1  0
  9 34  1  0
  9 35  1  0
 10 36  1  0
 10 37  1  0
 11 38  1  1
 13 39  1  0
 15 40  1  0
 17 41  1  0
 19 42  1  0
 20 43  1  0
 22 44  1  0
 25 45  1  0
 26 46  1  0
M  END
>  <smiles>  (5) 
O=C(NCC(=O)N1CCC[C@H]1c1cncnc1)c1ccc2cc(Cl)ccc2n1

>  <score_type>  (5) 
oracle

>  <origin>  (5) 
autodockgpu

>  <m_score__min__energy>  (5) 
-8.1600000000000001

>  <m_primary>  (5) 
energy

>  <rmsd>  (5) 
8.475531107309825

>  <m_score__min__rmsd>  (5) 
8.475531107309825

>  <meeko>  (5) 
{"free_energy": -7.55, "intermolecular_energy": -9.04, "internal_energy": -1.24, "cluster_size": 3, "cluster_id": 4, "rank_in_cluster": 2}

>  <energy>  (5) 
-8.08

>  <cluster_rmsd>  (5) 
0.27

>  <cluster>  (5) 
1

$$$$

     RDKit          3D

 46 49  0  0  0  0  0  0  0  0999 V2000
  139.8890   72.3940  220.8560 O   0  0  0  0  0  0  0  0  0  0  0  0
  139.7850   72.7510  222.0660 C   0  0  0  0  0  0  0  0  0  0  0  0
  139.5360   74.1310  222.3040 N   0  0  0  0  0  0  0  0  0  0  0  0
  139.4200   75.0230  221.1700 C   0  0  0  0  0  0  0  0  0  0  0  0
  139.4480   76.4570  221.6060 C   0  0  0  0  0  0  0  0  0  0  0  0
  138.8830   76.7890  222.7040 O   0  0  0  0  0  0  0  0  0  0  0  0
  140.1050   77.4070  220.7820 N   0  0  0  0  0  0  0  0  0  0  0  0
  139.5820   78.0160  219.5590 C   0  0  0  0  0  0  0  0  0  0  0  0
  140.7100   78.7790  218.9550 C   0  0  0  0  0  0  0  0  0  0  0  0
  141.9380   78.2830  219.6670 C   0  0  0  0  0  0  0  0  0  0  0  0
  141.4120   77.9310  221.0220 C   0  0  1  0  0  0  0  0  0  0  0  0
  141.4780   79.0260  222.0110 C   0  0  0  0  0  0  0  0  0  0  0  0
  140.4240   79.2730  222.8630 C   0  0  0  0  0  0  0  0  0  0  0  0
  140.4850   80.2850  223.7760 N   0  0  0  0  0  0  0  0  0  0  0  0
  141.5760   81.0690  223.8700 C   0  0  0  0  0  0  0  0  0  0  0  0
  142.6230   80.8520  223.0500 N   0  0  0  0  0  0  0  0  0  0  0  0
  142.5810   79.8460  222.1300 C   0  0  0  0  0  0  0  0  0  0  0  0
  139.9090   71.8170  223.1780 C   0  0  0  0  0  0  0  0  0  0  0  0
  139.4960   70.5020  222.9440 C   0  0  0  0  0  0  0  0  0  0  0  0
  139.5730   69.5480  223.9260 C   0  0  0  0  0  0  0  0  0  0  0  0
  140.0770   69.9490  225.1520 C   0  0  0  0  0  0  0  0  0  0  0  0
  140.1730   69.0200  226.1710 C   0  0  0  0  0  0  0  0  0  0  0  0
  140.6660   69.3610  227.4160 C   0  0  0  0  0  0  0  0  0  0  0  0
  140.7980   68.2020  228.7250 Cl  0  0  0  0  0  0  0  0  0  0  0  0
  141.0660   70.6800  227.6070 C   0  0  0  0  0  0  0  0  0  0  0  0
  140.9820   71.6300  226.6070 C   0  0  0  0  0  0  0  0  0  0  0  0
  140.4850   71.2710  225.3690 C   0  0  0  0  0  0  0  0  0  0  0  0
  140.3920   72.1740  224.3800 N   0  0  0  0  0  0  0  0  0  0  0  0
  139.4430   74.4670  223.3040 H   0  0  0  0  0  0  0  0  0  0  0  0
  140.2586   74.8403  220.4820 H   0  0  0  0  0  0  0  0  0  0  0  0
  138.4599   74.8288  220.6696 H   0  0  0  0  0  0  0  0  0  0  0  0
  139.2343   77.2371  218.8645 H   0  0  0  0  0  0  0  0  0  0  0  0
  138.7259   78.6724  219.7743 H   0  0  0  0  0  0  0  0  0  0  0  0
  140.7801   78.5768  217.8760 H   0  0  0  0  0  0  0  0  0  0  0  0
  140.5794   79.8659  219.0630 H   0  0  0  0  0  0  0  0  0  0  0  0
  142.3594   77.4005  219.1634 H   0  0  0  0  0  0  0  0  0  0  0  0
  142.7549   79.0192  219.6933 H   0  0  0  0  0  0  0  0  0  0  0  0
  142.0480   77.1830  221.5180 H   0  0  0  0  0  0  0  0  0  0  0  0
  139.5217   78.6463  222.8065 H   0  0  0  0  0  0  0  0  0  0  0  0
  141.6122   81.8810  224.6112 H   0  0  0  0  0  0  0  0  0  0  0  0
  143.4452   79.6850  221.4687 H   0  0  0  0  0  0  0  0  0  0  0  0
  139.1022   70.2277  221.9542 H   0  0  0  0  0  0  0  0  0  0  0  0
  139.2493   68.5119  223.7481 H   0  0  0  0  0  0  0  0  0  0  0  0
  139.8494   67.9850  225.9865 H   0  0  0  0  0  0  0  0  0  0  0  0
  141.4632   70.9770  228.5889 H   0  0  0  0  0  0  0  0  0  0  0  0
  141.3082   72.6635  226.7952 H   0  0  0  0  0  0  0  0  0  0  0  0
  1  2  2  0
  2  3  1  0
  3  4  1  0
  4  5  1  0
  5  6  2  0
  5  7  1  0
  7  8  1  0
  8  9  1  0
  9 10  1  0
 10 11  1  0
 11 12  1  0
 12 13  2  0
 13 14  1  0
 14 15  2  0
 15 16  1  0
 16 17  2  0
  2 18  1  0
 18 19  2  0
 19 20  1  0
 20 21  2  0
 21 22  1  0
 22 23  2  0
 23 24  1  0
 23 25  1  0
 25 26  2  0
 26 27  1  0
 27 28  2  0
 11  7  1  0
 17 12  1  0
 28 18  1  0
 27 21  1  0
  3 29  1  0
  4 30  1  0
  4 31  1  0
  8 32  1  0
  8 33  1  0
  9 34  1  0
  9 35  1  0
 10 36  1  0
 10 37  1  0
 11 38  1  1
 13 39  1  0
 15 40  1  0
 17 41  1  0
 19 42  1  0
 20 43  1  0
 22 44  1  0
 25 45  1  0
 26 46  1  0
M  END
>  <smiles>  (6) 
O=C(NCC(=O)N1CCC[C@H]1c1cncnc1)c1ccc2cc(Cl)ccc2n1

>  <score_type>  (6) 
oracle

>  <origin>  (6) 
autodockgpu

>  <m_score__min__energy>  (6) 
-8.1600000000000001

>  <m_primary>  (6) 
energy

>  <rmsd>  (6) 
1.934988152606282

>  <m_score__min__rmsd>  (6) 
1.934988152606282

>  <meeko>  (6) 
{"free_energy": -7.91, "intermolecular_energy": -9.4, "internal_energy": -1.38, "cluster_size": 18, "cluster_id": 1, "rank_in_cluster": 14}

>  <energy>  (6) 
-8.07

>  <cluster_rmsd>  (6) 
1.12

>  <cluster>  (6) 
1

$$$$

     RDKit          3D

 46 49  0  0  0  0  0  0  0  0999 V2000
  140.0080   72.1870  220.7460 O   0  0  0  0  0  0  0  0  0  0  0  0
  139.8930   72.5730  221.9470 C   0  0  0  0  0  0  0  0  0  0  0  0
  139.6750   73.9640  222.1500 N   0  0  0  0  0  0  0  0  0  0  0  0
  139.5970   74.8330  220.9950 C   0  0  0  0  0  0  0  0  0  0  0  0
  140.5240   76.0020  221.1370 C   0  0  0  0  0  0  0  0  0  0  0  0
  140.4090   76.7740  222.1490 O   0  0  0  0  0  0  0  0  0  0  0  0
  141.5070   76.2170  220.1370 N   0  0  0  0  0  0  0  0  0  0  0  0
  142.1190   77.4940  219.7710 C   0  0  0  0  0  0  0  0  0  0  0  0
  142.9270   77.2370  218.5460 C   0  0  0  0  0  0  0  0  0  0  0  0
  142.4570   75.8980  218.0480 C   0  0  0  0  0  0  0  0  0  0  0  0
  142.0680   75.1970  219.3100 C   0  0  1  0  0  0  0  0  0  0  0  0
  143.1480   74.4050  219.9320 C   0  0  0  0  0  0  0  0  0  0  0  0
  142.9210   73.1160  220.3620 C   0  0  0  0  0  0  0  0  0  0  0  0
  143.9180   72.3850  220.9380 N   0  0  0  0  0  0  0  0  0  0  0  0
  145.1510   72.9030  221.1010 C   0  0  0  0  0  0  0  0  0  0  0  0
  145.4040   74.1610  220.6910 N   0  0  0  0  0  0  0  0  0  0  0  0
  144.4200   74.9080  220.1130 C   0  0  0  0  0  0  0  0  0  0  0  0
  139.9780   71.6610  223.0800 C   0  0  0  0  0  0  0  0  0  0  0  0
  139.5210   70.3560  222.8730 C   0  0  0  0  0  0  0  0  0  0  0  0
  139.5580   69.4230  223.8770 C   0  0  0  0  0  0  0  0  0  0  0  0
  140.0690   69.8350  225.0970 C   0  0  0  0  0  0  0  0  0  0  0  0
  140.1260   68.9270  226.1380 C   0  0  0  0  0  0  0  0  0  0  0  0
  140.6240   69.2790  227.3790 C   0  0  0  0  0  0  0  0  0  0  0  0
  140.7070   68.1460  228.7150 Cl  0  0  0  0  0  0  0  0  0  0  0  0
  141.0680   70.5870  227.5410 C   0  0  0  0  0  0  0  0  0  0  0  0
  141.0230   71.5160  226.5200 C   0  0  0  0  0  0  0  0  0  0  0  0
  140.5220   71.1460  225.2870 C   0  0  0  0  0  0  0  0  0  0  0  0
  140.4670   72.0280  224.2770 N   0  0  0  0  0  0  0  0  0  0  0  0
  139.5750   74.3230  223.1410 H   0  0  0  0  0  0  0  0  0  0  0  0
  139.8735   74.2621  220.0963 H   0  0  0  0  0  0  0  0  0  0  0  0
  138.5675   75.2112  220.9106 H   0  0  0  0  0  0  0  0  0  0  0  0
  141.3408   78.2432  219.5633 H   0  0  0  0  0  0  0  0  0  0  0  0
  142.7447   77.8849  220.5869 H   0  0  0  0  0  0  0  0  0  0  0  0
  142.7450   78.0165  217.7915 H   0  0  0  0  0  0  0  0  0  0  0  0
  144.0074   77.2468  218.7523 H   0  0  0  0  0  0  0  0  0  0  0  0
  141.5957   76.0059  217.3724 H   0  0  0  0  0  0  0  0  0  0  0  0
  143.2170   75.3576  217.4645 H   0  0  0  0  0  0  0  0  0  0  0  0
  141.3323   74.4021  219.1179 H   0  0  0  0  0  0  0  0  0  0  0  0
  141.9227   72.6706  220.2392 H   0  0  0  0  0  0  0  0  0  0  0  0
  145.9464   72.3022  221.5661 H   0  0  0  0  0  0  0  0  0  0  0  0
  144.6453   75.9332  219.7842 H   0  0  0  0  0  0  0  0  0  0  0  0
  139.1246   70.0727  221.8868 H   0  0  0  0  0  0  0  0  0  0  0  0
  139.1987   68.3951  223.7210 H   0  0  0  0  0  0  0  0  0  0  0  0
  139.7667   67.9002  225.9752 H   0  0  0  0  0  0  0  0  0  0  0  0
  141.4698   70.8929  228.5182 H   0  0  0  0  0  0  0  0  0  0  0  0
  141.3831   72.5419  226.6873 H   0  0  0  0  0  0  0  0  0  0  0  0
  1  2  2  0
  2  3  1  0
  3  4  1  0
  4  5  1  0
  5  6  2  0
  5  7  1  0
  7  8  1  0
  8  9  1  0
  9 10  1  0
 10 11  1  0
 11 12  1  0
 12 13  2  0
 13 14  1  0
 14 15  2  0
 15 16  1  0
 16 17  2  0
  2 18  1  0
 18 19  2  0
 19 20  1  0
 20 21  2  0
 21 22  1  0
 22 23  2  0
 23 24  1  0
 23 25  1  0
 25 26  2  0
 26 27  1  0
 27 28  2  0
 11  7  1  0
 17 12  1  0
 28 18  1  0
 27 21  1  0
  3 29  1  0
  4 30  1  0
  4 31  1  0
  8 32  1  0
  8 33  1  0
  9 34  1  0
  9 35  1  0
 10 36  1  0
 10 37  1  0
 11 38  1  6
 13 39  1  0
 15 40  1  0
 17 41  1  0
 19 42  1  0
 20 43  1  0
 22 44  1  0
 25 45  1  0
 26 46  1  0
M  END
>  <smiles>  (7) 
O=C(NCC(=O)N1CCC[C@H]1c1cncnc1)c1ccc2cc(Cl)ccc2n1

>  <score_type>  (7) 
oracle

>  <origin>  (7) 
autodockgpu

>  <m_score__min__energy>  (7) 
-8.1600000000000001

>  <m_primary>  (7) 
energy

>  <rmsd>  (7) 
2.2261292812817537

>  <m_score__min__rmsd>  (7) 
2.2261292812817537

>  <meeko>  (7) 
{"free_energy": -7.82, "intermolecular_energy": -9.31, "internal_energy": -1.6, "cluster_size": 20, "cluster_id": 2, "rank_in_cluster": 12}

>  <energy>  (7) 
-8.02

>  <cluster_rmsd>  (7) 
0.78

>  <cluster>  (7) 
1

$$$$

     RDKit          3D

 46 49  0  0  0  0  0  0  0  0999 V2000
  140.6180   74.0970  222.1960 O   0  0  0  0  0  0  0  0  0  0  0  0
  140.1600   72.9210  222.0840 C   0  0  0  0  0  0  0  0  0  0  0  0
  139.6300   72.5640  220.8130 N   0  0  0  0  0  0  0  0  0  0  0  0
  139.6470   73.5460  219.7500 C   0  0  0  0  0  0  0  0  0  0  0  0
  140.9110   73.4520  218.9490 C   0  0  0  0  0  0  0  0  0  0  0  0
  141.1840   72.3650  218.3340 O   0  0  0  0  0  0  0  0  0  0  0  0
  141.7690   74.5800  218.8980 N   0  0  0  0  0  0  0  0  0  0  0  0
  141.5030   75.9090  219.4460 C   0  0  0  0  0  0  0  0  0  0  0  0
  142.6020   76.7920  218.9640 C   0  0  0  0  0  0  0  0  0  0  0  0
  143.2640   76.0150  217.8590 C   0  0  0  0  0  0  0  0  0  0  0  0
  143.0610   74.5960  218.2880 C   0  0  1  0  0  0  0  0  0  0  0  0
  144.1530   74.0410  219.1130 C   0  0  0  0  0  0  0  0  0  0  0  0
  144.1590   74.2070  220.4800 C   0  0  0  0  0  0  0  0  0  0  0  0
  145.1680   73.6950  221.2430 N   0  0  0  0  0  0  0  0  0  0  0  0
  146.1850   73.0140  220.6800 C   0  0  0  0  0  0  0  0  0  0  0  0
  146.2060   72.8360  219.3450 N   0  0  0  0  0  0  0  0  0  0  0  0
  145.2070   73.3390  218.5650 C   0  0  0  0  0  0  0  0  0  0  0  0
  140.1640   71.9650  223.1830 C   0  0  0  0  0  0  0  0  0  0  0  0
  139.6320   70.7000  222.9170 C   0  0  0  0  0  0  0  0  0  0  0  0
  139.5890   69.7290  223.8860 C   0  0  0  0  0  0  0  0  0  0  0  0
  140.0960   70.0630  225.1300 C   0  0  0  0  0  0  0  0  0  0  0  0
  140.0740   69.1160  226.1370 C   0  0  0  0  0  0  0  0  0  0  0  0
  140.5640   69.3910  227.4000 C   0  0  0  0  0  0  0  0  0  0  0  0
  140.5470   68.2070  228.6930 Cl  0  0  0  0  0  0  0  0  0  0  0  0
  141.0840   70.6620  227.6210 C   0  0  0  0  0  0  0  0  0  0  0  0
  141.1190   71.6280  226.6350 C   0  0  0  0  0  0  0  0  0  0  0  0
  140.6240   71.3360  225.3800 C   0  0  0  0  0  0  0  0  0  0  0  0
  140.6460   72.2570  224.4030 N   0  0  0  0  0  0  0  0  0  0  0  0
  139.2380   71.5890  220.6820 H   0  0  0  0  0  0  0  0  0  0  0  0
  138.7872   73.3720  219.0863 H   0  0  0  0  0  0  0  0  0  0  0  0
  139.5917   74.5485  220.1993 H   0  0  0  0  0  0  0  0  0  0  0  0
  140.5318   76.2807  219.0875 H   0  0  0  0  0  0  0  0  0  0  0  0
  141.4637   75.8860  220.5451 H   0  0  0  0  0  0  0  0  0  0  0  0
  142.1972   77.7407  218.5817 H   0  0  0  0  0  0  0  0  0  0  0  0
  143.3067   77.0532  219.7672 H   0  0  0  0  0  0  0  0  0  0  0  0
  142.7790   76.2101  216.8911 H   0  0  0  0  0  0  0  0  0  0  0  0
  144.3215   76.2797  217.7119 H   0  0  0  0  0  0  0  0  0  0  0  0
  143.0968   73.9075  217.4309 H   0  0  0  0  0  0  0  0  0  0  0  0
  143.3398   74.7595  220.9633 H   0  0  0  0  0  0  0  0  0  0  0  0
  146.9924   72.6063  221.3060 H   0  0  0  0  0  0  0  0  0  0  0  0
  145.2421   73.1820  217.4768 H   0  0  0  0  0  0  0  0  0  0  0  0
  139.2408   70.4788  221.9130 H   0  0  0  0  0  0  0  0  0  0  0  0
  139.1711   68.7318  223.6835 H   0  0  0  0  0  0  0  0  0  0  0  0
  139.6566   68.1199  225.9282 H   0  0  0  0  0  0  0  0  0  0  0  0
  141.4816   70.9064  228.6171 H   0  0  0  0  0  0  0  0  0  0  0  0
  141.5381   72.6225  226.8480 H   0  0  0  0  0  0  0  0  0  0  0  0
  1  2  2  0
  2  3  1  0
  3  4  1  0
  4  5  1  0
  5  6  2  0
  5  7  1  0
  7  8  1  0
  8  9  1  0
  9 10  1  0
 10 11  1  0
 11 12  1  0
 12 13  2  0
 13 14  1  0
 14 15  2  0
 15 16  1  0
 16 17  2  0
  2 18  1  0
 18 19  2  0
 19 20  1  0
 20 21  2  0
 21 22  1  0
 22 23  2  0
 23 24  1  0
 23 25  1  0
 25 26  2  0
 26 27  1  0
 27 28  2  0
 11  7  1  0
 17 12  1  0
 28 18  1  0
 27 21  1  0
  3 29  1  0
  4 30  1  0
  4 31  1  0
  8 32  1  0
  8 33  1  0
  9 34  1  0
  9 35  1  0
 10 36  1  0
 10 37  1  0
 11 38  1  6
 13 39  1  0
 15 40  1  0
 17 41  1  0
 19 42  1  0
 20 43  1  0
 22 44  1  0
 25 45  1  0
 26 46  1  0
M  END
>  <smiles>  (8) 
O=C(NCC(=O)N1CCC[C@H]1c1cncnc1)c1ccc2cc(Cl)ccc2n1

>  <score_type>  (8) 
oracle

>  <origin>  (8) 
autodockgpu

>  <m_score__min__energy>  (8) 
-8.1600000000000001

>  <m_primary>  (8) 
energy

>  <rmsd>  (8) 
2.493505312830488

>  <m_score__min__rmsd>  (8) 
2.493505312830488

>  <meeko>  (8) 
{"free_energy": -7.73, "intermolecular_energy": -9.22, "internal_energy": -1.27, "cluster_size": 20, "cluster_id": 2, "rank_in_cluster": 16}

>  <energy>  (8) 
-8.02

>  <cluster_rmsd>  (8) 
1.12

>  <cluster>  (8) 
1

$$$$

     RDKit          3D

 46 49  0  0  0  0  0  0  0  0999 V2000
  140.6760   72.1900  220.7140 O   0  0  0  0  0  0  0  0  0  0  0  0
  140.2860   72.5760  221.8550 C   0  0  0  0  0  0  0  0  0  0  0  0
  139.8970   73.9400  221.9660 N   0  0  0  0  0  0  0  0  0  0  0  0
  139.9700   74.7830  220.7920 C   0  0  0  0  0  0  0  0  0  0  0  0
  141.1600   75.6930  220.8540 C   0  0  0  0  0  0  0  0  0  0  0  0
  141.4420   76.2830  221.9530 O   0  0  0  0  0  0  0  0  0  0  0  0
  141.9430   75.8710  219.6840 N   0  0  0  0  0  0  0  0  0  0  0  0
  142.3560   77.1430  219.0920 C   0  0  0  0  0  0  0  0  0  0  0  0
  142.9780   76.8140  217.7790 C   0  0  0  0  0  0  0  0  0  0  0  0
  142.5710   75.3920  217.5060 C   0  0  0  0  0  0  0  0  0  0  0  0
  142.4630   74.8110  218.8800 C   0  0  1  0  0  0  0  0  0  0  0  0
  143.7030   74.1890  219.3850 C   0  0  0  0  0  0  0  0  0  0  0  0
  143.9740   74.1480  220.7350 C   0  0  0  0  0  0  0  0  0  0  0  0
  145.1200   73.5740  221.2010 N   0  0  0  0  0  0  0  0  0  0  0  0
  146.0180   73.0320  220.3560 C   0  0  0  0  0  0  0  0  0  0  0  0
  145.7810   73.0580  219.0300 N   0  0  0  0  0  0  0  0  0  0  0  0
  144.6410   73.6260  218.5440 C   0  0  0  0  0  0  0  0  0  0  0  0
  140.2290   71.6910  223.0110 C   0  0  0  0  0  0  0  0  0  0  0  0
  139.6500   70.4340  222.8120 C   0  0  0  0  0  0  0  0  0  0  0  0
  139.5490   69.5280  223.8380 C   0  0  0  0  0  0  0  0  0  0  0  0
  140.0460   69.9190  225.0700 C   0  0  0  0  0  0  0  0  0  0  0  0
  139.9660   69.0380  226.1330 C   0  0  0  0  0  0  0  0  0  0  0  0
  140.4430   69.3710  227.3860 C   0  0  0  0  0  0  0  0  0  0  0  0
  140.3530   68.2720  228.7490 Cl  0  0  0  0  0  0  0  0  0  0  0  0
  141.0110   70.6320  227.5400 C   0  0  0  0  0  0  0  0  0  0  0  0
  141.1050   71.5330  226.4970 C   0  0  0  0  0  0  0  0  0  0  0  0
  140.6220   71.1830  225.2510 C   0  0  0  0  0  0  0  0  0  0  0  0
  140.7000   72.0390  224.2200 N   0  0  0  0  0  0  0  0  0  0  0  0
  139.5660   74.2990  222.9060 H   0  0  0  0  0  0  0  0  0  0  0  0
  140.0500   74.1474  219.8978 H   0  0  0  0  0  0  0  0  0  0  0  0
  139.0604   75.3999  220.7478 H   0  0  0  0  0  0  0  0  0  0  0  0
  141.4829   77.7960  218.9463 H   0  0  0  0  0  0  0  0  0  0  0  0
  143.0624   77.6760  219.7453 H   0  0  0  0  0  0  0  0  0  0  0  0
  142.5993   77.4832  216.9924 H   0  0  0  0  0  0  0  0  0  0  0  0
  144.0710   76.9370  217.7951 H   0  0  0  0  0  0  0  0  0  0  0  0
  141.6056   75.3497  216.9805 H   0  0  0  0  0  0  0  0  0  0  0  0
  143.2778   74.8525  216.8584 H   0  0  0  0  0  0  0  0  0  0  0  0
  141.7904   73.9407  218.8968 H   0  0  0  0  0  0  0  0  0  0  0  0
  143.2569   74.5838  221.4462 H   0  0  0  0  0  0  0  0  0  0  0  0
  146.9379   72.5716  220.7456 H   0  0  0  0  0  0  0  0  0  0  0  0
  144.4651   73.6357  217.4582 H   0  0  0  0  0  0  0  0  0  0  0  0
  139.2687   70.1665  221.8155 H   0  0  0  0  0  0  0  0  0  0  0  0
  139.0945   68.5375  223.6887 H   0  0  0  0  0  0  0  0  0  0  0  0
  139.5117   68.0484  225.9771 H   0  0  0  0  0  0  0  0  0  0  0  0
  141.3991   70.9218  228.5276 H   0  0  0  0  0  0  0  0  0  0  0  0
  141.5608   72.5212  226.6574 H   0  0  0  0  0  0  0  0  0  0  0  0
  1  2  2  0
  2  3  1  0
  3  4  1  0
  4  5  1  0
  5  6  2  0
  5  7  1  0
  7  8  1  0
  8  9  1  0
  9 10  1  0
 10 11  1  0
 11 12  1  0
 12 13  2  0
 13 14  1  0
 14 15  2  0
 15 16  1  0
 16 17  2  0
  2 18  1  0
 18 19  2  0
 19 20  1  0
 20 21  2  0
 21 22  1  0
 22 23  2  0
 23 24  1  0
 23 25  1  0
 25 26  2  0
 26 27  1  0
 27 28  2  0
 11  7  1  0
 17 12  1  0
 28 18  1  0
 27 21  1  0
  3 29  1  0
  4 30  1  0
  4 31  1  0
  8 32  1  0
  8 33  1  0
  9 34  1  0
  9 35  1  0
 10 36  1  0
 10 37  1  0
 11 38  1  6
 13 39  1  0
 15 40  1  0
 17 41  1  0
 19 42  1  0
 20 43  1  0
 22 44  1  0
 25 45  1  0
 26 46  1  0
M  END
>  <smiles>  (9) 
O=C(NCC(=O)N1CCC[C@H]1c1cncnc1)c1ccc2cc(Cl)ccc2n1

>  <score_type>  (9) 
oracle

>  <origin>  (9) 
autodockgpu

>  <m_score__min__energy>  (9) 
-8.1600000000000001

>  <m_primary>  (9) 
energy

>  <rmsd>  (9) 
2.3483944309802407

>  <m_score__min__rmsd>  (9) 
2.3483944309802407

>  <meeko>  (9) 
{"free_energy": -7.9, "intermolecular_energy": -9.39, "internal_energy": -1.45, "cluster_size": 20, "cluster_id": 2, "rank_in_cluster": 2}

>  <energy>  (9) 
-8.01

>  <cluster_rmsd>  (9) 
1.12

>  <cluster>  (9) 
1

$$$$

     RDKit          3D

 46 49  0  0  0  0  0  0  0  0999 V2000
  140.2090   71.9250  220.9170 O   0  0  0  0  0  0  0  0  0  0  0  0
  140.0080   72.3430  222.0960 C   0  0  0  0  0  0  0  0  0  0  0  0
  139.7240   73.7290  222.2390 N   0  0  0  0  0  0  0  0  0  0  0  0
  139.6810   74.5580  221.0530 C   0  0  0  0  0  0  0  0  0  0  0  0
  140.4460   75.8310  221.2560 C   0  0  0  0  0  0  0  0  0  0  0  0
  140.1800   76.5670  222.2680 O   0  0  0  0  0  0  0  0  0  0  0  0
  141.4470   76.1820  220.3150 N   0  0  0  0  0  0  0  0  0  0  0  0
  142.0140   77.5120  220.0940 C   0  0  0  0  0  0  0  0  0  0  0  0
  142.8680   77.4080  218.8780 C   0  0  0  0  0  0  0  0  0  0  0  0
  142.4710   76.1060  218.2380 C   0  0  0  0  0  0  0  0  0  0  0  0
  142.0760   75.2700  219.4130 C   0  0  1  0  0  0  0  0  0  0  0  0
  143.1700   74.4660  219.9930 C   0  0  0  0  0  0  0  0  0  0  0  0
  144.4260   75.0050  220.1680 C   0  0  0  0  0  0  0  0  0  0  0  0
  145.4380   74.2610  220.7020 N   0  0  0  0  0  0  0  0  0  0  0  0
  145.2370   72.9830  221.0740 C   0  0  0  0  0  0  0  0  0  0  0  0
  144.0200   72.4280  220.9150 N   0  0  0  0  0  0  0  0  0  0  0  0
  142.9950   73.1540  220.3820 C   0  0  0  0  0  0  0  0  0  0  0  0
  140.0620   71.4710  223.2620 C   0  0  0  0  0  0  0  0  0  0  0  0
  139.5770   70.1700  223.0980 C   0  0  0  0  0  0  0  0  0  0  0  0
  139.5840   69.2730  224.1350 C   0  0  0  0  0  0  0  0  0  0  0  0
  140.0910   69.7180  225.3450 C   0  0  0  0  0  0  0  0  0  0  0  0
  140.1180   68.8470  226.4190 C   0  0  0  0  0  0  0  0  0  0  0  0
  140.6110   69.2330  227.6510 C   0  0  0  0  0  0  0  0  0  0  0  0
  140.6560   68.1480  229.0280 Cl  0  0  0  0  0  0  0  0  0  0  0  0
  141.0830   70.5360  227.7710 C   0  0  0  0  0  0  0  0  0  0  0  0
  141.0690   71.4280  226.7160 C   0  0  0  0  0  0  0  0  0  0  0  0
  140.5720   71.0250  225.4920 C   0  0  0  0  0  0  0  0  0  0  0  0
  140.5460   71.8710  224.4500 N   0  0  0  0  0  0  0  0  0  0  0  0
  139.5510   74.1150  223.2100 H   0  0  0  0  0  0  0  0  0  0  0  0
  140.1223   74.0040  220.2113 H   0  0  0  0  0  0  0  0  0  0  0  0
  138.6316   74.8111  220.8417 H   0  0  0  0  0  0  0  0  0  0  0  0
  141.2108   78.2461  219.9332 H   0  0  0  0  0  0  0  0  0  0  0  0
  142.5980   77.8463  220.9642 H   0  0  0  0  0  0  0  0  0  0  0  0
  142.6750   78.2493  218.1962 H   0  0  0  0  0  0  0  0  0  0  0  0
  143.9404   77.4408  219.1205 H   0  0  0  0  0  0  0  0  0  0  0  0
  141.6259   76.2447  217.5477 H   0  0  0  0  0  0  0  0  0  0  0  0
  143.2703   75.6561  217.6308 H   0  0  0  0  0  0  0  0  0  0  0  0
  141.3822   74.4681  219.1202 H   0  0  0  0  0  0  0  0  0  0  0  0
  144.6154   76.0478  219.8737 H   0  0  0  0  0  0  0  0  0  0  0  0
  146.0612   72.3957  221.5050 H   0  0  0  0  0  0  0  0  0  0  0  0
  142.0083   72.6833  220.2599 H   0  0  0  0  0  0  0  0  0  0  0  0
  139.1825   69.8603  222.1190 H   0  0  0  0  0  0  0  0  0  0  0  0
  139.2047   68.2478  224.0119 H   0  0  0  0  0  0  0  0  0  0  0  0
  139.7381   67.8228  226.2895 H   0  0  0  0  0  0  0  0  0  0  0  0
  141.4818   70.8682  228.7409 H   0  0  0  0  0  0  0  0  0  0  0  0
  141.4506   72.4510  226.8498 H   0  0  0  0  0  0  0  0  0  0  0  0
  1  2  2  0
  2  3  1  0
  3  4  1  0
  4  5  1  0
  5  6  2  0
  5  7  1  0
  7  8  1  0
  8  9  1  0
  9 10  1  0
 10 11  1  0
 11 12  1  0
 12 13  2  0
 13 14  1  0
 14 15  2  0
 15 16  1  0
 16 17  2  0
  2 18  1  0
 18 19  2  0
 19 20  1  0
 20 21  2  0
 21 22  1  0
 22 23  2  0
 23 24  1  0
 23 25  1  0
 25 26  2  0
 26 27  1  0
 27 28  2  0
 11  7  1  0
 17 12  1  0
 28 18  1  0
 27 21  1  0
  3 29  1  0
  4 30  1  0
  4 31  1  0
  8 32  1  0
  8 33  1  0
  9 34  1  0
  9 35  1  0
 10 36  1  0
 10 37  1  0
 11 38  1  6
 13 39  1  0
 15 40  1  0
 17 41  1  0
 19 42  1  0
 20 43  1  0
 22 44  1  0
 25 45  1  0
 26 46  1  0
M  END
>  <smiles>  (10) 
O=C(NCC(=O)N1CCC[C@H]1c1cncnc1)c1ccc2cc(Cl)ccc2n1

>  <score_type>  (10) 
oracle

>  <origin>  (10) 
autodockgpu

>  <m_score__min__energy>  (10) 
-8.1600000000000001

>  <m_primary>  (10) 
energy

>  <rmsd>  (10) 
2.1845572611520856

>  <m_score__min__rmsd>  (10) 
2.1845572611520856

>  <meeko>  (10) 
{"free_energy": -7.83, "intermolecular_energy": -9.32, "internal_energy": -1.54, "cluster_size": 20, "cluster_id": 2, "rank_in_cluster": 11}

>  <energy>  (10) 
-7.99

>  <cluster_rmsd>  (10) 
0.75

>  <cluster>  (10) 
1

$$$$

     RDKit          3D

 46 49  0  0  0  0  0  0  0  0999 V2000
  140.9510   73.4530  221.9830 O   0  0  0  0  0  0  0  0  0  0  0  0
  139.9420   72.8540  222.4600 C   0  0  0  0  0  0  0  0  0  0  0  0
  138.6830   73.1640  221.8750 N   0  0  0  0  0  0  0  0  0  0  0  0
  138.6350   74.1260  220.7940 C   0  0  0  0  0  0  0  0  0  0  0  0
  139.1320   75.4670  221.2420 C   0  0  0  0  0  0  0  0  0  0  0  0
  138.6460   75.9930  222.3010 O   0  0  0  0  0  0  0  0  0  0  0  0
  140.1320   76.1150  220.4730 N   0  0  0  0  0  0  0  0  0  0  0  0
  140.0460   76.4920  219.0630 C   0  0  0  0  0  0  0  0  0  0  0  0
  141.4070   76.9500  218.6660 C   0  0  0  0  0  0  0  0  0  0  0  0
  142.3110   76.4760  219.7700 C   0  0  0  0  0  0  0  0  0  0  0  0
  141.4130   76.5100  220.9660 C   0  0  1  0  0  0  0  0  0  0  0  0
  141.4340   77.7830  221.7140 C   0  0  0  0  0  0  0  0  0  0  0  0
  141.0790   77.8250  223.0450 C   0  0  0  0  0  0  0  0  0  0  0  0
  141.0980   79.0020  223.7360 N   0  0  0  0  0  0  0  0  0  0  0  0
  141.4620   80.1520  223.1380 C   0  0  0  0  0  0  0  0  0  0  0  0
  141.8140   80.1420  221.8380 N   0  0  0  0  0  0  0  0  0  0  0  0
  141.8030   78.9770  221.1290 C   0  0  0  0  0  0  0  0  0  0  0  0
  140.0370   71.8920  223.5500 C   0  0  0  0  0  0  0  0  0  0  0  0
  139.5860   70.5960  223.2870 C   0  0  0  0  0  0  0  0  0  0  0  0
  139.6330   69.6180  224.2480 C   0  0  0  0  0  0  0  0  0  0  0  0
  140.1470   69.9770  225.4820 C   0  0  0  0  0  0  0  0  0  0  0  0
  140.2140   69.0240  226.4810 C   0  0  0  0  0  0  0  0  0  0  0  0
  140.7150   69.3220  227.7340 C   0  0  0  0  0  0  0  0  0  0  0  0
  140.8110   68.1310  229.0170 Cl  0  0  0  0  0  0  0  0  0  0  0  0
  141.1540   70.6240  227.9540 C   0  0  0  0  0  0  0  0  0  0  0  0
  141.0990   71.5980  226.9750 C   0  0  0  0  0  0  0  0  0  0  0  0
  140.5940   71.2810  225.7300 C   0  0  0  0  0  0  0  0  0  0  0  0
  140.5290   72.2080  224.7600 N   0  0  0  0  0  0  0  0  0  0  0  0
  137.8160   72.6830  222.2480 H   0  0  0  0  0  0  0  0  0  0  0  0
  139.2646   73.7678  219.9662 H   0  0  0  0  0  0  0  0  0  0  0  0
  137.5900   74.2322  220.4673 H   0  0  0  0  0  0  0  0  0  0  0  0
  139.7438   75.6262  218.4555 H   0  0  0  0  0  0  0  0  0  0  0  0
  139.2978   77.2831  218.9068 H   0  0  0  0  0  0  0  0  0  0  0  0
  141.7013   76.5021  217.7054 H   0  0  0  0  0  0  0  0  0  0  0  0
  141.4543   78.0407  218.5310 H   0  0  0  0  0  0  0  0  0  0  0  0
  142.6742   75.4561  219.5753 H   0  0  0  0  0  0  0  0  0  0  0  0
  143.2171   77.0887  219.8863 H   0  0  0  0  0  0  0  0  0  0  0  0
  141.7595   75.8194  221.7490 H   0  0  0  0  0  0  0  0  0  0  0  0
  140.7768   76.8992  223.5565 H   0  0  0  0  0  0  0  0  0  0  0  0
  141.4719   81.0932  223.7072 H   0  0  0  0  0  0  0  0  0  0  0  0
  142.0944   78.9895  220.0684 H   0  0  0  0  0  0  0  0  0  0  0  0
  139.1859   70.3554  222.2910 H   0  0  0  0  0  0  0  0  0  0  0  0
  139.2787   68.5962  224.0472 H   0  0  0  0  0  0  0  0  0  0  0  0
  139.8599   68.0034  226.2736 H   0  0  0  0  0  0  0  0  0  0  0  0
  141.5592   70.8874  228.9422 H   0  0  0  0  0  0  0  0  0  0  0  0
  141.4547   72.6173  227.1861 H   0  0  0  0  0  0  0  0  0  0  0  0
  1  2  2  0
  2  3  1  0
  3  4  1  0
  4  5  1  0
  5  6  2  0
  5  7  1  0
  7  8  1  0
  8  9  1  0
  9 10  1  0
 10 11  1  0
 11 12  1  0
 12 13  2  0
 13 14  1  0
 14 15  2  0
 15 16  1  0
 16 17  2  0
  2 18  1  0
 18 19  2  0
 19 20  1  0
 20 21  2  0
 21 22  1  0
 22 23  2  0
 23 24  1  0
 23 25  1  0
 25 26  2  0
 26 27  1  0
 27 28  2  0
 11  7  1  0
 17 12  1  0
 28 18  1  0
 27 21  1  0
  3 29  1  0
  4 30  1  0
  4 31  1  0
  8 32  1  0
  8 33  1  0
  9 34  1  0
  9 35  1  0
 10 36  1  0
 10 37  1  0
 11 38  1  1
 13 39  1  0
 15 40  1  0
 17 41  1  0
 19 42  1  0
 20 43  1  0
 22 44  1  0
 25 45  1  0
 26 46  1  0
M  END
>  <smiles>  (11) 
O=C(NCC(=O)N1CCC[C@H]1c1cncnc1)c1ccc2cc(Cl)ccc2n1

>  <score_type>  (11) 
oracle

>  <origin>  (11) 
autodockgpu

>  <m_score__min__energy>  (11) 
-8.1600000000000001

>  <m_primary>  (11) 
energy

>  <rmsd>  (11) 
1.5967497894086082

>  <m_score__min__rmsd>  (11) 
1.5967497894086082

>  <meeko>  (11) 
{"free_energy": -7.45, "intermolecular_energy": -8.94, "internal_energy": -1.18, "cluster_size": 18, "cluster_id": 1, "rank_in_cluster": 18}

>  <energy>  (11) 
-7.97

>  <cluster_rmsd>  (11) 
0.3

>  <cluster>  (11) 
1

$$$$

     RDKit          3D

 46 49  0  0  0  0  0  0  0  0999 V2000
  139.0760   76.3890  222.7390 O   0  0  0  0  0  0  0  0  0  0  0  0
  139.8200   76.7690  221.7870 C   0  0  0  0  0  0  0  0  0  0  0  0
  139.5570   78.0590  221.2490 N   0  0  0  0  0  0  0  0  0  0  0  0
  138.4780   78.8420  221.8140 C   0  0  0  0  0  0  0  0  0  0  0  0
  138.9450   79.6280  223.0010 C   0  0  0  0  0  0  0  0  0  0  0  0
  138.0900   80.0320  223.8620 O   0  0  0  0  0  0  0  0  0  0  0  0
  140.3300   79.9020  223.1340 N   0  0  0  0  0  0  0  0  0  0  0  0
  141.3310   79.0570  223.7850 C   0  0  0  0  0  0  0  0  0  0  0  0
  142.5840   79.8600  223.8470 C   0  0  0  0  0  0  0  0  0  0  0  0
  142.1530   81.2710  223.5530 C   0  0  0  0  0  0  0  0  0  0  0  0
  140.9830   81.0730  222.6420 C   0  0  1  0  0  0  0  0  0  0  0  0
  141.3210   81.0480  221.2050 C   0  0  0  0  0  0  0  0  0  0  0  0
  141.8410   79.9140  220.6210 C   0  0  0  0  0  0  0  0  0  0  0  0
  142.1530   79.8910  219.2930 N   0  0  0  0  0  0  0  0  0  0  0  0
  141.9620   80.9750  218.5170 C   0  0  0  0  0  0  0  0  0  0  0  0
  141.4550   82.0990  219.0590 N   0  0  0  0  0  0  0  0  0  0  0  0
  141.1360   82.1420  220.3850 C   0  0  0  0  0  0  0  0  0  0  0  0
  140.8960   75.9460  221.2490 C   0  0  0  0  0  0  0  0  0  0  0  0
  141.8570   76.5980  220.4700 C   0  0  0  0  0  0  0  0  0  0  0  0
  142.9090   75.9120  219.9190 C   0  0  0  0  0  0  0  0  0  0  0  0
  142.9710   74.5520  220.1720 C   0  0  0  0  0  0  0  0  0  0  0  0
  144.0150   73.8200  219.6370 C   0  0  0  0  0  0  0  0  0  0  0  0
  144.1310   72.4600  219.8530 C   0  0  0  0  0  0  0  0  0  0  0  0
  145.4450   71.5100  219.1850 Cl  0  0  0  0  0  0  0  0  0  0  0  0
  143.1540   71.8510  220.6340 C   0  0  0  0  0  0  0  0  0  0  0  0
  142.1000   72.5570  221.1820 C   0  0  0  0  0  0  0  0  0  0  0  0
  142.0000   73.9150  220.9540 C   0  0  0  0  0  0  0  0  0  0  0  0
  140.9860   74.6250  221.4740 N   0  0  0  0  0  0  0  0  0  0  0  0
  140.1580   78.4100  220.4510 H   0  0  0  0  0  0  0  0  0  0  0  0
  138.0999   79.5367  221.0495 H   0  0  0  0  0  0  0  0  0  0  0  0
  137.6827   78.1558  222.1407 H   0  0  0  0  0  0  0  0  0  0  0  0
  141.0006   78.7887  224.7993 H   0  0  0  0  0  0  0  0  0  0  0  0
  141.4848   78.1207  223.2286 H   0  0  0  0  0  0  0  0  0  0  0  0
  143.0371   79.7940  224.8472 H   0  0  0  0  0  0  0  0  0  0  0  0
  143.3420   79.5012  223.1352 H   0  0  0  0  0  0  0  0  0  0  0  0
  141.8553   81.7950  224.4732 H   0  0  0  0  0  0  0  0  0  0  0  0
  142.9498   81.8887  223.1131 H   0  0  0  0  0  0  0  0  0  0  0  0
  140.3034   81.9376  222.6664 H   0  0  0  0  0  0  0  0  0  0  0  0
  142.0069   79.0153  221.2333 H   0  0  0  0  0  0  0  0  0  0  0  0
  142.2183   80.9427  217.4478 H   0  0  0  0  0  0  0  0  0  0  0  0
  140.7225   83.0688  220.8093 H   0  0  0  0  0  0  0  0  0  0  0  0
  141.7676   77.6805  220.2960 H   0  0  0  0  0  0  0  0  0  0  0  0
  143.6681   76.4185  219.3048 H   0  0  0  0  0  0  0  0  0  0  0  0
  144.7715   74.3326  219.0247 H   0  0  0  0  0  0  0  0  0  0  0  0
  143.2229   70.7694  220.8220 H   0  0  0  0  0  0  0  0  0  0  0  0
  141.3465   72.0410  221.7952 H   0  0  0  0  0  0  0  0  0  0  0  0
  1  2  2  0
  2  3  1  0
  3  4  1  0
  4  5  1  0
  5  6  2  0
  5  7  1  0
  7  8  1  0
  8  9  1  0
  9 10  1  0
 10 11  1  0
 11 12  1  0
 12 13  2  0
 13 14  1  0
 14 15  2  0
 15 16  1  0
 16 17  2  0
  2 18  1  0
 18 19  2  0
 19 20  1  0
 20 21  2  0
 21 22  1  0
 22 23  2  0
 23 24  1  0
 23 25  1  0
 25 26  2  0
 26 27  1  0
 27 28  2  0
 11  7  1  0
 17 12  1  0
 28 18  1  0
 27 21  1  0
  3 29  1  0
  4 30  1  0
  4 31  1  0
  8 32  1  0
  8 33  1  0
  9 34  1  0
  9 35  1  0
 10 36  1  0
 10 37  1  0
 11 38  1  6
 13 39  1  0
 15 40  1  0
 17 41  1  0
 19 42  1  0
 20 43  1  0
 22 44  1  0
 25 45  1  0
 26 46  1  0
M  END
>  <smiles>  (12) 
O=C(NCC(=O)N1CCC[C@H]1c1cncnc1)c1ccc2cc(Cl)ccc2n1

>  <score_type>  (12) 
oracle

>  <origin>  (12) 
autodockgpu

>  <m_score__min__energy>  (12) 
-8.1600000000000001

>  <m_primary>  (12) 
energy

>  <rmsd>  (12) 
7.230341850559115

>  <m_score__min__rmsd>  (12) 
7.230341850559115

>  <meeko>  (12) 
{"free_energy": -6.61, "intermolecular_energy": -8.1, "internal_energy": -1.76, "cluster_size": 1, "cluster_id": 8, "rank_in_cluster": 1}

>  <energy>  (12) 
-7.97

>  <cluster_rmsd>  (12) 
0.78

>  <cluster>  (12) 
1

$$$$

     RDKit          3D

 46 49  0  0  0  0  0  0  0  0999 V2000
  140.1490   72.4220  220.8440 O   0  0  0  0  0  0  0  0  0  0  0  0
  139.9110   72.7540  222.0430 C   0  0  0  0  0  0  0  0  0  0  0  0
  139.5510   74.1120  222.2670 N   0  0  0  0  0  0  0  0  0  0  0  0
  139.4800   75.0100  221.1340 C   0  0  0  0  0  0  0  0  0  0  0  0
  139.7610   76.4230  221.5470 C   0  0  0  0  0  0  0  0  0  0  0  0
  139.4350   76.8090  222.7220 O   0  0  0  0  0  0  0  0  0  0  0  0
  140.3850   77.2930  220.6170 N   0  0  0  0  0  0  0  0  0  0  0  0
  139.8180   77.7870  219.3620 C   0  0  0  0  0  0  0  0  0  0  0  0
  140.9200   78.4920  218.6510 C   0  0  0  0  0  0  0  0  0  0  0  0
  142.1750   78.0640  219.3620 C   0  0  0  0  0  0  0  0  0  0  0  0
  141.6980   77.8390  220.7620 C   0  0  1  0  0  0  0  0  0  0  0  0
  141.7940   79.0200  221.6420 C   0  0  0  0  0  0  0  0  0  0  0  0
  141.8770   78.8760  223.0100 C   0  0  0  0  0  0  0  0  0  0  0  0
  141.9650   79.9680  223.8240 N   0  0  0  0  0  0  0  0  0  0  0  0
  141.9750   81.2140  223.3130 C   0  0  0  0  0  0  0  0  0  0  0  0
  141.8950   81.3860  221.9800 N   0  0  0  0  0  0  0  0  0  0  0  0
  141.8060   80.3080  221.1490 C   0  0  0  0  0  0  0  0  0  0  0  0
  139.9950   71.8150  223.1540 C   0  0  0  0  0  0  0  0  0  0  0  0
  139.5410   70.5150  222.9140 C   0  0  0  0  0  0  0  0  0  0  0  0
  139.5770   69.5570  223.8950 C   0  0  0  0  0  0  0  0  0  0  0  0
  140.0840   69.9400  225.1250 C   0  0  0  0  0  0  0  0  0  0  0  0
  140.1410   69.0070  226.1440 C   0  0  0  0  0  0  0  0  0  0  0  0
  140.6340   69.3290  227.3940 C   0  0  0  0  0  0  0  0  0  0  0  0
  140.7160   68.1640  228.7020 Cl  0  0  0  0  0  0  0  0  0  0  0  0
  141.0760   70.6340  227.5900 C   0  0  0  0  0  0  0  0  0  0  0  0
  141.0320   71.5870  226.5910 C   0  0  0  0  0  0  0  0  0  0  0  0
  140.5340   71.2470  225.3490 C   0  0  0  0  0  0  0  0  0  0  0  0
  140.4800   72.1530  224.3600 N   0  0  0  0  0  0  0  0  0  0  0  0
  139.3450   74.4270  223.2570 H   0  0  0  0  0  0  0  0  0  0  0  0
  140.2223   74.7007  220.3834 H   0  0  0  0  0  0  0  0  0  0  0  0
  138.4640   74.9640  220.7149 H   0  0  0  0  0  0  0  0  0  0  0  0
  139.4494   76.9473  218.7546 H   0  0  0  0  0  0  0  0  0  0  0  0
  138.9678   78.4602  219.5464 H   0  0  0  0  0  0  0  0  0  0  0  0
  140.9527   78.1917  217.5933 H   0  0  0  0  0  0  0  0  0  0  0  0
  140.7889   79.5841  218.6631 H   0  0  0  0  0  0  0  0  0  0  0  0
  142.5813   77.1387  218.9276 H   0  0  0  0  0  0  0  0  0  0  0  0
  142.9899   78.7994  219.2909 H   0  0  0  0  0  0  0  0  0  0  0  0
  142.3541   77.1413  221.3031 H   0  0  0  0  0  0  0  0  0  0  0  0
  141.8723   77.8685  223.4514 H   0  0  0  0  0  0  0  0  0  0  0  0
  142.0481   82.0854  223.9803 H   0  0  0  0  0  0  0  0  0  0  0  0
  141.7424   80.4693  220.0628 H   0  0  0  0  0  0  0  0  0  0  0  0
  139.1476   70.2554  221.9201 H   0  0  0  0  0  0  0  0  0  0  0  0
  139.2198   68.5326  223.7130 H   0  0  0  0  0  0  0  0  0  0  0  0
  139.7852   67.9835  225.9549 H   0  0  0  0  0  0  0  0  0  0  0  0
  141.4746   70.9166  228.5755 H   0  0  0  0  0  0  0  0  0  0  0  0
  141.3909   72.6088  226.7835 H   0  0  0  0  0  0  0  0  0  0  0  0
  1  2  2  0
  2  3  1  0
  3  4  1  0
  4  5  1  0
  5  6  2  0
  5  7  1  0
  7  8  1  0
  8  9  1  0
  9 10  1  0
 10 11  1  0
 11 12  1  0
 12 13  2  0
 13 14  1  0
 14 15  2  0
 15 16  1  0
 16 17  2  0
  2 18  1  0
 18 19  2  0
 19 20  1  0
 20 21  2  0
 21 22  1  0
 22 23  2  0
 23 24  1  0
 23 25  1  0
 25 26  2  0
 26 27  1  0
 27 28  2  0
 11  7  1  0
 17 12  1  0
 28 18  1  0
 27 21  1  0
  3 29  1  0
  4 30  1  0
  4 31  1  0
  8 32  1  0
  8 33  1  0
  9 34  1  0
  9 35  1  0
 10 36  1  0
 10 37  1  0
 11 38  1  1
 13 39  1  0
 15 40  1  0
 17 41  1  0
 19 42  1  0
 20 43  1  0
 22 44  1  0
 25 45  1  0
 26 46  1  0
M  END
>  <smiles>  (13) 
O=C(NCC(=O)N1CCC[C@H]1c1cncnc1)c1ccc2cc(Cl)ccc2n1

>  <score_type>  (13) 
oracle

>  <origin>  (13) 
autodockgpu

>  <m_score__min__energy>  (13) 
-8.1600000000000001

>  <m_primary>  (13) 
energy

>  <rmsd>  (13) 
1.8469057585447126

>  <m_score__min__rmsd>  (13) 
1.8469057585447126

>  <meeko>  (13) 
{"free_energy": -8.08, "intermolecular_energy": -9.57, "internal_energy": -1.4, "cluster_size": 18, "cluster_id": 1, "rank_in_cluster": 4}

>  <energy>  (13) 
-7.96

>  <cluster_rmsd>  (13) 
0.76

>  <cluster>  (13) 
1

$$$$

     RDKit          3D

 46 49  0  0  0  0  0  0  0  0999 V2000
  139.0040   70.8820  221.1100 O   0  0  0  0  0  0  0  0  0  0  0  0
  139.0950   71.5960  222.1520 C   0  0  0  0  0  0  0  0  0  0  0  0
  138.6940   72.9550  222.0280 N   0  0  0  0  0  0  0  0  0  0  0  0
  138.2170   73.4260  220.7450 C   0  0  0  0  0  0  0  0  0  0  0  0
  139.3370   74.0010  219.9310 C   0  0  0  0  0  0  0  0  0  0  0  0
  139.5020   73.6070  218.7260 O   0  0  0  0  0  0  0  0  0  0  0  0
  140.1830   74.9720  220.5260 N   0  0  0  0  0  0  0  0  0  0  0  0
  139.9410   75.6990  221.7720 C   0  0  0  0  0  0  0  0  0  0  0  0
  141.0030   76.7390  221.8650 C   0  0  0  0  0  0  0  0  0  0  0  0
  141.6010   76.8040  220.4860 C   0  0  0  0  0  0  0  0  0  0  0  0
  141.4350   75.4030  219.9900 C   0  0  1  0  0  0  0  0  0  0  0  0
  142.5790   74.5120  220.2690 C   0  0  0  0  0  0  0  0  0  0  0  0
  143.8740   74.9520  220.1020 C   0  0  0  0  0  0  0  0  0  0  0  0
  144.9310   74.1280  220.3590 N   0  0  0  0  0  0  0  0  0  0  0  0
  144.7380   72.8650  220.7820 C   0  0  0  0  0  0  0  0  0  0  0  0
  143.4830   72.4060  220.9550 N   0  0  0  0  0  0  0  0  0  0  0  0
  142.4130   73.2130  220.7040 C   0  0  0  0  0  0  0  0  0  0  0  0
  139.5820   71.0780  223.4240 C   0  0  0  0  0  0  0  0  0  0  0  0
  140.4440   71.9050  224.1510 C   0  0  0  0  0  0  0  0  0  0  0  0
  140.9570   71.5080  225.3590 C   0  0  0  0  0  0  0  0  0  0  0  0
  140.5800   70.2590  225.8210 C   0  0  0  0  0  0  0  0  0  0  0  0
  141.0720   69.8180  227.0360 C   0  0  0  0  0  0  0  0  0  0  0  0
  140.7320   68.5800  227.5480 C   0  0  0  0  0  0  0  0  0  0  0  0
  141.3440   67.9990  229.0850 Cl  0  0  0  0  0  0  0  0  0  0  0  0
  139.8710   67.7900  226.7930 C   0  0  0  0  0  0  0  0  0  0  0  0
  139.3640   68.2040  225.5770 C   0  0  0  0  0  0  0  0  0  0  0  0
  139.7150   69.4430  225.0800 C   0  0  0  0  0  0  0  0  0  0  0  0
  139.2360   69.8700  223.9010 N   0  0  0  0  0  0  0  0  0  0  0  0
  138.7560   73.5830  222.8790 H   0  0  0  0  0  0  0  0  0  0  0  0
  137.7699   72.5837  220.1966 H   0  0  0  0  0  0  0  0  0  0  0  0
  137.4700   74.2147  220.9179 H   0  0  0  0  0  0  0  0  0  0  0  0
  138.9475   76.1706  221.7505 H   0  0  0  0  0  0  0  0  0  0  0  0
  139.9675   75.0233  222.6396 H   0  0  0  0  0  0  0  0  0  0  0  0
  140.5701   77.7105  222.1456 H   0  0  0  0  0  0  0  0  0  0  0  0
  141.7539   76.4974  222.6316 H   0  0  0  0  0  0  0  0  0  0  0  0
  141.0557   77.5172  219.8503 H   0  0  0  0  0  0  0  0  0  0  0  0
  142.6455   77.1490  220.4787 H   0  0  0  0  0  0  0  0  0  0  0  0
  141.4236   75.3641  218.8908 H   0  0  0  0  0  0  0  0  0  0  0  0
  144.0581   75.9802  219.7573 H   0  0  0  0  0  0  0  0  0  0  0  0
  145.5993   72.2116  220.9852 H   0  0  0  0  0  0  0  0  0  0  0  0
  141.3961   72.8203  220.8513 H   0  0  0  0  0  0  0  0  0  0  0  0
  140.7153   72.8914  223.7467 H   0  0  0  0  0  0  0  0  0  0  0  0
  141.6372   72.1528  225.9347 H   0  0  0  0  0  0  0  0  0  0  0  0
  141.7501   70.4680  227.6085 H   0  0  0  0  0  0  0  0  0  0  0  0
  139.5839   66.8005  227.1783 H   0  0  0  0  0  0  0  0  0  0  0  0
  138.6853   67.5511  225.0086 H   0  0  0  0  0  0  0  0  0  0  0  0
  1  2  2  0
  2  3  1  0
  3  4  1  0
  4  5  1  0
  5  6  2  0
  5  7  1  0
  7  8  1  0
  8  9  1  0
  9 10  1  0
 10 11  1  0
 11 12  1  0
 12 13  2  0
 13 14  1  0
 14 15  2  0
 15 16  1  0
 16 17  2  0
  2 18  1  0
 18 19  2  0
 19 20  1  0
 20 21  2  0
 21 22  1  0
 22 23  2  0
 23 24  1  0
 23 25  1  0
 25 26  2  0
 26 27  1  0
 27 28  2  0
 11  7  1  0
 17 12  1  0
 28 18  1  0
 27 21  1  0
  3 29  1  0
  4 30  1  0
  4 31  1  0
  8 32  1  0
  8 33  1  0
  9 34  1  0
  9 35  1  0
 10 36  1  0
 10 37  1  0
 11 38  1  6
 13 39  1  0
 15 40  1  0
 17 41  1  0
 19 42  1  0
 20 43  1  0
 22 44  1  0
 25 45  1  0
 26 46  1  0
M  END
>  <smiles>  (14) 
O=C(NCC(=O)N1CCC[C@H]1c1cncnc1)c1ccc2cc(Cl)ccc2n1

>  <score_type>  (14) 
oracle

>  <origin>  (14) 
autodockgpu

>  <m_score__min__energy>  (14) 
-8.1600000000000001

>  <m_primary>  (14) 
energy

>  <rmsd>  (14) 
3.007342777038308

>  <m_score__min__rmsd>  (14) 
3.007342777038308

>  <meeko>  (14) 
{"free_energy": -7.24, "intermolecular_energy": -8.73, "internal_energy": -1.43, "cluster_size": 20, "cluster_id": 2, "rank_in_cluster": 19}

>  <energy>  (14) 
-7.91

>  <cluster_rmsd>  (14) 
0.48

>  <cluster>  (14) 
1

$$$$

     RDKit          3D

 46 49  0  0  0  0  0  0  0  0999 V2000
  140.9000   72.3710  220.7540 O   0  0  0  0  0  0  0  0  0  0  0  0
  140.3390   72.7070  221.8390 C   0  0  0  0  0  0  0  0  0  0  0  0
  139.7770   74.0130  221.8850 N   0  0  0  0  0  0  0  0  0  0  0  0
  139.8790   74.8580  220.7130 C   0  0  0  0  0  0  0  0  0  0  0  0
  141.0880   75.7420  220.7890 C   0  0  0  0  0  0  0  0  0  0  0  0
  141.3700   76.3230  221.8930 O   0  0  0  0  0  0  0  0  0  0  0  0
  141.8850   75.9060  219.6290 N   0  0  0  0  0  0  0  0  0  0  0  0
  142.3080   77.1710  219.0280 C   0  0  0  0  0  0  0  0  0  0  0  0
  142.9470   76.8260  217.7270 C   0  0  0  0  0  0  0  0  0  0  0  0
  142.5420   75.4020  217.4640 C   0  0  0  0  0  0  0  0  0  0  0  0
  142.4140   74.8370  218.8430 C   0  0  1  0  0  0  0  0  0  0  0  0
  143.6470   74.2190  219.3700 C   0  0  0  0  0  0  0  0  0  0  0  0
  143.9330   74.2520  220.7180 C   0  0  0  0  0  0  0  0  0  0  0  0
  145.0720   73.6820  221.2050 N   0  0  0  0  0  0  0  0  0  0  0  0
  145.9470   73.0710  220.3840 C   0  0  0  0  0  0  0  0  0  0  0  0
  145.6960   73.0220  219.0620 N   0  0  0  0  0  0  0  0  0  0  0  0
  144.5620   73.5860  218.5550 C   0  0  0  0  0  0  0  0  0  0  0  0
  140.2600   71.8230  222.9940 C   0  0  0  0  0  0  0  0  0  0  0  0
  139.6920   70.5630  222.7840 C   0  0  0  0  0  0  0  0  0  0  0  0
  139.5710   69.6590  223.8080 C   0  0  0  0  0  0  0  0  0  0  0  0
  140.0380   70.0530  225.0510 C   0  0  0  0  0  0  0  0  0  0  0  0
  139.9380   69.1730  226.1130 C   0  0  0  0  0  0  0  0  0  0  0  0
  140.3840   69.5100  227.3760 C   0  0  0  0  0  0  0  0  0  0  0  0
  140.2680   68.4120  228.7390 Cl  0  0  0  0  0  0  0  0  0  0  0  0
  140.9430   70.7740  227.5410 C   0  0  0  0  0  0  0  0  0  0  0  0
  141.0560   71.6730  226.4990 C   0  0  0  0  0  0  0  0  0  0  0  0
  140.6030   71.3200  225.2440 C   0  0  0  0  0  0  0  0  0  0  0  0
  140.7010   72.1750  224.2130 N   0  0  0  0  0  0  0  0  0  0  0  0
  139.3000   74.3300  222.7760 H   0  0  0  0  0  0  0  0  0  0  0  0
  139.9537   74.2233  219.8177 H   0  0  0  0  0  0  0  0  0  0  0  0
  138.9832   75.4944  220.6618 H   0  0  0  0  0  0  0  0  0  0  0  0
  141.4380   77.8236  218.8632 H   0  0  0  0  0  0  0  0  0  0  0  0
  143.0065   77.7105  219.6846 H   0  0  0  0  0  0  0  0  0  0  0  0
  142.5799   77.4869  216.9280 H   0  0  0  0  0  0  0  0  0  0  0  0
  144.0399   76.9474  217.7568 H   0  0  0  0  0  0  0  0  0  0  0  0
  141.5840   75.3550  216.9255 H   0  0  0  0  0  0  0  0  0  0  0  0
  143.2568   74.8543  216.8323 H   0  0  0  0  0  0  0  0  0  0  0  0
  141.7387   73.9688  218.8611 H   0  0  0  0  0  0  0  0  0  0  0  0
  143.2336   74.7444  221.4096 H   0  0  0  0  0  0  0  0  0  0  0  0
  146.8614   72.6146  220.7908 H   0  0  0  0  0  0  0  0  0  0  0  0
  144.3733   73.5348  217.4725 H   0  0  0  0  0  0  0  0  0  0  0  0
  139.3357   70.2918  221.7792 H   0  0  0  0  0  0  0  0  0  0  0  0
  139.1237   68.6666  223.6495 H   0  0  0  0  0  0  0  0  0  0  0  0
  139.4926   68.1808  225.9480 H   0  0  0  0  0  0  0  0  0  0  0  0
  141.3076   71.0671  228.5366 H   0  0  0  0  0  0  0  0  0  0  0  0
  141.5039   72.6634  226.6680 H   0  0  0  0  0  0  0  0  0  0  0  0
  1  2  2  0
  2  3  1  0
  3  4  1  0
  4  5  1  0
  5  6  2  0
  5  7  1  0
  7  8  1  0
  8  9  1  0
  9 10  1  0
 10 11  1  0
 11 12  1  0
 12 13  2  0
 13 14  1  0
 14 15  2  0
 15 16  1  0
 16 17  2  0
  2 18  1  0
 18 19  2  0
 19 20  1  0
 20 21  2  0
 21 22  1  0
 22 23  2  0
 23 24  1  0
 23 25  1  0
 25 26  2  0
 26 27  1  0
 27 28  2  0
 11  7  1  0
 17 12  1  0
 28 18  1  0
 27 21  1  0
  3 29  1  0
  4 30  1  0
  4 31  1  0
  8 32  1  0
  8 33  1  0
  9 34  1  0
  9 35  1  0
 10 36  1  0
 10 37  1  0
 11 38  1  6
 13 39  1  0
 15 40  1  0
 17 41  1  0
 19 42  1  0
 20 43  1  0
 22 44  1  0
 25 45  1  0
 26 46  1  0
M  END
>  <smiles>  (15) 
O=C(NCC(=O)N1CCC[C@H]1c1cncnc1)c1ccc2cc(Cl)ccc2n1

>  <score_type>  (15) 
oracle

>  <origin>  (15) 
autodockgpu

>  <m_score__min__energy>  (15) 
-8.1600000000000001

>  <m_primary>  (15) 
energy

>  <rmsd>  (15) 
2.362883290826391

>  <m_score__min__rmsd>  (15) 
2.362883290826391

>  <meeko>  (15) 
{"free_energy": -7.87, "intermolecular_energy": -9.36, "internal_energy": -1.44, "cluster_size": 20, "cluster_id": 2, "rank_in_cluster": 3}

>  <energy>  (15) 
-7.89

>  <cluster_rmsd>  (15) 
0.79

>  <cluster>  (15) 
1

$$$$

     RDKit          3D

 46 49  0  0  0  0  0  0  0  0999 V2000
  140.4490   72.0320  220.9660 O   0  0  0  0  0  0  0  0  0  0  0  0
  140.1060   72.4170  222.1220 C   0  0  0  0  0  0  0  0  0  0  0  0
  139.7020   73.7750  222.2470 N   0  0  0  0  0  0  0  0  0  0  0  0
  139.7070   74.6140  221.0670 C   0  0  0  0  0  0  0  0  0  0  0  0
  140.6540   75.7650  221.2280 C   0  0  0  0  0  0  0  0  0  0  0  0
  140.5850   76.4920  222.2770 O   0  0  0  0  0  0  0  0  0  0  0  0
  141.6040   76.0130  220.2040 N   0  0  0  0  0  0  0  0  0  0  0  0
  142.1430   77.3130  219.8060 C   0  0  0  0  0  0  0  0  0  0  0  0
  142.9380   77.0780  218.5680 C   0  0  0  0  0  0  0  0  0  0  0  0
  142.5270   75.7090  218.1000 C   0  0  0  0  0  0  0  0  0  0  0  0
  142.1990   75.0090  219.3810 C   0  0  1  0  0  0  0  0  0  0  0  0
  143.3310   74.2830  219.9920 C   0  0  0  0  0  0  0  0  0  0  0  0
  143.2390   72.9370  220.2690 C   0  0  0  0  0  0  0  0  0  0  0  0
  144.2840   72.2670  220.8350 N   0  0  0  0  0  0  0  0  0  0  0  0
  145.4330   72.9020  221.1370 C   0  0  0  0  0  0  0  0  0  0  0  0
  145.5520   74.2190  220.8780 N   0  0  0  0  0  0  0  0  0  0  0  0
  144.5190   74.9060  220.3130 C   0  0  0  0  0  0  0  0  0  0  0  0
  140.1170   71.5360  223.2830 C   0  0  0  0  0  0  0  0  0  0  0  0
  139.5810   70.2570  223.1070 C   0  0  0  0  0  0  0  0  0  0  0  0
  139.5440   69.3540  224.1380 C   0  0  0  0  0  0  0  0  0  0  0  0
  140.0610   69.7690  225.3530 C   0  0  0  0  0  0  0  0  0  0  0  0
  140.0460   68.8910  226.4220 C   0  0  0  0  0  0  0  0  0  0  0  0
  140.5470   69.2480  227.6590 C   0  0  0  0  0  0  0  0  0  0  0  0
  140.5380   68.1530  229.0290 Cl  0  0  0  0  0  0  0  0  0  0  0  0
  141.0710   70.5300  227.7910 C   0  0  0  0  0  0  0  0  0  0  0  0
  141.1000   71.4290  226.7420 C   0  0  0  0  0  0  0  0  0  0  0  0
  140.5940   71.0540  225.5130 C   0  0  0  0  0  0  0  0  0  0  0  0
  140.6100   71.9080  224.4760 N   0  0  0  0  0  0  0  0  0  0  0  0
  139.4090   74.1330  223.1990 H   0  0  0  0  0  0  0  0  0  0  0  0
  140.0166   74.0125  220.1996 H   0  0  0  0  0  0  0  0  0  0  0  0
  138.6931   75.0136  220.9178 H   0  0  0  0  0  0  0  0  0  0  0  0
  141.3238   78.0187  219.6038 H   0  0  0  0  0  0  0  0  0  0  0  0
  142.7648   77.7475  220.6026 H   0  0  0  0  0  0  0  0  0  0  0  0
  142.7010   77.8351  217.8060 H   0  0  0  0  0  0  0  0  0  0  0  0
  144.0205   77.1460  218.7511 H   0  0  0  0  0  0  0  0  0  0  0  0
  141.6481   75.7623  217.4407 H   0  0  0  0  0  0  0  0  0  0  0  0
  143.3018   75.1985  217.5093 H   0  0  0  0  0  0  0  0  0  0  0  0
  141.5007   74.1751  219.2168 H   0  0  0  0  0  0  0  0  0  0  0  0
  142.3116   72.3955  220.0309 H   0  0  0  0  0  0  0  0  0  0  0  0
  146.2683   72.3493  221.5918 H   0  0  0  0  0  0  0  0  0  0  0  0
  144.6354   75.9806  220.1086 H   0  0  0  0  0  0  0  0  0  0  0  0
  139.1815   69.9698  222.1232 H   0  0  0  0  0  0  0  0  0  0  0  0
  139.1230   68.3464  224.0057 H   0  0  0  0  0  0  0  0  0  0  0  0
  139.6250   67.8842  226.2837 H   0  0  0  0  0  0  0  0  0  0  0  0
  141.4768   70.8391  228.7655 H   0  0  0  0  0  0  0  0  0  0  0  0
  141.5225   72.4346  226.8846 H   0  0  0  0  0  0  0  0  0  0  0  0
  1  2  2  0
  2  3  1  0
  3  4  1  0
  4  5  1  0
  5  6  2  0
  5  7  1  0
  7  8  1  0
  8  9  1  0
  9 10  1  0
 10 11  1  0
 11 12  1  0
 12 13  2  0
 13 14  1  0
 14 15  2  0
 15 16  1  0
 16 17  2  0
  2 18  1  0
 18 19  2  0
 19 20  1  0
 20 21  2  0
 21 22  1  0
 22 23  2  0
 23 24  1  0
 23 25  1  0
 25 26  2  0
 26 27  1  0
 27 28  2  0
 11  7  1  0
 17 12  1  0
 28 18  1  0
 27 21  1  0
  3 29  1  0
  4 30  1  0
  4 31  1  0
  8 32  1  0
  8 33  1  0
  9 34  1  0
  9 35  1  0
 10 36  1  0
 10 37  1  0
 11 38  1  6
 13 39  1  0
 15 40  1  0
 17 41  1  0
 19 42  1  0
 20 43  1  0
 22 44  1  0
 25 45  1  0
 26 46  1  0
M  END
>  <smiles>  (16) 
O=C(NCC(=O)N1CCC[C@H]1c1cncnc1)c1ccc2cc(Cl)ccc2n1

>  <score_type>  (16) 
oracle

>  <origin>  (16) 
autodockgpu

>  <m_score__min__energy>  (16) 
-8.1600000000000001

>  <m_primary>  (16) 
energy

>  <rmsd>  (16) 
2.2104033216309067

>  <m_score__min__rmsd>  (16) 
2.2104033216309067

>  <meeko>  (16) 
{"free_energy": -7.87, "intermolecular_energy": -9.36, "internal_energy": -1.51, "cluster_size": 20, "cluster_id": 2, "rank_in_cluster": 4}

>  <energy>  (16) 
-7.79

>  <cluster_rmsd>  (16) 
0.72

>  <cluster>  (16) 
1

$$$$

     RDKit          3D

 46 49  0  0  0  0  0  0  0  0999 V2000
  137.0310   70.7960  221.6350 O   0  0  0  0  0  0  0  0  0  0  0  0
  137.7350   71.3720  222.5160 C   0  0  0  0  0  0  0  0  0  0  0  0
  137.9290   72.7720  222.3590 N   0  0  0  0  0  0  0  0  0  0  0  0
  137.3220   73.4370  221.2260 C   0  0  0  0  0  0  0  0  0  0  0  0
  135.8470   73.6100  221.4280 C   0  0  0  0  0  0  0  0  0  0  0  0
  135.0360   72.8160  220.8390 O   0  0  0  0  0  0  0  0  0  0  0  0
  135.3940   74.6550  222.2730 N   0  0  0  0  0  0  0  0  0  0  0  0
  134.4570   75.7220  221.9220 C   0  0  0  0  0  0  0  0  0  0  0  0
  134.4590   76.6770  223.0650 C   0  0  0  0  0  0  0  0  0  0  0  0
  135.6700   76.3060  223.8760 C   0  0  0  0  0  0  0  0  0  0  0  0
  135.7890   74.8350  223.6340 C   0  0  1  0  0  0  0  0  0  0  0  0
  135.0750   73.9910  224.6130 C   0  0  0  0  0  0  0  0  0  0  0  0
  134.3350   74.5580  225.6280 C   0  0  0  0  0  0  0  0  0  0  0  0
  133.6760   73.7780  226.5330 N   0  0  0  0  0  0  0  0  0  0  0  0
  133.7300   72.4350  226.4590 C   0  0  0  0  0  0  0  0  0  0  0  0
  134.4460   71.8510  225.4790 N   0  0  0  0  0  0  0  0  0  0  0  0
  135.1120   72.6120  224.5640 C   0  0  0  0  0  0  0  0  0  0  0  0
  138.3270   70.6610  223.6420 C   0  0  0  0  0  0  0  0  0  0  0  0
  137.9830   69.3140  223.7870 C   0  0  0  0  0  0  0  0  0  0  0  0
  138.4870   68.5580  224.8140 C   0  0  0  0  0  0  0  0  0  0  0  0
  139.3490   69.1920  225.6930 C   0  0  0  0  0  0  0  0  0  0  0  0
  139.8830   68.4680  226.7440 C   0  0  0  0  0  0  0  0  0  0  0  0
  140.7480   69.0460  227.6540 C   0  0  0  0  0  0  0  0  0  0  0  0
  141.4370   68.1500  228.9950 Cl  0  0  0  0  0  0  0  0  0  0  0  0
  141.0640   70.3880  227.4730 C   0  0  0  0  0  0  0  0  0  0  0  0
  140.5470   71.1360  226.4330 C   0  0  0  0  0  0  0  0  0  0  0  0
  139.6830   70.5420  225.5340 C   0  0  0  0  0  0  0  0  0  0  0  0
  139.1660   71.2460  224.5130 N   0  0  0  0  0  0  0  0  0  0  0  0
  138.5130   73.2880  223.0770 H   0  0  0  0  0  0  0  0  0  0  0  0
  137.7857   74.4264  221.0995 H   0  0  0  0  0  0  0  0  0  0  0  0
  137.4816   72.8177  220.3310 H   0  0  0  0  0  0  0  0  0  0  0  0
  134.7848   76.2288  221.0024 H   0  0  0  0  0  0  0  0  0  0  0  0
  133.4487   75.3225  221.7382 H   0  0  0  0  0  0  0  0  0  0  0  0
  134.5375   77.7130  222.7038 H   0  0  0  0  0  0  0  0  0  0  0  0
  133.5320   76.6198  223.6545 H   0  0  0  0  0  0  0  0  0  0  0  0
  136.5639   76.8400  223.5213 H   0  0  0  0  0  0  0  0  0  0  0  0
  135.5795   76.5675  224.9406 H   0  0  0  0  0  0  0  0  0  0  0  0
  136.8196   74.4839  223.7910 H   0  0  0  0  0  0  0  0  0  0  0  0
  134.2749   75.6533  225.7096 H   0  0  0  0  0  0  0  0  0  0  0  0
  133.1926   71.8182  227.1944 H   0  0  0  0  0  0  0  0  0  0  0  0
  135.6907   72.1166  223.7704 H   0  0  0  0  0  0  0  0  0  0  0  0
  137.2951   68.8518  223.0637 H   0  0  0  0  0  0  0  0  0  0  0  0
  138.2192   67.4979  224.9340 H   0  0  0  0  0  0  0  0  0  0  0  0
  139.6129   67.4078  226.8581 H   0  0  0  0  0  0  0  0  0  0  0  0
  141.7505   70.8715  228.1836 H   0  0  0  0  0  0  0  0  0  0  0  0
  140.8211   72.1955  226.3218 H   0  0  0  0  0  0  0  0  0  0  0  0
  1  2  2  0
  2  3  1  0
  3  4  1  0
  4  5  1  0
  5  6  2  0
  5  7  1  0
  7  8  1  0
  8  9  1  0
  9 10  1  0
 10 11  1  0
 11 12  1  0
 12 13  2  0
 13 14  1  0
 14 15  2  0
 15 16  1  0
 16 17  2  0
  2 18  1  0
 18 19  2  0
 19 20  1  0
 20 21  2  0
 21 22  1  0
 22 23  2  0
 23 24  1  0
 23 25  1  0
 25 26  2  0
 26 27  1  0
 27 28  2  0
 11  7  1  0
 17 12  1  0
 28 18  1  0
 27 21  1  0
  3 29  1  0
  4 30  1  0
  4 31  1  0
  8 32  1  0
  8 33  1  0
  9 34  1  0
  9 35  1  0
 10 36  1  0
 10 37  1  0
 11 38  1  6
 13 39  1  0
 15 40  1  0
 17 41  1  0
 19 42  1  0
 20 43  1  0
 22 44  1  0
 25 45  1  0
 26 46  1  0
M  END
>  <smiles>  (17) 
O=C(NCC(=O)N1CCC[C@H]1c1cncnc1)c1ccc2cc(Cl)ccc2n1

>  <score_type>  (17) 
oracle

>  <origin>  (17) 
autodockgpu

>  <m_score__min__energy>  (17) 
-8.1600000000000001

>  <m_primary>  (17) 
energy

>  <rmsd>  (17) 
4.260403886920913

>  <m_score__min__rmsd>  (17) 
4.260403886920913

>  <meeko>  (17) 
{"free_energy": -6.73, "intermolecular_energy": -8.22, "internal_energy": -1.74, "cluster_size": 1, "cluster_id": 7, "rank_in_cluster": 1}

>  <energy>  (17) 
-7.5

>  <cluster_rmsd>  (17) 
1.39

>  <cluster>  (17) 
1

$$$$

     RDKit          3D

 46 49  0  0  0  0  0  0  0  0999 V2000
  140.4730   72.4530  220.8380 O   0  0  0  0  0  0  0  0  0  0  0  0
  140.0300   72.7520  221.9860 C   0  0  0  0  0  0  0  0  0  0  0  0
  139.4820   74.0560  222.1360 N   0  0  0  0  0  0  0  0  0  0  0  0
  139.4630   74.9400  220.9900 C   0  0  0  0  0  0  0  0  0  0  0  0
  140.7280   75.7410  220.9060 C   0  0  0  0  0  0  0  0  0  0  0  0
  141.8060   75.2630  221.3990 O   0  0  0  0  0  0  0  0  0  0  0  0
  140.6890   77.0120  220.2780 N   0  0  0  0  0  0  0  0  0  0  0  0
  139.5940   77.5590  219.4770 C   0  0  0  0  0  0  0  0  0  0  0  0
  140.1060   78.8210  218.8720 C   0  0  0  0  0  0  0  0  0  0  0  0
  141.5970   78.7630  219.0610 C   0  0  0  0  0  0  0  0  0  0  0  0
  141.7370   77.9810  220.3290 C   0  0  1  0  0  0  0  0  0  0  0  0
  141.7760   78.8010  221.5560 C   0  0  0  0  0  0  0  0  0  0  0  0
  141.4340   78.2620  222.7770 C   0  0  0  0  0  0  0  0  0  0  0  0
  141.4690   79.0200  223.9110 N   0  0  0  0  0  0  0  0  0  0  0  0
  141.8390   80.3140  223.8680 C   0  0  0  0  0  0  0  0  0  0  0  0
  142.1790   80.8700  222.6890 N   0  0  0  0  0  0  0  0  0  0  0  0
  142.1500   80.1290  221.5440 C   0  0  0  0  0  0  0  0  0  0  0  0
  140.0700   71.8290  223.1130 C   0  0  0  0  0  0  0  0  0  0  0  0
  139.5660   70.5440  222.8900 C   0  0  0  0  0  0  0  0  0  0  0  0
  139.5590   69.6010  223.8870 C   0  0  0  0  0  0  0  0  0  0  0  0
  140.0710   69.9840  225.1150 C   0  0  0  0  0  0  0  0  0  0  0  0
  140.0840   69.0660  226.1490 C   0  0  0  0  0  0  0  0  0  0  0  0
  140.5810   69.3900  227.3970 C   0  0  0  0  0  0  0  0  0  0  0  0
  140.6080   68.2440  228.7250 Cl  0  0  0  0  0  0  0  0  0  0  0  0
  141.0720   70.6790  227.5750 C   0  0  0  0  0  0  0  0  0  0  0  0
  141.0720   71.6170  226.5610 C   0  0  0  0  0  0  0  0  0  0  0  0
  140.5700   71.2760  225.3210 C   0  0  0  0  0  0  0  0  0  0  0  0
  140.5590   72.1680  224.3170 N   0  0  0  0  0  0  0  0  0  0  0  0
  139.1020   74.3420  223.0830 H   0  0  0  0  0  0  0  0  0  0  0  0
  139.3564   74.3395  220.0746 H   0  0  0  0  0  0  0  0  0  0  0  0
  138.6162   75.6338  221.0975 H   0  0  0  0  0  0  0  0  0  0  0  0
  139.3072   76.8478  218.6883 H   0  0  0  0  0  0  0  0  0  0  0  0
  138.7025   77.7451  220.0939 H   0  0  0  0  0  0  0  0  0  0  0  0
  139.8529   78.8681  217.8025 H   0  0  0  0  0  0  0  0  0  0  0  0
  139.6636   79.7135  219.3387 H   0  0  0  0  0  0  0  0  0  0  0  0
  142.0837   78.2465  218.2205 H   0  0  0  0  0  0  0  0  0  0  0  0
  142.0706   79.7549  219.1050 H   0  0  0  0  0  0  0  0  0  0  0  0
  142.7196   77.4907  220.3928 H   0  0  0  0  0  0  0  0  0  0  0  0
  141.1288   77.2070  222.8384 H   0  0  0  0  0  0  0  0  0  0  0  0
  141.8635   80.9134  224.7900 H   0  0  0  0  0  0  0  0  0  0  0  0
  142.4308   80.6004  220.5906 H   0  0  0  0  0  0  0  0  0  0  0  0
  139.1681   70.2843  221.8979 H   0  0  0  0  0  0  0  0  0  0  0  0
  139.1649   68.5879  223.7183 H   0  0  0  0  0  0  0  0  0  0  0  0
  139.6895   68.0542  225.9740 H   0  0  0  0  0  0  0  0  0  0  0  0
  141.4749   70.9617  228.5587 H   0  0  0  0  0  0  0  0  0  0  0  0
  141.4687   72.6272  226.7400 H   0  0  0  0  0  0  0  0  0  0  0  0
  1  2  2  0
  2  3  1  0
  3  4  1  0
  4  5  1  0
  5  6  2  0
  5  7  1  0
  7  8  1  0
  8  9  1  0
  9 10  1  0
 10 11  1  0
 11 12  1  0
 12 13  2  0
 13 14  1  0
 14 15  2  0
 15 16  1  0
 16 17  2  0
  2 18  1  0
 18 19  2  0
 19 20  1  0
 20 21  2  0
 21 22  1  0
 22 23  2  0
 23 24  1  0
 23 25  1  0
 25 26  2  0
 26 27  1  0
 27 28  2  0
 11  7  1  0
 17 12  1  0
 28 18  1  0
 27 21  1  0
  3 29  1  0
  4 30  1  0
  4 31  1  0
  8 32  1  0
  8 33  1  0
  9 34  1  0
  9 35  1  0
 10 36  1  0
 10 37  1  0
 11 38  1  6
 13 39  1  0
 15 40  1  0
 17 41  1  0
 19 42  1  0
 20 43  1  0
 22 44  1  0
 25 45  1  0
 26 46  1  0
M  END
>  <smiles>  (18) 
O=C(NCC(=O)N1CCC[C@H]1c1cncnc1)c1ccc2cc(Cl)ccc2n1

>  <score_type>  (18) 
oracle

>  <origin>  (18) 
autodockgpu

>  <m_score__min__energy>  (18) 
-8.1600000000000001

>  <m_primary>  (18) 
energy

>  <rmsd>  (18) 
1.7927478243720512

>  <m_score__min__rmsd>  (18) 
1.7927478243720512

>  <meeko>  (18) 
{"free_energy": -8.02, "intermolecular_energy": -9.51, "internal_energy": -1.11, "cluster_size": 18, "cluster_id": 1, "rank_in_cluster": 7}

>  <energy>  (18) 
-7.45

>  <cluster_rmsd>  (18) 
1.12

>  <cluster>  (18) 
1

$$$$

     RDKit          3D

 46 49  0  0  0  0  0  0  0  0999 V2000
  134.0760   69.2560  226.4150 O   0  0  0  0  0  0  0  0  0  0  0  0
  134.4650   70.3820  225.9860 C   0  0  0  0  0  0  0  0  0  0  0  0
  135.5620   70.3740  225.0800 N   0  0  0  0  0  0  0  0  0  0  0  0
  136.1520   69.1050  224.7130 C   0  0  0  0  0  0  0  0  0  0  0  0
  137.6240   69.0910  225.0000 C   0  0  0  0  0  0  0  0  0  0  0  0
  138.1130   68.1560  225.7230 O   0  0  0  0  0  0  0  0  0  0  0  0
  138.4330   70.1210  224.4570 N   0  0  0  0  0  0  0  0  0  0  0  0
  137.9840   71.2530  223.6480 C   0  0  0  0  0  0  0  0  0  0  0  0
  139.2140   71.9310  223.1520 C   0  0  0  0  0  0  0  0  0  0  0  0
  140.3230   70.9460  223.4010 C   0  0  0  0  0  0  0  0  0  0  0  0
  139.8490   70.2180  224.6180 C   0  0  1  0  0  0  0  0  0  0  0  0
  140.2980   70.8010  225.8980 C   0  0  0  0  0  0  0  0  0  0  0  0
  139.8970   70.2600  227.1000 C   0  0  0  0  0  0  0  0  0  0  0  0
  140.3110   70.8000  228.2830 N   0  0  0  0  0  0  0  0  0  0  0  0
  141.1230   71.8740  228.3080 C   0  0  0  0  0  0  0  0  0  0  0  0
  141.5330   72.4250  227.1490 N   0  0  0  0  0  0  0  0  0  0  0  0
  141.1300   71.9010  225.9560 C   0  0  0  0  0  0  0  0  0  0  0  0
  133.8390   71.6370  226.3830 C   0  0  0  0  0  0  0  0  0  0  0  0
  132.6770   71.5440  227.1540 C   0  0  0  0  0  0  0  0  0  0  0  0
  132.0130   72.6670  227.5780 C   0  0  0  0  0  0  0  0  0  0  0  0
  132.5490   73.8890  227.2070 C   0  0  0  0  0  0  0  0  0  0  0  0
  131.9140   75.0480  227.6130 C   0  0  0  0  0  0  0  0  0  0  0  0
  132.4010   76.2960  227.2730 C   0  0  0  0  0  0  0  0  0  0  0  0
  131.6140   77.7810  227.7750 Cl  0  0  0  0  0  0  0  0  0  0  0  0
  133.5600   76.3440  226.5060 C   0  0  0  0  0  0  0  0  0  0  0  0
  134.2160   75.2030  226.0860 C   0  0  0  0  0  0  0  0  0  0  0  0
  133.7150   73.9640  226.4340 C   0  0  0  0  0  0  0  0  0  0  0  0
  134.3320   72.8390  226.0400 N   0  0  0  0  0  0  0  0  0  0  0  0
  135.9150   71.2980  224.7000 H   0  0  0  0  0  0  0  0  0  0  0  0
  135.6661   68.3031  225.2883 H   0  0  0  0  0  0  0  0  0  0  0  0
  136.0049   68.9503  223.6339 H   0  0  0  0  0  0  0  0  0  0  0  0
  137.3776   70.8986  222.8015 H   0  0  0  0  0  0  0  0  0  0  0  0
  137.3600   71.9411  224.2373 H   0  0  0  0  0  0  0  0  0  0  0  0
  139.1274   72.1537  222.0783 H   0  0  0  0  0  0  0  0  0  0  0  0
  139.3909   72.8918  223.6575 H   0  0  0  0  0  0  0  0  0  0  0  0
  140.4425   70.2597  222.5497 H   0  0  0  0  0  0  0  0  0  0  0  0
  141.3069   71.4203  223.5316 H   0  0  0  0  0  0  0  0  0  0  0  0
  140.3034   69.2189  224.6913 H   0  0  0  0  0  0  0  0  0  0  0  0
  139.2348   69.3817  227.1062 H   0  0  0  0  0  0  0  0  0  0  0  0
  141.4495   72.2987  229.2687 H   0  0  0  0  0  0  0  0  0  0  0  0
  141.4753   72.3648  225.0202 H   0  0  0  0  0  0  0  0  0  0  0  0
  132.2876   70.5518  227.4259 H   0  0  0  0  0  0  0  0  0  0  0  0
  131.0976   72.6001  228.1843 H   0  0  0  0  0  0  0  0  0  0  0  0
  131.0000   74.9752  228.2207 H   0  0  0  0  0  0  0  0  0  0  0  0
  133.9690   77.3253  226.2237 H   0  0  0  0  0  0  0  0  0  0  0  0
  135.1302   75.2808  225.4792 H   0  0  0  0  0  0  0  0  0  0  0  0
  1  2  2  0
  2  3  1  0
  3  4  1  0
  4  5  1  0
  5  6  2  0
  5  7  1  0
  7  8  1  0
  8  9  1  0
  9 10  1  0
 10 11  1  0
 11 12  1  0
 12 13  2  0
 13 14  1  0
 14 15  2  0
 15 16  1  0
 16 17  2  0
  2 18  1  0
 18 19  2  0
 19 20  1  0
 20 21  2  0
 21 22  1  0
 22 23  2  0
 23 24  1  0
 23 25  1  0
 25 26  2  0
 26 27  1  0
 27 28  2  0
 11  7  1  0
 17 12  1  0
 28 18  1  0
 27 21  1  0
  3 29  1  0
  4 30  1  0
  4 31  1  0
  8 32  1  0
  8 33  1  0
  9 34  1  0
  9 35  1  0
 10 36  1  0
 10 37  1  0
 11 38  1  6
 13 39  1  0
 15 40  1  0
 17 41  1  0
 19 42  1  0
 20 43  1  0
 22 44  1  0
 25 45  1  0
 26 46  1  0
M  END
>  <smiles>  (19) 
O=C(NCC(=O)N1CCC[C@H]1c1cncnc1)c1ccc2cc(Cl)ccc2n1

>  <score_type>  (19) 
oracle

>  <origin>  (19) 
autodockgpu

>  <m_score__min__energy>  (19) 
-8.1600000000000001

>  <m_primary>  (19) 
energy

>  <rmsd>  (19) 
7.840033776174896

>  <m_score__min__rmsd>  (19) 
7.840033776174896

>  <meeko>  (19) 
{"free_energy": -7.9, "intermolecular_energy": -9.39, "internal_energy": -1.29, "cluster_size": 4, "cluster_id": 3, "rank_in_cluster": 1}

>  <energy>  (19) 
-7.91

>  <cluster_rmsd>  (19) 
0.0

>  <cluster>  (19) 
2

$$$$

     RDKit          3D

 46 49  0  0  0  0  0  0  0  0999 V2000
  140.0320   72.1150  220.7450 O   0  0  0  0  0  0  0  0  0  0  0  0
  139.9020   72.5120  221.9410 C   0  0  0  0  0  0  0  0  0  0  0  0
  139.6760   73.9040  222.1280 N   0  0  0  0  0  0  0  0  0  0  0  0
  139.6080   74.7610  220.9640 C   0  0  0  0  0  0  0  0  0  0  0  0
  140.4960   75.9580  221.1230 C   0  0  0  0  0  0  0  0  0  0  0  0
  140.3410   76.7240  222.1350 O   0  0  0  0  0  0  0  0  0  0  0  0
  141.4880   76.2050  220.1400 N   0  0  0  0  0  0  0  0  0  0  0  0
  142.0950   77.4950  219.8120 C   0  0  0  0  0  0  0  0  0  0  0  0
  142.9180   77.2740  218.5900 C   0  0  0  0  0  0  0  0  0  0  0  0
  142.4640   75.9440  218.0540 C   0  0  0  0  0  0  0  0  0  0  0  0
  142.0660   75.2090  219.2940 C   0  0  1  0  0  0  0  0  0  0  0  0
  143.1450   74.4110  219.9090 C   0  0  0  0  0  0  0  0  0  0  0  0
  142.9250   73.1070  220.2980 C   0  0  0  0  0  0  0  0  0  0  0  0
  143.9220   72.3700  220.8680 N   0  0  0  0  0  0  0  0  0  0  0  0
  145.1470   72.8940  221.0640 C   0  0  0  0  0  0  0  0  0  0  0  0
  145.3920   74.1660  220.6930 N   0  0  0  0  0  0  0  0  0  0  0  0
  144.4090   74.9200  220.1230 C   0  0  0  0  0  0  0  0  0  0  0  0
  139.9780   71.6120  223.0840 C   0  0  0  0  0  0  0  0  0  0  0  0
  139.5070   70.3100  222.8920 C   0  0  0  0  0  0  0  0  0  0  0  0
  139.5350   69.3870  223.9060 C   0  0  0  0  0  0  0  0  0  0  0  0
  140.0500   69.8060  225.1210 C   0  0  0  0  0  0  0  0  0  0  0  0
  140.0990   68.9090  226.1720 C   0  0  0  0  0  0  0  0  0  0  0  0
  140.6010   69.2690  227.4080 C   0  0  0  0  0  0  0  0  0  0  0  0
  140.6730   68.1500  228.7560 Cl  0  0  0  0  0  0  0  0  0  0  0  0
  141.0590   70.5750  227.5560 C   0  0  0  0  0  0  0  0  0  0  0  0
  141.0240   71.4920  226.5240 C   0  0  0  0  0  0  0  0  0  0  0  0
  140.5170   71.1150  225.2970 C   0  0  0  0  0  0  0  0  0  0  0  0
  140.4710   71.9870  224.2770 N   0  0  0  0  0  0  0  0  0  0  0  0
  139.5630   74.2730  223.1150 H   0  0  0  0  0  0  0  0  0  0  0  0
  139.9280   74.1912  220.0791 H   0  0  0  0  0  0  0  0  0  0  0  0
  138.5710   75.1083  220.8458 H   0  0  0  0  0  0  0  0  0  0  0  0
  141.3138   78.2437  219.6143 H   0  0  0  0  0  0  0  0  0  0  0  0
  142.7092   77.8698  220.6440 H   0  0  0  0  0  0  0  0  0  0  0  0
  142.7381   78.0703  217.8528 H   0  0  0  0  0  0  0  0  0  0  0  0
  143.9960   77.2867  218.8085 H   0  0  0  0  0  0  0  0  0  0  0  0
  141.6096   76.0621  217.3713 H   0  0  0  0  0  0  0  0  0  0  0  0
  143.2348   75.4238  217.4664 H   0  0  0  0  0  0  0  0  0  0  0  0
  141.3387   74.4137  219.0738 H   0  0  0  0  0  0  0  0  0  0  0  0
  141.9336   72.6550  220.1471 H   0  0  0  0  0  0  0  0  0  0  0  0
  145.9417   72.2881  221.5236 H   0  0  0  0  0  0  0  0  0  0  0  0
  144.6289   75.9565  219.8275 H   0  0  0  0  0  0  0  0  0  0  0  0
  139.1065   70.0203  221.9093 H   0  0  0  0  0  0  0  0  0  0  0  0
  139.1654   68.3612  223.7607 H   0  0  0  0  0  0  0  0  0  0  0  0
  139.7294   67.8841  226.0206 H   0  0  0  0  0  0  0  0  0  0  0  0
  141.4634   70.8879  228.5299 H   0  0  0  0  0  0  0  0  0  0  0  0
  141.3974   72.5151  226.6788 H   0  0  0  0  0  0  0  0  0  0  0  0
  1  2  2  0
  2  3  1  0
  3  4  1  0
  4  5  1  0
  5  6  2  0
  5  7  1  0
  7  8  1  0
  8  9  1  0
  9 10  1  0
 10 11  1  0
 11 12  1  0
 12 13  2  0
 13 14  1  0
 14 15  2  0
 15 16  1  0
 16 17  2  0
  2 18  1  0
 18 19  2  0
 19 20  1  0
 20 21  2  0
 21 22  1  0
 22 23  2  0
 23 24  1  0
 23 25  1  0
 25 26  2  0
 26 27  1  0
 27 28  2  0
 11  7  1  0
 17 12  1  0
 28 18  1  0
 27 21  1  0
  3 29  1  0
  4 30  1  0
  4 31  1  0
  8 32  1  0
  8 33  1  0
  9 34  1  0
  9 35  1  0
 10 36  1  0
 10 37  1  0
 11 38  1  6
 13 39  1  0
 15 40  1  0
 17 41  1  0
 19 42  1  0
 20 43  1  0
 22 44  1  0
 25 45  1  0
 26 46  1  0
M  END
>  <smiles>  (20) 
O=C(NCC(=O)N1CCC[C@H]1c1cncnc1)c1ccc2cc(Cl)ccc2n1

>  <score_type>  (20) 
oracle

>  <origin>  (20) 
autodockgpu

>  <m_score__min__energy>  (20) 
-8.1600000000000001

>  <m_primary>  (20) 
energy

>  <rmsd>  (20) 
2.210768346772985

>  <m_score__min__rmsd>  (20) 
2.210768346772985

>  <meeko>  (20) 
{"free_energy": -7.82, "intermolecular_energy": -9.31, "internal_energy": -1.59, "cluster_size": 20, "cluster_id": 2, "rank_in_cluster": 13}

>  <energy>  (20) 
-7.9

>  <cluster_rmsd>  (20) 
0.83

>  <cluster>  (20) 
2

$$$$

     RDKit          3D

 46 49  0  0  0  0  0  0  0  0999 V2000
  140.0760   72.4150  220.7560 O   0  0  0  0  0  0  0  0  0  0  0  0
  139.8840   72.7830  221.9530 C   0  0  0  0  0  0  0  0  0  0  0  0
  139.5700   74.1560  222.1530 N   0  0  0  0  0  0  0  0  0  0  0  0
  139.4900   75.0280  221.0000 C   0  0  0  0  0  0  0  0  0  0  0  0
  140.6330   75.9980  220.9770 C   0  0  0  0  0  0  0  0  0  0  0  0
  141.8030   75.5970  221.2990 O   0  0  0  0  0  0  0  0  0  0  0  0
  140.3790   77.3400  220.5950 N   0  0  0  0  0  0  0  0  0  0  0  0
  139.0890   77.9120  220.2080 C   0  0  0  0  0  0  0  0  0  0  0  0
  139.3710   79.2850  219.7040 C   0  0  0  0  0  0  0  0  0  0  0  0
  140.8590   79.3160  219.4840 C   0  0  0  0  0  0  0  0  0  0  0  0
  141.3650   78.3710  220.5260 C   0  0  1  0  0  0  0  0  0  0  0  0
  141.7050   79.0030  221.8170 C   0  0  0  0  0  0  0  0  0  0  0  0
  142.2690   80.2590  221.8610 C   0  0  0  0  0  0  0  0  0  0  0  0
  142.5840   80.8430  223.0530 N   0  0  0  0  0  0  0  0  0  0  0  0
  142.3530   80.2090  224.2180 C   0  0  0  0  0  0  0  0  0  0  0  0
  141.8020   78.9790  224.2070 N   0  0  0  0  0  0  0  0  0  0  0  0
  141.4800   78.3790  223.0260 C   0  0  0  0  0  0  0  0  0  0  0  0
  139.9750   71.8700  223.0840 C   0  0  0  0  0  0  0  0  0  0  0  0
  139.5200   70.5640  222.8760 C   0  0  0  0  0  0  0  0  0  0  0  0
  139.5630   69.6290  223.8790 C   0  0  0  0  0  0  0  0  0  0  0  0
  140.0770   70.0400  225.0970 C   0  0  0  0  0  0  0  0  0  0  0  0
  140.1400   69.1300  226.1370 C   0  0  0  0  0  0  0  0  0  0  0  0
  140.6410   69.4820  227.3760 C   0  0  0  0  0  0  0  0  0  0  0  0
  140.7310   68.3470  228.7100 Cl  0  0  0  0  0  0  0  0  0  0  0  0
  141.0830   70.7900  227.5400 C   0  0  0  0  0  0  0  0  0  0  0  0
  141.0320   71.7210  226.5200 C   0  0  0  0  0  0  0  0  0  0  0  0
  140.5270   71.3520  225.2890 C   0  0  0  0  0  0  0  0  0  0  0  0
  140.4670   72.2360  224.2800 N   0  0  0  0  0  0  0  0  0  0  0  0
  139.4030   74.5010  223.1400 H   0  0  0  0  0  0  0  0  0  0  0  0
  139.5182   74.4177  220.0853 H   0  0  0  0  0  0  0  0  0  0  0  0
  138.5501   75.5966  221.0563 H   0  0  0  0  0  0  0  0  0  0  0  0
  138.6255   77.3043  219.4169 H   0  0  0  0  0  0  0  0  0  0  0  0
  138.3921   77.9352  221.0588 H   0  0  0  0  0  0  0  0  0  0  0  0
  138.8360   79.4689  218.7606 H   0  0  0  0  0  0  0  0  0  0  0  0
  139.0393   80.0620  220.4085 H   0  0  0  0  0  0  0  0  0  0  0  0
  141.1179   78.9676  218.4732 H   0  0  0  0  0  0  0  0  0  0  0  0
  141.2910   80.3246  219.5627 H   0  0  0  0  0  0  0  0  0  0  0  0
  142.3454   77.9559  220.2494 H   0  0  0  0  0  0  0  0  0  0  0  0
  142.4679   80.7980  220.9230 H   0  0  0  0  0  0  0  0  0  0  0  0
  142.6121   80.6914  225.1720 H   0  0  0  0  0  0  0  0  0  0  0  0
  141.0308   77.3750  223.0377 H   0  0  0  0  0  0  0  0  0  0  0  0
  139.1206   70.2815  221.8908 H   0  0  0  0  0  0  0  0  0  0  0  0
  139.2057   68.6005  223.7227 H   0  0  0  0  0  0  0  0  0  0  0  0
  139.7831   68.1024  225.9740 H   0  0  0  0  0  0  0  0  0  0  0  0
  141.4877   71.0946  228.5164 H   0  0  0  0  0  0  0  0  0  0  0  0
  141.3907   72.7473  226.6874 H   0  0  0  0  0  0  0  0  0  0  0  0
  1  2  2  0
  2  3  1  0
  3  4  1  0
  4  5  1  0
  5  6  2  0
  5  7  1  0
  7  8  1  0
  8  9  1  0
  9 10  1  0
 10 11  1  0
 11 12  1  0
 12 13  2  0
 13 14  1  0
 14 15  2  0
 15 16  1  0
 16 17  2  0
  2 18  1  0
 18 19  2  0
 19 20  1  0
 20 21  2  0
 21 22  1  0
 22 23  2  0
 23 24  1  0
 23 25  1  0
 25 26  2  0
 26 27  1  0
 27 28  2  0
 11  7  1  0
 17 12  1  0
 28 18  1  0
 27 21  1  0
  3 29  1  0
  4 30  1  0
  4 31  1  0
  8 32  1  0
  8 33  1  0
  9 34  1  0
  9 35  1  0
 10 36  1  0
 10 37  1  0
 11 38  1  6
 13 39  1  0
 15 40  1  0
 17 41  1  0
 19 42  1  0
 20 43  1  0
 22 44  1  0
 25 45  1  0
 26 46  1  0
M  END
>  <smiles>  (21) 
O=C(NCC(=O)N1CCC[C@H]1c1cncnc1)c1ccc2cc(Cl)ccc2n1

>  <score_type>  (21) 
oracle

>  <origin>  (21) 
autodockgpu

>  <m_score__min__energy>  (21) 
-8.1600000000000001

>  <m_primary>  (21) 
energy

>  <rmsd>  (21) 
2.0654363703875593

>  <m_score__min__rmsd>  (21) 
2.0654363703875593

>  <meeko>  (21) 
{"free_energy": -7.89, "intermolecular_energy": -9.38, "internal_energy": -1.15, "cluster_size": 18, "cluster_id": 1, "rank_in_cluster": 15}

>  <energy>  (21) 
-7.87

>  <cluster_rmsd>  (21) 
0.91

>  <cluster>  (21) 
2

$$$$

     RDKit          3D

 46 49  0  0  0  0  0  0  0  0999 V2000
  138.4850   72.6540  221.8050 O   0  0  0  0  0  0  0  0  0  0  0  0
  139.6160   72.4710  222.3440 C   0  0  0  0  0  0  0  0  0  0  0  0
  140.7080   73.1970  221.7910 N   0  0  0  0  0  0  0  0  0  0  0  0
  140.4610   74.0810  220.6720 C   0  0  0  0  0  0  0  0  0  0  0  0
  141.2580   75.3450  220.7960 C   0  0  0  0  0  0  0  0  0  0  0  0
  141.1300   76.0660  221.8440 O   0  0  0  0  0  0  0  0  0  0  0  0
  142.1370   75.7020  219.7420 N   0  0  0  0  0  0  0  0  0  0  0  0
  142.5380   77.0550  219.3560 C   0  0  0  0  0  0  0  0  0  0  0  0
  143.2970   76.9210  218.0810 C   0  0  0  0  0  0  0  0  0  0  0  0
  142.9920   75.5310  217.5940 C   0  0  0  0  0  0  0  0  0  0  0  0
  142.7840   74.7750  218.8680 C   0  0  1  0  0  0  0  0  0  0  0  0
  144.0020   74.1430  219.4140 C   0  0  0  0  0  0  0  0  0  0  0  0
  144.8530   73.4300  218.5980 C   0  0  0  0  0  0  0  0  0  0  0  0
  145.9780   72.8450  219.1020 N   0  0  0  0  0  0  0  0  0  0  0  0
  146.2870   72.9480  220.4090 C   0  0  0  0  0  0  0  0  0  0  0  0
  145.4740   73.6390  221.2310 N   0  0  0  0  0  0  0  0  0  0  0  0
  144.3450   74.2310  220.7470 C   0  0  0  0  0  0  0  0  0  0  0  0
  139.8180   71.5700  223.4710 C   0  0  0  0  0  0  0  0  0  0  0  0
  139.4370   70.2380  223.2860 C   0  0  0  0  0  0  0  0  0  0  0  0
  139.5870   69.3110  224.2860 C   0  0  0  0  0  0  0  0  0  0  0  0
  140.1310   69.7580  225.4790 C   0  0  0  0  0  0  0  0  0  0  0  0
  140.3000   68.8590  226.5150 C   0  0  0  0  0  0  0  0  0  0  0  0
  140.8360   69.2460  227.7280 C   0  0  0  0  0  0  0  0  0  0  0  0
  141.0620   68.1240  229.0580 Cl  0  0  0  0  0  0  0  0  0  0  0  0
  141.2020   70.5810  227.8690 C   0  0  0  0  0  0  0  0  0  0  0  0
  141.0450   71.5020  226.8520 C   0  0  0  0  0  0  0  0  0  0  0  0
  140.5060   71.0970  225.6470 C   0  0  0  0  0  0  0  0  0  0  0  0
  140.3420   71.9710  224.6410 N   0  0  0  0  0  0  0  0  0  0  0  0
  141.6700   73.0700  222.2150 H   0  0  0  0  0  0  0  0  0  0  0  0
  140.7429   73.5686  219.7404 H   0  0  0  0  0  0  0  0  0  0  0  0
  139.3923   74.3415  220.6620 H   0  0  0  0  0  0  0  0  0  0  0  0
  141.6501   77.6866  219.2056 H   0  0  0  0  0  0  0  0  0  0  0  0
  143.1513   77.5274  220.1375 H   0  0  0  0  0  0  0  0  0  0  0  0
  142.9601   77.6701  217.3494 H   0  0  0  0  0  0  0  0  0  0  0  0
  144.3758   77.0832  218.2220 H   0  0  0  0  0  0  0  0  0  0  0  0
  142.0844   75.5185  216.9726 H   0  0  0  0  0  0  0  0  0  0  0  0
  143.7839   75.1072  216.9590 H   0  0  0  0  0  0  0  0  0  0  0  0
  142.1576   73.8849  218.7090 H   0  0  0  0  0  0  0  0  0  0  0  0
  144.6226   73.3311  217.5270 H   0  0  0  0  0  0  0  0  0  0  0  0
  147.1969   72.4711  220.8023 H   0  0  0  0  0  0  0  0  0  0  0  0
  143.6938   74.7908  221.4344 H   0  0  0  0  0  0  0  0  0  0  0  0
  139.0092   69.9275  222.3213 H   0  0  0  0  0  0  0  0  0  0  0  0
  139.2891   68.2613  224.1470 H   0  0  0  0  0  0  0  0  0  0  0  0
  140.0006   67.8105  226.3703 H   0  0  0  0  0  0  0  0  0  0  0  0
  141.6319   70.9148  228.8249 H   0  0  0  0  0  0  0  0  0  0  0  0
  141.3468   72.5493  227.0006 H   0  0  0  0  0  0  0  0  0  0  0  0
  1  2  2  0
  2  3  1  0
  3  4  1  0
  4  5  1  0
  5  6  2  0
  5  7  1  0
  7  8  1  0
  8  9  1  0
  9 10  1  0
 10 11  1  0
 11 12  1  0
 12 13  2  0
 13 14  1  0
 14 15  2  0
 15 16  1  0
 16 17  2  0
  2 18  1  0
 18 19  2  0
 19 20  1  0
 20 21  2  0
 21 22  1  0
 22 23  2  0
 23 24  1  0
 23 25  1  0
 25 26  2  0
 26 27  1  0
 27 28  2  0
 11  7  1  0
 17 12  1  0
 28 18  1  0
 27 21  1  0
  3 29  1  0
  4 30  1  0
  4 31  1  0
  8 32  1  0
  8 33  1  0
  9 34  1  0
  9 35  1  0
 10 36  1  0
 10 37  1  0
 11 38  1  6
 13 39  1  0
 15 40  1  0
 17 41  1  0
 19 42  1  0
 20 43  1  0
 22 44  1  0
 25 45  1  0
 26 46  1  0
M  END
>  <smiles>  (22) 
O=C(NCC(=O)N1CCC[C@H]1c1cncnc1)c1ccc2cc(Cl)ccc2n1

>  <score_type>  (22) 
oracle

>  <origin>  (22) 
autodockgpu

>  <m_score__min__energy>  (22) 
-8.1600000000000001

>  <m_primary>  (22) 
energy

>  <rmsd>  (22) 
2.4546811336945003

>  <m_score__min__rmsd>  (22) 
2.4546811336945003

>  <meeko>  (22) 
{"free_energy": -7.91, "intermolecular_energy": -9.4, "internal_energy": -1.13, "cluster_size": 20, "cluster_id": 2, "rank_in_cluster": 1}

>  <energy>  (22) 
-7.87

>  <cluster_rmsd>  (22) 
1.0

>  <cluster>  (22) 
2

$$$$

     RDKit          3D

 46 49  0  0  0  0  0  0  0  0999 V2000
  140.0810   72.5400  220.8620 O   0  0  0  0  0  0  0  0  0  0  0  0
  139.8610   72.8640  222.0660 C   0  0  0  0  0  0  0  0  0  0  0  0
  139.5070   74.2200  222.3060 N   0  0  0  0  0  0  0  0  0  0  0  0
  139.4210   75.1270  221.1810 C   0  0  0  0  0  0  0  0  0  0  0  0
  140.7660   75.6940  220.8400 C   0  0  0  0  0  0  0  0  0  0  0  0
  141.8190   75.0290  221.1330 O   0  0  0  0  0  0  0  0  0  0  0  0
  140.8300   76.9570  220.1980 N   0  0  0  0  0  0  0  0  0  0  0  0
  139.8430   77.5240  219.2810 C   0  0  0  0  0  0  0  0  0  0  0  0
  140.4510   78.7640  218.7220 C   0  0  0  0  0  0  0  0  0  0  0  0
  141.9120   78.6660  219.0670 C   0  0  0  0  0  0  0  0  0  0  0  0
  141.8950   77.8970  220.3500 C   0  0  1  0  0  0  0  0  0  0  0  0
  141.8280   78.7320  221.5660 C   0  0  0  0  0  0  0  0  0  0  0  0
  142.1880   80.0610  221.5320 C   0  0  0  0  0  0  0  0  0  0  0  0
  142.1270   80.8320  222.6560 N   0  0  0  0  0  0  0  0  0  0  0  0
  141.7140   80.3150  223.8290 C   0  0  0  0  0  0  0  0  0  0  0  0
  141.3550   79.0180  223.8950 N   0  0  0  0  0  0  0  0  0  0  0  0
  141.4090   78.2310  222.7820 C   0  0  0  0  0  0  0  0  0  0  0  0
  139.9600   71.9160  223.1690 C   0  0  0  0  0  0  0  0  0  0  0  0
  139.5240   70.6120  222.9180 C   0  0  0  0  0  0  0  0  0  0  0  0
  139.5760   69.6460  223.8910 C   0  0  0  0  0  0  0  0  0  0  0  0
  140.0790   70.0250  225.1240 C   0  0  0  0  0  0  0  0  0  0  0  0
  140.1510   69.0840  226.1350 C   0  0  0  0  0  0  0  0  0  0  0  0
  140.6420   69.4030  227.3860 C   0  0  0  0  0  0  0  0  0  0  0  0
  140.7430   68.2280  228.6840 Cl  0  0  0  0  0  0  0  0  0  0  0  0
  141.0650   70.7120  227.5930 C   0  0  0  0  0  0  0  0  0  0  0  0
  141.0060   71.6730  226.6030 C   0  0  0  0  0  0  0  0  0  0  0  0
  140.5110   71.3370  225.3580 C   0  0  0  0  0  0  0  0  0  0  0  0
  140.4420   72.2510  224.3780 N   0  0  0  0  0  0  0  0  0  0  0  0
  139.3170   74.5280  223.3020 H   0  0  0  0  0  0  0  0  0  0  0  0
  139.0296   74.5820  220.3094 H   0  0  0  0  0  0  0  0  0  0  0  0
  138.7510   75.9563  221.4517 H   0  0  0  0  0  0  0  0  0  0  0  0
  139.6212   76.8114  218.4729 H   0  0  0  0  0  0  0  0  0  0  0  0
  138.8972   77.7422  219.7986 H   0  0  0  0  0  0  0  0  0  0  0  0
  140.3125   78.8057  217.6316 H   0  0  0  0  0  0  0  0  0  0  0  0
  139.9882   79.6740  219.1315 H   0  0  0  0  0  0  0  0  0  0  0  0
  142.4684   78.1250  218.2874 H   0  0  0  0  0  0  0  0  0  0  0  0
  142.4078   79.6444  219.1506 H   0  0  0  0  0  0  0  0  0  0  0  0
  142.8506   77.3802  220.5223 H   0  0  0  0  0  0  0  0  0  0  0  0
  142.5293   80.5068  220.5860 H   0  0  0  0  0  0  0  0  0  0  0  0
  141.6700   80.9477  224.7277 H   0  0  0  0  0  0  0  0  0  0  0  0
  141.1122   77.1743  222.8552 H   0  0  0  0  0  0  0  0  0  0  0  0
  139.1322   70.3556  221.9226 H   0  0  0  0  0  0  0  0  0  0  0  0
  139.2339   68.6181  223.7003 H   0  0  0  0  0  0  0  0  0  0  0  0
  139.8091   68.0572  225.9381 H   0  0  0  0  0  0  0  0  0  0  0  0
  141.4606   70.9916  228.5806 H   0  0  0  0  0  0  0  0  0  0  0  0
  141.3505   72.6981  226.8043 H   0  0  0  0  0  0  0  0  0  0  0  0
  1  2  2  0
  2  3  1  0
  3  4  1  0
  4  5  1  0
  5  6  2  0
  5  7  1  0
  7  8  1  0
  8  9  1  0
  9 10  1  0
 10 11  1  0
 11 12  1  0
 12 13  2  0
 13 14  1  0
 14 15  2  0
 15 16  1  0
 16 17  2  0
  2 18  1  0
 18 19  2  0
 19 20  1  0
 20 21  2  0
 21 22  1  0
 22 23  2  0
 23 24  1  0
 23 25  1  0
 25 26  2  0
 26 27  1  0
 27 28  2  0
 11  7  1  0
 17 12  1  0
 28 18  1  0
 27 21  1  0
  3 29  1  0
  4 30  1  0
  4 31  1  0
  8 32  1  0
  8 33  1  0
  9 34  1  0
  9 35  1  0
 10 36  1  0
 10 37  1  0
 11 38  1  1
 13 39  1  0
 15 40  1  0
 17 41  1  0
 19 42  1  0
 20 43  1  0
 22 44  1  0
 25 45  1  0
 26 46  1  0
M  END
>  <smiles>  (23) 
O=C(NCC(=O)N1CCC[C@H]1c1cncnc1)c1ccc2cc(Cl)ccc2n1

>  <score_type>  (23) 
oracle

>  <origin>  (23) 
autodockgpu

>  <m_score__min__energy>  (23) 
-8.1600000000000001

>  <m_primary>  (23) 
energy

>  <rmsd>  (23) 
1.8196710700434051

>  <m_score__min__rmsd>  (23) 
1.8196710700434051

>  <meeko>  (23) 
{"free_energy": -7.96, "intermolecular_energy": -9.45, "internal_energy": -1.16, "cluster_size": 18, "cluster_id": 1, "rank_in_cluster": 13}

>  <energy>  (23) 
-7.86

>  <cluster_rmsd>  (23) 
0.89

>  <cluster>  (23) 
2

$$$$

     RDKit          3D

 46 49  0  0  0  0  0  0  0  0999 V2000
  141.2370   73.4370  220.7440 O   0  0  0  0  0  0  0  0  0  0  0  0
  140.5370   74.2610  221.4020 C   0  0  0  0  0  0  0  0  0  0  0  0
  139.4550   73.7210  222.1520 N   0  0  0  0  0  0  0  0  0  0  0  0
  139.2290   72.2920  222.1170 C   0  0  0  0  0  0  0  0  0  0  0  0
  139.7760   71.6280  223.3450 C   0  0  0  0  0  0  0  0  0  0  0  0
  140.6880   72.2170  224.0210 O   0  0  0  0  0  0  0  0  0  0  0  0
  139.2610   70.3620  223.7220 N   0  0  0  0  0  0  0  0  0  0  0  0
  139.3050   69.1290  222.9350 C   0  0  0  0  0  0  0  0  0  0  0  0
  138.4630   68.1370  223.6600 C   0  0  0  0  0  0  0  0  0  0  0  0
  137.6750   68.9510  224.6500 C   0  0  0  0  0  0  0  0  0  0  0  0
  138.6030   70.0820  224.9580 C   0  0  1  0  0  0  0  0  0  0  0  0
  139.4980   69.8480  226.1080 C   0  0  0  0  0  0  0  0  0  0  0  0
  139.6200   68.5930  226.6640 C   0  0  0  0  0  0  0  0  0  0  0  0
  140.4470   68.3760  227.7280 N   0  0  0  0  0  0  0  0  0  0  0  0
  141.1660   69.3820  228.2620 C   0  0  0  0  0  0  0  0  0  0  0  0
  141.0680   70.6200  227.7410 N   0  0  0  0  0  0  0  0  0  0  0  0
  140.2480   70.8570  226.6780 C   0  0  0  0  0  0  0  0  0  0  0  0
  140.8020   75.6940  221.4080 C   0  0  0  0  0  0  0  0  0  0  0  0
  141.7140   76.1690  220.4610 C   0  0  0  0  0  0  0  0  0  0  0  0
  142.0310   77.5010  220.3850 C   0  0  0  0  0  0  0  0  0  0  0  0
  141.4060   78.3460  221.2870 C   0  0  0  0  0  0  0  0  0  0  0  0
  141.6950   79.6970  221.2470 C   0  0  0  0  0  0  0  0  0  0  0  0
  141.1040   80.5900  222.1210 C   0  0  0  0  0  0  0  0  0  0  0  0
  141.4540   82.3080  222.0900 Cl  0  0  0  0  0  0  0  0  0  0  0  0
  140.2020   80.0750  223.0470 C   0  0  0  0  0  0  0  0  0  0  0  0
  139.8940   78.7300  223.1100 C   0  0  0  0  0  0  0  0  0  0  0  0
  140.4950   77.8540  222.2290 C   0  0  0  0  0  0  0  0  0  0  0  0
  140.2140   76.5410  222.2690 N   0  0  0  0  0  0  0  0  0  0  0  0
  138.8470   74.3800  222.7150 H   0  0  0  0  0  0  0  0  0  0  0  0
  138.1474   72.1008  222.0570 H   0  0  0  0  0  0  0  0  0  0  0  0
  139.7445   71.8785  221.2376 H   0  0  0  0  0  0  0  0  0  0  0  0
  138.9013   69.3063  221.9272 H   0  0  0  0  0  0  0  0  0  0  0  0
  140.3371   68.7667  222.8188 H   0  0  0  0  0  0  0  0  0  0  0  0
  137.7895   67.6173  222.9626 H   0  0  0  0  0  0  0  0  0  0  0  0
  139.0672   67.3593  224.1499 H   0  0  0  0  0  0  0  0  0  0  0  0
  136.7375   69.3168  224.2058 H   0  0  0  0  0  0  0  0  0  0  0  0
  137.3710   68.3809  225.5403 H   0  0  0  0  0  0  0  0  0  0  0  0
  138.0545   70.9652  225.3172 H   0  0  0  0  0  0  0  0  0  0  0  0
  139.0434   67.7552  226.2449 H   0  0  0  0  0  0  0  0  0  0  0  0
  141.8295   69.1935  229.1188 H   0  0  0  0  0  0  0  0  0  0  0  0
  140.1826   71.8746  226.2654 H   0  0  0  0  0  0  0  0  0  0  0  0
  142.1861   75.4611  219.7638 H   0  0  0  0  0  0  0  0  0  0  0  0
  142.7482   77.8806  219.6423 H   0  0  0  0  0  0  0  0  0  0  0  0
  142.4126   80.0706  220.5017 H   0  0  0  0  0  0  0  0  0  0  0  0
  139.7168   80.7638  223.7542 H   0  0  0  0  0  0  0  0  0  0  0  0
  139.1755   78.3601  223.8563 H   0  0  0  0  0  0  0  0  0  0  0  0
  1  2  2  0
  2  3  1  0
  3  4  1  0
  4  5  1  0
  5  6  2  0
  5  7  1  0
  7  8  1  0
  8  9  1  0
  9 10  1  0
 10 11  1  0
 11 12  1  0
 12 13  2  0
 13 14  1  0
 14 15  2  0
 15 16  1  0
 16 17  2  0
  2 18  1  0
 18 19  2  0
 19 20  1  0
 20 21  2  0
 21 22  1  0
 22 23  2  0
 23 24  1  0
 23 25  1  0
 25 26  2  0
 26 27  1  0
 27 28  2  0
 11  7  1  0
 17 12  1  0
 28 18  1  0
 27 21  1  0
  3 29  1  0
  4 30  1  0
  4 31  1  0
  8 32  1  0
  8 33  1  0
  9 34  1  0
  9 35  1  0
 10 36  1  0
 10 37  1  0
 11 38  1  1
 13 39  1  0
 15 40  1  0
 17 41  1  0
 19 42  1  0
 20 43  1  0
 22 44  1  0
 25 45  1  0
 26 46  1  0
M  END
>  <smiles>  (24) 
O=C(NCC(=O)N1CCC[C@H]1c1cncnc1)c1ccc2cc(Cl)ccc2n1

>  <score_type>  (24) 
oracle

>  <origin>  (24) 
autodockgpu

>  <m_score__min__energy>  (24) 
-8.1600000000000001

>  <m_primary>  (24) 
energy

>  <rmsd>  (24) 
8.472203083029846

>  <m_score__min__rmsd>  (24) 
8.472203083029846

>  <meeko>  (24) 
{"free_energy": -7.54, "intermolecular_energy": -9.03, "internal_energy": -1.23, "cluster_size": 3, "cluster_id": 4, "rank_in_cluster": 3}

>  <energy>  (24) 
-7.86

>  <cluster_rmsd>  (24) 
0.88

>  <cluster>  (24) 
2

$$$$

     RDKit          3D

 46 49  0  0  0  0  0  0  0  0999 V2000
  139.8640   72.4120  220.8610 O   0  0  0  0  0  0  0  0  0  0  0  0
  139.7780   72.7660  222.0740 C   0  0  0  0  0  0  0  0  0  0  0  0
  139.5560   74.1490  222.3190 N   0  0  0  0  0  0  0  0  0  0  0  0
  139.4430   75.0470  221.1890 C   0  0  0  0  0  0  0  0  0  0  0  0
  140.0300   76.3900  221.5060 C   0  0  0  0  0  0  0  0  0  0  0  0
  140.0430   76.7970  222.7180 O   0  0  0  0  0  0  0  0  0  0  0  0
  140.5550   77.1710  220.4460 N   0  0  0  0  0  0  0  0  0  0  0  0
  139.9280   77.4230  219.1490 C   0  0  0  0  0  0  0  0  0  0  0  0
  140.9480   78.1180  218.3160 C   0  0  0  0  0  0  0  0  0  0  0  0
  142.2470   77.9160  219.0480 C   0  0  0  0  0  0  0  0  0  0  0  0
  141.8110   77.8520  220.4770 C   0  0  1  0  0  0  0  0  0  0  0  0
  141.8040   79.1520  221.1770 C   0  0  0  0  0  0  0  0  0  0  0  0
  141.5210   80.3170  220.5000 C   0  0  0  0  0  0  0  0  0  0  0  0
  141.5160   81.5190  221.1470 N   0  0  0  0  0  0  0  0  0  0  0  0
  141.7860   81.5980  222.4640 C   0  0  0  0  0  0  0  0  0  0  0  0
  142.0670   80.4750  223.1540 N   0  0  0  0  0  0  0  0  0  0  0  0
  142.0770   79.2650  222.5250 C   0  0  0  0  0  0  0  0  0  0  0  0
  139.8980   71.8250  223.1810 C   0  0  0  0  0  0  0  0  0  0  0  0
  139.4630   70.5180  222.9460 C   0  0  0  0  0  0  0  0  0  0  0  0
  139.5340   69.5590  223.9230 C   0  0  0  0  0  0  0  0  0  0  0  0
  140.0550   69.9480  225.1460 C   0  0  0  0  0  0  0  0  0  0  0  0
  140.1460   69.0140  226.1610 C   0  0  0  0  0  0  0  0  0  0  0  0
  140.6560   69.3420  227.4030 C   0  0  0  0  0  0  0  0  0  0  0  0
  140.7810   68.1760  228.7070 Cl  0  0  0  0  0  0  0  0  0  0  0  0
  141.0780   70.6540  227.5940 C   0  0  0  0  0  0  0  0  0  0  0  0
  140.9990   71.6090  226.5990 C   0  0  0  0  0  0  0  0  0  0  0  0
  140.4860   71.2620  225.3650 C   0  0  0  0  0  0  0  0  0  0  0  0
  140.3980   72.1700  224.3800 N   0  0  0  0  0  0  0  0  0  0  0  0
  139.4790   74.4820  223.3210 H   0  0  0  0  0  0  0  0  0  0  0  0
  139.9786   74.6142  220.3312 H   0  0  0  0  0  0  0  0  0  0  0  0
  138.3768   75.1787  220.9526 H   0  0  0  0  0  0  0  0  0  0  0  0
  139.6347   76.4734  218.6775 H   0  0  0  0  0  0  0  0  0  0  0  0
  139.0192   78.0332  219.2576 H   0  0  0  0  0  0  0  0  0  0  0  0
  140.9963   77.6726  217.3114 H   0  0  0  0  0  0  0  0  0  0  0  0
  140.7126   79.1833  218.1755 H   0  0  0  0  0  0  0  0  0  0  0  0
  142.7349   76.9796  218.7396 H   0  0  0  0  0  0  0  0  0  0  0  0
  142.9867   78.7061  218.8517 H   0  0  0  0  0  0  0  0  0  0  0  0
  142.5377   77.3037  221.0946 H   0  0  0  0  0  0  0  0  0  0  0  0
  141.2960   80.2787  219.4239 H   0  0  0  0  0  0  0  0  0  0  0  0
  141.7772   82.5730  222.9733 H   0  0  0  0  0  0  0  0  0  0  0  0
  142.3077   78.3592  223.1049 H   0  0  0  0  0  0  0  0  0  0  0  0
  139.0561   70.2538  221.9588 H   0  0  0  0  0  0  0  0  0  0  0  0
  139.1931   68.5286  223.7440 H   0  0  0  0  0  0  0  0  0  0  0  0
  139.8043   67.9850  225.9757 H   0  0  0  0  0  0  0  0  0  0  0  0
  141.4895   70.9412  228.5729 H   0  0  0  0  0  0  0  0  0  0  0  0
  141.3418   72.6370  226.7882 H   0  0  0  0  0  0  0  0  0  0  0  0
  1  2  2  0
  2  3  1  0
  3  4  1  0
  4  5  1  0
  5  6  2  0
  5  7  1  0
  7  8  1  0
  8  9  1  0
  9 10  1  0
 10 11  1  0
 11 12  1  0
 12 13  2  0
 13 14  1  0
 14 15  2  0
 15 16  1  0
 16 17  2  0
  2 18  1  0
 18 19  2  0
 19 20  1  0
 20 21  2  0
 21 22  1  0
 22 23  2  0
 23 24  1  0
 23 25  1  0
 25 26  2  0
 26 27  1  0
 27 28  2  0
 11  7  1  0
 17 12  1  0
 28 18  1  0
 27 21  1  0
  3 29  1  0
  4 30  1  0
  4 31  1  0
  8 32  1  0
  8 33  1  0
  9 34  1  0
  9 35  1  0
 10 36  1  0
 10 37  1  0
 11 38  1  1
 13 39  1  0
 15 40  1  0
 17 41  1  0
 19 42  1  0
 20 43  1  0
 22 44  1  0
 25 45  1  0
 26 46  1  0
M  END
>  <smiles>  (25) 
O=C(NCC(=O)N1CCC[C@H]1c1cncnc1)c1ccc2cc(Cl)ccc2n1

>  <score_type>  (25) 
oracle

>  <origin>  (25) 
autodockgpu

>  <m_score__min__energy>  (25) 
-8.1600000000000001

>  <m_primary>  (25) 
energy

>  <rmsd>  (25) 
1.7180345979355858

>  <m_score__min__rmsd>  (25) 
1.7180345979355858

>  <meeko>  (25) 
{"free_energy": -7.79, "intermolecular_energy": -9.28, "internal_energy": -1.4, "cluster_size": 18, "cluster_id": 1, "rank_in_cluster": 16}

>  <energy>  (25) 
-7.85

>  <cluster_rmsd>  (25) 
0.47

>  <cluster>  (25) 
2

$$$$

     RDKit          3D

 46 49  0  0  0  0  0  0  0  0999 V2000
  140.1070   72.2680  220.7550 O   0  0  0  0  0  0  0  0  0  0  0  0
  139.9460   72.6370  221.9550 C   0  0  0  0  0  0  0  0  0  0  0  0
  139.6900   74.0200  222.1660 N   0  0  0  0  0  0  0  0  0  0  0  0
  139.6300   74.9000  221.0190 C   0  0  0  0  0  0  0  0  0  0  0  0
  140.6430   76.0000  221.1270 C   0  0  0  0  0  0  0  0  0  0  0  0
  140.6350   76.7600  222.1550 O   0  0  0  0  0  0  0  0  0  0  0  0
  141.5860   76.1620  220.0810 N   0  0  0  0  0  0  0  0  0  0  0  0
  142.1900   77.4170  219.6330 C   0  0  0  0  0  0  0  0  0  0  0  0
  142.9470   77.0990  218.3900 C   0  0  0  0  0  0  0  0  0  0  0  0
  142.4490   75.7430  217.9710 C   0  0  0  0  0  0  0  0  0  0  0  0
  142.1070   75.1010  219.2780 C   0  0  1  0  0  0  0  0  0  0  0  0
  143.2070   74.3300  219.8920 C   0  0  0  0  0  0  0  0  0  0  0  0
  144.4370   74.9100  220.1150 C   0  0  0  0  0  0  0  0  0  0  0  0
  145.4530   74.1970  220.6810 N   0  0  0  0  0  0  0  0  0  0  0  0
  145.2820   72.9100  221.0370 C   0  0  0  0  0  0  0  0  0  0  0  0
  144.0910   72.3160  220.8320 N   0  0  0  0  0  0  0  0  0  0  0  0
  143.0620   73.0110  220.2670 C   0  0  0  0  0  0  0  0  0  0  0  0
  140.0170   71.7150  223.0810 C   0  0  0  0  0  0  0  0  0  0  0  0
  139.5410   70.4180  222.8630 C   0  0  0  0  0  0  0  0  0  0  0  0
  139.5630   69.4760  223.8590 C   0  0  0  0  0  0  0  0  0  0  0  0
  140.0770   69.8700  225.0830 C   0  0  0  0  0  0  0  0  0  0  0  0
  140.1200   68.9530  226.1170 C   0  0  0  0  0  0  0  0  0  0  0  0
  140.6200   69.2880  227.3610 C   0  0  0  0  0  0  0  0  0  0  0  0
  140.6850   68.1430  228.6870 Cl  0  0  0  0  0  0  0  0  0  0  0  0
  141.0840   70.5880  227.5350 C   0  0  0  0  0  0  0  0  0  0  0  0
  141.0540   71.5250  226.5210 C   0  0  0  0  0  0  0  0  0  0  0  0
  140.5490   71.1730  225.2850 C   0  0  0  0  0  0  0  0  0  0  0  0
  140.5080   72.0650  224.2820 N   0  0  0  0  0  0  0  0  0  0  0  0
  139.5510   74.3660  223.1580 H   0  0  0  0  0  0  0  0  0  0  0  0
  139.8295   74.3165  220.1081 H   0  0  0  0  0  0  0  0  0  0  0  0
  138.6279   75.3517  220.9781 H   0  0  0  0  0  0  0  0  0  0  0  0
  141.4082   78.1616  219.4224 H   0  0  0  0  0  0  0  0  0  0  0  0
  142.8500   77.8399  220.4048 H   0  0  0  0  0  0  0  0  0  0  0  0
  142.7404   77.8457  217.6091 H   0  0  0  0  0  0  0  0  0  0  0  0
  144.0348   77.1088  218.5532 H   0  0  0  0  0  0  0  0  0  0  0  0
  141.5617   75.8279  217.3264 H   0  0  0  0  0  0  0  0  0  0  0  0
  143.1814   75.1715  217.3819 H   0  0  0  0  0  0  0  0  0  0  0  0
  141.3599   74.3038  219.1505 H   0  0  0  0  0  0  0  0  0  0  0  0
  144.6015   75.9605  219.8333 H   0  0  0  0  0  0  0  0  0  0  0  0
  146.1100   72.3471  221.4925 H   0  0  0  0  0  0  0  0  0  0  0  0
  142.0965   72.5087  220.1072 H   0  0  0  0  0  0  0  0  0  0  0  0
  139.1416   70.1487  221.8741 H   0  0  0  0  0  0  0  0  0  0  0  0
  139.1897   68.4546  223.6935 H   0  0  0  0  0  0  0  0  0  0  0  0
  139.7473   67.9324  225.9453 H   0  0  0  0  0  0  0  0  0  0  0  0
  141.4892   70.8799  228.5151 H   0  0  0  0  0  0  0  0  0  0  0  0
  141.4295   72.5439  226.6966 H   0  0  0  0  0  0  0  0  0  0  0  0
  1  2  2  0
  2  3  1  0
  3  4  1  0
  4  5  1  0
  5  6  2  0
  5  7  1  0
  7  8  1  0
  8  9  1  0
  9 10  1  0
 10 11  1  0
 11 12  1  0
 12 13  2  0
 13 14  1  0
 14 15  2  0
 15 16  1  0
 16 17  2  0
  2 18  1  0
 18 19  2  0
 19 20  1  0
 20 21  2  0
 21 22  1  0
 22 23  2  0
 23 24  1  0
 23 25  1  0
 25 26  2  0
 26 27  1  0
 27 28  2  0
 11  7  1  0
 17 12  1  0
 28 18  1  0
 27 21  1  0
  3 29  1  0
  4 30  1  0
  4 31  1  0
  8 32  1  0
  8 33  1  0
  9 34  1  0
  9 35  1  0
 10 36  1  0
 10 37  1  0
 11 38  1  6
 13 39  1  0
 15 40  1  0
 17 41  1  0
 19 42  1  0
 20 43  1  0
 22 44  1  0
 25 45  1  0
 26 46  1  0
M  END
>  <smiles>  (26) 
O=C(NCC(=O)N1CCC[C@H]1c1cncnc1)c1ccc2cc(Cl)ccc2n1

>  <score_type>  (26) 
oracle

>  <origin>  (26) 
autodockgpu

>  <m_score__min__energy>  (26) 
-8.1600000000000001

>  <m_primary>  (26) 
energy

>  <rmsd>  (26) 
2.2516003612754316

>  <m_score__min__rmsd>  (26) 
2.2516003612754316

>  <meeko>  (26) 
{"free_energy": -7.83, "intermolecular_energy": -9.33, "internal_energy": -1.57, "cluster_size": 20, "cluster_id": 2, "rank_in_cluster": 9}

>  <energy>  (26) 
-7.84

>  <cluster_rmsd>  (26) 
0.28

>  <cluster>  (26) 
2

$$$$

     RDKit          3D

 46 49  0  0  0  0  0  0  0  0999 V2000
  140.3650   72.5410  220.8570 O   0  0  0  0  0  0  0  0  0  0  0  0
  140.0410   72.8530  222.0410 C   0  0  0  0  0  0  0  0  0  0  0  0
  139.6190   74.1950  222.2520 N   0  0  0  0  0  0  0  0  0  0  0  0
  139.5870   75.1010  221.1240 C   0  0  0  0  0  0  0  0  0  0  0  0
  140.8290   75.9390  221.0690 C   0  0  0  0  0  0  0  0  0  0  0  0
  141.1260   76.6840  222.0650 O   0  0  0  0  0  0  0  0  0  0  0  0
  141.6410   75.8780  219.9080 N   0  0  0  0  0  0  0  0  0  0  0  0
  142.1230   77.0090  219.1160 C   0  0  0  0  0  0  0  0  0  0  0  0
  142.7550   76.4310  217.8970 C   0  0  0  0  0  0  0  0  0  0  0  0
  142.2900   75.0010  217.8640 C   0  0  0  0  0  0  0  0  0  0  0  0
  142.1280   74.6740  219.3140 C   0  0  1  0  0  0  0  0  0  0  0  0
  143.3290   74.0990  219.9520 C   0  0  0  0  0  0  0  0  0  0  0  0
  144.4260   74.8840  220.2290 C   0  0  0  0  0  0  0  0  0  0  0  0
  145.5370   74.3530  220.8180 N   0  0  0  0  0  0  0  0  0  0  0  0
  145.5900   73.0480  221.1450 C   0  0  0  0  0  0  0  0  0  0  0  0
  144.5320   72.2540  220.8870 N   0  0  0  0  0  0  0  0  0  0  0  0
  143.4130   72.7660  220.2990 C   0  0  0  0  0  0  0  0  0  0  0  0
  140.0890   71.9060  223.1470 C   0  0  0  0  0  0  0  0  0  0  0  0
  139.6070   70.6180  222.8950 C   0  0  0  0  0  0  0  0  0  0  0  0
  139.6090   69.6550  223.8710 C   0  0  0  0  0  0  0  0  0  0  0  0
  140.1090   70.0190  225.1100 C   0  0  0  0  0  0  0  0  0  0  0  0
  140.1310   69.0800  226.1240 C   0  0  0  0  0  0  0  0  0  0  0  0
  140.6160   69.3850  227.3820 C   0  0  0  0  0  0  0  0  0  0  0  0
  140.6540   68.2110  228.6850 Cl  0  0  0  0  0  0  0  0  0  0  0  0
  141.0860   70.6770  227.5900 C   0  0  0  0  0  0  0  0  0  0  0  0
  141.0770   71.6360  226.5960 C   0  0  0  0  0  0  0  0  0  0  0  0
  140.5870   71.3140  225.3460 C   0  0  0  0  0  0  0  0  0  0  0  0
  140.5660   72.2270  224.3620 N   0  0  0  0  0  0  0  0  0  0  0  0
  139.3400   74.4920  223.2300 H   0  0  0  0  0  0  0  0  0  0  0  0
  139.5069   74.5162  220.1958 H   0  0  0  0  0  0  0  0  0  0  0  0
  138.7200   75.7685  221.2367 H   0  0  0  0  0  0  0  0  0  0  0  0
  141.2835   77.6623  218.8358 H   0  0  0  0  0  0  0  0  0  0  0  0
  142.8402   77.6178  219.6861 H   0  0  0  0  0  0  0  0  0  0  0  0
  142.4219   76.9676  216.9964 H   0  0  0  0  0  0  0  0  0  0  0  0
  143.8519   76.5103  217.9208 H   0  0  0  0  0  0  0  0  0  0  0  0
  141.3345   74.9070  217.3271 H   0  0  0  0  0  0  0  0  0  0  0  0
  142.9848   74.3282  217.3400 H   0  0  0  0  0  0  0  0  0  0  0  0
  141.4156   73.8493  219.4633 H   0  0  0  0  0  0  0  0  0  0  0  0
  144.4067   75.9534  219.9722 H   0  0  0  0  0  0  0  0  0  0  0  0
  146.4911   72.6325  221.6197 H   0  0  0  0  0  0  0  0  0  0  0  0
  142.5593   72.1023  220.0971 H   0  0  0  0  0  0  0  0  0  0  0  0
  139.2190   70.3727  221.8953 H   0  0  0  0  0  0  0  0  0  0  0  0
  139.2309   68.6401  223.6787 H   0  0  0  0  0  0  0  0  0  0  0  0
  139.7537   68.0660  225.9252 H   0  0  0  0  0  0  0  0  0  0  0  0
  141.4791   70.9450  228.5818 H   0  0  0  0  0  0  0  0  0  0  0  0
  141.4571   72.6481  226.7986 H   0  0  0  0  0  0  0  0  0  0  0  0
  1  2  2  0
  2  3  1  0
  3  4  1  0
  4  5  1  0
  5  6  2  0
  5  7  1  0
  7  8  1  0
  8  9  1  0
  9 10  1  0
 10 11  1  0
 11 12  1  0
 12 13  2  0
 13 14  1  0
 14 15  2  0
 15 16  1  0
 16 17  2  0
  2 18  1  0
 18 19  2  0
 19 20  1  0
 20 21  2  0
 21 22  1  0
 22 23  2  0
 23 24  1  0
 23 25  1  0
 25 26  2  0
 26 27  1  0
 27 28  2  0
 11  7  1  0
 17 12  1  0
 28 18  1  0
 27 21  1  0
  3 29  1  0
  4 30  1  0
  4 31  1  0
  8 32  1  0
  8 33  1  0
  9 34  1  0
  9 35  1  0
 10 36  1  0
 10 37  1  0
 11 38  1  6
 13 39  1  0
 15 40  1  0
 17 41  1  0
 19 42  1  0
 20 43  1  0
 22 44  1  0
 25 45  1  0
 26 46  1  0
M  END
>  <smiles>  (27) 
O=C(NCC(=O)N1CCC[C@H]1c1cncnc1)c1ccc2cc(Cl)ccc2n1

>  <score_type>  (27) 
oracle

>  <origin>  (27) 
autodockgpu

>  <m_score__min__energy>  (27) 
-8.1600000000000001

>  <m_primary>  (27) 
energy

>  <rmsd>  (27) 
2.2766899852503144

>  <m_score__min__rmsd>  (27) 
2.2766899852503144

>  <meeko>  (27) 
{"free_energy": -7.67, "intermolecular_energy": -9.16, "internal_energy": -1.56, "cluster_size": 20, "cluster_id": 2, "rank_in_cluster": 18}

>  <energy>  (27) 
-7.83

>  <cluster_rmsd>  (27) 
1.04

>  <cluster>  (27) 
2

$$$$

     RDKit          3D

 46 49  0  0  0  0  0  0  0  0999 V2000
  140.0650   72.3140  220.8210 O   0  0  0  0  0  0  0  0  0  0  0  0
  139.8450   72.6590  222.0200 C   0  0  0  0  0  0  0  0  0  0  0  0
  139.4900   74.0200  222.2350 N   0  0  0  0  0  0  0  0  0  0  0  0
  139.4020   74.9060  221.0930 C   0  0  0  0  0  0  0  0  0  0  0  0
  140.1500   76.1810  221.3420 C   0  0  0  0  0  0  0  0  0  0  0  0
  141.4120   76.2190  221.1360 O   0  0  0  0  0  0  0  0  0  0  0  0
  139.4310   77.3140  221.7990 N   0  0  0  0  0  0  0  0  0  0  0  0
  138.2620   77.3140  222.6790 C   0  0  0  0  0  0  0  0  0  0  0  0
  137.7510   78.7120  222.7010 C   0  0  0  0  0  0  0  0  0  0  0  0
  138.4330   79.3910  221.5440 C   0  0  0  0  0  0  0  0  0  0  0  0
  139.7400   78.6680  221.4650 C   0  0  1  0  0  0  0  0  0  0  0  0
  140.8280   79.2780  222.2550 C   0  0  0  0  0  0  0  0  0  0  0  0
  141.5390   80.3520  221.7670 C   0  0  0  0  0  0  0  0  0  0  0  0
  142.5460   80.9150  222.4970 N   0  0  0  0  0  0  0  0  0  0  0  0
  142.8700   80.4370  223.7130 C   0  0  0  0  0  0  0  0  0  0  0  0
  142.1930   79.3870  224.2170 N   0  0  0  0  0  0  0  0  0  0  0  0
  141.1840   78.8110  223.5040 C   0  0  0  0  0  0  0  0  0  0  0  0
  139.9450   71.7320  223.1390 C   0  0  0  0  0  0  0  0  0  0  0  0
  139.4960   70.4270  222.9160 C   0  0  0  0  0  0  0  0  0  0  0  0
  139.5470   69.4800  223.9070 C   0  0  0  0  0  0  0  0  0  0  0  0
  140.0630   69.8780  225.1290 C   0  0  0  0  0  0  0  0  0  0  0  0
  140.1340   68.9550  226.1570 C   0  0  0  0  0  0  0  0  0  0  0  0
  140.6380   69.2940  227.3980 C   0  0  0  0  0  0  0  0  0  0  0  0
  140.7390   68.1430  228.7170 Cl  0  0  0  0  0  0  0  0  0  0  0  0
  141.0730   70.6030  227.5770 C   0  0  0  0  0  0  0  0  0  0  0  0
  141.0140   71.5450  226.5690 C   0  0  0  0  0  0  0  0  0  0  0  0
  140.5070   71.1890  225.3350 C   0  0  0  0  0  0  0  0  0  0  0  0
  140.4380   72.0860  224.3380 N   0  0  0  0  0  0  0  0  0  0  0  0
  139.2980   74.3450  223.2240 H   0  0  0  0  0  0  0  0  0  0  0  0
  139.8313   74.4031  220.2139 H   0  0  0  0  0  0  0  0  0  0  0  0
  138.3434   75.1494  220.9197 H   0  0  0  0  0  0  0  0  0  0  0  0
  137.4914   76.6336  222.2875 H   0  0  0  0  0  0  0  0  0  0  0  0
  138.5247   76.9700  223.6903 H   0  0  0  0  0  0  0  0  0  0  0  0
  136.6590   78.7271  222.5698 H   0  0  0  0  0  0  0  0  0  0  0  0
  137.9589   79.2142  223.6573 H   0  0  0  0  0  0  0  0  0  0  0  0
  137.8553   79.2695  220.6158 H   0  0  0  0  0  0  0  0  0  0  0  0
  138.5416   80.4775  221.6769 H   0  0  0  0  0  0  0  0  0  0  0  0
  140.1737   78.7311  220.4561 H   0  0  0  0  0  0  0  0  0  0  0  0
  141.2923   80.7614  220.7763 H   0  0  0  0  0  0  0  0  0  0  0  0
  143.6825   80.9009  224.2915 H   0  0  0  0  0  0  0  0  0  0  0  0
  140.6419   77.9556  223.9334 H   0  0  0  0  0  0  0  0  0  0  0  0
  139.0948   70.1549  221.9286 H   0  0  0  0  0  0  0  0  0  0  0  0
  139.1943   68.4518  223.7388 H   0  0  0  0  0  0  0  0  0  0  0  0
  139.7812   67.9278  225.9824 H   0  0  0  0  0  0  0  0  0  0  0  0
  141.4783   70.8982  228.5561 H   0  0  0  0  0  0  0  0  0  0  0  0
  141.3682   72.5710  226.7477 H   0  0  0  0  0  0  0  0  0  0  0  0
  1  2  2  0
  2  3  1  0
  3  4  1  0
  4  5  1  0
  5  6  2  0
  5  7  1  0
  7  8  1  0
  8  9  1  0
  9 10  1  0
 10 11  1  0
 11 12  1  0
 12 13  2  0
 13 14  1  0
 14 15  2  0
 15 16  1  0
 16 17  2  0
  2 18  1  0
 18 19  2  0
 19 20  1  0
 20 21  2  0
 21 22  1  0
 22 23  2  0
 23 24  1  0
 23 25  1  0
 25 26  2  0
 26 27  1  0
 27 28  2  0
 11  7  1  0
 17 12  1  0
 28 18  1  0
 27 21  1  0
  3 29  1  0
  4 30  1  0
  4 31  1  0
  8 32  1  0
  8 33  1  0
  9 34  1  0
  9 35  1  0
 10 36  1  0
 10 37  1  0
 11 38  1  6
 13 39  1  0
 15 40  1  0
 17 41  1  0
 19 42  1  0
 20 43  1  0
 22 44  1  0
 25 45  1  0
 26 46  1  0
M  END
>  <smiles>  (28) 
O=C(NCC(=O)N1CCC[C@H]1c1cncnc1)c1ccc2cc(Cl)ccc2n1

>  <score_type>  (28) 
oracle

>  <origin>  (28) 
autodockgpu

>  <m_score__min__energy>  (28) 
-8.1600000000000001

>  <m_primary>  (28) 
energy

>  <rmsd>  (28) 
2.914341911018905

>  <m_score__min__rmsd>  (28) 
2.914341911018905

>  <meeko>  (28) 
{"free_energy": -8.07, "intermolecular_energy": -9.56, "internal_energy": -1.14, "cluster_size": 18, "cluster_id": 1, "rank_in_cluster": 6}

>  <energy>  (28) 
-7.83

>  <cluster_rmsd>  (28) 
1.05

>  <cluster>  (28) 
2

$$$$

     RDKit          3D

 46 49  0  0  0  0  0  0  0  0999 V2000
  140.1170   72.2780  220.7830 O   0  0  0  0  0  0  0  0  0  0  0  0
  139.9520   72.6460  221.9830 C   0  0  0  0  0  0  0  0  0  0  0  0
  139.6850   74.0280  222.1930 N   0  0  0  0  0  0  0  0  0  0  0  0
  139.6190   74.9070  221.0450 C   0  0  0  0  0  0  0  0  0  0  0  0
  140.6630   75.9800  221.1270 C   0  0  0  0  0  0  0  0  0  0  0  0
  140.6920   76.7490  222.1480 O   0  0  0  0  0  0  0  0  0  0  0  0
  141.5920   76.1090  220.0630 N   0  0  0  0  0  0  0  0  0  0  0  0
  142.1660   77.3510  219.5480 C   0  0  0  0  0  0  0  0  0  0  0  0
  142.9170   76.9880  218.3130 C   0  0  0  0  0  0  0  0  0  0  0  0
  142.4420   75.6030  217.9680 C   0  0  0  0  0  0  0  0  0  0  0  0
  142.1260   75.0200  219.3080 C   0  0  1  0  0  0  0  0  0  0  0  0
  143.2460   74.3020  219.9470 C   0  0  0  0  0  0  0  0  0  0  0  0
  143.1170   72.9830  220.3230 C   0  0  0  0  0  0  0  0  0  0  0  0
  144.1530   72.3190  220.9140 N   0  0  0  0  0  0  0  0  0  0  0  0
  145.3280   72.9350  221.1450 C   0  0  0  0  0  0  0  0  0  0  0  0
  145.4850   74.2250  220.7900 N   0  0  0  0  0  0  0  0  0  0  0  0
  144.4620   74.9050  220.1980 C   0  0  0  0  0  0  0  0  0  0  0  0
  140.0270   71.7250  223.1100 C   0  0  0  0  0  0  0  0  0  0  0  0
  139.5570   70.4260  222.8930 C   0  0  0  0  0  0  0  0  0  0  0  0
  139.5840   69.4850  223.8900 C   0  0  0  0  0  0  0  0  0  0  0  0
  140.0970   69.8820  225.1130 C   0  0  0  0  0  0  0  0  0  0  0  0
  140.1450   68.9660  226.1470 C   0  0  0  0  0  0  0  0  0  0  0  0
  140.6450   69.3040  227.3900 C   0  0  0  0  0  0  0  0  0  0  0  0
  140.7160   68.1600  228.7180 Cl  0  0  0  0  0  0  0  0  0  0  0  0
  141.1020   70.6060  227.5640 C   0  0  0  0  0  0  0  0  0  0  0  0
  141.0670   71.5430  226.5490 C   0  0  0  0  0  0  0  0  0  0  0  0
  140.5630   71.1880  225.3140 C   0  0  0  0  0  0  0  0  0  0  0  0
  140.5180   72.0780  224.3100 N   0  0  0  0  0  0  0  0  0  0  0  0
  139.5410   74.3730  223.1840 H   0  0  0  0  0  0  0  0  0  0  0  0
  139.7810   74.3170  220.1308 H   0  0  0  0  0  0  0  0  0  0  0  0
  138.6280   75.3840  221.0263 H   0  0  0  0  0  0  0  0  0  0  0  0
  141.3674   78.0691  219.3102 H   0  0  0  0  0  0  0  0  0  0  0  0
  142.8254   77.8233  220.2910 H   0  0  0  0  0  0  0  0  0  0  0  0
  142.6867   77.6908  217.4987 H   0  0  0  0  0  0  0  0  0  0  0  0
  144.0061   77.0285  218.4621 H   0  0  0  0  0  0  0  0  0  0  0  0
  141.5468   75.6383  217.3298 H   0  0  0  0  0  0  0  0  0  0  0  0
  143.1802   75.0173  217.4005 H   0  0  0  0  0  0  0  0  0  0  0  0
  141.3939   74.2029  219.2280 H   0  0  0  0  0  0  0  0  0  0  0  0
  142.1669   72.4581  220.1447 H   0  0  0  0  0  0  0  0  0  0  0  0
  146.1551   72.3878  221.6210 H   0  0  0  0  0  0  0  0  0  0  0  0
  144.6091   75.9575  219.9141 H   0  0  0  0  0  0  0  0  0  0  0  0
  139.1584   70.1541  221.9045 H   0  0  0  0  0  0  0  0  0  0  0  0
  139.2150   68.4618  223.7256 H   0  0  0  0  0  0  0  0  0  0  0  0
  139.7764   67.9437  225.9763 H   0  0  0  0  0  0  0  0  0  0  0  0
  141.5055   70.9002  228.5441 H   0  0  0  0  0  0  0  0  0  0  0  0
  141.4379   72.5637  226.7238 H   0  0  0  0  0  0  0  0  0  0  0  0
  1  2  2  0
  2  3  1  0
  3  4  1  0
  4  5  1  0
  5  6  2  0
  5  7  1  0
  7  8  1  0
  8  9  1  0
  9 10  1  0
 10 11  1  0
 11 12  1  0
 12 13  2  0
 13 14  1  0
 14 15  2  0
 15 16  1  0
 16 17  2  0
  2 18  1  0
 18 19  2  0
 19 20  1  0
 20 21  2  0
 21 22  1  0
 22 23  2  0
 23 24  1  0
 23 25  1  0
 25 26  2  0
 26 27  1  0
 27 28  2  0
 11  7  1  0
 17 12  1  0
 28 18  1  0
 27 21  1  0
  3 29  1  0
  4 30  1  0
  4 31  1  0
  8 32  1  0
  8 33  1  0
  9 34  1  0
  9 35  1  0
 10 36  1  0
 10 37  1  0
 11 38  1  6
 13 39  1  0
 15 40  1  0
 17 41  1  0
 19 42  1  0
 20 43  1  0
 22 44  1  0
 25 45  1  0
 26 46  1  0
M  END
>  <smiles>  (29) 
O=C(NCC(=O)N1CCC[C@H]1c1cncnc1)c1ccc2cc(Cl)ccc2n1

>  <score_type>  (29) 
oracle

>  <origin>  (29) 
autodockgpu

>  <m_score__min__energy>  (29) 
-8.1600000000000001

>  <m_primary>  (29) 
energy

>  <rmsd>  (29) 
2.2426476837069433

>  <m_score__min__rmsd>  (29) 
2.2426476837069433

>  <meeko>  (29) 
{"free_energy": -7.8, "intermolecular_energy": -9.3, "internal_energy": -1.58, "cluster_size": 20, "cluster_id": 2, "rank_in_cluster": 14}

>  <energy>  (29) 
-7.83

>  <cluster_rmsd>  (29) 
1.05

>  <cluster>  (29) 
2

$$$$

     RDKit          3D

 46 49  0  0  0  0  0  0  0  0999 V2000
  140.6460   72.5510  220.8730 O   0  0  0  0  0  0  0  0  0  0  0  0
  140.1850   72.8500  222.0140 C   0  0  0  0  0  0  0  0  0  0  0  0
  139.6610   74.1630  222.1640 N   0  0  0  0  0  0  0  0  0  0  0  0
  139.6850   75.0570  221.0260 C   0  0  0  0  0  0  0  0  0  0  0  0
  140.8670   75.9780  221.0880 C   0  0  0  0  0  0  0  0  0  0  0  0
  141.0510   76.6910  222.1330 O   0  0  0  0  0  0  0  0  0  0  0  0
  141.7490   76.0280  219.9790 N   0  0  0  0  0  0  0  0  0  0  0  0
  142.2890   77.2300  219.3420 C   0  0  0  0  0  0  0  0  0  0  0  0
  142.9910   76.7740  218.1100 C   0  0  0  0  0  0  0  0  0  0  0  0
  142.5180   75.3620  217.8960 C   0  0  0  0  0  0  0  0  0  0  0  0
  142.2640   74.8860  219.2910 C   0  0  1  0  0  0  0  0  0  0  0  0
  143.4180   74.2300  219.9370 C   0  0  0  0  0  0  0  0  0  0  0  0
  144.5220   74.9600  220.3200 C   0  0  0  0  0  0  0  0  0  0  0  0
  145.5890   74.3540  220.9160 N   0  0  0  0  0  0  0  0  0  0  0  0
  145.5920   73.0270  221.1470 C   0  0  0  0  0  0  0  0  0  0  0  0
  144.5270   72.2870  220.7840 N   0  0  0  0  0  0  0  0  0  0  0  0
  143.4500   72.8740  220.1870 C   0  0  0  0  0  0  0  0  0  0  0  0
  140.1810   71.9160  223.1330 C   0  0  0  0  0  0  0  0  0  0  0  0
  139.6330   70.6520  222.8960 C   0  0  0  0  0  0  0  0  0  0  0  0
  139.5820   69.7030  223.8850 C   0  0  0  0  0  0  0  0  0  0  0  0
  140.0980   70.0570  225.1200 C   0  0  0  0  0  0  0  0  0  0  0  0
  140.0690   69.1310  226.1470 C   0  0  0  0  0  0  0  0  0  0  0  0
  140.5670   69.4260  227.4020 C   0  0  0  0  0  0  0  0  0  0  0  0
  140.5410   68.2700  228.7200 Cl  0  0  0  0  0  0  0  0  0  0  0  0
  141.1030   70.6950  227.5940 C   0  0  0  0  0  0  0  0  0  0  0  0
  141.1460   71.6400  226.5880 C   0  0  0  0  0  0  0  0  0  0  0  0
  140.6430   71.3280  225.3410 C   0  0  0  0  0  0  0  0  0  0  0  0
  140.6720   72.2280  224.3450 N   0  0  0  0  0  0  0  0  0  0  0  0
  139.2670   74.4500  223.1050 H   0  0  0  0  0  0  0  0  0  0  0  0
  139.7413   74.4618  220.1027 H   0  0  0  0  0  0  0  0  0  0  0  0
  138.7678   75.6641  221.0392 H   0  0  0  0  0  0  0  0  0  0  0  0
  141.4740   77.9214  219.0816 H   0  0  0  0  0  0  0  0  0  0  0  0
  142.9739   77.7651  220.0162 H   0  0  0  0  0  0  0  0  0  0  0  0
  142.7193   77.4074  217.2527 H   0  0  0  0  0  0  0  0  0  0  0  0
  144.0848   76.8339  218.2101 H   0  0  0  0  0  0  0  0  0  0  0  0
  141.5970   75.3389  217.2950 H   0  0  0  0  0  0  0  0  0  0  0  0
  143.2385   74.7386  217.3462 H   0  0  0  0  0  0  0  0  0  0  0  0
  141.5381   74.0597  219.3078 H   0  0  0  0  0  0  0  0  0  0  0  0
  144.5433   76.0454  220.1429 H   0  0  0  0  0  0  0  0  0  0  0  0
  146.4586   72.5509  221.6290 H   0  0  0  0  0  0  0  0  0  0  0  0
  142.5891   72.2529  219.8990 H   0  0  0  0  0  0  0  0  0  0  0  0
  139.2355   70.4141  221.8983 H   0  0  0  0  0  0  0  0  0  0  0  0
  139.1512   68.7070  223.7053 H   0  0  0  0  0  0  0  0  0  0  0  0
  139.6392   68.1358  225.9604 H   0  0  0  0  0  0  0  0  0  0  0  0
  141.5074   70.9553  228.5833 H   0  0  0  0  0  0  0  0  0  0  0  0
  141.5777   72.6336  226.7789 H   0  0  0  0  0  0  0  0  0  0  0  0
  1  2  2  0
  2  3  1  0
  3  4  1  0
  4  5  1  0
  5  6  2  0
  5  7  1  0
  7  8  1  0
  8  9  1  0
  9 10  1  0
 10 11  1  0
 11 12  1  0
 12 13  2  0
 13 14  1  0
 14 15  2  0
 15 16  1  0
 16 17  2  0
  2 18  1  0
 18 19  2  0
 19 20  1  0
 20 21  2  0
 21 22  1  0
 22 23  2  0
 23 24  1  0
 23 25  1  0
 25 26  2  0
 26 27  1  0
 27 28  2  0
 11  7  1  0
 17 12  1  0
 28 18  1  0
 27 21  1  0
  3 29  1  0
  4 30  1  0
  4 31  1  0
  8 32  1  0
  8 33  1  0
  9 34  1  0
  9 35  1  0
 10 36  1  0
 10 37  1  0
 11 38  1  6
 13 39  1  0
 15 40  1  0
 17 41  1  0
 19 42  1  0
 20 43  1  0
 22 44  1  0
 25 45  1  0
 26 46  1  0
M  END
>  <smiles>  (30) 
O=C(NCC(=O)N1CCC[C@H]1c1cncnc1)c1ccc2cc(Cl)ccc2n1

>  <score_type>  (30) 
oracle

>  <origin>  (30) 
autodockgpu

>  <m_score__min__energy>  (30) 
-8.1600000000000001

>  <m_primary>  (30) 
energy

>  <rmsd>  (30) 
2.340237765226919

>  <m_score__min__rmsd>  (30) 
2.340237765226919

>  <meeko>  (30) 
{"free_energy": -7.8, "intermolecular_energy": -9.29, "internal_energy": -1.49, "cluster_size": 20, "cluster_id": 2, "rank_in_cluster": 15}

>  <energy>  (30) 
-7.82

>  <cluster_rmsd>  (30) 
1.06

>  <cluster>  (30) 
2

$$$$

     RDKit          3D

 46 49  0  0  0  0  0  0  0  0999 V2000
  138.4320   73.0700  222.1480 O   0  0  0  0  0  0  0  0  0  0  0  0
  139.5570   72.5550  222.4180 C   0  0  0  0  0  0  0  0  0  0  0  0
  140.6400   72.9090  221.5660 N   0  0  0  0  0  0  0  0  0  0  0  0
  140.3930   73.8190  220.4680 C   0  0  0  0  0  0  0  0  0  0  0  0
  141.1170   75.1160  220.6690 C   0  0  0  0  0  0  0  0  0  0  0  0
  140.9620   75.7580  221.7640 O   0  0  0  0  0  0  0  0  0  0  0  0
  141.9590   75.5940  219.6320 N   0  0  0  0  0  0  0  0  0  0  0  0
  142.2460   76.9910  219.3110 C   0  0  0  0  0  0  0  0  0  0  0  0
  143.0080   76.9810  218.0300 C   0  0  0  0  0  0  0  0  0  0  0  0
  142.8160   75.5950  217.4780 C   0  0  0  0  0  0  0  0  0  0  0  0
  142.6770   74.7650  218.7150 C   0  0  1  0  0  0  0  0  0  0  0  0
  143.9440   74.2100  219.2290 C   0  0  0  0  0  0  0  0  0  0  0  0
  144.3810   74.5070  220.5020 C   0  0  0  0  0  0  0  0  0  0  0  0
  145.5530   73.9950  220.9770 N   0  0  0  0  0  0  0  0  0  0  0  0
  146.3140   73.1850  220.2160 C   0  0  0  0  0  0  0  0  0  0  0  0
  145.9140   72.8770  218.9670 N   0  0  0  0  0  0  0  0  0  0  0  0
  144.7460   73.3790  218.4740 C   0  0  0  0  0  0  0  0  0  0  0  0
  139.7590   71.6420  223.5360 C   0  0  0  0  0  0  0  0  0  0  0  0
  139.3920   70.3080  223.3330 C   0  0  0  0  0  0  0  0  0  0  0  0
  139.5430   69.3720  224.3230 C   0  0  0  0  0  0  0  0  0  0  0  0
  140.0740   69.8100  225.5240 C   0  0  0  0  0  0  0  0  0  0  0  0
  140.2440   68.8990  226.5510 C   0  0  0  0  0  0  0  0  0  0  0  0
  140.7670   69.2770  227.7730 C   0  0  0  0  0  0  0  0  0  0  0  0
  140.9930   68.1420  229.0910 Cl  0  0  0  0  0  0  0  0  0  0  0  0
  141.1200   70.6130  227.9330 C   0  0  0  0  0  0  0  0  0  0  0  0
  140.9610   71.5450  226.9250 C   0  0  0  0  0  0  0  0  0  0  0  0
  140.4350   71.1490  225.7110 C   0  0  0  0  0  0  0  0  0  0  0  0
  140.2700   72.0340  224.7150 N   0  0  0  0  0  0  0  0  0  0  0  0
  141.5960   72.4970  221.7610 H   0  0  0  0  0  0  0  0  0  0  0  0
  140.7392   73.3555  219.5324 H   0  0  0  0  0  0  0  0  0  0  0  0
  139.3135   74.0250  220.4210 H   0  0  0  0  0  0  0  0  0  0  0  0
  141.3087   77.5541  219.1916 H   0  0  0  0  0  0  0  0  0  0  0  0
  142.8223   77.4741  220.1138 H   0  0  0  0  0  0  0  0  0  0  0  0
  142.6071   77.7336  217.3351 H   0  0  0  0  0  0  0  0  0  0  0  0
  144.0704   77.2251  218.1775 H   0  0  0  0  0  0  0  0  0  0  0  0
  141.9095   75.5372  216.8575 H   0  0  0  0  0  0  0  0  0  0  0  0
  143.6371   75.2683  216.8229 H   0  0  0  0  0  0  0  0  0  0  0  0
  142.1258   73.8343  218.5150 H   0  0  0  0  0  0  0  0  0  0  0  0
  143.7769   75.1655  221.1434 H   0  0  0  0  0  0  0  0  0  0  0  0
  147.2560   72.7776  220.6118 H   0  0  0  0  0  0  0  0  0  0  0  0
  144.4363   73.1157  217.4519 H   0  0  0  0  0  0  0  0  0  0  0  0
  138.9747   70.0043  222.3616 H   0  0  0  0  0  0  0  0  0  0  0  0
  139.2555   68.3213  224.1701 H   0  0  0  0  0  0  0  0  0  0  0  0
  139.9562   67.8494  226.3913 H   0  0  0  0  0  0  0  0  0  0  0  0
  141.5405   70.9391  228.8957 H   0  0  0  0  0  0  0  0  0  0  0  0
  141.2510   72.5935  227.0883 H   0  0  0  0  0  0  0  0  0  0  0  0
  1  2  2  0
  2  3  1  0
  3  4  1  0
  4  5  1  0
  5  6  2  0
  5  7  1  0
  7  8  1  0
  8  9  1  0
  9 10  1  0
 10 11  1  0
 11 12  1  0
 12 13  2  0
 13 14  1  0
 14 15  2  0
 15 16  1  0
 16 17  2  0
  2 18  1  0
 18 19  2  0
 19 20  1  0
 20 21  2  0
 21 22  1  0
 22 23  2  0
 23 24  1  0
 23 25  1  0
 25 26  2  0
 26 27  1  0
 27 28  2  0
 11  7  1  0
 17 12  1  0
 28 18  1  0
 27 21  1  0
  3 29  1  0
  4 30  1  0
  4 31  1  0
  8 32  1  0
  8 33  1  0
  9 34  1  0
  9 35  1  0
 10 36  1  0
 10 37  1  0
 11 38  1  6
 13 39  1  0
 15 40  1  0
 17 41  1  0
 19 42  1  0
 20 43  1  0
 22 44  1  0
 25 45  1  0
 26 46  1  0
M  END
>  <smiles>  (31) 
O=C(NCC(=O)N1CCC[C@H]1c1cncnc1)c1ccc2cc(Cl)ccc2n1

>  <score_type>  (31) 
oracle

>  <origin>  (31) 
autodockgpu

>  <m_score__min__energy>  (31) 
-8.1600000000000001

>  <m_primary>  (31) 
energy

>  <rmsd>  (31) 
2.3879388096088494

>  <m_score__min__rmsd>  (31) 
2.3879388096088494

>  <meeko>  (31) 
{"free_energy": -7.84, "intermolecular_energy": -9.33, "internal_energy": -1.07, "cluster_size": 20, "cluster_id": 2, "rank_in_cluster": 8}

>  <energy>  (31) 
-7.82

>  <cluster_rmsd>  (31) 
1.06

>  <cluster>  (31) 
2

$$$$

     RDKit          3D

 46 49  0  0  0  0  0  0  0  0999 V2000
  140.0710   72.4710  220.8430 O   0  0  0  0  0  0  0  0  0  0  0  0
  139.8570   72.8050  222.0460 C   0  0  0  0  0  0  0  0  0  0  0  0
  139.5070   74.1650  222.2750 N   0  0  0  0  0  0  0  0  0  0  0  0
  139.4200   75.0620  221.1420 C   0  0  0  0  0  0  0  0  0  0  0  0
  139.4550   76.4940  221.5840 C   0  0  0  0  0  0  0  0  0  0  0  0
  138.9060   76.8220  222.6910 O   0  0  0  0  0  0  0  0  0  0  0  0
  140.1030   77.4460  220.7560 N   0  0  0  0  0  0  0  0  0  0  0  0
  139.5050   78.1990  219.6530 C   0  0  0  0  0  0  0  0  0  0  0  0
  140.6240   78.9060  218.9710 C   0  0  0  0  0  0  0  0  0  0  0  0
  141.8720   78.2450  219.4890 C   0  0  0  0  0  0  0  0  0  0  0  0
  141.4740   77.8310  220.8700 C   0  0  1  0  0  0  0  0  0  0  0  0
  141.7620   78.8290  221.9190 C   0  0  0  0  0  0  0  0  0  0  0  0
  142.1860   80.0980  221.5880 C   0  0  0  0  0  0  0  0  0  0  0  0
  142.4530   81.0200  222.5580 N   0  0  0  0  0  0  0  0  0  0  0  0
  142.3090   80.7170  223.8620 C   0  0  0  0  0  0  0  0  0  0  0  0
  141.8960   79.4850  224.2160 N   0  0  0  0  0  0  0  0  0  0  0  0
  141.6240   78.5490  223.2630 C   0  0  0  0  0  0  0  0  0  0  0  0
  139.9570   71.8670  223.1560 C   0  0  0  0  0  0  0  0  0  0  0  0
  139.5120   70.5630  222.9190 C   0  0  0  0  0  0  0  0  0  0  0  0
  139.5640   69.6050  223.9000 C   0  0  0  0  0  0  0  0  0  0  0  0
  140.0760   69.9930  225.1270 C   0  0  0  0  0  0  0  0  0  0  0  0
  140.1480   69.0600  226.1450 C   0  0  0  0  0  0  0  0  0  0  0  0
  140.6470   69.3870  227.3920 C   0  0  0  0  0  0  0  0  0  0  0  0
  140.7490   68.2230  228.6990 Cl  0  0  0  0  0  0  0  0  0  0  0  0
  141.0780   70.6960  227.5850 C   0  0  0  0  0  0  0  0  0  0  0  0
  141.0190   71.6490  226.5860 C   0  0  0  0  0  0  0  0  0  0  0  0
  140.5160   71.3040  225.3470 C   0  0  0  0  0  0  0  0  0  0  0  0
  140.4460   72.2100  224.3590 N   0  0  0  0  0  0  0  0  0  0  0  0
  139.3210   74.4820  223.2680 H   0  0  0  0  0  0  0  0  0  0  0  0
  140.2686   74.8731  220.4681 H   0  0  0  0  0  0  0  0  0  0  0  0
  138.4670   74.8793  220.6239 H   0  0  0  0  0  0  0  0  0  0  0  0
  139.0044   77.5145  218.9525 H   0  0  0  0  0  0  0  0  0  0  0  0
  138.7488   78.9091  220.0189 H   0  0  0  0  0  0  0  0  0  0  0  0
  140.5482   78.7886  217.8799 H   0  0  0  0  0  0  0  0  0  0  0  0
  140.6142   79.9875  219.1717 H   0  0  0  0  0  0  0  0  0  0  0  0
  142.1430   77.3729  218.8758 H   0  0  0  0  0  0  0  0  0  0  0  0
  142.7552   78.9003  219.4666 H   0  0  0  0  0  0  0  0  0  0  0  0
  142.0867   76.9912  221.2296 H   0  0  0  0  0  0  0  0  0  0  0  0
  142.3106   80.3707  220.5297 H   0  0  0  0  0  0  0  0  0  0  0  0
  142.5272   81.4707  224.6330 H   0  0  0  0  0  0  0  0  0  0  0  0
  141.2871   77.5486  223.5723 H   0  0  0  0  0  0  0  0  0  0  0  0
  139.1130   70.3003  221.9282 H   0  0  0  0  0  0  0  0  0  0  0  0
  139.2155   68.5773  223.7204 H   0  0  0  0  0  0  0  0  0  0  0  0
  139.8000   68.0334  225.9582 H   0  0  0  0  0  0  0  0  0  0  0  0
  141.4801   70.9824  228.5680 H   0  0  0  0  0  0  0  0  0  0  0  0
  141.3698   72.6741  226.7762 H   0  0  0  0  0  0  0  0  0  0  0  0
  1  2  2  0
  2  3  1  0
  3  4  1  0
  4  5  1  0
  5  6  2  0
  5  7  1  0
  7  8  1  0
  8  9  1  0
  9 10  1  0
 10 11  1  0
 11 12  1  0
 12 13  2  0
 13 14  1  0
 14 15  2  0
 15 16  1  0
 16 17  2  0
  2 18  1  0
 18 19  2  0
 19 20  1  0
 20 21  2  0
 21 22  1  0
 22 23  2  0
 23 24  1  0
 23 25  1  0
 25 26  2  0
 26 27  1  0
 27 28  2  0
 11  7  1  0
 17 12  1  0
 28 18  1  0
 27 21  1  0
  3 29  1  0
  4 30  1  0
  4 31  1  0
  8 32  1  0
  8 33  1  0
  9 34  1  0
  9 35  1  0
 10 36  1  0
 10 37  1  0
 11 38  1  1
 13 39  1  0
 15 40  1  0
 17 41  1  0
 19 42  1  0
 20 43  1  0
 22 44  1  0
 25 45  1  0
 26 46  1  0
M  END
>  <smiles>  (32) 
O=C(NCC(=O)N1CCC[C@H]1c1cncnc1)c1ccc2cc(Cl)ccc2n1

>  <score_type>  (32) 
oracle

>  <origin>  (32) 
autodockgpu

>  <m_score__min__energy>  (32) 
-8.1600000000000001

>  <m_primary>  (32) 
energy

>  <rmsd>  (32) 
1.9739646437946383

>  <m_score__min__rmsd>  (32) 
1.9739646437946383

>  <meeko>  (32) 
{"free_energy": -8.16, "intermolecular_energy": -9.65, "internal_energy": -1.41, "cluster_size": 18, "cluster_id": 1, "rank_in_cluster": 1}

>  <energy>  (32) 
-7.8

>  <cluster_rmsd>  (32) 
1.03

>  <cluster>  (32) 
2

$$$$

     RDKit          3D

 46 49  0  0  0  0  0  0  0  0999 V2000
  140.0640   72.1830  220.7250 O   0  0  0  0  0  0  0  0  0  0  0  0
  139.9280   72.5730  221.9220 C   0  0  0  0  0  0  0  0  0  0  0  0
  139.6880   73.9610  222.1160 N   0  0  0  0  0  0  0  0  0  0  0  0
  139.6150   74.8240  220.9560 C   0  0  0  0  0  0  0  0  0  0  0  0
  140.5400   75.9960  221.0950 C   0  0  0  0  0  0  0  0  0  0  0  0
  140.4240   76.7680  222.1080 O   0  0  0  0  0  0  0  0  0  0  0  0
  141.5210   76.2120  220.0950 N   0  0  0  0  0  0  0  0  0  0  0  0
  142.1330   77.4890  219.7290 C   0  0  0  0  0  0  0  0  0  0  0  0
  142.9390   77.2340  218.5030 C   0  0  0  0  0  0  0  0  0  0  0  0
  142.4680   75.8960  218.0030 C   0  0  0  0  0  0  0  0  0  0  0  0
  142.0800   75.1930  219.2650 C   0  0  1  0  0  0  0  0  0  0  0  0
  143.1610   74.4000  219.8840 C   0  0  0  0  0  0  0  0  0  0  0  0
  144.4050   74.9510  220.1010 C   0  0  0  0  0  0  0  0  0  0  0  0
  145.4040   74.2180  220.6720 N   0  0  0  0  0  0  0  0  0  0  0  0
  145.2020   72.9380  221.0400 C   0  0  0  0  0  0  0  0  0  0  0  0
  143.9960   72.3720  220.8400 N   0  0  0  0  0  0  0  0  0  0  0  0
  142.9840   73.0870  220.2710 C   0  0  0  0  0  0  0  0  0  0  0  0
  140.0090   71.6670  223.0610 C   0  0  0  0  0  0  0  0  0  0  0  0
  139.5410   70.3650  222.8640 C   0  0  0  0  0  0  0  0  0  0  0  0
  139.5740   69.4370  223.8740 C   0  0  0  0  0  0  0  0  0  0  0  0
  140.0910   69.8530  225.0890 C   0  0  0  0  0  0  0  0  0  0  0  0
  140.1450   68.9510  226.1360 C   0  0  0  0  0  0  0  0  0  0  0  0
  140.6490   69.3070  227.3720 C   0  0  0  0  0  0  0  0  0  0  0  0
  140.7270   68.1820  228.7150 Cl  0  0  0  0  0  0  0  0  0  0  0  0
  141.1040   70.6130  227.5260 C   0  0  0  0  0  0  0  0  0  0  0  0
  141.0630   71.5350  226.4980 C   0  0  0  0  0  0  0  0  0  0  0  0
  140.5550   71.1620  225.2700 C   0  0  0  0  0  0  0  0  0  0  0  0
  140.5040   72.0380  224.2540 N   0  0  0  0  0  0  0  0  0  0  0  0
  139.5690   74.3240  223.1040 H   0  0  0  0  0  0  0  0  0  0  0  0
  139.8965   74.2484  220.0619 H   0  0  0  0  0  0  0  0  0  0  0  0
  138.5855   75.2007  220.8655 H   0  0  0  0  0  0  0  0  0  0  0  0
  141.3547   78.2386  219.5233 H   0  0  0  0  0  0  0  0  0  0  0  0
  142.7604   77.8783  220.5444 H   0  0  0  0  0  0  0  0  0  0  0  0
  142.7563   78.0149  217.7501 H   0  0  0  0  0  0  0  0  0  0  0  0
  144.0197   77.2430  218.7080 H   0  0  0  0  0  0  0  0  0  0  0  0
  141.6060   76.0054  217.3285 H   0  0  0  0  0  0  0  0  0  0  0  0
  143.2270   75.3563  217.4176 H   0  0  0  0  0  0  0  0  0  0  0  0
  141.3432   74.3992  219.0727 H   0  0  0  0  0  0  0  0  0  0  0  0
  144.5951   75.9947  219.8103 H   0  0  0  0  0  0  0  0  0  0  0  0
  146.0160   72.3590  221.5006 H   0  0  0  0  0  0  0  0  0  0  0  0
  142.0061   72.6074  220.1172 H   0  0  0  0  0  0  0  0  0  0  0  0
  139.1387   70.0789  221.8810 H   0  0  0  0  0  0  0  0  0  0  0  0
  139.2070   68.4107  223.7254 H   0  0  0  0  0  0  0  0  0  0  0  0
  139.7779   67.9257  225.9809 H   0  0  0  0  0  0  0  0  0  0  0  0
  141.5105   70.9220  228.5003 H   0  0  0  0  0  0  0  0  0  0  0  0
  141.4325   72.5588  226.6569 H   0  0  0  0  0  0  0  0  0  0  0  0
  1  2  2  0
  2  3  1  0
  3  4  1  0
  4  5  1  0
  5  6  2  0
  5  7  1  0
  7  8  1  0
  8  9  1  0
  9 10  1  0
 10 11  1  0
 11 12  1  0
 12 13  2  0
 13 14  1  0
 14 15  2  0
 15 16  1  0
 16 17  2  0
  2 18  1  0
 18 19  2  0
 19 20  1  0
 20 21  2  0
 21 22  1  0
 22 23  2  0
 23 24  1  0
 23 25  1  0
 25 26  2  0
 26 27  1  0
 27 28  2  0
 11  7  1  0
 17 12  1  0
 28 18  1  0
 27 21  1  0
  3 29  1  0
  4 30  1  0
  4 31  1  0
  8 32  1  0
  8 33  1  0
  9 34  1  0
  9 35  1  0
 10 36  1  0
 10 37  1  0
 11 38  1  6
 13 39  1  0
 15 40  1  0
 17 41  1  0
 19 42  1  0
 20 43  1  0
 22 44  1  0
 25 45  1  0
 26 46  1  0
M  END
>  <smiles>  (33) 
O=C(NCC(=O)N1CCC[C@H]1c1cncnc1)c1ccc2cc(Cl)ccc2n1

>  <score_type>  (33) 
oracle

>  <origin>  (33) 
autodockgpu

>  <m_score__min__energy>  (33) 
-8.1600000000000001

>  <m_primary>  (33) 
energy

>  <rmsd>  (33) 
2.234231006380663

>  <m_score__min__rmsd>  (33) 
2.234231006380663

>  <meeko>  (33) 
{"free_energy": -7.83, "intermolecular_energy": -9.32, "internal_energy": -1.58, "cluster_size": 20, "cluster_id": 2, "rank_in_cluster": 10}

>  <energy>  (33) 
-7.8

>  <cluster_rmsd>  (33) 
1.05

>  <cluster>  (33) 
2

$$$$

     RDKit          3D

 46 49  0  0  0  0  0  0  0  0999 V2000
  140.7970   72.3290  220.7070 O   0  0  0  0  0  0  0  0  0  0  0  0
  140.3300   72.7060  221.8220 C   0  0  0  0  0  0  0  0  0  0  0  0
  139.8620   74.0470  221.8950 N   0  0  0  0  0  0  0  0  0  0  0  0
  139.9450   74.8790  220.7140 C   0  0  0  0  0  0  0  0  0  0  0  0
  141.1440   75.7780  220.7700 C   0  0  0  0  0  0  0  0  0  0  0  0
  141.4120   76.3970  221.8560 O   0  0  0  0  0  0  0  0  0  0  0  0
  141.9480   75.9130  219.6100 N   0  0  0  0  0  0  0  0  0  0  0  0
  142.3940   77.1630  218.9940 C   0  0  0  0  0  0  0  0  0  0  0  0
  143.0320   76.7910  217.7000 C   0  0  0  0  0  0  0  0  0  0  0  0
  142.6040   75.3700  217.4550 C   0  0  0  0  0  0  0  0  0  0  0  0
  142.4630   74.8250  218.8410 C   0  0  1  0  0  0  0  0  0  0  0  0
  143.6830   74.1940  219.3810 C   0  0  0  0  0  0  0  0  0  0  0  0
  144.6190   73.6310  218.5410 C   0  0  0  0  0  0  0  0  0  0  0  0
  145.7460   73.0480  219.0410 N   0  0  0  0  0  0  0  0  0  0  0  0
  145.9760   73.0060  220.3670 C   0  0  0  0  0  0  0  0  0  0  0  0
  145.0790   73.5480  221.2140 N   0  0  0  0  0  0  0  0  0  0  0  0
  143.9460   74.1360  220.7350 C   0  0  0  0  0  0  0  0  0  0  0  0
  140.2660   71.8320  222.9870 C   0  0  0  0  0  0  0  0  0  0  0  0
  139.6990   70.5690  222.7950 C   0  0  0  0  0  0  0  0  0  0  0  0
  139.5920   69.6740  223.8290 C   0  0  0  0  0  0  0  0  0  0  0  0
  140.0720   70.0810  225.0620 C   0  0  0  0  0  0  0  0  0  0  0  0
  139.9860   69.2110  226.1330 C   0  0  0  0  0  0  0  0  0  0  0  0
  140.4460   69.5610  227.3890 C   0  0  0  0  0  0  0  0  0  0  0  0
  140.3480   68.4750  228.7630 Cl  0  0  0  0  0  0  0  0  0  0  0  0
  141.0040   70.8270  227.5350 C   0  0  0  0  0  0  0  0  0  0  0  0
  141.1030   71.7170  226.4840 C   0  0  0  0  0  0  0  0  0  0  0  0
  140.6370   71.3510  225.2370 C   0  0  0  0  0  0  0  0  0  0  0  0
  140.7210   72.1960  224.1980 N   0  0  0  0  0  0  0  0  0  0  0  0
  139.4650   74.3980  222.8120 H   0  0  0  0  0  0  0  0  0  0  0  0
  140.0201   74.2350  219.8254 H   0  0  0  0  0  0  0  0  0  0  0  0
  139.0415   75.5044  220.6631 H   0  0  0  0  0  0  0  0  0  0  0  0
  141.5354   77.8275  218.8175 H   0  0  0  0  0  0  0  0  0  0  0  0
  143.0990   77.6993  219.6462 H   0  0  0  0  0  0  0  0  0  0  0  0
  142.6785   77.4471  216.8909 H   0  0  0  0  0  0  0  0  0  0  0  0
  144.1266   76.8953  217.7316 H   0  0  0  0  0  0  0  0  0  0  0  0
  141.6467   75.3317  216.9145 H   0  0  0  0  0  0  0  0  0  0  0  0
  143.3115   74.8023  216.8328 H   0  0  0  0  0  0  0  0  0  0  0  0
  141.7749   73.9673  218.8683 H   0  0  0  0  0  0  0  0  0  0  0  0
  144.4552   73.6520  217.4535 H   0  0  0  0  0  0  0  0  0  0  0  0
  146.8895   72.5327  220.7561 H   0  0  0  0  0  0  0  0  0  0  0  0
  143.2262   74.5735  221.4424 H   0  0  0  0  0  0  0  0  0  0  0  0
  139.3320   70.2877  221.7969 H   0  0  0  0  0  0  0  0  0  0  0  0
  139.1455   68.6791  223.6851 H   0  0  0  0  0  0  0  0  0  0  0  0
  139.5409   68.2164  225.9823 H   0  0  0  0  0  0  0  0  0  0  0  0
  141.3799   71.1299  228.5234 H   0  0  0  0  0  0  0  0  0  0  0  0
  141.5498   72.7101  226.6391 H   0  0  0  0  0  0  0  0  0  0  0  0
  1  2  2  0
  2  3  1  0
  3  4  1  0
  4  5  1  0
  5  6  2  0
  5  7  1  0
  7  8  1  0
  8  9  1  0
  9 10  1  0
 10 11  1  0
 11 12  1  0
 12 13  2  0
 13 14  1  0
 14 15  2  0
 15 16  1  0
 16 17  2  0
  2 18  1  0
 18 19  2  0
 19 20  1  0
 20 21  2  0
 21 22  1  0
 22 23  2  0
 23 24  1  0
 23 25  1  0
 25 26  2  0
 26 27  1  0
 27 28  2  0
 11  7  1  0
 17 12  1  0
 28 18  1  0
 27 21  1  0
  3 29  1  0
  4 30  1  0
  4 31  1  0
  8 32  1  0
  8 33  1  0
  9 34  1  0
  9 35  1  0
 10 36  1  0
 10 37  1  0
 11 38  1  6
 13 39  1  0
 15 40  1  0
 17 41  1  0
 19 42  1  0
 20 43  1  0
 22 44  1  0
 25 45  1  0
 26 46  1  0
M  END
>  <smiles>  (34) 
O=C(NCC(=O)N1CCC[C@H]1c1cncnc1)c1ccc2cc(Cl)ccc2n1

>  <score_type>  (34) 
oracle

>  <origin>  (34) 
autodockgpu

>  <m_score__min__energy>  (34) 
-8.1600000000000001

>  <m_primary>  (34) 
energy

>  <rmsd>  (34) 
2.3999606590395124

>  <m_score__min__rmsd>  (34) 
2.3999606590395124

>  <meeko>  (34) 
{"free_energy": -7.86, "intermolecular_energy": -9.35, "internal_energy": -1.47, "cluster_size": 20, "cluster_id": 2, "rank_in_cluster": 5}

>  <energy>  (34) 
-7.73

>  <cluster_rmsd>  (34) 
1.33

>  <cluster>  (34) 
2

$$$$

     RDKit          3D

 46 49  0  0  0  0  0  0  0  0999 V2000
  134.0750   69.2910  226.3930 O   0  0  0  0  0  0  0  0  0  0  0  0
  134.4260   70.4260  225.9530 C   0  0  0  0  0  0  0  0  0  0  0  0
  135.4920   70.4400  225.0110 N   0  0  0  0  0  0  0  0  0  0  0  0
  136.0960   69.1840  224.6230 C   0  0  0  0  0  0  0  0  0  0  0  0
  137.5540   69.1570  224.9670 C   0  0  0  0  0  0  0  0  0  0  0  0
  138.0000   68.2370  225.7350 O   0  0  0  0  0  0  0  0  0  0  0  0
  138.4000   70.1570  224.4250 N   0  0  0  0  0  0  0  0  0  0  0  0
  137.9930   71.3040  223.6140 C   0  0  0  0  0  0  0  0  0  0  0  0
  139.2470   71.9390  223.1210 C   0  0  0  0  0  0  0  0  0  0  0  0
  140.3210   70.9160  223.3730 C   0  0  0  0  0  0  0  0  0  0  0  0
  139.8190   70.2050  224.5900 C   0  0  1  0  0  0  0  0  0  0  0  0
  140.2850   70.7730  225.8700 C   0  0  0  0  0  0  0  0  0  0  0  0
  141.0910   71.8900  225.8960 C   0  0  0  0  0  0  0  0  0  0  0  0
  141.5220   72.4150  227.0790 N   0  0  0  0  0  0  0  0  0  0  0  0
  141.1720   71.8560  228.2530 C   0  0  0  0  0  0  0  0  0  0  0  0
  140.3850   70.7630  228.2610 N   0  0  0  0  0  0  0  0  0  0  0  0
  139.9430   70.2230  227.0890 C   0  0  0  0  0  0  0  0  0  0  0  0
  133.7880   71.6670  226.3730 C   0  0  0  0  0  0  0  0  0  0  0  0
  132.6250   71.5480  227.1390 C   0  0  0  0  0  0  0  0  0  0  0  0
  131.9510   72.6570  227.5830 C   0  0  0  0  0  0  0  0  0  0  0  0
  132.4770   73.8910  227.2370 C   0  0  0  0  0  0  0  0  0  0  0  0
  131.8310   75.0360  227.6630 C   0  0  0  0  0  0  0  0  0  0  0  0
  132.3070   76.2950  227.3490 C   0  0  0  0  0  0  0  0  0  0  0  0
  131.5060   77.7630  227.8770 Cl  0  0  0  0  0  0  0  0  0  0  0  0
  133.4670   76.3670  226.5840 C   0  0  0  0  0  0  0  0  0  0  0  0
  134.1340   75.2400  226.1450 C   0  0  0  0  0  0  0  0  0  0  0  0
  133.6430   73.9910  226.4680 C   0  0  0  0  0  0  0  0  0  0  0  0
  134.2710   72.8790  226.0540 N   0  0  0  0  0  0  0  0  0  0  0  0
  135.8130   71.3710  224.6210 H   0  0  0  0  0  0  0  0  0  0  0  0
  135.5874   68.3630  225.1497 H   0  0  0  0  0  0  0  0  0  0  0  0
  135.9920   69.0682  223.5341 H   0  0  0  0  0  0  0  0  0  0  0  0
  137.3770   70.9704  222.7659 H   0  0  0  0  0  0  0  0  0  0  0  0
  137.3919   72.0136  224.2015 H   0  0  0  0  0  0  0  0  0  0  0  0
  139.1709   72.1643  222.0470 H   0  0  0  0  0  0  0  0  0  0  0  0
  139.4557   72.8932  223.6269 H   0  0  0  0  0  0  0  0  0  0  0  0
  140.4186   70.2256  222.5223 H   0  0  0  0  0  0  0  0  0  0  0  0
  141.3204   71.3560  223.5057 H   0  0  0  0  0  0  0  0  0  0  0  0
  140.2381   69.1908  224.6655 H   0  0  0  0  0  0  0  0  0  0  0  0
  141.3910   72.3648  224.9502 H   0  0  0  0  0  0  0  0  0  0  0  0
  141.5267   72.2894  229.1998 H   0  0  0  0  0  0  0  0  0  0  0  0
  139.3005   69.3305  227.1158 H   0  0  0  0  0  0  0  0  0  0  0  0
  132.2435   70.5473  227.3902 H   0  0  0  0  0  0  0  0  0  0  0  0
  131.0351   72.5706  228.1860 H   0  0  0  0  0  0  0  0  0  0  0  0
  130.9160   74.9432  228.2664 H   0  0  0  0  0  0  0  0  0  0  0  0
  133.8672   77.3569  226.3194 H   0  0  0  0  0  0  0  0  0  0  0  0
  135.0493   75.3370  225.5427 H   0  0  0  0  0  0  0  0  0  0  0  0
  1  2  2  0
  2  3  1  0
  3  4  1  0
  4  5  1  0
  5  6  2  0
  5  7  1  0
  7  8  1  0
  8  9  1  0
  9 10  1  0
 10 11  1  0
 11 12  1  0
 12 13  2  0
 13 14  1  0
 14 15  2  0
 15 16  1  0
 16 17  2  0
  2 18  1  0
 18 19  2  0
 19 20  1  0
 20 21  2  0
 21 22  1  0
 22 23  2  0
 23 24  1  0
 23 25  1  0
 25 26  2  0
 26 27  1  0
 27 28  2  0
 11  7  1  0
 17 12  1  0
 28 18  1  0
 27 21  1  0
  3 29  1  0
  4 30  1  0
  4 31  1  0
  8 32  1  0
  8 33  1  0
  9 34  1  0
  9 35  1  0
 10 36  1  0
 10 37  1  0
 11 38  1  6
 13 39  1  0
 15 40  1  0
 17 41  1  0
 19 42  1  0
 20 43  1  0
 22 44  1  0
 25 45  1  0
 26 46  1  0
M  END
>  <smiles>  (35) 
O=C(NCC(=O)N1CCC[C@H]1c1cncnc1)c1ccc2cc(Cl)ccc2n1

>  <score_type>  (35) 
oracle

>  <origin>  (35) 
autodockgpu

>  <m_score__min__energy>  (35) 
-8.1600000000000001

>  <m_primary>  (35) 
energy

>  <rmsd>  (35) 
7.851434355239021

>  <m_score__min__rmsd>  (35) 
7.851434355239021

>  <meeko>  (35) 
{"free_energy": -7.86, "intermolecular_energy": -9.35, "internal_energy": -1.29, "cluster_size": 4, "cluster_id": 3, "rank_in_cluster": 2}

>  <energy>  (35) 
-7.71

>  <cluster_rmsd>  (35) 
0.94

>  <cluster>  (35) 
2

$$$$

     RDKit          3D

 46 49  0  0  0  0  0  0  0  0999 V2000
  141.2050   72.2070  221.0600 O   0  0  0  0  0  0  0  0  0  0  0  0
  140.4800   72.4760  222.0630 C   0  0  0  0  0  0  0  0  0  0  0  0
  139.7540   73.6980  222.0140 N   0  0  0  0  0  0  0  0  0  0  0  0
  139.8860   74.5400  220.8440 C   0  0  0  0  0  0  0  0  0  0  0  0
  141.0190   75.5080  221.0000 C   0  0  0  0  0  0  0  0  0  0  0  0
  141.2390   76.0360  222.1440 O   0  0  0  0  0  0  0  0  0  0  0  0
  141.8180   75.8110  219.8690 N   0  0  0  0  0  0  0  0  0  0  0  0
  142.2140   77.1400  219.4050 C   0  0  0  0  0  0  0  0  0  0  0  0
  142.8660   76.9480  218.0800 C   0  0  0  0  0  0  0  0  0  0  0  0
  142.4960   75.5490  217.6680 C   0  0  0  0  0  0  0  0  0  0  0  0
  142.3760   74.8410  218.9800 C   0  0  1  0  0  0  0  0  0  0  0  0
  143.6210   74.2010  219.4500 C   0  0  0  0  0  0  0  0  0  0  0  0
  143.9330   74.1620  220.7910 C   0  0  0  0  0  0  0  0  0  0  0  0
  145.0830   73.5710  221.2250 N   0  0  0  0  0  0  0  0  0  0  0  0
  145.9440   73.0090  220.3550 C   0  0  0  0  0  0  0  0  0  0  0  0
  145.6670   73.0310  219.0370 N   0  0  0  0  0  0  0  0  0  0  0  0
  144.5220   73.6170  218.5830 C   0  0  0  0  0  0  0  0  0  0  0  0
  140.3780   71.5970  223.2210 C   0  0  0  0  0  0  0  0  0  0  0  0
  139.7400   70.3690  223.0240 C   0  0  0  0  0  0  0  0  0  0  0  0
  139.5930   69.4720  224.0510 C   0  0  0  0  0  0  0  0  0  0  0  0
  140.1050   69.8420  225.2840 C   0  0  0  0  0  0  0  0  0  0  0  0
  139.9800   68.9680  226.3480 C   0  0  0  0  0  0  0  0  0  0  0  0
  140.4690   69.2820  227.6020 C   0  0  0  0  0  0  0  0  0  0  0  0
  140.3230   68.1910  228.9680 Cl  0  0  0  0  0  0  0  0  0  0  0  0
  141.0970   70.5140  227.7540 C   0  0  0  0  0  0  0  0  0  0  0  0
  141.2360   71.4060  226.7090 C   0  0  0  0  0  0  0  0  0  0  0  0
  140.7400   71.0770  225.4640 C   0  0  0  0  0  0  0  0  0  0  0  0
  140.8620   71.9250  224.4300 N   0  0  0  0  0  0  0  0  0  0  0  0
  139.1370   73.9570  222.8350 H   0  0  0  0  0  0  0  0  0  0  0  0
  140.0737   73.9062  219.9648 H   0  0  0  0  0  0  0  0  0  0  0  0
  138.9542   75.1108  220.7179 H   0  0  0  0  0  0  0  0  0  0  0  0
  141.3297   77.7862  219.3033 H   0  0  0  0  0  0  0  0  0  0  0  0
  142.8976   77.6233  220.1186 H   0  0  0  0  0  0  0  0  0  0  0  0
  142.4861   77.6796  217.3517 H   0  0  0  0  0  0  0  0  0  0  0  0
  143.9555   77.0918  218.1289 H   0  0  0  0  0  0  0  0  0  0  0  0
  141.5415   75.5358  217.1213 H   0  0  0  0  0  0  0  0  0  0  0  0
  143.2263   75.0867  216.9876 H   0  0  0  0  0  0  0  0  0  0  0  0
  141.7224   73.9596  218.9026 H   0  0  0  0  0  0  0  0  0  0  0  0
  143.2456   74.6135  221.5215 H   0  0  0  0  0  0  0  0  0  0  0  0
  146.8677   72.5350  220.7185 H   0  0  0  0  0  0  0  0  0  0  0  0
  144.3124   73.6242  217.5032 H   0  0  0  0  0  0  0  0  0  0  0  0
  139.3487   70.1175  222.0272 H   0  0  0  0  0  0  0  0  0  0  0  0
  139.0920   68.5040  223.9026 H   0  0  0  0  0  0  0  0  0  0  0  0
  139.4799   68.0006  226.1929 H   0  0  0  0  0  0  0  0  0  0  0  0
  141.4970   70.7873  228.7416 H   0  0  0  0  0  0  0  0  0  0  0  0
  141.7383   72.3716  226.8678 H   0  0  0  0  0  0  0  0  0  0  0  0
  1  2  2  0
  2  3  1  0
  3  4  1  0
  4  5  1  0
  5  6  2  0
  5  7  1  0
  7  8  1  0
  8  9  1  0
  9 10  1  0
 10 11  1  0
 11 12  1  0
 12 13  2  0
 13 14  1  0
 14 15  2  0
 15 16  1  0
 16 17  2  0
  2 18  1  0
 18 19  2  0
 19 20  1  0
 20 21  2  0
 21 22  1  0
 22 23  2  0
 23 24  1  0
 23 25  1  0
 25 26  2  0
 26 27  1  0
 27 28  2  0
 11  7  1  0
 17 12  1  0
 28 18  1  0
 27 21  1  0
  3 29  1  0
  4 30  1  0
  4 31  1  0
  8 32  1  0
  8 33  1  0
  9 34  1  0
  9 35  1  0
 10 36  1  0
 10 37  1  0
 11 38  1  6
 13 39  1  0
 15 40  1  0
 17 41  1  0
 19 42  1  0
 20 43  1  0
 22 44  1  0
 25 45  1  0
 26 46  1  0
M  END
>  <smiles>  (36) 
O=C(NCC(=O)N1CCC[C@H]1c1cncnc1)c1ccc2cc(Cl)ccc2n1

>  <score_type>  (36) 
oracle

>  <origin>  (36) 
autodockgpu

>  <m_score__min__energy>  (36) 
-8.1600000000000001

>  <m_primary>  (36) 
energy

>  <rmsd>  (36) 
2.2750838751204343

>  <m_score__min__rmsd>  (36) 
2.2750838751204343

>  <meeko>  (36) 
{"free_energy": -7.86, "intermolecular_energy": -9.35, "internal_energy": -1.4, "cluster_size": 20, "cluster_id": 2, "rank_in_cluster": 6}

>  <energy>  (36) 
-7.67

>  <cluster_rmsd>  (36) 
1.06

>  <cluster>  (36) 
2

$$$$

     RDKit          3D

 46 49  0  0  0  0  0  0  0  0999 V2000
  139.8360   72.1670  220.7680 O   0  0  0  0  0  0  0  0  0  0  0  0
  139.7820   72.5560  221.9720 C   0  0  0  0  0  0  0  0  0  0  0  0
  139.5910   73.9490  222.1820 N   0  0  0  0  0  0  0  0  0  0  0  0
  139.4720   74.8180  221.0300 C   0  0  0  0  0  0  0  0  0  0  0  0
  140.1780   76.1200  221.2600 C   0  0  0  0  0  0  0  0  0  0  0  0
  141.4270   76.2090  221.0020 O   0  0  0  0  0  0  0  0  0  0  0  0
  139.4340   77.2190  221.7590 N   0  0  0  0  0  0  0  0  0  0  0  0
  138.2800   77.1610  222.6560 C   0  0  0  0  0  0  0  0  0  0  0  0
  137.7290   78.5440  222.7230 C   0  0  0  0  0  0  0  0  0  0  0  0
  138.3740   79.2720  221.5760 C   0  0  0  0  0  0  0  0  0  0  0  0
  139.7000   78.5900  221.4580 C   0  0  1  0  0  0  0  0  0  0  0  0
  140.7820   79.2090  222.2480 C   0  0  0  0  0  0  0  0  0  0  0  0
  141.1690   78.6730  223.4570 C   0  0  0  0  0  0  0  0  0  0  0  0
  142.1690   79.2460  224.1880 N   0  0  0  0  0  0  0  0  0  0  0  0
  142.8050   80.3480  223.7480 C   0  0  0  0  0  0  0  0  0  0  0  0
  142.4490   80.8960  222.5700 N   0  0  0  0  0  0  0  0  0  0  0  0
  141.4520   80.3380  221.8240 C   0  0  0  0  0  0  0  0  0  0  0  0
  139.9070   71.6440  223.1020 C   0  0  0  0  0  0  0  0  0  0  0  0
  139.4870   70.3270  222.8970 C   0  0  0  0  0  0  0  0  0  0  0  0
  139.5630   69.3930  223.8990 C   0  0  0  0  0  0  0  0  0  0  0  0
  140.0740   69.8170  225.1140 C   0  0  0  0  0  0  0  0  0  0  0  0
  140.1710   68.9100  226.1520 C   0  0  0  0  0  0  0  0  0  0  0  0
  140.6710   69.2740  227.3880 C   0  0  0  0  0  0  0  0  0  0  0  0
  140.8030   68.1420  228.7200 Cl  0  0  0  0  0  0  0  0  0  0  0  0
  141.0770   70.5950  227.5490 C   0  0  0  0  0  0  0  0  0  0  0  0
  140.9930   71.5240  226.5300 C   0  0  0  0  0  0  0  0  0  0  0  0
  140.4900   71.1410  225.3020 C   0  0  0  0  0  0  0  0  0  0  0  0
  140.3970   72.0240  224.2940 N   0  0  0  0  0  0  0  0  0  0  0  0
  139.5400   74.3120  223.1760 H   0  0  0  0  0  0  0  0  0  0  0  0
  139.9155   74.3185  220.1560 H   0  0  0  0  0  0  0  0  0  0  0  0
  138.4055   75.0250  220.8576 H   0  0  0  0  0  0  0  0  0  0  0  0
  137.5233   76.4689  222.2580 H   0  0  0  0  0  0  0  0  0  0  0  0
  138.5683   76.7979  223.6535 H   0  0  0  0  0  0  0  0  0  0  0  0
  136.6352   78.5311  222.6074 H   0  0  0  0  0  0  0  0  0  0  0  0
  137.9363   79.0266  223.6895 H   0  0  0  0  0  0  0  0  0  0  0  0
  137.7860   79.1586  220.6533 H   0  0  0  0  0  0  0  0  0  0  0  0
  138.4540   80.3572  221.7373 H   0  0  0  0  0  0  0  0  0  0  0  0
  140.1168   78.6934  220.4453 H   0  0  0  0  0  0  0  0  0  0  0  0
  140.6657   77.7720  223.8377 H   0  0  0  0  0  0  0  0  0  0  0  0
  143.6105   80.7982  224.3468 H   0  0  0  0  0  0  0  0  0  0  0  0
  141.1765   80.7983  220.8637 H   0  0  0  0  0  0  0  0  0  0  0  0
  139.0883   70.0340  221.9146 H   0  0  0  0  0  0  0  0  0  0  0  0
  139.2332   68.3551  223.7443 H   0  0  0  0  0  0  0  0  0  0  0  0
  139.8422   67.8728  225.9906 H   0  0  0  0  0  0  0  0  0  0  0  0
  141.4794   70.9111  228.5228 H   0  0  0  0  0  0  0  0  0  0  0  0
  141.3239   72.5600  226.6952 H   0  0  0  0  0  0  0  0  0  0  0  0
  1  2  2  0
  2  3  1  0
  3  4  1  0
  4  5  1  0
  5  6  2  0
  5  7  1  0
  7  8  1  0
  8  9  1  0
  9 10  1  0
 10 11  1  0
 11 12  1  0
 12 13  2  0
 13 14  1  0
 14 15  2  0
 15 16  1  0
 16 17  2  0
  2 18  1  0
 18 19  2  0
 19 20  1  0
 20 21  2  0
 21 22  1  0
 22 23  2  0
 23 24  1  0
 23 25  1  0
 25 26  2  0
 26 27  1  0
 27 28  2  0
 11  7  1  0
 17 12  1  0
 28 18  1  0
 27 21  1  0
  3 29  1  0
  4 30  1  0
  4 31  1  0
  8 32  1  0
  8 33  1  0
  9 34  1  0
  9 35  1  0
 10 36  1  0
 10 37  1  0
 11 38  1  6
 13 39  1  0
 15 40  1  0
 17 41  1  0
 19 42  1  0
 20 43  1  0
 22 44  1  0
 25 45  1  0
 26 46  1  0
M  END
>  <smiles>  (37) 
O=C(NCC(=O)N1CCC[C@H]1c1cncnc1)c1ccc2cc(Cl)ccc2n1

>  <score_type>  (37) 
oracle

>  <origin>  (37) 
autodockgpu

>  <m_score__min__energy>  (37) 
-8.1600000000000001

>  <m_primary>  (37) 
energy

>  <rmsd>  (37) 
2.8801131194063028

>  <m_score__min__rmsd>  (37) 
2.8801131194063028

>  <meeko>  (37) 
{"free_energy": -8.01, "intermolecular_energy": -9.5, "internal_energy": -1.17, "cluster_size": 18, "cluster_id": 1, "rank_in_cluster": 9}

>  <energy>  (37) 
-7.24

>  <cluster_rmsd>  (37) 
1.69

>  <cluster>  (37) 
2

$$$$

     RDKit          3D

 46 49  0  0  0  0  0  0  0  0999 V2000
  140.2760   70.8990  221.5130 O   0  0  0  0  0  0  0  0  0  0  0  0
  139.6980   71.8600  222.1000 C   0  0  0  0  0  0  0  0  0  0  0  0
  138.6050   71.5250  222.9460 N   0  0  0  0  0  0  0  0  0  0  0  0
  138.2300   70.1330  223.0810 C   0  0  0  0  0  0  0  0  0  0  0  0
  137.8620   69.8070  224.4970 C   0  0  0  0  0  0  0  0  0  0  0  0
  136.7460   70.2180  224.9650 O   0  0  0  0  0  0  0  0  0  0  0  0
  138.7700   69.0480  225.2790 N   0  0  0  0  0  0  0  0  0  0  0  0
  139.5660   67.9050  224.8330 C   0  0  0  0  0  0  0  0  0  0  0  0
  140.1970   67.3300  226.0540 C   0  0  0  0  0  0  0  0  0  0  0  0
  139.4480   67.9480  227.2030 C   0  0  0  0  0  0  0  0  0  0  0  0
  139.0570   69.2850  226.6580 C   0  0  1  0  0  0  0  0  0  0  0  0
  140.0290   70.3650  226.9210 C   0  0  0  0  0  0  0  0  0  0  0  0
  140.1840   70.8820  228.1890 C   0  0  0  0  0  0  0  0  0  0  0  0
  141.0820   71.8800  228.4320 N   0  0  0  0  0  0  0  0  0  0  0  0
  141.8410   72.3860  227.4420 C   0  0  0  0  0  0  0  0  0  0  0  0
  141.7130   71.9010  226.1910 N   0  0  0  0  0  0  0  0  0  0  0  0
  140.8210   70.9030  225.9280 C   0  0  0  0  0  0  0  0  0  0  0  0
  140.1100   73.2480  221.9350 C   0  0  0  0  0  0  0  0  0  0  0  0
  141.3340   73.4690  221.2960 C   0  0  0  0  0  0  0  0  0  0  0  0
  141.8100   74.7390  221.0920 C   0  0  0  0  0  0  0  0  0  0  0  0
  141.0230   75.7840  221.5480 C   0  0  0  0  0  0  0  0  0  0  0  0
  141.4640   77.0810  221.3640 C   0  0  0  0  0  0  0  0  0  0  0  0
  140.7240   78.1650  221.7980 C   0  0  0  0  0  0  0  0  0  0  0  0
  141.2600   79.8200  221.5760 Cl  0  0  0  0  0  0  0  0  0  0  0  0
  139.5120   77.9000  222.4280 C   0  0  0  0  0  0  0  0  0  0  0  0
  139.0470   76.6150  222.6260 C   0  0  0  0  0  0  0  0  0  0  0  0
  139.8010   75.5450  222.1870 C   0  0  0  0  0  0  0  0  0  0  0  0
  139.3720   74.2850  222.3660 N   0  0  0  0  0  0  0  0  0  0  0  0
  138.0970   72.3030  223.4540 H   0  0  0  0  0  0  0  0  0  0  0  0
  137.3674   69.9288  222.4297 H   0  0  0  0  0  0  0  0  0  0  0  0
  139.0895   69.5105  222.7917 H   0  0  0  0  0  0  0  0  0  0  0  0
  138.9202   67.1568  224.3502 H   0  0  0  0  0  0  0  0  0  0  0  0
  140.3251   68.2102  224.0977 H   0  0  0  0  0  0  0  0  0  0  0  0
  140.0901   66.2353  226.0662 H   0  0  0  0  0  0  0  0  0  0  0  0
  141.2757   67.5402  226.1014 H   0  0  0  0  0  0  0  0  0  0  0  0
  138.5616   67.3518  227.4655 H   0  0  0  0  0  0  0  0  0  0  0  0
  140.0400   68.0093  228.1281 H   0  0  0  0  0  0  0  0  0  0  0  0
  138.1749   69.6880  227.1771 H   0  0  0  0  0  0  0  0  0  0  0  0
  139.5762   70.4851  229.0155 H   0  0  0  0  0  0  0  0  0  0  0  0
  142.5612   73.1903  227.6527 H   0  0  0  0  0  0  0  0  0  0  0  0
  140.7313   70.5187  224.9012 H   0  0  0  0  0  0  0  0  0  0  0  0
  141.9259   72.6086  220.9507 H   0  0  0  0  0  0  0  0  0  0  0  0
  142.7718   74.9194  220.5897 H   0  0  0  0  0  0  0  0  0  0  0  0
  142.4264   77.2547  220.8604 H   0  0  0  0  0  0  0  0  0  0  0  0
  138.9022   78.7447  222.7811 H   0  0  0  0  0  0  0  0  0  0  0  0
  138.0838   76.4452  223.1294 H   0  0  0  0  0  0  0  0  0  0  0  0
  1  2  2  0
  2  3  1  0
  3  4  1  0
  4  5  1  0
  5  6  2  0
  5  7  1  0
  7  8  1  0
  8  9  1  0
  9 10  1  0
 10 11  1  0
 11 12  1  0
 12 13  2  0
 13 14  1  0
 14 15  2  0
 15 16  1  0
 16 17  2  0
  2 18  1  0
 18 19  2  0
 19 20  1  0
 20 21  2  0
 21 22  1  0
 22 23  2  0
 23 24  1  0
 23 25  1  0
 25 26  2  0
 26 27  1  0
 27 28  2  0
 11  7  1  0
 17 12  1  0
 28 18  1  0
 27 21  1  0
  3 29  1  0
  4 30  1  0
  4 31  1  0
  8 32  1  0
  8 33  1  0
  9 34  1  0
  9 35  1  0
 10 36  1  0
 10 37  1  0
 11 38  1  1
 13 39  1  0
 15 40  1  0
 17 41  1  0
 19 42  1  0
 20 43  1  0
 22 44  1  0
 25 45  1  0
 26 46  1  0
M  END
>  <smiles>  (38) 
O=C(NCC(=O)N1CCC[C@H]1c1cncnc1)c1ccc2cc(Cl)ccc2n1

>  <score_type>  (38) 
oracle

>  <origin>  (38) 
autodockgpu

>  <m_score__min__energy>  (38) 
-8.1600000000000001

>  <m_primary>  (38) 
energy

>  <rmsd>  (38) 
8.482760640754345

>  <m_score__min__rmsd>  (38) 
8.482760640754345

>  <meeko>  (38) 
{"free_energy": -7.8, "intermolecular_energy": -9.29, "internal_energy": -1.55, "cluster_size": 3, "cluster_id": 4, "rank_in_cluster": 1}

>  <energy>  (38) 
-7.15

>  <cluster_rmsd>  (38) 
1.69

>  <cluster>  (38) 
2

$$$$

     RDKit          3D

 46 49  0  0  0  0  0  0  0  0999 V2000
  140.2060   72.3160  220.8120 O   0  0  0  0  0  0  0  0  0  0  0  0
  139.9260   72.6620  221.9980 C   0  0  0  0  0  0  0  0  0  0  0  0
  139.5310   74.0150  222.1890 N   0  0  0  0  0  0  0  0  0  0  0  0
  139.4740   74.8930  221.0390 C   0  0  0  0  0  0  0  0  0  0  0  0
  140.7030   75.7470  220.9510 C   0  0  0  0  0  0  0  0  0  0  0  0
  141.8070   75.3060  221.4230 O   0  0  0  0  0  0  0  0  0  0  0  0
  140.6030   77.0240  220.3430 N   0  0  0  0  0  0  0  0  0  0  0  0
  139.4440   77.5680  219.6350 C   0  0  0  0  0  0  0  0  0  0  0  0
  139.8950   78.8420  219.0080 C   0  0  0  0  0  0  0  0  0  0  0  0
  141.3970   78.7970  219.0800 C   0  0  0  0  0  0  0  0  0  0  0  0
  141.6420   78.0030  220.3240 C   0  0  1  0  0  0  0  0  0  0  0  0
  141.7680   78.8100  221.5540 C   0  0  0  0  0  0  0  0  0  0  0  0
  141.4510   78.2770  222.7840 C   0  0  0  0  0  0  0  0  0  0  0  0
  141.5660   79.0230  223.9200 N   0  0  0  0  0  0  0  0  0  0  0  0
  141.9940   80.2990  223.8710 C   0  0  0  0  0  0  0  0  0  0  0  0
  142.3120   80.8490  222.6830 N   0  0  0  0  0  0  0  0  0  0  0  0
  142.2030   80.1200  221.5360 C   0  0  0  0  0  0  0  0  0  0  0  0
  139.9970   71.7430  223.1260 C   0  0  0  0  0  0  0  0  0  0  0  0
  139.5140   70.4480  222.9140 C   0  0  0  0  0  0  0  0  0  0  0  0
  139.5370   69.5090  223.9140 C   0  0  0  0  0  0  0  0  0  0  0  0
  140.0600   69.9040  225.1340 C   0  0  0  0  0  0  0  0  0  0  0  0
  140.1030   68.9900  226.1700 C   0  0  0  0  0  0  0  0  0  0  0  0
  140.6120   69.3260  227.4100 C   0  0  0  0  0  0  0  0  0  0  0  0
  140.6780   68.1850  228.7400 Cl  0  0  0  0  0  0  0  0  0  0  0  0
  141.0830   70.6250  227.5780 C   0  0  0  0  0  0  0  0  0  0  0  0
  141.0520   71.5590  226.5610 C   0  0  0  0  0  0  0  0  0  0  0  0
  140.5390   71.2060  225.3290 C   0  0  0  0  0  0  0  0  0  0  0  0
  140.4970   72.0940  224.3230 N   0  0  0  0  0  0  0  0  0  0  0  0
  139.2890   74.3410  223.1670 H   0  0  0  0  0  0  0  0  0  0  0  0
  139.3930   74.2846  220.1261 H   0  0  0  0  0  0  0  0  0  0  0  0
  138.5983   75.5504  221.1442 H   0  0  0  0  0  0  0  0  0  0  0  0
  139.1047   76.8627  218.8621 H   0  0  0  0  0  0  0  0  0  0  0  0
  138.6008   77.7373  220.3208 H   0  0  0  0  0  0  0  0  0  0  0  0
  139.5590   78.8990  217.9621 H   0  0  0  0  0  0  0  0  0  0  0  0
  139.4817   79.7244  219.5185 H   0  0  0  0  0  0  0  0  0  0  0  0
  141.8217   78.2945  218.1984 H   0  0  0  0  0  0  0  0  0  0  0  0
  141.8635   79.7930  219.0984 H   0  0  0  0  0  0  0  0  0  0  0  0
  142.6313   77.5224  220.3058 H   0  0  0  0  0  0  0  0  0  0  0  0
  141.1006   77.2364  222.8509 H   0  0  0  0  0  0  0  0  0  0  0  0
  142.0834   80.8885  224.7954 H   0  0  0  0  0  0  0  0  0  0  0  0
  142.4675   80.5859  220.5753 H   0  0  0  0  0  0  0  0  0  0  0  0
  139.1084   70.1773  221.9280 H   0  0  0  0  0  0  0  0  0  0  0  0
  139.1574   68.4890  223.7541 H   0  0  0  0  0  0  0  0  0  0  0  0
  139.7231   67.9712  226.0035 H   0  0  0  0  0  0  0  0  0  0  0  0
  141.4944   70.9180  228.5552 H   0  0  0  0  0  0  0  0  0  0  0  0
  141.4333   72.5766  226.7315 H   0  0  0  0  0  0  0  0  0  0  0  0
  1  2  2  0
  2  3  1  0
  3  4  1  0
  4  5  1  0
  5  6  2  0
  5  7  1  0
  7  8  1  0
  8  9  1  0
  9 10  1  0
 10 11  1  0
 11 12  1  0
 12 13  2  0
 13 14  1  0
 14 15  2  0
 15 16  1  0
 16 17  2  0
  2 18  1  0
 18 19  2  0
 19 20  1  0
 20 21  2  0
 21 22  1  0
 22 23  2  0
 23 24  1  0
 23 25  1  0
 25 26  2  0
 26 27  1  0
 27 28  2  0
 11  7  1  0
 17 12  1  0
 28 18  1  0
 27 21  1  0
  3 29  1  0
  4 30  1  0
  4 31  1  0
  8 32  1  0
  8 33  1  0
  9 34  1  0
  9 35  1  0
 10 36  1  0
 10 37  1  0
 11 38  1  6
 13 39  1  0
 15 40  1  0
 17 41  1  0
 19 42  1  0
 20 43  1  0
 22 44  1  0
 25 45  1  0
 26 46  1  0
M  END
>  <smiles>  (39) 
O=C(NCC(=O)N1CCC[C@H]1c1cncnc1)c1ccc2cc(Cl)ccc2n1

>  <score_type>  (39) 
oracle

>  <origin>  (39) 
autodockgpu

>  <m_score__min__energy>  (39) 
-8.1600000000000001

>  <m_primary>  (39) 
energy

>  <rmsd>  (39) 
1.7692557054749283

>  <m_score__min__rmsd>  (39) 
1.7692557054749283

>  <meeko>  (39) 
{"free_energy": -7.97, "intermolecular_energy": -9.46, "internal_energy": -1.13, "cluster_size": 18, "cluster_id": 1, "rank_in_cluster": 12}

>  <energy>  (39) 
-7.9

>  <cluster_rmsd>  (39) 
0.0

>  <cluster>  (39) 
3

$$$$

     RDKit          3D

 46 49  0  0  0  0  0  0  0  0999 V2000
  140.0410   72.4910  220.8730 O   0  0  0  0  0  0  0  0  0  0  0  0
  139.8510   72.8260  222.0790 C   0  0  0  0  0  0  0  0  0  0  0  0
  139.5260   74.1900  222.3170 N   0  0  0  0  0  0  0  0  0  0  0  0
  139.4320   75.0910  221.1870 C   0  0  0  0  0  0  0  0  0  0  0  0
  140.7570   75.7270  220.8930 C   0  0  0  0  0  0  0  0  0  0  0  0
  141.8320   75.1170  221.2200 O   0  0  0  0  0  0  0  0  0  0  0  0
  140.7770   76.9940  220.2560 N   0  0  0  0  0  0  0  0  0  0  0  0
  139.7450   77.5530  219.3840 C   0  0  0  0  0  0  0  0  0  0  0  0
  140.3130   78.8030  218.8070 C   0  0  0  0  0  0  0  0  0  0  0  0
  141.7880   78.7240  219.0910 C   0  0  0  0  0  0  0  0  0  0  0  0
  141.8350   77.9480  220.3690 C   0  0  1  0  0  0  0  0  0  0  0  0
  141.8080   78.7750  221.5920 C   0  0  0  0  0  0  0  0  0  0  0  0
  142.1620   80.1060  221.5520 C   0  0  0  0  0  0  0  0  0  0  0  0
  142.1380   80.8700  222.6820 N   0  0  0  0  0  0  0  0  0  0  0  0
  141.7670   80.3460  223.8660 C   0  0  0  0  0  0  0  0  0  0  0  0
  141.4160   79.0470  223.9360 N   0  0  0  0  0  0  0  0  0  0  0  0
  141.4330   78.2670  222.8180 C   0  0  0  0  0  0  0  0  0  0  0  0
  139.9570   71.8840  223.1860 C   0  0  0  0  0  0  0  0  0  0  0  0
  139.5280   70.5760  222.9410 C   0  0  0  0  0  0  0  0  0  0  0  0
  139.5860   69.6150  223.9180 C   0  0  0  0  0  0  0  0  0  0  0  0
  140.0880   70.0030  225.1490 C   0  0  0  0  0  0  0  0  0  0  0  0
  140.1650   69.0670  226.1640 C   0  0  0  0  0  0  0  0  0  0  0  0
  140.6560   69.3940  227.4140 C   0  0  0  0  0  0  0  0  0  0  0  0
  140.7640   68.2250  228.7170 Cl  0  0  0  0  0  0  0  0  0  0  0  0
  141.0720   70.7060  227.6140 C   0  0  0  0  0  0  0  0  0  0  0  0
  141.0070   71.6620  226.6200 C   0  0  0  0  0  0  0  0  0  0  0  0
  140.5130   71.3170  225.3770 C   0  0  0  0  0  0  0  0  0  0  0  0
  140.4380   72.2270  224.3920 N   0  0  0  0  0  0  0  0  0  0  0  0
  139.3610   74.5070  223.3140 H   0  0  0  0  0  0  0  0  0  0  0  0
  139.1007   74.5258  220.3033 H   0  0  0  0  0  0  0  0  0  0  0  0
  138.7100   75.8841  221.4314 H   0  0  0  0  0  0  0  0  0  0  0  0
  139.4985   76.8417  218.5820 H   0  0  0  0  0  0  0  0  0  0  0  0
  138.8191   77.7565  219.9420 H   0  0  0  0  0  0  0  0  0  0  0  0
  140.1292   78.8476  217.7234 H   0  0  0  0  0  0  0  0  0  0  0  0
  139.8553   79.7046  219.2401 H   0  0  0  0  0  0  0  0  0  0  0  0
  142.3193   78.1952  218.2860 H   0  0  0  0  0  0  0  0  0  0  0  0
  142.2729   79.7089  219.1600 H   0  0  0  0  0  0  0  0  0  0  0  0
  142.8040   77.4436  220.4980 H   0  0  0  0  0  0  0  0  0  0  0  0
  142.4678   80.5582  220.5970 H   0  0  0  0  0  0  0  0  0  0  0  0
  141.7507   80.9738  224.7691 H   0  0  0  0  0  0  0  0  0  0  0  0
  141.1412   77.2092  222.8955 H   0  0  0  0  0  0  0  0  0  0  0  0
  139.1370   70.3129  221.9470 H   0  0  0  0  0  0  0  0  0  0  0  0
  139.2495   68.5843  223.7324 H   0  0  0  0  0  0  0  0  0  0  0  0
  139.8275   68.0378  225.9721 H   0  0  0  0  0  0  0  0  0  0  0  0
  141.4671   70.9924  228.5998 H   0  0  0  0  0  0  0  0  0  0  0  0
  141.3458   72.6900  226.8163 H   0  0  0  0  0  0  0  0  0  0  0  0
  1  2  2  0
  2  3  1  0
  3  4  1  0
  4  5  1  0
  5  6  2  0
  5  7  1  0
  7  8  1  0
  8  9  1  0
  9 10  1  0
 10 11  1  0
 11 12  1  0
 12 13  2  0
 13 14  1  0
 14 15  2  0
 15 16  1  0
 16 17  2  0
  2 18  1  0
 18 19  2  0
 19 20  1  0
 20 21  2  0
 21 22  1  0
 22 23  2  0
 23 24  1  0
 23 25  1  0
 25 26  2  0
 26 27  1  0
 27 28  2  0
 11  7  1  0
 17 12  1  0
 28 18  1  0
 27 21  1  0
  3 29  1  0
  4 30  1  0
  4 31  1  0
  8 32  1  0
  8 33  1  0
  9 34  1  0
  9 35  1  0
 10 36  1  0
 10 37  1  0
 11 38  1  6
 13 39  1  0
 15 40  1  0
 17 41  1  0
 19 42  1  0
 20 43  1  0
 22 44  1  0
 25 45  1  0
 26 46  1  0
M  END
>  <smiles>  (40) 
O=C(NCC(=O)N1CCC[C@H]1c1cncnc1)c1ccc2cc(Cl)ccc2n1

>  <score_type>  (40) 
oracle

>  <origin>  (40) 
autodockgpu

>  <m_score__min__energy>  (40) 
-8.1600000000000001

>  <m_primary>  (40) 
energy

>  <rmsd>  (40) 
1.8145437049736048

>  <m_score__min__rmsd>  (40) 
1.8145437049736048

>  <meeko>  (40) 
{"free_energy": -7.99, "intermolecular_energy": -9.48, "internal_energy": -1.18, "cluster_size": 18, "cluster_id": 1, "rank_in_cluster": 10}

>  <energy>  (40) 
-7.86

>  <cluster_rmsd>  (40) 
0.09

>  <cluster>  (40) 
3

$$$$

     RDKit          3D

 46 49  0  0  0  0  0  0  0  0999 V2000
  139.1790   72.9080  220.7030 O   0  0  0  0  0  0  0  0  0  0  0  0
  140.1110   72.8510  221.5590 C   0  0  0  0  0  0  0  0  0  0  0  0
  141.2320   73.6980  221.3350 N   0  0  0  0  0  0  0  0  0  0  0  0
  141.2360   74.5540  220.1680 C   0  0  0  0  0  0  0  0  0  0  0  0
  141.4560   75.9870  220.5500 C   0  0  0  0  0  0  0  0  0  0  0  0
  142.5210   76.5820  220.1650 O   0  0  0  0  0  0  0  0  0  0  0  0
  140.4700   76.6420  221.3310 N   0  0  0  0  0  0  0  0  0  0  0  0
  139.5670   76.0230  222.3000 C   0  0  0  0  0  0  0  0  0  0  0  0
  138.5930   77.0780  222.7010 C   0  0  0  0  0  0  0  0  0  0  0  0
  138.7550   78.1630  221.6720 C   0  0  0  0  0  0  0  0  0  0  0  0
  140.1970   78.0440  221.2930 C   0  0  1  0  0  0  0  0  0  0  0  0
  141.1130   78.8850  222.0890 C   0  0  0  0  0  0  0  0  0  0  0  0
  141.3460   78.6120  223.4190 C   0  0  0  0  0  0  0  0  0  0  0  0
  142.1920   79.3900  224.1550 N   0  0  0  0  0  0  0  0  0  0  0  0
  142.8230   80.4430  223.6010 C   0  0  0  0  0  0  0  0  0  0  0  0
  142.6150   80.7350  222.3030 N   0  0  0  0  0  0  0  0  0  0  0  0
  141.7730   79.9700  221.5510 C   0  0  0  0  0  0  0  0  0  0  0  0
  140.0640   71.9730  222.7210 C   0  0  0  0  0  0  0  0  0  0  0  0
  139.3720   70.7670  222.5700 C   0  0  0  0  0  0  0  0  0  0  0  0
  139.2710   69.8730  223.6040 C   0  0  0  0  0  0  0  0  0  0  0  0
  139.8830   70.2210  224.7960 C   0  0  0  0  0  0  0  0  0  0  0  0
  139.8070   69.3480  225.8660 C   0  0  0  0  0  0  0  0  0  0  0  0
  140.3970   69.6410  227.0810 C   0  0  0  0  0  0  0  0  0  0  0  0
  140.3140   68.5510  228.4530 Cl  0  0  0  0  0  0  0  0  0  0  0  0
  141.0750   70.8510  227.1880 C   0  0  0  0  0  0  0  0  0  0  0  0
  141.1680   71.7410  226.1370 C   0  0  0  0  0  0  0  0  0  0  0  0
  140.5710   71.4330  224.9300 C   0  0  0  0  0  0  0  0  0  0  0  0
  140.6460   72.2810  223.8920 N   0  0  0  0  0  0  0  0  0  0  0  0
  142.0320   73.6770  222.0290 H   0  0  0  0  0  0  0  0  0  0  0  0
  142.0423   74.2348  219.4912 H   0  0  0  0  0  0  0  0  0  0  0  0
  140.2582   74.4713  219.6709 H   0  0  0  0  0  0  0  0  0  0  0  0
  139.0402   75.1736  221.8406 H   0  0  0  0  0  0  0  0  0  0  0  0
  140.1189   75.6381  223.1702 H   0  0  0  0  0  0  0  0  0  0  0  0
  137.5666   76.6825  222.6885 H   0  0  0  0  0  0  0  0  0  0  0  0
  138.7751   77.4442  223.7221 H   0  0  0  0  0  0  0  0  0  0  0  0
  138.1012   77.9881  220.8048 H   0  0  0  0  0  0  0  0  0  0  0  0
  138.4824   79.1617  222.0440 H   0  0  0  0  0  0  0  0  0  0  0  0
  140.3842   78.4512  220.2884 H   0  0  0  0  0  0  0  0  0  0  0  0
  140.8439   77.7562  223.8938 H   0  0  0  0  0  0  0  0  0  0  0  0
  143.5040   81.0606  224.2050 H   0  0  0  0  0  0  0  0  0  0  0  0
  141.6168   80.2238  220.4921 H   0  0  0  0  0  0  0  0  0  0  0  0
  138.9005   70.5318  221.6044 H   0  0  0  0  0  0  0  0  0  0  0  0
  138.7286   68.9226  223.4919 H   0  0  0  0  0  0  0  0  0  0  0  0
  139.2644   68.3985  225.7473 H   0  0  0  0  0  0  0  0  0  0  0  0
  141.5541   71.1077  228.1443 H   0  0  0  0  0  0  0  0  0  0  0  0
  141.7134   72.6884  226.2597 H   0  0  0  0  0  0  0  0  0  0  0  0
  1  2  2  0
  2  3  1  0
  3  4  1  0
  4  5  1  0
  5  6  2  0
  5  7  1  0
  7  8  1  0
  8  9  1  0
  9 10  1  0
 10 11  1  0
 11 12  1  0
 12 13  2  0
 13 14  1  0
 14 15  2  0
 15 16  1  0
 16 17  2  0
  2 18  1  0
 18 19  2  0
 19 20  1  0
 20 21  2  0
 21 22  1  0
 22 23  2  0
 23 24  1  0
 23 25  1  0
 25 26  2  0
 26 27  1  0
 27 28  2  0
 11  7  1  0
 17 12  1  0
 28 18  1  0
 27 21  1  0
  3 29  1  0
  4 30  1  0
  4 31  1  0
  8 32  1  0
  8 33  1  0
  9 34  1  0
  9 35  1  0
 10 36  1  0
 10 37  1  0
 11 38  1  6
 13 39  1  0
 15 40  1  0
 17 41  1  0
 19 42  1  0
 20 43  1  0
 22 44  1  0
 25 45  1  0
 26 46  1  0
M  END
>  <smiles>  (41) 
O=C(NCC(=O)N1CCC[C@H]1c1cncnc1)c1ccc2cc(Cl)ccc2n1

>  <score_type>  (41) 
oracle

>  <origin>  (41) 
autodockgpu

>  <m_score__min__energy>  (41) 
-8.1600000000000001

>  <m_primary>  (41) 
energy

>  <rmsd>  (41) 
2.9224717900412798

>  <m_score__min__rmsd>  (41) 
2.9224717900412798

>  <meeko>  (41) 
{"free_energy": -7.5, "intermolecular_energy": -8.99, "internal_energy": -1.3, "cluster_size": 18, "cluster_id": 1, "rank_in_cluster": 17}

>  <energy>  (41) 
-7.57

>  <cluster_rmsd>  (41) 
0.92

>  <cluster>  (41) 
3

$$$$

     RDKit          3D

 46 49  0  0  0  0  0  0  0  0999 V2000
  140.7250   72.6140  220.9140 O   0  0  0  0  0  0  0  0  0  0  0  0
  140.2080   72.8840  222.0380 C   0  0  0  0  0  0  0  0  0  0  0  0
  139.6300   74.1770  222.1780 N   0  0  0  0  0  0  0  0  0  0  0  0
  139.6670   75.0830  221.0490 C   0  0  0  0  0  0  0  0  0  0  0  0
  139.6660   76.5110  221.5040 C   0  0  0  0  0  0  0  0  0  0  0  0
  139.1130   76.8150  222.6160 O   0  0  0  0  0  0  0  0  0  0  0  0
  140.2840   77.4880  220.6810 N   0  0  0  0  0  0  0  0  0  0  0  0
  139.6890   78.1670  219.5310 C   0  0  0  0  0  0  0  0  0  0  0  0
  140.7870   78.9380  218.8830 C   0  0  0  0  0  0  0  0  0  0  0  0
  142.0510   78.3830  219.4790 C   0  0  0  0  0  0  0  0  0  0  0  0
  141.6160   77.9740  220.8500 C   0  0  1  0  0  0  0  0  0  0  0  0
  141.7790   79.0160  221.8830 C   0  0  0  0  0  0  0  0  0  0  0  0
  141.8960   78.6790  223.2140 C   0  0  0  0  0  0  0  0  0  0  0  0
  142.0450   79.6430  224.1690 N   0  0  0  0  0  0  0  0  0  0  0  0
  142.0840   80.9470  223.8370 C   0  0  0  0  0  0  0  0  0  0  0  0
  141.9720   81.3080  222.5440 N   0  0  0  0  0  0  0  0  0  0  0  0
  141.8220   80.3610  221.5750 C   0  0  0  0  0  0  0  0  0  0  0  0
  140.1930   71.9400  223.1470 C   0  0  0  0  0  0  0  0  0  0  0  0
  139.6340   70.6830  222.8960 C   0  0  0  0  0  0  0  0  0  0  0  0
  139.5730   69.7250  223.8750 C   0  0  0  0  0  0  0  0  0  0  0  0
  140.0880   70.0620  225.1150 C   0  0  0  0  0  0  0  0  0  0  0  0
  140.0480   69.1260  226.1320 C   0  0  0  0  0  0  0  0  0  0  0  0
  140.5460   69.4040  227.3910 C   0  0  0  0  0  0  0  0  0  0  0  0
  140.5070   68.2350  228.6970 Cl  0  0  0  0  0  0  0  0  0  0  0  0
  141.0930   70.6660  227.5980 C   0  0  0  0  0  0  0  0  0  0  0  0
  141.1470   71.6210  226.6010 C   0  0  0  0  0  0  0  0  0  0  0  0
  140.6430   71.3260  225.3500 C   0  0  0  0  0  0  0  0  0  0  0  0
  140.6830   72.2350  224.3630 N   0  0  0  0  0  0  0  0  0  0  0  0
  139.1880   74.4390  223.1040 H   0  0  0  0  0  0  0  0  0  0  0  0
  140.5795   74.8925  220.4650 H   0  0  0  0  0  0  0  0  0  0  0  0
  138.7717   74.9114  220.4334 H   0  0  0  0  0  0  0  0  0  0  0  0
  139.2745   77.4304  218.8270 H   0  0  0  0  0  0  0  0  0  0  0  0
  138.8662   78.8283  219.8403 H   0  0  0  0  0  0  0  0  0  0  0  0
  140.7744   78.7885  217.7933 H   0  0  0  0  0  0  0  0  0  0  0  0
  140.6893   80.0206  219.0517 H   0  0  0  0  0  0  0  0  0  0  0  0
  142.4145   77.5187  218.9039 H   0  0  0  0  0  0  0  0  0  0  0  0
  142.8843   79.1010  219.4815 H   0  0  0  0  0  0  0  0  0  0  0  0
  142.2683   77.1898  221.2617 H   0  0  0  0  0  0  0  0  0  0  0  0
  141.8690   77.6201  223.5106 H   0  0  0  0  0  0  0  0  0  0  0  0
  142.2066   81.7131  224.6168 H   0  0  0  0  0  0  0  0  0  0  0  0
  141.7333   80.6755  220.5246 H   0  0  0  0  0  0  0  0  0  0  0  0
  139.2361   70.4588  221.8953 H   0  0  0  0  0  0  0  0  0  0  0  0
  139.1350   68.7342  223.6839 H   0  0  0  0  0  0  0  0  0  0  0  0
  139.6095   68.1367  225.9344 H   0  0  0  0  0  0  0  0  0  0  0  0
  141.4970   70.9125  228.5910 H   0  0  0  0  0  0  0  0  0  0  0  0
  141.5880   72.6084  226.8024 H   0  0  0  0  0  0  0  0  0  0  0  0
  1  2  2  0
  2  3  1  0
  3  4  1  0
  4  5  1  0
  5  6  2  0
  5  7  1  0
  7  8  1  0
  8  9  1  0
  9 10  1  0
 10 11  1  0
 11 12  1  0
 12 13  2  0
 13 14  1  0
 14 15  2  0
 15 16  1  0
 16 17  2  0
  2 18  1  0
 18 19  2  0
 19 20  1  0
 20 21  2  0
 21 22  1  0
 22 23  2  0
 23 24  1  0
 23 25  1  0
 25 26  2  0
 26 27  1  0
 27 28  2  0
 11  7  1  0
 17 12  1  0
 28 18  1  0
 27 21  1  0
  3 29  1  0
  4 30  1  0
  4 31  1  0
  8 32  1  0
  8 33  1  0
  9 34  1  0
  9 35  1  0
 10 36  1  0
 10 37  1  0
 11 38  1  1
 13 39  1  0
 15 40  1  0
 17 41  1  0
 19 42  1  0
 20 43  1  0
 22 44  1  0
 25 45  1  0
 26 46  1  0
M  END
>  <smiles>  (42) 
O=C(NCC(=O)N1CCC[C@H]1c1cncnc1)c1ccc2cc(Cl)ccc2n1

>  <score_type>  (42) 
oracle

>  <origin>  (42) 
autodockgpu

>  <m_score__min__energy>  (42) 
-8.1600000000000001

>  <m_primary>  (42) 
energy

>  <rmsd>  (42) 
2.0546686850487625

>  <m_score__min__rmsd>  (42) 
2.0546686850487625

>  <meeko>  (42) 
{"free_energy": -8.08, "intermolecular_energy": -9.57, "internal_energy": -1.36, "cluster_size": 18, "cluster_id": 1, "rank_in_cluster": 5}

>  <energy>  (42) 
-7.54

>  <cluster_rmsd>  (42) 
0.76

>  <cluster>  (42) 
3

$$$$

     RDKit          3D

 46 49  0  0  0  0  0  0  0  0999 V2000
  140.3480   72.4330  220.8490 O   0  0  0  0  0  0  0  0  0  0  0  0
  140.0150   72.7510  222.0280 C   0  0  0  0  0  0  0  0  0  0  0  0
  139.5890   74.0940  222.2280 N   0  0  0  0  0  0  0  0  0  0  0  0
  139.5620   74.9920  221.0930 C   0  0  0  0  0  0  0  0  0  0  0  0
  139.2540   76.3950  221.5230 C   0  0  0  0  0  0  0  0  0  0  0  0
  138.5450   76.5890  222.5690 O   0  0  0  0  0  0  0  0  0  0  0  0
  139.7620   77.4710  220.7510 N   0  0  0  0  0  0  0  0  0  0  0  0
  138.9980   78.3550  219.8700 C   0  0  0  0  0  0  0  0  0  0  0  0
  139.9960   79.1800  219.1340 C   0  0  0  0  0  0  0  0  0  0  0  0
  141.3110   78.4850  219.3570 C   0  0  0  0  0  0  0  0  0  0  0  0
  141.1330   77.8710  220.7090 C   0  0  1  0  0  0  0  0  0  0  0  0
  141.5740   78.7190  221.8340 C   0  0  0  0  0  0  0  0  0  0  0  0
  142.1610   79.9450  221.6060 C   0  0  0  0  0  0  0  0  0  0  0  0
  142.5690   80.7290  222.6450 N   0  0  0  0  0  0  0  0  0  0  0  0
  142.4110   80.3270  223.9210 C   0  0  0  0  0  0  0  0  0  0  0  0
  141.8410   79.1330  224.1750 N   0  0  0  0  0  0  0  0  0  0  0  0
  141.4250   78.3350  223.1510 C   0  0  0  0  0  0  0  0  0  0  0  0
  140.0580   71.8130  223.1420 C   0  0  0  0  0  0  0  0  0  0  0  0
  139.5620   70.5280  222.9010 C   0  0  0  0  0  0  0  0  0  0  0  0
  139.5580   69.5720  223.8840 C   0  0  0  0  0  0  0  0  0  0  0  0
  140.0670   69.9400  225.1180 C   0  0  0  0  0  0  0  0  0  0  0  0
  140.0840   69.0080  226.1390 C   0  0  0  0  0  0  0  0  0  0  0  0
  140.5780   69.3170  227.3930 C   0  0  0  0  0  0  0  0  0  0  0  0
  140.6100   68.1530  228.7040 Cl  0  0  0  0  0  0  0  0  0  0  0  0
  141.0620   70.6060  227.5890 C   0  0  0  0  0  0  0  0  0  0  0  0
  141.0580   71.5580  226.5880 C   0  0  0  0  0  0  0  0  0  0  0  0
  140.5600   71.2320  225.3430 C   0  0  0  0  0  0  0  0  0  0  0  0
  140.5440   72.1380  224.3520 N   0  0  0  0  0  0  0  0  0  0  0  0
  139.3030   74.3970  223.2020 H   0  0  0  0  0  0  0  0  0  0  0  0
  140.5442   74.9752  220.5980 H   0  0  0  0  0  0  0  0  0  0  0  0
  138.7750   74.6575  220.4011 H   0  0  0  0  0  0  0  0  0  0  0  0
  138.3988   77.7624  219.1631 H   0  0  0  0  0  0  0  0  0  0  0  0
  138.3036   78.9866  220.4435 H   0  0  0  0  0  0  0  0  0  0  0  0
  139.7537   79.2154  218.0616 H   0  0  0  0  0  0  0  0  0  0  0  0
  140.0129   80.2220  219.4861 H   0  0  0  0  0  0  0  0  0  0  0  0
  141.4874   77.7148  218.5917 H   0  0  0  0  0  0  0  0  0  0  0  0
  142.1775   79.1597  219.2946 H   0  0  0  0  0  0  0  0  0  0  0  0
  141.7979   77.0057  220.8471 H   0  0  0  0  0  0  0  0  0  0  0  0
  142.3023   80.2957  220.5730 H   0  0  0  0  0  0  0  0  0  0  0  0
  142.7449   80.9690  224.7495 H   0  0  0  0  0  0  0  0  0  0  0  0
  140.9607   77.3643  223.3795 H   0  0  0  0  0  0  0  0  0  0  0  0
  139.1678   70.2795  221.9046 H   0  0  0  0  0  0  0  0  0  0  0  0
  139.1685   68.5597  223.7008 H   0  0  0  0  0  0  0  0  0  0  0  0
  139.6953   67.9966  225.9493 H   0  0  0  0  0  0  0  0  0  0  0  0
  141.4625   70.8773  228.5769 H   0  0  0  0  0  0  0  0  0  0  0  0
  141.4487   72.5679  226.7818 H   0  0  0  0  0  0  0  0  0  0  0  0
  1  2  2  0
  2  3  1  0
  3  4  1  0
  4  5  1  0
  5  6  2  0
  5  7  1  0
  7  8  1  0
  8  9  1  0
  9 10  1  0
 10 11  1  0
 11 12  1  0
 12 13  2  0
 13 14  1  0
 14 15  2  0
 15 16  1  0
 16 17  2  0
  2 18  1  0
 18 19  2  0
 19 20  1  0
 20 21  2  0
 21 22  1  0
 22 23  2  0
 23 24  1  0
 23 25  1  0
 25 26  2  0
 26 27  1  0
 27 28  2  0
 11  7  1  0
 17 12  1  0
 28 18  1  0
 27 21  1  0
  3 29  1  0
  4 30  1  0
  4 31  1  0
  8 32  1  0
  8 33  1  0
  9 34  1  0
  9 35  1  0
 10 36  1  0
 10 37  1  0
 11 38  1  6
 13 39  1  0
 15 40  1  0
 17 41  1  0
 19 42  1  0
 20 43  1  0
 22 44  1  0
 25 45  1  0
 26 46  1  0
M  END
>  <smiles>  (43) 
O=C(NCC(=O)N1CCC[C@H]1c1cncnc1)c1ccc2cc(Cl)ccc2n1

>  <score_type>  (43) 
oracle

>  <origin>  (43) 
autodockgpu

>  <m_score__min__energy>  (43) 
-8.1600000000000001

>  <m_primary>  (43) 
energy

>  <rmsd>  (43) 
2.025719695167253

>  <m_score__min__rmsd>  (43) 
2.025719695167253

>  <meeko>  (43) 
{"free_energy": -7.97, "intermolecular_energy": -9.46, "internal_energy": -1.44, "cluster_size": 18, "cluster_id": 1, "rank_in_cluster": 11}

>  <energy>  (43) 
-7.8

>  <cluster_rmsd>  (43) 
0.0

>  <cluster>  (43) 
4

$$$$

     RDKit          3D

 46 49  0  0  0  0  0  0  0  0999 V2000
  140.4460   72.5090  220.8060 O   0  0  0  0  0  0  0  0  0  0  0  0
  140.0630   72.8180  221.9730 C   0  0  0  0  0  0  0  0  0  0  0  0
  139.5970   74.1490  222.1580 N   0  0  0  0  0  0  0  0  0  0  0  0
  139.5880   75.0480  221.0230 C   0  0  0  0  0  0  0  0  0  0  0  0
  139.4640   76.4750  221.4670 C   0  0  0  0  0  0  0  0  0  0  0  0
  138.8330   76.7430  222.5460 O   0  0  0  0  0  0  0  0  0  0  0  0
  140.0540   77.4890  220.6700 N   0  0  0  0  0  0  0  0  0  0  0  0
  139.3970   78.2780  219.6280 C   0  0  0  0  0  0  0  0  0  0  0  0
  140.4710   79.0550  218.9490 C   0  0  0  0  0  0  0  0  0  0  0  0
  141.7550   78.4080  219.3920 C   0  0  0  0  0  0  0  0  0  0  0  0
  141.4160   77.9100  220.7620 C   0  0  1  0  0  0  0  0  0  0  0  0
  141.7080   78.8620  221.8520 C   0  0  0  0  0  0  0  0  0  0  0  0
  141.5500   78.4950  223.1700 C   0  0  0  0  0  0  0  0  0  0  0  0
  141.8190   79.3750  224.1780 N   0  0  0  0  0  0  0  0  0  0  0  0
  142.2460   80.6240  223.9120 C   0  0  0  0  0  0  0  0  0  0  0  0
  142.4090   81.0130  222.6320 N   0  0  0  0  0  0  0  0  0  0  0  0
  142.1460   80.1480  221.6110 C   0  0  0  0  0  0  0  0  0  0  0  0
  140.0900   71.8790  223.0870 C   0  0  0  0  0  0  0  0  0  0  0  0
  139.5770   70.6010  222.8440 C   0  0  0  0  0  0  0  0  0  0  0  0
  139.5570   69.6460  223.8280 C   0  0  0  0  0  0  0  0  0  0  0  0
  140.0680   70.0070  225.0630 C   0  0  0  0  0  0  0  0  0  0  0  0
  140.0690   69.0750  226.0850 C   0  0  0  0  0  0  0  0  0  0  0  0
  140.5640   69.3770  227.3390 C   0  0  0  0  0  0  0  0  0  0  0  0
  140.5760   68.2130  228.6510 Cl  0  0  0  0  0  0  0  0  0  0  0  0
  141.0660   70.6600  227.5370 C   0  0  0  0  0  0  0  0  0  0  0  0
  141.0780   71.6110  226.5360 C   0  0  0  0  0  0  0  0  0  0  0  0
  140.5780   71.2910  225.2890 C   0  0  0  0  0  0  0  0  0  0  0  0
  140.5780   72.1970  224.2980 N   0  0  0  0  0  0  0  0  0  0  0  0
  139.2690   74.4440  223.1210 H   0  0  0  0  0  0  0  0  0  0  0  0
  140.5257   74.9266  220.4608 H   0  0  0  0  0  0  0  0  0  0  0  0
  138.7233   74.8024  220.3890 H   0  0  0  0  0  0  0  0  0  0  0  0
  138.8944   77.6148  218.9086 H   0  0  0  0  0  0  0  0  0  0  0  0
  138.6320   78.9436  220.0544 H   0  0  0  0  0  0  0  0  0  0  0  0
  140.3626   78.9919  217.8562 H   0  0  0  0  0  0  0  0  0  0  0  0
  140.4352   80.1238  219.2065 H   0  0  0  0  0  0  0  0  0  0  0  0
  142.0317   77.5780  218.7253 H   0  0  0  0  0  0  0  0  0  0  0  0
  142.6166   79.0916  219.3765 H   0  0  0  0  0  0  0  0  0  0  0  0
  142.0649   77.0726  221.0582 H   0  0  0  0  0  0  0  0  0  0  0  0
  141.2027   77.4800  223.4133 H   0  0  0  0  0  0  0  0  0  0  0  0
  142.4605   81.3225  224.7343 H   0  0  0  0  0  0  0  0  0  0  0  0
  142.2861   80.4829  220.5726 H   0  0  0  0  0  0  0  0  0  0  0  0
  139.1827   70.3575  221.8464 H   0  0  0  0  0  0  0  0  0  0  0  0
  139.1535   68.6393  223.6444 H   0  0  0  0  0  0  0  0  0  0  0  0
  139.6661   68.0693  225.8948 H   0  0  0  0  0  0  0  0  0  0  0  0
  141.4674   70.9258  228.5261 H   0  0  0  0  0  0  0  0  0  0  0  0
  141.4825   72.6153  226.7302 H   0  0  0  0  0  0  0  0  0  0  0  0
  1  2  2  0
  2  3  1  0
  3  4  1  0
  4  5  1  0
  5  6  2  0
  5  7  1  0
  7  8  1  0
  8  9  1  0
  9 10  1  0
 10 11  1  0
 11 12  1  0
 12 13  2  0
 13 14  1  0
 14 15  2  0
 15 16  1  0
 16 17  2  0
  2 18  1  0
 18 19  2  0
 19 20  1  0
 20 21  2  0
 21 22  1  0
 22 23  2  0
 23 24  1  0
 23 25  1  0
 25 26  2  0
 26 27  1  0
 27 28  2  0
 11  7  1  0
 17 12  1  0
 28 18  1  0
 27 21  1  0
  3 29  1  0
  4 30  1  0
  4 31  1  0
  8 32  1  0
  8 33  1  0
  9 34  1  0
  9 35  1  0
 10 36  1  0
 10 37  1  0
 11 38  1  1
 13 39  1  0
 15 40  1  0
 17 41  1  0
 19 42  1  0
 20 43  1  0
 22 44  1  0
 25 45  1  0
 26 46  1  0
M  END
>  <smiles>  (44) 
O=C(NCC(=O)N1CCC[C@H]1c1cncnc1)c1ccc2cc(Cl)ccc2n1

>  <score_type>  (44) 
oracle

>  <origin>  (44) 
autodockgpu

>  <m_score__min__energy>  (44) 
-8.1600000000000001

>  <m_primary>  (44) 
energy

>  <rmsd>  (44) 
2.0226931599327305

>  <m_score__min__rmsd>  (44) 
2.0226931599327305

>  <meeko>  (44) 
{"free_energy": -8.09, "intermolecular_energy": -9.58, "internal_energy": -1.42, "cluster_size": 18, "cluster_id": 1, "rank_in_cluster": 3}

>  <energy>  (44) 
-7.55

>  <cluster_rmsd>  (44) 
1.9

>  <cluster>  (44) 
4

$$$$

     RDKit          3D

 46 49  0  0  0  0  0  0  0  0999 V2000
  138.6570   72.7720  221.7690 O   0  0  0  0  0  0  0  0  0  0  0  0
  139.7630   72.2840  222.1460 C   0  0  0  0  0  0  0  0  0  0  0  0
  140.9040   72.6200  221.3660 N   0  0  0  0  0  0  0  0  0  0  0  0
  140.7330   73.4820  220.2160 C   0  0  0  0  0  0  0  0  0  0  0  0
  141.0190   74.9110  220.5650 C   0  0  0  0  0  0  0  0  0  0  0  0
  140.4410   75.4370  221.5780 O   0  0  0  0  0  0  0  0  0  0  0  0
  141.9280   75.6410  219.7580 N   0  0  0  0  0  0  0  0  0  0  0  0
  142.1870   77.0790  219.8100 C   0  0  0  0  0  0  0  0  0  0  0  0
  143.0570   77.3930  218.6420 C   0  0  0  0  0  0  0  0  0  0  0  0
  142.9690   76.1790  217.7590 C   0  0  0  0  0  0  0  0  0  0  0  0
  142.7560   75.0720  218.7410 C   0  0  1  0  0  0  0  0  0  0  0  0
  143.9950   74.4320  219.2250 C   0  0  0  0  0  0  0  0  0  0  0  0
  144.4180   74.6030  220.5250 C   0  0  0  0  0  0  0  0  0  0  0  0
  145.5640   74.0110  220.9710 N   0  0  0  0  0  0  0  0  0  0  0  0
  146.3110   73.2450  220.1550 C   0  0  0  0  0  0  0  0  0  0  0  0
  145.9240   73.0590  218.8780 N   0  0  0  0  0  0  0  0  0  0  0  0
  144.7820   73.6410  218.4130 C   0  0  0  0  0  0  0  0  0  0  0  0
  139.8880   71.4190  223.3120 C   0  0  0  0  0  0  0  0  0  0  0  0
  139.4310   70.1060  223.1730 C   0  0  0  0  0  0  0  0  0  0  0  0
  139.5050   69.2140  224.2130 C   0  0  0  0  0  0  0  0  0  0  0  0
  140.0510   69.6770  225.3980 C   0  0  0  0  0  0  0  0  0  0  0  0
  140.1470   68.8120  226.4730 C   0  0  0  0  0  0  0  0  0  0  0  0
  140.6810   69.2170  227.6810 C   0  0  0  0  0  0  0  0  0  0  0  0
  140.8120   68.1400  229.0590 Cl  0  0  0  0  0  0  0  0  0  0  0  0
  141.1240   70.5320  227.7760 C   0  0  0  0  0  0  0  0  0  0  0  0
  141.0420   71.4180  226.7200 C   0  0  0  0  0  0  0  0  0  0  0  0
  140.5040   70.9970  225.5200 C   0  0  0  0  0  0  0  0  0  0  0  0
  140.4120   71.8370  224.4770 N   0  0  0  0  0  0  0  0  0  0  0  0
  141.8470   72.2300  221.6510 H   0  0  0  0  0  0  0  0  0  0  0  0
  141.4226   73.1615  219.4212 H   0  0  0  0  0  0  0  0  0  0  0  0
  139.6895   73.4077  219.8761 H   0  0  0  0  0  0  0  0  0  0  0  0
  141.2423   77.6383  219.7417 H   0  0  0  0  0  0  0  0  0  0  0  0
  142.6719   77.3626  220.7557 H   0  0  0  0  0  0  0  0  0  0  0  0
  142.6885   78.2843  218.1130 H   0  0  0  0  0  0  0  0  0  0  0  0
  144.0919   77.6130  218.9428 H   0  0  0  0  0  0  0  0  0  0  0  0
  142.1231   76.2574  217.0603 H   0  0  0  0  0  0  0  0  0  0  0  0
  143.8566   76.0352  217.1254 H   0  0  0  0  0  0  0  0  0  0  0  0
  142.2625   74.2079  218.2722 H   0  0  0  0  0  0  0  0  0  0  0  0
  143.8247   75.2244  221.2120 H   0  0  0  0  0  0  0  0  0  0  0  0
  147.2321   72.7735  220.5283 H   0  0  0  0  0  0  0  0  0  0  0  0
  144.4814   73.4764  217.3677 H   0  0  0  0  0  0  0  0  0  0  0  0
  139.0042   69.7815  222.2125 H   0  0  0  0  0  0  0  0  0  0  0  0
  139.1471   68.1790  224.1100 H   0  0  0  0  0  0  0  0  0  0  0  0
  139.7898   67.7774  226.3635 H   0  0  0  0  0  0  0  0  0  0  0  0
  141.5552   70.8788  228.7267 H   0  0  0  0  0  0  0  0  0  0  0  0
  141.4024   72.4510  226.8339 H   0  0  0  0  0  0  0  0  0  0  0  0
  1  2  2  0
  2  3  1  0
  3  4  1  0
  4  5  1  0
  5  6  2  0
  5  7  1  0
  7  8  1  0
  8  9  1  0
  9 10  1  0
 10 11  1  0
 11 12  1  0
 12 13  2  0
 13 14  1  0
 14 15  2  0
 15 16  1  0
 16 17  2  0
  2 18  1  0
 18 19  2  0
 19 20  1  0
 20 21  2  0
 21 22  1  0
 22 23  2  0
 23 24  1  0
 23 25  1  0
 25 26  2  0
 26 27  1  0
 27 28  2  0
 11  7  1  0
 17 12  1  0
 28 18  1  0
 27 21  1  0
  3 29  1  0
  4 30  1  0
  4 31  1  0
  8 32  1  0
  8 33  1  0
  9 34  1  0
  9 35  1  0
 10 36  1  0
 10 37  1  0
 11 38  1  6
 13 39  1  0
 15 40  1  0
 17 41  1  0
 19 42  1  0
 20 43  1  0
 22 44  1  0
 25 45  1  0
 26 46  1  0
M  END
>  <smiles>  (45) 
O=C(NCC(=O)N1CCC[C@H]1c1cncnc1)c1ccc2cc(Cl)ccc2n1

>  <score_type>  (45) 
oracle

>  <origin>  (45) 
autodockgpu

>  <m_score__min__energy>  (45) 
-8.1600000000000001

>  <m_primary>  (45) 
energy

>  <rmsd>  (45) 
2.4259032663414977

>  <m_score__min__rmsd>  (45) 
2.4259032663414977

>  <meeko>  (45) 
{"free_energy": -7.85, "intermolecular_energy": -9.34, "internal_energy": -1.1, "cluster_size": 20, "cluster_id": 2, "rank_in_cluster": 7}

>  <energy>  (45) 
-7.54

>  <cluster_rmsd>  (45) 
1.88

>  <cluster>  (45) 
4

$$$$

     RDKit          3D

 46 49  0  0  0  0  0  0  0  0999 V2000
  140.1860   75.8440  219.2360 O   0  0  0  0  0  0  0  0  0  0  0  0
  140.6840   75.3700  220.3000 C   0  0  0  0  0  0  0  0  0  0  0  0
  141.9150   75.9350  220.7330 N   0  0  0  0  0  0  0  0  0  0  0  0
  142.5100   76.9950  219.9470 C   0  0  0  0  0  0  0  0  0  0  0  0
  141.8080   78.2990  220.1810 C   0  0  0  0  0  0  0  0  0  0  0  0
  141.3360   78.9450  219.1840 O   0  0  0  0  0  0  0  0  0  0  0  0
  141.6880   78.7780  221.5100 N   0  0  0  0  0  0  0  0  0  0  0  0
  142.1290   80.0780  222.0160 C   0  0  0  0  0  0  0  0  0  0  0  0
  141.9730   80.0280  223.4970 C   0  0  0  0  0  0  0  0  0  0  0  0
  141.7870   78.5700  223.8170 C   0  0  0  0  0  0  0  0  0  0  0  0
  141.1040   78.0500  222.5920 C   0  0  1  0  0  0  0  0  0  0  0  0
  139.6290   78.0850  222.6490 C   0  0  0  0  0  0  0  0  0  0  0  0
  138.9510   79.2840  222.6580 C   0  0  0  0  0  0  0  0  0  0  0  0
  137.5870   79.3160  222.7120 N   0  0  0  0  0  0  0  0  0  0  0  0
  136.8690   78.1780  222.7560 C   0  0  0  0  0  0  0  0  0  0  0  0
  137.5040   76.9900  222.7490 N   0  0  0  0  0  0  0  0  0  0  0  0
  138.8650   76.9370  222.6960 C   0  0  0  0  0  0  0  0  0  0  0  0
  140.0500   74.3000  221.0600 C   0  0  0  0  0  0  0  0  0  0  0  0
  138.7280   73.9900  220.7260 C   0  0  0  0  0  0  0  0  0  0  0  0
  138.0430   73.0000  221.3830 C   0  0  0  0  0  0  0  0  0  0  0  0
  138.7220   72.3270  222.3850 C   0  0  0  0  0  0  0  0  0  0  0  0
  138.0710   71.3210  223.0740 C   0  0  0  0  0  0  0  0  0  0  0  0
  138.6950   70.6150  224.0850 C   0  0  0  0  0  0  0  0  0  0  0  0
  137.8920   69.3350  224.9730 Cl  0  0  0  0  0  0  0  0  0  0  0  0
  140.0100   70.9560  224.3850 C   0  0  0  0  0  0  0  0  0  0  0  0
  140.6860   71.9570  223.7140 C   0  0  0  0  0  0  0  0  0  0  0  0
  140.0460   72.6520  222.7080 C   0  0  0  0  0  0  0  0  0  0  0  0
  140.6790   73.6290  222.0390 N   0  0  0  0  0  0  0  0  0  0  0  0
  142.3620   75.5640  221.6190 H   0  0  0  0  0  0  0  0  0  0  0  0
  143.5680   77.1008  220.2288 H   0  0  0  0  0  0  0  0  0  0  0  0
  142.4179   76.7346  218.8823 H   0  0  0  0  0  0  0  0  0  0  0  0
  143.1820   80.2524  221.7501 H   0  0  0  0  0  0  0  0  0  0  0  0
  141.5378   80.8969  221.5802 H   0  0  0  0  0  0  0  0  0  0  0  0
  142.8716   80.4219  223.9944 H   0  0  0  0  0  0  0  0  0  0  0  0
  141.1279   80.6398  223.8455 H   0  0  0  0  0  0  0  0  0  0  0  0
  142.7550   78.0715  223.9735 H   0  0  0  0  0  0  0  0  0  0  0  0
  141.2181   78.3949  224.7420 H   0  0  0  0  0  0  0  0  0  0  0  0
  141.2680   76.9693  222.4689 H   0  0  0  0  0  0  0  0  0  0  0  0
  139.5154   80.2274  222.6212 H   0  0  0  0  0  0  0  0  0  0  0  0
  135.7705   78.2180  222.7974 H   0  0  0  0  0  0  0  0  0  0  0  0
  139.3653   75.9574  222.6906 H   0  0  0  0  0  0  0  0  0  0  0  0
  138.2285   74.5502  219.9219 H   0  0  0  0  0  0  0  0  0  0  0  0
  137.0026   72.7520  221.1260 H   0  0  0  0  0  0  0  0  0  0  0  0
  137.0312   71.0765  222.8113 H   0  0  0  0  0  0  0  0  0  0  0  0
  140.5303   70.4091  225.1851 H   0  0  0  0  0  0  0  0  0  0  0  0
  141.7259   72.1980  223.9795 H   0  0  0  0  0  0  0  0  0  0  0  0
  1  2  2  0
  2  3  1  0
  3  4  1  0
  4  5  1  0
  5  6  2  0
  5  7  1  0
  7  8  1  0
  8  9  1  0
  9 10  1  0
 10 11  1  0
 11 12  1  0
 12 13  2  0
 13 14  1  0
 14 15  2  0
 15 16  1  0
 16 17  2  0
  2 18  1  0
 18 19  2  0
 19 20  1  0
 20 21  2  0
 21 22  1  0
 22 23  2  0
 23 24  1  0
 23 25  1  0
 25 26  2  0
 26 27  1  0
 27 28  2  0
 11  7  1  0
 17 12  1  0
 28 18  1  0
 27 21  1  0
  3 29  1  0
  4 30  1  0
  4 31  1  0
  8 32  1  0
  8 33  1  0
  9 34  1  0
  9 35  1  0
 10 36  1  0
 10 37  1  0
 11 38  1  6
 13 39  1  0
 15 40  1  0
 17 41  1  0
 19 42  1  0
 20 43  1  0
 22 44  1  0
 25 45  1  0
 26 46  1  0
M  END
>  <smiles>  (46) 
O=C(NCC(=O)N1CCC[C@H]1c1cncnc1)c1ccc2cc(Cl)ccc2n1

>  <score_type>  (46) 
oracle

>  <origin>  (46) 
autodockgpu

>  <m_score__min__energy>  (46) 
-8.1600000000000001

>  <m_primary>  (46) 
energy

>  <rmsd>  (46) 
5.337485617851426

>  <m_score__min__rmsd>  (46) 
5.337485617851426

>  <meeko>  (46) 
{"free_energy": -6.44, "intermolecular_energy": -7.93, "internal_energy": -1.93, "cluster_size": 1, "cluster_id": 9, "rank_in_cluster": 1}

>  <energy>  (46) 
-7.64

>  <cluster_rmsd>  (46) 
0.0

>  <cluster>  (46) 
5

$$$$

     RDKit          3D

 46 49  0  0  0  0  0  0  0  0999 V2000
  140.3820   72.6170  220.9160 O   0  0  0  0  0  0  0  0  0  0  0  0
  139.8050   72.7920  222.0290 C   0  0  0  0  0  0  0  0  0  0  0  0
  139.0240   73.9740  222.1610 N   0  0  0  0  0  0  0  0  0  0  0  0
  138.9390   74.8820  221.0370 C   0  0  0  0  0  0  0  0  0  0  0  0
  139.2430   76.2890  221.4560 C   0  0  0  0  0  0  0  0  0  0  0  0
  138.6970   76.7600  222.5120 O   0  0  0  0  0  0  0  0  0  0  0  0
  140.1320   77.0590  220.6630 N   0  0  0  0  0  0  0  0  0  0  0  0
  139.8470   77.6610  219.3610 C   0  0  0  0  0  0  0  0  0  0  0  0
  141.1430   78.1850  218.8470 C   0  0  0  0  0  0  0  0  0  0  0  0
  142.1900   77.5420  219.7150 C   0  0  0  0  0  0  0  0  0  0  0  0
  141.4780   77.3760  221.0190 C   0  0  1  0  0  0  0  0  0  0  0  0
  141.6320   78.5090  221.9530 C   0  0  0  0  0  0  0  0  0  0  0  0
  141.5060   78.3260  223.3120 C   0  0  0  0  0  0  0  0  0  0  0  0
  141.6470   79.3740  224.1750 N   0  0  0  0  0  0  0  0  0  0  0  0
  141.9130   80.6140  223.7220 C   0  0  0  0  0  0  0  0  0  0  0  0
  142.0410   80.8240  222.3970 N   0  0  0  0  0  0  0  0  0  0  0  0
  141.9040   79.7900  221.5190 C   0  0  0  0  0  0  0  0  0  0  0  0
  139.9180   71.8500  223.1350 C   0  0  0  0  0  0  0  0  0  0  0  0
  139.4860   70.5430  222.8940 C   0  0  0  0  0  0  0  0  0  0  0  0
  139.5510   69.5820  223.8710 C   0  0  0  0  0  0  0  0  0  0  0  0
  140.0630   69.9690  225.0970 C   0  0  0  0  0  0  0  0  0  0  0  0
  140.1480   69.0330  226.1110 C   0  0  0  0  0  0  0  0  0  0  0  0
  140.6490   69.3590  227.3570 C   0  0  0  0  0  0  0  0  0  0  0  0
  140.7670   68.1900  228.6590 Cl  0  0  0  0  0  0  0  0  0  0  0  0
  141.0680   70.6710  227.5540 C   0  0  0  0  0  0  0  0  0  0  0  0
  140.9950   71.6270  226.5600 C   0  0  0  0  0  0  0  0  0  0  0  0
  140.4910   71.2830  225.3220 C   0  0  0  0  0  0  0  0  0  0  0  0
  140.4090   72.1930  224.3380 N   0  0  0  0  0  0  0  0  0  0  0  0
  138.5260   74.1550  223.0780 H   0  0  0  0  0  0  0  0  0  0  0  0
  139.6625   74.5716  220.2688 H   0  0  0  0  0  0  0  0  0  0  0  0
  137.9143   74.8497  220.6383 H   0  0  0  0  0  0  0  0  0  0  0  0
  139.4426   76.9045  218.6724 H   0  0  0  0  0  0  0  0  0  0  0  0
  139.0990   78.4628  219.4477 H   0  0  0  0  0  0  0  0  0  0  0  0
  141.2852   77.9011  217.7938 H   0  0  0  0  0  0  0  0  0  0  0  0
  141.1905   79.2833  218.8844 H   0  0  0  0  0  0  0  0  0  0  0  0
  142.5016   76.5694  219.3064 H   0  0  0  0  0  0  0  0  0  0  0  0
  143.1146   78.1326  219.7942 H   0  0  0  0  0  0  0  0  0  0  0  0
  141.9230   76.5692  221.6199 H   0  0  0  0  0  0  0  0  0  0  0  0
  141.2890   77.3226  223.7070 H   0  0  0  0  0  0  0  0  0  0  0  0
  142.0250   81.4496  224.4286 H   0  0  0  0  0  0  0  0  0  0  0  0
  142.0127   79.9813  220.4412 H   0  0  0  0  0  0  0  0  0  0  0  0
  139.0867   70.2800  221.9033 H   0  0  0  0  0  0  0  0  0  0  0  0
  139.2119   68.5517  223.6883 H   0  0  0  0  0  0  0  0  0  0  0  0
  139.8086   68.0040  225.9214 H   0  0  0  0  0  0  0  0  0  0  0  0
  141.4718   70.9570  228.5364 H   0  0  0  0  0  0  0  0  0  0  0  0
  141.3359   72.6548  226.7535 H   0  0  0  0  0  0  0  0  0  0  0  0
  1  2  2  0
  2  3  1  0
  3  4  1  0
  4  5  1  0
  5  6  2  0
  5  7  1  0
  7  8  1  0
  8  9  1  0
  9 10  1  0
 10 11  1  0
 11 12  1  0
 12 13  2  0
 13 14  1  0
 14 15  2  0
 15 16  1  0
 16 17  2  0
  2 18  1  0
 18 19  2  0
 19 20  1  0
 20 21  2  0
 21 22  1  0
 22 23  2  0
 23 24  1  0
 23 25  1  0
 25 26  2  0
 26 27  1  0
 27 28  2  0
 11  7  1  0
 17 12  1  0
 28 18  1  0
 27 21  1  0
  3 29  1  0
  4 30  1  0
  4 31  1  0
  8 32  1  0
  8 33  1  0
  9 34  1  0
  9 35  1  0
 10 36  1  0
 10 37  1  0
 11 38  1  1
 13 39  1  0
 15 40  1  0
 17 41  1  0
 19 42  1  0
 20 43  1  0
 22 44  1  0
 25 45  1  0
 26 46  1  0
M  END
>  <smiles>  (47) 
O=C(NCC(=O)N1CCC[C@H]1c1cncnc1)c1ccc2cc(Cl)ccc2n1

>  <score_type>  (47) 
oracle

>  <origin>  (47) 
autodockgpu

>  <m_score__min__energy>  (47) 
-8.1600000000000001

>  <m_primary>  (47) 
energy

>  <rmsd>  (47) 
1.7930782617478225

>  <m_score__min__rmsd>  (47) 
1.7930782617478225

>  <meeko>  (47) 
{"free_energy": -8.11, "intermolecular_energy": -9.6, "internal_energy": -1.22, "cluster_size": 18, "cluster_id": 1, "rank_in_cluster": 2}

>  <energy>  (47) 
-7.42

>  <cluster_rmsd>  (47) 
0.0

>  <cluster>  (47) 
6

$$$$

     RDKit          3D

 46 49  0  0  0  0  0  0  0  0999 V2000
  134.7540   68.7830  225.6410 O   0  0  0  0  0  0  0  0  0  0  0  0
  134.9540   69.9720  225.2530 C   0  0  0  0  0  0  0  0  0  0  0  0
  135.9330   70.1520  224.2370 N   0  0  0  0  0  0  0  0  0  0  0  0
  136.6240   68.9890  223.7200 C   0  0  0  0  0  0  0  0  0  0  0  0
  138.0740   69.0090  224.1010 C   0  0  0  0  0  0  0  0  0  0  0  0
  138.5990   67.9660  224.6220 O   0  0  0  0  0  0  0  0  0  0  0  0
  138.8220   70.1900  223.8700 N   0  0  0  0  0  0  0  0  0  0  0  0
  138.3640   71.3970  223.1820 C   0  0  0  0  0  0  0  0  0  0  0  0
  139.5620   72.2660  223.0130 C   0  0  0  0  0  0  0  0  0  0  0  0
  140.7340   71.3650  223.2900 C   0  0  0  0  0  0  0  0  0  0  0  0
  140.1750   70.3940  224.2810 C   0  0  1  0  0  0  0  0  0  0  0  0
  140.3510   70.7880  225.6930 C   0  0  0  0  0  0  0  0  0  0  0  0
  141.1060   71.8890  226.0310 C   0  0  0  0  0  0  0  0  0  0  0  0
  141.2690   72.2520  227.3360 N   0  0  0  0  0  0  0  0  0  0  0  0
  140.6960   71.5460  228.3290 C   0  0  0  0  0  0  0  0  0  0  0  0
  139.9520   70.4630  228.0300 N   0  0  0  0  0  0  0  0  0  0  0  0
  139.7770   70.0840  226.7320 C   0  0  0  0  0  0  0  0  0  0  0  0
  134.2350   71.1140  225.8020 C   0  0  0  0  0  0  0  0  0  0  0  0
  133.1490   70.8310  226.6360 C   0  0  0  0  0  0  0  0  0  0  0  0
  132.4080   71.8370  227.2010 C   0  0  0  0  0  0  0  0  0  0  0  0
  132.7870   73.1360  226.9080 C   0  0  0  0  0  0  0  0  0  0  0  0
  132.0680   74.1820  227.4570 C   0  0  0  0  0  0  0  0  0  0  0  0
  132.3970   75.4990  227.2010 C   0  0  0  0  0  0  0  0  0  0  0  0
  131.5020   76.8430  227.8850 Cl  0  0  0  0  0  0  0  0  0  0  0  0
  133.4850   75.7360  226.3660 C   0  0  0  0  0  0  0  0  0  0  0  0
  134.2210   74.7110  225.8030 C   0  0  0  0  0  0  0  0  0  0  0  0
  133.8770   73.4010  226.0700 C   0  0  0  0  0  0  0  0  0  0  0  0
  134.5750   72.3860  225.5370 N   0  0  0  0  0  0  0  0  0  0  0  0
  136.1290   71.1320  223.8860 H   0  0  0  0  0  0  0  0  0  0  0  0
  136.1571   68.0816  224.1307 H   0  0  0  0  0  0  0  0  0  0  0  0
  136.5510   68.9984  222.6225 H   0  0  0  0  0  0  0  0  0  0  0  0
  137.9407   71.1377  222.2004 H   0  0  0  0  0  0  0  0  0  0  0  0
  137.5781   71.9092  223.7566 H   0  0  0  0  0  0  0  0  0  0  0  0
  139.6117   72.6620  221.9879 H   0  0  0  0  0  0  0  0  0  0  0  0
  139.5406   73.1369  223.6846 H   0  0  0  0  0  0  0  0  0  0  0  0
  141.0648   70.8518  222.3750 H   0  0  0  0  0  0  0  0  0  0  0  0
  141.6205   71.9024  223.6577 H   0  0  0  0  0  0  0  0  0  0  0  0
  140.7321   69.4455  224.2735 H   0  0  0  0  0  0  0  0  0  0  0  0
  141.5839   72.4835  225.2385 H   0  0  0  0  0  0  0  0  0  0  0  0
  140.8342   71.8511  229.3768 H   0  0  0  0  0  0  0  0  0  0  0  0
  139.1650   69.1978  226.5081 H   0  0  0  0  0  0  0  0  0  0  0  0
  132.8845   69.7834  226.8424 H   0  0  0  0  0  0  0  0  0  0  0  0
  131.5517   71.6218  227.8570 H   0  0  0  0  0  0  0  0  0  0  0  0
  131.2136   73.9600  228.1133 H   0  0  0  0  0  0  0  0  0  0  0  0
  133.7689   76.7758  226.1465 H   0  0  0  0  0  0  0  0  0  0  0  0
  135.0745   74.9371  225.1470 H   0  0  0  0  0  0  0  0  0  0  0  0
  1  2  2  0
  2  3  1  0
  3  4  1  0
  4  5  1  0
  5  6  2  0
  5  7  1  0
  7  8  1  0
  8  9  1  0
  9 10  1  0
 10 11  1  0
 11 12  1  0
 12 13  2  0
 13 14  1  0
 14 15  2  0
 15 16  1  0
 16 17  2  0
  2 18  1  0
 18 19  2  0
 19 20  1  0
 20 21  2  0
 21 22  1  0
 22 23  2  0
 23 24  1  0
 23 25  1  0
 25 26  2  0
 26 27  1  0
 27 28  2  0
 11  7  1  0
 17 12  1  0
 28 18  1  0
 27 21  1  0
  3 29  1  0
  4 30  1  0
  4 31  1  0
  8 32  1  0
  8 33  1  0
  9 34  1  0
  9 35  1  0
 10 36  1  0
 10 37  1  0
 11 38  1  1
 13 39  1  0
 15 40  1  0
 17 41  1  0
 19 42  1  0
 20 43  1  0
 22 44  1  0
 25 45  1  0
 26 46  1  0
M  END
>  <smiles>  (48) 
O=C(NCC(=O)N1CCC[C@H]1c1cncnc1)c1ccc2cc(Cl)ccc2n1

>  <score_type>  (48) 
oracle

>  <origin>  (48) 
autodockgpu

>  <m_score__min__energy>  (48) 
-8.1600000000000001

>  <m_primary>  (48) 
energy

>  <rmsd>  (48) 
7.322466125480661

>  <m_score__min__rmsd>  (48) 
7.322466125480661

>  <meeko>  (48) 
{"free_energy": -7.54, "intermolecular_energy": -9.04, "internal_energy": -1.36, "cluster_size": 4, "cluster_id": 3, "rank_in_cluster": 4}

>  <energy>  (48) 
-6.73

>  <cluster_rmsd>  (48) 
0.0

>  <cluster>  (48) 
7

$$$$

     RDKit          3D

 46 49  0  0  0  0  0  0  0  0999 V2000
  139.2290   71.5230  220.9190 O   0  0  0  0  0  0  0  0  0  0  0  0
  139.5140   72.0120  222.0510 C   0  0  0  0  0  0  0  0  0  0  0  0
  139.6600   73.4260  222.1150 N   0  0  0  0  0  0  0  0  0  0  0  0
  139.4770   74.2000  220.9060 C   0  0  0  0  0  0  0  0  0  0  0  0
  140.6070   73.9770  219.9460 C   0  0  0  0  0  0  0  0  0  0  0  0
  140.6850   72.8680  219.3160 O   0  0  0  0  0  0  0  0  0  0  0  0
  141.5600   75.0120  219.7650 N   0  0  0  0  0  0  0  0  0  0  0  0
  141.5760   76.3150  220.4300 C   0  0  0  0  0  0  0  0  0  0  0  0
  142.6400   77.1150  219.7620 C   0  0  0  0  0  0  0  0  0  0  0  0
  142.9510   76.3640  218.4970 C   0  0  0  0  0  0  0  0  0  0  0  0
  142.6820   74.9440  218.8830 C   0  0  1  0  0  0  0  0  0  0  0  0
  143.8540   74.2180  219.4110 C   0  0  0  0  0  0  0  0  0  0  0  0
  144.7750   73.6500  218.5590 C   0  0  0  0  0  0  0  0  0  0  0  0
  145.8580   72.9780  219.0470 N   0  0  0  0  0  0  0  0  0  0  0  0
  146.0550   72.8510  220.3730 C   0  0  0  0  0  0  0  0  0  0  0  0
  145.1710   73.3950  221.2320 N   0  0  0  0  0  0  0  0  0  0  0  0
  144.0820   74.0710  220.7640 C   0  0  0  0  0  0  0  0  0  0  0  0
  139.6890   71.1930  223.2440 C   0  0  0  0  0  0  0  0  0  0  0  0
  139.2500   69.8680  223.1670 C   0  0  0  0  0  0  0  0  0  0  0  0
  139.3700   69.0170  224.2350 C   0  0  0  0  0  0  0  0  0  0  0  0
  139.9450   69.5310  225.3850 C   0  0  0  0  0  0  0  0  0  0  0  0
  140.0880   68.7080  226.4870 C   0  0  0  0  0  0  0  0  0  0  0  0
  140.6530   69.1650  227.6630 C   0  0  0  0  0  0  0  0  0  0  0  0
  140.8440   68.1420  229.0740 Cl  0  0  0  0  0  0  0  0  0  0  0  0
  141.0770   70.4890  227.6960 C   0  0  0  0  0  0  0  0  0  0  0  0
  140.9480   71.3340  226.6110 C   0  0  0  0  0  0  0  0  0  0  0  0
  140.3800   70.8610  225.4450 C   0  0  0  0  0  0  0  0  0  0  0  0
  140.2430   71.6610  224.3750 N   0  0  0  0  0  0  0  0  0  0  0  0
  139.8980   73.8710  223.0460 H   0  0  0  0  0  0  0  0  0  0  0  0
  138.5337   73.8997  220.4265 H   0  0  0  0  0  0  0  0  0  0  0  0
  139.4519   75.2665  221.1744 H   0  0  0  0  0  0  0  0  0  0  0  0
  140.6005   76.8110  220.3185 H   0  0  0  0  0  0  0  0  0  0  0  0
  141.7726   76.2105  221.5072 H   0  0  0  0  0  0  0  0  0  0  0  0
  142.2763   78.1273  219.5318 H   0  0  0  0  0  0  0  0  0  0  0  0
  143.5278   77.2382  220.3997 H   0  0  0  0  0  0  0  0  0  0  0  0
  142.2937   76.6828  217.6746 H   0  0  0  0  0  0  0  0  0  0  0  0
  143.9749   76.5304  218.1311 H   0  0  0  0  0  0  0  0  0  0  0  0
  142.4509   74.3246  218.0038 H   0  0  0  0  0  0  0  0  0  0  0  0
  144.6360   73.7391  217.4715 H   0  0  0  0  0  0  0  0  0  0  0  0
  146.9322   72.3065  220.7525 H   0  0  0  0  0  0  0  0  0  0  0  0
  143.3708   74.5080  221.4804 H   0  0  0  0  0  0  0  0  0  0  0  0
  138.8001   69.5016  222.2325 H   0  0  0  0  0  0  0  0  0  0  0  0
  139.0253   67.9738  224.1809 H   0  0  0  0  0  0  0  0  0  0  0  0
  139.7440   67.6649  226.4264 H   0  0  0  0  0  0  0  0  0  0  0  0
  141.5315   70.8773  228.6194 H   0  0  0  0  0  0  0  0  0  0  0  0
  141.2952   72.3758  226.6755 H   0  0  0  0  0  0  0  0  0  0  0  0
  1  2  2  0
  2  3  1  0
  3  4  1  0
  4  5  1  0
  5  6  2  0
  5  7  1  0
  7  8  1  0
  8  9  1  0
  9 10  1  0
 10 11  1  0
 11 12  1  0
 12 13  2  0
 13 14  1  0
 14 15  2  0
 15 16  1  0
 16 17  2  0
  2 18  1  0
 18 19  2  0
 19 20  1  0
 20 21  2  0
 21 22  1  0
 22 23  2  0
 23 24  1  0
 23 25  1  0
 25 26  2  0
 26 27  1  0
 27 28  2  0
 11  7  1  0
 17 12  1  0
 28 18  1  0
 27 21  1  0
  3 29  1  0
  4 30  1  0
  4 31  1  0
  8 32  1  0
  8 33  1  0
  9 34  1  0
  9 35  1  0
 10 36  1  0
 10 37  1  0
 11 38  1  6
 13 39  1  0
 15 40  1  0
 17 41  1  0
 19 42  1  0
 20 43  1  0
 22 44  1  0
 25 45  1  0
 26 46  1  0
M  END
>  <smiles>  (49) 
O=C(NCC(=O)N1CCC[C@H]1c1cncnc1)c1ccc2cc(Cl)ccc2n1

>  <score_type>  (49) 
oracle

>  <origin>  (49) 
autodockgpu

>  <m_score__min__energy>  (49) 
-8.1600000000000001

>  <m_primary>  (49) 
energy

>  <rmsd>  (49) 
2.1546771124790034

>  <m_score__min__rmsd>  (49) 
2.1546771124790034

>  <meeko>  (49) 
{"free_energy": -7.71, "intermolecular_energy": -9.2, "internal_energy": -1.24, "cluster_size": 20, "cluster_id": 2, "rank_in_cluster": 17}

>  <energy>  (49) 
-6.61

>  <cluster_rmsd>  (49) 
0.0

>  <cluster>  (49) 
8

$$$$

     RDKit          3D

 46 49  0  0  0  0  0  0  0  0999 V2000
  139.5070   71.0780  221.0520 O   0  0  0  0  0  0  0  0  0  0  0  0
  139.3000   71.6670  222.1540 C   0  0  0  0  0  0  0  0  0  0  0  0
  138.6070   72.9080  222.0900 N   0  0  0  0  0  0  0  0  0  0  0  0
  138.1900   73.4080  220.7980 C   0  0  0  0  0  0  0  0  0  0  0  0
  139.3660   73.8840  219.9980 C   0  0  0  0  0  0  0  0  0  0  0  0
  139.5830   73.3810  218.8430 O   0  0  0  0  0  0  0  0  0  0  0  0
  140.2050   74.8850  220.5510 N   0  0  0  0  0  0  0  0  0  0  0  0
  139.9720   75.6440  221.7800 C   0  0  0  0  0  0  0  0  0  0  0  0
  141.0180   76.7030  221.8250 C   0  0  0  0  0  0  0  0  0  0  0  0
  141.5930   76.7370  220.4360 C   0  0  0  0  0  0  0  0  0  0  0  0
  141.4420   75.3200  219.9830 C   0  0  1  0  0  0  0  0  0  0  0  0
  142.6040   74.4550  220.2690 C   0  0  0  0  0  0  0  0  0  0  0  0
  143.8890   74.9290  220.1220 C   0  0  0  0  0  0  0  0  0  0  0  0
  144.9640   74.1300  220.3860 N   0  0  0  0  0  0  0  0  0  0  0  0
  144.7970   72.8580  220.7970 C   0  0  0  0  0  0  0  0  0  0  0  0
  143.5520   72.3660  220.9490 N   0  0  0  0  0  0  0  0  0  0  0  0
  142.4660   73.1490  220.6910 C   0  0  0  0  0  0  0  0  0  0  0  0
  139.7380   71.1260  223.4340 C   0  0  0  0  0  0  0  0  0  0  0  0
  140.5540   71.9470  224.2170 C   0  0  0  0  0  0  0  0  0  0  0  0
  141.0200   71.5290  225.4380 C   0  0  0  0  0  0  0  0  0  0  0  0
  140.6430   70.2630  225.8520 C   0  0  0  0  0  0  0  0  0  0  0  0
  141.0880   69.8000  227.0760 C   0  0  0  0  0  0  0  0  0  0  0  0
  140.7460   68.5450  227.5430 C   0  0  0  0  0  0  0  0  0  0  0  0
  141.2980   67.9350  229.0920 Cl  0  0  0  0  0  0  0  0  0  0  0  0
  139.9320   67.7610  226.7320 C   0  0  0  0  0  0  0  0  0  0  0  0
  139.4720   68.1960  225.5040 C   0  0  0  0  0  0  0  0  0  0  0  0
  139.8250   69.4530  225.0540 C   0  0  0  0  0  0  0  0  0  0  0  0
  139.3920   69.9020  223.8650 N   0  0  0  0  0  0  0  0  0  0  0  0
  138.4160   73.4310  222.9920 H   0  0  0  0  0  0  0  0  0  0  0  0
  137.6834   72.6018  220.2472 H   0  0  0  0  0  0  0  0  0  0  0  0
  137.5080   74.2566  220.9553 H   0  0  0  0  0  0  0  0  0  0  0  0
  138.9706   76.0989  221.7621 H   0  0  0  0  0  0  0  0  0  0  0  0
  140.0242   74.9941  222.6659 H   0  0  0  0  0  0  0  0  0  0  0  0
  140.5736   77.6753  222.0840 H   0  0  0  0  0  0  0  0  0  0  0  0
  141.7848   76.4960  222.5860 H   0  0  0  0  0  0  0  0  0  0  0  0
  141.0265   77.4228  219.7889 H   0  0  0  0  0  0  0  0  0  0  0  0
  142.6316   77.0978  220.4022 H   0  0  0  0  0  0  0  0  0  0  0  0
  141.4146   75.2495  218.8856 H   0  0  0  0  0  0  0  0  0  0  0  0
  144.0510   75.9644  219.7877 H   0  0  0  0  0  0  0  0  0  0  0  0
  145.6717   72.2250  221.0072 H   0  0  0  0  0  0  0  0  0  0  0  0
  141.4575   72.7300  220.8223 H   0  0  0  0  0  0  0  0  0  0  0  0
  140.8277   72.9464  223.8478 H   0  0  0  0  0  0  0  0  0  0  0  0
  141.6631   72.1700  226.0589 H   0  0  0  0  0  0  0  0  0  0  0  0
  141.7297   70.4459  227.6932 H   0  0  0  0  0  0  0  0  0  0  0  0
  139.6441   66.7584  227.0810 H   0  0  0  0  0  0  0  0  0  0  0  0
  138.8303   67.5469  224.8902 H   0  0  0  0  0  0  0  0  0  0  0  0
  1  2  2  0
  2  3  1  0
  3  4  1  0
  4  5  1  0
  5  6  2  0
  5  7  1  0
  7  8  1  0
  8  9  1  0
  9 10  1  0
 10 11  1  0
 11 12  1  0
 12 13  2  0
 13 14  1  0
 14 15  2  0
 15 16  1  0
 16 17  2  0
  2 18  1  0
 18 19  2  0
 19 20  1  0
 20 21  2  0
 21 22  1  0
 22 23  2  0
 23 24  1  0
 23 25  1  0
 25 26  2  0
 26 27  1  0
 27 28  2  0
 11  7  1  0
 17 12  1  0
 28 18  1  0
 27 21  1  0
  3 29  1  0
  4 30  1  0
  4 31  1  0
  8 32  1  0
  8 33  1  0
  9 34  1  0
  9 35  1  0
 10 36  1  0
 10 37  1  0
 11 38  1  6
 13 39  1  0
 15 40  1  0
 17 41  1  0
 19 42  1  0
 20 43  1  0
 22 44  1  0
 25 45  1  0
 26 46  1  0
M  END
>  <smiles>  (50) 
O=C(NCC(=O)N1CCC[C@H]1c1cncnc1)c1ccc2cc(Cl)ccc2n1

>  <score_type>  (50) 
oracle

>  <origin>  (50) 
autodockgpu

>  <m_score__min__energy>  (50) 
-8.1600000000000001

>  <m_primary>  (50) 
energy

>  <rmsd>  (50) 
3.019506027996614

>  <m_score__min__rmsd>  (50) 
3.019506027996614

>  <meeko>  (50) 
{"free_energy": -7.15, "intermolecular_energy": -8.64, "internal_energy": -1.49, "cluster_size": 20, "cluster_id": 2, "rank_in_cluster": 20}

>  <energy>  (50) 
-6.44

>  <cluster_rmsd>  (50) 
0.0

>  <cluster>  (50) 
9

$$$$
