
     RDKit          3D

 55 58  0  0  0  0  0  0  0  0999 V2000
  138.9570   72.6160  222.3920 O   0  0  0  0  0  0  0  0  0  0  0  0
  140.0000   71.9440  222.7020 C   0  0  0  0  0  0  0  0  0  0  0  0
  141.2120   72.0720  221.9370 N   0  0  0  0  0  0  0  0  0  0  0  0
  141.3140   72.9340  220.8280 C   0  0  0  0  0  0  0  0  0  0  0  0
  141.3370   74.3620  221.0390 C   0  0  0  0  0  0  0  0  0  0  0  0
  140.6380   74.7630  222.0630 O   0  0  0  0  0  0  0  0  0  0  0  0
  142.0030   75.3800  220.2960 N   0  0  0  0  0  0  0  0  0  0  0  0
  142.9740   75.1910  219.2230 C   0  0  0  0  0  0  0  0  0  0  0  0
  142.6390   76.4120  218.3430 C   0  0  2  0  0  0  0  0  0  0  0  0
  143.6320   76.6620  217.4130 O   0  0  0  0  0  0  0  0  0  0  0  0
  142.5800   77.4620  219.4310 C   0  0  0  0  0  0  0  0  0  0  0  0
  141.8110   76.8010  220.5540 C   0  0  1  0  0  0  0  0  0  0  0  0
  140.3980   77.2410  220.6300 C   0  0  0  0  0  0  0  0  0  0  0  0
  139.9210   77.6910  221.9800 C   0  0  0  0  0  0  0  0  0  0  0  0
  140.8500   78.8110  222.3820 C   0  0  0  0  0  0  0  0  0  0  0  0
  140.9340   79.9760  221.6560 C   0  0  0  0  0  0  0  0  0  0  0  0
  141.7600   81.0160  221.9820 C   0  0  0  0  0  0  0  0  0  0  0  0
  142.5530   80.8710  223.1140 C   0  0  0  0  0  0  0  0  0  0  0  0
  142.4900   79.7030  223.8710 C   0  0  0  0  0  0  0  0  0  0  0  0
  141.6410   78.6680  223.5100 C   0  0  0  0  0  0  0  0  0  0  0  0
  139.9580   71.0230  223.8630 C   0  0  0  0  0  0  0  0  0  0  0  0
  139.3030   69.8170  223.7210 C   0  0  0  0  0  0  0  0  0  0  0  0
  139.2210   68.9130  224.7450 C   0  0  0  0  0  0  0  0  0  0  0  0
  139.8200   69.2470  225.9460 C   0  0  0  0  0  0  0  0  0  0  0  0
  139.7470   68.3540  226.9820 C   0  0  0  0  0  0  0  0  0  0  0  0
  140.3400   68.6780  228.1840 C   0  0  0  0  0  0  0  0  0  0  0  0
  141.0040   69.8920  228.3440 C   0  0  0  0  0  0  0  0  0  0  0  0
  141.0760   70.8000  227.2810 C   0  0  0  0  0  0  0  0  0  0  0  0
  140.4780   70.4680  226.0780 C   0  0  0  0  0  0  0  0  0  0  0  0
  140.5370   71.3400  225.0350 N   0  0  0  0  0  0  0  0  0  0  0  0
  142.0090   71.4610  222.2880 H   0  0  0  0  0  0  0  0  0  0  0  0
  142.2451   72.6727  220.3039 H   0  0  0  0  0  0  0  0  0  0  0  0
  140.3728   72.7678  220.2834 H   0  0  0  0  0  0  0  0  0  0  0  0
  144.0080   75.2280  219.5965 H   0  0  0  0  0  0  0  0  0  0  0  0
  142.9156   74.2196  218.7103 H   0  0  0  0  0  0  0  0  0  0  0  0
  141.7358   76.3286  217.7207 H   0  0  0  0  0  0  0  0  0  0  0  0
  144.4830   76.3000  217.8190 H   0  0  0  0  0  0  0  0  0  0  0  0
  143.5925   77.7363  219.7619 H   0  0  0  0  0  0  0  0  0  0  0  0
  142.1036   78.3926  219.0889 H   0  0  0  0  0  0  0  0  0  0  0  0
  142.1725   77.0795  221.5549 H   0  0  0  0  0  0  0  0  0  0  0  0
  140.2686   78.0800  219.9304 H   0  0  0  0  0  0  0  0  0  0  0  0
  139.7971   76.3531  220.3839 H   0  0  0  0  0  0  0  0  0  0  0  0
  138.8843   78.0539  221.9203 H   0  0  0  0  0  0  0  0  0  0  0  0
  139.9309   76.8695  222.7115 H   0  0  0  0  0  0  0  0  0  0  0  0
  140.3008   80.0770  220.7623 H   0  0  0  0  0  0  0  0  0  0  0  0
  141.7953   81.9310  221.3724 H   0  0  0  0  0  0  0  0  0  0  0  0
  143.2333   81.6818  223.4136 H   0  0  0  0  0  0  0  0  0  0  0  0
  143.1215   79.6008  224.7659 H   0  0  0  0  0  0  0  0  0  0  0  0
  141.5963   77.7473  224.1103 H   0  0  0  0  0  0  0  0  0  0  0  0
  138.8329   69.5751  222.7564 H   0  0  0  0  0  0  0  0  0  0  0  0
  138.6970   67.9543  224.6174 H   0  0  0  0  0  0  0  0  0  0  0  0
  139.2240   67.3943  226.8572 H   0  0  0  0  0  0  0  0  0  0  0  0
  140.2882   67.9707  229.0249 H   0  0  0  0  0  0  0  0  0  0  0  0
  141.4730   70.1378  229.3082 H   0  0  0  0  0  0  0  0  0  0  0  0
  141.5987   71.7605  227.3999 H   0  0  0  0  0  0  0  0  0  0  0  0
  1  2  2  0
  2  3  1  0
  3  4  1  0
  4  5  1  0
  5  6  2  0
  5  7  1  0
  7  8  1  0
  8  9  1  0
  9 10  1  0
  9 11  1  0
 11 12  1  0
 12 13  1  0
 13 14  1  0
 14 15  1  0
 15 16  2  0
 16 17  1  0
 17 18  2  0
 18 19  1  0
 19 20  2  0
  2 21  1  0
 21 22  2  0
 22 23  1  0
 23 24  2  0
 24 25  1  0
 25 26  2  0
 26 27  1  0
 27 28  2  0
 28 29  1  0
 29 30  2  0
 12  7  1  0
 20 15  1  0
 30 21  1  0
 29 24  1  0
  3 31  1  0
  4 32  1  0
  4 33  1  0
  8 34  1  0
  8 35  1  0
  9 36  1  6
 10 37  1  0
 11 38  1  0
 11 39  1  0
 12 40  1  1
 13 41  1  0
 13 42  1  0
 14 43  1  0
 14 44  1  0
 16 45  1  0
 17 46  1  0
 18 47  1  0
 19 48  1  0
 20 49  1  0
 22 50  1  0
 23 51  1  0
 25 52  1  0
 26 53  1  0
 27 54  1  0
 28 55  1  0
M  END
>  <smiles>  (1) 
O=C(NCC(=O)N1C[C@H](O)C[C@H]1CCc1ccccc1)c1ccc2ccccc2n1

>  <score_type>  (1) 
oracle

>  <origin>  (1) 
autodockgpu

>  <m_score__min__energy>  (1) 
-9.2799999999999994

>  <m_primary>  (1) 
energy

>  <rmsd>  (1) 
2.6847830064608074

>  <m_score__min__rmsd>  (1) 
2.6847830064608074

>  <meeko>  (1) 
{"free_energy": -9.01, "intermolecular_energy": -11.39, "internal_energy": -1.36, "cluster_size": 24, "cluster_id": 1, "rank_in_cluster": 10}

>  <energy>  (1) 
-9.28

>  <cluster_rmsd>  (1) 
0.0

>  <cluster>  (1) 
1

$$$$

     RDKit          3D

 55 58  0  0  0  0  0  0  0  0999 V2000
  140.7010   71.2740  221.2500 O   0  0  0  0  0  0  0  0  0  0  0  0
  140.3690   71.9680  222.2720 C   0  0  0  0  0  0  0  0  0  0  0  0
  140.1260   73.3810  222.1530 N   0  0  0  0  0  0  0  0  0  0  0  0
  140.2320   74.0620  220.9250 C   0  0  0  0  0  0  0  0  0  0  0  0
  140.8690   75.3580  220.8850 C   0  0  0  0  0  0  0  0  0  0  0  0
  141.0780   75.8880  222.0580 O   0  0  0  0  0  0  0  0  0  0  0  0
  141.2910   76.1290  219.7630 N   0  0  0  0  0  0  0  0  0  0  0  0
  141.6430   77.5460  219.7540 C   0  0  0  0  0  0  0  0  0  0  0  0
  142.7400   77.5400  218.6690 C   0  0  2  0  0  0  0  0  0  0  0  0
  143.0270   78.8170  218.2240 O   0  0  0  0  0  0  0  0  0  0  0  0
  142.0210   76.7060  217.6300 C   0  0  0  0  0  0  0  0  0  0  0  0
  141.3920   75.5780  218.4180 C   0  0  1  0  0  0  0  0  0  0  0  0
  142.1430   74.3050  218.3140 C   0  0  0  0  0  0  0  0  0  0  0  0
  143.5510   74.4110  217.8080 C   0  0  0  0  0  0  0  0  0  0  0  0
  144.4210   73.8980  218.9290 C   0  0  0  0  0  0  0  0  0  0  0  0
  145.1480   72.7360  218.8070 C   0  0  0  0  0  0  0  0  0  0  0  0
  145.9480   72.2340  219.7950 C   0  0  0  0  0  0  0  0  0  0  0  0
  146.0210   72.9490  220.9830 C   0  0  0  0  0  0  0  0  0  0  0  0
  145.2970   74.1300  221.1390 C   0  0  0  0  0  0  0  0  0  0  0  0
  144.4940   74.6100  220.1150 C   0  0  0  0  0  0  0  0  0  0  0  0
  140.2350   71.3080  223.5920 C   0  0  0  0  0  0  0  0  0  0  0  0
  139.6170   70.0770  223.6510 C   0  0  0  0  0  0  0  0  0  0  0  0
  139.4540   69.4030  224.8300 C   0  0  0  0  0  0  0  0  0  0  0  0
  139.9350   70.0000  225.9820 C   0  0  0  0  0  0  0  0  0  0  0  0
  139.7810   69.3400  227.1730 C   0  0  0  0  0  0  0  0  0  0  0  0
  140.2560   69.9280  228.3260 C   0  0  0  0  0  0  0  0  0  0  0  0
  140.8830   71.1710  228.2840 C   0  0  0  0  0  0  0  0  0  0  0  0
  141.0380   71.8400  227.0640 C   0  0  0  0  0  0  0  0  0  0  0  0
  140.5580   71.2440  225.9110 C   0  0  0  0  0  0  0  0  0  0  0  0
  140.6990   71.8820  224.7170 N   0  0  0  0  0  0  0  0  0  0  0  0
  139.8610   73.8510  223.0710 H   0  0  0  0  0  0  0  0  0  0  0  0
  140.7946   73.4073  220.2432 H   0  0  0  0  0  0  0  0  0  0  0  0
  139.1872   74.2784  220.6576 H   0  0  0  0  0  0  0  0  0  0  0  0
  140.7889   78.1774  219.4680 H   0  0  0  0  0  0  0  0  0  0  0  0
  141.9548   77.9531  220.7272 H   0  0  0  0  0  0  0  0  0  0  0  0
  143.7257   77.1604  218.9763 H   0  0  0  0  0  0  0  0  0  0  0  0
  143.6620   78.6990  217.4480 H   0  0  0  0  0  0  0  0  0  0  0  0
  141.2494   77.3012  217.1198 H   0  0  0  0  0  0  0  0  0  0  0  0
  142.6993   76.3402  216.8451 H   0  0  0  0  0  0  0  0  0  0  0  0
  140.4072   75.2726  218.0347 H   0  0  0  0  0  0  0  0  0  0  0  0
  142.1788   73.8527  219.3160 H   0  0  0  0  0  0  0  0  0  0  0  0
  141.6043   73.7034  217.5671 H   0  0  0  0  0  0  0  0  0  0  0  0
  143.6829   73.7952  216.9061 H   0  0  0  0  0  0  0  0  0  0  0  0
  143.8087   75.4438  217.5309 H   0  0  0  0  0  0  0  0  0  0  0  0
  145.0815   72.1795  217.8605 H   0  0  0  0  0  0  0  0  0  0  0  0
  146.5120   71.3001  219.6545 H   0  0  0  0  0  0  0  0  0  0  0  0
  146.6531   72.5818  221.8049 H   0  0  0  0  0  0  0  0  0  0  0  0
  145.3633   74.6875  222.0849 H   0  0  0  0  0  0  0  0  0  0  0  0
  143.9238   75.5419  220.2428 H   0  0  0  0  0  0  0  0  0  0  0  0
  139.2435   69.6229  222.7213 H   0  0  0  0  0  0  0  0  0  0  0  0
  138.9583   68.4215  224.8613 H   0  0  0  0  0  0  0  0  0  0  0  0
  139.2869   68.3579  227.2085 H   0  0  0  0  0  0  0  0  0  0  0  0
  140.1386   69.4100  229.2893 H   0  0  0  0  0  0  0  0  0  0  0  0
  141.2574   71.6282  229.2118 H   0  0  0  0  0  0  0  0  0  0  0  0
  141.5324   72.8217  227.0227 H   0  0  0  0  0  0  0  0  0  0  0  0
  1  2  2  0
  2  3  1  0
  3  4  1  0
  4  5  1  0
  5  6  2  0
  5  7  1  0
  7  8  1  0
  8  9  1  0
  9 10  1  0
  9 11  1  0
 11 12  1  0
 12 13  1  0
 13 14  1  0
 14 15  1  0
 15 16  2  0
 16 17  1  0
 17 18  2  0
 18 19  1  0
 19 20  2  0
  2 21  1  0
 21 22  2  0
 22 23  1  0
 23 24  2  0
 24 25  1  0
 25 26  2  0
 26 27  1  0
 27 28  2  0
 28 29  1  0
 29 30  2  0
 12  7  1  0
 20 15  1  0
 30 21  1  0
 29 24  1  0
  3 31  1  0
  4 32  1  0
  4 33  1  0
  8 34  1  0
  8 35  1  0
  9 36  1  1
 10 37  1  0
 11 38  1  0
 11 39  1  0
 12 40  1  6
 13 41  1  0
 13 42  1  0
 14 43  1  0
 14 44  1  0
 16 45  1  0
 17 46  1  0
 18 47  1  0
 19 48  1  0
 20 49  1  0
 22 50  1  0
 23 51  1  0
 25 52  1  0
 26 53  1  0
 27 54  1  0
 28 55  1  0
M  END
>  <smiles>  (2) 
O=C(NCC(=O)N1C[C@H](O)C[C@H]1CCc1ccccc1)c1ccc2ccccc2n1

>  <score_type>  (2) 
oracle

>  <origin>  (2) 
autodockgpu

>  <m_score__min__energy>  (2) 
-9.2799999999999994

>  <m_primary>  (2) 
energy

>  <rmsd>  (2) 
2.4490986493010056

>  <m_score__min__rmsd>  (2) 
2.4490986493010056

>  <meeko>  (2) 
{"free_energy": -8.13, "intermolecular_energy": -10.52, "internal_energy": -1.95, "cluster_size": 4, "cluster_id": 6, "rank_in_cluster": 2}

>  <energy>  (2) 
-9.26

>  <cluster_rmsd>  (2) 
0.12

>  <cluster>  (2) 
1

$$$$

     RDKit          3D

 55 58  0  0  0  0  0  0  0  0999 V2000
  141.5080   72.5750  221.9380 O   0  0  0  0  0  0  0  0  0  0  0  0
  140.5080   71.8090  222.1560 C   0  0  0  0  0  0  0  0  0  0  0  0
  139.6010   71.4610  221.0950 N   0  0  0  0  0  0  0  0  0  0  0  0
  139.7670   71.9340  219.7790 C   0  0  0  0  0  0  0  0  0  0  0  0
  140.0520   73.3330  219.5570 C   0  0  0  0  0  0  0  0  0  0  0  0
  140.6790   73.5800  218.4410 O   0  0  0  0  0  0  0  0  0  0  0  0
  139.7520   74.4620  220.3730 N   0  0  0  0  0  0  0  0  0  0  0  0
  138.5300   74.6940  221.1360 C   0  0  0  0  0  0  0  0  0  0  0  0
  139.1120   75.4600  222.3420 C   0  0  2  0  0  0  0  0  0  0  0  0
  138.1230   76.0900  223.0750 O   0  0  0  0  0  0  0  0  0  0  0  0
  139.9900   76.4330  221.5870 C   0  0  0  0  0  0  0  0  0  0  0  0
  140.6600   75.5920  220.5220 C   0  0  1  0  0  0  0  0  0  0  0  0
  142.0590   75.2360  220.8560 C   0  0  0  0  0  0  0  0  0  0  0  0
  143.0760   75.4820  219.7800 C   0  0  0  0  0  0  0  0  0  0  0  0
  144.0950   74.3790  219.9310 C   0  0  0  0  0  0  0  0  0  0  0  0
  145.1930   74.5170  220.7500 C   0  0  0  0  0  0  0  0  0  0  0  0
  146.1410   73.5470  220.9170 C   0  0  0  0  0  0  0  0  0  0  0  0
  145.9710   72.3600  220.2160 C   0  0  0  0  0  0  0  0  0  0  0  0
  144.8700   72.1890  219.3790 C   0  0  0  0  0  0  0  0  0  0  0  0
  143.9280   73.1960  219.2310 C   0  0  0  0  0  0  0  0  0  0  0  0
  140.2810   71.2740  223.5200 C   0  0  0  0  0  0  0  0  0  0  0  0
  139.5450   70.1160  223.6570 C   0  0  0  0  0  0  0  0  0  0  0  0
  139.2920   69.5580  224.8810 C   0  0  0  0  0  0  0  0  0  0  0  0
  139.8030   70.1990  225.9960 C   0  0  0  0  0  0  0  0  0  0  0  0
  139.5590   69.6560  227.2300 C   0  0  0  0  0  0  0  0  0  0  0  0
  140.0640   70.2880  228.3470 C   0  0  0  0  0  0  0  0  0  0  0  0
  140.8090   71.4580  228.2260 C   0  0  0  0  0  0  0  0  0  0  0  0
  141.0550   72.0080  226.9620 C   0  0  0  0  0  0  0  0  0  0  0  0
  140.5450   71.3690  225.8450 C   0  0  0  0  0  0  0  0  0  0  0  0
  140.7740   71.8910  224.6090 N   0  0  0  0  0  0  0  0  0  0  0  0
  138.8060   70.8220  221.3990 H   0  0  0  0  0  0  0  0  0  0  0  0
  140.5972   71.3641  219.3364 H   0  0  0  0  0  0  0  0  0  0  0  0
  138.7730   71.7979  219.3280 H   0  0  0  0  0  0  0  0  0  0  0  0
  137.8072   75.3041  220.5745 H   0  0  0  0  0  0  0  0  0  0  0  0
  137.9630   73.7868  221.3918 H   0  0  0  0  0  0  0  0  0  0  0  0
  139.6285   74.8523  223.0995 H   0  0  0  0  0  0  0  0  0  0  0  0
  137.6450   75.3560  223.5770 H   0  0  0  0  0  0  0  0  0  0  0  0
  139.3841   77.2290  221.1296 H   0  0  0  0  0  0  0  0  0  0  0  0
  140.7172   76.9350  222.2421 H   0  0  0  0  0  0  0  0  0  0  0  0
  140.8002   76.1224  219.5686 H   0  0  0  0  0  0  0  0  0  0  0  0
  142.3540   75.8230  221.7383 H   0  0  0  0  0  0  0  0  0  0  0  0
  142.0571   74.1481  221.0187 H   0  0  0  0  0  0  0  0  0  0  0  0
  142.6044   75.4368  218.7873 H   0  0  0  0  0  0  0  0  0  0  0  0
  143.5347   76.4776  219.8710 H   0  0  0  0  0  0  0  0  0  0  0  0
  145.3140   75.4613  221.3010 H   0  0  0  0  0  0  0  0  0  0  0  0
  147.0048   73.7002  221.5806 H   0  0  0  0  0  0  0  0  0  0  0  0
  146.7089   71.5511  220.3220 H   0  0  0  0  0  0  0  0  0  0  0  0
  144.7467   71.2442  218.8293 H   0  0  0  0  0  0  0  0  0  0  0  0
  143.0615   73.0571  218.5678 H   0  0  0  0  0  0  0  0  0  0  0  0
  139.1492   69.6258  222.7553 H   0  0  0  0  0  0  0  0  0  0  0  0
  138.7037   68.6333  224.9750 H   0  0  0  0  0  0  0  0  0  0  0  0
  138.9705   68.7319  227.3282 H   0  0  0  0  0  0  0  0  0  0  0  0
  139.8762   69.8632  229.3441 H   0  0  0  0  0  0  0  0  0  0  0  0
  141.2054   71.9515  229.1256 H   0  0  0  0  0  0  0  0  0  0  0  0
  141.6432   72.9317  226.8585 H   0  0  0  0  0  0  0  0  0  0  0  0
  1  2  2  0
  2  3  1  0
  3  4  1  0
  4  5  1  0
  5  6  2  0
  5  7  1  0
  7  8  1  0
  8  9  1  0
  9 10  1  0
  9 11  1  0
 11 12  1  0
 12 13  1  0
 13 14  1  0
 14 15  1  0
 15 16  2  0
 16 17  1  0
 17 18  2  0
 18 19  1  0
 19 20  2  0
  2 21  1  0
 21 22  2  0
 22 23  1  0
 23 24  2  0
 24 25  1  0
 25 26  2  0
 26 27  1  0
 27 28  2  0
 28 29  1  0
 29 30  2  0
 12  7  1  0
 20 15  1  0
 30 21  1  0
 29 24  1  0
  3 31  1  0
  4 32  1  0
  4 33  1  0
  8 34  1  0
  8 35  1  0
  9 36  1  1
 10 37  1  0
 11 38  1  0
 11 39  1  0
 12 40  1  6
 13 41  1  0
 13 42  1  0
 14 43  1  0
 14 44  1  0
 16 45  1  0
 17 46  1  0
 18 47  1  0
 19 48  1  0
 20 49  1  0
 22 50  1  0
 23 51  1  0
 25 52  1  0
 26 53  1  0
 27 54  1  0
 28 55  1  0
M  END
>  <smiles>  (3) 
O=C(NCC(=O)N1C[C@H](O)C[C@H]1CCc1ccccc1)c1ccc2ccccc2n1

>  <score_type>  (3) 
oracle

>  <origin>  (3) 
autodockgpu

>  <m_score__min__energy>  (3) 
-9.2799999999999994

>  <m_primary>  (3) 
energy

>  <rmsd>  (3) 
2.4309774410315153

>  <m_score__min__rmsd>  (3) 
2.4309774410315153

>  <meeko>  (3) 
{"free_energy": -7.54, "intermolecular_energy": -9.92, "internal_energy": -1.99, "cluster_size": 4, "cluster_id": 6, "rank_in_cluster": 4}

>  <energy>  (3) 
-9.22

>  <cluster_rmsd>  (3) 
0.28

>  <cluster>  (3) 
1

$$$$

     RDKit          3D

 55 58  0  0  0  0  0  0  0  0999 V2000
  139.2820   71.1730  221.5360 O   0  0  0  0  0  0  0  0  0  0  0  0
  138.7480   71.4820  222.6560 C   0  0  0  0  0  0  0  0  0  0  0  0
  137.7130   72.4790  222.7270 N   0  0  0  0  0  0  0  0  0  0  0  0
  137.2370   73.1520  221.5860 C   0  0  0  0  0  0  0  0  0  0  0  0
  137.9250   74.3340  221.1200 C   0  0  0  0  0  0  0  0  0  0  0  0
  137.1990   75.1130  220.3690 O   0  0  0  0  0  0  0  0  0  0  0  0
  139.2640   74.7590  221.3580 N   0  0  0  0  0  0  0  0  0  0  0  0
  140.4880   74.0910  220.9250 C   0  0  0  0  0  0  0  0  0  0  0  0
  141.3910   75.3190  220.6870 C   0  0  2  0  0  0  0  0  0  0  0  0
  142.7220   74.9630  220.5780 O   0  0  0  0  0  0  0  0  0  0  0  0
  141.0890   76.0700  221.9650 C   0  0  0  0  0  0  0  0  0  0  0  0
  139.5890   75.9510  222.1300 C   0  0  1  0  0  0  0  0  0  0  0  0
  138.8610   77.1780  221.7300 C   0  0  0  0  0  0  0  0  0  0  0  0
  138.7820   78.2640  222.7630 C   0  0  0  0  0  0  0  0  0  0  0  0
  140.1210   78.9610  222.7160 C   0  0  0  0  0  0  0  0  0  0  0  0
  140.9030   79.1020  223.8390 C   0  0  0  0  0  0  0  0  0  0  0  0
  142.1200   79.7250  223.8430 C   0  0  0  0  0  0  0  0  0  0  0  0
  142.5780   80.2380  222.6360 C   0  0  0  0  0  0  0  0  0  0  0  0
  141.8100   80.1110  221.4800 C   0  0  0  0  0  0  0  0  0  0  0  0
  140.5790   79.4730  221.5130 C   0  0  0  0  0  0  0  0  0  0  0  0
  139.2010   70.8040  223.8940 C   0  0  0  0  0  0  0  0  0  0  0  0
  139.0690   69.4340  223.9780 C   0  0  0  0  0  0  0  0  0  0  0  0
  139.4630   68.7340  225.0860 C   0  0  0  0  0  0  0  0  0  0  0  0
  140.0070   69.4510  226.1370 C   0  0  0  0  0  0  0  0  0  0  0  0
  140.4080   68.7680  227.2550 C   0  0  0  0  0  0  0  0  0  0  0  0
  140.9500   69.4740  228.3090 C   0  0  0  0  0  0  0  0  0  0  0  0
  141.0910   70.8580  228.2390 C   0  0  0  0  0  0  0  0  0  0  0  0
  140.6800   71.5500  227.0930 C   0  0  0  0  0  0  0  0  0  0  0  0
  140.1360   70.8350  226.0410 C   0  0  0  0  0  0  0  0  0  0  0  0
  139.7300   71.4930  224.9210 N   0  0  0  0  0  0  0  0  0  0  0  0
  137.3480   72.6520  223.7120 H   0  0  0  0  0  0  0  0  0  0  0  0
  137.2490   72.4273  220.7585 H   0  0  0  0  0  0  0  0  0  0  0  0
  136.2538   73.5318  221.9007 H   0  0  0  0  0  0  0  0  0  0  0  0
  140.8925   73.4319  221.7073 H   0  0  0  0  0  0  0  0  0  0  0  0
  140.3713   73.4255  220.0570 H   0  0  0  0  0  0  0  0  0  0  0  0
  141.2114   75.8811  219.7587 H   0  0  0  0  0  0  0  0  0  0  0  0
  143.2230   75.5850  221.1960 H   0  0  0  0  0  0  0  0  0  0  0  0
  141.6114   75.6118  222.8178 H   0  0  0  0  0  0  0  0  0  0  0  0
  141.4231   77.1172  221.9233 H   0  0  0  0  0  0  0  0  0  0  0  0
  139.2702   75.8490  223.1778 H   0  0  0  0  0  0  0  0  0  0  0  0
  139.3630   77.5930  220.8435 H   0  0  0  0  0  0  0  0  0  0  0  0
  137.8224   76.8616  221.5532 H   0  0  0  0  0  0  0  0  0  0  0  0
  137.9728   78.9683  222.5197 H   0  0  0  0  0  0  0  0  0  0  0  0
  138.5654   77.8616  223.7636 H   0  0  0  0  0  0  0  0  0  0  0  0
  140.5279   78.6901  224.7875 H   0  0  0  0  0  0  0  0  0  0  0  0
  142.7128   79.8164  224.7651 H   0  0  0  0  0  0  0  0  0  0  0  0
  143.5521   80.7472  222.5924 H   0  0  0  0  0  0  0  0  0  0  0  0
  142.1844   80.5214  220.5306 H   0  0  0  0  0  0  0  0  0  0  0  0
  139.9758   79.3751  220.5984 H   0  0  0  0  0  0  0  0  0  0  0  0
  138.6338   68.8871  223.1286 H   0  0  0  0  0  0  0  0  0  0  0  0
  139.3513   67.6410  225.1391 H   0  0  0  0  0  0  0  0  0  0  0  0
  140.2996   67.6748  227.3112 H   0  0  0  0  0  0  0  0  0  0  0  0
  141.2740   68.9387  229.2137 H   0  0  0  0  0  0  0  0  0  0  0  0
  141.5262   71.4087  229.0859 H   0  0  0  0  0  0  0  0  0  0  0  0
  140.7878   72.6429  227.0304 H   0  0  0  0  0  0  0  0  0  0  0  0
  1  2  2  0
  2  3  1  0
  3  4  1  0
  4  5  1  0
  5  6  2  0
  5  7  1  0
  7  8  1  0
  8  9  1  0
  9 10  1  0
  9 11  1  0
 11 12  1  0
 12 13  1  0
 13 14  1  0
 14 15  1  0
 15 16  2  0
 16 17  1  0
 17 18  2  0
 18 19  1  0
 19 20  2  0
  2 21  1  0
 21 22  2  0
 22 23  1  0
 23 24  2  0
 24 25  1  0
 25 26  2  0
 26 27  1  0
 27 28  2  0
 28 29  1  0
 29 30  2  0
 12  7  1  0
 20 15  1  0
 30 21  1  0
 29 24  1  0
  3 31  1  0
  4 32  1  0
  4 33  1  0
  8 34  1  0
  8 35  1  0
  9 36  1  6
 10 37  1  0
 11 38  1  0
 11 39  1  0
 12 40  1  1
 13 41  1  0
 13 42  1  0
 14 43  1  0
 14 44  1  0
 16 45  1  0
 17 46  1  0
 18 47  1  0
 19 48  1  0
 20 49  1  0
 22 50  1  0
 23 51  1  0
 25 52  1  0
 26 53  1  0
 27 54  1  0
 28 55  1  0
M  END
>  <smiles>  (4) 
O=C(NCC(=O)N1C[C@H](O)C[C@H]1CCc1ccccc1)c1ccc2ccccc2n1

>  <score_type>  (4) 
oracle

>  <origin>  (4) 
autodockgpu

>  <m_score__min__energy>  (4) 
-9.2799999999999994

>  <m_primary>  (4) 
energy

>  <rmsd>  (4) 
2.712422908740135

>  <m_score__min__rmsd>  (4) 
2.712422908740135

>  <meeko>  (4) 
{"free_energy": -8.43, "intermolecular_energy": -10.81, "internal_energy": -1.58, "cluster_size": 24, "cluster_id": 1, "rank_in_cluster": 22}

>  <energy>  (4) 
-9.14

>  <cluster_rmsd>  (4) 
0.82

>  <cluster>  (4) 
1

$$$$

     RDKit          3D

 55 58  0  0  0  0  0  0  0  0999 V2000
  139.9400   73.1060  223.0190 O   0  0  0  0  0  0  0  0  0  0  0  0
  140.2550   71.8680  223.0750 C   0  0  0  0  0  0  0  0  0  0  0  0
  140.4510   71.1040  221.8720 N   0  0  0  0  0  0  0  0  0  0  0  0
  140.3140   71.6700  220.5900 C   0  0  0  0  0  0  0  0  0  0  0  0
  141.4260   71.6240  219.6710 C   0  0  0  0  0  0  0  0  0  0  0  0
  141.2720   70.7820  218.6870 O   0  0  0  0  0  0  0  0  0  0  0  0
  142.6500   72.3530  219.6870 N   0  0  0  0  0  0  0  0  0  0  0  0
  143.9730   71.8560  219.3200 C   0  0  0  0  0  0  0  0  0  0  0  0
  144.5840   73.1410  218.7250 C   0  0  2  0  0  0  0  0  0  0  0  0
  145.9560   73.0420  218.5890 O   0  0  0  0  0  0  0  0  0  0  0  0
  144.1720   74.1090  219.8130 C   0  0  0  0  0  0  0  0  0  0  0  0
  142.7390   73.7380  220.1280 C   0  0  1  0  0  0  0  0  0  0  0  0
  141.7520   74.6580  219.5160 C   0  0  0  0  0  0  0  0  0  0  0  0
  142.1990   76.0800  219.3380 C   0  0  0  0  0  0  0  0  0  0  0  0
  141.6590   76.8230  220.5370 C   0  0  0  0  0  0  0  0  0  0  0  0
  141.8520   78.1760  220.6950 C   0  0  0  0  0  0  0  0  0  0  0  0
  141.3830   78.8900  221.7630 C   0  0  0  0  0  0  0  0  0  0  0  0
  140.6710   78.1950  222.7320 C   0  0  0  0  0  0  0  0  0  0  0  0
  140.4580   76.8230  222.6000 C   0  0  0  0  0  0  0  0  0  0  0  0
  140.9500   76.1310  221.5040 C   0  0  0  0  0  0  0  0  0  0  0  0
  140.4190   71.2150  224.3950 C   0  0  0  0  0  0  0  0  0  0  0  0
  140.7230   72.0040  225.4850 C   0  0  0  0  0  0  0  0  0  0  0  0
  140.8900   71.4770  226.7370 C   0  0  0  0  0  0  0  0  0  0  0  0
  140.7450   70.1090  226.8820 C   0  0  0  0  0  0  0  0  0  0  0  0
  140.9100   69.5640  228.1290 C   0  0  0  0  0  0  0  0  0  0  0  0
  140.7670   68.2010  228.2830 C   0  0  0  0  0  0  0  0  0  0  0  0
  140.4610   67.3900  227.1930 C   0  0  0  0  0  0  0  0  0  0  0  0
  140.2940   67.9530  225.9220 C   0  0  0  0  0  0  0  0  0  0  0  0
  140.4390   69.3220  225.7740 C   0  0  0  0  0  0  0  0  0  0  0  0
  140.2800   69.8850  224.5450 N   0  0  0  0  0  0  0  0  0  0  0  0
  140.7060   70.0850  222.0460 H   0  0  0  0  0  0  0  0  0  0  0  0
  139.4733   71.1558  220.1012 H   0  0  0  0  0  0  0  0  0  0  0  0
  140.1907   72.7440  220.7932 H   0  0  0  0  0  0  0  0  0  0  0  0
  144.5354   71.5047  220.1977 H   0  0  0  0  0  0  0  0  0  0  0  0
  143.9716   70.9873  218.6453 H   0  0  0  0  0  0  0  0  0  0  0  0
  144.2568   73.4086  217.7095 H   0  0  0  0  0  0  0  0  0  0  0  0
  146.3000   73.9910  218.5870 H   0  0  0  0  0  0  0  0  0  0  0  0
  144.8090   73.9890  220.7017 H   0  0  0  0  0  0  0  0  0  0  0  0
  144.2729   75.1584  219.4992 H   0  0  0  0  0  0  0  0  0  0  0  0
  142.4857   73.8360  221.1939 H   0  0  0  0  0  0  0  0  0  0  0  0
  141.4916   74.2605  218.5239 H   0  0  0  0  0  0  0  0  0  0  0  0
  140.9083   74.6987  220.2207 H   0  0  0  0  0  0  0  0  0  0  0  0
  143.2972   76.1379  219.3119 H   0  0  0  0  0  0  0  0  0  0  0  0
  141.8341   76.5083  218.3928 H   0  0  0  0  0  0  0  0  0  0  0  0
  142.4154   78.7139  219.9184 H   0  0  0  0  0  0  0  0  0  0  0  0
  141.5625   79.9717  221.8510 H   0  0  0  0  0  0  0  0  0  0  0  0
  140.2733   78.7291  223.6075 H   0  0  0  0  0  0  0  0  0  0  0  0
  139.8930   76.2836  223.3745 H   0  0  0  0  0  0  0  0  0  0  0  0
  140.7797   75.0489  221.4043 H   0  0  0  0  0  0  0  0  0  0  0  0
  140.8345   73.0892  225.3437 H   0  0  0  0  0  0  0  0  0  0  0  0
  141.1310   72.1185  227.5974 H   0  0  0  0  0  0  0  0  0  0  0  0
  141.1522   70.2025  228.9914 H   0  0  0  0  0  0  0  0  0  0  0  0
  140.8960   67.7495  229.2777 H   0  0  0  0  0  0  0  0  0  0  0  0
  140.3502   66.3043  227.3310 H   0  0  0  0  0  0  0  0  0  0  0  0
  140.0519   67.3189  225.0563 H   0  0  0  0  0  0  0  0  0  0  0  0
  1  2  2  0
  2  3  1  0
  3  4  1  0
  4  5  1  0
  5  6  2  0
  5  7  1  0
  7  8  1  0
  8  9  1  0
  9 10  1  0
  9 11  1  0
 11 12  1  0
 12 13  1  0
 13 14  1  0
 14 15  1  0
 15 16  2  0
 16 17  1  0
 17 18  2  0
 18 19  1  0
 19 20  2  0
  2 21  1  0
 21 22  2  0
 22 23  1  0
 23 24  2  0
 24 25  1  0
 25 26  2  0
 26 27  1  0
 27 28  2  0
 28 29  1  0
 29 30  2  0
 12  7  1  0
 20 15  1  0
 30 21  1  0
 29 24  1  0
  3 31  1  0
  4 32  1  0
  4 33  1  0
  8 34  1  0
  8 35  1  0
  9 36  1  6
 10 37  1  0
 11 38  1  0
 11 39  1  0
 12 40  1  1
 13 41  1  0
 13 42  1  0
 14 43  1  0
 14 44  1  0
 16 45  1  0
 17 46  1  0
 18 47  1  0
 19 48  1  0
 20 49  1  0
 22 50  1  0
 23 51  1  0
 25 52  1  0
 26 53  1  0
 27 54  1  0
 28 55  1  0
M  END
>  <smiles>  (5) 
O=C(NCC(=O)N1C[C@H](O)C[C@H]1CCc1ccccc1)c1ccc2ccccc2n1

>  <score_type>  (5) 
oracle

>  <origin>  (5) 
autodockgpu

>  <m_score__min__energy>  (5) 
-9.2799999999999994

>  <m_primary>  (5) 
energy

>  <rmsd>  (5) 
3.887822511599293

>  <m_score__min__rmsd>  (5) 
3.887822511599293

>  <meeko>  (5) 
{"free_energy": -8.31, "intermolecular_energy": -10.69, "internal_energy": -1.78, "cluster_size": 2, "cluster_id": 5, "rank_in_cluster": 2}

>  <energy>  (5) 
-9.09

>  <cluster_rmsd>  (5) 
0.65

>  <cluster>  (5) 
1

$$$$

     RDKit          3D

 55 58  0  0  0  0  0  0  0  0999 V2000
  139.4470   70.8690  221.2860 O   0  0  0  0  0  0  0  0  0  0  0  0
  139.5150   71.6720  222.2800 C   0  0  0  0  0  0  0  0  0  0  0  0
  139.3040   73.0840  222.1000 N   0  0  0  0  0  0  0  0  0  0  0  0
  139.0110   73.6470  220.8430 C   0  0  0  0  0  0  0  0  0  0  0  0
  138.7520   75.0640  220.7430 C   0  0  0  0  0  0  0  0  0  0  0  0
  137.5920   75.3600  220.2250 O   0  0  0  0  0  0  0  0  0  0  0  0
  139.5720   76.1670  221.1200 N   0  0  0  0  0  0  0  0  0  0  0  0
  139.5690   76.8660  222.4010 C   0  0  0  0  0  0  0  0  0  0  0  0
  141.0620   77.2390  222.5030 C   0  0  2  0  0  0  0  0  0  0  0  0
  141.2850   78.1970  223.4760 O   0  0  0  0  0  0  0  0  0  0  0  0
  141.2550   77.7740  221.1010 C   0  0  0  0  0  0  0  0  0  0  0  0
  140.5330   76.7830  220.2140 C   0  0  1  0  0  0  0  0  0  0  0  0
  141.4480   75.8380  219.5310 C   0  0  0  0  0  0  0  0  0  0  0  0
  142.9150   76.0670  219.7520 C   0  0  0  0  0  0  0  0  0  0  0  0
  143.4720   74.7290  220.1720 C   0  0  0  0  0  0  0  0  0  0  0  0
  144.8240   74.5250  220.3270 C   0  0  0  0  0  0  0  0  0  0  0  0
  145.3720   73.3310  220.7060 C   0  0  0  0  0  0  0  0  0  0  0  0
  144.5020   72.2750  220.9440 C   0  0  0  0  0  0  0  0  0  0  0  0
  143.1270   72.4500  220.7960 C   0  0  0  0  0  0  0  0  0  0  0  0
  142.6050   73.6750  220.4090 C   0  0  0  0  0  0  0  0  0  0  0  0
  139.8160   71.1400  223.6300 C   0  0  0  0  0  0  0  0  0  0  0  0
  139.5650   69.8070  223.8810 C   0  0  0  0  0  0  0  0  0  0  0  0
  139.8160   69.2400  225.1010 C   0  0  0  0  0  0  0  0  0  0  0  0
  140.3350   70.0540  226.0920 C   0  0  0  0  0  0  0  0  0  0  0  0
  140.5920   69.5030  227.3210 C   0  0  0  0  0  0  0  0  0  0  0  0
  141.1090   70.3070  228.3160 C   0  0  0  0  0  0  0  0  0  0  0  0
  141.3670   71.6550  228.0780 C   0  0  0  0  0  0  0  0  0  0  0  0
  141.1030   72.2110  226.8200 C   0  0  0  0  0  0  0  0  0  0  0  0
  140.5840   71.3990  225.8270 C   0  0  0  0  0  0  0  0  0  0  0  0
  140.3200   71.9240  224.6000 N   0  0  0  0  0  0  0  0  0  0  0  0
  139.3900   73.6500  222.9980 H   0  0  0  0  0  0  0  0  0  0  0  0
  139.8678   73.4311  220.1878 H   0  0  0  0  0  0  0  0  0  0  0  0
  138.0488   73.1881  220.5716 H   0  0  0  0  0  0  0  0  0  0  0  0
  138.9256   77.7579  222.3783 H   0  0  0  0  0  0  0  0  0  0  0  0
  139.1773   76.2826  223.2473 H   0  0  0  0  0  0  0  0  0  0  0  0
  141.7464   76.4288  222.7947 H   0  0  0  0  0  0  0  0  0  0  0  0
  142.2850   78.3340  223.4990 H   0  0  0  0  0  0  0  0  0  0  0  0
  140.8134   78.7767  221.0034 H   0  0  0  0  0  0  0  0  0  0  0  0
  142.3175   77.8763  220.8351 H   0  0  0  0  0  0  0  0  0  0  0  0
  140.0318   77.2501  219.3534 H   0  0  0  0  0  0  0  0  0  0  0  0
  141.2088   74.8238  219.8834 H   0  0  0  0  0  0  0  0  0  0  0  0
  141.2828   75.9909  218.4543 H   0  0  0  0  0  0  0  0  0  0  0  0
  143.3951   76.4091  218.8233 H   0  0  0  0  0  0  0  0  0  0  0  0
  143.0977   76.8420  220.5109 H   0  0  0  0  0  0  0  0  0  0  0  0
  145.5019   75.3698  220.1353 H   0  0  0  0  0  0  0  0  0  0  0  0
  146.4597   73.2115  220.8180 H   0  0  0  0  0  0  0  0  0  0  0  0
  144.8996   71.2963  221.2506 H   0  0  0  0  0  0  0  0  0  0  0  0
  142.4480   71.6063  220.9885 H   0  0  0  0  0  0  0  0  0  0  0  0
  141.5193   73.8077  220.2920 H   0  0  0  0  0  0  0  0  0  0  0  0
  139.1508   69.1812  223.0767 H   0  0  0  0  0  0  0  0  0  0  0  0
  139.6124   68.1751  225.2870 H   0  0  0  0  0  0  0  0  0  0  0  0
  140.3895   68.4385  227.5104 H   0  0  0  0  0  0  0  0  0  0  0  0
  141.3196   69.8791  229.3073 H   0  0  0  0  0  0  0  0  0  0  0  0
  141.7792   72.2845  228.8803 H   0  0  0  0  0  0  0  0  0  0  0  0
  141.3047   73.2746  226.6247 H   0  0  0  0  0  0  0  0  0  0  0  0
  1  2  2  0
  2  3  1  0
  3  4  1  0
  4  5  1  0
  5  6  2  0
  5  7  1  0
  7  8  1  0
  8  9  1  0
  9 10  1  0
  9 11  1  0
 11 12  1  0
 12 13  1  0
 13 14  1  0
 14 15  1  0
 15 16  2  0
 16 17  1  0
 17 18  2  0
 18 19  1  0
 19 20  2  0
  2 21  1  0
 21 22  2  0
 22 23  1  0
 23 24  2  0
 24 25  1  0
 25 26  2  0
 26 27  1  0
 27 28  2  0
 28 29  1  0
 29 30  2  0
 12  7  1  0
 20 15  1  0
 30 21  1  0
 29 24  1  0
  3 31  1  0
  4 32  1  0
  4 33  1  0
  8 34  1  0
  8 35  1  0
  9 36  1  1
 10 37  1  0
 11 38  1  0
 11 39  1  0
 12 40  1  6
 13 41  1  0
 13 42  1  0
 14 43  1  0
 14 44  1  0
 16 45  1  0
 17 46  1  0
 18 47  1  0
 19 48  1  0
 20 49  1  0
 22 50  1  0
 23 51  1  0
 25 52  1  0
 26 53  1  0
 27 54  1  0
 28 55  1  0
M  END
>  <smiles>  (6) 
O=C(NCC(=O)N1C[C@H](O)C[C@H]1CCc1ccccc1)c1ccc2ccccc2n1

>  <score_type>  (6) 
oracle

>  <origin>  (6) 
autodockgpu

>  <m_score__min__energy>  (6) 
-9.2799999999999994

>  <m_primary>  (6) 
energy

>  <rmsd>  (6) 
2.236324878349244

>  <m_score__min__rmsd>  (6) 
2.236324878349244

>  <meeko>  (6) 
{"free_energy": -7.88, "intermolecular_energy": -10.27, "internal_energy": -2.04, "cluster_size": 4, "cluster_id": 6, "rank_in_cluster": 3}

>  <energy>  (6) 
-9.09

>  <cluster_rmsd>  (6) 
0.77

>  <cluster>  (6) 
1

$$$$

     RDKit          3D

 55 58  0  0  0  0  0  0  0  0999 V2000
  139.5530   71.0460  221.2690 O   0  0  0  0  0  0  0  0  0  0  0  0
  139.5470   71.7750  222.3190 C   0  0  0  0  0  0  0  0  0  0  0  0
  139.2750   73.1850  222.2350 N   0  0  0  0  0  0  0  0  0  0  0  0
  138.9990   73.8260  221.0130 C   0  0  0  0  0  0  0  0  0  0  0  0
  139.9590   73.7490  219.9370 C   0  0  0  0  0  0  0  0  0  0  0  0
  139.4570   73.3590  218.7990 O   0  0  0  0  0  0  0  0  0  0  0  0
  141.3560   74.0300  219.9440 N   0  0  0  0  0  0  0  0  0  0  0  0
  142.4270   73.1720  219.4450 C   0  0  0  0  0  0  0  0  0  0  0  0
  143.4120   74.2450  218.9380 C   0  0  2  0  0  0  0  0  0  0  0  0
  144.6690   73.7170  218.7040 O   0  0  0  0  0  0  0  0  0  0  0  0
  143.3790   75.1650  220.1390 C   0  0  0  0  0  0  0  0  0  0  0  0
  141.9140   75.2510  220.5100 C   0  0  1  0  0  0  0  0  0  0  0  0
  141.2710   76.5070  220.0550 C   0  0  0  0  0  0  0  0  0  0  0  0
  142.1620   77.7120  219.9770 C   0  0  0  0  0  0  0  0  0  0  0  0
  141.8470   78.5240  221.2100 C   0  0  0  0  0  0  0  0  0  0  0  0
  141.3780   77.9360  222.3620 C   0  0  0  0  0  0  0  0  0  0  0  0
  141.0790   78.6310  223.5010 C   0  0  0  0  0  0  0  0  0  0  0  0
  141.2670   80.0070  223.4780 C   0  0  0  0  0  0  0  0  0  0  0  0
  141.7420   80.6330  222.3260 C   0  0  0  0  0  0  0  0  0  0  0  0
  142.0340   79.8960  221.1880 C   0  0  0  0  0  0  0  0  0  0  0  0
  139.8250   71.1570  223.6380 C   0  0  0  0  0  0  0  0  0  0  0  0
  139.5530   69.8160  223.8060 C   0  0  0  0  0  0  0  0  0  0  0  0
  139.7810   69.1730  224.9910 C   0  0  0  0  0  0  0  0  0  0  0  0
  140.3010   69.9170  226.0350 C   0  0  0  0  0  0  0  0  0  0  0  0
  140.5360   69.2900  227.2310 C   0  0  0  0  0  0  0  0  0  0  0  0
  141.0540   70.0240  228.2780 C   0  0  0  0  0  0  0  0  0  0  0  0
  141.3340   71.3790  228.1240 C   0  0  0  0  0  0  0  0  0  0  0  0
  141.0920   72.0150  226.9000 C   0  0  0  0  0  0  0  0  0  0  0  0
  140.5720   71.2720  225.8550 C   0  0  0  0  0  0  0  0  0  0  0  0
  140.3300   71.8740  224.6590 N   0  0  0  0  0  0  0  0  0  0  0  0
  139.3020   73.6860  223.1750 H   0  0  0  0  0  0  0  0  0  0  0  0
  138.0584   73.4002  220.6336 H   0  0  0  0  0  0  0  0  0  0  0  0
  138.9921   74.8938  221.2772 H   0  0  0  0  0  0  0  0  0  0  0  0
  142.8667   72.5595  220.2460 H   0  0  0  0  0  0  0  0  0  0  0  0
  142.1170   72.4332  218.6913 H   0  0  0  0  0  0  0  0  0  0  0  0
  143.1618   74.7183  217.9771 H   0  0  0  0  0  0  0  0  0  0  0  0
  145.2030   74.4610  218.2790 H   0  0  0  0  0  0  0  0  0  0  0  0
  143.9660   74.7432  220.9682 H   0  0  0  0  0  0  0  0  0  0  0  0
  143.8144   76.1517  219.9223 H   0  0  0  0  0  0  0  0  0  0  0  0
  141.7397   75.3060  221.5947 H   0  0  0  0  0  0  0  0  0  0  0  0
  140.8574   76.3289  219.0514 H   0  0  0  0  0  0  0  0  0  0  0  0
  140.5152   76.7462  220.8177 H   0  0  0  0  0  0  0  0  0  0  0  0
  143.2195   77.4092  219.9754 H   0  0  0  0  0  0  0  0  0  0  0  0
  141.9929   78.2868  219.0545 H   0  0  0  0  0  0  0  0  0  0  0  0
  141.2355   76.8453  222.3671 H   0  0  0  0  0  0  0  0  0  0  0  0
  140.7042   78.1203  224.4003 H   0  0  0  0  0  0  0  0  0  0  0  0
  141.0402   80.6056  224.3725 H   0  0  0  0  0  0  0  0  0  0  0  0
  141.8867   81.7234  222.3198 H   0  0  0  0  0  0  0  0  0  0  0  0
  142.4085   80.3938  220.2814 H   0  0  0  0  0  0  0  0  0  0  0  0
  139.1399   69.2458  222.9609 H   0  0  0  0  0  0  0  0  0  0  0  0
  139.5589   68.1022  225.1099 H   0  0  0  0  0  0  0  0  0  0  0  0
  140.3152   68.2194  227.3540 H   0  0  0  0  0  0  0  0  0  0  0  0
  141.2476   69.5340  229.2436 H   0  0  0  0  0  0  0  0  0  0  0  0
  141.7470   71.9523  228.9671 H   0  0  0  0  0  0  0  0  0  0  0  0
  141.3112   73.0853  226.7718 H   0  0  0  0  0  0  0  0  0  0  0  0
  1  2  2  0
  2  3  1  0
  3  4  1  0
  4  5  1  0
  5  6  2  0
  5  7  1  0
  7  8  1  0
  8  9  1  0
  9 10  1  0
  9 11  1  0
 11 12  1  0
 12 13  1  0
 13 14  1  0
 14 15  1  0
 15 16  2  0
 16 17  1  0
 17 18  2  0
 18 19  1  0
 19 20  2  0
  2 21  1  0
 21 22  2  0
 22 23  1  0
 23 24  2  0
 24 25  1  0
 25 26  2  0
 26 27  1  0
 27 28  2  0
 28 29  1  0
 29 30  2  0
 12  7  1  0
 20 15  1  0
 30 21  1  0
 29 24  1  0
  3 31  1  0
  4 32  1  0
  4 33  1  0
  8 34  1  0
  8 35  1  0
  9 36  1  6
 10 37  1  0
 11 38  1  0
 11 39  1  0
 12 40  1  1
 13 41  1  0
 13 42  1  0
 14 43  1  0
 14 44  1  0
 16 45  1  0
 17 46  1  0
 18 47  1  0
 19 48  1  0
 20 49  1  0
 22 50  1  0
 23 51  1  0
 25 52  1  0
 26 53  1  0
 27 54  1  0
 28 55  1  0
M  END
>  <smiles>  (7) 
O=C(NCC(=O)N1C[C@H](O)C[C@H]1CCc1ccccc1)c1ccc2ccccc2n1

>  <score_type>  (7) 
oracle

>  <origin>  (7) 
autodockgpu

>  <m_score__min__energy>  (7) 
-9.2799999999999994

>  <m_primary>  (7) 
energy

>  <rmsd>  (7) 
2.313309041770905

>  <m_score__min__rmsd>  (7) 
2.313309041770905

>  <meeko>  (7) 
{"free_energy": -8.31, "intermolecular_energy": -10.69, "internal_energy": -1.63, "cluster_size": 24, "cluster_id": 1, "rank_in_cluster": 23}

>  <energy>  (7) 
-9.07

>  <cluster_rmsd>  (7) 
1.34

>  <cluster>  (7) 
1

$$$$

     RDKit          3D

 55 58  0  0  0  0  0  0  0  0999 V2000
  133.5980   70.2090  226.6820 O   0  0  0  0  0  0  0  0  0  0  0  0
  133.6280   71.2620  225.9570 C   0  0  0  0  0  0  0  0  0  0  0  0
  134.1550   71.2180  224.6190 N   0  0  0  0  0  0  0  0  0  0  0  0
  134.6510   70.0320  224.0440 C   0  0  0  0  0  0  0  0  0  0  0  0
  135.9740   69.5720  224.3960 C   0  0  0  0  0  0  0  0  0  0  0  0
  135.9910   68.6450  225.3120 O   0  0  0  0  0  0  0  0  0  0  0  0
  137.2430   69.9840  223.8950 N   0  0  0  0  0  0  0  0  0  0  0  0
  137.5530   71.2360  223.2110 C   0  0  0  0  0  0  0  0  0  0  0  0
  138.9960   71.4590  223.7080 C   0  0  2  0  0  0  0  0  0  0  0  0
  139.6540   72.4150  222.9560 O   0  0  0  0  0  0  0  0  0  0  0  0
  139.5310   70.0630  223.4760 C   0  0  0  0  0  0  0  0  0  0  0  0
  138.4340   69.1490  223.9770 C   0  0  1  0  0  0  0  0  0  0  0  0
  138.7150   68.5830  225.3170 C   0  0  0  0  0  0  0  0  0  0  0  0
  140.1590   68.5420  225.7250 C   0  0  0  0  0  0  0  0  0  0  0  0
  140.3880   69.8080  226.5150 C   0  0  0  0  0  0  0  0  0  0  0  0
  141.2420   70.7910  226.0710 C   0  0  0  0  0  0  0  0  0  0  0  0
  141.4810   71.9530  226.7520 C   0  0  0  0  0  0  0  0  0  0  0  0
  140.8140   72.1350  227.9570 C   0  0  0  0  0  0  0  0  0  0  0  0
  139.9420   71.1580  228.4330 C   0  0  0  0  0  0  0  0  0  0  0  0
  139.7250   69.9910  227.7170 C   0  0  0  0  0  0  0  0  0  0  0  0
  133.1150   72.5400  226.5030 C   0  0  0  0  0  0  0  0  0  0  0  0
  131.9280   72.5250  227.2050 C   0  0  0  0  0  0  0  0  0  0  0  0
  131.3880   73.6630  227.7410 C   0  0  0  0  0  0  0  0  0  0  0  0
  132.0760   74.8490  227.5550 C   0  0  0  0  0  0  0  0  0  0  0  0
  131.5500   75.9980  228.0840 C   0  0  0  0  0  0  0  0  0  0  0  0
  132.2290   77.1850  227.9040 C   0  0  0  0  0  0  0  0  0  0  0  0
  133.4290   77.2170  227.1980 C   0  0  0  0  0  0  0  0  0  0  0  0
  133.9610   76.0390  226.6600 C   0  0  0  0  0  0  0  0  0  0  0  0
  133.2740   74.8520  226.8440 C   0  0  0  0  0  0  0  0  0  0  0  0
  133.7780   73.6980  226.3270 N   0  0  0  0  0  0  0  0  0  0  0  0
  134.1310   72.1560  224.1160 H   0  0  0  0  0  0  0  0  0  0  0  0
  133.9502   69.2280  224.3133 H   0  0  0  0  0  0  0  0  0  0  0  0
  134.7383   70.2788  222.9756 H   0  0  0  0  0  0  0  0  0  0  0  0
  137.5098   71.1258  222.1174 H   0  0  0  0  0  0  0  0  0  0  0  0
  136.8576   72.0628  223.4179 H   0  0  0  0  0  0  0  0  0  0  0  0
  139.1029   71.8379  224.7351 H   0  0  0  0  0  0  0  0  0  0  0  0
  139.5080   73.2900  223.4380 H   0  0  0  0  0  0  0  0  0  0  0  0
  139.7211   69.8922  222.4061 H   0  0  0  0  0  0  0  0  0  0  0  0
  140.4873   69.8904  223.9914 H   0  0  0  0  0  0  0  0  0  0  0  0
  138.3220   68.2317  223.3804 H   0  0  0  0  0  0  0  0  0  0  0  0
  138.1730   69.1885  226.0584 H   0  0  0  0  0  0  0  0  0  0  0  0
  138.3907   67.5330  225.2691 H   0  0  0  0  0  0  0  0  0  0  0  0
  140.3579   67.6579  226.3485 H   0  0  0  0  0  0  0  0  0  0  0  0
  140.8285   68.4759  224.8547 H   0  0  0  0  0  0  0  0  0  0  0  0
  141.7619   70.6337  225.1145 H   0  0  0  0  0  0  0  0  0  0  0  0
  142.1736   72.7129  226.3612 H   0  0  0  0  0  0  0  0  0  0  0  0
  140.9751   73.0549  228.5382 H   0  0  0  0  0  0  0  0  0  0  0  0
  139.4196   71.3146  229.3883 H   0  0  0  0  0  0  0  0  0  0  0  0
  139.0367   69.2221  228.0978 H   0  0  0  0  0  0  0  0  0  0  0  0
  131.3992   71.5697  227.3382 H   0  0  0  0  0  0  0  0  0  0  0  0
  130.4408   73.6356  228.2997 H   0  0  0  0  0  0  0  0  0  0  0  0
  130.6027   75.9744  228.6426 H   0  0  0  0  0  0  0  0  0  0  0  0
  131.8185   78.1158  228.3224 H   0  0  0  0  0  0  0  0  0  0  0  0
  133.9604   78.1706  227.0627 H   0  0  0  0  0  0  0  0  0  0  0  0
  134.9082   76.0567  226.1010 H   0  0  0  0  0  0  0  0  0  0  0  0
  1  2  2  0
  2  3  1  0
  3  4  1  0
  4  5  1  0
  5  6  2  0
  5  7  1  0
  7  8  1  0
  8  9  1  0
  9 10  1  0
  9 11  1  0
 11 12  1  0
 12 13  1  0
 13 14  1  0
 14 15  1  0
 15 16  2  0
 16 17  1  0
 17 18  2  0
 18 19  1  0
 19 20  2  0
  2 21  1  0
 21 22  2  0
 22 23  1  0
 23 24  2  0
 24 25  1  0
 25 26  2  0
 26 27  1  0
 27 28  2  0
 28 29  1  0
 29 30  2  0
 12  7  1  0
 20 15  1  0
 30 21  1  0
 29 24  1  0
  3 31  1  0
  4 32  1  0
  4 33  1  0
  8 34  1  0
  8 35  1  0
  9 36  1  1
 10 37  1  0
 11 38  1  0
 11 39  1  0
 12 40  1  6
 13 41  1  0
 13 42  1  0
 14 43  1  0
 14 44  1  0
 16 45  1  0
 17 46  1  0
 18 47  1  0
 19 48  1  0
 20 49  1  0
 22 50  1  0
 23 51  1  0
 25 52  1  0
 26 53  1  0
 27 54  1  0
 28 55  1  0
M  END
>  <smiles>  (8) 
O=C(NCC(=O)N1C[C@H](O)C[C@H]1CCc1ccccc1)c1ccc2ccccc2n1

>  <score_type>  (8) 
oracle

>  <origin>  (8) 
autodockgpu

>  <m_score__min__energy>  (8) 
-9.2799999999999994

>  <m_primary>  (8) 
energy

>  <rmsd>  (8) 
8.984261803880484

>  <m_score__min__rmsd>  (8) 
8.984261803880484

>  <meeko>  (8) 
{"free_energy": -9.0, "intermolecular_energy": -11.38, "internal_energy": -1.5, "cluster_size": 1, "cluster_id": 2, "rank_in_cluster": 1}

>  <energy>  (8) 
-9.07

>  <cluster_rmsd>  (8) 
0.86

>  <cluster>  (8) 
1

$$$$

     RDKit          3D

 55 58  0  0  0  0  0  0  0  0999 V2000
  140.9180   71.7990  222.0530 O   0  0  0  0  0  0  0  0  0  0  0  0
  139.9110   71.7470  222.8400 C   0  0  0  0  0  0  0  0  0  0  0  0
  138.7940   72.6370  222.6650 N   0  0  0  0  0  0  0  0  0  0  0  0
  138.7480   73.5920  221.6310 C   0  0  0  0  0  0  0  0  0  0  0  0
  139.4780   74.8300  221.7740 C   0  0  0  0  0  0  0  0  0  0  0  0
  140.7570   74.6750  221.9750 O   0  0  0  0  0  0  0  0  0  0  0  0
  139.0070   76.1740  221.7310 N   0  0  0  0  0  0  0  0  0  0  0  0
  137.8190   76.7090  222.3900 C   0  0  0  0  0  0  0  0  0  0  0  0
  138.3100   78.1370  222.7040 C   0  0  2  0  0  0  0  0  0  0  0  0
  137.2640   78.9750  223.0440 O   0  0  0  0  0  0  0  0  0  0  0  0
  138.9110   78.4690  221.3550 C   0  0  0  0  0  0  0  0  0  0  0  0
  139.6660   77.2190  220.9590 C   0  0  1  0  0  0  0  0  0  0  0  0
  141.1280   77.3300  221.1710 C   0  0  0  0  0  0  0  0  0  0  0  0
  141.7850   78.5540  220.6010 C   0  0  0  0  0  0  0  0  0  0  0  0
  141.9000   79.5210  221.7550 C   0  0  0  0  0  0  0  0  0  0  0  0
  141.7270   80.8750  221.5830 C   0  0  0  0  0  0  0  0  0  0  0  0
  141.8220   81.7870  222.5970 C   0  0  0  0  0  0  0  0  0  0  0  0
  142.1100   81.3030  223.8660 C   0  0  0  0  0  0  0  0  0  0  0  0
  142.2910   79.9360  224.0740 C   0  0  0  0  0  0  0  0  0  0  0  0
  142.1880   79.0400  223.0210 C   0  0  0  0  0  0  0  0  0  0  0  0
  139.8970   70.7600  223.9450 C   0  0  0  0  0  0  0  0  0  0  0  0
  139.2720   69.5490  223.7350 C   0  0  0  0  0  0  0  0  0  0  0  0
  139.2160   68.5840  224.7050 C   0  0  0  0  0  0  0  0  0  0  0  0
  139.8130   68.8630  225.9210 C   0  0  0  0  0  0  0  0  0  0  0  0
  139.7670   67.9090  226.9040 C   0  0  0  0  0  0  0  0  0  0  0  0
  140.3590   68.1770  228.1210 C   0  0  0  0  0  0  0  0  0  0  0  0
  140.9940   69.3950  228.3480 C   0  0  0  0  0  0  0  0  0  0  0  0
  141.0390   70.3660  227.3400 C   0  0  0  0  0  0  0  0  0  0  0  0
  140.4420   70.0890  226.1220 C   0  0  0  0  0  0  0  0  0  0  0  0
  140.4750   71.0220  225.1310 N   0  0  0  0  0  0  0  0  0  0  0  0
  138.0190   72.5030  223.3830 H   0  0  0  0  0  0  0  0  0  0  0  0
  139.1275   73.0997  220.7235 H   0  0  0  0  0  0  0  0  0  0  0  0
  137.6956   73.9120  221.6212 H   0  0  0  0  0  0  0  0  0  0  0  0
  136.9473   76.7149  221.7191 H   0  0  0  0  0  0  0  0  0  0  0  0
  137.4737   76.1346  223.2622 H   0  0  0  0  0  0  0  0  0  0  0  0
  138.9934   78.2383  223.5600 H   0  0  0  0  0  0  0  0  0  0  0  0
  137.6500   79.6440  223.6940 H   0  0  0  0  0  0  0  0  0  0  0  0
  138.1219   78.6951  220.6227 H   0  0  0  0  0  0  0  0  0  0  0  0
  139.5607   79.3558  221.3932 H   0  0  0  0  0  0  0  0  0  0  0  0
  139.6250   77.0070  219.8804 H   0  0  0  0  0  0  0  0  0  0  0  0
  141.3122   77.3233  222.2554 H   0  0  0  0  0  0  0  0  0  0  0  0
  141.5709   76.4784  220.6338 H   0  0  0  0  0  0  0  0  0  0  0  0
  142.7811   78.3071  220.2049 H   0  0  0  0  0  0  0  0  0  0  0  0
  141.2063   78.9785  219.7674 H   0  0  0  0  0  0  0  0  0  0  0  0
  141.4994   81.2447  220.5723 H   0  0  0  0  0  0  0  0  0  0  0  0
  141.6760   82.8619  222.4147 H   0  0  0  0  0  0  0  0  0  0  0  0
  142.1958   82.0013  224.7116 H   0  0  0  0  0  0  0  0  0  0  0  0
  142.5179   79.5646  225.0843 H   0  0  0  0  0  0  0  0  0  0  0  0
  142.3330   77.9626  223.1889 H   0  0  0  0  0  0  0  0  0  0  0  0
  138.8044   69.3522  222.7590 H   0  0  0  0  0  0  0  0  0  0  0  0
  138.7145   67.6219  224.5237 H   0  0  0  0  0  0  0  0  0  0  0  0
  139.2665   66.9458  226.7256 H   0  0  0  0  0  0  0  0  0  0  0  0
  140.3290   67.4211  228.9196 H   0  0  0  0  0  0  0  0  0  0  0  0
  141.4622   69.5954  229.3230 H   0  0  0  0  0  0  0  0  0  0  0  0
  141.5391   71.3304  227.5126 H   0  0  0  0  0  0  0  0  0  0  0  0
  1  2  2  0
  2  3  1  0
  3  4  1  0
  4  5  1  0
  5  6  2  0
  5  7  1  0
  7  8  1  0
  8  9  1  0
  9 10  1  0
  9 11  1  0
 11 12  1  0
 12 13  1  0
 13 14  1  0
 14 15  1  0
 15 16  2  0
 16 17  1  0
 17 18  2  0
 18 19  1  0
 19 20  2  0
  2 21  1  0
 21 22  2  0
 22 23  1  0
 23 24  2  0
 24 25  1  0
 25 26  2  0
 26 27  1  0
 27 28  2  0
 28 29  1  0
 29 30  2  0
 12  7  1  0
 20 15  1  0
 30 21  1  0
 29 24  1  0
  3 31  1  0
  4 32  1  0
  4 33  1  0
  8 34  1  0
  8 35  1  0
  9 36  1  1
 10 37  1  0
 11 38  1  0
 11 39  1  0
 12 40  1  6
 13 41  1  0
 13 42  1  0
 14 43  1  0
 14 44  1  0
 16 45  1  0
 17 46  1  0
 18 47  1  0
 19 48  1  0
 20 49  1  0
 22 50  1  0
 23 51  1  0
 25 52  1  0
 26 53  1  0
 27 54  1  0
 28 55  1  0
M  END
>  <smiles>  (9) 
O=C(NCC(=O)N1C[C@H](O)C[C@H]1CCc1ccccc1)c1ccc2ccccc2n1

>  <score_type>  (9) 
oracle

>  <origin>  (9) 
autodockgpu

>  <m_score__min__energy>  (9) 
-9.2799999999999994

>  <m_primary>  (9) 
energy

>  <rmsd>  (9) 
2.512825526685505

>  <m_score__min__rmsd>  (9) 
2.512825526685505

>  <meeko>  (9) 
{"free_energy": -8.85, "intermolecular_energy": -11.23, "internal_energy": -1.28, "cluster_size": 4, "cluster_id": 3, "rank_in_cluster": 2}

>  <energy>  (9) 
-9.05

>  <cluster_rmsd>  (9) 
1.3

>  <cluster>  (9) 
1

$$$$

     RDKit          3D

 55 58  0  0  0  0  0  0  0  0999 V2000
  139.2070   70.9700  221.5070 O   0  0  0  0  0  0  0  0  0  0  0  0
  139.8250   71.4450  222.5210 C   0  0  0  0  0  0  0  0  0  0  0  0
  140.4940   72.7160  222.4460 N   0  0  0  0  0  0  0  0  0  0  0  0
  140.4990   73.4950  221.2730 C   0  0  0  0  0  0  0  0  0  0  0  0
  141.0910   74.8120  221.2980 C   0  0  0  0  0  0  0  0  0  0  0  0
  140.7610   75.5270  222.3370 O   0  0  0  0  0  0  0  0  0  0  0  0
  141.9660   75.4340  220.3600 N   0  0  0  0  0  0  0  0  0  0  0  0
  142.9510   74.7750  219.5070 C   0  0  0  0  0  0  0  0  0  0  0  0
  142.8860   75.6920  218.2690 C   0  0  2  0  0  0  0  0  0  0  0  0
  143.9600   75.4860  217.4230 O   0  0  0  0  0  0  0  0  0  0  0  0
  142.9480   77.0280  218.9780 C   0  0  0  0  0  0  0  0  0  0  0  0
  142.0110   76.8760  220.1560 C   0  0  1  0  0  0  0  0  0  0  0  0
  140.6950   77.5220  219.9410 C   0  0  0  0  0  0  0  0  0  0  0  0
  140.6640   79.0160  220.0820 C   0  0  0  0  0  0  0  0  0  0  0  0
  141.2240   79.3020  221.4540 C   0  0  0  0  0  0  0  0  0  0  0  0
  142.2690   80.1770  221.6410 C   0  0  0  0  0  0  0  0  0  0  0  0
  142.8070   80.4660  222.8640 C   0  0  0  0  0  0  0  0  0  0  0  0
  142.2560   79.8320  223.9700 C   0  0  0  0  0  0  0  0  0  0  0  0
  141.1960   78.9410  223.8150 C   0  0  0  0  0  0  0  0  0  0  0  0
  140.6750   78.6700  222.5580 C   0  0  0  0  0  0  0  0  0  0  0  0
  139.8510   70.6750  223.7880 C   0  0  0  0  0  0  0  0  0  0  0  0
  139.2520   69.4330  223.8130 C   0  0  0  0  0  0  0  0  0  0  0  0
  139.2340   68.6600  224.9430 C   0  0  0  0  0  0  0  0  0  0  0  0
  139.8420   69.1680  226.0770 C   0  0  0  0  0  0  0  0  0  0  0  0
  139.8330   68.4080  227.2180 C   0  0  0  0  0  0  0  0  0  0  0  0
  140.4360   68.9070  228.3540 C   0  0  0  0  0  0  0  0  0  0  0  0
  141.0440   70.1590  228.3440 C   0  0  0  0  0  0  0  0  0  0  0  0
  141.0510   70.9300  227.1760 C   0  0  0  0  0  0  0  0  0  0  0  0
  140.4430   70.4240  226.0400 C   0  0  0  0  0  0  0  0  0  0  0  0
  140.4390   71.1610  224.8960 N   0  0  0  0  0  0  0  0  0  0  0  0
  140.9760   73.0040  223.3510 H   0  0  0  0  0  0  0  0  0  0  0  0
  141.0364   72.9168  220.5069 H   0  0  0  0  0  0  0  0  0  0  0  0
  139.4328   73.6938  221.0896 H   0  0  0  0  0  0  0  0  0  0  0  0
  143.9519   74.7750  219.9634 H   0  0  0  0  0  0  0  0  0  0  0  0
  142.7546   73.7112  219.3075 H   0  0  0  0  0  0  0  0  0  0  0  0
  142.0202   75.5521  217.6051 H   0  0  0  0  0  0  0  0  0  0  0  0
  144.7850   75.6080  217.9930 H   0  0  0  0  0  0  0  0  0  0  0  0
  143.9718   77.2393  219.3204 H   0  0  0  0  0  0  0  0  0  0  0  0
  142.6624   77.8633  218.3217 H   0  0  0  0  0  0  0  0  0  0  0  0
  142.3567   77.3987  221.0600 H   0  0  0  0  0  0  0  0  0  0  0  0
  140.3603   77.2731  218.9231 H   0  0  0  0  0  0  0  0  0  0  0  0
  140.0416   77.1356  220.7371 H   0  0  0  0  0  0  0  0  0  0  0  0
  141.2852   79.4885  219.3068 H   0  0  0  0  0  0  0  0  0  0  0  0
  139.6462   79.4165  219.9645 H   0  0  0  0  0  0  0  0  0  0  0  0
  142.6958   80.6721  220.7563 H   0  0  0  0  0  0  0  0  0  0  0  0
  143.6434   81.1729  222.9680 H   0  0  0  0  0  0  0  0  0  0  0  0
  142.6585   80.0343  224.9735 H   0  0  0  0  0  0  0  0  0  0  0  0
  140.7674   78.4468  224.6993 H   0  0  0  0  0  0  0  0  0  0  0  0
  139.8393   77.9646  222.4398 H   0  0  0  0  0  0  0  0  0  0  0  0
  138.7746   69.0521  222.8981 H   0  0  0  0  0  0  0  0  0  0  0  0
  138.7533   67.6706  224.9489 H   0  0  0  0  0  0  0  0  0  0  0  0
  139.3535   67.4180  227.2275 H   0  0  0  0  0  0  0  0  0  0  0  0
  140.4363   68.3092  229.2774 H   0  0  0  0  0  0  0  0  0  0  0  0
  141.5208   70.5439  229.2575 H   0  0  0  0  0  0  0  0  0  0  0  0
  141.5308   71.9198  227.1610 H   0  0  0  0  0  0  0  0  0  0  0  0
  1  2  2  0
  2  3  1  0
  3  4  1  0
  4  5  1  0
  5  6  2  0
  5  7  1  0
  7  8  1  0
  8  9  1  0
  9 10  1  0
  9 11  1  0
 11 12  1  0
 12 13  1  0
 13 14  1  0
 14 15  1  0
 15 16  2  0
 16 17  1  0
 17 18  2  0
 18 19  1  0
 19 20  2  0
  2 21  1  0
 21 22  2  0
 22 23  1  0
 23 24  2  0
 24 25  1  0
 25 26  2  0
 26 27  1  0
 27 28  2  0
 28 29  1  0
 29 30  2  0
 12  7  1  0
 20 15  1  0
 30 21  1  0
 29 24  1  0
  3 31  1  0
  4 32  1  0
  4 33  1  0
  8 34  1  0
  8 35  1  0
  9 36  1  6
 10 37  1  0
 11 38  1  0
 11 39  1  0
 12 40  1  1
 13 41  1  0
 13 42  1  0
 14 43  1  0
 14 44  1  0
 16 45  1  0
 17 46  1  0
 18 47  1  0
 19 48  1  0
 20 49  1  0
 22 50  1  0
 23 51  1  0
 25 52  1  0
 26 53  1  0
 27 54  1  0
 28 55  1  0
M  END
>  <smiles>  (10) 
O=C(NCC(=O)N1C[C@H](O)C[C@H]1CCc1ccccc1)c1ccc2ccccc2n1

>  <score_type>  (10) 
oracle

>  <origin>  (10) 
autodockgpu

>  <m_score__min__energy>  (10) 
-9.2799999999999994

>  <m_primary>  (10) 
energy

>  <rmsd>  (10) 
2.3371787446358554

>  <m_score__min__rmsd>  (10) 
2.3371787446358554

>  <meeko>  (10) 
{"free_energy": -8.71, "intermolecular_energy": -11.1, "internal_energy": -1.82, "cluster_size": 24, "cluster_id": 1, "rank_in_cluster": 14}

>  <energy>  (10) 
-9.01

>  <cluster_rmsd>  (10) 
1.19

>  <cluster>  (10) 
1

$$$$

     RDKit          3D

 55 58  0  0  0  0  0  0  0  0999 V2000
  141.0540   71.5160  221.4180 O   0  0  0  0  0  0  0  0  0  0  0  0
  140.4610   72.0510  222.4170 C   0  0  0  0  0  0  0  0  0  0  0  0
  139.9740   73.4030  222.3450 N   0  0  0  0  0  0  0  0  0  0  0  0
  140.1170   74.1940  221.1890 C   0  0  0  0  0  0  0  0  0  0  0  0
  140.9520   75.3720  221.2320 C   0  0  0  0  0  0  0  0  0  0  0  0
  140.8310   76.0720  222.3250 O   0  0  0  0  0  0  0  0  0  0  0  0
  141.8710   75.8700  220.2640 N   0  0  0  0  0  0  0  0  0  0  0  0
  142.7660   75.0870  219.4170 C   0  0  0  0  0  0  0  0  0  0  0  0
  142.7770   75.9710  218.1540 C   0  0  2  0  0  0  0  0  0  0  0  0
  143.8080   75.6290  217.2980 O   0  0  0  0  0  0  0  0  0  0  0  0
  142.9910   77.3120  218.8210 C   0  0  0  0  0  0  0  0  0  0  0  0
  142.0640   77.2930  220.0170 C   0  0  1  0  0  0  0  0  0  0  0  0
  140.8200   78.0690  219.8010 C   0  0  0  0  0  0  0  0  0  0  0  0
  140.8920   79.5330  220.1230 C   0  0  0  0  0  0  0  0  0  0  0  0
  141.3560   79.6060  221.5580 C   0  0  0  0  0  0  0  0  0  0  0  0
  142.5140   80.2590  221.9110 C   0  0  0  0  0  0  0  0  0  0  0  0
  142.9720   80.3500  223.1960 C   0  0  0  0  0  0  0  0  0  0  0  0
  142.2130   79.7450  224.1890 C   0  0  0  0  0  0  0  0  0  0  0  0
  141.0340   79.0760  223.8640 C   0  0  0  0  0  0  0  0  0  0  0  0
  140.6000   79.0020  222.5490 C   0  0  0  0  0  0  0  0  0  0  0  0
  140.2750   71.2690  223.6610 C   0  0  0  0  0  0  0  0  0  0  0  0
  139.6460   70.0440  223.5790 C   0  0  0  0  0  0  0  0  0  0  0  0
  139.4360   69.2610  224.6820 C   0  0  0  0  0  0  0  0  0  0  0  0
  139.8790   69.7400  225.9020 C   0  0  0  0  0  0  0  0  0  0  0  0
  139.6780   68.9700  227.0180 C   0  0  0  0  0  0  0  0  0  0  0  0
  140.1160   69.4390  228.2390 C   0  0  0  0  0  0  0  0  0  0  0  0
  140.7530   70.6740  228.3380 C   0  0  0  0  0  0  0  0  0  0  0  0
  140.9560   71.4560  227.1950 C   0  0  0  0  0  0  0  0  0  0  0  0
  140.5140   70.9790  225.9730 C   0  0  0  0  0  0  0  0  0  0  0  0
  140.7020   71.7270  224.8520 N   0  0  0  0  0  0  0  0  0  0  0  0
  139.5030   73.7400  223.2390 H   0  0  0  0  0  0  0  0  0  0  0  0
  140.5248   73.5413  220.4031 H   0  0  0  0  0  0  0  0  0  0  0  0
  139.1072   74.5989  221.0265 H   0  0  0  0  0  0  0  0  0  0  0  0
  143.7689   74.9934  219.8590 H   0  0  0  0  0  0  0  0  0  0  0  0
  142.4549   74.0450  219.2515 H   0  0  0  0  0  0  0  0  0  0  0  0
  141.8896   75.9048  217.5073 H   0  0  0  0  0  0  0  0  0  0  0  0
  144.6500   75.6700  217.8550 H   0  0  0  0  0  0  0  0  0  0  0  0
  144.0372   77.4241  219.1418 H   0  0  0  0  0  0  0  0  0  0  0  0
  142.7829   78.1537  218.1440 H   0  0  0  0  0  0  0  0  0  0  0  0
  142.4781   77.8007  220.9006 H   0  0  0  0  0  0  0  0  0  0  0  0
  140.5423   77.9711  218.7411 H   0  0  0  0  0  0  0  0  0  0  0  0
  140.0833   77.6479  220.5009 H   0  0  0  0  0  0  0  0  0  0  0  0
  141.6102   80.0379  219.4602 H   0  0  0  0  0  0  0  0  0  0  0  0
  139.9215   80.0311  219.9812 H   0  0  0  0  0  0  0  0  0  0  0  0
  143.1049   80.7348  221.1145 H   0  0  0  0  0  0  0  0  0  0  0  0
  143.9052   80.8816  223.4339 H   0  0  0  0  0  0  0  0  0  0  0  0
  142.5436   79.7939  225.2370 H   0  0  0  0  0  0  0  0  0  0  0  0
  140.4411   78.6014  224.6597 H   0  0  0  0  0  0  0  0  0  0  0  0
  139.6698   78.4718  222.2968 H   0  0  0  0  0  0  0  0  0  0  0  0
  139.3027   69.6855  222.5974 H   0  0  0  0  0  0  0  0  0  0  0  0
  138.9331   68.2860  224.6013 H   0  0  0  0  0  0  0  0  0  0  0  0
  139.1758   67.9944  226.9412 H   0  0  0  0  0  0  0  0  0  0  0  0
  139.9608   68.8321  229.1432 H   0  0  0  0  0  0  0  0  0  0  0  0
  141.0977   71.0359  229.3179 H   0  0  0  0  0  0  0  0  0  0  0  0
  141.4578   72.4322  227.2665 H   0  0  0  0  0  0  0  0  0  0  0  0
  1  2  2  0
  2  3  1  0
  3  4  1  0
  4  5  1  0
  5  6  2  0
  5  7  1  0
  7  8  1  0
  8  9  1  0
  9 10  1  0
  9 11  1  0
 11 12  1  0
 12 13  1  0
 13 14  1  0
 14 15  1  0
 15 16  2  0
 16 17  1  0
 17 18  2  0
 18 19  1  0
 19 20  2  0
  2 21  1  0
 21 22  2  0
 22 23  1  0
 23 24  2  0
 24 25  1  0
 25 26  2  0
 26 27  1  0
 27 28  2  0
 28 29  1  0
 29 30  2  0
 12  7  1  0
 20 15  1  0
 30 21  1  0
 29 24  1  0
  3 31  1  0
  4 32  1  0
  4 33  1  0
  8 34  1  0
  8 35  1  0
  9 36  1  6
 10 37  1  0
 11 38  1  0
 11 39  1  0
 12 40  1  1
 13 41  1  0
 13 42  1  0
 14 43  1  0
 14 44  1  0
 16 45  1  0
 17 46  1  0
 18 47  1  0
 19 48  1  0
 20 49  1  0
 22 50  1  0
 23 51  1  0
 25 52  1  0
 26 53  1  0
 27 54  1  0
 28 55  1  0
M  END
>  <smiles>  (11) 
O=C(NCC(=O)N1C[C@H](O)C[C@H]1CCc1ccccc1)c1ccc2ccccc2n1

>  <score_type>  (11) 
oracle

>  <origin>  (11) 
autodockgpu

>  <m_score__min__energy>  (11) 
-9.2799999999999994

>  <m_primary>  (11) 
energy

>  <rmsd>  (11) 
2.388403452399074

>  <m_score__min__rmsd>  (11) 
2.388403452399074

>  <meeko>  (11) 
{"free_energy": -9.26, "intermolecular_energy": -11.64, "internal_energy": -1.65, "cluster_size": 24, "cluster_id": 1, "rank_in_cluster": 2}

>  <energy>  (11) 
-8.82

>  <cluster_rmsd>  (11) 
1.46

>  <cluster>  (11) 
1

$$$$

     RDKit          3D

 55 58  0  0  0  0  0  0  0  0999 V2000
  140.7030   71.6730  221.9830 O   0  0  0  0  0  0  0  0  0  0  0  0
  139.7420   71.6280  222.8260 C   0  0  0  0  0  0  0  0  0  0  0  0
  138.6030   72.4960  222.6900 N   0  0  0  0  0  0  0  0  0  0  0  0
  138.4850   73.4230  221.6370 C   0  0  0  0  0  0  0  0  0  0  0  0
  139.1960   74.6780  221.7110 C   0  0  0  0  0  0  0  0  0  0  0  0
  140.4670   74.5570  221.9770 O   0  0  0  0  0  0  0  0  0  0  0  0
  138.7130   76.0070  221.5420 N   0  0  0  0  0  0  0  0  0  0  0  0
  137.4190   76.5320  221.9660 C   0  0  0  0  0  0  0  0  0  0  0  0
  137.8200   77.9810  222.3120 C   0  0  2  0  0  0  0  0  0  0  0  0
  136.7150   78.8020  222.4370 O   0  0  0  0  0  0  0  0  0  0  0  0
  138.6400   78.2870  221.0770 C   0  0  0  0  0  0  0  0  0  0  0  0
  139.4770   77.0450  220.8600 C   0  0  1  0  0  0  0  0  0  0  0  0
  140.8770   77.1990  221.3190 C   0  0  0  0  0  0  0  0  0  0  0  0
  141.0790   77.2760  222.8040 C   0  0  0  0  0  0  0  0  0  0  0  0
  141.4190   78.7190  223.0890 C   0  0  0  0  0  0  0  0  0  0  0  0
  142.6820   79.2210  222.8720 C   0  0  0  0  0  0  0  0  0  0  0  0
  143.0350   80.5190  223.1150 C   0  0  0  0  0  0  0  0  0  0  0  0
  142.0510   81.3670  223.6080 C   0  0  0  0  0  0  0  0  0  0  0  0
  140.7620   80.8890  223.8380 C   0  0  0  0  0  0  0  0  0  0  0  0
  140.4390   79.5650  223.5810 C   0  0  0  0  0  0  0  0  0  0  0  0
  139.8050   70.6690  223.9550 C   0  0  0  0  0  0  0  0  0  0  0  0
  139.2320   69.4250  223.7930 C   0  0  0  0  0  0  0  0  0  0  0  0
  139.2480   68.4850  224.7870 C   0  0  0  0  0  0  0  0  0  0  0  0
  139.8640   68.8220  225.9790 C   0  0  0  0  0  0  0  0  0  0  0  0
  139.8890   67.8930  226.9860 C   0  0  0  0  0  0  0  0  0  0  0  0
  140.5010   68.2200  228.1790 C   0  0  0  0  0  0  0  0  0  0  0  0
  141.0830   69.4720  228.3580 C   0  0  0  0  0  0  0  0  0  0  0  0
  141.0550   70.4170  227.3250 C   0  0  0  0  0  0  0  0  0  0  0  0
  140.4390   70.0820  226.1320 C   0  0  0  0  0  0  0  0  0  0  0  0
  140.4020   70.9890  225.1180 N   0  0  0  0  0  0  0  0  0  0  0  0
  137.8710   72.3690  223.4530 H   0  0  0  0  0  0  0  0  0  0  0  0
  138.8274   72.9147  220.7235 H   0  0  0  0  0  0  0  0  0  0  0  0
  137.4273   73.7228  221.6743 H   0  0  0  0  0  0  0  0  0  0  0  0
  136.6777   76.4961  221.1541 H   0  0  0  0  0  0  0  0  0  0  0  0
  136.9382   75.9758  222.7842 H   0  0  0  0  0  0  0  0  0  0  0  0
  138.3419   78.1253  223.2695 H   0  0  0  0  0  0  0  0  0  0  0  0
  136.9510   79.6540  221.9490 H   0  0  0  0  0  0  0  0  0  0  0  0
  137.9860   78.4711  220.2119 H   0  0  0  0  0  0  0  0  0  0  0  0
  139.2559   79.1905  221.1973 H   0  0  0  0  0  0  0  0  0  0  0  0
  139.6291   76.7997  219.7985 H   0  0  0  0  0  0  0  0  0  0  0  0
  141.4500   76.3373  220.9459 H   0  0  0  0  0  0  0  0  0  0  0  0
  141.2130   78.1690  220.9239 H   0  0  0  0  0  0  0  0  0  0  0  0
  140.1592   76.9858  223.3329 H   0  0  0  0  0  0  0  0  0  0  0  0
  141.8723   76.5943  223.1444 H   0  0  0  0  0  0  0  0  0  0  0  0
  143.4511   78.5388  222.4807 H   0  0  0  0  0  0  0  0  0  0  0  0
  144.0578   80.8780  222.9276 H   0  0  0  0  0  0  0  0  0  0  0  0
  142.2902   82.4200  223.8177 H   0  0  0  0  0  0  0  0  0  0  0  0
  139.9915   81.5703  224.2281 H   0  0  0  0  0  0  0  0  0  0  0  0
  139.4204   79.1926  223.7650 H   0  0  0  0  0  0  0  0  0  0  0  0
  138.7476   69.1813  222.8359 H   0  0  0  0  0  0  0  0  0  0  0  0
  138.7874   67.4964  224.6435 H   0  0  0  0  0  0  0  0  0  0  0  0
  139.4292   66.9036  226.8459 H   0  0  0  0  0  0  0  0  0  0  0  0
  140.5292   67.4843  228.9963 H   0  0  0  0  0  0  0  0  0  0  0  0
  141.5666   69.7198  229.3144 H   0  0  0  0  0  0  0  0  0  0  0  0
  141.5142   71.4075  227.4594 H   0  0  0  0  0  0  0  0  0  0  0  0
  1  2  2  0
  2  3  1  0
  3  4  1  0
  4  5  1  0
  5  6  2  0
  5  7  1  0
  7  8  1  0
  8  9  1  0
  9 10  1  0
  9 11  1  0
 11 12  1  0
 12 13  1  0
 13 14  1  0
 14 15  1  0
 15 16  2  0
 16 17  1  0
 17 18  2  0
 18 19  1  0
 19 20  2  0
  2 21  1  0
 21 22  2  0
 22 23  1  0
 23 24  2  0
 24 25  1  0
 25 26  2  0
 26 27  1  0
 27 28  2  0
 28 29  1  0
 29 30  2  0
 12  7  1  0
 20 15  1  0
 30 21  1  0
 29 24  1  0
  3 31  1  0
  4 32  1  0
  4 33  1  0
  8 34  1  0
  8 35  1  0
  9 36  1  1
 10 37  1  0
 11 38  1  0
 11 39  1  0
 12 40  1  6
 13 41  1  0
 13 42  1  0
 14 43  1  0
 14 44  1  0
 16 45  1  0
 17 46  1  0
 18 47  1  0
 19 48  1  0
 20 49  1  0
 22 50  1  0
 23 51  1  0
 25 52  1  0
 26 53  1  0
 27 54  1  0
 28 55  1  0
M  END
>  <smiles>  (12) 
O=C(NCC(=O)N1C[C@H](O)C[C@H]1CCc1ccccc1)c1ccc2ccccc2n1

>  <score_type>  (12) 
oracle

>  <origin>  (12) 
autodockgpu

>  <m_score__min__energy>  (12) 
-9.2799999999999994

>  <m_primary>  (12) 
energy

>  <rmsd>  (12) 
2.625405410385349

>  <m_score__min__rmsd>  (12) 
2.625405410385349

>  <meeko>  (12) 
{"free_energy": -8.86, "intermolecular_energy": -11.24, "internal_energy": -1.24, "cluster_size": 4, "cluster_id": 3, "rank_in_cluster": 1}

>  <energy>  (12) 
-8.81

>  <cluster_rmsd>  (12) 
0.93

>  <cluster>  (12) 
1

$$$$

     RDKit          3D

 55 58  0  0  0  0  0  0  0  0999 V2000
  140.0680   71.1450  221.2350 O   0  0  0  0  0  0  0  0  0  0  0  0
  139.9330   71.8600  222.2870 C   0  0  0  0  0  0  0  0  0  0  0  0
  139.6960   73.2750  222.1900 N   0  0  0  0  0  0  0  0  0  0  0  0
  139.5950   73.9370  220.9510 C   0  0  0  0  0  0  0  0  0  0  0  0
  140.7100   73.9040  220.0340 C   0  0  0  0  0  0  0  0  0  0  0  0
  140.3680   73.9250  218.7760 O   0  0  0  0  0  0  0  0  0  0  0  0
  142.1080   73.8470  220.3050 N   0  0  0  0  0  0  0  0  0  0  0  0
  142.9110   72.6500  220.5330 C   0  0  0  0  0  0  0  0  0  0  0  0
  144.2470   73.1030  219.9110 C   0  0  2  0  0  0  0  0  0  0  0  0
  145.2910   72.2740  220.2780 O   0  0  0  0  0  0  0  0  0  0  0  0
  144.3360   74.4730  220.5470 C   0  0  0  0  0  0  0  0  0  0  0  0
  142.9380   75.0390  220.4280 C   0  0  1  0  0  0  0  0  0  0  0  0
  142.7980   76.0190  219.3260 C   0  0  0  0  0  0  0  0  0  0  0  0
  141.4970   76.7650  219.2690 C   0  0  0  0  0  0  0  0  0  0  0  0
  141.4620   77.6070  220.5220 C   0  0  0  0  0  0  0  0  0  0  0  0
  141.0400   77.0930  221.7260 C   0  0  0  0  0  0  0  0  0  0  0  0
  140.9910   77.8180  222.8850 C   0  0  0  0  0  0  0  0  0  0  0  0
  141.3950   79.1450  222.8260 C   0  0  0  0  0  0  0  0  0  0  0  0
  141.8290   79.6950  221.6210 C   0  0  0  0  0  0  0  0  0  0  0  0
  141.8640   78.9310  220.4640 C   0  0  0  0  0  0  0  0  0  0  0  0
  140.0240   71.2200  223.6210 C   0  0  0  0  0  0  0  0  0  0  0  0
  139.5990   69.9150  223.7540 C   0  0  0  0  0  0  0  0  0  0  0  0
  139.6510   69.2540  224.9510 C   0  0  0  0  0  0  0  0  0  0  0  0
  140.1480   69.9430  226.0430 C   0  0  0  0  0  0  0  0  0  0  0  0
  140.2070   69.2970  227.2510 C   0  0  0  0  0  0  0  0  0  0  0  0
  140.7010   69.9760  228.3450 C   0  0  0  0  0  0  0  0  0  0  0  0
  141.1340   71.2940  228.2280 C   0  0  0  0  0  0  0  0  0  0  0  0
  141.0720   71.9490  226.9910 C   0  0  0  0  0  0  0  0  0  0  0  0
  140.5750   71.2610  225.8980 C   0  0  0  0  0  0  0  0  0  0  0  0
  140.5060   71.8830  224.6880 N   0  0  0  0  0  0  0  0  0  0  0  0
  139.6050   73.7630  223.1320 H   0  0  0  0  0  0  0  0  0  0  0  0
  138.7342   73.4997  220.4239 H   0  0  0  0  0  0  0  0  0  0  0  0
  139.5219   74.9984  221.2305 H   0  0  0  0  0  0  0  0  0  0  0  0
  143.0147   72.4258  221.6049 H   0  0  0  0  0  0  0  0  0  0  0  0
  142.4933   71.7240  220.1111 H   0  0  0  0  0  0  0  0  0  0  0  0
  144.3001   73.0908  218.8123 H   0  0  0  0  0  0  0  0  0  0  0  0
  145.0400   71.9040  221.1840 H   0  0  0  0  0  0  0  0  0  0  0  0
  144.6341   74.3926  221.6028 H   0  0  0  0  0  0  0  0  0  0  0  0
  145.0880   75.1114  220.0602 H   0  0  0  0  0  0  0  0  0  0  0  0
  142.6382   75.6502  221.2920 H   0  0  0  0  0  0  0  0  0  0  0  0
  143.6056   76.7587  219.4291 H   0  0  0  0  0  0  0  0  0  0  0  0
  142.8423   75.4297  218.3983 H   0  0  0  0  0  0  0  0  0  0  0  0
  141.4588   77.4042  218.3746 H   0  0  0  0  0  0  0  0  0  0  0  0
  140.6364   76.0824  219.2108 H   0  0  0  0  0  0  0  0  0  0  0  0
  140.7242   76.0398  221.7587 H   0  0  0  0  0  0  0  0  0  0  0  0
  140.6450   77.3673  223.8269 H   0  0  0  0  0  0  0  0  0  0  0  0
  141.3725   79.7651  223.7343 H   0  0  0  0  0  0  0  0  0  0  0  0
  142.1475   80.7473  221.5873 H   0  0  0  0  0  0  0  0  0  0  0  0
  142.2058   79.3699  219.5150 H   0  0  0  0  0  0  0  0  0  0  0  0
  139.2063   69.3894  222.8711 H   0  0  0  0  0  0  0  0  0  0  0  0
  139.3099   68.2122  225.0418 H   0  0  0  0  0  0  0  0  0  0  0  0
  139.8663   68.2554  227.3459 H   0  0  0  0  0  0  0  0  0  0  0  0
  140.7535   69.4707  229.3207 H   0  0  0  0  0  0  0  0  0  0  0  0
  141.5260   71.8227  229.1094 H   0  0  0  0  0  0  0  0  0  0  0  0
  141.4119   72.9903  226.8905 H   0  0  0  0  0  0  0  0  0  0  0  0
  1  2  2  0
  2  3  1  0
  3  4  1  0
  4  5  1  0
  5  6  2  0
  5  7  1  0
  7  8  1  0
  8  9  1  0
  9 10  1  0
  9 11  1  0
 11 12  1  0
 12 13  1  0
 13 14  1  0
 14 15  1  0
 15 16  2  0
 16 17  1  0
 17 18  2  0
 18 19  1  0
 19 20  2  0
  2 21  1  0
 21 22  2  0
 22 23  1  0
 23 24  2  0
 24 25  1  0
 25 26  2  0
 26 27  1  0
 27 28  2  0
 28 29  1  0
 29 30  2  0
 12  7  1  0
 20 15  1  0
 30 21  1  0
 29 24  1  0
  3 31  1  0
  4 32  1  0
  4 33  1  0
  8 34  1  0
  8 35  1  0
  9 36  1  6
 10 37  1  0
 11 38  1  0
 11 39  1  0
 12 40  1  1
 13 41  1  0
 13 42  1  0
 14 43  1  0
 14 44  1  0
 16 45  1  0
 17 46  1  0
 18 47  1  0
 19 48  1  0
 20 49  1  0
 22 50  1  0
 23 51  1  0
 25 52  1  0
 26 53  1  0
 27 54  1  0
 28 55  1  0
M  END
>  <smiles>  (13) 
O=C(NCC(=O)N1C[C@H](O)C[C@H]1CCc1ccccc1)c1ccc2ccccc2n1

>  <score_type>  (13) 
oracle

>  <origin>  (13) 
autodockgpu

>  <m_score__min__energy>  (13) 
-9.2799999999999994

>  <m_primary>  (13) 
energy

>  <rmsd>  (13) 
2.43602783651752

>  <m_score__min__rmsd>  (13) 
2.43602783651752

>  <meeko>  (13) 
{"free_energy": -8.49, "intermolecular_energy": -10.88, "internal_energy": -1.78, "cluster_size": 24, "cluster_id": 1, "rank_in_cluster": 19}

>  <energy>  (13) 
-8.72

>  <cluster_rmsd>  (13) 
1.28

>  <cluster>  (13) 
1

$$$$

     RDKit          3D

 55 58  0  0  0  0  0  0  0  0999 V2000
  139.9910   71.2120  221.2870 O   0  0  0  0  0  0  0  0  0  0  0  0
  139.8770   71.8760  222.3740 C   0  0  0  0  0  0  0  0  0  0  0  0
  139.6540   73.2970  222.3470 N   0  0  0  0  0  0  0  0  0  0  0  0
  139.5440   74.0190  221.1430 C   0  0  0  0  0  0  0  0  0  0  0  0
  140.2420   75.2750  221.0020 C   0  0  0  0  0  0  0  0  0  0  0  0
  139.6790   76.2720  221.6260 O   0  0  0  0  0  0  0  0  0  0  0  0
  141.4370   75.5760  220.2870 N   0  0  0  0  0  0  0  0  0  0  0  0
  142.2230   74.6610  219.4650 C   0  0  0  0  0  0  0  0  0  0  0  0
  142.7330   75.6400  218.3880 C   0  0  2  0  0  0  0  0  0  0  0  0
  143.7730   75.1000  217.6550 O   0  0  0  0  0  0  0  0  0  0  0  0
  143.1810   76.7610  219.3000 C   0  0  0  0  0  0  0  0  0  0  0  0
  142.0690   76.8890  220.3190 C   0  0  1  0  0  0  0  0  0  0  0  0
  141.1620   78.0300  220.0520 C   0  0  0  0  0  0  0  0  0  0  0  0
  141.8200   79.3700  219.8940 C   0  0  0  0  0  0  0  0  0  0  0  0
  141.8770   79.9550  221.2850 C   0  0  0  0  0  0  0  0  0  0  0  0
  142.1990   79.1870  222.3790 C   0  0  0  0  0  0  0  0  0  0  0  0
  142.2630   79.6730  223.6560 C   0  0  0  0  0  0  0  0  0  0  0  0
  141.9850   81.0210  223.8400 C   0  0  0  0  0  0  0  0  0  0  0  0
  141.6570   81.8270  222.7510 C   0  0  0  0  0  0  0  0  0  0  0  0
  141.6000   81.2990  221.4700 C   0  0  0  0  0  0  0  0  0  0  0  0
  139.9770   71.1730  223.6740 C   0  0  0  0  0  0  0  0  0  0  0  0
  139.5600   69.8600  223.7450 C   0  0  0  0  0  0  0  0  0  0  0  0
  139.6210   69.1420  224.9080 C   0  0  0  0  0  0  0  0  0  0  0  0
  140.1190   69.7790  226.0310 C   0  0  0  0  0  0  0  0  0  0  0  0
  140.1860   69.0760  227.2040 C   0  0  0  0  0  0  0  0  0  0  0  0
  140.6810   69.7030  228.3290 C   0  0  0  0  0  0  0  0  0  0  0  0
  141.1060   71.0280  228.2750 C   0  0  0  0  0  0  0  0  0  0  0  0
  141.0350   71.7410  227.0720 C   0  0  0  0  0  0  0  0  0  0  0  0
  140.5370   71.1050  225.9480 C   0  0  0  0  0  0  0  0  0  0  0  0
  140.4600   71.7850  224.7710 N   0  0  0  0  0  0  0  0  0  0  0  0
  139.5790   73.7400  223.3120 H   0  0  0  0  0  0  0  0  0  0  0  0
  139.9058   73.3598  220.3402 H   0  0  0  0  0  0  0  0  0  0  0  0
  138.4830   74.3075  221.1102 H   0  0  0  0  0  0  0  0  0  0  0  0
  143.0509   74.2109  220.0325 H   0  0  0  0  0  0  0  0  0  0  0  0
  141.6686   73.7935  219.0775 H   0  0  0  0  0  0  0  0  0  0  0  0
  142.0093   75.9269  217.6109 H   0  0  0  0  0  0  0  0  0  0  0  0
  144.5800   75.6690  217.8660 H   0  0  0  0  0  0  0  0  0  0  0  0
  144.1313   76.5058  219.7917 H   0  0  0  0  0  0  0  0  0  0  0  0
  143.3572   77.6993  218.7535 H   0  0  0  0  0  0  0  0  0  0  0  0
  142.4278   77.1375  221.3287 H   0  0  0  0  0  0  0  0  0  0  0  0
  140.6125   77.8133  219.1241 H   0  0  0  0  0  0  0  0  0  0  0  0
  140.5232   78.1163  220.9434 H   0  0  0  0  0  0  0  0  0  0  0  0
  142.8338   79.2549  219.4830 H   0  0  0  0  0  0  0  0  0  0  0  0
  141.2658   80.0187  219.1997 H   0  0  0  0  0  0  0  0  0  0  0  0
  142.4176   78.1210  222.2182 H   0  0  0  0  0  0  0  0  0  0  0  0
  142.5242   79.0220  224.5033 H   0  0  0  0  0  0  0  0  0  0  0  0
  142.0238   81.4549  224.8500 H   0  0  0  0  0  0  0  0  0  0  0  0
  141.4409   82.8939  222.9096 H   0  0  0  0  0  0  0  0  0  0  0  0
  141.3387   81.9382  220.6138 H   0  0  0  0  0  0  0  0  0  0  0  0
  139.1665   69.3756  222.8392 H   0  0  0  0  0  0  0  0  0  0  0  0
  139.2859   68.0951  224.9489 H   0  0  0  0  0  0  0  0  0  0  0  0
  139.8509   68.0292  227.2487 H   0  0  0  0  0  0  0  0  0  0  0  0
  140.7405   69.1505  229.2783 H   0  0  0  0  0  0  0  0  0  0  0  0
  141.4984   71.5157  229.1795 H   0  0  0  0  0  0  0  0  0  0  0  0
  141.3690   72.7878  227.0211 H   0  0  0  0  0  0  0  0  0  0  0  0
  1  2  2  0
  2  3  1  0
  3  4  1  0
  4  5  1  0
  5  6  2  0
  5  7  1  0
  7  8  1  0
  8  9  1  0
  9 10  1  0
  9 11  1  0
 11 12  1  0
 12 13  1  0
 13 14  1  0
 14 15  1  0
 15 16  2  0
 16 17  1  0
 17 18  2  0
 18 19  1  0
 19 20  2  0
  2 21  1  0
 21 22  2  0
 22 23  1  0
 23 24  2  0
 24 25  1  0
 25 26  2  0
 26 27  1  0
 27 28  2  0
 28 29  1  0
 29 30  2  0
 12  7  1  0
 20 15  1  0
 30 21  1  0
 29 24  1  0
  3 31  1  0
  4 32  1  0
  4 33  1  0
  8 34  1  0
  8 35  1  0
  9 36  1  6
 10 37  1  0
 11 38  1  0
 11 39  1  0
 12 40  1  1
 13 41  1  0
 13 42  1  0
 14 43  1  0
 14 44  1  0
 16 45  1  0
 17 46  1  0
 18 47  1  0
 19 48  1  0
 20 49  1  0
 22 50  1  0
 23 51  1  0
 25 52  1  0
 26 53  1  0
 27 54  1  0
 28 55  1  0
M  END
>  <smiles>  (14) 
O=C(NCC(=O)N1C[C@H](O)C[C@H]1CCc1ccccc1)c1ccc2ccccc2n1

>  <score_type>  (14) 
oracle

>  <origin>  (14) 
autodockgpu

>  <m_score__min__energy>  (14) 
-9.2799999999999994

>  <m_primary>  (14) 
energy

>  <rmsd>  (14) 
2.236413787888169

>  <m_score__min__rmsd>  (14) 
2.236413787888169

>  <meeko>  (14) 
{"free_energy": -9.09, "intermolecular_energy": -11.48, "internal_energy": -1.36, "cluster_size": 24, "cluster_id": 1, "rank_in_cluster": 6}

>  <energy>  (14) 
-8.71

>  <cluster_rmsd>  (14) 
0.68

>  <cluster>  (14) 
1

$$$$

     RDKit          3D

 55 58  0  0  0  0  0  0  0  0999 V2000
  139.7310   74.1060  222.3320 O   0  0  0  0  0  0  0  0  0  0  0  0
  140.4070   73.0280  222.2050 C   0  0  0  0  0  0  0  0  0  0  0  0
  141.2880   72.8400  221.0840 N   0  0  0  0  0  0  0  0  0  0  0  0
  141.4570   73.8190  220.0870 C   0  0  0  0  0  0  0  0  0  0  0  0
  142.4820   74.8240  220.2440 C   0  0  0  0  0  0  0  0  0  0  0  0
  143.5560   74.4010  220.8500 O   0  0  0  0  0  0  0  0  0  0  0  0
  142.4850   76.1900  219.8400 N   0  0  0  0  0  0  0  0  0  0  0  0
  143.1560   76.7610  218.6760 C   0  0  0  0  0  0  0  0  0  0  0  0
  142.1600   77.8830  218.3190 C   0  0  2  0  0  0  0  0  0  0  0  0
  142.7110   78.7960  217.4400 O   0  0  0  0  0  0  0  0  0  0  0  0
  141.9600   78.4540  219.7060 C   0  0  0  0  0  0  0  0  0  0  0  0
  141.8170   77.2400  220.5990 C   0  0  1  0  0  0  0  0  0  0  0  0
  140.4120   76.9520  220.9690 C   0  0  0  0  0  0  0  0  0  0  0  0
  140.0420   77.2090  222.4010 C   0  0  0  0  0  0  0  0  0  0  0  0
  140.6860   78.5280  222.7510 C   0  0  0  0  0  0  0  0  0  0  0  0
  140.1710   79.7240  222.3060 C   0  0  0  0  0  0  0  0  0  0  0  0
  140.7200   80.9420  222.5980 C   0  0  0  0  0  0  0  0  0  0  0  0
  141.8610   80.9550  223.3900 C   0  0  0  0  0  0  0  0  0  0  0  0
  142.4070   79.7600  223.8570 C   0  0  0  0  0  0  0  0  0  0  0  0
  141.8240   78.5430  223.5400 C   0  0  0  0  0  0  0  0  0  0  0  0
  140.2770   71.9600  223.2250 C   0  0  0  0  0  0  0  0  0  0  0  0
  139.7050   70.7610  222.8520 C   0  0  0  0  0  0  0  0  0  0  0  0
  139.5510   69.7270  223.7340 C   0  0  0  0  0  0  0  0  0  0  0  0
  139.9900   69.9190  225.0320 C   0  0  0  0  0  0  0  0  0  0  0  0
  139.8430   68.8940  225.9300 C   0  0  0  0  0  0  0  0  0  0  0  0
  140.2770   69.0770  227.2260 C   0  0  0  0  0  0  0  0  0  0  0  0
  140.8560   70.2810  227.6180 C   0  0  0  0  0  0  0  0  0  0  0  0
  141.0040   71.3240  226.6960 C   0  0  0  0  0  0  0  0  0  0  0  0
  140.5660   71.1340  225.3980 C   0  0  0  0  0  0  0  0  0  0  0  0
  140.7010   72.1390  224.4890 N   0  0  0  0  0  0  0  0  0  0  0  0
  141.7920   71.9020  221.0850 H   0  0  0  0  0  0  0  0  0  0  0  0
  141.6720   73.2865  219.1488 H   0  0  0  0  0  0  0  0  0  0  0  0
  140.5212   74.3955  220.1297 H   0  0  0  0  0  0  0  0  0  0  0  0
  144.1480   77.1615  218.9319 H   0  0  0  0  0  0  0  0  0  0  0  0
  143.3631   76.0486  217.8639 H   0  0  0  0  0  0  0  0  0  0  0  0
  141.2404   77.5701  217.8029 H   0  0  0  0  0  0  0  0  0  0  0  0
  143.7090   78.6450  217.4780 H   0  0  0  0  0  0  0  0  0  0  0  0
  142.8289   79.0577  220.0069 H   0  0  0  0  0  0  0  0  0  0  0  0
  141.0861   79.1197  219.7621 H   0  0  0  0  0  0  0  0  0  0  0  0
  142.2734   77.3701  221.5914 H   0  0  0  0  0  0  0  0  0  0  0  0
  139.7630   77.5757  220.3367 H   0  0  0  0  0  0  0  0  0  0  0  0
  140.2820   75.8701  220.8190 H   0  0  0  0  0  0  0  0  0  0  0  0
  138.9494   77.2732  222.5106 H   0  0  0  0  0  0  0  0  0  0  0  0
  140.3825   76.3992  223.0630 H   0  0  0  0  0  0  0  0  0  0  0  0
  139.2668   79.6989  221.6801 H   0  0  0  0  0  0  0  0  0  0  0  0
  140.2755   81.8747  222.2205 H   0  0  0  0  0  0  0  0  0  0  0  0
  142.3361   81.9125  223.6500 H   0  0  0  0  0  0  0  0  0  0  0  0
  143.3105   79.7833  224.4840 H   0  0  0  0  0  0  0  0  0  0  0  0
  142.2590   77.6028  223.9098 H   0  0  0  0  0  0  0  0  0  0  0  0
  139.3627   70.6329  221.8145 H   0  0  0  0  0  0  0  0  0  0  0  0
  139.0941   68.7761  223.4223 H   0  0  0  0  0  0  0  0  0  0  0  0
  139.3866   67.9417  225.6221 H   0  0  0  0  0  0  0  0  0  0  0  0
  140.1646   68.2634  227.9577 H   0  0  0  0  0  0  0  0  0  0  0  0
  141.1981   70.4131  228.6551 H   0  0  0  0  0  0  0  0  0  0  0  0
  141.4606   72.2779  226.9986 H   0  0  0  0  0  0  0  0  0  0  0  0
  1  2  2  0
  2  3  1  0
  3  4  1  0
  4  5  1  0
  5  6  2  0
  5  7  1  0
  7  8  1  0
  8  9  1  0
  9 10  1  0
  9 11  1  0
 11 12  1  0
 12 13  1  0
 13 14  1  0
 14 15  1  0
 15 16  2  0
 16 17  1  0
 17 18  2  0
 18 19  1  0
 19 20  2  0
  2 21  1  0
 21 22  2  0
 22 23  1  0
 23 24  2  0
 24 25  1  0
 25 26  2  0
 26 27  1  0
 27 28  2  0
 28 29  1  0
 29 30  2  0
 12  7  1  0
 20 15  1  0
 30 21  1  0
 29 24  1  0
  3 31  1  0
  4 32  1  0
  4 33  1  0
  8 34  1  0
  8 35  1  0
  9 36  1  6
 10 37  1  0
 11 38  1  0
 11 39  1  0
 12 40  1  1
 13 41  1  0
 13 42  1  0
 14 43  1  0
 14 44  1  0
 16 45  1  0
 17 46  1  0
 18 47  1  0
 19 48  1  0
 20 49  1  0
 22 50  1  0
 23 51  1  0
 25 52  1  0
 26 53  1  0
 27 54  1  0
 28 55  1  0
M  END
>  <smiles>  (15) 
O=C(NCC(=O)N1C[C@H](O)C[C@H]1CCc1ccccc1)c1ccc2ccccc2n1

>  <score_type>  (15) 
oracle

>  <origin>  (15) 
autodockgpu

>  <m_score__min__energy>  (15) 
-9.2799999999999994

>  <m_primary>  (15) 
energy

>  <rmsd>  (15) 
3.0242129220076976

>  <m_score__min__rmsd>  (15) 
3.0242129220076976

>  <meeko>  (15) 
{"free_energy": -8.64, "intermolecular_energy": -11.03, "internal_energy": -1.64, "cluster_size": 24, "cluster_id": 1, "rank_in_cluster": 17}

>  <energy>  (15) 
-8.71

>  <cluster_rmsd>  (15) 
1.76

>  <cluster>  (15) 
1

$$$$

     RDKit          3D

 55 58  0  0  0  0  0  0  0  0999 V2000
  137.3510   76.3300  222.2160 O   0  0  0  0  0  0  0  0  0  0  0  0
  138.6210   76.3790  222.3570 C   0  0  0  0  0  0  0  0  0  0  0  0
  139.4280   75.2030  222.1690 N   0  0  0  0  0  0  0  0  0  0  0  0
  138.8730   73.9580  221.8180 C   0  0  0  0  0  0  0  0  0  0  0  0
  139.6120   72.7480  222.0930 C   0  0  0  0  0  0  0  0  0  0  0  0
  140.8690   72.9430  222.3760 O   0  0  0  0  0  0  0  0  0  0  0  0
  139.1700   71.3930  222.0960 N   0  0  0  0  0  0  0  0  0  0  0  0
  139.4240   70.3850  221.0710 C   0  0  0  0  0  0  0  0  0  0  0  0
  139.5070   69.1230  221.9550 C   0  0  2  0  0  0  0  0  0  0  0  0
  139.4210   67.9650  221.2040 O   0  0  0  0  0  0  0  0  0  0  0  0
  138.2770   69.3640  222.8030 C   0  0  0  0  0  0  0  0  0  0  0  0
  138.3400   70.8340  223.1550 C   0  0  1  0  0  0  0  0  0  0  0  0
  138.8270   71.0830  224.5330 C   0  0  0  0  0  0  0  0  0  0  0  0
  140.3080   70.9560  224.7410 C   0  0  0  0  0  0  0  0  0  0  0  0
  140.4670   70.1240  225.9910 C   0  0  0  0  0  0  0  0  0  0  0  0
  140.2820   68.7610  225.9800 C   0  0  0  0  0  0  0  0  0  0  0  0
  140.4160   67.9680  227.0860 C   0  0  0  0  0  0  0  0  0  0  0  0
  140.7600   68.5900  228.2800 C   0  0  0  0  0  0  0  0  0  0  0  0
  140.9550   69.9700  228.3230 C   0  0  0  0  0  0  0  0  0  0  0  0
  140.8100   70.7430  227.1810 C   0  0  0  0  0  0  0  0  0  0  0  0
  139.2660   77.6630  222.7200 C   0  0  0  0  0  0  0  0  0  0  0  0
  138.4610   78.7350  223.0430 C   0  0  0  0  0  0  0  0  0  0  0  0
  138.9790   79.9530  223.3900 C   0  0  0  0  0  0  0  0  0  0  0  0
  140.3570   80.0820  223.4060 C   0  0  0  0  0  0  0  0  0  0  0  0
  140.8940   81.2950  223.7500 C   0  0  0  0  0  0  0  0  0  0  0  0
  142.2660   81.4340  223.7680 C   0  0  0  0  0  0  0  0  0  0  0  0
  143.0930   80.3620  223.4440 C   0  0  0  0  0  0  0  0  0  0  0  0
  142.5380   79.1250  223.0940 C   0  0  0  0  0  0  0  0  0  0  0  0
  141.1610   78.9930  223.0780 C   0  0  0  0  0  0  0  0  0  0  0  0
  140.6050   77.7980  222.7380 N   0  0  0  0  0  0  0  0  0  0  0  0
  140.4690   75.3670  222.3170 H   0  0  0  0  0  0  0  0  0  0  0  0
  137.9130   73.8744  222.3485 H   0  0  0  0  0  0  0  0  0  0  0  0
  138.8333   73.9929  220.7193 H   0  0  0  0  0  0  0  0  0  0  0  0
  138.5991   70.3226  220.3460 H   0  0  0  0  0  0  0  0  0  0  0  0
  140.3087   70.5723  220.4447 H   0  0  0  0  0  0  0  0  0  0  0  0
  140.4432   68.9821  222.5151 H   0  0  0  0  0  0  0  0  0  0  0  0
  138.9250   68.2220  220.3630 H   0  0  0  0  0  0  0  0  0  0  0  0
  137.3627   69.1395  222.2341 H   0  0  0  0  0  0  0  0  0  0  0  0
  138.2524   68.7214  223.6955 H   0  0  0  0  0  0  0  0  0  0  0  0
  137.3529   71.3181  223.1896 H   0  0  0  0  0  0  0  0  0  0  0  0
  138.5343   72.1055  224.8137 H   0  0  0  0  0  0  0  0  0  0  0  0
  138.3721   70.2976  225.1545 H   0  0  0  0  0  0  0  0  0  0  0  0
  140.7757   70.4530  223.8817 H   0  0  0  0  0  0  0  0  0  0  0  0
  140.7933   71.9383  224.8387 H   0  0  0  0  0  0  0  0  0  0  0  0
  140.0109   68.2818  225.0277 H   0  0  0  0  0  0  0  0  0  0  0  0
  140.2577   66.8808  227.0326 H   0  0  0  0  0  0  0  0  0  0  0  0
  140.8790   67.9912  229.1951 H   0  0  0  0  0  0  0  0  0  0  0  0
  141.2271   70.4511  229.2741 H   0  0  0  0  0  0  0  0  0  0  0  0
  140.9651   71.8313  227.2199 H   0  0  0  0  0  0  0  0  0  0  0  0
  137.3687   78.6070  223.0210 H   0  0  0  0  0  0  0  0  0  0  0  0
  138.3242   80.7987  223.6469 H   0  0  0  0  0  0  0  0  0  0  0  0
  140.2422   82.1429  224.0072 H   0  0  0  0  0  0  0  0  0  0  0  0
  142.7115   82.4019  224.0412 H   0  0  0  0  0  0  0  0  0  0  0  0
  144.1857   80.4871  223.4630 H   0  0  0  0  0  0  0  0  0  0  0  0
  143.1852   78.2736  222.8364 H   0  0  0  0  0  0  0  0  0  0  0  0
  1  2  2  0
  2  3  1  0
  3  4  1  0
  4  5  1  0
  5  6  2  0
  5  7  1  0
  7  8  1  0
  8  9  1  0
  9 10  1  0
  9 11  1  0
 11 12  1  0
 12 13  1  0
 13 14  1  0
 14 15  1  0
 15 16  2  0
 16 17  1  0
 17 18  2  0
 18 19  1  0
 19 20  2  0
  2 21  1  0
 21 22  2  0
 22 23  1  0
 23 24  2  0
 24 25  1  0
 25 26  2  0
 26 27  1  0
 27 28  2  0
 28 29  1  0
 29 30  2  0
 12  7  1  0
 20 15  1  0
 30 21  1  0
 29 24  1  0
  3 31  1  0
  4 32  1  0
  4 33  1  0
  8 34  1  0
  8 35  1  0
  9 36  1  1
 10 37  1  0
 11 38  1  0
 11 39  1  0
 12 40  1  1
 13 41  1  0
 13 42  1  0
 14 43  1  0
 14 44  1  0
 16 45  1  0
 17 46  1  0
 18 47  1  0
 19 48  1  0
 20 49  1  0
 22 50  1  0
 23 51  1  0
 25 52  1  0
 26 53  1  0
 27 54  1  0
 28 55  1  0
M  END
>  <smiles>  (16) 
O=C(NCC(=O)N1C[C@H](O)C[C@H]1CCc1ccccc1)c1ccc2ccccc2n1

>  <score_type>  (16) 
oracle

>  <origin>  (16) 
autodockgpu

>  <m_score__min__energy>  (16) 
-9.2799999999999994

>  <m_primary>  (16) 
energy

>  <rmsd>  (16) 
8.448518379182133

>  <m_score__min__rmsd>  (16) 
8.448518379182133

>  <meeko>  (16) 
{"free_energy": -8.26, "intermolecular_energy": -10.65, "internal_energy": -1.89, "cluster_size": 7, "cluster_id": 4, "rank_in_cluster": 7}

>  <energy>  (16) 
-8.65

>  <cluster_rmsd>  (16) 
1.41

>  <cluster>  (16) 
1

$$$$

     RDKit          3D

 55 58  0  0  0  0  0  0  0  0999 V2000
  141.0800   71.4900  221.4340 O   0  0  0  0  0  0  0  0  0  0  0  0
  140.4750   72.0320  222.4220 C   0  0  0  0  0  0  0  0  0  0  0  0
  140.0050   73.3890  222.3420 N   0  0  0  0  0  0  0  0  0  0  0  0
  140.1790   74.1790  221.1900 C   0  0  0  0  0  0  0  0  0  0  0  0
  141.0690   75.3160  221.2350 C   0  0  0  0  0  0  0  0  0  0  0  0
  141.0100   75.9960  222.3450 O   0  0  0  0  0  0  0  0  0  0  0  0
  141.9840   75.7930  220.2530 N   0  0  0  0  0  0  0  0  0  0  0  0
  142.8620   74.9910  219.4060 C   0  0  0  0  0  0  0  0  0  0  0  0
  142.8700   75.8610  218.1320 C   0  0  2  0  0  0  0  0  0  0  0  0
  143.8890   75.4980  217.2710 O   0  0  0  0  0  0  0  0  0  0  0  0
  143.1060   77.2070  218.7820 C   0  0  0  0  0  0  0  0  0  0  0  0
  142.1900   77.2110  219.9870 C   0  0  1  0  0  0  0  0  0  0  0  0
  140.9520   77.9980  219.7750 C   0  0  0  0  0  0  0  0  0  0  0  0
  141.0580   79.4730  220.0300 C   0  0  0  0  0  0  0  0  0  0  0  0
  141.4580   79.6030  221.4800 C   0  0  0  0  0  0  0  0  0  0  0  0
  140.7790   78.9440  222.4790 C   0  0  0  0  0  0  0  0  0  0  0  0
  141.1050   79.0310  223.8040 C   0  0  0  0  0  0  0  0  0  0  0  0
  142.1860   79.8330  224.1440 C   0  0  0  0  0  0  0  0  0  0  0  0
  142.8960   80.5130  223.1550 C   0  0  0  0  0  0  0  0  0  0  0  0
  142.5360   80.4020  221.8210 C   0  0  0  0  0  0  0  0  0  0  0  0
  140.2560   71.2500  223.6620 C   0  0  0  0  0  0  0  0  0  0  0  0
  139.6250   70.0280  223.5650 C   0  0  0  0  0  0  0  0  0  0  0  0
  139.3860   69.2470  224.6630 C   0  0  0  0  0  0  0  0  0  0  0  0
  139.8020   69.7240  225.8930 C   0  0  0  0  0  0  0  0  0  0  0  0
  139.5710   68.9560  227.0040 C   0  0  0  0  0  0  0  0  0  0  0  0
  139.9810   69.4240  228.2350 C   0  0  0  0  0  0  0  0  0  0  0  0
  140.6190   70.6560  228.3490 C   0  0  0  0  0  0  0  0  0  0  0  0
  140.8530   71.4370  227.2110 C   0  0  0  0  0  0  0  0  0  0  0  0
  140.4380   70.9610  225.9790 C   0  0  0  0  0  0  0  0  0  0  0  0
  140.6560   71.7080  224.8620 N   0  0  0  0  0  0  0  0  0  0  0  0
  139.5210   73.7300  223.2270 H   0  0  0  0  0  0  0  0  0  0  0  0
  140.5513   73.5124  220.3981 H   0  0  0  0  0  0  0  0  0  0  0  0
  139.1886   74.6321  221.0355 H   0  0  0  0  0  0  0  0  0  0  0  0
  143.8682   74.8915  219.8391 H   0  0  0  0  0  0  0  0  0  0  0  0
  142.5380   73.9506  219.2554 H   0  0  0  0  0  0  0  0  0  0  0  0
  141.9756   75.7975  217.4948 H   0  0  0  0  0  0  0  0  0  0  0  0
  144.7460   75.6460  217.7840 H   0  0  0  0  0  0  0  0  0  0  0  0
  144.1564   77.3106  219.0916 H   0  0  0  0  0  0  0  0  0  0  0  0
  142.9014   78.0438  218.0979 H   0  0  0  0  0  0  0  0  0  0  0  0
  142.6187   77.7243  220.8603 H   0  0  0  0  0  0  0  0  0  0  0  0
  140.6397   77.8589  218.7295 H   0  0  0  0  0  0  0  0  0  0  0  0
  140.2305   77.6205  220.5145 H   0  0  0  0  0  0  0  0  0  0  0  0
  141.8222   79.9220  219.3785 H   0  0  0  0  0  0  0  0  0  0  0  0
  140.1119   79.9930  219.8191 H   0  0  0  0  0  0  0  0  0  0  0  0
  139.9252   78.3111  222.1955 H   0  0  0  0  0  0  0  0  0  0  0  0
  140.5333   78.4870  224.5703 H   0  0  0  0  0  0  0  0  0  0  0  0
  142.4838   79.9325  225.1982 H   0  0  0  0  0  0  0  0  0  0  0  0
  143.7514   81.1446  223.4366 H   0  0  0  0  0  0  0  0  0  0  0  0
  143.0987   80.9410  221.0445 H   0  0  0  0  0  0  0  0  0  0  0  0
  139.3041   69.6702  222.5756 H   0  0  0  0  0  0  0  0  0  0  0  0
  138.8809   68.2742  224.5707 H   0  0  0  0  0  0  0  0  0  0  0  0
  139.0669   67.9823  226.9156 H   0  0  0  0  0  0  0  0  0  0  0  0
  139.8021   68.8179  229.1353 H   0  0  0  0  0  0  0  0  0  0  0  0
  140.9405   71.0172  229.3370 H   0  0  0  0  0  0  0  0  0  0  0  0
  141.3573   72.4110  227.2942 H   0  0  0  0  0  0  0  0  0  0  0  0
  1  2  2  0
  2  3  1  0
  3  4  1  0
  4  5  1  0
  5  6  2  0
  5  7  1  0
  7  8  1  0
  8  9  1  0
  9 10  1  0
  9 11  1  0
 11 12  1  0
 12 13  1  0
 13 14  1  0
 14 15  1  0
 15 16  2  0
 16 17  1  0
 17 18  2  0
 18 19  1  0
 19 20  2  0
  2 21  1  0
 21 22  2  0
 22 23  1  0
 23 24  2  0
 24 25  1  0
 25 26  2  0
 26 27  1  0
 27 28  2  0
 28 29  1  0
 29 30  2  0
 12  7  1  0
 20 15  1  0
 30 21  1  0
 29 24  1  0
  3 31  1  0
  4 32  1  0
  4 33  1  0
  8 34  1  0
  8 35  1  0
  9 36  1  6
 10 37  1  0
 11 38  1  0
 11 39  1  0
 12 40  1  1
 13 41  1  0
 13 42  1  0
 14 43  1  0
 14 44  1  0
 16 45  1  0
 17 46  1  0
 18 47  1  0
 19 48  1  0
 20 49  1  0
 22 50  1  0
 23 51  1  0
 25 52  1  0
 26 53  1  0
 27 54  1  0
 28 55  1  0
M  END
>  <smiles>  (17) 
O=C(NCC(=O)N1C[C@H](O)C[C@H]1CCc1ccccc1)c1ccc2ccccc2n1

>  <score_type>  (17) 
oracle

>  <origin>  (17) 
autodockgpu

>  <m_score__min__energy>  (17) 
-9.2799999999999994

>  <m_primary>  (17) 
energy

>  <rmsd>  (17) 
2.3998653603789766

>  <m_score__min__rmsd>  (17) 
2.3998653603789766

>  <meeko>  (17) 
{"free_energy": -9.28, "intermolecular_energy": -11.67, "internal_energy": -1.63, "cluster_size": 24, "cluster_id": 1, "rank_in_cluster": 1}

>  <energy>  (17) 
-8.64

>  <cluster_rmsd>  (17) 
1.64

>  <cluster>  (17) 
1

$$$$

     RDKit          3D

 55 58  0  0  0  0  0  0  0  0999 V2000
  139.7610   70.9690  221.4410 O   0  0  0  0  0  0  0  0  0  0  0  0
  139.8350   71.5510  222.5770 C   0  0  0  0  0  0  0  0  0  0  0  0
  139.8760   72.9860  222.6670 N   0  0  0  0  0  0  0  0  0  0  0  0
  139.8320   73.8130  221.5290 C   0  0  0  0  0  0  0  0  0  0  0  0
  140.5800   75.0480  221.5180 C   0  0  0  0  0  0  0  0  0  0  0  0
  140.1740   75.9270  222.3920 O   0  0  0  0  0  0  0  0  0  0  0  0
  141.6780   75.4390  220.6990 N   0  0  0  0  0  0  0  0  0  0  0  0
  142.6460   74.5600  220.0500 C   0  0  0  0  0  0  0  0  0  0  0  0
  142.9260   75.3720  218.7690 C   0  0  2  0  0  0  0  0  0  0  0  0
  144.0600   74.9240  218.1160 O   0  0  0  0  0  0  0  0  0  0  0  0
  143.1160   76.7320  219.4040 C   0  0  0  0  0  0  0  0  0  0  0  0
  142.0040   76.8330  220.4250 C   0  0  1  0  0  0  0  0  0  0  0  0
  140.8680   77.6670  219.9690 C   0  0  0  0  0  0  0  0  0  0  0  0
  141.0490   79.1520  220.0950 C   0  0  0  0  0  0  0  0  0  0  0  0
  141.4560   79.3860  221.5300 C   0  0  0  0  0  0  0  0  0  0  0  0
  142.5490   80.1550  221.8540 C   0  0  0  0  0  0  0  0  0  0  0  0
  142.9540   80.3940  223.1380 C   0  0  0  0  0  0  0  0  0  0  0  0
  142.2080   79.8220  224.1610 C   0  0  0  0  0  0  0  0  0  0  0  0
  141.0940   79.0390  223.8640 C   0  0  0  0  0  0  0  0  0  0  0  0
  140.7130   78.8160  222.5500 C   0  0  0  0  0  0  0  0  0  0  0  0
  139.8800   70.7360  223.8140 C   0  0  0  0  0  0  0  0  0  0  0  0
  139.3130   69.4790  223.7930 C   0  0  0  0  0  0  0  0  0  0  0  0
  139.3140   68.6650  224.8930 C   0  0  0  0  0  0  0  0  0  0  0  0
  139.9080   69.1450  226.0470 C   0  0  0  0  0  0  0  0  0  0  0  0
  139.9180   68.3440  227.1580 C   0  0  0  0  0  0  0  0  0  0  0  0
  140.5080   68.8150  228.3130 C   0  0  0  0  0  0  0  0  0  0  0  0
  141.0850   70.0820  228.3500 C   0  0  0  0  0  0  0  0  0  0  0  0
  141.0720   70.8960  227.2110 C   0  0  0  0  0  0  0  0  0  0  0  0
  140.4780   70.4170  226.0560 C   0  0  0  0  0  0  0  0  0  0  0  0
  140.4560   71.1950  224.9400 N   0  0  0  0  0  0  0  0  0  0  0  0
  139.9420   73.3540  223.6650 H   0  0  0  0  0  0  0  0  0  0  0  0
  140.1948   73.2117  220.6824 H   0  0  0  0  0  0  0  0  0  0  0  0
  138.7841   74.1454  221.4918 H   0  0  0  0  0  0  0  0  0  0  0  0
  143.5532   74.4314  220.6586 H   0  0  0  0  0  0  0  0  0  0  0  0
  142.2969   73.5308  219.8798 H   0  0  0  0  0  0  0  0  0  0  0  0
  142.1562   75.3231  217.9848 H   0  0  0  0  0  0  0  0  0  0  0  0
  144.5770   75.7540  217.8650 H   0  0  0  0  0  0  0  0  0  0  0  0
  144.0993   76.7989  219.8924 H   0  0  0  0  0  0  0  0  0  0  0  0
  143.0807   77.5466  218.6657 H   0  0  0  0  0  0  0  0  0  0  0  0
  142.2990   77.3639  221.3421 H   0  0  0  0  0  0  0  0  0  0  0  0
  140.6876   77.4388  218.9081 H   0  0  0  0  0  0  0  0  0  0  0  0
  140.0287   77.4133  220.6332 H   0  0  0  0  0  0  0  0  0  0  0  0
  141.8346   79.5034  219.4100 H   0  0  0  0  0  0  0  0  0  0  0  0
  140.1308   79.6995  219.8358 H   0  0  0  0  0  0  0  0  0  0  0  0
  143.1300   80.6029  221.0344 H   0  0  0  0  0  0  0  0  0  0  0  0
  143.8362   81.0150  223.3526 H   0  0  0  0  0  0  0  0  0  0  0  0
  142.4977   79.9877  225.2092 H   0  0  0  0  0  0  0  0  0  0  0  0
  140.5100   78.5925  224.6823 H   0  0  0  0  0  0  0  0  0  0  0  0
  139.8339   78.1957  222.3211 H   0  0  0  0  0  0  0  0  0  0  0  0
  138.8459   69.1199  222.8641 H   0  0  0  0  0  0  0  0  0  0  0  0
  138.8586   67.6642  224.8610 H   0  0  0  0  0  0  0  0  0  0  0  0
  139.4636   67.3426  227.1300 H   0  0  0  0  0  0  0  0  0  0  0  0
  140.5227   68.1835  229.2135 H   0  0  0  0  0  0  0  0  0  0  0  0
  141.5526   70.4444  229.2774 H   0  0  0  0  0  0  0  0  0  0  0  0
  141.5255   71.8979  227.2335 H   0  0  0  0  0  0  0  0  0  0  0  0
  1  2  2  0
  2  3  1  0
  3  4  1  0
  4  5  1  0
  5  6  2  0
  5  7  1  0
  7  8  1  0
  8  9  1  0
  9 10  1  0
  9 11  1  0
 11 12  1  0
 12 13  1  0
 13 14  1  0
 14 15  1  0
 15 16  2  0
 16 17  1  0
 17 18  2  0
 18 19  1  0
 19 20  2  0
  2 21  1  0
 21 22  2  0
 22 23  1  0
 23 24  2  0
 24 25  1  0
 25 26  2  0
 26 27  1  0
 27 28  2  0
 28 29  1  0
 29 30  2  0
 12  7  1  0
 20 15  1  0
 30 21  1  0
 29 24  1  0
  3 31  1  0
  4 32  1  0
  4 33  1  0
  8 34  1  0
  8 35  1  0
  9 36  1  6
 10 37  1  0
 11 38  1  0
 11 39  1  0
 12 40  1  1
 13 41  1  0
 13 42  1  0
 14 43  1  0
 14 44  1  0
 16 45  1  0
 17 46  1  0
 18 47  1  0
 19 48  1  0
 20 49  1  0
 22 50  1  0
 23 51  1  0
 25 52  1  0
 26 53  1  0
 27 54  1  0
 28 55  1  0
M  END
>  <smiles>  (18) 
O=C(NCC(=O)N1C[C@H](O)C[C@H]1CCc1ccccc1)c1ccc2ccccc2n1

>  <score_type>  (18) 
oracle

>  <origin>  (18) 
autodockgpu

>  <m_score__min__energy>  (18) 
-9.2799999999999994

>  <m_primary>  (18) 
energy

>  <rmsd>  (18) 
2.269808509423915

>  <m_score__min__rmsd>  (18) 
2.269808509423915

>  <meeko>  (18) 
{"free_energy": -9.09, "intermolecular_energy": -11.48, "internal_energy": -1.67, "cluster_size": 24, "cluster_id": 1, "rank_in_cluster": 5}

>  <energy>  (18) 
-8.54

>  <cluster_rmsd>  (18) 
1.2

>  <cluster>  (18) 
1

$$$$

     RDKit          3D

 55 58  0  0  0  0  0  0  0  0999 V2000
  138.8930   70.6170  221.5840 O   0  0  0  0  0  0  0  0  0  0  0  0
  139.2220   71.2090  222.6690 C   0  0  0  0  0  0  0  0  0  0  0  0
  139.3720   72.6390  222.7110 N   0  0  0  0  0  0  0  0  0  0  0  0
  139.1630   73.4510  221.5790 C   0  0  0  0  0  0  0  0  0  0  0  0
  139.7670   74.7610  221.5240 C   0  0  0  0  0  0  0  0  0  0  0  0
  141.0190   74.7880  221.8850 O   0  0  0  0  0  0  0  0  0  0  0  0
  139.1970   76.0100  221.1400 N   0  0  0  0  0  0  0  0  0  0  0  0
  137.7880   76.3860  221.1960 C   0  0  0  0  0  0  0  0  0  0  0  0
  137.9260   77.8880  221.5160 C   0  0  2  0  0  0  0  0  0  0  0  0
  136.7410   78.5680  221.3060 O   0  0  0  0  0  0  0  0  0  0  0  0
  138.9890   78.2370  220.4970 C   0  0  0  0  0  0  0  0  0  0  0  0
  139.9860   77.1020  220.5860 C   0  0  1  0  0  0  0  0  0  0  0  0
  141.2020   77.4540  221.3560 C   0  0  0  0  0  0  0  0  0  0  0  0
  141.0250   77.5890  222.8400 C   0  0  0  0  0  0  0  0  0  0  0  0
  141.4370   79.0040  223.1670 C   0  0  0  0  0  0  0  0  0  0  0  0
  142.7550   79.3960  223.1500 C   0  0  0  0  0  0  0  0  0  0  0  0
  143.1740   80.6650  223.4380 C   0  0  0  0  0  0  0  0  0  0  0  0
  142.2000   81.6000  223.7640 C   0  0  0  0  0  0  0  0  0  0  0  0
  140.8550   81.2360  223.7890 C   0  0  0  0  0  0  0  0  0  0  0  0
  140.4670   79.9380  223.4920 C   0  0  0  0  0  0  0  0  0  0  0  0
  139.4500   70.4100  223.8960 C   0  0  0  0  0  0  0  0  0  0  0  0
  139.0480   69.0910  223.9060 C   0  0  0  0  0  0  0  0  0  0  0  0
  139.2240   68.2880  225.0000 C   0  0  0  0  0  0  0  0  0  0  0  0
  139.8250   68.8440  226.1140 C   0  0  0  0  0  0  0  0  0  0  0  0
  140.0090   68.0550  227.2190 C   0  0  0  0  0  0  0  0  0  0  0  0
  140.6080   68.6010  228.3360 C   0  0  0  0  0  0  0  0  0  0  0  0
  141.0190   69.9310  228.3420 C   0  0  0  0  0  0  0  0  0  0  0  0
  140.8290   70.7330  227.2100 C   0  0  0  0  0  0  0  0  0  0  0  0
  140.2270   70.1780  226.0940 C   0  0  0  0  0  0  0  0  0  0  0  0
  140.0340   70.9440  224.9850 N   0  0  0  0  0  0  0  0  0  0  0  0
  139.6510   73.0160  223.6670 H   0  0  0  0  0  0  0  0  0  0  0  0
  139.5355   72.8899  220.7093 H   0  0  0  0  0  0  0  0  0  0  0  0
  138.0843   73.6643  221.6090 H   0  0  0  0  0  0  0  0  0  0  0  0
  137.2819   76.2181  220.2339 H   0  0  0  0  0  0  0  0  0  0  0  0
  137.1829   75.8124  221.9136 H   0  0  0  0  0  0  0  0  0  0  0  0
  138.1724   78.1417  222.5576 H   0  0  0  0  0  0  0  0  0  0  0  0
  136.9450   79.2630  220.6020 H   0  0  0  0  0  0  0  0  0  0  0  0
  138.5557   78.2957  219.4876 H   0  0  0  0  0  0  0  0  0  0  0  0
  139.4509   79.2159  220.6928 H   0  0  0  0  0  0  0  0  0  0  0  0
  140.4243   76.8274  219.6152 H   0  0  0  0  0  0  0  0  0  0  0  0
  141.9526   76.6701  221.1766 H   0  0  0  0  0  0  0  0  0  0  0  0
  141.4993   78.4518  221.0009 H   0  0  0  0  0  0  0  0  0  0  0  0
  139.9745   77.4200  223.1190 H   0  0  0  0  0  0  0  0  0  0  0  0
  141.6253   76.8508  223.3919 H   0  0  0  0  0  0  0  0  0  0  0  0
  143.5158   78.6454  222.8897 H   0  0  0  0  0  0  0  0  0  0  0  0
  144.2401   80.9349  223.4126 H   0  0  0  0  0  0  0  0  0  0  0  0
  142.4918   82.6332  224.0037 H   0  0  0  0  0  0  0  0  0  0  0  0
  140.0930   81.9862  224.0470 H   0  0  0  0  0  0  0  0  0  0  0  0
  139.4044   79.6543  223.5142 H   0  0  0  0  0  0  0  0  0  0  0  0
  138.5715   68.6717  223.0076 H   0  0  0  0  0  0  0  0  0  0  0  0
  138.8988   67.2372  224.9933 H   0  0  0  0  0  0  0  0  0  0  0  0
  139.6847   67.0039  227.2158 H   0  0  0  0  0  0  0  0  0  0  0  0
  140.7622   67.9792  229.2302 H   0  0  0  0  0  0  0  0  0  0  0  0
  141.4948   70.3535  229.2393 H   0  0  0  0  0  0  0  0  0  0  0  0
  141.1521   71.7845  227.2077 H   0  0  0  0  0  0  0  0  0  0  0  0
  1  2  2  0
  2  3  1  0
  3  4  1  0
  4  5  1  0
  5  6  2  0
  5  7  1  0
  7  8  1  0
  8  9  1  0
  9 10  1  0
  9 11  1  0
 11 12  1  0
 12 13  1  0
 13 14  1  0
 14 15  1  0
 15 16  2  0
 16 17  1  0
 17 18  2  0
 18 19  1  0
 19 20  2  0
  2 21  1  0
 21 22  2  0
 22 23  1  0
 23 24  2  0
 24 25  1  0
 25 26  2  0
 26 27  1  0
 27 28  2  0
 28 29  1  0
 29 30  2  0
 12  7  1  0
 20 15  1  0
 30 21  1  0
 29 24  1  0
  3 31  1  0
  4 32  1  0
  4 33  1  0
  8 34  1  0
  8 35  1  0
  9 36  1  1
 10 37  1  0
 11 38  1  0
 11 39  1  0
 12 40  1  6
 13 41  1  0
 13 42  1  0
 14 43  1  0
 14 44  1  0
 16 45  1  0
 17 46  1  0
 18 47  1  0
 19 48  1  0
 20 49  1  0
 22 50  1  0
 23 51  1  0
 25 52  1  0
 26 53  1  0
 27 54  1  0
 28 55  1  0
M  END
>  <smiles>  (19) 
O=C(NCC(=O)N1C[C@H](O)C[C@H]1CCc1ccccc1)c1ccc2ccccc2n1

>  <score_type>  (19) 
oracle

>  <origin>  (19) 
autodockgpu

>  <m_score__min__energy>  (19) 
-9.2799999999999994

>  <m_primary>  (19) 
energy

>  <rmsd>  (19) 
2.462391198762746

>  <m_score__min__rmsd>  (19) 
2.462391198762746

>  <meeko>  (19) 
{"free_energy": -8.42, "intermolecular_energy": -10.8, "internal_energy": -1.51, "cluster_size": 4, "cluster_id": 3, "rank_in_cluster": 3}

>  <energy>  (19) 
-8.49

>  <cluster_rmsd>  (19) 
1.78

>  <cluster>  (19) 
1

$$$$

     RDKit          3D

 55 58  0  0  0  0  0  0  0  0999 V2000
  138.8800   75.6390  221.1520 O   0  0  0  0  0  0  0  0  0  0  0  0
  140.0540   76.0220  221.4820 C   0  0  0  0  0  0  0  0  0  0  0  0
  141.1940   75.1730  221.2600 N   0  0  0  0  0  0  0  0  0  0  0  0
  141.0800   73.8990  220.6710 C   0  0  0  0  0  0  0  0  0  0  0  0
  142.0020   72.8540  221.0530 C   0  0  0  0  0  0  0  0  0  0  0  0
  141.4800   71.9340  221.8150 O   0  0  0  0  0  0  0  0  0  0  0  0
  143.3790   72.6920  220.7250 N   0  0  0  0  0  0  0  0  0  0  0  0
  144.0340   71.4720  220.2640 C   0  0  0  0  0  0  0  0  0  0  0  0
  145.0980   72.0790  219.3270 C   0  0  2  0  0  0  0  0  0  0  0  0
  146.0770   71.1600  219.0000 O   0  0  0  0  0  0  0  0  0  0  0  0
  145.6040   73.1720  220.2420 C   0  0  0  0  0  0  0  0  0  0  0  0
  144.3530   73.7690  220.8490 C   0  0  1  0  0  0  0  0  0  0  0  0
  143.9570   75.0520  220.2240 C   0  0  0  0  0  0  0  0  0  0  0  0
  143.6760   75.0070  218.7500 C   0  0  0  0  0  0  0  0  0  0  0  0
  143.1330   76.3720  218.4030 C   0  0  0  0  0  0  0  0  0  0  0  0
  142.6590   77.2290  219.3690 C   0  0  0  0  0  0  0  0  0  0  0  0
  142.1590   78.4730  219.1010 C   0  0  0  0  0  0  0  0  0  0  0  0
  142.1360   78.8800  217.7740 C   0  0  0  0  0  0  0  0  0  0  0  0
  142.6100   78.0360  216.7710 C   0  0  0  0  0  0  0  0  0  0  0  0
  143.1090   76.7790  217.0790 C   0  0  0  0  0  0  0  0  0  0  0  0
  140.2410   77.3550  222.1020 C   0  0  0  0  0  0  0  0  0  0  0  0
  139.1210   78.0700  222.4720 C   0  0  0  0  0  0  0  0  0  0  0  0
  139.2100   79.3070  223.0500 C   0  0  0  0  0  0  0  0  0  0  0  0
  140.4730   79.8310  223.2550 C   0  0  0  0  0  0  0  0  0  0  0  0
  140.5810   81.0690  223.8320 C   0  0  0  0  0  0  0  0  0  0  0  0
  141.8370   81.6000  224.0400 C   0  0  0  0  0  0  0  0  0  0  0  0
  142.9780   80.8910  223.6710 C   0  0  0  0  0  0  0  0  0  0  0  0
  142.8610   79.6260  223.0820 C   0  0  0  0  0  0  0  0  0  0  0  0
  141.5980   79.1000  222.8760 C   0  0  0  0  0  0  0  0  0  0  0  0
  141.4670   77.8720  222.3040 N   0  0  0  0  0  0  0  0  0  0  0  0
  142.1170   75.5980  221.5800 H   0  0  0  0  0  0  0  0  0  0  0  0
  140.0681   73.5314  220.8968 H   0  0  0  0  0  0  0  0  0  0  0  0
  141.3194   74.0810  219.6129 H   0  0  0  0  0  0  0  0  0  0  0  0
  144.4914   70.9149  221.0949 H   0  0  0  0  0  0  0  0  0  0  0  0
  143.3658   70.7365  219.7923 H   0  0  0  0  0  0  0  0  0  0  0  0
  144.7420   72.4178  218.3429 H   0  0  0  0  0  0  0  0  0  0  0  0
  146.4050   70.7850  219.8780 H   0  0  0  0  0  0  0  0  0  0  0  0
  146.2541   72.7537  221.0245 H   0  0  0  0  0  0  0  0  0  0  0  0
  146.2063   73.9202  219.7059 H   0  0  0  0  0  0  0  0  0  0  0  0
  144.4788   74.0775  221.8973 H   0  0  0  0  0  0  0  0  0  0  0  0
  143.0463   75.4057  220.7296 H   0  0  0  0  0  0  0  0  0  0  0  0
  144.8242   75.7186  220.3403 H   0  0  0  0  0  0  0  0  0  0  0  0
  144.6001   74.8063  218.1881 H   0  0  0  0  0  0  0  0  0  0  0  0
  142.9658   74.2071  218.4934 H   0  0  0  0  0  0  0  0  0  0  0  0
  142.6836   76.8944  220.4166 H   0  0  0  0  0  0  0  0  0  0  0  0
  141.7894   79.1258  219.9055 H   0  0  0  0  0  0  0  0  0  0  0  0
  141.7419   79.8732  217.5128 H   0  0  0  0  0  0  0  0  0  0  0  0
  142.5881   78.3706  215.7234 H   0  0  0  0  0  0  0  0  0  0  0  0
  143.4800   76.1154  216.2840 H   0  0  0  0  0  0  0  0  0  0  0  0
  138.1269   77.6328  222.2972 H   0  0  0  0  0  0  0  0  0  0  0  0
  138.3081   79.8652  223.3415 H   0  0  0  0  0  0  0  0  0  0  0  0
  139.6812   81.6301  224.1245 H   0  0  0  0  0  0  0  0  0  0  0  0
  141.9387   82.5932  224.5018 H   0  0  0  0  0  0  0  0  0  0  0  0
  143.9736   81.3261  223.8428 H   0  0  0  0  0  0  0  0  0  0  0  0
  143.7575   79.0604  222.7882 H   0  0  0  0  0  0  0  0  0  0  0  0
  1  2  2  0
  2  3  1  0
  3  4  1  0
  4  5  1  0
  5  6  2  0
  5  7  1  0
  7  8  1  0
  8  9  1  0
  9 10  1  0
  9 11  1  0
 11 12  1  0
 12 13  1  0
 13 14  1  0
 14 15  1  0
 15 16  2  0
 16 17  1  0
 17 18  2  0
 18 19  1  0
 19 20  2  0
  2 21  1  0
 21 22  2  0
 22 23  1  0
 23 24  2  0
 24 25  1  0
 25 26  2  0
 26 27  1  0
 27 28  2  0
 28 29  1  0
 29 30  2  0
 12  7  1  0
 20 15  1  0
 30 21  1  0
 29 24  1  0
  3 31  1  0
  4 32  1  0
  4 33  1  0
  8 34  1  0
  8 35  1  0
  9 36  1  6
 10 37  1  0
 11 38  1  0
 11 39  1  0
 12 40  1  1
 13 41  1  0
 13 42  1  0
 14 43  1  0
 14 44  1  0
 16 45  1  0
 17 46  1  0
 18 47  1  0
 19 48  1  0
 20 49  1  0
 22 50  1  0
 23 51  1  0
 25 52  1  0
 26 53  1  0
 27 54  1  0
 28 55  1  0
M  END
>  <smiles>  (20) 
O=C(NCC(=O)N1C[C@H](O)C[C@H]1CCc1ccccc1)c1ccc2ccccc2n1

>  <score_type>  (20) 
oracle

>  <origin>  (20) 
autodockgpu

>  <m_score__min__energy>  (20) 
-9.2799999999999994

>  <m_primary>  (20) 
energy

>  <rmsd>  (20) 
7.629788242876706

>  <m_score__min__rmsd>  (20) 
7.629788242876706

>  <meeko>  (20) 
{"free_energy": -7.55, "intermolecular_energy": -9.94, "internal_energy": -2.34, "cluster_size": 7, "cluster_id": 8, "rank_in_cluster": 2}

>  <energy>  (20) 
-8.48

>  <cluster_rmsd>  (20) 
1.21

>  <cluster>  (20) 
1

$$$$

     RDKit          3D

 55 58  0  0  0  0  0  0  0  0999 V2000
  139.6860   71.3770  221.0370 O   0  0  0  0  0  0  0  0  0  0  0  0
  140.2290   71.9500  222.0430 C   0  0  0  0  0  0  0  0  0  0  0  0
  140.9140   73.2060  221.8930 N   0  0  0  0  0  0  0  0  0  0  0  0
  141.0180   73.8630  220.6520 C   0  0  0  0  0  0  0  0  0  0  0  0
  142.2930   74.3980  220.2360 C   0  0  0  0  0  0  0  0  0  0  0  0
  143.3100   73.6330  220.5170 O   0  0  0  0  0  0  0  0  0  0  0  0
  142.5930   75.6250  219.5760 N   0  0  0  0  0  0  0  0  0  0  0  0
  143.3490   75.7950  218.3390 C   0  0  0  0  0  0  0  0  0  0  0  0
  142.6210   77.0200  217.7480 C   0  0  2  0  0  0  0  0  0  0  0  0
  143.3430   77.5990  216.7220 O   0  0  0  0  0  0  0  0  0  0  0  0
  142.5820   77.8780  218.9940 C   0  0  0  0  0  0  0  0  0  0  0  0
  142.1910   76.9230  220.1010 C   0  0  1  0  0  0  0  0  0  0  0  0
  140.7640   77.0320  220.4870 C   0  0  0  0  0  0  0  0  0  0  0  0
  140.2360   78.4250  220.6680 C   0  0  0  0  0  0  0  0  0  0  0  0
  141.0590   79.0250  221.7820 C   0  0  0  0  0  0  0  0  0  0  0  0
  141.0880   78.4680  223.0390 C   0  0  0  0  0  0  0  0  0  0  0  0
  141.8180   78.9770  224.0780 C   0  0  0  0  0  0  0  0  0  0  0  0
  142.5680   80.1200  223.8320 C   0  0  0  0  0  0  0  0  0  0  0  0
  142.5600   80.7080  222.5680 C   0  0  0  0  0  0  0  0  0  0  0  0
  141.8060   80.1660  221.5380 C   0  0  0  0  0  0  0  0  0  0  0  0
  140.1500   71.3110  223.3780 C   0  0  0  0  0  0  0  0  0  0  0  0
  139.4950   70.1020  223.4900 C   0  0  0  0  0  0  0  0  0  0  0  0
  139.3800   69.4480  224.6860 C   0  0  0  0  0  0  0  0  0  0  0  0
  139.9450   70.0440  225.8000 C   0  0  0  0  0  0  0  0  0  0  0  0
  139.8390   69.4040  227.0070 C   0  0  0  0  0  0  0  0  0  0  0  0
  140.4000   69.9890  228.1230 C   0  0  0  0  0  0  0  0  0  0  0  0
  141.0640   71.2100  228.0270 C   0  0  0  0  0  0  0  0  0  0  0  0
  141.1700   71.8580  226.7900 C   0  0  0  0  0  0  0  0  0  0  0  0
  140.6040   71.2650  225.6750 C   0  0  0  0  0  0  0  0  0  0  0  0
  140.6970   71.8830  224.4660 N   0  0  0  0  0  0  0  0  0  0  0  0
  141.3280   73.5820  222.7990 H   0  0  0  0  0  0  0  0  0  0  0  0
  140.7064   73.1426  219.8813 H   0  0  0  0  0  0  0  0  0  0  0  0
  140.3913   74.7580  220.7799 H   0  0  0  0  0  0  0  0  0  0  0  0
  144.4106   76.0060  218.5349 H   0  0  0  0  0  0  0  0  0  0  0  0
  143.3741   74.9105  217.6855 H   0  0  0  0  0  0  0  0  0  0  0  0
  141.6444   76.8265  217.2803 H   0  0  0  0  0  0  0  0  0  0  0  0
  143.6800   78.4790  217.0880 H   0  0  0  0  0  0  0  0  0  0  0  0
  143.5696   78.3198  219.1927 H   0  0  0  0  0  0  0  0  0  0  0  0
  141.8794   78.7191  218.9003 H   0  0  0  0  0  0  0  0  0  0  0  0
  142.6851   77.1381  221.0600 H   0  0  0  0  0  0  0  0  0  0  0  0
  140.1653   76.5443  219.7036 H   0  0  0  0  0  0  0  0  0  0  0  0
  140.6868   76.5549  221.4751 H   0  0  0  0  0  0  0  0  0  0  0  0
  140.3594   79.0065  219.7424 H   0  0  0  0  0  0  0  0  0  0  0  0
  139.1621   78.4273  220.9063 H   0  0  0  0  0  0  0  0  0  0  0  0
  140.4905   77.5621  223.2192 H   0  0  0  0  0  0  0  0  0  0  0  0
  141.8113   78.4999  225.0691 H   0  0  0  0  0  0  0  0  0  0  0  0
  143.1710   80.5632  224.6382 H   0  0  0  0  0  0  0  0  0  0  0  0
  143.1588   81.6125  222.3855 H   0  0  0  0  0  0  0  0  0  0  0  0
  141.8011   80.6347  220.5428 H   0  0  0  0  0  0  0  0  0  0  0  0
  139.0518   69.6502  222.5903 H   0  0  0  0  0  0  0  0  0  0  0  0
  138.8572   68.4830  224.7597 H   0  0  0  0  0  0  0  0  0  0  0  0
  139.3153   68.4398  227.0846 H   0  0  0  0  0  0  0  0  0  0  0  0
  140.3224   69.4865  229.0985 H   0  0  0  0  0  0  0  0  0  0  0  0
  141.5061   71.6662  228.9250 H   0  0  0  0  0  0  0  0  0  0  0  0
  141.6940   72.8215  226.7061 H   0  0  0  0  0  0  0  0  0  0  0  0
  1  2  2  0
  2  3  1  0
  3  4  1  0
  4  5  1  0
  5  6  2  0
  5  7  1  0
  7  8  1  0
  8  9  1  0
  9 10  1  0
  9 11  1  0
 11 12  1  0
 12 13  1  0
 13 14  1  0
 14 15  1  0
 15 16  2  0
 16 17  1  0
 17 18  2  0
 18 19  1  0
 19 20  2  0
  2 21  1  0
 21 22  2  0
 22 23  1  0
 23 24  2  0
 24 25  1  0
 25 26  2  0
 26 27  1  0
 27 28  2  0
 28 29  1  0
 29 30  2  0
 12  7  1  0
 20 15  1  0
 30 21  1  0
 29 24  1  0
  3 31  1  0
  4 32  1  0
  4 33  1  0
  8 34  1  0
  8 35  1  0
  9 36  1  6
 10 37  1  0
 11 38  1  0
 11 39  1  0
 12 40  1  1
 13 41  1  0
 13 42  1  0
 14 43  1  0
 14 44  1  0
 16 45  1  0
 17 46  1  0
 18 47  1  0
 19 48  1  0
 20 49  1  0
 22 50  1  0
 23 51  1  0
 25 52  1  0
 26 53  1  0
 27 54  1  0
 28 55  1  0
M  END
>  <smiles>  (21) 
O=C(NCC(=O)N1C[C@H](O)C[C@H]1CCc1ccccc1)c1ccc2ccccc2n1

>  <score_type>  (21) 
oracle

>  <origin>  (21) 
autodockgpu

>  <m_score__min__energy>  (21) 
-9.2799999999999994

>  <m_primary>  (21) 
energy

>  <rmsd>  (21) 
2.634675956554838

>  <m_score__min__rmsd>  (21) 
2.634675956554838

>  <meeko>  (21) 
{"free_energy": -8.54, "intermolecular_energy": -10.92, "internal_energy": -1.63, "cluster_size": 24, "cluster_id": 1, "rank_in_cluster": 18}

>  <energy>  (21) 
-8.43

>  <cluster_rmsd>  (21) 
1.3

>  <cluster>  (21) 
1

$$$$

     RDKit          3D

 55 58  0  0  0  0  0  0  0  0999 V2000
  139.8750   71.2860  220.8770 O   0  0  0  0  0  0  0  0  0  0  0  0
  140.3640   71.8890  221.8930 C   0  0  0  0  0  0  0  0  0  0  0  0
  141.0940   73.1190  221.7370 N   0  0  0  0  0  0  0  0  0  0  0  0
  141.3010   73.7170  220.4790 C   0  0  0  0  0  0  0  0  0  0  0  0
  142.4890   74.5070  220.2550 C   0  0  0  0  0  0  0  0  0  0  0  0
  143.5700   74.0090  220.7860 O   0  0  0  0  0  0  0  0  0  0  0  0
  142.6440   75.7350  219.5490 N   0  0  0  0  0  0  0  0  0  0  0  0
  143.2580   75.9240  218.2380 C   0  0  0  0  0  0  0  0  0  0  0  0
  142.4000   77.0910  217.7090 C   0  0  2  0  0  0  0  0  0  0  0  0
  142.9770   77.6910  216.6050 O   0  0  0  0  0  0  0  0  0  0  0  0
  142.4370   77.9720  218.9380 C   0  0  0  0  0  0  0  0  0  0  0  0
  142.2200   77.0190  220.0940 C   0  0  1  0  0  0  0  0  0  0  0  0
  140.8370   77.0520  220.6240 C   0  0  0  0  0  0  0  0  0  0  0  0
  140.2250   78.4130  220.7840 C   0  0  0  0  0  0  0  0  0  0  0  0
  141.0050   79.0760  221.8930 C   0  0  0  0  0  0  0  0  0  0  0  0
  141.1200   78.5020  223.1390 C   0  0  0  0  0  0  0  0  0  0  0  0
  141.8160   79.0660  224.1720 C   0  0  0  0  0  0  0  0  0  0  0  0
  142.4360   80.2860  223.9350 C   0  0  0  0  0  0  0  0  0  0  0  0
  142.3390   80.8920  222.6830 C   0  0  0  0  0  0  0  0  0  0  0  0
  141.6240   80.2920  221.6580 C   0  0  0  0  0  0  0  0  0  0  0  0
  140.1760   71.3130  223.2460 C   0  0  0  0  0  0  0  0  0  0  0  0
  139.4210   70.1660  223.3720 C   0  0  0  0  0  0  0  0  0  0  0  0
  139.2010   69.5730  224.5850 C   0  0  0  0  0  0  0  0  0  0  0  0
  139.7660   70.1650  225.7000 C   0  0  0  0  0  0  0  0  0  0  0  0
  139.5560   69.5840  226.9240 C   0  0  0  0  0  0  0  0  0  0  0  0
  140.1150   70.1680  228.0420 C   0  0  0  0  0  0  0  0  0  0  0  0
  140.8800   71.3260  227.9320 C   0  0  0  0  0  0  0  0  0  0  0  0
  141.0910   71.9140  226.6790 C   0  0  0  0  0  0  0  0  0  0  0  0
  140.5270   71.3230  225.5610 C   0  0  0  0  0  0  0  0  0  0  0  0
  140.7220   71.8830  224.3360 N   0  0  0  0  0  0  0  0  0  0  0  0
  141.4560   73.5250  222.6530 H   0  0  0  0  0  0  0  0  0  0  0  0
  141.3115   72.9054  219.7366 H   0  0  0  0  0  0  0  0  0  0  0  0
  140.4846   74.4503  220.4036 H   0  0  0  0  0  0  0  0  0  0  0  0
  144.3193   76.2015  218.3200 H   0  0  0  0  0  0  0  0  0  0  0  0
  143.2704   75.0295  217.5979 H   0  0  0  0  0  0  0  0  0  0  0  0
  141.3940   76.8294  217.3491 H   0  0  0  0  0  0  0  0  0  0  0  0
  143.4810   78.4900  216.9600 H   0  0  0  0  0  0  0  0  0  0  0  0
  143.4111   78.4752  219.0265 H   0  0  0  0  0  0  0  0  0  0  0  0
  141.6792   78.7686  218.9047 H   0  0  0  0  0  0  0  0  0  0  0  0
  142.7959   77.2830  220.9932 H   0  0  0  0  0  0  0  0  0  0  0  0
  140.1998   76.4753  219.9374 H   0  0  0  0  0  0  0  0  0  0  0  0
  140.8991   76.6340  221.6396 H   0  0  0  0  0  0  0  0  0  0  0  0
  140.3176   78.9886  219.8512 H   0  0  0  0  0  0  0  0  0  0  0  0
  139.1518   78.3537  221.0179 H   0  0  0  0  0  0  0  0  0  0  0  0
  140.6243   77.5356  223.3133 H   0  0  0  0  0  0  0  0  0  0  0  0
  141.8823   78.5725  225.1529 H   0  0  0  0  0  0  0  0  0  0  0  0
  143.0058   80.7761  224.7382 H   0  0  0  0  0  0  0  0  0  0  0  0
  142.8357   81.8575  222.5065 H   0  0  0  0  0  0  0  0  0  0  0  0
  141.5495   80.7749  220.6725 H   0  0  0  0  0  0  0  0  0  0  0  0
  138.9825   69.7143  222.4700 H   0  0  0  0  0  0  0  0  0  0  0  0
  138.5964   68.6581  224.6705 H   0  0  0  0  0  0  0  0  0  0  0  0
  138.9526   68.6686  227.0130 H   0  0  0  0  0  0  0  0  0  0  0  0
  139.9545   69.7138  229.0309 H   0  0  0  0  0  0  0  0  0  0  0  0
  141.3199   71.7803  228.8321 H   0  0  0  0  0  0  0  0  0  0  0  0
  141.6940   72.8291  226.5844 H   0  0  0  0  0  0  0  0  0  0  0  0
  1  2  2  0
  2  3  1  0
  3  4  1  0
  4  5  1  0
  5  6  2  0
  5  7  1  0
  7  8  1  0
  8  9  1  0
  9 10  1  0
  9 11  1  0
 11 12  1  0
 12 13  1  0
 13 14  1  0
 14 15  1  0
 15 16  2  0
 16 17  1  0
 17 18  2  0
 18 19  1  0
 19 20  2  0
  2 21  1  0
 21 22  2  0
 22 23  1  0
 23 24  2  0
 24 25  1  0
 25 26  2  0
 26 27  1  0
 27 28  2  0
 28 29  1  0
 29 30  2  0
 12  7  1  0
 20 15  1  0
 30 21  1  0
 29 24  1  0
  3 31  1  0
  4 32  1  0
  4 33  1  0
  8 34  1  0
  8 35  1  0
  9 36  1  6
 10 37  1  0
 11 38  1  0
 11 39  1  0
 12 40  1  1
 13 41  1  0
 13 42  1  0
 14 43  1  0
 14 44  1  0
 16 45  1  0
 17 46  1  0
 18 47  1  0
 19 48  1  0
 20 49  1  0
 22 50  1  0
 23 51  1  0
 25 52  1  0
 26 53  1  0
 27 54  1  0
 28 55  1  0
M  END
>  <smiles>  (22) 
O=C(NCC(=O)N1C[C@H](O)C[C@H]1CCc1ccccc1)c1ccc2ccccc2n1

>  <score_type>  (22) 
oracle

>  <origin>  (22) 
autodockgpu

>  <m_score__min__energy>  (22) 
-9.2799999999999994

>  <m_primary>  (22) 
energy

>  <rmsd>  (22) 
2.7132547103512765

>  <m_score__min__rmsd>  (22) 
2.7132547103512765

>  <meeko>  (22) 
{"free_energy": -8.43, "intermolecular_energy": -10.82, "internal_energy": -1.68, "cluster_size": 24, "cluster_id": 1, "rank_in_cluster": 21}

>  <energy>  (22) 
-8.43

>  <cluster_rmsd>  (22) 
1.88

>  <cluster>  (22) 
1

$$$$

     RDKit          3D

 55 58  0  0  0  0  0  0  0  0999 V2000
  140.1990   71.1270  221.2490 O   0  0  0  0  0  0  0  0  0  0  0  0
  140.0110   71.8410  222.2920 C   0  0  0  0  0  0  0  0  0  0  0  0
  139.7610   73.2540  222.1810 N   0  0  0  0  0  0  0  0  0  0  0  0
  139.7030   73.9120  220.9380 C   0  0  0  0  0  0  0  0  0  0  0  0
  140.6990   73.6220  219.9340 C   0  0  0  0  0  0  0  0  0  0  0  0
  140.2210   73.0820  218.8480 O   0  0  0  0  0  0  0  0  0  0  0  0
  142.1080   73.8350  219.9620 N   0  0  0  0  0  0  0  0  0  0  0  0
  143.1430   72.9270  219.4770 C   0  0  0  0  0  0  0  0  0  0  0  0
  144.1870   73.9520  218.9880 C   0  0  2  0  0  0  0  0  0  0  0  0
  145.4200   73.3640  218.7710 O   0  0  0  0  0  0  0  0  0  0  0  0
  144.1800   74.8700  220.1900 C   0  0  0  0  0  0  0  0  0  0  0  0
  142.7160   75.0270  220.5390 C   0  0  1  0  0  0  0  0  0  0  0  0
  142.1420   76.3120  220.0780 C   0  0  0  0  0  0  0  0  0  0  0  0
  140.9260   76.7930  220.8160 C   0  0  0  0  0  0  0  0  0  0  0  0
  141.4040   77.9430  221.6700 C   0  0  0  0  0  0  0  0  0  0  0  0
  141.8580   79.1160  221.1140 C   0  0  0  0  0  0  0  0  0  0  0  0
  142.3000   80.1820  221.8470 C   0  0  0  0  0  0  0  0  0  0  0  0
  142.2820   80.0580  223.2300 C   0  0  0  0  0  0  0  0  0  0  0  0
  141.8270   78.8820  223.8250 C   0  0  0  0  0  0  0  0  0  0  0  0
  141.3870   77.8200  223.0500 C   0  0  0  0  0  0  0  0  0  0  0  0
  140.0540   71.2060  223.6310 C   0  0  0  0  0  0  0  0  0  0  0  0
  139.5840   69.9160  223.7600 C   0  0  0  0  0  0  0  0  0  0  0  0
  139.5900   69.2600  224.9610 C   0  0  0  0  0  0  0  0  0  0  0  0
  140.0880   69.9370  226.0600 C   0  0  0  0  0  0  0  0  0  0  0  0
  140.1010   69.2960  227.2710 C   0  0  0  0  0  0  0  0  0  0  0  0
  140.5940   69.9640  228.3730 C   0  0  0  0  0  0  0  0  0  0  0  0
  141.0720   71.2670  228.2580 C   0  0  0  0  0  0  0  0  0  0  0  0
  141.0570   71.9160  227.0180 C   0  0  0  0  0  0  0  0  0  0  0  0
  140.5600   71.2400  225.9170 C   0  0  0  0  0  0  0  0  0  0  0  0
  140.5360   71.8580  224.7050 N   0  0  0  0  0  0  0  0  0  0  0  0
  139.6240   73.7420  223.1180 H   0  0  0  0  0  0  0  0  0  0  0  0
  138.7241   73.6750  220.4957 H   0  0  0  0  0  0  0  0  0  0  0  0
  139.8922   74.9650  221.1936 H   0  0  0  0  0  0  0  0  0  0  0  0
  143.5400   72.2921  220.2828 H   0  0  0  0  0  0  0  0  0  0  0  0
  142.8089   72.2058  218.7166 H   0  0  0  0  0  0  0  0  0  0  0  0
  143.9751   74.4389  218.0247 H   0  0  0  0  0  0  0  0  0  0  0  0
  146.0660   74.1270  218.6310 H   0  0  0  0  0  0  0  0  0  0  0  0
  144.7329   74.4187  221.0270 H   0  0  0  0  0  0  0  0  0  0  0  0
  144.6660   75.8347  219.9821 H   0  0  0  0  0  0  0  0  0  0  0  0
  142.5283   75.0894  221.6211 H   0  0  0  0  0  0  0  0  0  0  0  0
  142.9210   77.0825  220.1750 H   0  0  0  0  0  0  0  0  0  0  0  0
  141.8102   76.1344  219.0444 H   0  0  0  0  0  0  0  0  0  0  0  0
  140.1558   77.1334  220.1082 H   0  0  0  0  0  0  0  0  0  0  0  0
  140.4726   75.9945  221.4217 H   0  0  0  0  0  0  0  0  0  0  0  0
  141.8660   79.2014  220.0173 H   0  0  0  0  0  0  0  0  0  0  0  0
  142.6560   81.1020  221.3603 H   0  0  0  0  0  0  0  0  0  0  0  0
  142.6283   80.8914  223.8590 H   0  0  0  0  0  0  0  0  0  0  0  0
  141.8170   78.7959  224.9216 H   0  0  0  0  0  0  0  0  0  0  0  0
  141.0297   76.8937  223.5236 H   0  0  0  0  0  0  0  0  0  0  0  0
  139.1927   69.3991  222.8713 H   0  0  0  0  0  0  0  0  0  0  0  0
  139.2122   68.2307  225.0495 H   0  0  0  0  0  0  0  0  0  0  0  0
  139.7248   68.2664  227.3630 H   0  0  0  0  0  0  0  0  0  0  0  0
  140.6096   69.4625  229.3519 H   0  0  0  0  0  0  0  0  0  0  0  0
  141.4626   71.7878  229.1446 H   0  0  0  0  0  0  0  0  0  0  0  0
  141.4335   72.9449  226.9201 H   0  0  0  0  0  0  0  0  0  0  0  0
  1  2  2  0
  2  3  1  0
  3  4  1  0
  4  5  1  0
  5  6  2  0
  5  7  1  0
  7  8  1  0
  8  9  1  0
  9 10  1  0
  9 11  1  0
 11 12  1  0
 12 13  1  0
 13 14  1  0
 14 15  1  0
 15 16  2  0
 16 17  1  0
 17 18  2  0
 18 19  1  0
 19 20  2  0
  2 21  1  0
 21 22  2  0
 22 23  1  0
 23 24  2  0
 24 25  1  0
 25 26  2  0
 26 27  1  0
 27 28  2  0
 28 29  1  0
 29 30  2  0
 12  7  1  0
 20 15  1  0
 30 21  1  0
 29 24  1  0
  3 31  1  0
  4 32  1  0
  4 33  1  0
  8 34  1  0
  8 35  1  0
  9 36  1  6
 10 37  1  0
 11 38  1  0
 11 39  1  0
 12 40  1  1
 13 41  1  0
 13 42  1  0
 14 43  1  0
 14 44  1  0
 16 45  1  0
 17 46  1  0
 18 47  1  0
 19 48  1  0
 20 49  1  0
 22 50  1  0
 23 51  1  0
 25 52  1  0
 26 53  1  0
 27 54  1  0
 28 55  1  0
M  END
>  <smiles>  (23) 
O=C(NCC(=O)N1C[C@H](O)C[C@H]1CCc1ccccc1)c1ccc2ccccc2n1

>  <score_type>  (23) 
oracle

>  <origin>  (23) 
autodockgpu

>  <m_score__min__energy>  (23) 
-9.2799999999999994

>  <m_primary>  (23) 
energy

>  <rmsd>  (23) 
2.4954955601147124

>  <m_score__min__rmsd>  (23) 
2.4954955601147124

>  <meeko>  (23) 
{"free_energy": -9.05, "intermolecular_energy": -11.44, "internal_energy": -1.52, "cluster_size": 24, "cluster_id": 1, "rank_in_cluster": 9}

>  <energy>  (23) 
-8.31

>  <cluster_rmsd>  (23) 
1.25

>  <cluster>  (23) 
1

$$$$

     RDKit          3D

 55 58  0  0  0  0  0  0  0  0999 V2000
  139.9120   70.9670  221.2990 O   0  0  0  0  0  0  0  0  0  0  0  0
  139.8350   71.6290  222.3910 C   0  0  0  0  0  0  0  0  0  0  0  0
  139.6600   73.0570  222.3750 N   0  0  0  0  0  0  0  0  0  0  0  0
  139.5590   73.7890  221.1760 C   0  0  0  0  0  0  0  0  0  0  0  0
  139.6290   75.2310  221.2160 C   0  0  0  0  0  0  0  0  0  0  0  0
  139.9840   75.7160  222.3730 O   0  0  0  0  0  0  0  0  0  0  0  0
  139.3650   76.1830  220.1900 N   0  0  0  0  0  0  0  0  0  0  0  0
  138.0660   76.7360  219.8170 C   0  0  0  0  0  0  0  0  0  0  0  0
  138.4930   78.1560  219.3930 C   0  0  2  0  0  0  0  0  0  0  0  0
  137.4970   78.8000  218.6840 O   0  0  0  0  0  0  0  0  0  0  0  0
  139.6790   77.7840  218.5300 C   0  0  0  0  0  0  0  0  0  0  0  0
  140.4060   76.7190  219.3220 C   0  0  1  0  0  0  0  0  0  0  0  0
  141.6070   77.2310  220.0230 C   0  0  0  0  0  0  0  0  0  0  0  0
  141.8150   78.7160  219.9720 C   0  0  0  0  0  0  0  0  0  0  0  0
  141.8590   79.1650  221.4120 C   0  0  0  0  0  0  0  0  0  0  0  0
  142.2170   80.4480  221.7590 C   0  0  0  0  0  0  0  0  0  0  0  0
  142.2710   80.8980  223.0490 C   0  0  0  0  0  0  0  0  0  0  0  0
  141.9410   79.9980  224.0540 C   0  0  0  0  0  0  0  0  0  0  0  0
  141.5740   78.6910  223.7350 C   0  0  0  0  0  0  0  0  0  0  0  0
  141.5310   78.2690  222.4160 C   0  0  0  0  0  0  0  0  0  0  0  0
  139.9290   70.9150  223.6860 C   0  0  0  0  0  0  0  0  0  0  0  0
  139.4940   69.6080  223.7480 C   0  0  0  0  0  0  0  0  0  0  0  0
  139.5480   68.8800  224.9060 C   0  0  0  0  0  0  0  0  0  0  0  0
  140.0570   69.5030  226.0320 C   0  0  0  0  0  0  0  0  0  0  0  0
  140.1180   68.7900  227.2010 C   0  0  0  0  0  0  0  0  0  0  0  0
  140.6240   69.4020  228.3280 C   0  0  0  0  0  0  0  0  0  0  0  0
  141.0660   70.7220  228.2820 C   0  0  0  0  0  0  0  0  0  0  0  0
  141.0020   71.4450  227.0850 C   0  0  0  0  0  0  0  0  0  0  0  0
  140.4930   70.8240  225.9570 C   0  0  0  0  0  0  0  0  0  0  0  0
  140.4230   71.5130  224.7860 N   0  0  0  0  0  0  0  0  0  0  0  0
  139.6140   73.4960  223.3430 H   0  0  0  0  0  0  0  0  0  0  0  0
  140.3750   73.4469  220.5224 H   0  0  0  0  0  0  0  0  0  0  0  0
  138.5319   73.5892  220.8366 H   0  0  0  0  0  0  0  0  0  0  0  0
  137.6096   76.1809  218.9842 H   0  0  0  0  0  0  0  0  0  0  0  0
  137.3015   76.6979  220.6070 H   0  0  0  0  0  0  0  0  0  0  0  0
  138.7087   78.8623  220.2082 H   0  0  0  0  0  0  0  0  0  0  0  0
  137.2570   79.6160  219.2280 H   0  0  0  0  0  0  0  0  0  0  0  0
  139.3446   77.3868  217.5603 H   0  0  0  0  0  0  0  0  0  0  0  0
  140.3205   78.6491  218.3060 H   0  0  0  0  0  0  0  0  0  0  0  0
  140.8492   75.9328  218.6931 H   0  0  0  0  0  0  0  0  0  0  0  0
  141.5300   76.9380  221.0805 H   0  0  0  0  0  0  0  0  0  0  0  0
  142.4674   76.7927  219.4961 H   0  0  0  0  0  0  0  0  0  0  0  0
  142.7618   78.9547  219.4655 H   0  0  0  0  0  0  0  0  0  0  0  0
  141.0157   79.2217  219.4104 H   0  0  0  0  0  0  0  0  0  0  0  0
  142.4742   81.1510  220.9530 H   0  0  0  0  0  0  0  0  0  0  0  0
  142.5643   81.9323  223.2817 H   0  0  0  0  0  0  0  0  0  0  0  0
  141.9692   80.3175  225.1062 H   0  0  0  0  0  0  0  0  0  0  0  0
  141.3157   77.9870  224.5398 H   0  0  0  0  0  0  0  0  0  0  0  0
  141.2405   77.2370  222.1697 H   0  0  0  0  0  0  0  0  0  0  0  0
  139.0915   69.1361  222.8395 H   0  0  0  0  0  0  0  0  0  0  0  0
  139.1993   67.8373  224.9403 H   0  0  0  0  0  0  0  0  0  0  0  0
  139.7692   67.7475  227.2393 H   0  0  0  0  0  0  0  0  0  0  0  0
  140.6792   68.8421  229.2732 H   0  0  0  0  0  0  0  0  0  0  0  0
  141.4667   71.1979  229.1892 H   0  0  0  0  0  0  0  0  0  0  0  0
  141.3498   72.4877  227.0414 H   0  0  0  0  0  0  0  0  0  0  0  0
  1  2  2  0
  2  3  1  0
  3  4  1  0
  4  5  1  0
  5  6  2  0
  5  7  1  0
  7  8  1  0
  8  9  1  0
  9 10  1  0
  9 11  1  0
 11 12  1  0
 12 13  1  0
 13 14  1  0
 14 15  1  0
 15 16  2  0
 16 17  1  0
 17 18  2  0
 18 19  1  0
 19 20  2  0
  2 21  1  0
 21 22  2  0
 22 23  1  0
 23 24  2  0
 24 25  1  0
 25 26  2  0
 26 27  1  0
 27 28  2  0
 28 29  1  0
 29 30  2  0
 12  7  1  0
 20 15  1  0
 30 21  1  0
 29 24  1  0
  3 31  1  0
  4 32  1  0
  4 33  1  0
  8 34  1  0
  8 35  1  0
  9 36  1  1
 10 37  1  0
 11 38  1  0
 11 39  1  0
 12 40  1  6
 13 41  1  0
 13 42  1  0
 14 43  1  0
 14 44  1  0
 16 45  1  0
 17 46  1  0
 18 47  1  0
 19 48  1  0
 20 49  1  0
 22 50  1  0
 23 51  1  0
 25 52  1  0
 26 53  1  0
 27 54  1  0
 28 55  1  0
M  END
>  <smiles>  (24) 
O=C(NCC(=O)N1C[C@H](O)C[C@H]1CCc1ccccc1)c1ccc2ccccc2n1

>  <score_type>  (24) 
oracle

>  <origin>  (24) 
autodockgpu

>  <m_score__min__energy>  (24) 
-9.2799999999999994

>  <m_primary>  (24) 
energy

>  <rmsd>  (24) 
2.0153896631808568

>  <m_score__min__rmsd>  (24) 
2.0153896631808568

>  <meeko>  (24) 
{"free_energy": -7.93, "intermolecular_energy": -10.32, "internal_energy": -1.94, "cluster_size": 4, "cluster_id": 3, "rank_in_cluster": 4}

>  <energy>  (24) 
-8.29

>  <cluster_rmsd>  (24) 
1.26

>  <cluster>  (24) 
1

$$$$

     RDKit          3D

 55 58  0  0  0  0  0  0  0  0999 V2000
  139.8530   70.7080  221.4420 O   0  0  0  0  0  0  0  0  0  0  0  0
  139.8770   71.2760  222.5880 C   0  0  0  0  0  0  0  0  0  0  0  0
  139.9190   72.7090  222.6990 N   0  0  0  0  0  0  0  0  0  0  0  0
  139.9310   73.5510  221.5700 C   0  0  0  0  0  0  0  0  0  0  0  0
  140.0920   74.9750  221.7470 C   0  0  0  0  0  0  0  0  0  0  0  0
  139.2390   75.5110  222.5730 O   0  0  0  0  0  0  0  0  0  0  0  0
  141.0340   75.8640  221.1520 N   0  0  0  0  0  0  0  0  0  0  0  0
  142.1070   75.5160  220.2250 C   0  0  0  0  0  0  0  0  0  0  0  0
  142.1340   76.7910  219.3590 C   0  0  2  0  0  0  0  0  0  0  0  0
  143.2840   76.8680  218.5960 O   0  0  0  0  0  0  0  0  0  0  0  0
  142.1000   77.8170  220.4710 C   0  0  0  0  0  0  0  0  0  0  0  0
  141.0640   77.2920  221.4410 C   0  0  1  0  0  0  0  0  0  0  0  0
  139.7580   77.9840  221.3290 C   0  0  0  0  0  0  0  0  0  0  0  0
  139.2890   78.7060  222.5580 C   0  0  0  0  0  0  0  0  0  0  0  0
  140.4350   79.6030  222.9590 C   0  0  0  0  0  0  0  0  0  0  0  0
  140.5620   80.8790  222.4600 C   0  0  0  0  0  0  0  0  0  0  0  0
  141.5830   81.7260  222.7950 C   0  0  0  0  0  0  0  0  0  0  0  0
  142.5350   81.2560  223.6900 C   0  0  0  0  0  0  0  0  0  0  0  0
  142.4340   79.9690  224.2140 C   0  0  0  0  0  0  0  0  0  0  0  0
  141.3860   79.1360  223.8510 C   0  0  0  0  0  0  0  0  0  0  0  0
  139.8610   70.4440  223.8150 C   0  0  0  0  0  0  0  0  0  0  0  0
  139.2310   69.2190  223.7700 C   0  0  0  0  0  0  0  0  0  0  0  0
  139.1730   68.3930  224.8600 C   0  0  0  0  0  0  0  0  0  0  0  0
  139.7730   68.8290  226.0280 C   0  0  0  0  0  0  0  0  0  0  0  0
  139.7250   68.0150  227.1290 C   0  0  0  0  0  0  0  0  0  0  0  0
  140.3200   68.4420  228.2990 C   0  0  0  0  0  0  0  0  0  0  0  0
  140.9600   69.6770  228.3610 C   0  0  0  0  0  0  0  0  0  0  0  0
  141.0060   70.5040  227.2310 C   0  0  0  0  0  0  0  0  0  0  0  0
  140.4070   70.0690  226.0620 C   0  0  0  0  0  0  0  0  0  0  0  0
  140.4410   70.8610  224.9560 N   0  0  0  0  0  0  0  0  0  0  0  0
  139.9400   73.0640  223.7020 H   0  0  0  0  0  0  0  0  0  0  0  0
  140.7574   73.2130  220.9275 H   0  0  0  0  0  0  0  0  0  0  0  0
  138.9129   73.4544  221.1648 H   0  0  0  0  0  0  0  0  0  0  0  0
  143.0620   75.3564  220.7469 H   0  0  0  0  0  0  0  0  0  0  0  0
  141.9536   74.5799  219.6680 H   0  0  0  0  0  0  0  0  0  0  0  0
  141.3355   76.8852  218.6083 H   0  0  0  0  0  0  0  0  0  0  0  0
  143.8960   77.5040  219.0870 H   0  0  0  0  0  0  0  0  0  0  0  0
  143.0834   77.8955  220.9576 H   0  0  0  0  0  0  0  0  0  0  0  0
  141.8551   78.8242  220.1028 H   0  0  0  0  0  0  0  0  0  0  0  0
  141.3140   77.4834  222.4950 H   0  0  0  0  0  0  0  0  0  0  0  0
  139.8357   78.7201  220.5153 H   0  0  0  0  0  0  0  0  0  0  0  0
  139.0167   77.1914  221.1494 H   0  0  0  0  0  0  0  0  0  0  0  0
  138.3928   79.3034  222.3347 H   0  0  0  0  0  0  0  0  0  0  0  0
  139.0156   78.0078  223.3628 H   0  0  0  0  0  0  0  0  0  0  0  0
  139.8003   81.2381  221.7524 H   0  0  0  0  0  0  0  0  0  0  0  0
  141.6472   82.7394  222.3720 H   0  0  0  0  0  0  0  0  0  0  0  0
  143.3734   81.9033  223.9869 H   0  0  0  0  0  0  0  0  0  0  0  0
  143.1938   79.6095  224.9235 H   0  0  0  0  0  0  0  0  0  0  0  0
  141.3113   78.1198  224.2654 H   0  0  0  0  0  0  0  0  0  0  0  0
  138.7606   68.8953  222.8298 H   0  0  0  0  0  0  0  0  0  0  0  0
  138.6674   67.4174  224.8091 H   0  0  0  0  0  0  0  0  0  0  0  0
  139.2212   67.0383  227.0814 H   0  0  0  0  0  0  0  0  0  0  0  0
  140.2882   67.8000  229.1916 H   0  0  0  0  0  0  0  0  0  0  0  0
  141.4308   70.0043  229.2997 H   0  0  0  0  0  0  0  0  0  0  0  0
  141.5091   71.4813  227.2724 H   0  0  0  0  0  0  0  0  0  0  0  0
  1  2  2  0
  2  3  1  0
  3  4  1  0
  4  5  1  0
  5  6  2  0
  5  7  1  0
  7  8  1  0
  8  9  1  0
  9 10  1  0
  9 11  1  0
 11 12  1  0
 12 13  1  0
 13 14  1  0
 14 15  1  0
 15 16  2  0
 16 17  1  0
 17 18  2  0
 18 19  1  0
 19 20  2  0
  2 21  1  0
 21 22  2  0
 22 23  1  0
 23 24  2  0
 24 25  1  0
 25 26  2  0
 26 27  1  0
 27 28  2  0
 28 29  1  0
 29 30  2  0
 12  7  1  0
 20 15  1  0
 30 21  1  0
 29 24  1  0
  3 31  1  0
  4 32  1  0
  4 33  1  0
  8 34  1  0
  8 35  1  0
  9 36  1  6
 10 37  1  0
 11 38  1  0
 11 39  1  0
 12 40  1  1
 13 41  1  0
 13 42  1  0
 14 43  1  0
 14 44  1  0
 16 45  1  0
 17 46  1  0
 18 47  1  0
 19 48  1  0
 20 49  1  0
 22 50  1  0
 23 51  1  0
 25 52  1  0
 26 53  1  0
 27 54  1  0
 28 55  1  0
M  END
>  <smiles>  (25) 
O=C(NCC(=O)N1C[C@H](O)C[C@H]1CCc1ccccc1)c1ccc2ccccc2n1

>  <score_type>  (25) 
oracle

>  <origin>  (25) 
autodockgpu

>  <m_score__min__energy>  (25) 
-9.2799999999999994

>  <m_primary>  (25) 
energy

>  <rmsd>  (25) 
2.6482760587954868

>  <m_score__min__rmsd>  (25) 
2.6482760587954868

>  <meeko>  (25) 
{"free_energy": -9.07, "intermolecular_energy": -11.46, "internal_energy": -1.49, "cluster_size": 24, "cluster_id": 1, "rank_in_cluster": 7}

>  <energy>  (25) 
-9.0

>  <cluster_rmsd>  (25) 
0.0

>  <cluster>  (25) 
2

$$$$

     RDKit          3D

 55 58  0  0  0  0  0  0  0  0999 V2000
  138.0590   75.7280  222.5070 O   0  0  0  0  0  0  0  0  0  0  0  0
  139.2830   76.0480  222.3220 C   0  0  0  0  0  0  0  0  0  0  0  0
  140.2130   75.1040  221.7600 N   0  0  0  0  0  0  0  0  0  0  0  0
  139.8290   73.8020  221.3850 C   0  0  0  0  0  0  0  0  0  0  0  0
  139.6150   72.8030  222.4050 C   0  0  0  0  0  0  0  0  0  0  0  0
  140.7040   72.4130  223.0070 O   0  0  0  0  0  0  0  0  0  0  0  0
  138.4040   72.1890  222.8370 N   0  0  0  0  0  0  0  0  0  0  0  0
  137.0500   72.5170  222.4030 C   0  0  0  0  0  0  0  0  0  0  0  0
  136.4010   71.1200  222.4760 C   0  0  2  0  0  0  0  0  0  0  0  0
  135.0220   71.1920  222.4250 O   0  0  0  0  0  0  0  0  0  0  0  0
  136.9150   70.7060  223.8370 C   0  0  0  0  0  0  0  0  0  0  0  0
  138.3670   71.1340  223.8410 C   0  0  1  0  0  0  0  0  0  0  0  0
  139.3050   70.0110  223.6080 C   0  0  0  0  0  0  0  0  0  0  0  0
  139.5600   69.1110  224.7820 C   0  0  0  0  0  0  0  0  0  0  0  0
  140.0280   70.0220  225.8920 C   0  0  0  0  0  0  0  0  0  0  0  0
  140.9250   71.0390  225.6610 C   0  0  0  0  0  0  0  0  0  0  0  0
  141.3760   71.8870  226.6340 C   0  0  0  0  0  0  0  0  0  0  0  0
  140.8910   71.6990  227.9220 C   0  0  0  0  0  0  0  0  0  0  0  0
  139.9800   70.6780  228.1870 C   0  0  0  0  0  0  0  0  0  0  0  0
  139.5440   69.8350  227.1760 C   0  0  0  0  0  0  0  0  0  0  0  0
  139.7480   77.4050  222.6910 C   0  0  0  0  0  0  0  0  0  0  0  0
  138.8040   78.3600  223.0070 C   0  0  0  0  0  0  0  0  0  0  0  0
  139.1520   79.6360  223.3580 C   0  0  0  0  0  0  0  0  0  0  0  0
  140.4990   79.9480  223.3880 C   0  0  0  0  0  0  0  0  0  0  0  0
  140.8670   81.2210  223.7380 C   0  0  0  0  0  0  0  0  0  0  0  0
  142.2080   81.5420  223.7700 C   0  0  0  0  0  0  0  0  0  0  0  0
  143.1740   80.5900  223.4540 C   0  0  0  0  0  0  0  0  0  0  0  0
  142.7920   79.2900  223.0980 C   0  0  0  0  0  0  0  0  0  0  0  0
  141.4450   78.9760  223.0670 C   0  0  0  0  0  0  0  0  0  0  0  0
  141.0570   77.7180  222.7230 N   0  0  0  0  0  0  0  0  0  0  0  0
  141.2030   75.4830  221.6580 H   0  0  0  0  0  0  0  0  0  0  0  0
  138.8866   73.8950  220.8253 H   0  0  0  0  0  0  0  0  0  0  0  0
  140.7016   73.4242  220.8320 H   0  0  0  0  0  0  0  0  0  0  0  0
  136.5637   73.2295  223.0855 H   0  0  0  0  0  0  0  0  0  0  0  0
  136.9840   73.0083  221.4210 H   0  0  0  0  0  0  0  0  0  0  0  0
  136.6403   70.4299  221.6535 H   0  0  0  0  0  0  0  0  0  0  0  0
  134.7380   70.5110  221.7360 H   0  0  0  0  0  0  0  0  0  0  0  0
  136.3569   71.2172  224.6352 H   0  0  0  0  0  0  0  0  0  0  0  0
  136.7967   69.6275  224.0181 H   0  0  0  0  0  0  0  0  0  0  0  0
  138.7135   71.4987  224.8192 H   0  0  0  0  0  0  0  0  0  0  0  0
  138.8959   69.3944  222.7941 H   0  0  0  0  0  0  0  0  0  0  0  0
  140.2739   70.4776  223.3766 H   0  0  0  0  0  0  0  0  0  0  0  0
  138.6366   68.5901  225.0753 H   0  0  0  0  0  0  0  0  0  0  0  0
  140.3041   68.3352  224.5485 H   0  0  0  0  0  0  0  0  0  0  0  0
  141.3003   71.1777  224.6364 H   0  0  0  0  0  0  0  0  0  0  0  0
  142.0953   72.6873  226.4057 H   0  0  0  0  0  0  0  0  0  0  0  0
  141.2272   72.3583  228.7358 H   0  0  0  0  0  0  0  0  0  0  0  0
  139.6022   70.5392  229.2107 H   0  0  0  0  0  0  0  0  0  0  0  0
  138.8251   69.0305  227.3905 H   0  0  0  0  0  0  0  0  0  0  0  0
  137.7388   78.0874  222.9759 H   0  0  0  0  0  0  0  0  0  0  0  0
  138.3877   80.3867  223.6074 H   0  0  0  0  0  0  0  0  0  0  0  0
  140.1056   81.9741  223.9892 H   0  0  0  0  0  0  0  0  0  0  0  0
  142.5176   82.5603  224.0479 H   0  0  0  0  0  0  0  0  0  0  0  0
  144.2400   80.8595  223.4840 H   0  0  0  0  0  0  0  0  0  0  0  0
  143.5494   78.5326  222.8477 H   0  0  0  0  0  0  0  0  0  0  0  0
  1  2  2  0
  2  3  1  0
  3  4  1  0
  4  5  1  0
  5  6  2  0
  5  7  1  0
  7  8  1  0
  8  9  1  0
  9 10  1  0
  9 11  1  0
 11 12  1  0
 12 13  1  0
 13 14  1  0
 14 15  1  0
 15 16  2  0
 16 17  1  0
 17 18  2  0
 18 19  1  0
 19 20  2  0
  2 21  1  0
 21 22  2  0
 22 23  1  0
 23 24  2  0
 24 25  1  0
 25 26  2  0
 26 27  1  0
 27 28  2  0
 28 29  1  0
 29 30  2  0
 12  7  1  0
 20 15  1  0
 30 21  1  0
 29 24  1  0
  3 31  1  0
  4 32  1  0
  4 33  1  0
  8 34  1  0
  8 35  1  0
  9 36  1  6
 10 37  1  0
 11 38  1  0
 11 39  1  0
 12 40  1  1
 13 41  1  0
 13 42  1  0
 14 43  1  0
 14 44  1  0
 16 45  1  0
 17 46  1  0
 18 47  1  0
 19 48  1  0
 20 49  1  0
 22 50  1  0
 23 51  1  0
 25 52  1  0
 26 53  1  0
 27 54  1  0
 28 55  1  0
M  END
>  <smiles>  (26) 
O=C(NCC(=O)N1C[C@H](O)C[C@H]1CCc1ccccc1)c1ccc2ccccc2n1

>  <score_type>  (26) 
oracle

>  <origin>  (26) 
autodockgpu

>  <m_score__min__energy>  (26) 
-9.2799999999999994

>  <m_primary>  (26) 
energy

>  <rmsd>  (26) 
8.486254341375076

>  <m_score__min__rmsd>  (26) 
8.486254341375076

>  <meeko>  (26) 
{"free_energy": -8.32, "intermolecular_energy": -10.7, "internal_energy": -1.78, "cluster_size": 7, "cluster_id": 4, "rank_in_cluster": 6}

>  <energy>  (26) 
-8.86

>  <cluster_rmsd>  (26) 
0.0

>  <cluster>  (26) 
3

$$$$

     RDKit          3D

 55 58  0  0  0  0  0  0  0  0999 V2000
  141.3390   71.7030  221.4580 O   0  0  0  0  0  0  0  0  0  0  0  0
  140.6340   72.2520  222.3720 C   0  0  0  0  0  0  0  0  0  0  0  0
  140.1700   73.6060  222.2300 N   0  0  0  0  0  0  0  0  0  0  0  0
  140.4580   74.3840  221.0920 C   0  0  0  0  0  0  0  0  0  0  0  0
  140.9710   75.7240  221.2590 C   0  0  0  0  0  0  0  0  0  0  0  0
  140.8100   76.2120  222.4570 O   0  0  0  0  0  0  0  0  0  0  0  0
  141.6140   76.5750  220.3150 N   0  0  0  0  0  0  0  0  0  0  0  0
  142.6350   76.1960  219.3420 C   0  0  0  0  0  0  0  0  0  0  0  0
  142.2750   77.1570  218.1910 C   0  0  2  0  0  0  0  0  0  0  0  0
  143.2900   77.2380  217.2550 O   0  0  0  0  0  0  0  0  0  0  0  0
  142.1210   78.4270  218.9990 C   0  0  0  0  0  0  0  0  0  0  0  0
  141.3420   78.0040  220.2250 C   0  0  1  0  0  0  0  0  0  0  0  0
  139.9080   78.3690  220.1580 C   0  0  0  0  0  0  0  0  0  0  0  0
  139.5000   79.5820  220.9420 C   0  0  0  0  0  0  0  0  0  0  0  0
  140.5910   79.7850  221.9650 C   0  0  0  0  0  0  0  0  0  0  0  0
  140.6420   79.0450  223.1240 C   0  0  0  0  0  0  0  0  0  0  0  0
  141.6100   79.1940  224.0780 C   0  0  0  0  0  0  0  0  0  0  0  0
  142.5910   80.1500  223.8480 C   0  0  0  0  0  0  0  0  0  0  0  0
  142.5680   80.9160  222.6830 C   0  0  0  0  0  0  0  0  0  0  0  0
  141.5700   80.7380  221.7380 C   0  0  0  0  0  0  0  0  0  0  0  0
  140.2920   71.4830  223.5930 C   0  0  0  0  0  0  0  0  0  0  0  0
  139.5540   70.3260  223.4540 C   0  0  0  0  0  0  0  0  0  0  0  0
  139.1990   69.5600  224.5310 C   0  0  0  0  0  0  0  0  0  0  0  0
  139.6050   69.9860  225.7830 C   0  0  0  0  0  0  0  0  0  0  0  0
  139.2570   69.2320  226.8740 C   0  0  0  0  0  0  0  0  0  0  0  0
  139.6570   69.6490  228.1260 C   0  0  0  0  0  0  0  0  0  0  0  0
  140.4020   70.8150  228.2830 C   0  0  0  0  0  0  0  0  0  0  0  0
  140.7550   71.5810  227.1650 C   0  0  0  0  0  0  0  0  0  0  0  0
  140.3490   71.1570  225.9110 C   0  0  0  0  0  0  0  0  0  0  0  0
  140.6820   71.8900  224.8140 N   0  0  0  0  0  0  0  0  0  0  0  0
  139.5950   73.9550  223.0560 H   0  0  0  0  0  0  0  0  0  0  0  0
  141.2021   73.8273  220.5035 H   0  0  0  0  0  0  0  0  0  0  0  0
  139.4725   74.5400  220.6289 H   0  0  0  0  0  0  0  0  0  0  0  0
  143.6505   76.3779  219.7236 H   0  0  0  0  0  0  0  0  0  0  0  0
  142.6445   75.1300  219.0707 H   0  0  0  0  0  0  0  0  0  0  0  0
  141.4018   76.8799  217.5820 H   0  0  0  0  0  0  0  0  0  0  0  0
  143.4970   78.2220  217.1620 H   0  0  0  0  0  0  0  0  0  0  0  0
  143.1048   78.8288  219.2830 H   0  0  0  0  0  0  0  0  0  0  0  0
  141.6129   79.2228  218.4346 H   0  0  0  0  0  0  0  0  0  0  0  0
  141.6498   78.5287  221.1415 H   0  0  0  0  0  0  0  0  0  0  0  0
  139.6559   78.5500  219.1027 H   0  0  0  0  0  0  0  0  0  0  0  0
  139.3662   77.5264  220.6125 H   0  0  0  0  0  0  0  0  0  0  0  0
  139.4235   80.4587  220.2821 H   0  0  0  0  0  0  0  0  0  0  0  0
  138.5156   79.4508  221.4150 H   0  0  0  0  0  0  0  0  0  0  0  0
  139.8594   78.2906  223.2926 H   0  0  0  0  0  0  0  0  0  0  0  0
  141.6118   78.5811  224.9914 H   0  0  0  0  0  0  0  0  0  0  0  0
  143.3899   80.3036  224.5884 H   0  0  0  0  0  0  0  0  0  0  0  0
  143.3506   81.6699  222.5122 H   0  0  0  0  0  0  0  0  0  0  0  0
  141.5557   81.3450  220.8207 H   0  0  0  0  0  0  0  0  0  0  0  0
  139.2416   70.0097  222.4478 H   0  0  0  0  0  0  0  0  0  0  0  0
  138.6117   68.6384  224.4057 H   0  0  0  0  0  0  0  0  0  0  0  0
  138.6689   68.3104  226.7526 H   0  0  0  0  0  0  0  0  0  0  0  0
  139.3847   69.0542  229.0103 H   0  0  0  0  0  0  0  0  0  0  0  0
  140.7141   71.1353  229.2880 H   0  0  0  0  0  0  0  0  0  0  0  0
  141.3441   72.5027  227.2810 H   0  0  0  0  0  0  0  0  0  0  0  0
  1  2  2  0
  2  3  1  0
  3  4  1  0
  4  5  1  0
  5  6  2  0
  5  7  1  0
  7  8  1  0
  8  9  1  0
  9 10  1  0
  9 11  1  0
 11 12  1  0
 12 13  1  0
 13 14  1  0
 14 15  1  0
 15 16  2  0
 16 17  1  0
 17 18  2  0
 18 19  1  0
 19 20  2  0
  2 21  1  0
 21 22  2  0
 22 23  1  0
 23 24  2  0
 24 25  1  0
 25 26  2  0
 26 27  1  0
 27 28  2  0
 28 29  1  0
 29 30  2  0
 12  7  1  0
 20 15  1  0
 30 21  1  0
 29 24  1  0
  3 31  1  0
  4 32  1  0
  4 33  1  0
  8 34  1  0
  8 35  1  0
  9 36  1  6
 10 37  1  0
 11 38  1  0
 11 39  1  0
 12 40  1  1
 13 41  1  0
 13 42  1  0
 14 43  1  0
 14 44  1  0
 16 45  1  0
 17 46  1  0
 18 47  1  0
 19 48  1  0
 20 49  1  0
 22 50  1  0
 23 51  1  0
 25 52  1  0
 26 53  1  0
 27 54  1  0
 28 55  1  0
M  END
>  <smiles>  (27) 
O=C(NCC(=O)N1C[C@H](O)C[C@H]1CCc1ccccc1)c1ccc2ccccc2n1

>  <score_type>  (27) 
oracle

>  <origin>  (27) 
autodockgpu

>  <m_score__min__energy>  (27) 
-9.2799999999999994

>  <m_primary>  (27) 
energy

>  <rmsd>  (27) 
2.6276177886925947

>  <m_score__min__rmsd>  (27) 
2.6276177886925947

>  <meeko>  (27) 
{"free_energy": -8.81, "intermolecular_energy": -11.2, "internal_energy": -1.64, "cluster_size": 24, "cluster_id": 1, "rank_in_cluster": 12}

>  <energy>  (27) 
-8.85

>  <cluster_rmsd>  (27) 
0.77

>  <cluster>  (27) 
3

$$$$

     RDKit          3D

 55 58  0  0  0  0  0  0  0  0999 V2000
  141.5210   72.1480  221.7500 O   0  0  0  0  0  0  0  0  0  0  0  0
  140.5690   72.4270  222.5560 C   0  0  0  0  0  0  0  0  0  0  0  0
  139.7480   73.5910  222.3520 N   0  0  0  0  0  0  0  0  0  0  0  0
  139.9420   74.4670  221.2660 C   0  0  0  0  0  0  0  0  0  0  0  0
  140.9790   75.4680  221.3390 C   0  0  0  0  0  0  0  0  0  0  0  0
  141.0250   76.1090  222.4740 O   0  0  0  0  0  0  0  0  0  0  0  0
  141.9420   75.8530  220.3610 N   0  0  0  0  0  0  0  0  0  0  0  0
  142.8420   74.9730  219.6220 C   0  0  0  0  0  0  0  0  0  0  0  0
  142.9170   75.7350  218.2830 C   0  0  2  0  0  0  0  0  0  0  0  0
  143.9660   75.2900  217.4990 O   0  0  0  0  0  0  0  0  0  0  0  0
  143.1450   77.1270  218.8290 C   0  0  0  0  0  0  0  0  0  0  0  0
  142.1800   77.2410  219.9900 C   0  0  1  0  0  0  0  0  0  0  0  0
  140.9640   78.0220  219.6600 C   0  0  0  0  0  0  0  0  0  0  0  0
  141.0140   79.4870  219.9860 C   0  0  0  0  0  0  0  0  0  0  0  0
  141.3980   79.5610  221.4440 C   0  0  0  0  0  0  0  0  0  0  0  0
  142.5570   80.1770  221.8560 C   0  0  0  0  0  0  0  0  0  0  0  0
  142.9440   80.2690  223.1640 C   0  0  0  0  0  0  0  0  0  0  0  0
  142.1080   79.7030  224.1180 C   0  0  0  0  0  0  0  0  0  0  0  0
  140.9270   79.0720  223.7330 C   0  0  0  0  0  0  0  0  0  0  0  0
  140.5660   78.9970  222.3970 C   0  0  0  0  0  0  0  0  0  0  0  0
  140.3100   71.5400  223.7160 C   0  0  0  0  0  0  0  0  0  0  0  0
  139.6310   70.3600  223.5010 C   0  0  0  0  0  0  0  0  0  0  0  0
  139.3530   69.4870  224.5180 C   0  0  0  0  0  0  0  0  0  0  0  0
  139.7790   69.8290  225.7890 C   0  0  0  0  0  0  0  0  0  0  0  0
  139.5100   68.9670  226.8210 C   0  0  0  0  0  0  0  0  0  0  0  0
  139.9300   69.2990  228.0920 C   0  0  0  0  0  0  0  0  0  0  0  0
  140.6160   70.4880  228.3260 C   0  0  0  0  0  0  0  0  0  0  0  0
  140.8890   71.3630  227.2680 C   0  0  0  0  0  0  0  0  0  0  0  0
  140.4640   71.0240  225.9950 C   0  0  0  0  0  0  0  0  0  0  0  0
  140.7200   71.8650  224.9550 N   0  0  0  0  0  0  0  0  0  0  0  0
  138.9910   73.7200  223.0900 H   0  0  0  0  0  0  0  0  0  0  0  0
  140.1601   73.8434  220.3865 H   0  0  0  0  0  0  0  0  0  0  0  0
  139.0139   75.0568  221.2399 H   0  0  0  0  0  0  0  0  0  0  0  0
  143.8274   74.8973  220.1049 H   0  0  0  0  0  0  0  0  0  0  0  0
  142.5086   73.9277  219.5435 H   0  0  0  0  0  0  0  0  0  0  0  0
  142.0493   75.6296  217.6152 H   0  0  0  0  0  0  0  0  0  0  0  0
  144.7860   75.7670  217.8430 H   0  0  0  0  0  0  0  0  0  0  0  0
  144.1831   77.2445  219.1732 H   0  0  0  0  0  0  0  0  0  0  0  0
  142.9807   77.9063  218.0702 H   0  0  0  0  0  0  0  0  0  0  0  0
  142.5790   77.8189  220.8366 H   0  0  0  0  0  0  0  0  0  0  0  0
  140.7838   77.9236  218.5793 H   0  0  0  0  0  0  0  0  0  0  0  0
  140.1640   77.6053  220.2895 H   0  0  0  0  0  0  0  0  0  0  0  0
  141.7661   79.9941  219.3638 H   0  0  0  0  0  0  0  0  0  0  0  0
  140.0513   79.9823  219.7911 H   0  0  0  0  0  0  0  0  0  0  0  0
  143.2094   80.6207  221.0895 H   0  0  0  0  0  0  0  0  0  0  0  0
  143.8801   80.7712  223.4495 H   0  0  0  0  0  0  0  0  0  0  0  0
  142.3797   79.7532  225.1827 H   0  0  0  0  0  0  0  0  0  0  0  0
  140.2734   78.6281  224.4984 H   0  0  0  0  0  0  0  0  0  0  0  0
  139.6329   78.4971  222.0980 H   0  0  0  0  0  0  0  0  0  0  0  0
  139.3024   70.1122  222.4809 H   0  0  0  0  0  0  0  0  0  0  0  0
  138.8109   68.5482  224.3316 H   0  0  0  0  0  0  0  0  0  0  0  0
  138.9686   68.0270  226.6383 H   0  0  0  0  0  0  0  0  0  0  0  0
  139.7209   68.6174  228.9297 H   0  0  0  0  0  0  0  0  0  0  0  0
  140.9443   70.7404  229.3451 H   0  0  0  0  0  0  0  0  0  0  0  0
  141.4317   72.3033  227.4451 H   0  0  0  0  0  0  0  0  0  0  0  0
  1  2  2  0
  2  3  1  0
  3  4  1  0
  4  5  1  0
  5  6  2  0
  5  7  1  0
  7  8  1  0
  8  9  1  0
  9 10  1  0
  9 11  1  0
 11 12  1  0
 12 13  1  0
 13 14  1  0
 14 15  1  0
 15 16  2  0
 16 17  1  0
 17 18  2  0
 18 19  1  0
 19 20  2  0
  2 21  1  0
 21 22  2  0
 22 23  1  0
 23 24  2  0
 24 25  1  0
 25 26  2  0
 26 27  1  0
 27 28  2  0
 28 29  1  0
 29 30  2  0
 12  7  1  0
 20 15  1  0
 30 21  1  0
 29 24  1  0
  3 31  1  0
  4 32  1  0
  4 33  1  0
  8 34  1  0
  8 35  1  0
  9 36  1  6
 10 37  1  0
 11 38  1  0
 11 39  1  0
 12 40  1  1
 13 41  1  0
 13 42  1  0
 14 43  1  0
 14 44  1  0
 16 45  1  0
 17 46  1  0
 18 47  1  0
 19 48  1  0
 20 49  1  0
 22 50  1  0
 23 51  1  0
 25 52  1  0
 26 53  1  0
 27 54  1  0
 28 55  1  0
M  END
>  <smiles>  (28) 
O=C(NCC(=O)N1C[C@H](O)C[C@H]1CCc1ccccc1)c1ccc2ccccc2n1

>  <score_type>  (28) 
oracle

>  <origin>  (28) 
autodockgpu

>  <m_score__min__energy>  (28) 
-9.2799999999999994

>  <m_primary>  (28) 
energy

>  <rmsd>  (28) 
2.4344285429988357

>  <m_score__min__rmsd>  (28) 
2.4344285429988357

>  <meeko>  (28) 
{"free_energy": -9.22, "intermolecular_energy": -11.61, "internal_energy": -1.62, "cluster_size": 24, "cluster_id": 1, "rank_in_cluster": 3}

>  <energy>  (28) 
-8.42

>  <cluster_rmsd>  (28) 
0.76

>  <cluster>  (28) 
3

$$$$

     RDKit          3D

 55 58  0  0  0  0  0  0  0  0999 V2000
  139.0520   73.3400  222.3410 O   0  0  0  0  0  0  0  0  0  0  0  0
  140.0870   72.6100  222.5160 C   0  0  0  0  0  0  0  0  0  0  0  0
  141.2390   72.7520  221.6660 N   0  0  0  0  0  0  0  0  0  0  0  0
  141.2900   73.6910  220.6180 C   0  0  0  0  0  0  0  0  0  0  0  0
  142.5280   74.3810  220.3420 C   0  0  0  0  0  0  0  0  0  0  0  0
  143.5880   73.7860  220.8140 O   0  0  0  0  0  0  0  0  0  0  0  0
  142.7520   75.6020  219.6420 N   0  0  0  0  0  0  0  0  0  0  0  0
  143.5320   75.7840  218.4210 C   0  0  0  0  0  0  0  0  0  0  0  0
  142.7300   76.9240  217.7610 C   0  0  2  0  0  0  0  0  0  0  0  0
  143.4380   77.5190  216.7330 O   0  0  0  0  0  0  0  0  0  0  0  0
  142.5840   77.8230  218.9690 C   0  0  0  0  0  0  0  0  0  0  0  0
  142.2330   76.8830  220.1020 C   0  0  1  0  0  0  0  0  0  0  0  0
  140.7910   76.8940  220.4410 C   0  0  0  0  0  0  0  0  0  0  0  0
  140.1840   78.2430  220.6940 C   0  0  0  0  0  0  0  0  0  0  0  0
  141.0290   78.8660  221.7780 C   0  0  0  0  0  0  0  0  0  0  0  0
  141.0680   78.3490  223.0530 C   0  0  0  0  0  0  0  0  0  0  0  0
  141.8180   78.8800  224.0650 C   0  0  0  0  0  0  0  0  0  0  0  0
  142.5790   80.0050  223.7740 C   0  0  0  0  0  0  0  0  0  0  0  0
  142.5630   80.5520  222.4920 C   0  0  0  0  0  0  0  0  0  0  0  0
  141.7890   79.9880  221.4890 C   0  0  0  0  0  0  0  0  0  0  0  0
  140.0970   71.6060  223.6060 C   0  0  0  0  0  0  0  0  0  0  0  0
  139.5850   70.3520  223.3490 C   0  0  0  0  0  0  0  0  0  0  0  0
  139.5590   69.3700  224.3020 C   0  0  0  0  0  0  0  0  0  0  0  0
  140.0680   69.6750  225.5510 C   0  0  0  0  0  0  0  0  0  0  0  0
  140.0500   68.7050  226.5180 C   0  0  0  0  0  0  0  0  0  0  0  0
  140.5550   69.0000  227.7670 C   0  0  0  0  0  0  0  0  0  0  0  0
  141.0760   70.2610  228.0430 C   0  0  0  0  0  0  0  0  0  0  0  0
  141.0920   71.2490  227.0510 C   0  0  0  0  0  0  0  0  0  0  0  0
  140.5830   70.9460  225.8000 C   0  0  0  0  0  0  0  0  0  0  0  0
  140.5900   71.8950  224.8240 N   0  0  0  0  0  0  0  0  0  0  0  0
  142.0360   72.0880  221.9050 H   0  0  0  0  0  0  0  0  0  0  0  0
  141.0080   73.1589  219.6975 H   0  0  0  0  0  0  0  0  0  0  0  0
  140.6169   74.4927  220.9561 H   0  0  0  0  0  0  0  0  0  0  0  0
  144.5672   76.0855  218.6386 H   0  0  0  0  0  0  0  0  0  0  0  0
  143.6470   74.8802  217.8047 H   0  0  0  0  0  0  0  0  0  0  0  0
  141.7866   76.6363  217.2739 H   0  0  0  0  0  0  0  0  0  0  0  0
  143.6980   78.4340  217.0750 H   0  0  0  0  0  0  0  0  0  0  0  0
  143.5272   78.3489  219.1784 H   0  0  0  0  0  0  0  0  0  0  0  0
  141.8214   78.6017  218.8206 H   0  0  0  0  0  0  0  0  0  0  0  0
  142.6773   77.1724  221.0658 H   0  0  0  0  0  0  0  0  0  0  0  0
  140.2455   76.4310  219.6055 H   0  0  0  0  0  0  0  0  0  0  0  0
  140.7062   76.3480  221.3922 H   0  0  0  0  0  0  0  0  0  0  0  0
  140.2153   78.8563  219.7814 H   0  0  0  0  0  0  0  0  0  0  0  0
  139.1278   78.1669  220.9917 H   0  0  0  0  0  0  0  0  0  0  0  0
  140.4610   77.4577  223.2700 H   0  0  0  0  0  0  0  0  0  0  0  0
  141.8188   78.4338  225.0705 H   0  0  0  0  0  0  0  0  0  0  0  0
  143.1969   80.4662  224.5586 H   0  0  0  0  0  0  0  0  0  0  0  0
  143.1717   81.4418  222.2733 H   0  0  0  0  0  0  0  0  0  0  0  0
  141.7786   80.4247  220.4794 H   0  0  0  0  0  0  0  0  0  0  0  0
  139.1853   70.1341  222.3476 H   0  0  0  0  0  0  0  0  0  0  0  0
  139.1479   68.3737  224.0822 H   0  0  0  0  0  0  0  0  0  0  0  0
  139.6397   67.7075  226.3020 H   0  0  0  0  0  0  0  0  0  0  0  0
  140.5460   68.2308  228.5533 H   0  0  0  0  0  0  0  0  0  0  0  0
  141.4764   70.4819  229.0435 H   0  0  0  0  0  0  0  0  0  0  0  0
  141.5016   72.2478  227.2620 H   0  0  0  0  0  0  0  0  0  0  0  0
  1  2  2  0
  2  3  1  0
  3  4  1  0
  4  5  1  0
  5  6  2  0
  5  7  1  0
  7  8  1  0
  8  9  1  0
  9 10  1  0
  9 11  1  0
 11 12  1  0
 12 13  1  0
 13 14  1  0
 14 15  1  0
 15 16  2  0
 16 17  1  0
 17 18  2  0
 18 19  1  0
 19 20  2  0
  2 21  1  0
 21 22  2  0
 22 23  1  0
 23 24  2  0
 24 25  1  0
 25 26  2  0
 26 27  1  0
 27 28  2  0
 28 29  1  0
 29 30  2  0
 12  7  1  0
 20 15  1  0
 30 21  1  0
 29 24  1  0
  3 31  1  0
  4 32  1  0
  4 33  1  0
  8 34  1  0
  8 35  1  0
  9 36  1  6
 10 37  1  0
 11 38  1  0
 11 39  1  0
 12 40  1  1
 13 41  1  0
 13 42  1  0
 14 43  1  0
 14 44  1  0
 16 45  1  0
 17 46  1  0
 18 47  1  0
 19 48  1  0
 20 49  1  0
 22 50  1  0
 23 51  1  0
 25 52  1  0
 26 53  1  0
 27 54  1  0
 28 55  1  0
M  END
>  <smiles>  (29) 
O=C(NCC(=O)N1C[C@H](O)C[C@H]1CCc1ccccc1)c1ccc2ccccc2n1

>  <score_type>  (29) 
oracle

>  <origin>  (29) 
autodockgpu

>  <m_score__min__energy>  (29) 
-9.2799999999999994

>  <m_primary>  (29) 
energy

>  <rmsd>  (29) 
2.7554047981444385

>  <m_score__min__rmsd>  (29) 
2.7554047981444385

>  <meeko>  (29) 
{"free_energy": -8.65, "intermolecular_energy": -11.04, "internal_energy": -1.57, "cluster_size": 24, "cluster_id": 1, "rank_in_cluster": 16}

>  <energy>  (29) 
-7.93

>  <cluster_rmsd>  (29) 
1.51

>  <cluster>  (29) 
3

$$$$

     RDKit          3D

 55 58  0  0  0  0  0  0  0  0999 V2000
  140.0930   75.4770  220.4600 O   0  0  0  0  0  0  0  0  0  0  0  0
  139.5890   75.8090  221.5870 C   0  0  0  0  0  0  0  0  0  0  0  0
  138.7150   74.9120  222.2950 N   0  0  0  0  0  0  0  0  0  0  0  0
  138.3790   73.6390  221.7960 C   0  0  0  0  0  0  0  0  0  0  0  0
  139.1890   72.4980  222.1560 C   0  0  0  0  0  0  0  0  0  0  0  0
  140.3040   72.8040  222.7590 O   0  0  0  0  0  0  0  0  0  0  0  0
  138.9480   71.1100  221.9450 N   0  0  0  0  0  0  0  0  0  0  0  0
  139.4390   70.2910  220.8410 C   0  0  0  0  0  0  0  0  0  0  0  0
  139.6200   68.9430  221.5700 C   0  0  2  0  0  0  0  0  0  0  0  0
  139.7710   67.8960  220.6800 O   0  0  0  0  0  0  0  0  0  0  0  0
  138.2950   68.9040  222.2990 C   0  0  0  0  0  0  0  0  0  0  0  0
  138.1130   70.3090  222.8310 C   0  0  1  0  0  0  0  0  0  0  0  0
  138.4280   70.4310  224.2740 C   0  0  0  0  0  0  0  0  0  0  0  0
  139.6370   69.6780  224.7490 C   0  0  0  0  0  0  0  0  0  0  0  0
  140.1390   70.4430  225.9500 C   0  0  0  0  0  0  0  0  0  0  0  0
  139.7680   70.1030  227.2300 C   0  0  0  0  0  0  0  0  0  0  0  0
  140.1970   70.7670  228.3460 C   0  0  0  0  0  0  0  0  0  0  0  0
  141.0580   71.8410  228.1590 C   0  0  0  0  0  0  0  0  0  0  0  0
  141.4530   72.2100  226.8750 C   0  0  0  0  0  0  0  0  0  0  0  0
  140.9970   71.5150  225.7650 C   0  0  0  0  0  0  0  0  0  0  0  0
  139.9090   77.1340  222.1690 C   0  0  0  0  0  0  0  0  0  0  0  0
  138.8790   77.8880  222.6930 C   0  0  0  0  0  0  0  0  0  0  0  0
  139.0920   79.1200  223.2480 C   0  0  0  0  0  0  0  0  0  0  0  0
  140.3900   79.5990  223.2680 C   0  0  0  0  0  0  0  0  0  0  0  0
  140.6220   80.8320  223.8200 C   0  0  0  0  0  0  0  0  0  0  0  0
  141.9120   81.3180  223.8450 C   0  0  0  0  0  0  0  0  0  0  0  0
  142.9630   80.5700  223.3200 C   0  0  0  0  0  0  0  0  0  0  0  0
  142.7200   79.3100  222.7580 C   0  0  0  0  0  0  0  0  0  0  0  0
  141.4220   78.8300  222.7360 C   0  0  0  0  0  0  0  0  0  0  0  0
  141.1680   77.6080  222.1930 N   0  0  0  0  0  0  0  0  0  0  0  0
  138.3550   75.3000  223.2190 H   0  0  0  0  0  0  0  0  0  0  0  0
  137.3544   73.4233  222.1330 H   0  0  0  0  0  0  0  0  0  0  0  0
  138.5366   73.7363  220.7117 H   0  0  0  0  0  0  0  0  0  0  0  0
  138.7031   70.2195  220.0266 H   0  0  0  0  0  0  0  0  0  0  0  0
  140.3423   70.6749  220.3443 H   0  0  0  0  0  0  0  0  0  0  0  0
  140.5106   68.8519  222.2091 H   0  0  0  0  0  0  0  0  0  0  0  0
  140.2970   67.1910  221.1750 H   0  0  0  0  0  0  0  0  0  0  0  0
  137.4795   68.6408  221.6093 H   0  0  0  0  0  0  0  0  0  0  0  0
  138.2800   68.1490  223.0988 H   0  0  0  0  0  0  0  0  0  0  0  0
  137.0677   70.6511  222.8146 H   0  0  0  0  0  0  0  0  0  0  0  0
  138.5868   71.4968  224.4950 H   0  0  0  0  0  0  0  0  0  0  0  0
  137.5733   69.9845  224.8032 H   0  0  0  0  0  0  0  0  0  0  0  0
  139.3637   68.6511  225.0334 H   0  0  0  0  0  0  0  0  0  0  0  0
  140.4040   69.5986  223.9645 H   0  0  0  0  0  0  0  0  0  0  0  0
  139.0879   69.2488  227.3636 H   0  0  0  0  0  0  0  0  0  0  0  0
  139.8730   70.4626  229.3522 H   0  0  0  0  0  0  0  0  0  0  0  0
  141.4296   72.4027  229.0287 H   0  0  0  0  0  0  0  0  0  0  0  0
  142.1347   73.0627  226.7401 H   0  0  0  0  0  0  0  0  0  0  0  0
  141.3116   71.8103  224.7532 H   0  0  0  0  0  0  0  0  0  0  0  0
  137.8555   77.4862  222.6635 H   0  0  0  0  0  0  0  0  0  0  0  0
  138.2610   79.7089  223.6636 H   0  0  0  0  0  0  0  0  0  0  0  0
  139.7932   81.4236  224.2359 H   0  0  0  0  0  0  0  0  0  0  0  0
  142.1131   82.3064  224.2840 H   0  0  0  0  0  0  0  0  0  0  0  0
  143.9874   80.9699  223.3467 H   0  0  0  0  0  0  0  0  0  0  0  0
  143.5452   78.7134  222.3420 H   0  0  0  0  0  0  0  0  0  0  0  0
  1  2  2  0
  2  3  1  0
  3  4  1  0
  4  5  1  0
  5  6  2  0
  5  7  1  0
  7  8  1  0
  8  9  1  0
  9 10  1  0
  9 11  1  0
 11 12  1  0
 12 13  1  0
 13 14  1  0
 14 15  1  0
 15 16  2  0
 16 17  1  0
 17 18  2  0
 18 19  1  0
 19 20  2  0
  2 21  1  0
 21 22  2  0
 22 23  1  0
 23 24  2  0
 24 25  1  0
 25 26  2  0
 26 27  1  0
 27 28  2  0
 28 29  1  0
 29 30  2  0
 12  7  1  0
 20 15  1  0
 30 21  1  0
 29 24  1  0
  3 31  1  0
  4 32  1  0
  4 33  1  0
  8 34  1  0
  8 35  1  0
  9 36  1  1
 10 37  1  0
 11 38  1  0
 11 39  1  0
 12 40  1  1
 13 41  1  0
 13 42  1  0
 14 43  1  0
 14 44  1  0
 16 45  1  0
 17 46  1  0
 18 47  1  0
 19 48  1  0
 20 49  1  0
 22 50  1  0
 23 51  1  0
 25 52  1  0
 26 53  1  0
 27 54  1  0
 28 55  1  0
M  END
>  <smiles>  (30) 
O=C(NCC(=O)N1C[C@H](O)C[C@H]1CCc1ccccc1)c1ccc2ccccc2n1

>  <score_type>  (30) 
oracle

>  <origin>  (30) 
autodockgpu

>  <m_score__min__energy>  (30) 
-9.2799999999999994

>  <m_primary>  (30) 
energy

>  <rmsd>  (30) 
8.378944057366754

>  <m_score__min__rmsd>  (30) 
8.378944057366754

>  <meeko>  (30) 
{"free_energy": -8.79, "intermolecular_energy": -11.18, "internal_energy": -1.37, "cluster_size": 7, "cluster_id": 4, "rank_in_cluster": 1}

>  <energy>  (30) 
-8.79

>  <cluster_rmsd>  (30) 
0.0

>  <cluster>  (30) 
4

$$$$

     RDKit          3D

 55 58  0  0  0  0  0  0  0  0999 V2000
  138.6100   75.3620  222.0450 O   0  0  0  0  0  0  0  0  0  0  0  0
  139.8140   75.7870  222.1140 C   0  0  0  0  0  0  0  0  0  0  0  0
  140.9210   74.9090  221.8460 N   0  0  0  0  0  0  0  0  0  0  0  0
  140.7420   73.5570  221.4950 C   0  0  0  0  0  0  0  0  0  0  0  0
  141.6530   72.9390  220.5610 C   0  0  0  0  0  0  0  0  0  0  0  0
  141.0740   72.1850  219.6690 O   0  0  0  0  0  0  0  0  0  0  0  0
  143.0730   73.0310  220.4800 N   0  0  0  0  0  0  0  0  0  0  0  0
  144.0290   71.9290  220.5300 C   0  0  0  0  0  0  0  0  0  0  0  0
  145.1180   72.4790  219.5870 C   0  0  2  0  0  0  0  0  0  0  0  0
  146.3010   71.7740  219.7050 O   0  0  0  0  0  0  0  0  0  0  0  0
  145.2140   73.8800  220.1500 C   0  0  0  0  0  0  0  0  0  0  0  0
  143.7770   74.3020  220.3670 C   0  0  1  0  0  0  0  0  0  0  0  0
  143.2710   75.2100  219.3110 C   0  0  0  0  0  0  0  0  0  0  0  0
  143.4190   76.6790  219.5810 C   0  0  0  0  0  0  0  0  0  0  0  0
  142.0370   77.2600  219.4060 C   0  0  0  0  0  0  0  0  0  0  0  0
  140.9670   76.4810  219.0310 C   0  0  0  0  0  0  0  0  0  0  0  0
  139.6990   76.9630  218.8610 C   0  0  0  0  0  0  0  0  0  0  0  0
  139.4960   78.3190  219.0840 C   0  0  0  0  0  0  0  0  0  0  0  0
  140.5600   79.1360  219.4650 C   0  0  0  0  0  0  0  0  0  0  0  0
  141.8330   78.6130  219.6270 C   0  0  0  0  0  0  0  0  0  0  0  0
  140.0690   77.2030  222.4730 C   0  0  0  0  0  0  0  0  0  0  0  0
  138.9880   78.0360  222.6670 C   0  0  0  0  0  0  0  0  0  0  0  0
  139.1390   79.3540  223.0020 C   0  0  0  0  0  0  0  0  0  0  0  0
  140.4280   79.8370  223.1410 C   0  0  0  0  0  0  0  0  0  0  0  0
  140.6000   81.1540  223.4750 C   0  0  0  0  0  0  0  0  0  0  0  0
  141.8810   81.6450  223.6160 C   0  0  0  0  0  0  0  0  0  0  0  0
  142.9840   80.8160  223.4240 C   0  0  0  0  0  0  0  0  0  0  0  0
  142.8020   79.4700  223.0830 C   0  0  0  0  0  0  0  0  0  0  0  0
  141.5130   78.9860  222.9430 C   0  0  0  0  0  0  0  0  0  0  0  0
  141.3190   77.6800  222.6110 N   0  0  0  0  0  0  0  0  0  0  0  0
  141.8740   75.3760  221.9380 H   0  0  0  0  0  0  0  0  0  0  0  0
  140.7950   72.9747  222.4267 H   0  0  0  0  0  0  0  0  0  0  0  0
  139.7811   73.5539  220.9596 H   0  0  0  0  0  0  0  0  0  0  0  0
  144.4135   71.7675  221.5479 H   0  0  0  0  0  0  0  0  0  0  0  0
  143.6213   70.9477  220.2457 H   0  0  0  0  0  0  0  0  0  0  0  0
  144.9033   72.4193  218.5098 H   0  0  0  0  0  0  0  0  0  0  0  0
  146.3710   71.5170  220.6790 H   0  0  0  0  0  0  0  0  0  0  0  0
  145.7667   73.8795  221.1011 H   0  0  0  0  0  0  0  0  0  0  0  0
  145.7533   74.5640  219.4783 H   0  0  0  0  0  0  0  0  0  0  0  0
  143.6330   74.9221  221.2640 H   0  0  0  0  0  0  0  0  0  0  0  0
  143.8143   74.9820  218.3821 H   0  0  0  0  0  0  0  0  0  0  0  0
  142.1879   75.0260  219.2552 H   0  0  0  0  0  0  0  0  0  0  0  0
  143.7803   76.8474  220.6062 H   0  0  0  0  0  0  0  0  0  0  0  0
  144.1485   77.1478  218.9042 H   0  0  0  0  0  0  0  0  0  0  0  0
  141.1416   75.4088  218.8580 H   0  0  0  0  0  0  0  0  0  0  0  0
  138.8722   76.3031  218.5595 H   0  0  0  0  0  0  0  0  0  0  0  0
  138.4917   78.7502  218.9595 H   0  0  0  0  0  0  0  0  0  0  0  0
  140.3867   80.2082  219.6390 H   0  0  0  0  0  0  0  0  0  0  0  0
  142.6691   79.2620  219.9265 H   0  0  0  0  0  0  0  0  0  0  0  0
  137.9730   77.6287  222.5489 H   0  0  0  0  0  0  0  0  0  0  0  0
  138.2667   80.0063  223.1553 H   0  0  0  0  0  0  0  0  0  0  0  0
  139.7302   81.8097  223.6284 H   0  0  0  0  0  0  0  0  0  0  0  0
  142.0333   82.7013  223.8826 H   0  0  0  0  0  0  0  0  0  0  0  0
  144.0006   81.2197  223.5406 H   0  0  0  0  0  0  0  0  0  0  0  0
  143.6679   78.8093  222.9292 H   0  0  0  0  0  0  0  0  0  0  0  0
  1  2  2  0
  2  3  1  0
  3  4  1  0
  4  5  1  0
  5  6  2  0
  5  7  1  0
  7  8  1  0
  8  9  1  0
  9 10  1  0
  9 11  1  0
 11 12  1  0
 12 13  1  0
 13 14  1  0
 14 15  1  0
 15 16  2  0
 16 17  1  0
 17 18  2  0
 18 19  1  0
 19 20  2  0
  2 21  1  0
 21 22  2  0
 22 23  1  0
 23 24  2  0
 24 25  1  0
 25 26  2  0
 26 27  1  0
 27 28  2  0
 28 29  1  0
 29 30  2  0
 12  7  1  0
 20 15  1  0
 30 21  1  0
 29 24  1  0
  3 31  1  0
  4 32  1  0
  4 33  1  0
  8 34  1  0
  8 35  1  0
  9 36  1  6
 10 37  1  0
 11 38  1  0
 11 39  1  0
 12 40  1  1
 13 41  1  0
 13 42  1  0
 14 43  1  0
 14 44  1  0
 16 45  1  0
 17 46  1  0
 18 47  1  0
 19 48  1  0
 20 49  1  0
 22 50  1  0
 23 51  1  0
 25 52  1  0
 26 53  1  0
 27 54  1  0
 28 55  1  0
M  END
>  <smiles>  (31) 
O=C(NCC(=O)N1C[C@H](O)C[C@H]1CCc1ccccc1)c1ccc2ccccc2n1

>  <score_type>  (31) 
oracle

>  <origin>  (31) 
autodockgpu

>  <m_score__min__energy>  (31) 
-9.2799999999999994

>  <m_primary>  (31) 
energy

>  <rmsd>  (31) 
7.548194518428342

>  <m_score__min__rmsd>  (31) 
7.548194518428342

>  <meeko>  (31) 
{"free_energy": -7.26, "intermolecular_energy": -9.65, "internal_energy": -3.34, "cluster_size": 7, "cluster_id": 8, "rank_in_cluster": 7}

>  <energy>  (31) 
-8.44

>  <cluster_rmsd>  (31) 
0.96

>  <cluster>  (31) 
4

$$$$

     RDKit          3D

 55 58  0  0  0  0  0  0  0  0999 V2000
  140.4100   71.3150  221.3590 O   0  0  0  0  0  0  0  0  0  0  0  0
  140.1000   71.8840  222.4610 C   0  0  0  0  0  0  0  0  0  0  0  0
  139.7850   73.2870  222.5020 N   0  0  0  0  0  0  0  0  0  0  0  0
  139.7940   74.0940  221.3480 C   0  0  0  0  0  0  0  0  0  0  0  0
  139.5300   75.5090  221.4680 C   0  0  0  0  0  0  0  0  0  0  0  0
  138.3660   75.7930  221.9830 O   0  0  0  0  0  0  0  0  0  0  0  0
  140.3460   76.6200  221.1070 N   0  0  0  0  0  0  0  0  0  0  0  0
  140.3460   77.9450  221.7190 C   0  0  0  0  0  0  0  0  0  0  0  0
  141.8370   78.3080  221.5660 C   0  0  2  0  0  0  0  0  0  0  0  0
  142.0600   79.6560  221.7740 O   0  0  0  0  0  0  0  0  0  0  0  0
  142.0200   77.9010  220.1210 C   0  0  0  0  0  0  0  0  0  0  0  0
  141.2990   76.5750  220.0050 C   0  0  1  0  0  0  0  0  0  0  0  0
  142.2160   75.4110  220.0130 C   0  0  0  0  0  0  0  0  0  0  0  0
  143.5080   75.5860  219.2690 C   0  0  0  0  0  0  0  0  0  0  0  0
  144.3710   74.4200  219.6850 C   0  0  0  0  0  0  0  0  0  0  0  0
  144.4320   73.2640  218.9420 C   0  0  0  0  0  0  0  0  0  0  0  0
  145.1990   72.1840  219.2800 C   0  0  0  0  0  0  0  0  0  0  0  0
  145.9550   72.2760  220.4420 C   0  0  0  0  0  0  0  0  0  0  0  0
  145.9160   73.4330  221.2170 C   0  0  0  0  0  0  0  0  0  0  0  0
  145.1250   74.5100  220.8440 C   0  0  0  0  0  0  0  0  0  0  0  0
  140.0680   71.0870  223.7110 C   0  0  0  0  0  0  0  0  0  0  0  0
  139.5640   69.8050  223.6590 C   0  0  0  0  0  0  0  0  0  0  0  0
  139.5000   69.0060  224.7680 C   0  0  0  0  0  0  0  0  0  0  0  0
  139.9610   69.5280  225.9630 C   0  0  0  0  0  0  0  0  0  0  0  0
  139.9050   68.7430  227.0840 C   0  0  0  0  0  0  0  0  0  0  0  0
  140.3620   69.2550  228.2800 C   0  0  0  0  0  0  0  0  0  0  0  0
  140.8730   70.5490  228.3490 C   0  0  0  0  0  0  0  0  0  0  0  0
  140.9290   71.3470  227.2000 C   0  0  0  0  0  0  0  0  0  0  0  0
  140.4680   70.8250  226.0040 C   0  0  0  0  0  0  0  0  0  0  0  0
  140.5140   71.5880  224.8770 N   0  0  0  0  0  0  0  0  0  0  0  0
  139.5470   73.6480  223.4750 H   0  0  0  0  0  0  0  0  0  0  0  0
  140.7906   73.9918  220.8938 H   0  0  0  0  0  0  0  0  0  0  0  0
  138.9397   73.7202  220.7645 H   0  0  0  0  0  0  0  0  0  0  0  0
  139.6967   78.6465  221.1747 H   0  0  0  0  0  0  0  0  0  0  0  0
  139.9630   77.9803  222.7496 H   0  0  0  0  0  0  0  0  0  0  0  0
  142.5277   77.8329  222.2782 H   0  0  0  0  0  0  0  0  0  0  0  0
  143.0080   79.8270  221.4710 H   0  0  0  0  0  0  0  0  0  0  0  0
  141.5725   78.6468  219.4476 H   0  0  0  0  0  0  0  0  0  0  0  0
  143.0807   77.8258  219.8393 H   0  0  0  0  0  0  0  0  0  0  0  0
  140.7906   76.4352  219.0396 H   0  0  0  0  0  0  0  0  0  0  0  0
  142.4595   75.1816  221.0609 H   0  0  0  0  0  0  0  0  0  0  0  0
  141.6788   74.6066  219.4892 H   0  0  0  0  0  0  0  0  0  0  0  0
  143.3325   75.5669  218.1833 H   0  0  0  0  0  0  0  0  0  0  0  0
  143.9849   76.5503  219.4985 H   0  0  0  0  0  0  0  0  0  0  0  0
  143.8294   73.2052  218.0236 H   0  0  0  0  0  0  0  0  0  0  0  0
  145.2169   71.2779  218.6566 H   0  0  0  0  0  0  0  0  0  0  0  0
  146.5876   71.4310  220.7516 H   0  0  0  0  0  0  0  0  0  0  0  0
  146.5191   73.4933  222.1349 H   0  0  0  0  0  0  0  0  0  0  0  0
  145.0968   75.4216  221.4590 H   0  0  0  0  0  0  0  0  0  0  0  0
  139.2024   69.4125  222.6971 H   0  0  0  0  0  0  0  0  0  0  0  0
  139.0961   67.9844  224.7111 H   0  0  0  0  0  0  0  0  0  0  0  0
  139.5021   67.7208  227.0311 H   0  0  0  0  0  0  0  0  0  0  0  0
  140.3227   68.6357  229.1882 H   0  0  0  0  0  0  0  0  0  0  0  0
  141.2338   70.9453  229.3096 H   0  0  0  0  0  0  0  0  0  0  0  0
  141.3318   72.3695  227.2469 H   0  0  0  0  0  0  0  0  0  0  0  0
  1  2  2  0
  2  3  1  0
  3  4  1  0
  4  5  1  0
  5  6  2  0
  5  7  1  0
  7  8  1  0
  8  9  1  0
  9 10  1  0
  9 11  1  0
 11 12  1  0
 12 13  1  0
 13 14  1  0
 14 15  1  0
 15 16  2  0
 16 17  1  0
 17 18  2  0
 18 19  1  0
 19 20  2  0
  2 21  1  0
 21 22  2  0
 22 23  1  0
 23 24  2  0
 24 25  1  0
 25 26  2  0
 26 27  1  0
 27 28  2  0
 28 29  1  0
 29 30  2  0
 12  7  1  0
 20 15  1  0
 30 21  1  0
 29 24  1  0
  3 31  1  0
  4 32  1  0
  4 33  1  0
  8 34  1  0
  8 35  1  0
  9 36  1  1
 10 37  1  0
 11 38  1  0
 11 39  1  0
 12 40  1  6
 13 41  1  0
 13 42  1  0
 14 43  1  0
 14 44  1  0
 16 45  1  0
 17 46  1  0
 18 47  1  0
 19 48  1  0
 20 49  1  0
 22 50  1  0
 23 51  1  0
 25 52  1  0
 26 53  1  0
 27 54  1  0
 28 55  1  0
M  END
>  <smiles>  (32) 
O=C(NCC(=O)N1C[C@H](O)C[C@H]1CCc1ccccc1)c1ccc2ccccc2n1

>  <score_type>  (32) 
oracle

>  <origin>  (32) 
autodockgpu

>  <m_score__min__energy>  (32) 
-9.2799999999999994

>  <m_primary>  (32) 
energy

>  <rmsd>  (32) 
2.3427981186503017

>  <m_score__min__rmsd>  (32) 
2.3427981186503017

>  <meeko>  (32) 
{"free_energy": -8.61, "intermolecular_energy": -11.0, "internal_energy": -1.4, "cluster_size": 4, "cluster_id": 6, "rank_in_cluster": 1}

>  <energy>  (32) 
-8.42

>  <cluster_rmsd>  (32) 
1.24

>  <cluster>  (32) 
4

$$$$

     RDKit          3D

 55 58  0  0  0  0  0  0  0  0999 V2000
  137.3010   76.2340  222.4160 O   0  0  0  0  0  0  0  0  0  0  0  0
  138.5770   76.3130  222.3920 C   0  0  0  0  0  0  0  0  0  0  0  0
  139.3780   75.1700  222.0440 N   0  0  0  0  0  0  0  0  0  0  0  0
  138.8090   73.9250  221.7110 C   0  0  0  0  0  0  0  0  0  0  0  0
  139.5460   72.7130  221.9800 C   0  0  0  0  0  0  0  0  0  0  0  0
  140.7480   72.9100  222.4460 O   0  0  0  0  0  0  0  0  0  0  0  0
  139.1540   71.3540  221.8080 N   0  0  0  0  0  0  0  0  0  0  0  0
  139.5070   70.4710  220.7000 C   0  0  0  0  0  0  0  0  0  0  0  0
  139.5810   69.1240  221.4460 C   0  0  2  0  0  0  0  0  0  0  0  0
  139.5820   68.0530  220.5710 O   0  0  0  0  0  0  0  0  0  0  0  0
  138.2930   69.2340  222.2330 C   0  0  0  0  0  0  0  0  0  0  0  0
  138.2820   70.6580  222.7450 C   0  0  1  0  0  0  0  0  0  0  0  0
  138.6740   70.7680  224.1700 C   0  0  0  0  0  0  0  0  0  0  0  0
  139.8240   69.9070  224.6050 C   0  0  0  0  0  0  0  0  0  0  0  0
  140.2690   70.4730  225.9320 C   0  0  0  0  0  0  0  0  0  0  0  0
  140.9960   71.6370  226.0140 C   0  0  0  0  0  0  0  0  0  0  0  0
  141.4200   72.1860  227.1930 C   0  0  0  0  0  0  0  0  0  0  0  0
  141.0880   71.5170  228.3640 C   0  0  0  0  0  0  0  0  0  0  0  0
  140.3520   70.3350  228.3140 C   0  0  0  0  0  0  0  0  0  0  0  0
  139.9390   69.8070  227.1010 C   0  0  0  0  0  0  0  0  0  0  0  0
  139.2360   77.5970  222.7280 C   0  0  0  0  0  0  0  0  0  0  0  0
  138.4420   78.6830  223.0300 C   0  0  0  0  0  0  0  0  0  0  0  0
  138.9730   79.9030  223.3500 C   0  0  0  0  0  0  0  0  0  0  0  0
  140.3520   80.0190  223.3620 C   0  0  0  0  0  0  0  0  0  0  0  0
  140.9020   81.2330  223.6800 C   0  0  0  0  0  0  0  0  0  0  0  0
  142.2760   81.3590  223.6940 C   0  0  0  0  0  0  0  0  0  0  0  0
  143.0910   80.2710  223.3910 C   0  0  0  0  0  0  0  0  0  0  0  0
  142.5230   79.0330  223.0670 C   0  0  0  0  0  0  0  0  0  0  0  0
  141.1440   78.9150  223.0550 C   0  0  0  0  0  0  0  0  0  0  0  0
  140.5760   77.7190  222.7410 N   0  0  0  0  0  0  0  0  0  0  0  0
  140.4260   75.3560  222.0630 H   0  0  0  0  0  0  0  0  0  0  0  0
  137.8586   73.8503  222.2598 H   0  0  0  0  0  0  0  0  0  0  0  0
  138.7490   73.9532  220.6130 H   0  0  0  0  0  0  0  0  0  0  0  0
  138.7312   70.4640  219.9202 H   0  0  0  0  0  0  0  0  0  0  0  0
  140.4216   70.7512  220.1569 H   0  0  0  0  0  0  0  0  0  0  0  0
  140.4859   68.9507  222.0469 H   0  0  0  0  0  0  0  0  0  0  0  0
  139.7490   68.4480  219.6560 H   0  0  0  0  0  0  0  0  0  0  0  0
  137.4241   69.0472  221.5848 H   0  0  0  0  0  0  0  0  0  0  0  0
  138.2361   68.4964  223.0471 H   0  0  0  0  0  0  0  0  0  0  0  0
  137.2780   71.1069  222.7680 H   0  0  0  0  0  0  0  0  0  0  0  0
  138.9460   71.8160  224.3642 H   0  0  0  0  0  0  0  0  0  0  0  0
  137.8052   70.4143  224.7445 H   0  0  0  0  0  0  0  0  0  0  0  0
  139.5001   68.8622  224.7214 H   0  0  0  0  0  0  0  0  0  0  0  0
  140.6386   69.9084  223.8658 H   0  0  0  0  0  0  0  0  0  0  0  0
  141.2512   72.1563  225.0785 H   0  0  0  0  0  0  0  0  0  0  0  0
  142.0007   73.1200  227.2128 H   0  0  0  0  0  0  0  0  0  0  0  0
  141.4076   71.9222  229.3354 H   0  0  0  0  0  0  0  0  0  0  0  0
  140.0957   69.8146  229.2486 H   0  0  0  0  0  0  0  0  0  0  0  0
  139.3581   68.8735  227.0670 H   0  0  0  0  0  0  0  0  0  0  0  0
  137.3485   78.5652  223.0132 H   0  0  0  0  0  0  0  0  0  0  0  0
  138.3270   80.7606  223.5891 H   0  0  0  0  0  0  0  0  0  0  0  0
  140.2590   82.0926  223.9201 H   0  0  0  0  0  0  0  0  0  0  0  0
  142.7319   82.3277  223.9468 H   0  0  0  0  0  0  0  0  0  0  0  0
  144.1850   80.3848  223.4063 H   0  0  0  0  0  0  0  0  0  0  0  0
  143.1610   78.1699  222.8264 H   0  0  0  0  0  0  0  0  0  0  0  0
  1  2  2  0
  2  3  1  0
  3  4  1  0
  4  5  1  0
  5  6  2  0
  5  7  1  0
  7  8  1  0
  8  9  1  0
  9 10  1  0
  9 11  1  0
 11 12  1  0
 12 13  1  0
 13 14  1  0
 14 15  1  0
 15 16  2  0
 16 17  1  0
 17 18  2  0
 18 19  1  0
 19 20  2  0
  2 21  1  0
 21 22  2  0
 22 23  1  0
 23 24  2  0
 24 25  1  0
 25 26  2  0
 26 27  1  0
 27 28  2  0
 28 29  1  0
 29 30  2  0
 12  7  1  0
 20 15  1  0
 30 21  1  0
 29 24  1  0
  3 31  1  0
  4 32  1  0
  4 33  1  0
  8 34  1  0
  8 35  1  0
  9 36  1  1
 10 37  1  0
 11 38  1  0
 11 39  1  0
 12 40  1  1
 13 41  1  0
 13 42  1  0
 14 43  1  0
 14 44  1  0
 16 45  1  0
 17 46  1  0
 18 47  1  0
 19 48  1  0
 20 49  1  0
 22 50  1  0
 23 51  1  0
 25 52  1  0
 26 53  1  0
 27 54  1  0
 28 55  1  0
M  END
>  <smiles>  (33) 
O=C(NCC(=O)N1C[C@H](O)C[C@H]1CCc1ccccc1)c1ccc2ccccc2n1

>  <score_type>  (33) 
oracle

>  <origin>  (33) 
autodockgpu

>  <m_score__min__energy>  (33) 
-9.2799999999999994

>  <m_primary>  (33) 
energy

>  <rmsd>  (33) 
8.45659906099666

>  <m_score__min__rmsd>  (33) 
8.45659906099666

>  <meeko>  (33) 
{"free_energy": -8.41, "intermolecular_energy": -10.79, "internal_energy": -1.87, "cluster_size": 7, "cluster_id": 4, "rank_in_cluster": 4}

>  <energy>  (33) 
-8.41

>  <cluster_rmsd>  (33) 
0.97

>  <cluster>  (33) 
4

$$$$

     RDKit          3D

 55 58  0  0  0  0  0  0  0  0999 V2000
  140.0410   73.2730  222.6390 O   0  0  0  0  0  0  0  0  0  0  0  0
  140.4020   72.0470  222.6420 C   0  0  0  0  0  0  0  0  0  0  0  0
  140.7870   71.3900  221.4210 N   0  0  0  0  0  0  0  0  0  0  0  0
  140.7920   72.0540  220.1790 C   0  0  0  0  0  0  0  0  0  0  0  0
  141.7780   73.0780  219.9260 C   0  0  0  0  0  0  0  0  0  0  0  0
  141.3740   74.2880  220.1990 O   0  0  0  0  0  0  0  0  0  0  0  0
  143.1060   72.9580  219.4240 N   0  0  0  0  0  0  0  0  0  0  0  0
  144.2500   73.8020  219.7550 C   0  0  0  0  0  0  0  0  0  0  0  0
  145.3830   72.7590  219.6680 C   0  0  2  0  0  0  0  0  0  0  0  0
  146.6280   73.3580  219.6210 O   0  0  0  0  0  0  0  0  0  0  0  0
  144.9940   72.1150  218.3550 C   0  0  0  0  0  0  0  0  0  0  0  0
  143.4920   71.9510  218.4440 C   0  0  1  0  0  0  0  0  0  0  0  0
  143.0760   70.5660  218.7670 C   0  0  0  0  0  0  0  0  0  0  0  0
  143.6980   69.9600  219.9910 C   0  0  0  0  0  0  0  0  0  0  0  0
  144.3210   68.6670  219.5270 C   0  0  0  0  0  0  0  0  0  0  0  0
  145.6850   68.5240  219.4080 C   0  0  0  0  0  0  0  0  0  0  0  0
  146.2930   67.3720  218.9910 C   0  0  0  0  0  0  0  0  0  0  0  0
  145.4750   66.2950  218.6760 C   0  0  0  0  0  0  0  0  0  0  0  0
  144.0900   66.4080  218.7870 C   0  0  0  0  0  0  0  0  0  0  0  0
  143.5060   67.5920  219.2110 C   0  0  0  0  0  0  0  0  0  0  0  0
  140.4230   71.2940  223.9190 C   0  0  0  0  0  0  0  0  0  0  0  0
  140.9360   71.9140  225.0380 C   0  0  0  0  0  0  0  0  0  0  0  0
  140.9900   71.2870  226.2540 C   0  0  0  0  0  0  0  0  0  0  0  0
  140.5080   69.9930  226.3300 C   0  0  0  0  0  0  0  0  0  0  0  0
  140.5540   69.3490  227.5380 C   0  0  0  0  0  0  0  0  0  0  0  0
  140.0770   68.0580  227.6240 C   0  0  0  0  0  0  0  0  0  0  0  0
  139.5560   67.4170  226.5030 C   0  0  0  0  0  0  0  0  0  0  0  0
  139.5110   68.0810  225.2700 C   0  0  0  0  0  0  0  0  0  0  0  0
  139.9920   69.3760  225.1920 C   0  0  0  0  0  0  0  0  0  0  0  0
  139.9570   70.0350  224.0010 N   0  0  0  0  0  0  0  0  0  0  0  0
  141.0630   70.3700  221.5490 H   0  0  0  0  0  0  0  0  0  0  0  0
  140.9240   71.2840  219.4047 H   0  0  0  0  0  0  0  0  0  0  0  0
  139.8398   72.6047  220.1758 H   0  0  0  0  0  0  0  0  0  0  0  0
  144.3843   74.6132  219.0243 H   0  0  0  0  0  0  0  0  0  0  0  0
  144.1758   74.3277  220.7184 H   0  0  0  0  0  0  0  0  0  0  0  0
  145.4747   72.0695  220.5201 H   0  0  0  0  0  0  0  0  0  0  0  0
  146.4600   74.3180  219.3580 H   0  0  0  0  0  0  0  0  0  0  0  0
  145.2649   72.7632  217.5086 H   0  0  0  0  0  0  0  0  0  0  0  0
  145.5103   71.1579  218.1892 H   0  0  0  0  0  0  0  0  0  0  0  0
  142.9768   72.1070  217.4847 H   0  0  0  0  0  0  0  0  0  0  0  0
  141.9852   70.5669  218.9093 H   0  0  0  0  0  0  0  0  0  0  0  0
  143.4199   69.9491  217.9237 H   0  0  0  0  0  0  0  0  0  0  0  0
  144.4659   70.6304  220.4043 H   0  0  0  0  0  0  0  0  0  0  0  0
  142.9566   69.7939  220.7864 H   0  0  0  0  0  0  0  0  0  0  0  0
  146.3215   69.3843  219.6625 H   0  0  0  0  0  0  0  0  0  0  0  0
  147.3876   67.3014  218.9083 H   0  0  0  0  0  0  0  0  0  0  0  0
  145.9218   65.3486  218.3374 H   0  0  0  0  0  0  0  0  0  0  0  0
  143.4527   65.5475  218.5352 H   0  0  0  0  0  0  0  0  0  0  0  0
  142.4125   67.6765  219.2952 H   0  0  0  0  0  0  0  0  0  0  0  0
  141.3134   72.9436  224.9515 H   0  0  0  0  0  0  0  0  0  0  0  0
  141.4020   71.7944  227.1388 H   0  0  0  0  0  0  0  0  0  0  0  0
  140.9647   69.8534  228.4251 H   0  0  0  0  0  0  0  0  0  0  0  0
  140.1084   67.5291  228.5880 H   0  0  0  0  0  0  0  0  0  0  0  0
  139.1789   66.3870  226.5856 H   0  0  0  0  0  0  0  0  0  0  0  0
  139.1006   67.5817  224.3799 H   0  0  0  0  0  0  0  0  0  0  0  0
  1  2  2  0
  2  3  1  0
  3  4  1  0
  4  5  1  0
  5  6  2  0
  5  7  1  0
  7  8  1  0
  8  9  1  0
  9 10  1  0
  9 11  1  0
 11 12  1  0
 12 13  1  0
 13 14  1  0
 14 15  1  0
 15 16  2  0
 16 17  1  0
 17 18  2  0
 18 19  1  0
 19 20  2  0
  2 21  1  0
 21 22  2  0
 22 23  1  0
 23 24  2  0
 24 25  1  0
 25 26  2  0
 26 27  1  0
 27 28  2  0
 28 29  1  0
 29 30  2  0
 12  7  1  0
 20 15  1  0
 30 21  1  0
 29 24  1  0
  3 31  1  0
  4 32  1  0
  4 33  1  0
  8 34  1  0
  8 35  1  0
  9 36  1  1
 10 37  1  0
 11 38  1  0
 11 39  1  0
 12 40  1  6
 13 41  1  0
 13 42  1  0
 14 43  1  0
 14 44  1  0
 16 45  1  0
 17 46  1  0
 18 47  1  0
 19 48  1  0
 20 49  1  0
 22 50  1  0
 23 51  1  0
 25 52  1  0
 26 53  1  0
 27 54  1  0
 28 55  1  0
M  END
>  <smiles>  (34) 
O=C(NCC(=O)N1C[C@H](O)C[C@H]1CCc1ccccc1)c1ccc2ccccc2n1

>  <score_type>  (34) 
oracle

>  <origin>  (34) 
autodockgpu

>  <m_score__min__energy>  (34) 
-9.2799999999999994

>  <m_primary>  (34) 
energy

>  <rmsd>  (34) 
4.732964183098992

>  <m_score__min__rmsd>  (34) 
4.732964183098992

>  <meeko>  (34) 
{"free_energy": -8.3, "intermolecular_energy": -10.69, "internal_energy": -1.51, "cluster_size": 1, "cluster_id": 7, "rank_in_cluster": 1}

>  <energy>  (34) 
-8.38

>  <cluster_rmsd>  (34) 
0.85

>  <cluster>  (34) 
4

$$$$

     RDKit          3D

 55 58  0  0  0  0  0  0  0  0999 V2000
  138.5920   75.6070  221.7600 O   0  0  0  0  0  0  0  0  0  0  0  0
  139.7970   75.9290  222.0440 C   0  0  0  0  0  0  0  0  0  0  0  0
  140.8610   74.9680  221.9300 N   0  0  0  0  0  0  0  0  0  0  0  0
  140.6380   73.6450  221.5020 C   0  0  0  0  0  0  0  0  0  0  0  0
  141.6030   73.0050  220.6390 C   0  0  0  0  0  0  0  0  0  0  0  0
  141.0910   72.1250  219.8250 O   0  0  0  0  0  0  0  0  0  0  0  0
  143.0130   73.1930  220.5550 N   0  0  0  0  0  0  0  0  0  0  0  0
  144.0460   72.1780  220.7340 C   0  0  0  0  0  0  0  0  0  0  0  0
  145.1050   72.6990  219.7410 C   0  0  2  0  0  0  0  0  0  0  0  0
  146.3350   72.1010  219.9440 O   0  0  0  0  0  0  0  0  0  0  0  0
  145.0910   74.1570  220.1440 C   0  0  0  0  0  0  0  0  0  0  0  0
  143.6240   74.4920  220.3040 C   0  0  1  0  0  0  0  0  0  0  0  0
  143.0670   75.2360  219.1500 C   0  0  0  0  0  0  0  0  0  0  0  0
  141.6910   75.8070  219.3360 C   0  0  0  0  0  0  0  0  0  0  0  0
  141.8220   77.2790  219.0290 C   0  0  0  0  0  0  0  0  0  0  0  0
  140.9660   78.2090  219.5710 C   0  0  0  0  0  0  0  0  0  0  0  0
  141.0470   79.5510  219.3210 C   0  0  0  0  0  0  0  0  0  0  0  0
  142.0560   79.9830  218.4710 C   0  0  0  0  0  0  0  0  0  0  0  0
  142.9400   79.0660  217.9060 C   0  0  0  0  0  0  0  0  0  0  0  0
  142.8280   77.7110  218.1810 C   0  0  0  0  0  0  0  0  0  0  0  0
  140.0980   77.3080  222.4960 C   0  0  0  0  0  0  0  0  0  0  0  0
  139.0470   78.1260  222.8530 C   0  0  0  0  0  0  0  0  0  0  0  0
  139.2410   79.4120  223.2800 C   0  0  0  0  0  0  0  0  0  0  0  0
  140.5430   79.8760  223.3440 C   0  0  0  0  0  0  0  0  0  0  0  0
  140.7570   81.1610  223.7700 C   0  0  0  0  0  0  0  0  0  0  0  0
  142.0510   81.6330  223.8370 C   0  0  0  0  0  0  0  0  0  0  0  0
  143.1230   80.8200  223.4790 C   0  0  0  0  0  0  0  0  0  0  0  0
  142.8980   79.5080  223.0460 C   0  0  0  0  0  0  0  0  0  0  0  0
  141.5970   79.0410  222.9810 C   0  0  0  0  0  0  0  0  0  0  0  0
  141.3610   77.7680  222.5610 N   0  0  0  0  0  0  0  0  0  0  0  0
  141.8180   75.3510  222.1970 H   0  0  0  0  0  0  0  0  0  0  0  0
  140.5574   73.0251  222.4071 H   0  0  0  0  0  0  0  0  0  0  0  0
  139.7403   73.7251  220.8714 H   0  0  0  0  0  0  0  0  0  0  0  0
  144.4270   72.1603  221.7657 H   0  0  0  0  0  0  0  0  0  0  0  0
  143.7154   71.1435  220.5596 H   0  0  0  0  0  0  0  0  0  0  0  0
  144.9098   72.5040  218.6762 H   0  0  0  0  0  0  0  0  0  0  0  0
  146.3170   71.7520  220.8920 H   0  0  0  0  0  0  0  0  0  0  0  0
  145.6289   74.3034  221.0923 H   0  0  0  0  0  0  0  0  0  0  0  0
  145.5885   74.8004  219.4034 H   0  0  0  0  0  0  0  0  0  0  0  0
  143.4231   75.1959  221.1251 H   0  0  0  0  0  0  0  0  0  0  0  0
  143.7494   76.0691  218.9259 H   0  0  0  0  0  0  0  0  0  0  0  0
  142.9745   74.4986  218.3390 H   0  0  0  0  0  0  0  0  0  0  0  0
  140.9804   75.3315  218.6440 H   0  0  0  0  0  0  0  0  0  0  0  0
  141.3108   75.6340  220.3536 H   0  0  0  0  0  0  0  0  0  0  0  0
  140.1715   77.8533  220.2435 H   0  0  0  0  0  0  0  0  0  0  0  0
  140.3401   80.2606  219.7757 H   0  0  0  0  0  0  0  0  0  0  0  0
  142.1581   81.0541  218.2424 H   0  0  0  0  0  0  0  0  0  0  0  0
  143.7357   79.4206  217.2343 H   0  0  0  0  0  0  0  0  0  0  0  0
  143.5277   76.9905  217.7323 H   0  0  0  0  0  0  0  0  0  0  0  0
  138.0213   77.7332  222.7928 H   0  0  0  0  0  0  0  0  0  0  0  0
  138.3928   80.0531  223.5620 H   0  0  0  0  0  0  0  0  0  0  0  0
  139.9112   81.8047  224.0535 H   0  0  0  0  0  0  0  0  0  0  0  0
  142.2381   82.6623  224.1768 H   0  0  0  0  0  0  0  0  0  0  0  0
  144.1500   81.2099  223.5366 H   0  0  0  0  0  0  0  0  0  0  0  0
  143.7403   78.8598  222.7625 H   0  0  0  0  0  0  0  0  0  0  0  0
  1  2  2  0
  2  3  1  0
  3  4  1  0
  4  5  1  0
  5  6  2  0
  5  7  1  0
  7  8  1  0
  8  9  1  0
  9 10  1  0
  9 11  1  0
 11 12  1  0
 12 13  1  0
 13 14  1  0
 14 15  1  0
 15 16  2  0
 16 17  1  0
 17 18  2  0
 18 19  1  0
 19 20  2  0
  2 21  1  0
 21 22  2  0
 22 23  1  0
 23 24  2  0
 24 25  1  0
 25 26  2  0
 26 27  1  0
 27 28  2  0
 28 29  1  0
 29 30  2  0
 12  7  1  0
 20 15  1  0
 30 21  1  0
 29 24  1  0
  3 31  1  0
  4 32  1  0
  4 33  1  0
  8 34  1  0
  8 35  1  0
  9 36  1  6
 10 37  1  0
 11 38  1  0
 11 39  1  0
 12 40  1  1
 13 41  1  0
 13 42  1  0
 14 43  1  0
 14 44  1  0
 16 45  1  0
 17 46  1  0
 18 47  1  0
 19 48  1  0
 20 49  1  0
 22 50  1  0
 23 51  1  0
 25 52  1  0
 26 53  1  0
 27 54  1  0
 28 55  1  0
M  END
>  <smiles>  (35) 
O=C(NCC(=O)N1C[C@H](O)C[C@H]1CCc1ccccc1)c1ccc2ccccc2n1

>  <score_type>  (35) 
oracle

>  <origin>  (35) 
autodockgpu

>  <m_score__min__energy>  (35) 
-9.2799999999999994

>  <m_primary>  (35) 
energy

>  <rmsd>  (35) 
7.470991871401247

>  <m_score__min__rmsd>  (35) 
7.470991871401247

>  <meeko>  (35) 
{"free_energy": -7.71, "intermolecular_energy": -10.09, "internal_energy": -2.58, "cluster_size": 7, "cluster_id": 8, "rank_in_cluster": 1}

>  <energy>  (35) 
-8.32

>  <cluster_rmsd>  (35) 
1.87

>  <cluster>  (35) 
4

$$$$

     RDKit          3D

 55 58  0  0  0  0  0  0  0  0999 V2000
  139.5720   71.2840  221.0800 O   0  0  0  0  0  0  0  0  0  0  0  0
  139.6230   71.9570  222.1660 C   0  0  0  0  0  0  0  0  0  0  0  0
  139.4990   73.3900  222.1510 N   0  0  0  0  0  0  0  0  0  0  0  0
  139.3120   74.1160  220.9590 C   0  0  0  0  0  0  0  0  0  0  0  0
  140.2590   73.9650  219.8790 C   0  0  0  0  0  0  0  0  0  0  0  0
  139.7160   73.6790  218.7290 O   0  0  0  0  0  0  0  0  0  0  0  0
  141.6790   74.0780  219.8930 N   0  0  0  0  0  0  0  0  0  0  0  0
  142.6430   73.1060  219.3860 C   0  0  0  0  0  0  0  0  0  0  0  0
  143.7500   74.0600  218.8940 C   0  0  2  0  0  0  0  0  0  0  0  0
  144.9360   73.3890  218.6570 O   0  0  0  0  0  0  0  0  0  0  0  0
  143.8210   74.9630  220.1060 C   0  0  0  0  0  0  0  0  0  0  0  0
  142.3760   75.2180  220.4740 C   0  0  1  0  0  0  0  0  0  0  0  0
  141.8880   76.5460  220.0330 C   0  0  0  0  0  0  0  0  0  0  0  0
  140.7190   77.1040  220.7910 C   0  0  0  0  0  0  0  0  0  0  0  0
  141.3000   78.1470  221.7150 C   0  0  0  0  0  0  0  0  0  0  0  0
  141.3250   77.9700  223.0790 C   0  0  0  0  0  0  0  0  0  0  0  0
  141.8400   78.8870  223.9530 C   0  0  0  0  0  0  0  0  0  0  0  0
  142.3650   80.0560  223.4170 C   0  0  0  0  0  0  0  0  0  0  0  0
  142.3550   80.2640  222.0390 C   0  0  0  0  0  0  0  0  0  0  0  0
  141.8230   79.3130  221.1820 C   0  0  0  0  0  0  0  0  0  0  0  0
  139.8130   71.2500  223.4550 C   0  0  0  0  0  0  0  0  0  0  0  0
  139.4850   69.9120  223.5250 C   0  0  0  0  0  0  0  0  0  0  0  0
  139.6310   69.1890  224.6770 C   0  0  0  0  0  0  0  0  0  0  0  0
  140.1250   69.8470  225.7890 C   0  0  0  0  0  0  0  0  0  0  0  0
  140.2780   69.1390  226.9520 C   0  0  0  0  0  0  0  0  0  0  0  0
  140.7680   69.7870  228.0670 C   0  0  0  0  0  0  0  0  0  0  0  0
  141.1040   71.1370  228.0130 C   0  0  0  0  0  0  0  0  0  0  0  0
  140.9460   71.8550  226.8210 C   0  0  0  0  0  0  0  0  0  0  0  0
  140.4530   71.1980  225.7080 C   0  0  0  0  0  0  0  0  0  0  0  0
  140.2920   71.8820  224.5420 N   0  0  0  0  0  0  0  0  0  0  0  0
  139.5610   73.8380  223.1150 H   0  0  0  0  0  0  0  0  0  0  0  0
  138.3262   73.8317  220.5624 H   0  0  0  0  0  0  0  0  0  0  0  0
  139.4404   75.1630  221.2710 H   0  0  0  0  0  0  0  0  0  0  0  0
  143.0042   72.4365  220.1805 H   0  0  0  0  0  0  0  0  0  0  0  0
  142.2503   72.4184  218.6225 H   0  0  0  0  0  0  0  0  0  0  0  0
  143.5621   74.5708  217.9381 H   0  0  0  0  0  0  0  0  0  0  0  0
  145.6070   74.1020  218.4090 H   0  0  0  0  0  0  0  0  0  0  0  0
  144.3503   74.4647  220.9316 H   0  0  0  0  0  0  0  0  0  0  0  0
  144.3711   75.8936  219.9025 H   0  0  0  0  0  0  0  0  0  0  0  0
  142.2057   75.2814  221.5589 H   0  0  0  0  0  0  0  0  0  0  0  0
  142.7208   77.2585  220.1271 H   0  0  0  0  0  0  0  0  0  0  0  0
  141.5312   76.4028  219.0024 H   0  0  0  0  0  0  0  0  0  0  0  0
  139.9958   77.5620  220.1002 H   0  0  0  0  0  0  0  0  0  0  0  0
  140.1802   76.3214  221.3454 H   0  0  0  0  0  0  0  0  0  0  0  0
  140.9074   77.0388  223.4895 H   0  0  0  0  0  0  0  0  0  0  0  0
  141.8386   78.7060  225.0380 H   0  0  0  0  0  0  0  0  0  0  0  0
  142.7906   80.8210  224.0832 H   0  0  0  0  0  0  0  0  0  0  0  0
  142.7741   81.1936  221.6265 H   0  0  0  0  0  0  0  0  0  0  0  0
  141.8165   79.4822  220.0951 H   0  0  0  0  0  0  0  0  0  0  0  0
  139.0941   69.4111  222.6270 H   0  0  0  0  0  0  0  0  0  0  0  0
  139.3651   68.1224  224.7177 H   0  0  0  0  0  0  0  0  0  0  0  0
  140.0146   68.0719  226.9959 H   0  0  0  0  0  0  0  0  0  0  0  0
  140.8945   69.2316  229.0080 H   0  0  0  0  0  0  0  0  0  0  0  0
  141.4947   71.6412  228.9092 H   0  0  0  0  0  0  0  0  0  0  0  0
  141.2091   72.9219  226.7707 H   0  0  0  0  0  0  0  0  0  0  0  0
  1  2  2  0
  2  3  1  0
  3  4  1  0
  4  5  1  0
  5  6  2  0
  5  7  1  0
  7  8  1  0
  8  9  1  0
  9 10  1  0
  9 11  1  0
 11 12  1  0
 12 13  1  0
 13 14  1  0
 14 15  1  0
 15 16  2  0
 16 17  1  0
 17 18  2  0
 18 19  1  0
 19 20  2  0
  2 21  1  0
 21 22  2  0
 22 23  1  0
 23 24  2  0
 24 25  1  0
 25 26  2  0
 26 27  1  0
 27 28  2  0
 28 29  1  0
 29 30  2  0
 12  7  1  0
 20 15  1  0
 30 21  1  0
 29 24  1  0
  3 31  1  0
  4 32  1  0
  4 33  1  0
  8 34  1  0
  8 35  1  0
  9 36  1  6
 10 37  1  0
 11 38  1  0
 11 39  1  0
 12 40  1  1
 13 41  1  0
 13 42  1  0
 14 43  1  0
 14 44  1  0
 16 45  1  0
 17 46  1  0
 18 47  1  0
 19 48  1  0
 20 49  1  0
 22 50  1  0
 23 51  1  0
 25 52  1  0
 26 53  1  0
 27 54  1  0
 28 55  1  0
M  END
>  <smiles>  (36) 
O=C(NCC(=O)N1C[C@H](O)C[C@H]1CCc1ccccc1)c1ccc2ccccc2n1

>  <score_type>  (36) 
oracle

>  <origin>  (36) 
autodockgpu

>  <m_score__min__energy>  (36) 
-9.2799999999999994

>  <m_primary>  (36) 
energy

>  <rmsd>  (36) 
2.2976687958625113

>  <m_score__min__rmsd>  (36) 
2.2976687958625113

>  <meeko>  (36) 
{"free_energy": -8.72, "intermolecular_energy": -11.1, "internal_energy": -1.69, "cluster_size": 24, "cluster_id": 1, "rank_in_cluster": 13}

>  <energy>  (36) 
-8.26

>  <cluster_rmsd>  (36) 
1.21

>  <cluster>  (36) 
4

$$$$

     RDKit          3D

 55 58  0  0  0  0  0  0  0  0999 V2000
  137.3070   76.3460  222.1830 O   0  0  0  0  0  0  0  0  0  0  0  0
  138.5720   76.3640  222.3750 C   0  0  0  0  0  0  0  0  0  0  0  0
  139.3520   75.1610  222.2530 N   0  0  0  0  0  0  0  0  0  0  0  0
  138.7750   73.9220  221.9150 C   0  0  0  0  0  0  0  0  0  0  0  0
  139.5060   72.7040  222.1750 C   0  0  0  0  0  0  0  0  0  0  0  0
  140.6720   72.8880  222.7290 O   0  0  0  0  0  0  0  0  0  0  0  0
  139.1430   71.3510  221.9130 N   0  0  0  0  0  0  0  0  0  0  0  0
  139.5770   70.5270  220.7900 C   0  0  0  0  0  0  0  0  0  0  0  0
  139.6180   69.1450  221.4740 C   0  0  2  0  0  0  0  0  0  0  0  0
  139.6900   68.1190  220.5510 O   0  0  0  0  0  0  0  0  0  0  0  0
  138.2810   69.2060  222.1790 C   0  0  0  0  0  0  0  0  0  0  0  0
  138.2200   70.6030  222.7570 C   0  0  1  0  0  0  0  0  0  0  0  0
  138.5160   70.6470  224.2080 C   0  0  0  0  0  0  0  0  0  0  0  0
  139.7020   69.8470  224.6620 C   0  0  0  0  0  0  0  0  0  0  0  0
  140.1730   70.5130  225.9320 C   0  0  0  0  0  0  0  0  0  0  0  0
  139.8310   70.0250  227.1730 C   0  0  0  0  0  0  0  0  0  0  0  0
  140.2340   70.5950  228.3490 C   0  0  0  0  0  0  0  0  0  0  0  0
  141.0340   71.7280  228.2690 C   0  0  0  0  0  0  0  0  0  0  0  0
  141.3980   72.2460  227.0280 C   0  0  0  0  0  0  0  0  0  0  0  0
  140.9700   71.6430  225.8550 C   0  0  0  0  0  0  0  0  0  0  0  0
  139.2390   77.6390  222.7280 C   0  0  0  0  0  0  0  0  0  0  0  0
  138.4520   78.7210  223.0630 C   0  0  0  0  0  0  0  0  0  0  0  0
  138.9910   79.9330  223.4020 C   0  0  0  0  0  0  0  0  0  0  0  0
  140.3700   80.0450  223.3980 C   0  0  0  0  0  0  0  0  0  0  0  0
  140.9270   81.2500  223.7330 C   0  0  0  0  0  0  0  0  0  0  0  0
  142.3010   81.3720  223.7320 C   0  0  0  0  0  0  0  0  0  0  0  0
  143.1100   80.2890  223.3960 C   0  0  0  0  0  0  0  0  0  0  0  0
  142.5340   79.0600  223.0540 C   0  0  0  0  0  0  0  0  0  0  0  0
  141.1550   78.9450  223.0580 C   0  0  0  0  0  0  0  0  0  0  0  0
  140.5790   77.7570  222.7270 N   0  0  0  0  0  0  0  0  0  0  0  0
  140.3910   75.3000  222.4400 H   0  0  0  0  0  0  0  0  0  0  0  0
  137.8259   73.8497  222.4663 H   0  0  0  0  0  0  0  0  0  0  0  0
  138.7116   73.9567  220.8174 H   0  0  0  0  0  0  0  0  0  0  0  0
  138.8535   70.5515  219.9617 H   0  0  0  0  0  0  0  0  0  0  0  0
  140.5216   70.8411  220.3219 H   0  0  0  0  0  0  0  0  0  0  0  0
  140.4833   68.9496  222.1245 H   0  0  0  0  0  0  0  0  0  0  0  0
  140.1730   67.3650  221.0170 H   0  0  0  0  0  0  0  0  0  0  0  0
  137.4584   69.0437  221.4670 H   0  0  0  0  0  0  0  0  0  0  0  0
  138.1799   68.4293  222.9514 H   0  0  0  0  0  0  0  0  0  0  0  0
  137.2116   71.0420  222.7360 H   0  0  0  0  0  0  0  0  0  0  0  0
  138.6929   71.6971  224.4837 H   0  0  0  0  0  0  0  0  0  0  0  0
  137.6448   70.1925  224.7023 H   0  0  0  0  0  0  0  0  0  0  0  0
  139.4104   68.8049  224.8593 H   0  0  0  0  0  0  0  0  0  0  0  0
  140.4927   69.8184  223.8978 H   0  0  0  0  0  0  0  0  0  0  0  0
  139.1983   69.1265  227.2214 H   0  0  0  0  0  0  0  0  0  0  0  0
  139.9364   70.1729  229.3202 H   0  0  0  0  0  0  0  0  0  0  0  0
  141.3818   72.2185  229.1901 H   0  0  0  0  0  0  0  0  0  0  0  0
  142.0321   73.1435  226.9781 H   0  0  0  0  0  0  0  0  0  0  0  0
  141.2593   72.0562  224.8775 H   0  0  0  0  0  0  0  0  0  0  0  0
  137.3580   78.6067  223.0577 H   0  0  0  0  0  0  0  0  0  0  0  0
  138.3507   80.7870  223.6680 H   0  0  0  0  0  0  0  0  0  0  0  0
  140.2896   82.1063  223.9985 H   0  0  0  0  0  0  0  0  0  0  0  0
  142.7624   82.3341  223.9992 H   0  0  0  0  0  0  0  0  0  0  0  0
  144.2044   80.3999  223.3994 H   0  0  0  0  0  0  0  0  0  0  0  0
  143.1665   78.2006  222.7867 H   0  0  0  0  0  0  0  0  0  0  0  0
  1  2  2  0
  2  3  1  0
  3  4  1  0
  4  5  1  0
  5  6  2  0
  5  7  1  0
  7  8  1  0
  8  9  1  0
  9 10  1  0
  9 11  1  0
 11 12  1  0
 12 13  1  0
 13 14  1  0
 14 15  1  0
 15 16  2  0
 16 17  1  0
 17 18  2  0
 18 19  1  0
 19 20  2  0
  2 21  1  0
 21 22  2  0
 22 23  1  0
 23 24  2  0
 24 25  1  0
 25 26  2  0
 26 27  1  0
 27 28  2  0
 28 29  1  0
 29 30  2  0
 12  7  1  0
 20 15  1  0
 30 21  1  0
 29 24  1  0
  3 31  1  0
  4 32  1  0
  4 33  1  0
  8 34  1  0
  8 35  1  0
  9 36  1  1
 10 37  1  0
 11 38  1  0
 11 39  1  0
 12 40  1  1
 13 41  1  0
 13 42  1  0
 14 43  1  0
 14 44  1  0
 16 45  1  0
 17 46  1  0
 18 47  1  0
 19 48  1  0
 20 49  1  0
 22 50  1  0
 23 51  1  0
 25 52  1  0
 26 53  1  0
 27 54  1  0
 28 55  1  0
M  END
>  <smiles>  (37) 
O=C(NCC(=O)N1C[C@H](O)C[C@H]1CCc1ccccc1)c1ccc2ccccc2n1

>  <score_type>  (37) 
oracle

>  <origin>  (37) 
autodockgpu

>  <m_score__min__energy>  (37) 
-9.2799999999999994

>  <m_primary>  (37) 
energy

>  <rmsd>  (37) 
8.497661870351472

>  <m_score__min__rmsd>  (37) 
8.497661870351472

>  <meeko>  (37) 
{"free_energy": -8.38, "intermolecular_energy": -10.77, "internal_energy": -1.93, "cluster_size": 7, "cluster_id": 4, "rank_in_cluster": 5}

>  <energy>  (37) 
-8.79

>  <cluster_rmsd>  (37) 
0.0

>  <cluster>  (37) 
5

$$$$

     RDKit          3D

 55 58  0  0  0  0  0  0  0  0999 V2000
  138.5590   75.6370  221.8000 O   0  0  0  0  0  0  0  0  0  0  0  0
  139.7860   75.9590  221.9660 C   0  0  0  0  0  0  0  0  0  0  0  0
  140.8370   75.0130  221.7040 N   0  0  0  0  0  0  0  0  0  0  0  0
  140.5760   73.7050  221.2510 C   0  0  0  0  0  0  0  0  0  0  0  0
  141.6750   72.7890  221.0530 C   0  0  0  0  0  0  0  0  0  0  0  0
  141.3420   71.5310  221.1260 O   0  0  0  0  0  0  0  0  0  0  0  0
  143.0500   73.0610  220.7980 N   0  0  0  0  0  0  0  0  0  0  0  0
  144.1520   72.1030  220.8070 C   0  0  0  0  0  0  0  0  0  0  0  0
  145.0440   72.7140  219.7080 C   0  0  2  0  0  0  0  0  0  0  0  0
  146.3210   72.1820  219.7300 O   0  0  0  0  0  0  0  0  0  0  0  0
  145.0030   74.1560  220.1620 C   0  0  0  0  0  0  0  0  0  0  0  0
  143.5530   74.4000  220.5190 C   0  0  1  0  0  0  0  0  0  0  0  0
  142.8130   75.1450  219.4730 C   0  0  0  0  0  0  0  0  0  0  0  0
  143.3020   76.5340  219.1830 C   0  0  0  0  0  0  0  0  0  0  0  0
  142.0690   77.4050  219.1980 C   0  0  0  0  0  0  0  0  0  0  0  0
  140.8180   76.8910  218.9450 C   0  0  0  0  0  0  0  0  0  0  0  0
  139.6750   77.6410  218.9480 C   0  0  0  0  0  0  0  0  0  0  0  0
  139.8000   78.9960  219.2260 C   0  0  0  0  0  0  0  0  0  0  0  0
  141.0540   79.5470  219.4880 C   0  0  0  0  0  0  0  0  0  0  0  0
  142.1930   78.7560  219.4750 C   0  0  0  0  0  0  0  0  0  0  0  0
  140.1260   77.3230  222.4360 C   0  0  0  0  0  0  0  0  0  0  0  0
  139.0970   78.1780  222.7710 C   0  0  0  0  0  0  0  0  0  0  0  0
  139.3280   79.4520  223.2130 C   0  0  0  0  0  0  0  0  0  0  0  0
  140.6440   79.8670  223.3160 C   0  0  0  0  0  0  0  0  0  0  0  0
  140.8950   81.1400  223.7560 C   0  0  0  0  0  0  0  0  0  0  0  0
  142.2030   81.5630  223.8610 C   0  0  0  0  0  0  0  0  0  0  0  0
  143.2540   80.7120  223.5270 C   0  0  0  0  0  0  0  0  0  0  0  0
  142.9910   79.4120  223.0780 C   0  0  0  0  0  0  0  0  0  0  0  0
  141.6750   78.9950  222.9750 C   0  0  0  0  0  0  0  0  0  0  0  0
  141.4030   77.7350  222.5390 N   0  0  0  0  0  0  0  0  0  0  0  0
  141.8150   75.3940  221.8820 H   0  0  0  0  0  0  0  0  0  0  0  0
  139.9008   73.2409  221.9849 H   0  0  0  0  0  0  0  0  0  0  0  0
  140.1800   73.8570  220.2361 H   0  0  0  0  0  0  0  0  0  0  0  0
  144.6631   72.0773  221.7807 H   0  0  0  0  0  0  0  0  0  0  0  0
  143.8585   71.0564  220.6380 H   0  0  0  0  0  0  0  0  0  0  0  0
  144.7240   72.5398  218.6701 H   0  0  0  0  0  0  0  0  0  0  0  0
  146.3250   71.5140  220.4870 H   0  0  0  0  0  0  0  0  0  0  0  0
  145.6498   74.3060  221.0390 H   0  0  0  0  0  0  0  0  0  0  0  0
  145.3654   74.8486  219.3880 H   0  0  0  0  0  0  0  0  0  0  0  0
  143.4216   75.0661  221.3845 H   0  0  0  0  0  0  0  0  0  0  0  0
  142.8741   74.5652  218.5402 H   0  0  0  0  0  0  0  0  0  0  0  0
  141.7913   75.2659  219.8622 H   0  0  0  0  0  0  0  0  0  0  0  0
  144.0133   76.8607  219.9559 H   0  0  0  0  0  0  0  0  0  0  0  0
  143.8296   76.5888  218.2193 H   0  0  0  0  0  0  0  0  0  0  0  0
  140.7327   75.8160  218.7281 H   0  0  0  0  0  0  0  0  0  0  0  0
  138.6944   77.1888  218.7384 H   0  0  0  0  0  0  0  0  0  0  0  0
  138.9063   79.6371  219.2396 H   0  0  0  0  0  0  0  0  0  0  0  0
  141.1407   80.6214  219.7075 H   0  0  0  0  0  0  0  0  0  0  0  0
  143.1801   79.1952  219.6816 H   0  0  0  0  0  0  0  0  0  0  0  0
  138.0592   77.8250  222.6801 H   0  0  0  0  0  0  0  0  0  0  0  0
  138.4970   80.1226  223.4771 H   0  0  0  0  0  0  0  0  0  0  0  0
  140.0666   81.8134  224.0211 H   0  0  0  0  0  0  0  0  0  0  0  0
  142.4188   82.5829  224.2121 H   0  0  0  0  0  0  0  0  0  0  0  0
  144.2930   81.0620  223.6162 H   0  0  0  0  0  0  0  0  0  0  0  0
  143.8154   78.7342  222.8119 H   0  0  0  0  0  0  0  0  0  0  0  0
  1  2  2  0
  2  3  1  0
  3  4  1  0
  4  5  1  0
  5  6  2  0
  5  7  1  0
  7  8  1  0
  8  9  1  0
  9 10  1  0
  9 11  1  0
 11 12  1  0
 12 13  1  0
 13 14  1  0
 14 15  1  0
 15 16  2  0
 16 17  1  0
 17 18  2  0
 18 19  1  0
 19 20  2  0
  2 21  1  0
 21 22  2  0
 22 23  1  0
 23 24  2  0
 24 25  1  0
 25 26  2  0
 26 27  1  0
 27 28  2  0
 28 29  1  0
 29 30  2  0
 12  7  1  0
 20 15  1  0
 30 21  1  0
 29 24  1  0
  3 31  1  0
  4 32  1  0
  4 33  1  0
  8 34  1  0
  8 35  1  0
  9 36  1  6
 10 37  1  0
 11 38  1  0
 11 39  1  0
 12 40  1  1
 13 41  1  0
 13 42  1  0
 14 43  1  0
 14 44  1  0
 16 45  1  0
 17 46  1  0
 18 47  1  0
 19 48  1  0
 20 49  1  0
 22 50  1  0
 23 51  1  0
 25 52  1  0
 26 53  1  0
 27 54  1  0
 28 55  1  0
M  END
>  <smiles>  (38) 
O=C(NCC(=O)N1C[C@H](O)C[C@H]1CCc1ccccc1)c1ccc2ccccc2n1

>  <score_type>  (38) 
oracle

>  <origin>  (38) 
autodockgpu

>  <m_score__min__energy>  (38) 
-9.2799999999999994

>  <m_primary>  (38) 
energy

>  <rmsd>  (38) 
7.536875525645209

>  <m_score__min__rmsd>  (38) 
7.536875525645209

>  <meeko>  (38) 
{"free_energy": -7.42, "intermolecular_energy": -9.81, "internal_energy": -3.15, "cluster_size": 7, "cluster_id": 8, "rank_in_cluster": 3}

>  <energy>  (38) 
-8.31

>  <cluster_rmsd>  (38) 
0.96

>  <cluster>  (38) 
5

$$$$

     RDKit          3D

 55 58  0  0  0  0  0  0  0  0999 V2000
  141.0230   71.2450  221.7040 O   0  0  0  0  0  0  0  0  0  0  0  0
  140.4940   71.8610  222.6920 C   0  0  0  0  0  0  0  0  0  0  0  0
  139.9930   73.2010  222.5410 N   0  0  0  0  0  0  0  0  0  0  0  0
  140.0520   73.8930  221.3160 C   0  0  0  0  0  0  0  0  0  0  0  0
  140.8410   75.0980  221.2170 C   0  0  0  0  0  0  0  0  0  0  0  0
  140.5570   75.9970  222.1180 O   0  0  0  0  0  0  0  0  0  0  0  0
  141.8650   75.4410  220.2880 N   0  0  0  0  0  0  0  0  0  0  0  0
  142.5930   74.5320  219.4080 C   0  0  0  0  0  0  0  0  0  0  0  0
  142.8170   75.4590  218.1960 C   0  0  2  0  0  0  0  0  0  0  0  0
  143.7710   74.9520  217.3330 O   0  0  0  0  0  0  0  0  0  0  0  0
  143.2950   76.6870  218.9390 C   0  0  0  0  0  0  0  0  0  0  0  0
  142.3580   76.8020  220.1230 C   0  0  1  0  0  0  0  0  0  0  0  0
  141.3110   77.8330  219.9380 C   0  0  0  0  0  0  0  0  0  0  0  0
  141.7930   79.2500  219.8300 C   0  0  0  0  0  0  0  0  0  0  0  0
  141.8040   79.7800  221.2430 C   0  0  0  0  0  0  0  0  0  0  0  0
  141.8240   78.9380  222.3310 C   0  0  0  0  0  0  0  0  0  0  0  0
  141.8340   79.3720  223.6270 C   0  0  0  0  0  0  0  0  0  0  0  0
  141.8250   80.7440  223.8410 C   0  0  0  0  0  0  0  0  0  0  0  0
  141.8060   81.6250  222.7600 C   0  0  0  0  0  0  0  0  0  0  0  0
  141.7940   81.1480  221.4580 C   0  0  0  0  0  0  0  0  0  0  0  0
  140.3980   71.1850  224.0070 C   0  0  0  0  0  0  0  0  0  0  0  0
  140.7720   71.8850  225.1350 C   0  0  0  0  0  0  0  0  0  0  0  0
  140.7120   71.3320  226.3850 C   0  0  0  0  0  0  0  0  0  0  0  0
  140.2600   70.0290  226.4890 C   0  0  0  0  0  0  0  0  0  0  0  0
  140.1940   69.4580  227.7330 C   0  0  0  0  0  0  0  0  0  0  0  0
  139.7450   68.1590  227.8470 C   0  0  0  0  0  0  0  0  0  0  0  0
  139.3640   67.4380  226.7180 C   0  0  0  0  0  0  0  0  0  0  0  0
  139.4330   68.0270  225.4490 C   0  0  0  0  0  0  0  0  0  0  0  0
  139.8850   69.3300  225.3430 C   0  0  0  0  0  0  0  0  0  0  0  0
  139.9600   69.9170  224.1170 N   0  0  0  0  0  0  0  0  0  0  0  0
  139.5800   73.6100  223.4330 H   0  0  0  0  0  0  0  0  0  0  0  0
  140.4485   73.1889  220.5697 H   0  0  0  0  0  0  0  0  0  0  0  0
  139.0208   74.2469  221.1695 H   0  0  0  0  0  0  0  0  0  0  0  0
  143.5440   74.2056  219.8541 H   0  0  0  0  0  0  0  0  0  0  0  0
  142.0733   73.5893  219.1817 H   0  0  0  0  0  0  0  0  0  0  0  0
  141.9496   75.6162  217.5380 H   0  0  0  0  0  0  0  0  0  0  0  0
  144.6540   75.3240  217.6530 H   0  0  0  0  0  0  0  0  0  0  0  0
  144.3339   76.5575  219.2764 H   0  0  0  0  0  0  0  0  0  0  0  0
  143.2847   77.5881  218.3082 H   0  0  0  0  0  0  0  0  0  0  0  0
  142.8498   77.1640  221.0379 H   0  0  0  0  0  0  0  0  0  0  0  0
  140.7622   77.5932  219.0153 H   0  0  0  0  0  0  0  0  0  0  0  0
  140.6968   77.7980  220.8499 H   0  0  0  0  0  0  0  0  0  0  0  0
  142.8050   79.2803  219.4000 H   0  0  0  0  0  0  0  0  0  0  0  0
  141.1480   79.8519  219.1730 H   0  0  0  0  0  0  0  0  0  0  0  0
  141.8324   77.8535  222.1473 H   0  0  0  0  0  0  0  0  0  0  0  0
  141.8486   78.6624  224.4674 H   0  0  0  0  0  0  0  0  0  0  0  0
  141.8329   81.1379  224.8680 H   0  0  0  0  0  0  0  0  0  0  0  0
  141.8005   82.7098  222.9422 H   0  0  0  0  0  0  0  0  0  0  0  0
  141.7768   81.8462  220.6082 H   0  0  0  0  0  0  0  0  0  0  0  0
  141.1295   72.9196  225.0263 H   0  0  0  0  0  0  0  0  0  0  0  0
  141.0126   71.9034  227.2756 H   0  0  0  0  0  0  0  0  0  0  0  0
  140.4941   70.0263  228.6257 H   0  0  0  0  0  0  0  0  0  0  0  0
  139.6872   67.6878  228.8393 H   0  0  0  0  0  0  0  0  0  0  0  0
  139.0077   66.4026  226.8232 H   0  0  0  0  0  0  0  0  0  0  0  0
  139.1332   67.4636  224.5531 H   0  0  0  0  0  0  0  0  0  0  0  0
  1  2  2  0
  2  3  1  0
  3  4  1  0
  4  5  1  0
  5  6  2  0
  5  7  1  0
  7  8  1  0
  8  9  1  0
  9 10  1  0
  9 11  1  0
 11 12  1  0
 12 13  1  0
 13 14  1  0
 14 15  1  0
 15 16  2  0
 16 17  1  0
 17 18  2  0
 18 19  1  0
 19 20  2  0
  2 21  1  0
 21 22  2  0
 22 23  1  0
 23 24  2  0
 24 25  1  0
 25 26  2  0
 26 27  1  0
 27 28  2  0
 28 29  1  0
 29 30  2  0
 12  7  1  0
 20 15  1  0
 30 21  1  0
 29 24  1  0
  3 31  1  0
  4 32  1  0
  4 33  1  0
  8 34  1  0
  8 35  1  0
  9 36  1  6
 10 37  1  0
 11 38  1  0
 11 39  1  0
 12 40  1  1
 13 41  1  0
 13 42  1  0
 14 43  1  0
 14 44  1  0
 16 45  1  0
 17 46  1  0
 18 47  1  0
 19 48  1  0
 20 49  1  0
 22 50  1  0
 23 51  1  0
 25 52  1  0
 26 53  1  0
 27 54  1  0
 28 55  1  0
M  END
>  <smiles>  (39) 
O=C(NCC(=O)N1C[C@H](O)C[C@H]1CCc1ccccc1)c1ccc2ccccc2n1

>  <score_type>  (39) 
oracle

>  <origin>  (39) 
autodockgpu

>  <m_score__min__energy>  (39) 
-9.2799999999999994

>  <m_primary>  (39) 
energy

>  <rmsd>  (39) 
3.240999145231821

>  <m_score__min__rmsd>  (39) 
3.240999145231821

>  <meeko>  (39) 
{"free_energy": -9.07, "intermolecular_energy": -11.46, "internal_energy": -1.3, "cluster_size": 24, "cluster_id": 1, "rank_in_cluster": 8}

>  <energy>  (39) 
-8.61

>  <cluster_rmsd>  (39) 
0.0

>  <cluster>  (39) 
6

$$$$

     RDKit          3D

 55 58  0  0  0  0  0  0  0  0999 V2000
  139.6100   71.1000  221.3140 O   0  0  0  0  0  0  0  0  0  0  0  0
  139.6500   71.8050  222.3800 C   0  0  0  0  0  0  0  0  0  0  0  0
  139.5010   73.2350  222.3220 N   0  0  0  0  0  0  0  0  0  0  0  0
  139.3020   73.9220  221.1100 C   0  0  0  0  0  0  0  0  0  0  0  0
  140.2590   73.7660  220.0390 C   0  0  0  0  0  0  0  0  0  0  0  0
  139.7630   73.2520  218.9490 O   0  0  0  0  0  0  0  0  0  0  0  0
  141.6470   74.0860  220.0070 N   0  0  0  0  0  0  0  0  0  0  0  0
  142.7370   73.2230  219.5620 C   0  0  0  0  0  0  0  0  0  0  0  0
  143.6860   74.2810  218.9620 C   0  0  2  0  0  0  0  0  0  0  0  0
  144.9540   73.7730  218.7540 O   0  0  0  0  0  0  0  0  0  0  0  0
  143.6380   75.2890  220.0900 C   0  0  0  0  0  0  0  0  0  0  0  0
  142.1750   75.3630  220.4710 C   0  0  1  0  0  0  0  0  0  0  0  0
  141.4910   76.5610  219.9300 C   0  0  0  0  0  0  0  0  0  0  0  0
  142.1880   77.8720  220.1500 C   0  0  0  0  0  0  0  0  0  0  0  0
  141.6410   78.4030  221.4530 C   0  0  0  0  0  0  0  0  0  0  0  0
  142.3660   79.2640  222.2440 C   0  0  0  0  0  0  0  0  0  0  0  0
  141.9120   79.7690  223.4300 C   0  0  0  0  0  0  0  0  0  0  0  0
  140.6430   79.3830  223.8450 C   0  0  0  0  0  0  0  0  0  0  0  0
  139.8830   78.5130  223.0650 C   0  0  0  0  0  0  0  0  0  0  0  0
  140.3760   78.0190  221.8680 C   0  0  0  0  0  0  0  0  0  0  0  0
  139.8510   71.1400  223.6890 C   0  0  0  0  0  0  0  0  0  0  0  0
  139.5420   69.8010  223.8000 C   0  0  0  0  0  0  0  0  0  0  0  0
  139.7000   69.1150  224.9740 C   0  0  0  0  0  0  0  0  0  0  0  0
  140.1860   69.8130  226.0640 C   0  0  0  0  0  0  0  0  0  0  0  0
  140.3510   69.1430  227.2480 C   0  0  0  0  0  0  0  0  0  0  0  0
  140.8350   69.8310  228.3410 C   0  0  0  0  0  0  0  0  0  0  0  0
  141.1520   71.1830  228.2460 C   0  0  0  0  0  0  0  0  0  0  0  0
  140.9820   71.8630  227.0330 C   0  0  0  0  0  0  0  0  0  0  0  0
  140.4960   71.1660  225.9410 C   0  0  0  0  0  0  0  0  0  0  0  0
  140.3240   71.8120  224.7550 N   0  0  0  0  0  0  0  0  0  0  0  0
  139.5550   73.7130  223.2720 H   0  0  0  0  0  0  0  0  0  0  0  0
  138.3262   73.6009  220.7166 H   0  0  0  0  0  0  0  0  0  0  0  0
  139.4012   74.9802  221.3933 H   0  0  0  0  0  0  0  0  0  0  0  0
  143.2022   72.6864  220.4020 H   0  0  0  0  0  0  0  0  0  0  0  0
  142.4406   72.4203  218.8708 H   0  0  0  0  0  0  0  0  0  0  0  0
  143.4130   74.6715  217.9706 H   0  0  0  0  0  0  0  0  0  0  0  0
  145.4590   74.4920  218.2560 H   0  0  0  0  0  0  0  0  0  0  0  0
  144.2448   74.9482  220.9419 H   0  0  0  0  0  0  0  0  0  0  0  0
  144.0427   76.2679  219.7934 H   0  0  0  0  0  0  0  0  0  0  0  0
  142.0103   75.4974  221.5502 H   0  0  0  0  0  0  0  0  0  0  0  0
  141.3732   76.4203  218.8454 H   0  0  0  0  0  0  0  0  0  0  0  0
  140.5412   76.6340  220.4801 H   0  0  0  0  0  0  0  0  0  0  0  0
  143.2754   77.7225  220.2215 H   0  0  0  0  0  0  0  0  0  0  0  0
  142.0158   78.5715  219.3187 H   0  0  0  0  0  0  0  0  0  0  0  0
  143.3680   79.5629  221.9025 H   0  0  0  0  0  0  0  0  0  0  0  0
  142.5267   80.4540  224.0324 H   0  0  0  0  0  0  0  0  0  0  0  0
  140.2367   79.7656  224.7929 H   0  0  0  0  0  0  0  0  0  0  0  0
  138.8798   78.2150  223.4038 H   0  0  0  0  0  0  0  0  0  0  0  0
  139.7723   77.3324  221.2564 H   0  0  0  0  0  0  0  0  0  0  0  0
  139.1568   69.2677  222.9184 H   0  0  0  0  0  0  0  0  0  0  0  0
  139.4492   68.0465  225.0476 H   0  0  0  0  0  0  0  0  0  0  0  0
  140.1016   68.0744  227.3254 H   0  0  0  0  0  0  0  0  0  0  0  0
  140.9719   69.3058  229.2978 H   0  0  0  0  0  0  0  0  0  0  0  0
  141.5371   71.7191  229.1259 H   0  0  0  0  0  0  0  0  0  0  0  0
  141.2303   72.9314  226.9503 H   0  0  0  0  0  0  0  0  0  0  0  0
  1  2  2  0
  2  3  1  0
  3  4  1  0
  4  5  1  0
  5  6  2  0
  5  7  1  0
  7  8  1  0
  8  9  1  0
  9 10  1  0
  9 11  1  0
 11 12  1  0
 12 13  1  0
 13 14  1  0
 14 15  1  0
 15 16  2  0
 16 17  1  0
 17 18  2  0
 18 19  1  0
 19 20  2  0
  2 21  1  0
 21 22  2  0
 22 23  1  0
 23 24  2  0
 24 25  1  0
 25 26  2  0
 26 27  1  0
 27 28  2  0
 28 29  1  0
 29 30  2  0
 12  7  1  0
 20 15  1  0
 30 21  1  0
 29 24  1  0
  3 31  1  0
  4 32  1  0
  4 33  1  0
  8 34  1  0
  8 35  1  0
  9 36  1  6
 10 37  1  0
 11 38  1  0
 11 39  1  0
 12 40  1  1
 13 41  1  0
 13 42  1  0
 14 43  1  0
 14 44  1  0
 16 45  1  0
 17 46  1  0
 18 47  1  0
 19 48  1  0
 20 49  1  0
 22 50  1  0
 23 51  1  0
 25 52  1  0
 26 53  1  0
 27 54  1  0
 28 55  1  0
M  END
>  <smiles>  (40) 
O=C(NCC(=O)N1C[C@H](O)C[C@H]1CCc1ccccc1)c1ccc2ccccc2n1

>  <score_type>  (40) 
oracle

>  <origin>  (40) 
autodockgpu

>  <m_score__min__energy>  (40) 
-9.2799999999999994

>  <m_primary>  (40) 
energy

>  <rmsd>  (40) 
2.387047835744125

>  <m_score__min__rmsd>  (40) 
2.387047835744125

>  <meeko>  (40) 
{"free_energy": -8.48, "intermolecular_energy": -10.87, "internal_energy": -1.69, "cluster_size": 24, "cluster_id": 1, "rank_in_cluster": 20}

>  <energy>  (40) 
-8.13

>  <cluster_rmsd>  (40) 
1.48

>  <cluster>  (40) 
6

$$$$

     RDKit          3D

 55 58  0  0  0  0  0  0  0  0999 V2000
  138.5010   75.5950  222.1980 O   0  0  0  0  0  0  0  0  0  0  0  0
  139.7300   75.9440  222.2480 C   0  0  0  0  0  0  0  0  0  0  0  0
  140.7740   75.0110  221.9160 N   0  0  0  0  0  0  0  0  0  0  0  0
  140.5020   73.6880  221.5190 C   0  0  0  0  0  0  0  0  0  0  0  0
  141.5020   72.9470  220.7870 C   0  0  0  0  0  0  0  0  0  0  0  0
  141.0350   71.9180  220.1370 O   0  0  0  0  0  0  0  0  0  0  0  0
  142.9050   73.1750  220.6780 N   0  0  0  0  0  0  0  0  0  0  0  0
  143.9670   72.1780  220.7760 C   0  0  0  0  0  0  0  0  0  0  0  0
  144.9860   72.7780  219.7870 C   0  0  2  0  0  0  0  0  0  0  0  0
  146.2350   72.2010  219.9260 O   0  0  0  0  0  0  0  0  0  0  0  0
  144.9480   74.2120  220.2680 C   0  0  0  0  0  0  0  0  0  0  0  0
  143.4770   74.5000  220.4830 C   0  0  1  0  0  0  0  0  0  0  0  0
  142.8730   75.2910  219.3850 C   0  0  0  0  0  0  0  0  0  0  0  0
  143.3240   76.7190  219.2770 C   0  0  0  0  0  0  0  0  0  0  0  0
  142.0630   77.5450  219.3510 C   0  0  0  0  0  0  0  0  0  0  0  0
  142.1000   78.9030  219.5680 C   0  0  0  0  0  0  0  0  0  0  0  0
  140.9850   79.6910  219.6420 C   0  0  0  0  0  0  0  0  0  0  0  0
  139.7520   79.0690  219.4870 C   0  0  0  0  0  0  0  0  0  0  0  0
  139.6810   77.6950  219.2650 C   0  0  0  0  0  0  0  0  0  0  0  0
  140.8330   76.9260  219.1970 C   0  0  0  0  0  0  0  0  0  0  0  0
  140.0810   77.3260  222.6540 C   0  0  0  0  0  0  0  0  0  0  0  0
  139.0620   78.1860  223.0030 C   0  0  0  0  0  0  0  0  0  0  0  0
  139.3030   79.4770  223.3900 C   0  0  0  0  0  0  0  0  0  0  0  0
  140.6190   79.9020  223.4200 C   0  0  0  0  0  0  0  0  0  0  0  0
  140.8800   81.1910  223.8040 C   0  0  0  0  0  0  0  0  0  0  0  0
  142.1890   81.6240  223.8380 C   0  0  0  0  0  0  0  0  0  0  0  0
  143.2300   80.7670  223.4880 C   0  0  0  0  0  0  0  0  0  0  0  0
  142.9570   79.4510  223.0970 C   0  0  0  0  0  0  0  0  0  0  0  0
  141.6410   79.0240  223.0660 C   0  0  0  0  0  0  0  0  0  0  0  0
  141.3580   77.7470  222.6870 N   0  0  0  0  0  0  0  0  0  0  0  0
  141.7550   75.4160  221.9990 H   0  0  0  0  0  0  0  0  0  0  0  0
  140.2863   73.1170  222.4341 H   0  0  0  0  0  0  0  0  0  0  0  0
  139.6804   73.7983  220.7959 H   0  0  0  0  0  0  0  0  0  0  0  0
  144.3754   72.1148  221.7954 H   0  0  0  0  0  0  0  0  0  0  0  0
  143.6570   71.1462  220.5542 H   0  0  0  0  0  0  0  0  0  0  0  0
  144.7671   72.6355  218.7184 H   0  0  0  0  0  0  0  0  0  0  0  0
  146.2610   71.8290  220.8640 H   0  0  0  0  0  0  0  0  0  0  0  0
  145.5074   74.3216  221.2088 H   0  0  0  0  0  0  0  0  0  0  0  0
  145.4101   74.9065  219.5509 H   0  0  0  0  0  0  0  0  0  0  0  0
  143.2798   75.1526  221.3463 H   0  0  0  0  0  0  0  0  0  0  0  0
  143.1146   74.7892  218.4364 H   0  0  0  0  0  0  0  0  0  0  0  0
  141.7971   75.3361  219.6093 H   0  0  0  0  0  0  0  0  0  0  0  0
  143.9995   76.9729  220.1071 H   0  0  0  0  0  0  0  0  0  0  0  0
  143.8791   76.9030  218.3453 H   0  0  0  0  0  0  0  0  0  0  0  0
  143.0827   79.3823  219.6889 H   0  0  0  0  0  0  0  0  0  0  0  0
  141.0610   80.7743  219.8173 H   0  0  0  0  0  0  0  0  0  0  0  0
  138.8281   79.6637  219.5398 H   0  0  0  0  0  0  0  0  0  0  0  0
  138.6991   77.2146  219.1422 H   0  0  0  0  0  0  0  0  0  0  0  0
  140.7712   75.8415  219.0235 H   0  0  0  0  0  0  0  0  0  0  0  0
  138.0237   77.8242  222.9696 H   0  0  0  0  0  0  0  0  0  0  0  0
  138.4798   80.1519  223.6671 H   0  0  0  0  0  0  0  0  0  0  0  0
  140.0593   81.8692  224.0806 H   0  0  0  0  0  0  0  0  0  0  0  0
  142.4133   82.6563  224.1445 H   0  0  0  0  0  0  0  0  0  0  0  0
  144.2695   81.1255  223.5190 H   0  0  0  0  0  0  0  0  0  0  0  0
  143.7738   78.7685  222.8194 H   0  0  0  0  0  0  0  0  0  0  0  0
  1  2  2  0
  2  3  1  0
  3  4  1  0
  4  5  1  0
  5  6  2  0
  5  7  1  0
  7  8  1  0
  8  9  1  0
  9 10  1  0
  9 11  1  0
 11 12  1  0
 12 13  1  0
 13 14  1  0
 14 15  1  0
 15 16  2  0
 16 17  1  0
 17 18  2  0
 18 19  1  0
 19 20  2  0
  2 21  1  0
 21 22  2  0
 22 23  1  0
 23 24  2  0
 24 25  1  0
 25 26  2  0
 26 27  1  0
 27 28  2  0
 28 29  1  0
 29 30  2  0
 12  7  1  0
 20 15  1  0
 30 21  1  0
 29 24  1  0
  3 31  1  0
  4 32  1  0
  4 33  1  0
  8 34  1  0
  8 35  1  0
  9 36  1  6
 10 37  1  0
 11 38  1  0
 11 39  1  0
 12 40  1  1
 13 41  1  0
 13 42  1  0
 14 43  1  0
 14 44  1  0
 16 45  1  0
 17 46  1  0
 18 47  1  0
 19 48  1  0
 20 49  1  0
 22 50  1  0
 23 51  1  0
 25 52  1  0
 26 53  1  0
 27 54  1  0
 28 55  1  0
M  END
>  <smiles>  (41) 
O=C(NCC(=O)N1C[C@H](O)C[C@H]1CCc1ccccc1)c1ccc2ccccc2n1

>  <score_type>  (41) 
oracle

>  <origin>  (41) 
autodockgpu

>  <m_score__min__energy>  (41) 
-9.2799999999999994

>  <m_primary>  (41) 
energy

>  <rmsd>  (41) 
7.528387962532315

>  <m_score__min__rmsd>  (41) 
7.528387962532315

>  <meeko>  (41) 
{"free_energy": -7.39, "intermolecular_energy": -9.77, "internal_energy": -3.33, "cluster_size": 7, "cluster_id": 8, "rank_in_cluster": 4}

>  <energy>  (41) 
-7.88

>  <cluster_rmsd>  (41) 
1.22

>  <cluster>  (41) 
6

$$$$

     RDKit          3D

 55 58  0  0  0  0  0  0  0  0999 V2000
  138.7350   75.7940  221.4140 O   0  0  0  0  0  0  0  0  0  0  0  0
  139.9400   76.1360  221.6710 C   0  0  0  0  0  0  0  0  0  0  0  0
  141.0310   75.2330  221.4180 N   0  0  0  0  0  0  0  0  0  0  0  0
  140.8340   73.9480  220.8770 C   0  0  0  0  0  0  0  0  0  0  0  0
  140.0440   72.9840  221.6050 C   0  0  0  0  0  0  0  0  0  0  0  0
  139.4870   73.4560  222.6850 O   0  0  0  0  0  0  0  0  0  0  0  0
  139.7930   71.6110  221.3180 N   0  0  0  0  0  0  0  0  0  0  0  0
  139.8520   70.9620  220.0120 C   0  0  0  0  0  0  0  0  0  0  0  0
  140.3500   69.5640  220.4320 C   0  0  2  0  0  0  0  0  0  0  0  0
  140.1860   68.6360  219.4200 O   0  0  0  0  0  0  0  0  0  0  0  0
  139.4110   69.3320  221.5950 C   0  0  0  0  0  0  0  0  0  0  0  0
  139.3950   70.6500  222.3390 C   0  0  1  0  0  0  0  0  0  0  0  0
  140.2370   70.6410  223.5580 C   0  0  0  0  0  0  0  0  0  0  0  0
  139.7970   69.7160  224.6550 C   0  0  0  0  0  0  0  0  0  0  0  0
  140.1340   70.4300  225.9420 C   0  0  0  0  0  0  0  0  0  0  0  0
  139.6530   69.9980  227.1560 C   0  0  0  0  0  0  0  0  0  0  0  0
  139.9320   70.6120  228.3450 C   0  0  0  0  0  0  0  0  0  0  0  0
  140.7490   71.7340  228.3080 C   0  0  0  0  0  0  0  0  0  0  0  0
  141.2540   72.1970  227.0940 C   0  0  0  0  0  0  0  0  0  0  0  0
  140.9490   71.5500  225.9060 C   0  0  0  0  0  0  0  0  0  0  0  0
  140.2130   77.4780  222.2380 C   0  0  0  0  0  0  0  0  0  0  0  0
  139.1440   78.2570  222.6260 C   0  0  0  0  0  0  0  0  0  0  0  0
  139.3120   79.5070  223.1580 C   0  0  0  0  0  0  0  0  0  0  0  0
  140.6060   79.9750  223.2970 C   0  0  0  0  0  0  0  0  0  0  0  0
  140.7950   81.2250  223.8270 C   0  0  0  0  0  0  0  0  0  0  0  0
  142.0820   81.7010  223.9690 C   0  0  0  0  0  0  0  0  0  0  0  0
  143.1720   80.9270  223.5820 C   0  0  0  0  0  0  0  0  0  0  0  0
  142.9730   79.6500  223.0410 C   0  0  0  0  0  0  0  0  0  0  0  0
  141.6790   79.1800  222.9010 C   0  0  0  0  0  0  0  0  0  0  0  0
  141.4690   77.9420  222.3760 N   0  0  0  0  0  0  0  0  0  0  0  0
  141.9860   75.6280  221.6760 H   0  0  0  0  0  0  0  0  0  0  0  0
  140.3511   74.0836  219.8980 H   0  0  0  0  0  0  0  0  0  0  0  0
  141.8428   73.5095  220.8787 H   0  0  0  0  0  0  0  0  0  0  0  0
  138.8626   70.9165  219.5334 H   0  0  0  0  0  0  0  0  0  0  0  0
  140.4795   71.4738  219.2675 H   0  0  0  0  0  0  0  0  0  0  0  0
  141.4209   69.4814  220.6692 H   0  0  0  0  0  0  0  0  0  0  0  0
  140.1670   67.7350  219.8750 H   0  0  0  0  0  0  0  0  0  0  0  0
  138.4032   69.0762  221.2358 H   0  0  0  0  0  0  0  0  0  0  0  0
  139.7341   68.4960  222.2327 H   0  0  0  0  0  0  0  0  0  0  0  0
  138.4123   70.9009  222.7649 H   0  0  0  0  0  0  0  0  0  0  0  0
  141.2556   70.3505  223.2612 H   0  0  0  0  0  0  0  0  0  0  0  0
  140.1622   71.6551  223.9775 H   0  0  0  0  0  0  0  0  0  0  0  0
  138.7148   69.5299  224.5903 H   0  0  0  0  0  0  0  0  0  0  0  0
  140.2944   68.7371  224.5883 H   0  0  0  0  0  0  0  0  0  0  0  0
  139.0070   69.1078  227.1710 H   0  0  0  0  0  0  0  0  0  0  0  0
  139.5253   70.2321  229.2938 H   0  0  0  0  0  0  0  0  0  0  0  0
  140.9990   72.2601  229.2411 H   0  0  0  0  0  0  0  0  0  0  0  0
  141.9019   73.0858  227.0782 H   0  0  0  0  0  0  0  0  0  0  0  0
  141.3478   71.9201  224.9500 H   0  0  0  0  0  0  0  0  0  0  0  0
  138.1246   77.8620  222.5044 H   0  0  0  0  0  0  0  0  0  0  0  0
  138.4493   80.1170  223.4638 H   0  0  0  0  0  0  0  0  0  0  0  0
  139.9349   81.8382  224.1339 H   0  0  0  0  0  0  0  0  0  0  0  0
  142.2484   82.7025  224.3924 H   0  0  0  0  0  0  0  0  0  0  0  0
  144.1928   81.3190  223.7012 H   0  0  0  0  0  0  0  0  0  0  0  0
  143.8296   79.0324  222.7332 H   0  0  0  0  0  0  0  0  0  0  0  0
  1  2  2  0
  2  3  1  0
  3  4  1  0
  4  5  1  0
  5  6  2  0
  5  7  1  0
  7  8  1  0
  8  9  1  0
  9 10  1  0
  9 11  1  0
 11 12  1  0
 12 13  1  0
 13 14  1  0
 14 15  1  0
 15 16  2  0
 16 17  1  0
 17 18  2  0
 18 19  1  0
 19 20  2  0
  2 21  1  0
 21 22  2  0
 22 23  1  0
 23 24  2  0
 24 25  1  0
 25 26  2  0
 26 27  1  0
 27 28  2  0
 28 29  1  0
 29 30  2  0
 12  7  1  0
 20 15  1  0
 30 21  1  0
 29 24  1  0
  3 31  1  0
  4 32  1  0
  4 33  1  0
  8 34  1  0
  8 35  1  0
  9 36  1  1
 10 37  1  0
 11 38  1  0
 11 39  1  0
 12 40  1  1
 13 41  1  0
 13 42  1  0
 14 43  1  0
 14 44  1  0
 16 45  1  0
 17 46  1  0
 18 47  1  0
 19 48  1  0
 20 49  1  0
 22 50  1  0
 23 51  1  0
 25 52  1  0
 26 53  1  0
 27 54  1  0
 28 55  1  0
M  END
>  <smiles>  (42) 
O=C(NCC(=O)N1C[C@H](O)C[C@H]1CCc1ccccc1)c1ccc2ccccc2n1

>  <score_type>  (42) 
oracle

>  <origin>  (42) 
autodockgpu

>  <m_score__min__energy>  (42) 
-9.2799999999999994

>  <m_primary>  (42) 
energy

>  <rmsd>  (42) 
8.379552546541603

>  <m_score__min__rmsd>  (42) 
8.379552546541603

>  <meeko>  (42) 
{"free_energy": -8.42, "intermolecular_energy": -10.8, "internal_energy": -1.51, "cluster_size": 7, "cluster_id": 4, "rank_in_cluster": 3}

>  <energy>  (42) 
-7.54

>  <cluster_rmsd>  (42) 
1.5

>  <cluster>  (42) 
6

$$$$

     RDKit          3D

 55 58  0  0  0  0  0  0  0  0999 V2000
  138.5800   75.3720  221.9850 O   0  0  0  0  0  0  0  0  0  0  0  0
  139.7870   75.7650  222.1360 C   0  0  0  0  0  0  0  0  0  0  0  0
  140.8860   74.8550  221.9490 N   0  0  0  0  0  0  0  0  0  0  0  0
  140.6940   73.5070  221.5900 C   0  0  0  0  0  0  0  0  0  0  0  0
  141.6350   72.8670  220.7010 C   0  0  0  0  0  0  0  0  0  0  0  0
  141.1000   71.9920  219.8970 O   0  0  0  0  0  0  0  0  0  0  0  0
  143.0430   73.0510  220.5830 N   0  0  0  0  0  0  0  0  0  0  0  0
  144.0710   72.0150  220.6250 C   0  0  0  0  0  0  0  0  0  0  0  0
  145.0990   72.6210  219.6480 C   0  0  2  0  0  0  0  0  0  0  0  0
  146.3280   71.9970  219.7460 O   0  0  0  0  0  0  0  0  0  0  0  0
  145.1160   74.0340  220.1890 C   0  0  0  0  0  0  0  0  0  0  0  0
  143.6590   74.3630  220.4360 C   0  0  1  0  0  0  0  0  0  0  0  0
  143.0700   75.2200  219.3800 C   0  0  0  0  0  0  0  0  0  0  0  0
  143.4560   76.6700  219.4170 C   0  0  0  0  0  0  0  0  0  0  0  0
  142.1560   77.4340  219.3530 C   0  0  0  0  0  0  0  0  0  0  0  0
  142.1120   78.8000  219.5140 C   0  0  0  0  0  0  0  0  0  0  0  0
  140.9590   79.5330  219.4640 C   0  0  0  0  0  0  0  0  0  0  0  0
  139.7740   78.8450  219.2360 C   0  0  0  0  0  0  0  0  0  0  0  0
  139.7850   77.4610  219.0690 C   0  0  0  0  0  0  0  0  0  0  0  0
  140.9740   76.7490  219.1270 C   0  0  0  0  0  0  0  0  0  0  0  0
  140.0550   77.1740  222.5080 C   0  0  0  0  0  0  0  0  0  0  0  0
  138.9820   78.0110  222.7300 C   0  0  0  0  0  0  0  0  0  0  0  0
  139.1460   79.3240  223.0780 C   0  0  0  0  0  0  0  0  0  0  0  0
  140.4390   79.7980  223.2010 C   0  0  0  0  0  0  0  0  0  0  0  0
  140.6230   81.1110  223.5480 C   0  0  0  0  0  0  0  0  0  0  0  0
  141.9090   81.5930  223.6720 C   0  0  0  0  0  0  0  0  0  0  0  0
  143.0040   80.7620  223.4510 C   0  0  0  0  0  0  0  0  0  0  0  0
  142.8100   79.4210  223.0980 C   0  0  0  0  0  0  0  0  0  0  0  0
  141.5170   78.9440  222.9740 C   0  0  0  0  0  0  0  0  0  0  0  0
  141.3100   77.6440  222.6300 N   0  0  0  0  0  0  0  0  0  0  0  0
  141.8420   75.2960  222.1060 H   0  0  0  0  0  0  0  0  0  0  0  0
  140.6889   72.9249  222.5234 H   0  0  0  0  0  0  0  0  0  0  0  0
  139.7604   73.5250  221.0085 H   0  0  0  0  0  0  0  0  0  0  0  0
  144.4890   71.8950  221.6354 H   0  0  0  0  0  0  0  0  0  0  0  0
  143.7226   71.0047  220.3644 H   0  0  0  0  0  0  0  0  0  0  0  0
  144.8630   72.5310  218.5774 H   0  0  0  0  0  0  0  0  0  0  0  0
  146.3180   71.5100  220.6300 H   0  0  0  0  0  0  0  0  0  0  0  0
  145.6903   74.0847  221.1258 H   0  0  0  0  0  0  0  0  0  0  0  0
  145.5928   74.7418  219.4950 H   0  0  0  0  0  0  0  0  0  0  0  0
  143.4953   74.9847  221.3286 H   0  0  0  0  0  0  0  0  0  0  0  0
  143.3799   74.8142  218.4057 H   0  0  0  0  0  0  0  0  0  0  0  0
  141.9838   75.1981  219.5524 H   0  0  0  0  0  0  0  0  0  0  0  0
  143.9927   76.9015  220.3489 H   0  0  0  0  0  0  0  0  0  0  0  0
  144.1271   76.9354  218.5868 H   0  0  0  0  0  0  0  0  0  0  0  0
  143.0579   79.3322  219.6930 H   0  0  0  0  0  0  0  0  0  0  0  0
  140.9693   80.6246  219.5990 H   0  0  0  0  0  0  0  0  0  0  0  0
  138.8225   79.3948  219.1870 H   0  0  0  0  0  0  0  0  0  0  0  0
  138.8400   76.9275  218.8892 H   0  0  0  0  0  0  0  0  0  0  0  0
  140.9779   75.6569  218.9955 H   0  0  0  0  0  0  0  0  0  0  0  0
  137.9629   77.6108  222.6241 H   0  0  0  0  0  0  0  0  0  0  0  0
  138.2800   79.9792  223.2537 H   0  0  0  0  0  0  0  0  0  0  0  0
  139.7595   81.7692  223.7246 H   0  0  0  0  0  0  0  0  0  0  0  0
  142.0714   82.6452  223.9484 H   0  0  0  0  0  0  0  0  0  0  0  0
  144.0243   81.1600  223.5540 H   0  0  0  0  0  0  0  0  0  0  0  0
  143.6703   78.7584  222.9224 H   0  0  0  0  0  0  0  0  0  0  0  0
  1  2  2  0
  2  3  1  0
  3  4  1  0
  4  5  1  0
  5  6  2  0
  5  7  1  0
  7  8  1  0
  8  9  1  0
  9 10  1  0
  9 11  1  0
 11 12  1  0
 12 13  1  0
 13 14  1  0
 14 15  1  0
 15 16  2  0
 16 17  1  0
 17 18  2  0
 18 19  1  0
 19 20  2  0
  2 21  1  0
 21 22  2  0
 22 23  1  0
 23 24  2  0
 24 25  1  0
 25 26  2  0
 26 27  1  0
 27 28  2  0
 28 29  1  0
 29 30  2  0
 12  7  1  0
 20 15  1  0
 30 21  1  0
 29 24  1  0
  3 31  1  0
  4 32  1  0
  4 33  1  0
  8 34  1  0
  8 35  1  0
  9 36  1  6
 10 37  1  0
 11 38  1  0
 11 39  1  0
 12 40  1  1
 13 41  1  0
 13 42  1  0
 14 43  1  0
 14 44  1  0
 16 45  1  0
 17 46  1  0
 18 47  1  0
 19 48  1  0
 20 49  1  0
 22 50  1  0
 23 51  1  0
 25 52  1  0
 26 53  1  0
 27 54  1  0
 28 55  1  0
M  END
>  <smiles>  (43) 
O=C(NCC(=O)N1C[C@H](O)C[C@H]1CCc1ccccc1)c1ccc2ccccc2n1

>  <score_type>  (43) 
oracle

>  <origin>  (43) 
autodockgpu

>  <m_score__min__energy>  (43) 
-9.2799999999999994

>  <m_primary>  (43) 
energy

>  <rmsd>  (43) 
7.511153342753065

>  <m_score__min__rmsd>  (43) 
7.511153342753065

>  <meeko>  (43) 
{"free_energy": -7.3, "intermolecular_energy": -9.69, "internal_energy": -3.35, "cluster_size": 7, "cluster_id": 8, "rank_in_cluster": 6}

>  <energy>  (43) 
-8.3

>  <cluster_rmsd>  (43) 
0.0

>  <cluster>  (43) 
7

$$$$

     RDKit          3D

 55 58  0  0  0  0  0  0  0  0999 V2000
  138.5500   75.4650  222.0600 O   0  0  0  0  0  0  0  0  0  0  0  0
  139.7670   75.8510  222.1320 C   0  0  0  0  0  0  0  0  0  0  0  0
  140.8450   74.9340  221.8750 N   0  0  0  0  0  0  0  0  0  0  0  0
  140.6220   73.5870  221.5300 C   0  0  0  0  0  0  0  0  0  0  0  0
  141.6180   72.8760  220.7640 C   0  0  0  0  0  0  0  0  0  0  0  0
  141.1480   71.8680  220.0830 O   0  0  0  0  0  0  0  0  0  0  0  0
  143.0180   73.1120  220.6520 N   0  0  0  0  0  0  0  0  0  0  0  0
  144.0850   72.1170  220.7200 C   0  0  0  0  0  0  0  0  0  0  0  0
  145.0960   72.7450  219.7380 C   0  0  2  0  0  0  0  0  0  0  0  0
  146.3480   72.1700  219.8560 O   0  0  0  0  0  0  0  0  0  0  0  0
  145.0540   74.1660  220.2530 C   0  0  0  0  0  0  0  0  0  0  0  0
  143.5850   74.4440  220.4840 C   0  0  1  0  0  0  0  0  0  0  0  0
  142.9700   75.2580  219.4090 C   0  0  0  0  0  0  0  0  0  0  0  0
  143.4040   76.6930  219.3400 C   0  0  0  0  0  0  0  0  0  0  0  0
  142.1260   77.4970  219.3080 C   0  0  0  0  0  0  0  0  0  0  0  0
  140.8990   76.8980  219.1440 C   0  0  0  0  0  0  0  0  0  0  0  0
  139.7180   77.5850  219.1080 C   0  0  0  0  0  0  0  0  0  0  0  0
  139.7770   78.9660  219.2490 C   0  0  0  0  0  0  0  0  0  0  0  0
  141.0050   79.6030  219.4190 C   0  0  0  0  0  0  0  0  0  0  0  0
  142.1850   78.8740  219.4480 C   0  0  0  0  0  0  0  0  0  0  0  0
  140.0670   77.2580  222.4860 C   0  0  0  0  0  0  0  0  0  0  0  0
  139.0130   78.1230  222.6930 C   0  0  0  0  0  0  0  0  0  0  0  0
  139.2080   79.4370  223.0230 C   0  0  0  0  0  0  0  0  0  0  0  0
  140.5120   79.8820  223.1430 C   0  0  0  0  0  0  0  0  0  0  0  0
  140.7260   81.1950  223.4720 C   0  0  0  0  0  0  0  0  0  0  0  0
  142.0230   81.6480  223.5930 C   0  0  0  0  0  0  0  0  0  0  0  0
  143.0980   80.7880  223.3870 C   0  0  0  0  0  0  0  0  0  0  0  0
  142.8730   79.4470  223.0510 C   0  0  0  0  0  0  0  0  0  0  0  0
  141.5690   79.0000  222.9310 C   0  0  0  0  0  0  0  0  0  0  0  0
  141.3330   77.7000  222.6040 N   0  0  0  0  0  0  0  0  0  0  0  0
  141.8120   75.3690  221.9690 H   0  0  0  0  0  0  0  0  0  0  0  0
  140.4867   73.0337  222.4710 H   0  0  0  0  0  0  0  0  0  0  0  0
  139.7579   73.6335  220.8510 H   0  0  0  0  0  0  0  0  0  0  0  0
  144.5002   72.0317  221.7351 H   0  0  0  0  0  0  0  0  0  0  0  0
  143.7778   71.0893  220.4762 H   0  0  0  0  0  0  0  0  0  0  0  0
  144.8719   72.6272  218.6676 H   0  0  0  0  0  0  0  0  0  0  0  0
  146.4050   71.8320  220.8060 H   0  0  0  0  0  0  0  0  0  0  0  0
  145.6188   74.2555  221.1927 H   0  0  0  0  0  0  0  0  0  0  0  0
  145.5081   74.8788  219.5490 H   0  0  0  0  0  0  0  0  0  0  0  0
  143.3925   75.0763  221.3633 H   0  0  0  0  0  0  0  0  0  0  0  0
  143.2159   74.7854  218.4466 H   0  0  0  0  0  0  0  0  0  0  0  0
  141.8940   75.2843  219.6358 H   0  0  0  0  0  0  0  0  0  0  0  0
  144.0028   76.9570  220.2242 H   0  0  0  0  0  0  0  0  0  0  0  0
  144.0326   76.8885  218.4587 H   0  0  0  0  0  0  0  0  0  0  0  0
  140.8662   75.8038  219.0356 H   0  0  0  0  0  0  0  0  0  0  0  0
  138.7582   77.0649  218.9727 H   0  0  0  0  0  0  0  0  0  0  0  0
  138.8508   79.5590  219.2263 H   0  0  0  0  0  0  0  0  0  0  0  0
  141.0390   80.6967  219.5315 H   0  0  0  0  0  0  0  0  0  0  0  0
  143.1521   79.3813  219.5800 H   0  0  0  0  0  0  0  0  0  0  0  0
  137.9849   77.7457  222.5898 H   0  0  0  0  0  0  0  0  0  0  0  0
  138.3576   80.1151  223.1870 H   0  0  0  0  0  0  0  0  0  0  0  0
  139.8779   81.8759  223.6367 H   0  0  0  0  0  0  0  0  0  0  0  0
  142.2099   82.6999  223.8550 H   0  0  0  0  0  0  0  0  0  0  0  0
  144.1273   81.1627  223.4884 H   0  0  0  0  0  0  0  0  0  0  0  0
  143.7174   78.7618  222.8855 H   0  0  0  0  0  0  0  0  0  0  0  0
  1  2  2  0
  2  3  1  0
  3  4  1  0
  4  5  1  0
  5  6  2  0
  5  7  1  0
  7  8  1  0
  8  9  1  0
  9 10  1  0
  9 11  1  0
 11 12  1  0
 12 13  1  0
 13 14  1  0
 14 15  1  0
 15 16  2  0
 16 17  1  0
 17 18  2  0
 18 19  1  0
 19 20  2  0
  2 21  1  0
 21 22  2  0
 22 23  1  0
 23 24  2  0
 24 25  1  0
 25 26  2  0
 26 27  1  0
 27 28  2  0
 28 29  1  0
 29 30  2  0
 12  7  1  0
 20 15  1  0
 30 21  1  0
 29 24  1  0
  3 31  1  0
  4 32  1  0
  4 33  1  0
  8 34  1  0
  8 35  1  0
  9 36  1  6
 10 37  1  0
 11 38  1  0
 11 39  1  0
 12 40  1  1
 13 41  1  0
 13 42  1  0
 14 43  1  0
 14 44  1  0
 16 45  1  0
 17 46  1  0
 18 47  1  0
 19 48  1  0
 20 49  1  0
 22 50  1  0
 23 51  1  0
 25 52  1  0
 26 53  1  0
 27 54  1  0
 28 55  1  0
M  END
>  <smiles>  (44) 
O=C(NCC(=O)N1C[C@H](O)C[C@H]1CCc1ccccc1)c1ccc2ccccc2n1

>  <score_type>  (44) 
oracle

>  <origin>  (44) 
autodockgpu

>  <m_score__min__energy>  (44) 
-9.2799999999999994

>  <m_primary>  (44) 
energy

>  <rmsd>  (44) 
7.554849045590395

>  <m_score__min__rmsd>  (44) 
7.554849045590395

>  <meeko>  (44) 
{"free_energy": -7.32, "intermolecular_energy": -9.71, "internal_energy": -3.34, "cluster_size": 7, "cluster_id": 8, "rank_in_cluster": 5}

>  <energy>  (44) 
-7.71

>  <cluster_rmsd>  (44) 
0.0

>  <cluster>  (44) 
8

$$$$

     RDKit          3D

 55 58  0  0  0  0  0  0  0  0999 V2000
  140.1280   73.8390  222.3250 O   0  0  0  0  0  0  0  0  0  0  0  0
  140.5400   72.6300  222.2590 C   0  0  0  0  0  0  0  0  0  0  0  0
  141.2420   72.1550  221.0960 N   0  0  0  0  0  0  0  0  0  0  0  0
  141.5140   72.9830  219.9910 C   0  0  0  0  0  0  0  0  0  0  0  0
  142.6820   73.8310  220.0090 C   0  0  0  0  0  0  0  0  0  0  0  0
  143.6730   73.3600  220.7130 O   0  0  0  0  0  0  0  0  0  0  0  0
  142.9010   75.0910  219.3810 N   0  0  0  0  0  0  0  0  0  0  0  0
  143.3480   75.3230  218.0100 C   0  0  0  0  0  0  0  0  0  0  0  0
  142.5890   76.6300  217.7010 C   0  0  2  0  0  0  0  0  0  0  0  0
  143.0830   77.2540  216.5700 O   0  0  0  0  0  0  0  0  0  0  0  0
  142.9120   77.3830  218.9730 C   0  0  0  0  0  0  0  0  0  0  0  0
  142.7310   76.3610  220.0750 C   0  0  1  0  0  0  0  0  0  0  0  0
  141.4510   76.5130  220.8050 C   0  0  0  0  0  0  0  0  0  0  0  0
  140.7860   77.8540  220.6970 C   0  0  0  0  0  0  0  0  0  0  0  0
  141.3790   78.6860  221.8080 C   0  0  0  0  0  0  0  0  0  0  0  0
  142.0210   79.8760  221.5550 C   0  0  0  0  0  0  0  0  0  0  0  0
  142.5730   80.6620  222.5290 C   0  0  0  0  0  0  0  0  0  0  0  0
  142.4680   80.2210  223.8420 C   0  0  0  0  0  0  0  0  0  0  0  0
  141.8220   79.0200  224.1310 C   0  0  0  0  0  0  0  0  0  0  0  0
  141.2760   78.2470  223.1170 C   0  0  0  0  0  0  0  0  0  0  0  0
  140.2890   71.7090  223.3930 C   0  0  0  0  0  0  0  0  0  0  0  0
  139.5810   70.5510  223.1540 C   0  0  0  0  0  0  0  0  0  0  0  0
  139.3080   69.6500  224.1480 C   0  0  0  0  0  0  0  0  0  0  0  0
  139.7700   69.9380  225.4190 C   0  0  0  0  0  0  0  0  0  0  0  0
  139.5070   69.0470  226.4270 C   0  0  0  0  0  0  0  0  0  0  0  0
  139.9620   69.3260  227.6990 C   0  0  0  0  0  0  0  0  0  0  0  0
  140.6790   70.4920  227.9560 C   0  0  0  0  0  0  0  0  0  0  0  0
  140.9460   71.3980  226.9220 C   0  0  0  0  0  0  0  0  0  0  0  0
  140.4850   71.1110  225.6490 C   0  0  0  0  0  0  0  0  0  0  0  0
  140.7350   71.9820  224.6330 N   0  0  0  0  0  0  0  0  0  0  0  0
  141.5310   71.1320  221.1560 H   0  0  0  0  0  0  0  0  0  0  0  0
  141.6094   72.3255  219.1143 H   0  0  0  0  0  0  0  0  0  0  0  0
  140.6767   73.6964  219.9903 H   0  0  0  0  0  0  0  0  0  0  0  0
  144.4379   75.4602  217.9533 H   0  0  0  0  0  0  0  0  0  0  0  0
  143.1520   74.4961  217.3116 H   0  0  0  0  0  0  0  0  0  0  0  0
  141.5172   76.5275  217.4759 H   0  0  0  0  0  0  0  0  0  0  0  0
  143.5560   78.0820  216.9000 H   0  0  0  0  0  0  0  0  0  0  0  0
  143.9474   77.7539  218.9530 H   0  0  0  0  0  0  0  0  0  0  0  0
  142.2698   78.2653  219.1113 H   0  0  0  0  0  0  0  0  0  0  0  0
  143.4553   76.4692  220.8957 H   0  0  0  0  0  0  0  0  0  0  0  0
  140.7510   75.7583  220.4172 H   0  0  0  0  0  0  0  0  0  0  0  0
  141.7009   76.3914  221.8693 H   0  0  0  0  0  0  0  0  0  0  0  0
  140.9976   78.3109  219.7190 H   0  0  0  0  0  0  0  0  0  0  0  0
  139.6921   77.7763  220.7832 H   0  0  0  0  0  0  0  0  0  0  0  0
  142.0946   80.2145  220.5110 H   0  0  0  0  0  0  0  0  0  0  0  0
  143.0802   81.6064  222.2821 H   0  0  0  0  0  0  0  0  0  0  0  0
  142.8966   80.8222  224.6574 H   0  0  0  0  0  0  0  0  0  0  0  0
  141.7444   78.6816  225.1748 H   0  0  0  0  0  0  0  0  0  0  0  0
  140.7686   77.2991  223.3494 H   0  0  0  0  0  0  0  0  0  0  0  0
  139.2246   70.3445  222.1341 H   0  0  0  0  0  0  0  0  0  0  0  0
  138.7413   68.7298  223.9428 H   0  0  0  0  0  0  0  0  0  0  0  0
  138.9425   68.1248  226.2249 H   0  0  0  0  0  0  0  0  0  0  0  0
  139.7566   68.6210  228.5180 H   0  0  0  0  0  0  0  0  0  0  0  0
  141.0368   70.7020  228.9747 H   0  0  0  0  0  0  0  0  0  0  0  0
  141.5117   72.3208  227.1180 H   0  0  0  0  0  0  0  0  0  0  0  0
  1  2  2  0
  2  3  1  0
  3  4  1  0
  4  5  1  0
  5  6  2  0
  5  7  1  0
  7  8  1  0
  8  9  1  0
  9 10  1  0
  9 11  1  0
 11 12  1  0
 12 13  1  0
 13 14  1  0
 14 15  1  0
 15 16  2  0
 16 17  1  0
 17 18  2  0
 18 19  1  0
 19 20  2  0
  2 21  1  0
 21 22  2  0
 22 23  1  0
 23 24  2  0
 24 25  1  0
 25 26  2  0
 26 27  1  0
 27 28  2  0
 28 29  1  0
 29 30  2  0
 12  7  1  0
 20 15  1  0
 30 21  1  0
 29 24  1  0
  3 31  1  0
  4 32  1  0
  4 33  1  0
  8 34  1  0
  8 35  1  0
  9 36  1  6
 10 37  1  0
 11 38  1  0
 11 39  1  0
 12 40  1  1
 13 41  1  0
 13 42  1  0
 14 43  1  0
 14 44  1  0
 16 45  1  0
 17 46  1  0
 18 47  1  0
 19 48  1  0
 20 49  1  0
 22 50  1  0
 23 51  1  0
 25 52  1  0
 26 53  1  0
 27 54  1  0
 28 55  1  0
M  END
>  <smiles>  (45) 
O=C(NCC(=O)N1C[C@H](O)C[C@H]1CCc1ccccc1)c1ccc2ccccc2n1

>  <score_type>  (45) 
oracle

>  <origin>  (45) 
autodockgpu

>  <m_score__min__energy>  (45) 
-9.2799999999999994

>  <m_primary>  (45) 
energy

>  <rmsd>  (45) 
2.889477561949352

>  <m_score__min__rmsd>  (45) 
2.889477561949352

>  <meeko>  (45) 
{"free_energy": -8.82, "intermolecular_energy": -11.21, "internal_energy": -1.47, "cluster_size": 24, "cluster_id": 1, "rank_in_cluster": 11}

>  <energy>  (45) 
-7.55

>  <cluster_rmsd>  (45) 
0.9

>  <cluster>  (45) 
8

$$$$

     RDKit          3D

 55 58  0  0  0  0  0  0  0  0999 V2000
  140.3300   73.4050  222.4150 O   0  0  0  0  0  0  0  0  0  0  0  0
  140.2760   72.1270  222.4070 C   0  0  0  0  0  0  0  0  0  0  0  0
  140.3000   71.3980  221.1670 N   0  0  0  0  0  0  0  0  0  0  0  0
  140.3890   72.0420  219.9170 C   0  0  0  0  0  0  0  0  0  0  0  0
  141.6640   72.1100  219.2430 C   0  0  0  0  0  0  0  0  0  0  0  0
  141.7090   71.4560  218.1160 O   0  0  0  0  0  0  0  0  0  0  0  0
  142.8630   72.7760  219.6310 N   0  0  0  0  0  0  0  0  0  0  0  0
  144.2010   72.1990  219.7120 C   0  0  0  0  0  0  0  0  0  0  0  0
  145.0450   73.4270  219.3130 C   0  0  2  0  0  0  0  0  0  0  0  0
  146.3820   73.2520  219.6210 O   0  0  0  0  0  0  0  0  0  0  0  0
  144.3720   74.4560  220.1930 C   0  0  0  0  0  0  0  0  0  0  0  0
  142.8920   74.1720  220.0470 C   0  0  1  0  0  0  0  0  0  0  0  0
  142.2060   75.1150  219.1330 C   0  0  0  0  0  0  0  0  0  0  0  0
  142.5130   76.5700  219.3370 C   0  0  0  0  0  0  0  0  0  0  0  0
  141.6850   76.9930  220.5270 C   0  0  0  0  0  0  0  0  0  0  0  0
  141.8420   78.2260  221.1150 C   0  0  0  0  0  0  0  0  0  0  0  0
  141.1160   78.6510  222.1930 C   0  0  0  0  0  0  0  0  0  0  0  0
  140.1680   77.7760  222.7090 C   0  0  0  0  0  0  0  0  0  0  0  0
  139.9840   76.5190  222.1350 C   0  0  0  0  0  0  0  0  0  0  0  0
  140.7410   76.1210  221.0430 C   0  0  0  0  0  0  0  0  0  0  0  0
  140.1860   71.3910  223.6900 C   0  0  0  0  0  0  0  0  0  0  0  0
  139.5890   70.1480  223.6940 C   0  0  0  0  0  0  0  0  0  0  0  0
  139.4680   69.4050  224.8370 C   0  0  0  0  0  0  0  0  0  0  0  0
  139.9680   69.9450  226.0080 C   0  0  0  0  0  0  0  0  0  0  0  0
  139.8550   69.2160  227.1630 C   0  0  0  0  0  0  0  0  0  0  0  0
  140.3500   69.7460  228.3360 C   0  0  0  0  0  0  0  0  0  0  0  0
  140.9550   71.0000  228.3500 C   0  0  0  0  0  0  0  0  0  0  0  0
  141.0680   71.7400  227.1660 C   0  0  0  0  0  0  0  0  0  0  0  0
  140.5690   71.2020  225.9930 C   0  0  0  0  0  0  0  0  0  0  0  0
  140.6690   71.9090  224.8340 N   0  0  0  0  0  0  0  0  0  0  0  0
  140.2450   70.3420  221.2870 H   0  0  0  0  0  0  0  0  0  0  0  0
  139.6957   71.5226  219.2391 H   0  0  0  0  0  0  0  0  0  0  0  0
  140.1631   73.0929  220.1504 H   0  0  0  0  0  0  0  0  0  0  0  0
  144.4365   71.8547  220.7299 H   0  0  0  0  0  0  0  0  0  0  0  0
  144.3593   71.3054  219.0904 H   0  0  0  0  0  0  0  0  0  0  0  0
  145.0708   73.6711  218.2407 H   0  0  0  0  0  0  0  0  0  0  0  0
  146.8190   74.1480  219.4600 H   0  0  0  0  0  0  0  0  0  0  0  0
  144.6887   74.3388  221.2399 H   0  0  0  0  0  0  0  0  0  0  0  0
  144.6302   75.4856  219.9043 H   0  0  0  0  0  0  0  0  0  0  0  0
  142.3224   74.3265  220.9753 H   0  0  0  0  0  0  0  0  0  0  0  0
  142.4900   74.8523  218.1033 H   0  0  0  0  0  0  0  0  0  0  0  0
  141.1323   75.0059  219.3456 H   0  0  0  0  0  0  0  0  0  0  0  0
  143.5841   76.7118  219.5438 H   0  0  0  0  0  0  0  0  0  0  0  0
  142.2780   77.1663  218.4431 H   0  0  0  0  0  0  0  0  0  0  0  0
  142.5944   78.9093  220.6943 H   0  0  0  0  0  0  0  0  0  0  0  0
  141.2761   79.6459  222.6341 H   0  0  0  0  0  0  0  0  0  0  0  0
  139.5597   78.0766  223.5748 H   0  0  0  0  0  0  0  0  0  0  0  0
  139.2302   75.8353  222.5526 H   0  0  0  0  0  0  0  0  0  0  0  0
  140.5937   75.1278  220.5937 H   0  0  0  0  0  0  0  0  0  0  0  0
  139.1981   69.7412  222.7497 H   0  0  0  0  0  0  0  0  0  0  0  0
  138.9904   68.4142  224.8248 H   0  0  0  0  0  0  0  0  0  0  0  0
  139.3776   68.2250  227.1546 H   0  0  0  0  0  0  0  0  0  0  0  0
  140.2660   69.1719  229.2705 H   0  0  0  0  0  0  0  0  0  0  0  0
  141.3451   71.4105  229.2930 H   0  0  0  0  0  0  0  0  0  0  0  0
  141.5450   72.7312  227.1688 H   0  0  0  0  0  0  0  0  0  0  0  0
  1  2  2  0
  2  3  1  0
  3  4  1  0
  4  5  1  0
  5  6  2  0
  5  7  1  0
  7  8  1  0
  8  9  1  0
  9 10  1  0
  9 11  1  0
 11 12  1  0
 12 13  1  0
 13 14  1  0
 14 15  1  0
 15 16  2  0
 16 17  1  0
 17 18  2  0
 18 19  1  0
 19 20  2  0
  2 21  1  0
 21 22  2  0
 22 23  1  0
 23 24  2  0
 24 25  1  0
 25 26  2  0
 26 27  1  0
 27 28  2  0
 28 29  1  0
 29 30  2  0
 12  7  1  0
 20 15  1  0
 30 21  1  0
 29 24  1  0
  3 31  1  0
  4 32  1  0
  4 33  1  0
  8 34  1  0
  8 35  1  0
  9 36  1  6
 10 37  1  0
 11 38  1  0
 11 39  1  0
 12 40  1  1
 13 41  1  0
 13 42  1  0
 14 43  1  0
 14 44  1  0
 16 45  1  0
 17 46  1  0
 18 47  1  0
 19 48  1  0
 20 49  1  0
 22 50  1  0
 23 51  1  0
 25 52  1  0
 26 53  1  0
 27 54  1  0
 28 55  1  0
M  END
>  <smiles>  (46) 
O=C(NCC(=O)N1C[C@H](O)C[C@H]1CCc1ccccc1)c1ccc2ccccc2n1

>  <score_type>  (46) 
oracle

>  <origin>  (46) 
autodockgpu

>  <m_score__min__energy>  (46) 
-9.2799999999999994

>  <m_primary>  (46) 
energy

>  <rmsd>  (46) 
3.1300660270509044

>  <m_score__min__rmsd>  (46) 
3.1300660270509044

>  <meeko>  (46) 
{"free_energy": -8.79, "intermolecular_energy": -11.18, "internal_energy": -1.62, "cluster_size": 2, "cluster_id": 5, "rank_in_cluster": 1}

>  <energy>  (46) 
-7.42

>  <cluster_rmsd>  (46) 
0.62

>  <cluster>  (46) 
8

$$$$

     RDKit          3D

 55 58  0  0  0  0  0  0  0  0999 V2000
  137.3330   76.3520  222.2220 O   0  0  0  0  0  0  0  0  0  0  0  0
  138.6060   76.3870  222.3460 C   0  0  0  0  0  0  0  0  0  0  0  0
  139.3990   75.2070  222.1240 N   0  0  0  0  0  0  0  0  0  0  0  0
  138.8260   73.9740  221.7590 C   0  0  0  0  0  0  0  0  0  0  0  0
  139.5790   72.7560  221.9510 C   0  0  0  0  0  0  0  0  0  0  0  0
  140.8110   72.9450  222.3330 O   0  0  0  0  0  0  0  0  0  0  0  0
  139.1740   71.4010  221.7820 N   0  0  0  0  0  0  0  0  0  0  0  0
  139.5160   70.5140  220.6750 C   0  0  0  0  0  0  0  0  0  0  0  0
  139.5800   69.1660  221.4230 C   0  0  2  0  0  0  0  0  0  0  0  0
  139.5690   68.0950  220.5500 O   0  0  0  0  0  0  0  0  0  0  0  0
  138.2960   69.2890  222.2130 C   0  0  0  0  0  0  0  0  0  0  0  0
  138.2980   70.7150  222.7230 C   0  0  1  0  0  0  0  0  0  0  0  0
  138.6950   70.8230  224.1470 C   0  0  0  0  0  0  0  0  0  0  0  0
  139.8980   70.0260  224.5580 C   0  0  0  0  0  0  0  0  0  0  0  0
  140.3190   70.5930  225.8920 C   0  0  0  0  0  0  0  0  0  0  0  0
  139.9760   69.9840  227.0770 C   0  0  0  0  0  0  0  0  0  0  0  0
  140.3350   70.4610  228.3070 C   0  0  0  0  0  0  0  0  0  0  0  0
  141.0880   71.6270  228.3450 C   0  0  0  0  0  0  0  0  0  0  0  0
  141.4520   72.2680  227.1620 C   0  0  0  0  0  0  0  0  0  0  0  0
  141.0700   71.7560  225.9310 C   0  0  0  0  0  0  0  0  0  0  0  0
  139.2690   77.6580  222.7240 C   0  0  0  0  0  0  0  0  0  0  0  0
  138.4790   78.7250  223.0970 C   0  0  0  0  0  0  0  0  0  0  0  0
  139.0150   79.9310  223.4600 C   0  0  0  0  0  0  0  0  0  0  0  0
  140.3920   80.0530  223.4400 C   0  0  0  0  0  0  0  0  0  0  0  0
  140.9470   81.2530  223.8000 C   0  0  0  0  0  0  0  0  0  0  0  0
  142.3200   81.3850  223.7830 C   0  0  0  0  0  0  0  0  0  0  0  0
  143.1310   80.3170  223.4080 C   0  0  0  0  0  0  0  0  0  0  0  0
  142.5590   79.0920  223.0420 C   0  0  0  0  0  0  0  0  0  0  0  0
  141.1800   78.9680  223.0610 C   0  0  0  0  0  0  0  0  0  0  0  0
  140.6080   77.7850  222.7070 N   0  0  0  0  0  0  0  0  0  0  0  0
  140.4440   75.3580  222.2610 H   0  0  0  0  0  0  0  0  0  0  0  0
  137.8958   73.8697  222.3368 H   0  0  0  0  0  0  0  0  0  0  0  0
  138.7277   74.0478  220.6659 H   0  0  0  0  0  0  0  0  0  0  0  0
  138.7381   70.5129  219.8972 H   0  0  0  0  0  0  0  0  0  0  0  0
  140.4317   70.7854  220.1293 H   0  0  0  0  0  0  0  0  0  0  0  0
  140.4849   68.9848  222.0216 H   0  0  0  0  0  0  0  0  0  0  0  0
  139.7620   68.4830  219.6380 H   0  0  0  0  0  0  0  0  0  0  0  0
  137.4238   69.1084  221.5675 H   0  0  0  0  0  0  0  0  0  0  0  0
  138.2355   68.5537  223.0289 H   0  0  0  0  0  0  0  0  0  0  0  0
  137.2984   71.1735  222.7481 H   0  0  0  0  0  0  0  0  0  0  0  0
  138.9049   71.8819  224.3582 H   0  0  0  0  0  0  0  0  0  0  0  0
  137.8540   70.4069  224.7211 H   0  0  0  0  0  0  0  0  0  0  0  0
  139.6388   68.9616  224.6570 H   0  0  0  0  0  0  0  0  0  0  0  0
  140.7050   70.0907  223.8134 H   0  0  0  0  0  0  0  0  0  0  0  0
  139.3791   69.0611  227.0323 H   0  0  0  0  0  0  0  0  0  0  0  0
  140.0389   69.9414  229.2303 H   0  0  0  0  0  0  0  0  0  0  0  0
  141.3987   72.0468  229.3131 H   0  0  0  0  0  0  0  0  0  0  0  0
  142.0492   73.1907  227.2053 H   0  0  0  0  0  0  0  0  0  0  0  0
  141.3590   72.2657  225.0001 H   0  0  0  0  0  0  0  0  0  0  0  0
  137.3858   78.6033  223.1030 H   0  0  0  0  0  0  0  0  0  0  0  0
  138.3729   80.7733  223.7571 H   0  0  0  0  0  0  0  0  0  0  0  0
  140.3080   82.0974  224.0977 H   0  0  0  0  0  0  0  0  0  0  0  0
  142.7787   82.3432  224.0684 H   0  0  0  0  0  0  0  0  0  0  0  0
  144.2245   80.4358  223.3992 H   0  0  0  0  0  0  0  0  0  0  0  0
  143.1936   78.2440  222.7449 H   0  0  0  0  0  0  0  0  0  0  0  0
  1  2  2  0
  2  3  1  0
  3  4  1  0
  4  5  1  0
  5  6  2  0
  5  7  1  0
  7  8  1  0
  8  9  1  0
  9 10  1  0
  9 11  1  0
 11 12  1  0
 12 13  1  0
 13 14  1  0
 14 15  1  0
 15 16  2  0
 16 17  1  0
 17 18  2  0
 18 19  1  0
 19 20  2  0
  2 21  1  0
 21 22  2  0
 22 23  1  0
 23 24  2  0
 24 25  1  0
 25 26  2  0
 26 27  1  0
 27 28  2  0
 28 29  1  0
 29 30  2  0
 12  7  1  0
 20 15  1  0
 30 21  1  0
 29 24  1  0
  3 31  1  0
  4 32  1  0
  4 33  1  0
  8 34  1  0
  8 35  1  0
  9 36  1  1
 10 37  1  0
 11 38  1  0
 11 39  1  0
 12 40  1  1
 13 41  1  0
 13 42  1  0
 14 43  1  0
 14 44  1  0
 16 45  1  0
 17 46  1  0
 18 47  1  0
 19 48  1  0
 20 49  1  0
 22 50  1  0
 23 51  1  0
 25 52  1  0
 26 53  1  0
 27 54  1  0
 28 55  1  0
M  END
>  <smiles>  (47) 
O=C(NCC(=O)N1C[C@H](O)C[C@H]1CCc1ccccc1)c1ccc2ccccc2n1

>  <score_type>  (47) 
oracle

>  <origin>  (47) 
autodockgpu

>  <m_score__min__energy>  (47) 
-9.2799999999999994

>  <m_primary>  (47) 
energy

>  <rmsd>  (47) 
8.452001776834631

>  <m_score__min__rmsd>  (47) 
8.452001776834631

>  <meeko>  (47) 
{"free_energy": -8.44, "intermolecular_energy": -10.83, "internal_energy": -1.92, "cluster_size": 7, "cluster_id": 4, "rank_in_cluster": 2}

>  <energy>  (47) 
-7.39

>  <cluster_rmsd>  (47) 
0.57

>  <cluster>  (47) 
8

$$$$

     RDKit          3D

 55 58  0  0  0  0  0  0  0  0999 V2000
  139.4670   70.5610  221.6800 O   0  0  0  0  0  0  0  0  0  0  0  0
  139.5110   71.4300  222.6170 C   0  0  0  0  0  0  0  0  0  0  0  0
  139.1850   72.8080  222.3600 N   0  0  0  0  0  0  0  0  0  0  0  0
  138.7990   73.2640  221.0850 C   0  0  0  0  0  0  0  0  0  0  0  0
  138.9140   74.6680  220.7670 C   0  0  0  0  0  0  0  0  0  0  0  0
  137.7960   75.2250  220.3960 O   0  0  0  0  0  0  0  0  0  0  0  0
  140.0590   75.5150  220.7980 N   0  0  0  0  0  0  0  0  0  0  0  0
  141.2650   75.3920  219.9850 C   0  0  0  0  0  0  0  0  0  0  0  0
  141.6290   76.8810  219.8210 C   0  0  2  0  0  0  0  0  0  0  0  0
  142.9220   77.0450  219.3600 O   0  0  0  0  0  0  0  0  0  0  0  0
  141.4630   77.3120  221.2620 C   0  0  0  0  0  0  0  0  0  0  0  0
  140.1840   76.6420  221.7130 C   0  0  1  0  0  0  0  0  0  0  0  0
  139.0230   77.5620  221.7420 C   0  0  0  0  0  0  0  0  0  0  0  0
  138.8550   78.3720  222.9940 C   0  0  0  0  0  0  0  0  0  0  0  0
  140.0240   79.3260  223.0150 C   0  0  0  0  0  0  0  0  0  0  0  0
  141.1100   79.1200  223.8330 C   0  0  0  0  0  0  0  0  0  0  0  0
  142.1910   79.9570  223.8860 C   0  0  0  0  0  0  0  0  0  0  0  0
  142.1750   81.0720  223.0580 C   0  0  0  0  0  0  0  0  0  0  0  0
  141.0890   81.3090  222.2170 C   0  0  0  0  0  0  0  0  0  0  0  0
  140.0090   80.4390  222.1910 C   0  0  0  0  0  0  0  0  0  0  0  0
  139.9050   71.0120  223.9830 C   0  0  0  0  0  0  0  0  0  0  0  0
  140.6370   71.8910  224.7540 C   0  0  0  0  0  0  0  0  0  0  0  0
  141.0380   71.5800  226.0250 C   0  0  0  0  0  0  0  0  0  0  0  0
  140.6860   70.3390  226.5230 C   0  0  0  0  0  0  0  0  0  0  0  0
  141.0800   70.0090  227.7940 C   0  0  0  0  0  0  0  0  0  0  0  0
  140.7340   68.7740  228.2990 C   0  0  0  0  0  0  0  0  0  0  0  0
  139.9960   67.8740  227.5330 C   0  0  0  0  0  0  0  0  0  0  0  0
  139.5960   68.2170  226.2360 C   0  0  0  0  0  0  0  0  0  0  0  0
  139.9470   69.4580  225.7360 C   0  0  0  0  0  0  0  0  0  0  0  0
  139.5670   69.8060  224.4760 N   0  0  0  0  0  0  0  0  0  0  0  0
  139.2620   73.4360  223.2160 H   0  0  0  0  0  0  0  0  0  0  0  0
  139.4109   72.7186  220.3514 H   0  0  0  0  0  0  0  0  0  0  0  0
  137.7143   73.0822  221.0631 H   0  0  0  0  0  0  0  0  0  0  0  0
  142.0552   74.8337  220.5084 H   0  0  0  0  0  0  0  0  0  0  0  0
  141.1346   74.8400  219.0425 H   0  0  0  0  0  0  0  0  0  0  0  0
  141.0345   77.4482  219.0896 H   0  0  0  0  0  0  0  0  0  0  0  0
  143.4110   77.5430  220.0890 H   0  0  0  0  0  0  0  0  0  0  0  0
  142.3148   76.9729  221.8698 H   0  0  0  0  0  0  0  0  0  0  0  0
  141.4223   78.4060  221.3692 H   0  0  0  0  0  0  0  0  0  0  0  0
  140.2116   76.3065  222.7602 H   0  0  0  0  0  0  0  0  0  0  0  0
  139.1276   78.2621  220.9000 H   0  0  0  0  0  0  0  0  0  0  0  0
  138.1333   76.9177  221.6848 H   0  0  0  0  0  0  0  0  0  0  0  0
  137.9057   78.9272  222.9685 H   0  0  0  0  0  0  0  0  0  0  0  0
  138.8298   77.7366  223.8916 H   0  0  0  0  0  0  0  0  0  0  0  0
  141.1096   78.2316  224.4817 H   0  0  0  0  0  0  0  0  0  0  0  0
  143.0386   79.7550  224.5574 H   0  0  0  0  0  0  0  0  0  0  0  0
  143.0238   81.7717  223.0660 H   0  0  0  0  0  0  0  0  0  0  0  0
  141.0884   82.1961  221.5665 H   0  0  0  0  0  0  0  0  0  0  0  0
  139.1538   80.6302  221.5261 H   0  0  0  0  0  0  0  0  0  0  0  0
  140.9065   72.8715  224.3346 H   0  0  0  0  0  0  0  0  0  0  0  0
  141.6197   72.2920  226.6290 H   0  0  0  0  0  0  0  0  0  0  0  0
  141.6625   70.7180  228.4007 H   0  0  0  0  0  0  0  0  0  0  0  0
  141.0437   68.4961  229.3173 H   0  0  0  0  0  0  0  0  0  0  0  0
  139.7270   66.8916  227.9484 H   0  0  0  0  0  0  0  0  0  0  0  0
  139.0128   67.5120  225.6253 H   0  0  0  0  0  0  0  0  0  0  0  0
  1  2  2  0
  2  3  1  0
  3  4  1  0
  4  5  1  0
  5  6  2  0
  5  7  1  0
  7  8  1  0
  8  9  1  0
  9 10  1  0
  9 11  1  0
 11 12  1  0
 12 13  1  0
 13 14  1  0
 14 15  1  0
 15 16  2  0
 16 17  1  0
 17 18  2  0
 18 19  1  0
 19 20  2  0
  2 21  1  0
 21 22  2  0
 22 23  1  0
 23 24  2  0
 24 25  1  0
 25 26  2  0
 26 27  1  0
 27 28  2  0
 28 29  1  0
 29 30  2  0
 12  7  1  0
 20 15  1  0
 30 21  1  0
 29 24  1  0
  3 31  1  0
  4 32  1  0
  4 33  1  0
  8 34  1  0
  8 35  1  0
  9 36  1  6
 10 37  1  0
 11 38  1  0
 11 39  1  0
 12 40  1  1
 13 41  1  0
 13 42  1  0
 14 43  1  0
 14 44  1  0
 16 45  1  0
 17 46  1  0
 18 47  1  0
 19 48  1  0
 20 49  1  0
 22 50  1  0
 23 51  1  0
 25 52  1  0
 26 53  1  0
 27 54  1  0
 28 55  1  0
M  END
>  <smiles>  (48) 
O=C(NCC(=O)N1C[C@H](O)C[C@H]1CCc1ccccc1)c1ccc2ccccc2n1

>  <score_type>  (48) 
oracle

>  <origin>  (48) 
autodockgpu

>  <m_score__min__energy>  (48) 
-9.2799999999999994

>  <m_primary>  (48) 
energy

>  <rmsd>  (48) 
3.4158257873366273

>  <m_score__min__rmsd>  (48) 
3.4158257873366273

>  <meeko>  (48) 
{"free_energy": -8.71, "intermolecular_energy": -11.09, "internal_energy": -1.18, "cluster_size": 24, "cluster_id": 1, "rank_in_cluster": 15}

>  <energy>  (48) 
-7.32

>  <cluster_rmsd>  (48) 
0.57

>  <cluster>  (48) 
8

$$$$

     RDKit          3D

 55 58  0  0  0  0  0  0  0  0999 V2000
  139.8340   70.9760  221.4160 O   0  0  0  0  0  0  0  0  0  0  0  0
  139.8310   71.5610  222.5540 C   0  0  0  0  0  0  0  0  0  0  0  0
  139.7990   72.9960  222.6420 N   0  0  0  0  0  0  0  0  0  0  0  0
  139.7630   73.8200  221.5010 C   0  0  0  0  0  0  0  0  0  0  0  0
  140.5890   75.0030  221.4520 C   0  0  0  0  0  0  0  0  0  0  0  0
  140.2690   75.9140  222.3280 O   0  0  0  0  0  0  0  0  0  0  0  0
  141.6840   75.3130  220.5950 N   0  0  0  0  0  0  0  0  0  0  0  0
  142.4420   74.3800  219.7660 C   0  0  0  0  0  0  0  0  0  0  0  0
  142.7760   75.2960  218.5710 C   0  0  2  0  0  0  0  0  0  0  0  0
  143.7700   74.7580  217.7760 O   0  0  0  0  0  0  0  0  0  0  0  0
  143.2380   76.5120  219.3440 C   0  0  0  0  0  0  0  0  0  0  0  0
  142.2280   76.6580  220.4620 C   0  0  1  0  0  0  0  0  0  0  0  0
  141.2260   77.7200  220.2060 C   0  0  0  0  0  0  0  0  0  0  0  0
  141.7720   79.1000  219.9820 C   0  0  0  0  0  0  0  0  0  0  0  0
  141.8170   79.7400  221.3490 C   0  0  0  0  0  0  0  0  0  0  0  0
  142.1460   79.0190  222.4740 C   0  0  0  0  0  0  0  0  0  0  0  0
  142.1990   79.5560  223.7300 C   0  0  0  0  0  0  0  0  0  0  0  0
  141.9040   80.9070  223.8600 C   0  0  0  0  0  0  0  0  0  0  0  0
  141.5680   81.6650  222.7400 C   0  0  0  0  0  0  0  0  0  0  0  0
  141.5220   81.0870  221.4800 C   0  0  0  0  0  0  0  0  0  0  0  0
  139.8630   70.7480  223.7930 C   0  0  0  0  0  0  0  0  0  0  0  0
  139.2880   69.4950  223.7720 C   0  0  0  0  0  0  0  0  0  0  0  0
  139.2770   68.6840  224.8740 C   0  0  0  0  0  0  0  0  0  0  0  0
  139.8660   69.1640  226.0300 C   0  0  0  0  0  0  0  0  0  0  0  0
  139.8640   68.3660  227.1440 C   0  0  0  0  0  0  0  0  0  0  0  0
  140.4480   68.8360  228.3010 C   0  0  0  0  0  0  0  0  0  0  0  0
  141.0320   70.1000  228.3390 C   0  0  0  0  0  0  0  0  0  0  0  0
  141.0320   70.9100  227.1970 C   0  0  0  0  0  0  0  0  0  0  0  0
  140.4430   70.4320  226.0400 C   0  0  0  0  0  0  0  0  0  0  0  0
  140.4340   71.2080  224.9220 N   0  0  0  0  0  0  0  0  0  0  0  0
  139.8040   73.3660  223.6410 H   0  0  0  0  0  0  0  0  0  0  0  0
  140.0510   73.1930  220.6443 H   0  0  0  0  0  0  0  0  0  0  0  0
  138.7384   74.2203  221.5038 H   0  0  0  0  0  0  0  0  0  0  0  0
  143.3503   74.0259  220.2756 H   0  0  0  0  0  0  0  0  0  0  0  0
  141.9098   73.4533  219.5054 H   0  0  0  0  0  0  0  0  0  0  0  0
  141.9611   75.4771  217.8547 H   0  0  0  0  0  0  0  0  0  0  0  0
  144.5690   75.3660  217.8900 H   0  0  0  0  0  0  0  0  0  0  0  0
  144.2477   76.3535  219.7507 H   0  0  0  0  0  0  0  0  0  0  0  0
  143.2957   77.4112  218.7130 H   0  0  0  0  0  0  0  0  0  0  0  0
  142.6685   77.0076  221.4074 H   0  0  0  0  0  0  0  0  0  0  0  0
  140.6547   77.4347  219.3103 H   0  0  0  0  0  0  0  0  0  0  0  0
  140.6224   77.7853  221.1233 H   0  0  0  0  0  0  0  0  0  0  0  0
  142.7813   79.0488  219.5476 H   0  0  0  0  0  0  0  0  0  0  0  0
  141.1513   79.6767  219.2804 H   0  0  0  0  0  0  0  0  0  0  0  0
  142.3794   77.9506  222.3560 H   0  0  0  0  0  0  0  0  0  0  0  0
  142.4648   78.9423  224.6033 H   0  0  0  0  0  0  0  0  0  0  0  0
  141.9358   81.3810  224.8521 H   0  0  0  0  0  0  0  0  0  0  0  0
  141.3366   82.7340  222.8565 H   0  0  0  0  0  0  0  0  0  0  0  0
  141.2555   81.6888  220.5987 H   0  0  0  0  0  0  0  0  0  0  0  0
  138.8241   69.1365  222.8413 H   0  0  0  0  0  0  0  0  0  0  0  0
  138.8161   67.6857  224.8418 H   0  0  0  0  0  0  0  0  0  0  0  0
  139.4041   67.3671  227.1155 H   0  0  0  0  0  0  0  0  0  0  0  0
  140.4528   68.2066  229.2031 H   0  0  0  0  0  0  0  0  0  0  0  0
  141.4945   70.4628  229.2688 H   0  0  0  0  0  0  0  0  0  0  0  0
  141.4922   71.9089  227.2193 H   0  0  0  0  0  0  0  0  0  0  0  0
  1  2  2  0
  2  3  1  0
  3  4  1  0
  4  5  1  0
  5  6  2  0
  5  7  1  0
  7  8  1  0
  8  9  1  0
  9 10  1  0
  9 11  1  0
 11 12  1  0
 12 13  1  0
 13 14  1  0
 14 15  1  0
 15 16  2  0
 16 17  1  0
 17 18  2  0
 18 19  1  0
 19 20  2  0
  2 21  1  0
 21 22  2  0
 22 23  1  0
 23 24  2  0
 24 25  1  0
 25 26  2  0
 26 27  1  0
 27 28  2  0
 28 29  1  0
 29 30  2  0
 12  7  1  0
 20 15  1  0
 30 21  1  0
 29 24  1  0
  3 31  1  0
  4 32  1  0
  4 33  1  0
  8 34  1  0
  8 35  1  0
  9 36  1  6
 10 37  1  0
 11 38  1  0
 11 39  1  0
 12 40  1  1
 13 41  1  0
 13 42  1  0
 14 43  1  0
 14 44  1  0
 16 45  1  0
 17 46  1  0
 18 47  1  0
 19 48  1  0
 20 49  1  0
 22 50  1  0
 23 51  1  0
 25 52  1  0
 26 53  1  0
 27 54  1  0
 28 55  1  0
M  END
>  <smiles>  (49) 
O=C(NCC(=O)N1C[C@H](O)C[C@H]1CCc1ccccc1)c1ccc2ccccc2n1

>  <score_type>  (49) 
oracle

>  <origin>  (49) 
autodockgpu

>  <m_score__min__energy>  (49) 
-9.2799999999999994

>  <m_primary>  (49) 
energy

>  <rmsd>  (49) 
2.2645255756886846

>  <m_score__min__rmsd>  (49) 
2.2645255756886846

>  <meeko>  (49) 
{"free_energy": -9.14, "intermolecular_energy": -11.53, "internal_energy": -1.46, "cluster_size": 24, "cluster_id": 1, "rank_in_cluster": 4}

>  <energy>  (49) 
-7.3

>  <cluster_rmsd>  (49) 
0.57

>  <cluster>  (49) 
8

$$$$

     RDKit          3D

 55 58  0  0  0  0  0  0  0  0999 V2000
  139.1900   70.5150  221.3230 O   0  0  0  0  0  0  0  0  0  0  0  0
  139.1520   71.3280  222.3090 C   0  0  0  0  0  0  0  0  0  0  0  0
  138.7710   72.7020  222.1160 N   0  0  0  0  0  0  0  0  0  0  0  0
  138.4190   73.2140  220.8530 C   0  0  0  0  0  0  0  0  0  0  0  0
  139.1530   74.3340  220.3120 C   0  0  0  0  0  0  0  0  0  0  0  0
  138.4060   75.3460  219.9680 O   0  0  0  0  0  0  0  0  0  0  0  0
  140.5540   74.4860  220.1000 N   0  0  0  0  0  0  0  0  0  0  0  0
  141.2800   74.2830  218.8500 C   0  0  0  0  0  0  0  0  0  0  0  0
  142.3830   75.3490  219.0070 C   0  0  2  0  0  0  0  0  0  0  0  0
  143.4130   75.1570  218.1050 O   0  0  0  0  0  0  0  0  0  0  0  0
  142.7890   75.0430  220.4320 C   0  0  0  0  0  0  0  0  0  0  0  0
  141.4800   74.8460  221.1650 C   0  0  1  0  0  0  0  0  0  0  0  0
  141.0830   76.0230  221.9730 C   0  0  0  0  0  0  0  0  0  0  0  0
  140.7380   77.2650  221.2030 C   0  0  0  0  0  0  0  0  0  0  0  0
  141.3300   78.4060  221.9950 C   0  0  0  0  0  0  0  0  0  0  0  0
  141.3950   78.3750  223.3690 C   0  0  0  0  0  0  0  0  0  0  0  0
  141.9210   79.3840  224.1260 C   0  0  0  0  0  0  0  0  0  0  0  0
  142.4160   80.4950  223.4550 C   0  0  0  0  0  0  0  0  0  0  0  0
  142.3660   80.5560  222.0630 C   0  0  0  0  0  0  0  0  0  0  0  0
  141.8240   79.5140  221.3270 C   0  0  0  0  0  0  0  0  0  0  0  0
  139.5060   70.8470  223.6660 C   0  0  0  0  0  0  0  0  0  0  0  0
  139.2660   69.5250  223.9780 C   0  0  0  0  0  0  0  0  0  0  0  0
  139.5650   69.0050  225.2080 C   0  0  0  0  0  0  0  0  0  0  0  0
  140.1220   69.8560  226.1460 C   0  0  0  0  0  0  0  0  0  0  0  0
  140.4270   69.3520  227.3830 C   0  0  0  0  0  0  0  0  0  0  0  0
  140.9830   70.1930  228.3260 C   0  0  0  0  0  0  0  0  0  0  0  0
  141.2310   71.5300  228.0270 C   0  0  0  0  0  0  0  0  0  0  0  0
  140.9170   72.0380  226.7600 C   0  0  0  0  0  0  0  0  0  0  0  0
  140.3600   71.1890  225.8200 C   0  0  0  0  0  0  0  0  0  0  0  0
  140.0480   71.6670  224.5850 N   0  0  0  0  0  0  0  0  0  0  0  0
  138.7800   73.2810  223.0090 H   0  0  0  0  0  0  0  0  0  0  0  0
  138.5186   72.3880  220.1334 H   0  0  0  0  0  0  0  0  0  0  0  0
  137.4079   73.6180  221.0096 H   0  0  0  0  0  0  0  0  0  0  0  0
  141.6993   73.2684  218.7812 H   0  0  0  0  0  0  0  0  0  0  0  0
  140.6706   74.3766  217.9390 H   0  0  0  0  0  0  0  0  0  0  0  0
  142.0825   76.3901  218.8178 H   0  0  0  0  0  0  0  0  0  0  0  0
  144.2280   75.5810  218.5260 H   0  0  0  0  0  0  0  0  0  0  0  0
  143.3998   74.1291  220.4745 H   0  0  0  0  0  0  0  0  0  0  0  0
  143.3995   75.8441  220.8742 H   0  0  0  0  0  0  0  0  0  0  0  0
  141.5245   74.0648  221.9382 H   0  0  0  0  0  0  0  0  0  0  0  0
  140.2021   75.7407  222.5683 H   0  0  0  0  0  0  0  0  0  0  0  0
  141.9678   76.2826  222.5728 H   0  0  0  0  0  0  0  0  0  0  0  0
  141.1774   77.2274  220.1953 H   0  0  0  0  0  0  0  0  0  0  0  0
  139.6514   77.3774  221.0740 H   0  0  0  0  0  0  0  0  0  0  0  0
  141.0015   77.4882  223.8874 H   0  0  0  0  0  0  0  0  0  0  0  0
  141.9512   79.3189  225.2237 H   0  0  0  0  0  0  0  0  0  0  0  0
  142.8494   81.3304  224.0244 H   0  0  0  0  0  0  0  0  0  0  0  0
  142.7612   81.4411  221.5430 H   0  0  0  0  0  0  0  0  0  0  0  0
  141.7868   79.5663  220.2289 H   0  0  0  0  0  0  0  0  0  0  0  0
  138.8210   68.8691  223.2153 H   0  0  0  0  0  0  0  0  0  0  0  0
  139.3695   67.9482  225.4426 H   0  0  0  0  0  0  0  0  0  0  0  0
  140.2323   68.2958  227.6205 H   0  0  0  0  0  0  0  0  0  0  0  0
  141.2326   69.8029  229.3237 H   0  0  0  0  0  0  0  0  0  0  0  0
  141.6747   72.1891  228.7877 H   0  0  0  0  0  0  0  0  0  0  0  0
  141.1098   73.0933  226.5165 H   0  0  0  0  0  0  0  0  0  0  0  0
  1  2  2  0
  2  3  1  0
  3  4  1  0
  4  5  1  0
  5  6  2  0
  5  7  1  0
  7  8  1  0
  8  9  1  0
  9 10  1  0
  9 11  1  0
 11 12  1  0
 12 13  1  0
 13 14  1  0
 14 15  1  0
 15 16  2  0
 16 17  1  0
 17 18  2  0
 18 19  1  0
 19 20  2  0
  2 21  1  0
 21 22  2  0
 22 23  1  0
 23 24  2  0
 24 25  1  0
 25 26  2  0
 26 27  1  0
 27 28  2  0
 28 29  1  0
 29 30  2  0
 12  7  1  0
 20 15  1  0
 30 21  1  0
 29 24  1  0
  3 31  1  0
  4 32  1  0
  4 33  1  0
  8 34  1  0
  8 35  1  0
  9 36  1  1
 10 37  1  0
 11 38  1  0
 11 39  1  0
 12 40  1  1
 13 41  1  0
 13 42  1  0
 14 43  1  0
 14 44  1  0
 16 45  1  0
 17 46  1  0
 18 47  1  0
 19 48  1  0
 20 49  1  0
 22 50  1  0
 23 51  1  0
 25 52  1  0
 26 53  1  0
 27 54  1  0
 28 55  1  0
M  END
>  <smiles>  (50) 
O=C(NCC(=O)N1C[C@H](O)C[C@H]1CCc1ccccc1)c1ccc2ccccc2n1

>  <score_type>  (50) 
oracle

>  <origin>  (50) 
autodockgpu

>  <m_score__min__energy>  (50) 
-9.2799999999999994

>  <m_primary>  (50) 
energy

>  <rmsd>  (50) 
2.2823925099777496

>  <m_score__min__rmsd>  (50) 
2.2823925099777496

>  <meeko>  (50) 
{"free_energy": -8.29, "intermolecular_energy": -10.68, "internal_energy": -1.63, "cluster_size": 24, "cluster_id": 1, "rank_in_cluster": 24}

>  <energy>  (50) 
-7.26

>  <cluster_rmsd>  (50) 
0.63

>  <cluster>  (50) 
8

$$$$
