
     RDKit          3D

 46 49  0  0  0  0  0  0  0  0999 V2000
  140.3590   73.3920  222.3480 O   0  0  0  0  0  0  0  0  0  0  0  0
  140.4350   72.1250  222.3420 C   0  0  0  0  0  0  0  0  0  0  0  0
  140.6840   71.4600  221.1320 N   0  0  0  0  0  0  0  0  0  0  0  0
  140.8580   72.1740  219.8930 C   0  0  0  0  0  0  0  0  0  0  0  0
  142.1520   71.7950  219.2630 C   0  0  0  0  0  0  0  0  0  0  0  0
  142.2920   70.7410  218.5900 O   0  0  0  0  0  0  0  0  0  0  0  0
  143.2470   72.6700  219.4440 N   0  0  0  0  0  0  0  0  0  0  0  0
  144.4210   72.8580  218.5820 C   0  0  0  0  0  0  0  0  0  0  0  0
  145.5850   73.0600  219.5400 C   0  0  2  0  0  0  0  0  0  0  0  0
  146.2920   71.8580  219.6860 O   0  0  0  0  0  0  0  0  0  0  0  0
  144.9530   73.4890  220.8390 C   0  0  0  0  0  0  0  0  0  0  0  0
  143.4720   73.6050  220.5460 C   0  0  1  0  0  0  0  0  0  0  0  0
  143.0730   74.9740  220.0520 C   0  0  0  0  0  0  0  0  0  0  0  0
  141.9710   75.1110  219.0520 C   0  0  0  0  0  0  0  0  0  0  0  0
  141.7980   75.6170  220.4680 C   0  0  0  0  0  0  0  0  0  0  0  0
  140.2620   71.3880  223.5790 C   0  0  0  0  0  0  0  0  0  0  0  0
  139.6320   70.1440  223.5650 C   0  0  0  0  0  0  0  0  0  0  0  0
  139.4740   69.4540  224.7490 C   0  0  0  0  0  0  0  0  0  0  0  0
  139.9570   70.0410  225.9150 C   0  0  0  0  0  0  0  0  0  0  0  0
  139.7750   69.3080  227.0850 C   0  0  0  0  0  0  0  0  0  0  0  0
  140.2460   69.8670  228.2630 C   0  0  0  0  0  0  0  0  0  0  0  0
  140.8600   71.0920  228.2400 C   0  0  0  0  0  0  0  0  0  0  0  0
  141.0400   71.8150  227.0850 C   0  0  0  0  0  0  0  0  0  0  0  0
  140.5720   71.2610  225.9080 C   0  0  0  0  0  0  0  0  0  0  0  0
  140.7130   71.9120  224.7380 N   0  0  0  0  0  0  0  0  0  0  0  0
  140.7470   70.4270  221.1200 H   0  0  0  0  0  0  0  0  0  0  0  0
  140.0332   71.9236  219.2096 H   0  0  0  0  0  0  0  0  0  0  0  0
  140.8592   73.2549  220.0969 H   0  0  0  0  0  0  0  0  0  0  0  0
  144.5863   71.9696  217.9548 H   0  0  0  0  0  0  0  0  0  0  0  0
  144.2979   73.7093  217.8964 H   0  0  0  0  0  0  0  0  0  0  0  0
  146.3074   73.8088  219.1830 H   0  0  0  0  0  0  0  0  0  0  0  0
  146.1230   71.5520  220.6240 H   0  0  0  0  0  0  0  0  0  0  0  0
  145.1329   72.7370  221.6214 H   0  0  0  0  0  0  0  0  0  0  0  0
  145.3733   74.4373  221.2051 H   0  0  0  0  0  0  0  0  0  0  0  0
  142.8945   73.4077  221.4612 H   0  0  0  0  0  0  0  0  0  0  0  0
  144.1290   75.2781  220.1013 H   0  0  0  0  0  0  0  0  0  0  0  0
  142.0667   75.8232  218.2191 H   0  0  0  0  0  0  0  0  0  0  0  0
  141.4206   74.4213  218.3952 H   0  0  0  0  0  0  0  0  0  0  0  0
  141.7656   76.6985  220.6663 H   0  0  0  0  0  0  0  0  0  0  0  0
  141.0662   75.4488  221.2719 H   0  0  0  0  0  0  0  0  0  0  0  0
  139.2649   69.7174  222.6198 H   0  0  0  0  0  0  0  0  0  0  0  0
  138.9817   68.4706  224.7710 H   0  0  0  0  0  0  0  0  0  0  0  0
  139.2783   68.3266  227.0749 H   0  0  0  0  0  0  0  0  0  0  0  0
  140.1271   69.3282  229.2146 H   0  0  0  0  0  0  0  0  0  0  0  0
  141.2248   71.5152  229.1875 H   0  0  0  0  0  0  0  0  0  0  0  0
  141.5371   72.7962  227.0967 H   0  0  0  0  0  0  0  0  0  0  0  0
  1  2  2  0
  2  3  1  0
  3  4  1  0
  4  5  1  0
  5  6  2  0
  5  7  1  0
  7  8  1  0
  8  9  1  0
  9 10  1  0
  9 11  1  0
 11 12  1  0
 12 13  1  0
 13 14  1  0
 14 15  1  0
  2 16  1  0
 16 17  2  0
 17 18  1  0
 18 19  2  0
 19 20  1  0
 20 21  2  0
 21 22  1  0
 22 23  2  0
 23 24  1  0
 24 25  2  0
 12  7  1  0
 15 13  1  0
 25 16  1  0
 24 19  1  0
  3 26  1  0
  4 27  1  0
  4 28  1  0
  8 29  1  0
  8 30  1  0
  9 31  1  6
 10 32  1  0
 11 33  1  0
 11 34  1  0
 12 35  1  1
 13 36  1  0
 14 37  1  0
 14 38  1  0
 15 39  1  0
 15 40  1  0
 17 41  1  0
 18 42  1  0
 20 43  1  0
 21 44  1  0
 22 45  1  0
 23 46  1  0
M  END
>  <smiles>  (1) 
O=C(NCC(=O)N1C[C@H](O)C[C@H]1C1CC1)c1ccc2ccccc2n1

>  <score_type>  (1) 
oracle

>  <origin>  (1) 
autodockgpu

>  <m_score__min__energy>  (1) 
-7.7800000000000002

>  <m_primary>  (1) 
energy

>  <rmsd>  (1) 
3.77314270851093

>  <m_score__min__rmsd>  (1) 
3.77314270851093

>  <meeko>  (1) 
{"free_energy": -7.64, "intermolecular_energy": -9.42, "internal_energy": -1.3, "cluster_size": 27, "cluster_id": 1, "rank_in_cluster": 7}

>  <energy>  (1) 
-7.78

>  <cluster_rmsd>  (1) 
0.0

>  <cluster>  (1) 
1

$$$$

     RDKit          3D

 46 49  0  0  0  0  0  0  0  0999 V2000
  139.8480   70.8740  221.4380 O   0  0  0  0  0  0  0  0  0  0  0  0
  139.8880   71.4770  222.5530 C   0  0  0  0  0  0  0  0  0  0  0  0
  139.9120   72.8790  222.5720 N   0  0  0  0  0  0  0  0  0  0  0  0
  139.8920   73.6580  221.3610 C   0  0  0  0  0  0  0  0  0  0  0  0
  141.2610   74.1520  221.0490 C   0  0  0  0  0  0  0  0  0  0  0  0
  141.6490   75.3080  221.3620 O   0  0  0  0  0  0  0  0  0  0  0  0
  142.1370   73.2690  220.3770 N   0  0  0  0  0  0  0  0  0  0  0  0
  141.9640   72.6290  219.0670 C   0  0  0  0  0  0  0  0  0  0  0  0
  142.5360   71.2300  219.2340 C   0  0  2  0  0  0  0  0  0  0  0  0
  141.4950   70.3160  219.4520 O   0  0  0  0  0  0  0  0  0  0  0  0
  143.4500   71.3190  220.4280 C   0  0  0  0  0  0  0  0  0  0  0  0
  143.4360   72.7780  220.8350 C   0  0  1  0  0  0  0  0  0  0  0  0
  144.4900   73.5970  220.1330 C   0  0  0  0  0  0  0  0  0  0  0  0
  145.7410   73.9780  220.8570 C   0  0  0  0  0  0  0  0  0  0  0  0
  145.7830   73.0060  219.6970 C   0  0  0  0  0  0  0  0  0  0  0  0
  139.9100   70.7110  223.7850 C   0  0  0  0  0  0  0  0  0  0  0  0
  139.3810   69.4210  223.8120 C   0  0  0  0  0  0  0  0  0  0  0  0
  139.4080   68.7050  224.9900 C   0  0  0  0  0  0  0  0  0  0  0  0
  139.9690   69.3130  226.1100 C   0  0  0  0  0  0  0  0  0  0  0  0
  139.9740   68.5520  227.2770 C   0  0  0  0  0  0  0  0  0  0  0  0
  140.5270   69.1310  228.4080 C   0  0  0  0  0  0  0  0  0  0  0  0
  141.0370   70.4010  228.3460 C   0  0  0  0  0  0  0  0  0  0  0  0
  141.0320   71.1520  227.1950 C   0  0  0  0  0  0  0  0  0  0  0  0
  140.4830   70.5780  226.0640 C   0  0  0  0  0  0  0  0  0  0  0  0
  140.4430   71.2540  224.9000 N   0  0  0  0  0  0  0  0  0  0  0  0
  139.9450   73.3770  223.4790 H   0  0  0  0  0  0  0  0  0  0  0  0
  139.5332   73.0315  220.5311 H   0  0  0  0  0  0  0  0  0  0  0  0
  139.2206   74.5186  221.4971 H   0  0  0  0  0  0  0  0  0  0  0  0
  140.8986   72.5815  218.7976 H   0  0  0  0  0  0  0  0  0  0  0  0
  142.4672   73.1880  218.2643 H   0  0  0  0  0  0  0  0  0  0  0  0
  143.0797   70.8822  218.3433 H   0  0  0  0  0  0  0  0  0  0  0  0
  140.8760   70.7550  220.1040 H   0  0  0  0  0  0  0  0  0  0  0  0
  143.0763   70.6870  221.2471 H   0  0  0  0  0  0  0  0  0  0  0  0
  144.4660   70.9687  220.1934 H   0  0  0  0  0  0  0  0  0  0  0  0
  143.6220   72.8650  221.9157 H   0  0  0  0  0  0  0  0  0  0  0  0
  143.6894   74.1418  219.6112 H   0  0  0  0  0  0  0  0  0  0  0  0
  146.1575   74.9899  220.7448 H   0  0  0  0  0  0  0  0  0  0  0  0
  146.0746   73.9602  221.9050 H   0  0  0  0  0  0  0  0  0  0  0  0
  146.2325   73.3097  218.7401 H   0  0  0  0  0  0  0  0  0  0  0  0
  146.1626   71.9841  219.5499 H   0  0  0  0  0  0  0  0  0  0  0  0
  138.9467   68.9793  222.9030 H   0  0  0  0  0  0  0  0  0  0  0  0
  138.9991   67.6852  225.0434 H   0  0  0  0  0  0  0  0  0  0  0  0
  139.5566   67.5345  227.2996 H   0  0  0  0  0  0  0  0  0  0  0  0
  140.5564   68.5715  229.3546 H   0  0  0  0  0  0  0  0  0  0  0  0
  141.4696   70.8389  229.2576 H   0  0  0  0  0  0  0  0  0  0  0  0
  141.4486   72.1699  227.1748 H   0  0  0  0  0  0  0  0  0  0  0  0
  1  2  2  0
  2  3  1  0
  3  4  1  0
  4  5  1  0
  5  6  2  0
  5  7  1  0
  7  8  1  0
  8  9  1  0
  9 10  1  0
  9 11  1  0
 11 12  1  0
 12 13  1  0
 13 14  1  0
 14 15  1  0
  2 16  1  0
 16 17  2  0
 17 18  1  0
 18 19  2  0
 19 20  1  0
 20 21  2  0
 21 22  1  0
 22 23  2  0
 23 24  1  0
 24 25  2  0
 12  7  1  0
 15 13  1  0
 25 16  1  0
 24 19  1  0
  3 26  1  0
  4 27  1  0
  4 28  1  0
  8 29  1  0
  8 30  1  0
  9 31  1  6
 10 32  1  0
 11 33  1  0
 11 34  1  0
 12 35  1  1
 13 36  1  0
 14 37  1  0
 14 38  1  0
 15 39  1  0
 15 40  1  0
 17 41  1  0
 18 42  1  0
 20 43  1  0
 21 44  1  0
 22 45  1  0
 23 46  1  0
M  END
>  <smiles>  (2) 
O=C(NCC(=O)N1C[C@H](O)C[C@H]1C1CC1)c1ccc2ccccc2n1

>  <score_type>  (2) 
oracle

>  <origin>  (2) 
autodockgpu

>  <m_score__min__energy>  (2) 
-7.7800000000000002

>  <m_primary>  (2) 
energy

>  <rmsd>  (2) 
3.259867526455862

>  <m_score__min__rmsd>  (2) 
3.259867526455862

>  <meeko>  (2) 
{"free_energy": -6.62, "intermolecular_energy": -8.41, "internal_energy": -2.3, "cluster_size": 27, "cluster_id": 1, "rank_in_cluster": 24}

>  <energy>  (2) 
-7.77

>  <cluster_rmsd>  (2) 
0.06

>  <cluster>  (2) 
1

$$$$

     RDKit          3D

 46 49  0  0  0  0  0  0  0  0999 V2000
  139.6390   73.4040  222.6380 O   0  0  0  0  0  0  0  0  0  0  0  0
  140.2580   72.2970  222.6350 C   0  0  0  0  0  0  0  0  0  0  0  0
  141.0240   71.9440  221.5140 N   0  0  0  0  0  0  0  0  0  0  0  0
  141.1290   72.8030  220.3620 C   0  0  0  0  0  0  0  0  0  0  0  0
  141.9440   74.0030  220.6940 C   0  0  0  0  0  0  0  0  0  0  0  0
  143.1940   73.9540  220.8310 O   0  0  0  0  0  0  0  0  0  0  0  0
  141.2620   75.2320  220.8530 N   0  0  0  0  0  0  0  0  0  0  0  0
  141.0450   76.0050  222.0830 C   0  0  0  0  0  0  0  0  0  0  0  0
  139.6370   76.5630  221.9530 C   0  0  2  0  0  0  0  0  0  0  0  0
  138.7440   75.7680  222.6860 O   0  0  0  0  0  0  0  0  0  0  0  0
  139.3310   76.5190  220.4790 C   0  0  0  0  0  0  0  0  0  0  0  0
  140.6040   76.0300  219.8200 C   0  0  1  0  0  0  0  0  0  0  0  0
  141.5490   77.1480  219.4570 C   0  0  0  0  0  0  0  0  0  0  0  0
  143.0090   76.8680  219.3020 C   0  0  0  0  0  0  0  0  0  0  0  0
  142.1630   77.2510  218.1070 C   0  0  0  0  0  0  0  0  0  0  0  0
  140.1650   71.4170  223.7840 C   0  0  0  0  0  0  0  0  0  0  0  0
  139.5730   70.1620  223.6530 C   0  0  0  0  0  0  0  0  0  0  0  0
  139.4910   69.3350  224.7540 C   0  0  0  0  0  0  0  0  0  0  0  0
  140.0100   69.8020  225.9590 C   0  0  0  0  0  0  0  0  0  0  0  0
  139.9050   68.9340  227.0430 C   0  0  0  0  0  0  0  0  0  0  0  0
  140.4140   69.3700  228.2560 C   0  0  0  0  0  0  0  0  0  0  0  0
  140.9890   70.6100  228.3490 C   0  0  0  0  0  0  0  0  0  0  0  0
  141.0930   71.4660  227.2800 C   0  0  0  0  0  0  0  0  0  0  0  0
  140.5870   71.0350  226.0670 C   0  0  0  0  0  0  0  0  0  0  0  0
  140.6540   71.8210  224.9760 N   0  0  0  0  0  0  0  0  0  0  0  0
  141.5320   71.0430  221.5050 H   0  0  0  0  0  0  0  0  0  0  0  0
  141.6095   72.2525  219.5398 H   0  0  0  0  0  0  0  0  0  0  0  0
  140.1217   73.1237  220.0579 H   0  0  0  0  0  0  0  0  0  0  0  0
  141.1233   75.3551  222.9670 H   0  0  0  0  0  0  0  0  0  0  0  0
  141.7947   76.7999  222.2094 H   0  0  0  0  0  0  0  0  0  0  0  0
  139.5453   77.5861  222.3466 H   0  0  0  0  0  0  0  0  0  0  0  0
  139.2940   75.0350  223.0870 H   0  0  0  0  0  0  0  0  0  0  0  0
  138.5020   75.8243  220.2783 H   0  0  0  0  0  0  0  0  0  0  0  0
  139.0226   77.5026  220.0950 H   0  0  0  0  0  0  0  0  0  0  0  0
  140.3603   75.4952  218.8902 H   0  0  0  0  0  0  0  0  0  0  0  0
  140.9424   77.8310  220.0698 H   0  0  0  0  0  0  0  0  0  0  0  0
  143.7520   77.5739  219.7015 H   0  0  0  0  0  0  0  0  0  0  0  0
  143.6756   76.0295  219.5521 H   0  0  0  0  0  0  0  0  0  0  0  0
  142.2916   78.2359  217.6342 H   0  0  0  0  0  0  0  0  0  0  0  0
  141.9588   76.8059  217.1220 H   0  0  0  0  0  0  0  0  0  0  0  0
  139.1751   69.8343  222.6813 H   0  0  0  0  0  0  0  0  0  0  0  0
  139.0304   68.3386  224.6825 H   0  0  0  0  0  0  0  0  0  0  0  0
  139.4375   67.9436  226.9407 H   0  0  0  0  0  0  0  0  0  0  0  0
  140.3564   68.7215  229.1427 H   0  0  0  0  0  0  0  0  0  0  0  0
  141.3848   70.9343  229.3227 H   0  0  0  0  0  0  0  0  0  0  0  0
  141.5607   72.4561  227.3845 H   0  0  0  0  0  0  0  0  0  0  0  0
  1  2  2  0
  2  3  1  0
  3  4  1  0
  4  5  1  0
  5  6  2  0
  5  7  1  0
  7  8  1  0
  8  9  1  0
  9 10  1  0
  9 11  1  0
 11 12  1  0
 12 13  1  0
 13 14  1  0
 14 15  1  0
  2 16  1  0
 16 17  2  0
 17 18  1  0
 18 19  2  0
 19 20  1  0
 20 21  2  0
 21 22  1  0
 22 23  2  0
 23 24  1  0
 24 25  2  0
 12  7  1  0
 15 13  1  0
 25 16  1  0
 24 19  1  0
  3 26  1  0
  4 27  1  0
  4 28  1  0
  8 29  1  0
  8 30  1  0
  9 31  1  1
 10 32  1  0
 11 33  1  0
 11 34  1  0
 12 35  1  6
 13 36  1  0
 14 37  1  0
 14 38  1  0
 15 39  1  0
 15 40  1  0
 17 41  1  0
 18 42  1  0
 20 43  1  0
 21 44  1  0
 22 45  1  0
 23 46  1  0
M  END
>  <smiles>  (3) 
O=C(NCC(=O)N1C[C@H](O)C[C@H]1C1CC1)c1ccc2ccccc2n1

>  <score_type>  (3) 
oracle

>  <origin>  (3) 
autodockgpu

>  <m_score__min__energy>  (3) 
-7.7800000000000002

>  <m_primary>  (3) 
energy

>  <rmsd>  (3) 
2.6719027802769606

>  <m_score__min__rmsd>  (3) 
2.6719027802769606

>  <meeko>  (3) 
{"free_energy": -6.89, "intermolecular_energy": -8.68, "internal_energy": -1.93, "cluster_size": 27, "cluster_id": 1, "rank_in_cluster": 18}

>  <energy>  (3) 
-7.73

>  <cluster_rmsd>  (3) 
0.46

>  <cluster>  (3) 
1

$$$$

     RDKit          3D

 46 49  0  0  0  0  0  0  0  0999 V2000
  139.7470   71.1400  221.2850 O   0  0  0  0  0  0  0  0  0  0  0  0
  139.8270   71.8170  222.3550 C   0  0  0  0  0  0  0  0  0  0  0  0
  139.8360   73.2180  222.2790 N   0  0  0  0  0  0  0  0  0  0  0  0
  139.7550   73.9130  221.0200 C   0  0  0  0  0  0  0  0  0  0  0  0
  141.1200   74.2610  220.5420 C   0  0  0  0  0  0  0  0  0  0  0  0
  141.5670   75.4380  220.5730 O   0  0  0  0  0  0  0  0  0  0  0  0
  141.9240   73.2120  220.0400 N   0  0  0  0  0  0  0  0  0  0  0  0
  141.8330   72.5290  218.7430 C   0  0  0  0  0  0  0  0  0  0  0  0
  142.1370   71.0700  219.0440 C   0  0  2  0  0  0  0  0  0  0  0  0
  140.9400   70.3460  219.1390 O   0  0  0  0  0  0  0  0  0  0  0  0
  142.8770   71.0860  220.3560 C   0  0  0  0  0  0  0  0  0  0  0  0
  143.0480   72.5510  220.7020 C   0  0  1  0  0  0  0  0  0  0  0  0
  144.3100   73.1490  220.1330 C   0  0  0  0  0  0  0  0  0  0  0  0
  144.6710   74.5650  220.4510 C   0  0  0  0  0  0  0  0  0  0  0  0
  145.5030   73.4160  220.9800 C   0  0  0  0  0  0  0  0  0  0  0  0
  139.9100   71.1360  223.6330 C   0  0  0  0  0  0  0  0  0  0  0  0
  139.4840   69.8130  223.7460 C   0  0  0  0  0  0  0  0  0  0  0  0
  139.5690   69.1780  224.9670 C   0  0  0  0  0  0  0  0  0  0  0  0
  140.0800   69.8990  226.0420 C   0  0  0  0  0  0  0  0  0  0  0  0
  140.1460   69.2180  227.2560 C   0  0  0  0  0  0  0  0  0  0  0  0
  140.6510   69.9100  228.3440 C   0  0  0  0  0  0  0  0  0  0  0  0
  141.0600   71.2090  228.1990 C   0  0  0  0  0  0  0  0  0  0  0  0
  140.9950   71.8820  227.0020 C   0  0  0  0  0  0  0  0  0  0  0  0
  140.4920   71.1950  225.9120 C   0  0  0  0  0  0  0  0  0  0  0  0
  140.3990   71.7900  224.7080 N   0  0  0  0  0  0  0  0  0  0  0  0
  139.9010   73.7760  223.1480 H   0  0  0  0  0  0  0  0  0  0  0  0
  139.2631   73.2667  220.2782 H   0  0  0  0  0  0  0  0  0  0  0  0
  139.1732   74.8368  221.1544 H   0  0  0  0  0  0  0  0  0  0  0  0
  140.8227   72.6342  218.3207 H   0  0  0  0  0  0  0  0  0  0  0  0
  142.5291   72.9520  218.0037 H   0  0  0  0  0  0  0  0  0  0  0  0
  142.7348   70.5876  218.2567 H   0  0  0  0  0  0  0  0  0  0  0  0
  140.3660   70.8500  219.7860 H   0  0  0  0  0  0  0  0  0  0  0  0
  142.2930   70.5722  221.1338 H   0  0  0  0  0  0  0  0  0  0  0  0
  143.8438   70.5657  220.2874 H   0  0  0  0  0  0  0  0  0  0  0  0
  143.0940   72.6732  221.7942 H   0  0  0  0  0  0  0  0  0  0  0  0
  144.1459   72.5696  219.2125 H   0  0  0  0  0  0  0  0  0  0  0  0
  145.0730   75.2220  219.6657 H   0  0  0  0  0  0  0  0  0  0  0  0
  144.1491   75.4239  220.8982 H   0  0  0  0  0  0  0  0  0  0  0  0
  146.5125   73.2378  220.5811 H   0  0  0  0  0  0  0  0  0  0  0  0
  145.8401   73.0917  221.9756 H   0  0  0  0  0  0  0  0  0  0  0  0
  139.0842   69.2813  222.8699 H   0  0  0  0  0  0  0  0  0  0  0  0
  139.2431   68.1343  225.0875 H   0  0  0  0  0  0  0  0  0  0  0  0
  139.8109   68.1742  227.3463 H   0  0  0  0  0  0  0  0  0  0  0  0
  140.7236   69.4165  229.3244 H   0  0  0  0  0  0  0  0  0  0  0  0
  141.4577   71.7367  229.0784 H   0  0  0  0  0  0  0  0  0  0  0  0
  141.3299   72.9261  226.9145 H   0  0  0  0  0  0  0  0  0  0  0  0
  1  2  2  0
  2  3  1  0
  3  4  1  0
  4  5  1  0
  5  6  2  0
  5  7  1  0
  7  8  1  0
  8  9  1  0
  9 10  1  0
  9 11  1  0
 11 12  1  0
 12 13  1  0
 13 14  1  0
 14 15  1  0
  2 16  1  0
 16 17  2  0
 17 18  1  0
 18 19  2  0
 19 20  1  0
 20 21  2  0
 21 22  1  0
 22 23  2  0
 23 24  1  0
 24 25  2  0
 12  7  1  0
 15 13  1  0
 25 16  1  0
 24 19  1  0
  3 26  1  0
  4 27  1  0
  4 28  1  0
  8 29  1  0
  8 30  1  0
  9 31  1  6
 10 32  1  0
 11 33  1  0
 11 34  1  0
 12 35  1  1
 13 36  1  0
 14 37  1  0
 14 38  1  0
 15 39  1  0
 15 40  1  0
 17 41  1  0
 18 42  1  0
 20 43  1  0
 21 44  1  0
 22 45  1  0
 23 46  1  0
M  END
>  <smiles>  (4) 
O=C(NCC(=O)N1C[C@H](O)C[C@H]1C1CC1)c1ccc2ccccc2n1

>  <score_type>  (4) 
oracle

>  <origin>  (4) 
autodockgpu

>  <m_score__min__energy>  (4) 
-7.7800000000000002

>  <m_primary>  (4) 
energy

>  <rmsd>  (4) 
3.283334627992462

>  <m_score__min__rmsd>  (4) 
3.283334627992462

>  <meeko>  (4) 
{"free_energy": -6.35, "intermolecular_energy": -8.14, "internal_energy": -2.44, "cluster_size": 27, "cluster_id": 1, "rank_in_cluster": 26}

>  <energy>  (4) 
-7.72

>  <cluster_rmsd>  (4) 
0.13

>  <cluster>  (4) 
1

$$$$

     RDKit          3D

 46 49  0  0  0  0  0  0  0  0999 V2000
  140.0170   71.0420  221.1040 O   0  0  0  0  0  0  0  0  0  0  0  0
  140.4190   71.7020  222.1100 C   0  0  0  0  0  0  0  0  0  0  0  0
  141.0310   72.9480  221.9100 N   0  0  0  0  0  0  0  0  0  0  0  0
  141.2190   73.5020  220.5940 C   0  0  0  0  0  0  0  0  0  0  0  0
  142.6300   73.9390  220.4200 C   0  0  0  0  0  0  0  0  0  0  0  0
  142.9730   75.1500  220.4630 O   0  0  0  0  0  0  0  0  0  0  0  0
  143.6020   72.9360  220.2020 N   0  0  0  0  0  0  0  0  0  0  0  0
  144.8970   72.7540  220.8720 C   0  0  0  0  0  0  0  0  0  0  0  0
  145.8450   72.2910  219.7760 C   0  0  2  0  0  0  0  0  0  0  0  0
  146.6040   73.3770  219.3180 O   0  0  0  0  0  0  0  0  0  0  0  0
  144.9530   71.7450  218.6910 C   0  0  0  0  0  0  0  0  0  0  0  0
  143.5470   71.8310  219.2460 C   0  0  1  0  0  0  0  0  0  0  0  0
  143.1410   70.6000  220.0180 C   0  0  0  0  0  0  0  0  0  0  0  0
  142.2670   69.5730  219.3730 C   0  0  0  0  0  0  0  0  0  0  0  0
  143.7080   69.2590  219.7130 C   0  0  0  0  0  0  0  0  0  0  0  0
  140.2400   71.1620  223.4440 C   0  0  0  0  0  0  0  0  0  0  0  0
  139.5630   69.9560  223.6210 C   0  0  0  0  0  0  0  0  0  0  0  0
  139.4010   69.4530  224.8950 C   0  0  0  0  0  0  0  0  0  0  0  0
  139.9270   70.1850  225.9560 C   0  0  0  0  0  0  0  0  0  0  0  0
  139.7390   69.6400  227.2240 C   0  0  0  0  0  0  0  0  0  0  0  0
  140.2520   70.3450  228.3000 C   0  0  0  0  0  0  0  0  0  0  0  0
  140.9120   71.5270  228.0900 C   0  0  0  0  0  0  0  0  0  0  0  0
  141.0980   72.0660  226.8390 C   0  0  0  0  0  0  0  0  0  0  0  0
  140.5880   71.3650  225.7620 C   0  0  0  0  0  0  0  0  0  0  0  0
  140.7320   71.8310  224.5080 N   0  0  0  0  0  0  0  0  0  0  0  0
  141.3610   73.4920  222.7270 H   0  0  0  0  0  0  0  0  0  0  0  0
  140.9792   72.7379  219.8399 H   0  0  0  0  0  0  0  0  0  0  0  0
  140.5554   74.3706  220.4709 H   0  0  0  0  0  0  0  0  0  0  0  0
  145.2436   73.7026  221.3079 H   0  0  0  0  0  0  0  0  0  0  0  0
  144.8367   72.0312  221.6990 H   0  0  0  0  0  0  0  0  0  0  0  0
  146.5601   71.5302  220.1223 H   0  0  0  0  0  0  0  0  0  0  0  0
  145.9650   74.1410  219.2280 H   0  0  0  0  0  0  0  0  0  0  0  0
  145.0438   72.3504  217.7770 H   0  0  0  0  0  0  0  0  0  0  0  0
  145.2234   70.7140  218.4191 H   0  0  0  0  0  0  0  0  0  0  0  0
  142.8281   71.9517  218.4222 H   0  0  0  0  0  0  0  0  0  0  0  0
  143.0889   71.2134  220.9296 H   0  0  0  0  0  0  0  0  0  0  0  0
  141.4508   69.1058  219.9435 H   0  0  0  0  0  0  0  0  0  0  0  0
  141.6511   69.5305  218.4626 H   0  0  0  0  0  0  0  0  0  0  0  0
  143.9414   68.5609  220.5304 H   0  0  0  0  0  0  0  0  0  0  0  0
  144.5788   68.8906  219.1510 H   0  0  0  0  0  0  0  0  0  0  0  0
  139.1622   69.4113  222.7535 H   0  0  0  0  0  0  0  0  0  0  0  0
  138.8729   68.5036  225.0673 H   0  0  0  0  0  0  0  0  0  0  0  0
  139.2050   68.6887  227.3649 H   0  0  0  0  0  0  0  0  0  0  0  0
  140.1297   69.9565  229.3218 H   0  0  0  0  0  0  0  0  0  0  0  0
  141.3106   72.0686  228.9605 H   0  0  0  0  0  0  0  0  0  0  0  0
  141.6317   73.0178  226.7004 H   0  0  0  0  0  0  0  0  0  0  0  0
  1  2  2  0
  2  3  1  0
  3  4  1  0
  4  5  1  0
  5  6  2  0
  5  7  1  0
  7  8  1  0
  8  9  1  0
  9 10  1  0
  9 11  1  0
 11 12  1  0
 12 13  1  0
 13 14  1  0
 14 15  1  0
  2 16  1  0
 16 17  2  0
 17 18  1  0
 18 19  2  0
 19 20  1  0
 20 21  2  0
 21 22  1  0
 22 23  2  0
 23 24  1  0
 24 25  2  0
 12  7  1  0
 15 13  1  0
 25 16  1  0
 24 19  1  0
  3 26  1  0
  4 27  1  0
  4 28  1  0
  8 29  1  0
  8 30  1  0
  9 31  1  1
 10 32  1  0
 11 33  1  0
 11 34  1  0
 12 35  1  6
 13 36  1  0
 14 37  1  0
 14 38  1  0
 15 39  1  0
 15 40  1  0
 17 41  1  0
 18 42  1  0
 20 43  1  0
 21 44  1  0
 22 45  1  0
 23 46  1  0
M  END
>  <smiles>  (5) 
O=C(NCC(=O)N1C[C@H](O)C[C@H]1C1CC1)c1ccc2ccccc2n1

>  <score_type>  (5) 
oracle

>  <origin>  (5) 
autodockgpu

>  <m_score__min__energy>  (5) 
-7.7800000000000002

>  <m_primary>  (5) 
energy

>  <rmsd>  (5) 
4.216658434068354

>  <m_score__min__rmsd>  (5) 
4.216658434068354

>  <meeko>  (5) 
{"free_energy": -6.92, "intermolecular_energy": -8.71, "internal_energy": -1.73, "cluster_size": 27, "cluster_id": 1, "rank_in_cluster": 17}

>  <energy>  (5) 
-7.71

>  <cluster_rmsd>  (5) 
0.14

>  <cluster>  (5) 
1

$$$$

     RDKit          3D

 46 49  0  0  0  0  0  0  0  0999 V2000
  141.2070   71.9670  221.7060 O   0  0  0  0  0  0  0  0  0  0  0  0
  140.2700   72.1900  222.5320 C   0  0  0  0  0  0  0  0  0  0  0  0
  139.3510   73.2150  222.2650 N   0  0  0  0  0  0  0  0  0  0  0  0
  139.4390   74.0260  221.0780 C   0  0  0  0  0  0  0  0  0  0  0  0
  140.5230   75.0350  221.2270 C   0  0  0  0  0  0  0  0  0  0  0  0
  140.4690   75.9630  222.0750 O   0  0  0  0  0  0  0  0  0  0  0  0
  141.6440   74.9200  220.3730 N   0  0  0  0  0  0  0  0  0  0  0  0
  142.0840   73.7570  219.5920 C   0  0  0  0  0  0  0  0  0  0  0  0
  143.6020   73.7770  219.6790 C   0  0  2  0  0  0  0  0  0  0  0  0
  144.0320   72.8700  220.6580 O   0  0  0  0  0  0  0  0  0  0  0  0
  143.9560   75.1940  220.0480 C   0  0  0  0  0  0  0  0  0  0  0  0
  142.6400   75.9450  220.0640 C   0  0  1  0  0  0  0  0  0  0  0  0
  142.2750   76.5250  218.7200 C   0  0  0  0  0  0  0  0  0  0  0  0
  142.6280   77.9420  218.4020 C   0  0  0  0  0  0  0  0  0  0  0  0
  143.2990   76.7950  217.6770 C   0  0  0  0  0  0  0  0  0  0  0  0
  140.1650   71.3850  223.7340 C   0  0  0  0  0  0  0  0  0  0  0  0
  139.5660   70.1270  223.6790 C   0  0  0  0  0  0  0  0  0  0  0  0
  139.4730   69.3720  224.8300 C   0  0  0  0  0  0  0  0  0  0  0  0
  139.9870   69.9120  226.0060 C   0  0  0  0  0  0  0  0  0  0  0  0
  139.8690   69.1150  227.1430 C   0  0  0  0  0  0  0  0  0  0  0  0
  140.3720   69.6250  228.3290 C   0  0  0  0  0  0  0  0  0  0  0  0
  140.9540   70.8650  228.3470 C   0  0  0  0  0  0  0  0  0  0  0  0
  141.0690   71.6510  227.2260 C   0  0  0  0  0  0  0  0  0  0  0  0
  140.5690   71.1460  226.0400 C   0  0  0  0  0  0  0  0  0  0  0  0
  140.6480   71.8610  224.9020 N   0  0  0  0  0  0  0  0  0  0  0  0
  138.5850   73.4020  222.9350 H   0  0  0  0  0  0  0  0  0  0  0  0
  139.6574   73.3824  220.2131 H   0  0  0  0  0  0  0  0  0  0  0  0
  138.4817   74.5459  220.9255 H   0  0  0  0  0  0  0  0  0  0  0  0
  141.6841   72.8276  220.0236 H   0  0  0  0  0  0  0  0  0  0  0  0
  141.7289   73.7991  218.5518 H   0  0  0  0  0  0  0  0  0  0  0  0
  144.0871   73.4789  218.7378 H   0  0  0  0  0  0  0  0  0  0  0  0
  143.2020   72.5400  221.1100 H   0  0  0  0  0  0  0  0  0  0  0  0
  144.4301   75.2266  221.0401 H   0  0  0  0  0  0  0  0  0  0  0  0
  144.6710   75.6356  219.3383 H   0  0  0  0  0  0  0  0  0  0  0  0
  142.6963   76.7821  220.7753 H   0  0  0  0  0  0  0  0  0  0  0  0
  141.3480   75.9330  218.7388 H   0  0  0  0  0  0  0  0  0  0  0  0
  141.9091   78.5847  217.8727 H   0  0  0  0  0  0  0  0  0  0  0  0
  142.9739   78.8110  218.9810 H   0  0  0  0  0  0  0  0  0  0  0  0
  143.0703   76.6037  216.6182 H   0  0  0  0  0  0  0  0  0  0  0  0
  144.3400   76.4826  217.5076 H   0  0  0  0  0  0  0  0  0  0  0  0
  139.1716   69.7405  222.7276 H   0  0  0  0  0  0  0  0  0  0  0  0
  139.0077   68.3753  224.8190 H   0  0  0  0  0  0  0  0  0  0  0  0
  139.3964   68.1226  227.1007 H   0  0  0  0  0  0  0  0  0  0  0  0
  140.3041   69.0350  229.2549 H   0  0  0  0  0  0  0  0  0  0  0  0
  141.3464   71.2481  229.3006 H   0  0  0  0  0  0  0  0  0  0  0  0
  141.5407   72.6438  227.2704 H   0  0  0  0  0  0  0  0  0  0  0  0
  1  2  2  0
  2  3  1  0
  3  4  1  0
  4  5  1  0
  5  6  2  0
  5  7  1  0
  7  8  1  0
  8  9  1  0
  9 10  1  0
  9 11  1  0
 11 12  1  0
 12 13  1  0
 13 14  1  0
 14 15  1  0
  2 16  1  0
 16 17  2  0
 17 18  1  0
 18 19  2  0
 19 20  1  0
 20 21  2  0
 21 22  1  0
 22 23  2  0
 23 24  1  0
 24 25  2  0
 12  7  1  0
 15 13  1  0
 25 16  1  0
 24 19  1  0
  3 26  1  0
  4 27  1  0
  4 28  1  0
  8 29  1  0
  8 30  1  0
  9 31  1  6
 10 32  1  0
 11 33  1  0
 11 34  1  0
 12 35  1  1
 13 36  1  0
 14 37  1  0
 14 38  1  0
 15 39  1  0
 15 40  1  0
 17 41  1  0
 18 42  1  0
 20 43  1  0
 21 44  1  0
 22 45  1  0
 23 46  1  0
M  END
>  <smiles>  (6) 
O=C(NCC(=O)N1C[C@H](O)C[C@H]1C1CC1)c1ccc2ccccc2n1

>  <score_type>  (6) 
oracle

>  <origin>  (6) 
autodockgpu

>  <m_score__min__energy>  (6) 
-7.7800000000000002

>  <m_primary>  (6) 
energy

>  <rmsd>  (6) 
2.318829102957211

>  <m_score__min__rmsd>  (6) 
2.318829102957211

>  <meeko>  (6) 
{"free_energy": -7.0, "intermolecular_energy": -8.79, "internal_energy": -1.86, "cluster_size": 27, "cluster_id": 1, "rank_in_cluster": 12}

>  <energy>  (6) 
-7.7

>  <cluster_rmsd>  (6) 
0.12

>  <cluster>  (6) 
1

$$$$

     RDKit          3D

 46 49  0  0  0  0  0  0  0  0999 V2000
  140.3730   70.7800  221.5120 O   0  0  0  0  0  0  0  0  0  0  0  0
  139.9730   71.3190  222.5890 C   0  0  0  0  0  0  0  0  0  0  0  0
  139.5910   72.6680  222.5780 N   0  0  0  0  0  0  0  0  0  0  0  0
  139.6380   73.4630  221.3770 C   0  0  0  0  0  0  0  0  0  0  0  0
  140.9750   74.1010  221.2410 C   0  0  0  0  0  0  0  0  0  0  0  0
  141.2630   75.1930  221.7980 O   0  0  0  0  0  0  0  0  0  0  0  0
  141.9390   73.4340  220.4510 N   0  0  0  0  0  0  0  0  0  0  0  0
  141.9530   73.2380  218.9950 C   0  0  0  0  0  0  0  0  0  0  0  0
  142.5010   71.8340  218.7930 C   0  0  2  0  0  0  0  0  0  0  0  0
  141.4420   70.9400  218.5740 O   0  0  0  0  0  0  0  0  0  0  0  0
  143.2390   71.5130  220.0660 C   0  0  0  0  0  0  0  0  0  0  0  0
  143.1640   72.7740  220.9020 C   0  0  1  0  0  0  0  0  0  0  0  0
  144.3030   73.7270  220.6360 C   0  0  0  0  0  0  0  0  0  0  0  0
  145.6550   73.4470  221.2090 C   0  0  0  0  0  0  0  0  0  0  0  0
  145.4180   73.3810  219.7160 C   0  0  0  0  0  0  0  0  0  0  0  0
  139.9190   70.5350  223.8090 C   0  0  0  0  0  0  0  0  0  0  0  0
  139.2690   69.3020  223.8150 C   0  0  0  0  0  0  0  0  0  0  0  0
  139.2250   68.5680  224.9810 C   0  0  0  0  0  0  0  0  0  0  0  0
  139.8390   69.1020  226.1110 C   0  0  0  0  0  0  0  0  0  0  0  0
  139.7680   68.3260  227.2660 C   0  0  0  0  0  0  0  0  0  0  0  0
  140.3700   68.8320  228.4070 C   0  0  0  0  0  0  0  0  0  0  0  0
  141.0000   70.0480  228.3650 C   0  0  0  0  0  0  0  0  0  0  0  0
  141.0700   70.8140  227.2260 C   0  0  0  0  0  0  0  0  0  0  0  0
  140.4700   70.3130  226.0850 C   0  0  0  0  0  0  0  0  0  0  0  0
  140.4980   71.0080  224.9330 N   0  0  0  0  0  0  0  0  0  0  0  0
  139.2630   73.1140  223.4530 H   0  0  0  0  0  0  0  0  0  0  0  0
  139.4519   72.8179  220.5057 H   0  0  0  0  0  0  0  0  0  0  0  0
  138.8680   74.2466  221.4324 H   0  0  0  0  0  0  0  0  0  0  0  0
  140.9359   73.3190  218.5840 H   0  0  0  0  0  0  0  0  0  0  0  0
  142.5612   73.9971  218.4814 H   0  0  0  0  0  0  0  0  0  0  0  0
  143.1652   71.7564  217.9196 H   0  0  0  0  0  0  0  0  0  0  0  0
  140.9570   70.8700  219.4470 H   0  0  0  0  0  0  0  0  0  0  0  0
  142.7567   70.6745  220.5897 H   0  0  0  0  0  0  0  0  0  0  0  0
  144.2789   71.2117  219.8717 H   0  0  0  0  0  0  0  0  0  0  0  0
  143.1981   72.5158  221.9707 H   0  0  0  0  0  0  0  0  0  0  0  0
  143.5886   74.5621  220.6831 H   0  0  0  0  0  0  0  0  0  0  0  0
  146.2532   74.2646  221.6375 H   0  0  0  0  0  0  0  0  0  0  0  0
  146.0557   72.7598  221.9687 H   0  0  0  0  0  0  0  0  0  0  0  0
  145.8461   74.1499  219.0560 H   0  0  0  0  0  0  0  0  0  0  0  0
  145.5768   72.6232  218.9347 H   0  0  0  0  0  0  0  0  0  0  0  0
  138.7961   68.9186  222.8988 H   0  0  0  0  0  0  0  0  0  0  0  0
  138.7207   67.5911  225.0176 H   0  0  0  0  0  0  0  0  0  0  0  0
  139.2556   67.3526  227.2719 H   0  0  0  0  0  0  0  0  0  0  0  0
  140.3421   68.2582  229.3451 H   0  0  0  0  0  0  0  0  0  0  0  0
  141.4707   70.4281  229.2837 H   0  0  0  0  0  0  0  0  0  0  0  0
  141.5830   71.7871  227.2220 H   0  0  0  0  0  0  0  0  0  0  0  0
  1  2  2  0
  2  3  1  0
  3  4  1  0
  4  5  1  0
  5  6  2  0
  5  7  1  0
  7  8  1  0
  8  9  1  0
  9 10  1  0
  9 11  1  0
 11 12  1  0
 12 13  1  0
 13 14  1  0
 14 15  1  0
  2 16  1  0
 16 17  2  0
 17 18  1  0
 18 19  2  0
 19 20  1  0
 20 21  2  0
 21 22  1  0
 22 23  2  0
 23 24  1  0
 24 25  2  0
 12  7  1  0
 15 13  1  0
 25 16  1  0
 24 19  1  0
  3 26  1  0
  4 27  1  0
  4 28  1  0
  8 29  1  0
  8 30  1  0
  9 31  1  6
 10 32  1  0
 11 33  1  0
 11 34  1  0
 12 35  1  1
 13 36  1  0
 14 37  1  0
 14 38  1  0
 15 39  1  0
 15 40  1  0
 17 41  1  0
 18 42  1  0
 20 43  1  0
 21 44  1  0
 22 45  1  0
 23 46  1  0
M  END
>  <smiles>  (7) 
O=C(NCC(=O)N1C[C@H](O)C[C@H]1C1CC1)c1ccc2ccccc2n1

>  <score_type>  (7) 
oracle

>  <origin>  (7) 
autodockgpu

>  <m_score__min__energy>  (7) 
-7.7800000000000002

>  <m_primary>  (7) 
energy

>  <rmsd>  (7) 
3.0637115087581743

>  <m_score__min__rmsd>  (7) 
3.0637115087581743

>  <meeko>  (7) 
{"free_energy": -6.73, "intermolecular_energy": -8.52, "internal_energy": -2.1, "cluster_size": 27, "cluster_id": 1, "rank_in_cluster": 21}

>  <energy>  (7) 
-7.64

>  <cluster_rmsd>  (7) 
0.34

>  <cluster>  (7) 
1

$$$$

     RDKit          3D

 46 49  0  0  0  0  0  0  0  0999 V2000
  141.6920   71.9950  221.1730 O   0  0  0  0  0  0  0  0  0  0  0  0
  141.0310   72.8420  221.8480 C   0  0  0  0  0  0  0  0  0  0  0  0
  140.1960   72.3910  222.8810 N   0  0  0  0  0  0  0  0  0  0  0  0
  140.0670   70.9930  223.2010 C   0  0  0  0  0  0  0  0  0  0  0  0
  139.2260   70.8230  224.4170 C   0  0  0  0  0  0  0  0  0  0  0  0
  138.0900   71.3540  224.5320 O   0  0  0  0  0  0  0  0  0  0  0  0
  139.7460   70.0300  225.4650 N   0  0  0  0  0  0  0  0  0  0  0  0
  140.4250   68.7300  225.3790 C   0  0  0  0  0  0  0  0  0  0  0  0
  139.9270   67.9450  226.5830 C   0  0  2  0  0  0  0  0  0  0  0  0
  138.9060   67.0690  226.1870 O   0  0  0  0  0  0  0  0  0  0  0  0
  139.4170   68.9860  227.5460 C   0  0  0  0  0  0  0  0  0  0  0  0
  139.7290   70.3190  226.8980 C   0  0  1  0  0  0  0  0  0  0  0  0
  141.0970   70.8450  227.2590 C   0  0  0  0  0  0  0  0  0  0  0  0
  141.4650   72.2530  226.9190 C   0  0  0  0  0  0  0  0  0  0  0  0
  141.2960   71.8230  228.3610 C   0  0  0  0  0  0  0  0  0  0  0  0
  141.1460   74.2550  221.5410 C   0  0  0  0  0  0  0  0  0  0  0  0
  142.0240   74.6810  220.5450 C   0  0  0  0  0  0  0  0  0  0  0  0
  142.1230   76.0270  220.2640 C   0  0  0  0  0  0  0  0  0  0  0  0
  141.3320   76.9070  220.9980 C   0  0  0  0  0  0  0  0  0  0  0  0
  141.4660   78.2560  220.6800 C   0  0  0  0  0  0  0  0  0  0  0  0
  140.6910   79.1560  221.3930 C   0  0  0  0  0  0  0  0  0  0  0  0
  139.8380   78.7020  222.3650 C   0  0  0  0  0  0  0  0  0  0  0  0
  139.7050   77.3710  222.6790 C   0  0  0  0  0  0  0  0  0  0  0  0
  140.4770   76.4690  221.9690 C   0  0  0  0  0  0  0  0  0  0  0  0
  140.4000   75.1500  222.2230 N   0  0  0  0  0  0  0  0  0  0  0  0
  139.6530   73.0770  223.4350 H   0  0  0  0  0  0  0  0  0  0  0  0
  139.5962   70.4683  222.3566 H   0  0  0  0  0  0  0  0  0  0  0  0
  141.0657   70.5734  223.3920 H   0  0  0  0  0  0  0  0  0  0  0  0
  140.1576   68.2153  224.4444 H   0  0  0  0  0  0  0  0  0  0  0  0
  141.5200   68.8351  225.3786 H   0  0  0  0  0  0  0  0  0  0  0  0
  140.7114   67.3272  227.0445 H   0  0  0  0  0  0  0  0  0  0  0  0
  138.9620   67.0160  225.1890 H   0  0  0  0  0  0  0  0  0  0  0  0
  138.3328   68.8746  227.6948 H   0  0  0  0  0  0  0  0  0  0  0  0
  139.8862   68.8924  228.5365 H   0  0  0  0  0  0  0  0  0  0  0  0
  138.9945   71.0714  227.2211 H   0  0  0  0  0  0  0  0  0  0  0  0
  141.5149   69.8511  227.0410 H   0  0  0  0  0  0  0  0  0  0  0  0
  142.4661   72.4822  226.5249 H   0  0  0  0  0  0  0  0  0  0  0  0
  141.0371   73.0415  226.2825 H   0  0  0  0  0  0  0  0  0  0  0  0
  142.1745   71.7413  229.0179 H   0  0  0  0  0  0  0  0  0  0  0  0
  140.6929   72.1711  229.2126 H   0  0  0  0  0  0  0  0  0  0  0  0
  142.6310   73.9510  219.9895 H   0  0  0  0  0  0  0  0  0  0  0  0
  142.8059   76.3945  219.4839 H   0  0  0  0  0  0  0  0  0  0  0  0
  142.1588   78.5932  219.8949 H   0  0  0  0  0  0  0  0  0  0  0  0
  140.7601   80.2329  221.1795 H   0  0  0  0  0  0  0  0  0  0  0  0
  139.2332   79.4356  222.9182 H   0  0  0  0  0  0  0  0  0  0  0  0
  139.0116   77.0357  223.4644 H   0  0  0  0  0  0  0  0  0  0  0  0
  1  2  2  0
  2  3  1  0
  3  4  1  0
  4  5  1  0
  5  6  2  0
  5  7  1  0
  7  8  1  0
  8  9  1  0
  9 10  1  0
  9 11  1  0
 11 12  1  0
 12 13  1  0
 13 14  1  0
 14 15  1  0
  2 16  1  0
 16 17  2  0
 17 18  1  0
 18 19  2  0
 19 20  1  0
 20 21  2  0
 21 22  1  0
 22 23  2  0
 23 24  1  0
 24 25  2  0
 12  7  1  0
 15 13  1  0
 25 16  1  0
 24 19  1  0
  3 26  1  0
  4 27  1  0
  4 28  1  0
  8 29  1  0
  8 30  1  0
  9 31  1  1
 10 32  1  0
 11 33  1  0
 11 34  1  0
 12 35  1  6
 13 36  1  0
 14 37  1  0
 14 38  1  0
 15 39  1  0
 15 40  1  0
 17 41  1  0
 18 42  1  0
 20 43  1  0
 21 44  1  0
 22 45  1  0
 23 46  1  0
M  END
>  <smiles>  (8) 
O=C(NCC(=O)N1C[C@H](O)C[C@H]1C1CC1)c1ccc2ccccc2n1

>  <score_type>  (8) 
oracle

>  <origin>  (8) 
autodockgpu

>  <m_score__min__energy>  (8) 
-7.7800000000000002

>  <m_primary>  (8) 
energy

>  <rmsd>  (8) 
8.736869450435561

>  <m_score__min__rmsd>  (8) 
8.736869450435561

>  <meeko>  (8) 
{"free_energy": -7.02, "intermolecular_energy": -8.81, "internal_energy": -1.55, "cluster_size": 1, "cluster_id": 4, "rank_in_cluster": 1}

>  <energy>  (8) 
-7.33

>  <cluster_rmsd>  (8) 
1.47

>  <cluster>  (8) 
1

$$$$

     RDKit          3D

 46 49  0  0  0  0  0  0  0  0999 V2000
  140.0410   71.5950  221.1690 O   0  0  0  0  0  0  0  0  0  0  0  0
  139.9110   72.1470  222.3040 C   0  0  0  0  0  0  0  0  0  0  0  0
  139.6900   73.5310  222.3710 N   0  0  0  0  0  0  0  0  0  0  0  0
  139.6050   74.3470  221.1860 C   0  0  0  0  0  0  0  0  0  0  0  0
  138.8790   75.6100  221.4880 C   0  0  0  0  0  0  0  0  0  0  0  0
  137.6480   75.6340  221.7520 O   0  0  0  0  0  0  0  0  0  0  0  0
  139.6230   76.8110  221.4700 N   0  0  0  0  0  0  0  0  0  0  0  0
  140.1670   77.5340  220.3130 C   0  0  0  0  0  0  0  0  0  0  0  0
  141.5190   78.0560  220.7740 C   0  0  2  0  0  0  0  0  0  0  0  0
  142.5360   77.2100  220.3090 O   0  0  0  0  0  0  0  0  0  0  0  0
  141.4470   78.0550  222.2790 C   0  0  0  0  0  0  0  0  0  0  0  0
  140.0330   77.6260  222.6130 C   0  0  1  0  0  0  0  0  0  0  0  0
  139.0700   78.7840  222.6980 C   0  0  0  0  0  0  0  0  0  0  0  0
  139.1440   79.7300  223.8530 C   0  0  0  0  0  0  0  0  0  0  0  0
  139.5020   80.1860  222.4550 C   0  0  0  0  0  0  0  0  0  0  0  0
  139.9930   71.3440  223.5090 C   0  0  0  0  0  0  0  0  0  0  0  0
  139.5790   70.0120  223.4870 C   0  0  0  0  0  0  0  0  0  0  0  0
  139.6630   69.2600  224.6390 C   0  0  0  0  0  0  0  0  0  0  0  0
  140.1620   69.8750  225.7840 C   0  0  0  0  0  0  0  0  0  0  0  0
  140.2280   69.0770  226.9240 C   0  0  0  0  0  0  0  0  0  0  0  0
  140.7220   69.6610  228.0790 C   0  0  0  0  0  0  0  0  0  0  0  0
  141.1200   70.9720  228.0650 C   0  0  0  0  0  0  0  0  0  0  0  0
  141.0550   71.7600  226.9410 C   0  0  0  0  0  0  0  0  0  0  0  0
  140.5630   71.1810  225.7860 C   0  0  0  0  0  0  0  0  0  0  0  0
  140.4710   71.8910  224.6460 N   0  0  0  0  0  0  0  0  0  0  0  0
  139.5820   73.9870  223.2940 H   0  0  0  0  0  0  0  0  0  0  0  0
  140.6197   74.5854  220.8345 H   0  0  0  0  0  0  0  0  0  0  0  0
  139.0597   73.7950  220.4063 H   0  0  0  0  0  0  0  0  0  0  0  0
  140.2866   76.8561  219.4550 H   0  0  0  0  0  0  0  0  0  0  0  0
  139.5017   78.3456  219.9833 H   0  0  0  0  0  0  0  0  0  0  0  0
  141.7434   79.0612  220.3876 H   0  0  0  0  0  0  0  0  0  0  0  0
  143.3830   77.5460  220.7230 H   0  0  0  0  0  0  0  0  0  0  0  0
  142.1742   77.3444  222.6988 H   0  0  0  0  0  0  0  0  0  0  0  0
  141.6857   79.0424  222.7010 H   0  0  0  0  0  0  0  0  0  0  0  0
  140.0179   77.1171  223.5881 H   0  0  0  0  0  0  0  0  0  0  0  0
  138.2925   78.1418  222.2586 H   0  0  0  0  0  0  0  0  0  0  0  0
  138.2214   80.0899  224.3318 H   0  0  0  0  0  0  0  0  0  0  0  0
  139.6490   79.7334  224.8302 H   0  0  0  0  0  0  0  0  0  0  0  0
  138.8407   80.8804  221.9160 H   0  0  0  0  0  0  0  0  0  0  0  0
  140.3784   80.6621  221.9911 H   0  0  0  0  0  0  0  0  0  0  0  0
  139.1895   69.5664  222.5598 H   0  0  0  0  0  0  0  0  0  0  0  0
  139.3457   68.2069  224.6533 H   0  0  0  0  0  0  0  0  0  0  0  0
  139.9014   68.0267  226.9077 H   0  0  0  0  0  0  0  0  0  0  0  0
  140.7946   69.0731  229.0059 H   0  0  0  0  0  0  0  0  0  0  0  0
  141.5087   71.4133  228.9946 H   0  0  0  0  0  0  0  0  0  0  0  0
  141.3816   72.8102  226.9596 H   0  0  0  0  0  0  0  0  0  0  0  0
  1  2  2  0
  2  3  1  0
  3  4  1  0
  4  5  1  0
  5  6  2  0
  5  7  1  0
  7  8  1  0
  8  9  1  0
  9 10  1  0
  9 11  1  0
 11 12  1  0
 12 13  1  0
 13 14  1  0
 14 15  1  0
  2 16  1  0
 16 17  2  0
 17 18  1  0
 18 19  2  0
 19 20  1  0
 20 21  2  0
 21 22  1  0
 22 23  2  0
 23 24  1  0
 24 25  2  0
 12  7  1  0
 15 13  1  0
 25 16  1  0
 24 19  1  0
  3 26  1  0
  4 27  1  0
  4 28  1  0
  8 29  1  0
  8 30  1  0
  9 31  1  6
 10 32  1  0
 11 33  1  0
 11 34  1  0
 12 35  1  1
 13 36  1  0
 14 37  1  0
 14 38  1  0
 15 39  1  0
 15 40  1  0
 17 41  1  0
 18 42  1  0
 20 43  1  0
 21 44  1  0
 22 45  1  0
 23 46  1  0
M  END
>  <smiles>  (9) 
O=C(NCC(=O)N1C[C@H](O)C[C@H]1C1CC1)c1ccc2ccccc2n1

>  <score_type>  (9) 
oracle

>  <origin>  (9) 
autodockgpu

>  <m_score__min__energy>  (9) 
-7.7800000000000002

>  <m_primary>  (9) 
energy

>  <rmsd>  (9) 
2.4610875599021207

>  <m_score__min__rmsd>  (9) 
2.4610875599021207

>  <meeko>  (9) 
{"free_energy": -7.21, "intermolecular_energy": -9.0, "internal_energy": -1.15, "cluster_size": 5, "cluster_id": 2, "rank_in_cluster": 3}

>  <energy>  (9) 
-7.15

>  <cluster_rmsd>  (9) 
0.99

>  <cluster>  (9) 
1

$$$$

     RDKit          3D

 46 49  0  0  0  0  0  0  0  0999 V2000
  140.5030   73.3060  222.3430 O   0  0  0  0  0  0  0  0  0  0  0  0
  140.4510   72.0390  222.3790 C   0  0  0  0  0  0  0  0  0  0  0  0
  140.6440   71.3120  221.1950 N   0  0  0  0  0  0  0  0  0  0  0  0
  140.9000   71.9620  219.9350 C   0  0  0  0  0  0  0  0  0  0  0  0
  142.2600   71.6100  219.4470 C   0  0  0  0  0  0  0  0  0  0  0  0
  142.5500   70.4610  219.0250 O   0  0  0  0  0  0  0  0  0  0  0  0
  143.2440   72.6260  219.4680 N   0  0  0  0  0  0  0  0  0  0  0  0
  144.4470   72.7530  218.6340 C   0  0  0  0  0  0  0  0  0  0  0  0
  145.5170   73.2970  219.5670 C   0  0  2  0  0  0  0  0  0  0  0  0
  146.3350   72.2480  220.0120 O   0  0  0  0  0  0  0  0  0  0  0  0
  144.7600   73.9270  220.7070 C   0  0  0  0  0  0  0  0  0  0  0  0
  143.2970   73.8010  220.3360 C   0  0  1  0  0  0  0  0  0  0  0  0
  142.7910   74.9700  219.5270 C   0  0  0  0  0  0  0  0  0  0  0  0
  141.9720   76.0320  220.1870 C   0  0  0  0  0  0  0  0  0  0  0  0
  143.3640   76.3340  219.6760 C   0  0  0  0  0  0  0  0  0  0  0  0
  140.1940   71.3650  223.6380 C   0  0  0  0  0  0  0  0  0  0  0  0
  139.4430   70.1900  223.6570 C   0  0  0  0  0  0  0  0  0  0  0  0
  139.2070   69.5590  224.8600 C   0  0  0  0  0  0  0  0  0  0  0  0
  139.7360   70.1350  226.0120 C   0  0  0  0  0  0  0  0  0  0  0  0
  139.4710   69.4640  227.2040 C   0  0  0  0  0  0  0  0  0  0  0  0
  139.9850   70.0120  228.3680 C   0  0  0  0  0  0  0  0  0  0  0  0
  140.7180   71.1680  228.3130 C   0  0  0  0  0  0  0  0  0  0  0  0
  140.9800   71.8300  227.1370 C   0  0  0  0  0  0  0  0  0  0  0  0
  140.4690   71.2860  225.9730 C   0  0  0  0  0  0  0  0  0  0  0  0
  140.6850   71.8800  224.7840 N   0  0  0  0  0  0  0  0  0  0  0  0
  140.6030   70.2780  221.2180 H   0  0  0  0  0  0  0  0  0  0  0  0
  140.1524   71.6341  219.1977 H   0  0  0  0  0  0  0  0  0  0  0  0
  140.8368   73.0516  220.0719 H   0  0  0  0  0  0  0  0  0  0  0  0
  144.7451   71.7728  218.2337 H   0  0  0  0  0  0  0  0  0  0  0  0
  144.2815   73.4100  217.7674 H   0  0  0  0  0  0  0  0  0  0  0  0
  146.1788   74.0271  219.0782 H   0  0  0  0  0  0  0  0  0  0  0  0
  145.8980   71.8910  220.8390 H   0  0  0  0  0  0  0  0  0  0  0  0
  144.9660   73.3941  221.6470 H   0  0  0  0  0  0  0  0  0  0  0  0
  145.0537   74.9755  220.8635 H   0  0  0  0  0  0  0  0  0  0  0  0
  142.6845   73.7453  221.2480 H   0  0  0  0  0  0  0  0  0  0  0  0
  142.6538   74.2927  218.6712 H   0  0  0  0  0  0  0  0  0  0  0  0
  141.0930   76.4498  219.6743 H   0  0  0  0  0  0  0  0  0  0  0  0
  141.4538   76.1336  221.1520 H   0  0  0  0  0  0  0  0  0  0  0  0
  143.4992   76.9741  218.7917 H   0  0  0  0  0  0  0  0  0  0  0  0
  144.2825   76.7496  220.1160 H   0  0  0  0  0  0  0  0  0  0  0  0
  139.0430   69.7710  222.7219 H   0  0  0  0  0  0  0  0  0  0  0  0
  138.6196   68.6302  224.9081 H   0  0  0  0  0  0  0  0  0  0  0  0
  138.8782   68.5375  227.2202 H   0  0  0  0  0  0  0  0  0  0  0  0
  139.8048   69.5196  229.3350 H   0  0  0  0  0  0  0  0  0  0  0  0
  141.1142   71.5847  229.2507 H   0  0  0  0  0  0  0  0  0  0  0  0
  141.5730   72.7563  227.1226 H   0  0  0  0  0  0  0  0  0  0  0  0
  1  2  2  0
  2  3  1  0
  3  4  1  0
  4  5  1  0
  5  6  2  0
  5  7  1  0
  7  8  1  0
  8  9  1  0
  9 10  1  0
  9 11  1  0
 11 12  1  0
 12 13  1  0
 13 14  1  0
 14 15  1  0
  2 16  1  0
 16 17  2  0
 17 18  1  0
 18 19  2  0
 19 20  1  0
 20 21  2  0
 21 22  1  0
 22 23  2  0
 23 24  1  0
 24 25  2  0
 12  7  1  0
 15 13  1  0
 25 16  1  0
 24 19  1  0
  3 26  1  0
  4 27  1  0
  4 28  1  0
  8 29  1  0
  8 30  1  0
  9 31  1  6
 10 32  1  0
 11 33  1  0
 11 34  1  0
 12 35  1  1
 13 36  1  0
 14 37  1  0
 14 38  1  0
 15 39  1  0
 15 40  1  0
 17 41  1  0
 18 42  1  0
 20 43  1  0
 21 44  1  0
 22 45  1  0
 23 46  1  0
M  END
>  <smiles>  (10) 
O=C(NCC(=O)N1C[C@H](O)C[C@H]1C1CC1)c1ccc2ccccc2n1

>  <score_type>  (10) 
oracle

>  <origin>  (10) 
autodockgpu

>  <m_score__min__energy>  (10) 
-7.7800000000000002

>  <m_primary>  (10) 
energy

>  <rmsd>  (10) 
3.702364347143043

>  <m_score__min__rmsd>  (10) 
3.702364347143043

>  <meeko>  (10) 
{"free_energy": -7.72, "intermolecular_energy": -9.51, "internal_energy": -1.26, "cluster_size": 27, "cluster_id": 1, "rank_in_cluster": 4}

>  <energy>  (10) 
-7.04

>  <cluster_rmsd>  (10) 
1.49

>  <cluster>  (10) 
1

$$$$

     RDKit          3D

 46 49  0  0  0  0  0  0  0  0999 V2000
  138.0540   74.4780  222.0770 O   0  0  0  0  0  0  0  0  0  0  0  0
  139.1660   75.0690  221.9230 C   0  0  0  0  0  0  0  0  0  0  0  0
  139.2270   76.4630  222.0730 N   0  0  0  0  0  0  0  0  0  0  0  0
  138.0620   77.2450  222.3980 C   0  0  0  0  0  0  0  0  0  0  0  0
  138.4630   78.6320  222.7570 C   0  0  0  0  0  0  0  0  0  0  0  0
  137.6710   79.4440  223.3050 O   0  0  0  0  0  0  0  0  0  0  0  0
  139.7880   79.0250  222.4620 N   0  0  0  0  0  0  0  0  0  0  0  0
  140.4050   79.2530  221.1490 C   0  0  0  0  0  0  0  0  0  0  0  0
  141.8200   78.7120  221.2800 C   0  0  2  0  0  0  0  0  0  0  0  0
  141.8890   77.4260  220.7240 O   0  0  0  0  0  0  0  0  0  0  0  0
  142.0960   78.6880  222.7600 C   0  0  0  0  0  0  0  0  0  0  0  0
  140.8700   79.3010  223.4060 C   0  0  1  0  0  0  0  0  0  0  0  0
  140.9630   80.8000  223.5460 C   0  0  0  0  0  0  0  0  0  0  0  0
  142.2120   81.4200  224.0860 C   0  0  0  0  0  0  0  0  0  0  0  0
  141.8090   81.6220  222.6410 C   0  0  0  0  0  0  0  0  0  0  0  0
  140.3510   74.3000  221.5940 C   0  0  0  0  0  0  0  0  0  0  0  0
  140.3530   72.9160  221.7670 C   0  0  0  0  0  0  0  0  0  0  0  0
  141.4860   72.1970  221.4500 C   0  0  0  0  0  0  0  0  0  0  0  0
  142.5880   72.8980  220.9680 C   0  0  0  0  0  0  0  0  0  0  0  0
  143.7100   72.1310  220.6620 C   0  0  0  0  0  0  0  0  0  0  0  0
  144.8230   72.8000  220.1790 C   0  0  0  0  0  0  0  0  0  0  0  0
  144.7870   74.1600  220.0220 C   0  0  0  0  0  0  0  0  0  0  0  0
  143.6810   74.9170  220.3230 C   0  0  0  0  0  0  0  0  0  0  0  0
  142.5670   74.2540  220.8050 C   0  0  0  0  0  0  0  0  0  0  0  0
  141.4470   74.9300  221.1220 N   0  0  0  0  0  0  0  0  0  0  0  0
  140.1310   76.9510  221.9480 H   0  0  0  0  0  0  0  0  0  0  0  0
  137.3888   77.2741  221.5285 H   0  0  0  0  0  0  0  0  0  0  0  0
  137.5465   76.7855  223.2542 H   0  0  0  0  0  0  0  0  0  0  0  0
  139.8554   78.7123  220.3644 H   0  0  0  0  0  0  0  0  0  0  0  0
  140.3935   80.3159  220.8660 H   0  0  0  0  0  0  0  0  0  0  0  0
  142.5622   79.3253  220.7480 H   0  0  0  0  0  0  0  0  0  0  0  0
  142.2350   76.8320  221.4510 H   0  0  0  0  0  0  0  0  0  0  0  0
  142.2389   77.6545  223.1085 H   0  0  0  0  0  0  0  0  0  0  0  0
  143.0128   79.2398  223.0149 H   0  0  0  0  0  0  0  0  0  0  0  0
  140.7351   78.8877  224.4164 H   0  0  0  0  0  0  0  0  0  0  0  0
  139.8969   80.8209  223.8163 H   0  0  0  0  0  0  0  0  0  0  0  0
  142.1501   82.2558  224.7985 H   0  0  0  0  0  0  0  0  0  0  0  0
  143.1090   81.0492  224.6036 H   0  0  0  0  0  0  0  0  0  0  0  0
  141.4557   82.6065  222.3004 H   0  0  0  0  0  0  0  0  0  0  0  0
  142.2938   81.4599  221.6670 H   0  0  0  0  0  0  0  0  0  0  0  0
  139.4595   72.4032  222.1525 H   0  0  0  0  0  0  0  0  0  0  0  0
  141.5181   71.1045  221.5740 H   0  0  0  0  0  0  0  0  0  0  0  0
  143.7122   71.0395  220.7982 H   0  0  0  0  0  0  0  0  0  0  0  0
  145.7341   72.2397  219.9221 H   0  0  0  0  0  0  0  0  0  0  0  0
  145.6835   74.6687  219.6379 H   0  0  0  0  0  0  0  0  0  0  0  0
  143.6813   76.0084  220.1860 H   0  0  0  0  0  0  0  0  0  0  0  0
  1  2  2  0
  2  3  1  0
  3  4  1  0
  4  5  1  0
  5  6  2  0
  5  7  1  0
  7  8  1  0
  8  9  1  0
  9 10  1  0
  9 11  1  0
 11 12  1  0
 12 13  1  0
 13 14  1  0
 14 15  1  0
  2 16  1  0
 16 17  2  0
 17 18  1  0
 18 19  2  0
 19 20  1  0
 20 21  2  0
 21 22  1  0
 22 23  2  0
 23 24  1  0
 24 25  2  0
 12  7  1  0
 15 13  1  0
 25 16  1  0
 24 19  1  0
  3 26  1  0
  4 27  1  0
  4 28  1  0
  8 29  1  0
  8 30  1  0
  9 31  1  6
 10 32  1  0
 11 33  1  0
 11 34  1  0
 12 35  1  1
 13 36  1  0
 14 37  1  0
 14 38  1  0
 15 39  1  0
 15 40  1  0
 17 41  1  0
 18 42  1  0
 20 43  1  0
 21 44  1  0
 22 45  1  0
 23 46  1  0
M  END
>  <smiles>  (11) 
O=C(NCC(=O)N1C[C@H](O)C[C@H]1C1CC1)c1ccc2ccccc2n1

>  <score_type>  (11) 
oracle

>  <origin>  (11) 
autodockgpu

>  <m_score__min__energy>  (11) 
-7.7800000000000002

>  <m_primary>  (11) 
energy

>  <rmsd>  (11) 
5.83509423391991

>  <m_score__min__rmsd>  (11) 
5.83509423391991

>  <meeko>  (11) 
{"free_energy": -5.81, "intermolecular_energy": -7.6, "internal_energy": -2.82, "cluster_size": 3, "cluster_id": 6, "rank_in_cluster": 2}

>  <energy>  (11) 
-7.03

>  <cluster_rmsd>  (11) 
1.5

>  <cluster>  (11) 
1

$$$$

     RDKit          3D

 46 49  0  0  0  0  0  0  0  0999 V2000
  141.0420   71.5330  221.4710 O   0  0  0  0  0  0  0  0  0  0  0  0
  140.4170   72.0750  222.4330 C   0  0  0  0  0  0  0  0  0  0  0  0
  139.9170   73.3760  222.2780 N   0  0  0  0  0  0  0  0  0  0  0  0
  140.0900   74.1170  221.0550 C   0  0  0  0  0  0  0  0  0  0  0  0
  140.9060   75.3360  221.3080 C   0  0  0  0  0  0  0  0  0  0  0  0
  140.6540   76.1340  222.2480 O   0  0  0  0  0  0  0  0  0  0  0  0
  142.0010   75.5790  220.4470 N   0  0  0  0  0  0  0  0  0  0  0  0
  142.6160   76.8640  220.0890 C   0  0  0  0  0  0  0  0  0  0  0  0
  142.9700   76.7340  218.6160 C   0  0  2  0  0  0  0  0  0  0  0  0
  141.9870   77.3600  217.8360 O   0  0  0  0  0  0  0  0  0  0  0  0
  143.0190   75.2510  218.3540 C   0  0  0  0  0  0  0  0  0  0  0  0
  142.7860   74.5970  219.7000 C   0  0  1  0  0  0  0  0  0  0  0  0
  144.0600   74.3690  220.4740 C   0  0  0  0  0  0  0  0  0  0  0  0
  144.4590   72.9810  220.8570 C   0  0  0  0  0  0  0  0  0  0  0  0
  145.2650   73.7670  219.8440 C   0  0  0  0  0  0  0  0  0  0  0  0
  140.2330   71.3450  223.6730 C   0  0  0  0  0  0  0  0  0  0  0  0
  139.5700   70.1180  223.6670 C   0  0  0  0  0  0  0  0  0  0  0  0
  139.4020   69.4350  224.8530 C   0  0  0  0  0  0  0  0  0  0  0  0
  139.9070   70.0130  226.0140 C   0  0  0  0  0  0  0  0  0  0  0  0
  139.7130   69.2880  227.1880 C   0  0  0  0  0  0  0  0  0  0  0  0
  140.2050   69.8370  228.3610 C   0  0  0  0  0  0  0  0  0  0  0  0
  140.8510   71.0450  228.3310 C   0  0  0  0  0  0  0  0  0  0  0  0
  141.0420   71.7610  227.1740 C   0  0  0  0  0  0  0  0  0  0  0  0
  140.5530   71.2160  226.0010 C   0  0  0  0  0  0  0  0  0  0  0  0
  140.7040   71.8600  224.8290 N   0  0  0  0  0  0  0  0  0  0  0  0
  139.4060   73.8240  223.0590 H   0  0  0  0  0  0  0  0  0  0  0  0
  140.6012   73.4838  220.3149 H   0  0  0  0  0  0  0  0  0  0  0  0
  139.1032   74.4167  220.6723 H   0  0  0  0  0  0  0  0  0  0  0  0
  141.9056   77.6893  220.2445 H   0  0  0  0  0  0  0  0  0  0  0  0
  143.4978   77.0867  220.7078 H   0  0  0  0  0  0  0  0  0  0  0  0
  143.9267   77.2142  218.3627 H   0  0  0  0  0  0  0  0  0  0  0  0
  142.4710   77.7650  217.0590 H   0  0  0  0  0  0  0  0  0  0  0  0
  142.2318   74.9595  217.6431 H   0  0  0  0  0  0  0  0  0  0  0  0
  143.9784   74.9453  217.9112 H   0  0  0  0  0  0  0  0  0  0  0  0
  142.3098   73.6153  219.5605 H   0  0  0  0  0  0  0  0  0  0  0  0
  143.8752   75.3088  221.0149 H   0  0  0  0  0  0  0  0  0  0  0  0
  144.8726   72.7814  221.8566 H   0  0  0  0  0  0  0  0  0  0  0  0
  143.9622   71.9997  220.8698 H   0  0  0  0  0  0  0  0  0  0  0  0
  146.2669   74.1381  220.1056 H   0  0  0  0  0  0  0  0  0  0  0  0
  145.6003   73.5937  218.8108 H   0  0  0  0  0  0  0  0  0  0  0  0
  139.1850   69.6993  222.7255 H   0  0  0  0  0  0  0  0  0  0  0  0
  138.8853   68.4643  224.8806 H   0  0  0  0  0  0  0  0  0  0  0  0
  139.1908   68.3199  227.1836 H   0  0  0  0  0  0  0  0  0  0  0  0
  140.0773   69.3040  229.3147 H   0  0  0  0  0  0  0  0  0  0  0  0
  141.2337   71.4600  229.2751 H   0  0  0  0  0  0  0  0  0  0  0  0
  141.5634   72.7296  227.1806 H   0  0  0  0  0  0  0  0  0  0  0  0
  1  2  2  0
  2  3  1  0
  3  4  1  0
  4  5  1  0
  5  6  2  0
  5  7  1  0
  7  8  1  0
  8  9  1  0
  9 10  1  0
  9 11  1  0
 11 12  1  0
 12 13  1  0
 13 14  1  0
 14 15  1  0
  2 16  1  0
 16 17  2  0
 17 18  1  0
 18 19  2  0
 19 20  1  0
 20 21  2  0
 21 22  1  0
 22 23  2  0
 23 24  1  0
 24 25  2  0
 12  7  1  0
 15 13  1  0
 25 16  1  0
 24 19  1  0
  3 26  1  0
  4 27  1  0
  4 28  1  0
  8 29  1  0
  8 30  1  0
  9 31  1  1
 10 32  1  0
 11 33  1  0
 11 34  1  0
 12 35  1  6
 13 36  1  0
 14 37  1  0
 14 38  1  0
 15 39  1  0
 15 40  1  0
 17 41  1  0
 18 42  1  0
 20 43  1  0
 21 44  1  0
 22 45  1  0
 23 46  1  0
M  END
>  <smiles>  (12) 
O=C(NCC(=O)N1C[C@H](O)C[C@H]1C1CC1)c1ccc2ccccc2n1

>  <score_type>  (12) 
oracle

>  <origin>  (12) 
autodockgpu

>  <m_score__min__energy>  (12) 
-7.7800000000000002

>  <m_primary>  (12) 
energy

>  <rmsd>  (12) 
2.493643628903323

>  <m_score__min__rmsd>  (12) 
2.493643628903323

>  <meeko>  (12) 
{"free_energy": -7.39, "intermolecular_energy": -9.18, "internal_energy": -1.36, "cluster_size": 6, "cluster_id": 3, "rank_in_cluster": 2}

>  <energy>  (12) 
-7.0

>  <cluster_rmsd>  (12) 
1.76

>  <cluster>  (12) 
1

$$$$

     RDKit          3D

 46 49  0  0  0  0  0  0  0  0999 V2000
  139.9700   70.9270  221.1310 O   0  0  0  0  0  0  0  0  0  0  0  0
  140.3980   71.5940  222.1210 C   0  0  0  0  0  0  0  0  0  0  0  0
  141.0530   72.8130  221.8930 N   0  0  0  0  0  0  0  0  0  0  0  0
  141.2550   73.3320  220.5640 C   0  0  0  0  0  0  0  0  0  0  0  0
  142.6530   73.8180  220.4130 C   0  0  0  0  0  0  0  0  0  0  0  0
  142.9540   75.0390  220.4720 O   0  0  0  0  0  0  0  0  0  0  0  0
  143.6610   72.8500  220.1980 N   0  0  0  0  0  0  0  0  0  0  0  0
  144.9580   72.7140  220.8730 C   0  0  0  0  0  0  0  0  0  0  0  0
  145.9270   72.2870  219.7810 C   0  0  2  0  0  0  0  0  0  0  0  0
  146.6490   73.3990  219.3270 O   0  0  0  0  0  0  0  0  0  0  0  0
  145.0600   71.7110  218.6910 C   0  0  0  0  0  0  0  0  0  0  0  0
  143.6490   71.7450  219.2400 C   0  0  1  0  0  0  0  0  0  0  0  0
  143.2840   70.4990  220.0090 C   0  0  0  0  0  0  0  0  0  0  0  0
  142.4640   69.4350  219.3530 C   0  0  0  0  0  0  0  0  0  0  0  0
  143.9120   69.1840  219.7160 C   0  0  0  0  0  0  0  0  0  0  0  0
  140.2060   71.0890  223.4680 C   0  0  0  0  0  0  0  0  0  0  0  0
  139.5040   69.9010  223.6710 C   0  0  0  0  0  0  0  0  0  0  0  0
  139.3290   69.4320  224.9560 C   0  0  0  0  0  0  0  0  0  0  0  0
  139.8680   70.1780  226.0010 C   0  0  0  0  0  0  0  0  0  0  0  0
  139.6660   69.6660  227.2810 C   0  0  0  0  0  0  0  0  0  0  0  0
  140.1910   70.3870  228.3420 C   0  0  0  0  0  0  0  0  0  0  0  0
  140.8750   71.5500  228.1050 C   0  0  0  0  0  0  0  0  0  0  0  0
  141.0750   72.0550  226.8430 C   0  0  0  0  0  0  0  0  0  0  0  0
  140.5530   71.3390  225.7810 C   0  0  0  0  0  0  0  0  0  0  0  0
  140.7090   71.7730  224.5170 N   0  0  0  0  0  0  0  0  0  0  0  0
  141.4050   73.3630  222.6970 H   0  0  0  0  0  0  0  0  0  0  0  0
  141.0652   72.5355  219.8294 H   0  0  0  0  0  0  0  0  0  0  0  0
  140.5620   74.1694  220.3949 H   0  0  0  0  0  0  0  0  0  0  0  0
  145.2682   73.6739  221.3115 H   0  0  0  0  0  0  0  0  0  0  0  0
  144.9200   71.9883  221.6988 H   0  0  0  0  0  0  0  0  0  0  0  0
  146.6672   71.5522  220.1306 H   0  0  0  0  0  0  0  0  0  0  0  0
  146.0040   74.1650  219.3290 H   0  0  0  0  0  0  0  0  0  0  0  0
  145.1328   72.3209  217.7785 H   0  0  0  0  0  0  0  0  0  0  0  0
  145.3687   70.6910  218.4185 H   0  0  0  0  0  0  0  0  0  0  0  0
  142.9296   71.8404  218.4133 H   0  0  0  0  0  0  0  0  0  0  0  0
  143.1920   71.1109  220.9185 H   0  0  0  0  0  0  0  0  0  0  0  0
  141.6598   68.9343  219.9120 H   0  0  0  0  0  0  0  0  0  0  0  0
  141.8644   69.3647  218.4335 H   0  0  0  0  0  0  0  0  0  0  0  0
  144.1625   68.4979  220.5385 H   0  0  0  0  0  0  0  0  0  0  0  0
  144.8064   68.8524  219.1682 H   0  0  0  0  0  0  0  0  0  0  0  0
  139.0944   69.3442  222.8154 H   0  0  0  0  0  0  0  0  0  0  0  0
  138.7809   68.4981  225.1494 H   0  0  0  0  0  0  0  0  0  0  0  0
  139.1131   68.7289  227.4427 H   0  0  0  0  0  0  0  0  0  0  0  0
  140.0586   70.0259  229.3726 H   0  0  0  0  0  0  0  0  0  0  0  0
  141.2823   72.1043  228.9634 H   0  0  0  0  0  0  0  0  0  0  0  0
  141.6286   72.9921  226.6835 H   0  0  0  0  0  0  0  0  0  0  0  0
  1  2  2  0
  2  3  1  0
  3  4  1  0
  4  5  1  0
  5  6  2  0
  5  7  1  0
  7  8  1  0
  8  9  1  0
  9 10  1  0
  9 11  1  0
 11 12  1  0
 12 13  1  0
 13 14  1  0
 14 15  1  0
  2 16  1  0
 16 17  2  0
 17 18  1  0
 18 19  2  0
 19 20  1  0
 20 21  2  0
 21 22  1  0
 22 23  2  0
 23 24  1  0
 24 25  2  0
 12  7  1  0
 15 13  1  0
 25 16  1  0
 24 19  1  0
  3 26  1  0
  4 27  1  0
  4 28  1  0
  8 29  1  0
  8 30  1  0
  9 31  1  1
 10 32  1  0
 11 33  1  0
 11 34  1  0
 12 35  1  6
 13 36  1  0
 14 37  1  0
 14 38  1  0
 15 39  1  0
 15 40  1  0
 17 41  1  0
 18 42  1  0
 20 43  1  0
 21 44  1  0
 22 45  1  0
 23 46  1  0
M  END
>  <smiles>  (13) 
O=C(NCC(=O)N1C[C@H](O)C[C@H]1C1CC1)c1ccc2ccccc2n1

>  <score_type>  (13) 
oracle

>  <origin>  (13) 
autodockgpu

>  <m_score__min__energy>  (13) 
-7.7800000000000002

>  <m_primary>  (13) 
energy

>  <rmsd>  (13) 
4.268899453136227

>  <m_score__min__rmsd>  (13) 
4.268899453136227

>  <meeko>  (13) 
{"free_energy": -6.94, "intermolecular_energy": -8.73, "internal_energy": -1.7, "cluster_size": 27, "cluster_id": 1, "rank_in_cluster": 14}

>  <energy>  (13) 
-6.95

>  <cluster_rmsd>  (13) 
1.77

>  <cluster>  (13) 
1

$$$$

     RDKit          3D

 46 49  0  0  0  0  0  0  0  0999 V2000
  141.0240   71.4920  221.4630 O   0  0  0  0  0  0  0  0  0  0  0  0
  140.4490   72.0580  222.4420 C   0  0  0  0  0  0  0  0  0  0  0  0
  140.0220   73.3880  222.3080 N   0  0  0  0  0  0  0  0  0  0  0  0
  140.2160   74.1320  221.0900 C   0  0  0  0  0  0  0  0  0  0  0  0
  141.2080   75.2200  221.3100 C   0  0  0  0  0  0  0  0  0  0  0  0
  141.1510   75.9950  222.2990 O   0  0  0  0  0  0  0  0  0  0  0  0
  142.2410   75.3630  220.3550 N   0  0  0  0  0  0  0  0  0  0  0  0
  142.7530   76.5940  219.7380 C   0  0  0  0  0  0  0  0  0  0  0  0
  143.0430   76.2180  218.2940 C   0  0  2  0  0  0  0  0  0  0  0  0
  141.9860   76.6370  217.4740 O   0  0  0  0  0  0  0  0  0  0  0  0
  143.1770   74.7180  218.2980 C   0  0  0  0  0  0  0  0  0  0  0  0
  143.0520   74.3080  219.7500 C   0  0  1  0  0  0  0  0  0  0  0  0
  144.3750   74.2960  220.4770 C   0  0  0  0  0  0  0  0  0  0  0  0
  144.8410   73.0460  221.1510 C   0  0  0  0  0  0  0  0  0  0  0  0
  145.5620   73.5850  219.9330 C   0  0  0  0  0  0  0  0  0  0  0  0
  140.2440   71.3270  223.6780 C   0  0  0  0  0  0  0  0  0  0  0  0
  139.5940   70.0940  223.6560 C   0  0  0  0  0  0  0  0  0  0  0  0
  139.4070   69.4090  224.8390 C   0  0  0  0  0  0  0  0  0  0  0  0
  139.8810   69.9910  226.0110 C   0  0  0  0  0  0  0  0  0  0  0  0
  139.6680   69.2640  227.1800 C   0  0  0  0  0  0  0  0  0  0  0  0
  140.1290   69.8180  228.3640 C   0  0  0  0  0  0  0  0  0  0  0  0
  140.7630   71.0330  228.3480 C   0  0  0  0  0  0  0  0  0  0  0  0
  140.9730   71.7500  227.1950 C   0  0  0  0  0  0  0  0  0  0  0  0
  140.5150   71.2010  226.0110 C   0  0  0  0  0  0  0  0  0  0  0  0
  140.6850   71.8470  224.8430 N   0  0  0  0  0  0  0  0  0  0  0  0
  139.5520   73.8560  223.1030 H   0  0  0  0  0  0  0  0  0  0  0  0
  140.5853   73.4557  220.3050 H   0  0  0  0  0  0  0  0  0  0  0  0
  139.2576   74.5746  220.7809 H   0  0  0  0  0  0  0  0  0  0  0  0
  141.9987   77.3932  219.7856 H   0  0  0  0  0  0  0  0  0  0  0  0
  143.6470   76.9743  220.2539 H   0  0  0  0  0  0  0  0  0  0  0  0
  143.9531   76.6963  217.9030 H   0  0  0  0  0  0  0  0  0  0  0  0
  141.2160   76.8150  218.0890 H   0  0  0  0  0  0  0  0  0  0  0  0
  142.3778   74.2585  217.6980 H   0  0  0  0  0  0  0  0  0  0  0  0
  144.1321   74.3911  217.8610 H   0  0  0  0  0  0  0  0  0  0  0  0
  142.6351   73.2922  219.8156 H   0  0  0  0  0  0  0  0  0  0  0  0
  144.1894   75.3335  220.7919 H   0  0  0  0  0  0  0  0  0  0  0  0
  145.3164   73.0971  222.1417 H   0  0  0  0  0  0  0  0  0  0  0  0
  144.3789   72.0863  221.4257 H   0  0  0  0  0  0  0  0  0  0  0  0
  146.5640   74.0268  220.0368 H   0  0  0  0  0  0  0  0  0  0  0  0
  145.8443   73.1780  218.9508 H   0  0  0  0  0  0  0  0  0  0  0  0
  139.2342   69.6719  222.7061 H   0  0  0  0  0  0  0  0  0  0  0  0
  138.8992   68.4334  224.8553 H   0  0  0  0  0  0  0  0  0  0  0  0
  139.1554   68.2909  227.1642 H   0  0  0  0  0  0  0  0  0  0  0  0
  139.9863   69.2835  229.3147 H   0  0  0  0  0  0  0  0  0  0  0  0
  141.1194   71.4526  229.3003 H   0  0  0  0  0  0  0  0  0  0  0  0
  141.4856   72.7231  227.2128 H   0  0  0  0  0  0  0  0  0  0  0  0
  1  2  2  0
  2  3  1  0
  3  4  1  0
  4  5  1  0
  5  6  2  0
  5  7  1  0
  7  8  1  0
  8  9  1  0
  9 10  1  0
  9 11  1  0
 11 12  1  0
 12 13  1  0
 13 14  1  0
 14 15  1  0
  2 16  1  0
 16 17  2  0
 17 18  1  0
 18 19  2  0
 19 20  1  0
 20 21  2  0
 21 22  1  0
 22 23  2  0
 23 24  1  0
 24 25  2  0
 12  7  1  0
 15 13  1  0
 25 16  1  0
 24 19  1  0
  3 26  1  0
  4 27  1  0
  4 28  1  0
  8 29  1  0
  8 30  1  0
  9 31  1  6
 10 32  1  0
 11 33  1  0
 11 34  1  0
 12 35  1  6
 13 36  1  0
 14 37  1  0
 14 38  1  0
 15 39  1  0
 15 40  1  0
 17 41  1  0
 18 42  1  0
 20 43  1  0
 21 44  1  0
 22 45  1  0
 23 46  1  0
M  END
>  <smiles>  (14) 
O=C(NCC(=O)N1C[C@H](O)C[C@H]1C1CC1)c1ccc2ccccc2n1

>  <score_type>  (14) 
oracle

>  <origin>  (14) 
autodockgpu

>  <m_score__min__energy>  (14) 
-7.7800000000000002

>  <m_primary>  (14) 
energy

>  <rmsd>  (14) 
2.5730152660328156

>  <m_score__min__rmsd>  (14) 
2.5730152660328156

>  <meeko>  (14) 
{"free_energy": -7.31, "intermolecular_energy": -9.1, "internal_energy": -1.38, "cluster_size": 6, "cluster_id": 3, "rank_in_cluster": 3}

>  <energy>  (14) 
-6.94

>  <cluster_rmsd>  (14) 
1.64

>  <cluster>  (14) 
1

$$$$

     RDKit          3D

 46 49  0  0  0  0  0  0  0  0999 V2000
  139.9570   70.9660  221.4100 O   0  0  0  0  0  0  0  0  0  0  0  0
  139.9460   71.5760  222.5230 C   0  0  0  0  0  0  0  0  0  0  0  0
  139.9310   72.9790  222.5330 N   0  0  0  0  0  0  0  0  0  0  0  0
  139.9270   73.7500  221.3160 C   0  0  0  0  0  0  0  0  0  0  0  0
  141.3200   74.1140  220.9390 C   0  0  0  0  0  0  0  0  0  0  0  0
  141.8260   75.2310  221.2220 O   0  0  0  0  0  0  0  0  0  0  0  0
  142.0800   73.1500  220.2390 N   0  0  0  0  0  0  0  0  0  0  0  0
  141.8880   72.6500  218.8710 C   0  0  0  0  0  0  0  0  0  0  0  0
  142.2110   71.1660  218.9460 C   0  0  2  0  0  0  0  0  0  0  0  0
  141.0230   70.4260  219.0330 O   0  0  0  0  0  0  0  0  0  0  0  0
  143.0500   71.0090  220.1870 C   0  0  0  0  0  0  0  0  0  0  0  0
  143.2500   72.4140  220.7170 C   0  0  1  0  0  0  0  0  0  0  0  0
  144.4660   73.0950  220.1400 C   0  0  0  0  0  0  0  0  0  0  0  0
  144.7470   74.5240  220.4760 C   0  0  0  0  0  0  0  0  0  0  0  0
  145.6540   73.4180  220.9730 C   0  0  0  0  0  0  0  0  0  0  0  0
  139.9500   70.8190  223.7600 C   0  0  0  0  0  0  0  0  0  0  0  0
  139.4390   69.5220  223.7830 C   0  0  0  0  0  0  0  0  0  0  0  0
  139.4490   68.8130  224.9650 C   0  0  0  0  0  0  0  0  0  0  0  0
  139.9760   69.4360  226.0940 C   0  0  0  0  0  0  0  0  0  0  0  0
  139.9640   68.6820  227.2650 C   0  0  0  0  0  0  0  0  0  0  0  0
  140.4830   69.2750  228.4050 C   0  0  0  0  0  0  0  0  0  0  0  0
  140.9760   70.5520  228.3470 C   0  0  0  0  0  0  0  0  0  0  0  0
  140.9870   71.2950  227.1910 C   0  0  0  0  0  0  0  0  0  0  0  0
  140.4720   70.7070  226.0510 C   0  0  0  0  0  0  0  0  0  0  0  0
  140.4500   71.3760  224.8830 N   0  0  0  0  0  0  0  0  0  0  0  0
  139.9210   73.4830  223.4370 H   0  0  0  0  0  0  0  0  0  0  0  0
  139.4751   73.1545  220.5091 H   0  0  0  0  0  0  0  0  0  0  0  0
  139.3437   74.6693  221.4730 H   0  0  0  0  0  0  0  0  0  0  0  0
  140.8486   72.8036  218.5455 H   0  0  0  0  0  0  0  0  0  0  0  0
  142.5260   73.1758  218.1454 H   0  0  0  0  0  0  0  0  0  0  0  0
  142.7452   70.8003  218.0567 H   0  0  0  0  0  0  0  0  0  0  0  0
  140.6080   70.6750  219.9090 H   0  0  0  0  0  0  0  0  0  0  0  0
  142.5269   70.3883  220.9294 H   0  0  0  0  0  0  0  0  0  0  0  0
  144.0077   70.5119  219.9734 H   0  0  0  0  0  0  0  0  0  0  0  0
  143.3797   72.3859  221.8090 H   0  0  0  0  0  0  0  0  0  0  0  0
  144.3222   72.5215  219.2124 H   0  0  0  0  0  0  0  0  0  0  0  0
  145.0967   75.2162  219.6959 H   0  0  0  0  0  0  0  0  0  0  0  0
  144.1823   75.3431  220.9453 H   0  0  0  0  0  0  0  0  0  0  0  0
  146.6658   73.3064  220.5561 H   0  0  0  0  0  0  0  0  0  0  0  0
  146.0256   73.0982  221.9577 H   0  0  0  0  0  0  0  0  0  0  0  0
  139.0319   69.0690  222.8670 H   0  0  0  0  0  0  0  0  0  0  0  0
  139.0534   67.7878  225.0152 H   0  0  0  0  0  0  0  0  0  0  0  0
  139.5597   67.6592  227.2842 H   0  0  0  0  0  0  0  0  0  0  0  0
  140.4991   68.7211  229.3552 H   0  0  0  0  0  0  0  0  0  0  0  0
  141.3805   71.0021  229.2656 H   0  0  0  0  0  0  0  0  0  0  0  0
  141.3901   72.3183  227.1736 H   0  0  0  0  0  0  0  0  0  0  0  0
  1  2  2  0
  2  3  1  0
  3  4  1  0
  4  5  1  0
  5  6  2  0
  5  7  1  0
  7  8  1  0
  8  9  1  0
  9 10  1  0
  9 11  1  0
 11 12  1  0
 12 13  1  0
 13 14  1  0
 14 15  1  0
  2 16  1  0
 16 17  2  0
 17 18  1  0
 18 19  2  0
 19 20  1  0
 20 21  2  0
 21 22  1  0
 22 23  2  0
 23 24  1  0
 24 25  2  0
 12  7  1  0
 15 13  1  0
 25 16  1  0
 24 19  1  0
  3 26  1  0
  4 27  1  0
  4 28  1  0
  8 29  1  0
  8 30  1  0
  9 31  1  6
 10 32  1  0
 11 33  1  0
 11 34  1  0
 12 35  1  1
 13 36  1  0
 14 37  1  0
 14 38  1  0
 15 39  1  0
 15 40  1  0
 17 41  1  0
 18 42  1  0
 20 43  1  0
 21 44  1  0
 22 45  1  0
 23 46  1  0
M  END
>  <smiles>  (15) 
O=C(NCC(=O)N1C[C@H](O)C[C@H]1C1CC1)c1ccc2ccccc2n1

>  <score_type>  (15) 
oracle

>  <origin>  (15) 
autodockgpu

>  <m_score__min__energy>  (15) 
-7.7800000000000002

>  <m_primary>  (15) 
energy

>  <rmsd>  (15) 
3.296657618888813

>  <m_score__min__rmsd>  (15) 
3.296657618888813

>  <meeko>  (15) 
{"free_energy": -6.49, "intermolecular_energy": -8.28, "internal_energy": -2.36, "cluster_size": 27, "cluster_id": 1, "rank_in_cluster": 25}

>  <energy>  (15) 
-6.93

>  <cluster_rmsd>  (15) 
1.91

>  <cluster>  (15) 
1

$$$$

     RDKit          3D

 46 49  0  0  0  0  0  0  0  0999 V2000
  140.8950   71.4880  221.4070 O   0  0  0  0  0  0  0  0  0  0  0  0
  140.3740   72.0440  222.4220 C   0  0  0  0  0  0  0  0  0  0  0  0
  139.9390   73.3740  222.3260 N   0  0  0  0  0  0  0  0  0  0  0  0
  140.0670   74.1310  221.1070 C   0  0  0  0  0  0  0  0  0  0  0  0
  140.8980   75.3420  221.3430 C   0  0  0  0  0  0  0  0  0  0  0  0
  140.6720   76.1430  222.2880 O   0  0  0  0  0  0  0  0  0  0  0  0
  141.9750   75.5780  220.4570 N   0  0  0  0  0  0  0  0  0  0  0  0
  142.5830   76.8590  220.0760 C   0  0  0  0  0  0  0  0  0  0  0  0
  142.9080   76.7160  218.5970 C   0  0  2  0  0  0  0  0  0  0  0  0
  141.9100   77.3360  217.8320 O   0  0  0  0  0  0  0  0  0  0  0  0
  142.9510   75.2310  218.3470 C   0  0  0  0  0  0  0  0  0  0  0  0
  142.7450   74.5890  219.7040 C   0  0  1  0  0  0  0  0  0  0  0  0
  144.0340   74.3680  220.4540 C   0  0  0  0  0  0  0  0  0  0  0  0
  144.4300   72.9850  220.8600 C   0  0  0  0  0  0  0  0  0  0  0  0
  145.2190   73.7390  219.8120 C   0  0  0  0  0  0  0  0  0  0  0  0
  140.2380   71.2990  223.6590 C   0  0  0  0  0  0  0  0  0  0  0  0
  139.6390   70.0400  223.6510 C   0  0  0  0  0  0  0  0  0  0  0  0
  139.5170   69.3430  224.8340 C   0  0  0  0  0  0  0  0  0  0  0  0
  140.0010   69.9400  225.9950 C   0  0  0  0  0  0  0  0  0  0  0  0
  139.8540   69.2000  227.1660 C   0  0  0  0  0  0  0  0  0  0  0  0
  140.3280   69.7680  228.3380 C   0  0  0  0  0  0  0  0  0  0  0  0
  140.9100   71.0080  228.3100 C   0  0  0  0  0  0  0  0  0  0  0  0
  141.0540   71.7380  227.1550 C   0  0  0  0  0  0  0  0  0  0  0  0
  140.5840   71.1750  225.9830 C   0  0  0  0  0  0  0  0  0  0  0  0
  140.6910   71.8320  224.8130 N   0  0  0  0  0  0  0  0  0  0  0  0
  139.5140   73.8330  223.1500 H   0  0  0  0  0  0  0  0  0  0  0  0
  140.5451   73.5056  220.3387 H   0  0  0  0  0  0  0  0  0  0  0  0
  139.0672   74.4404  220.7683 H   0  0  0  0  0  0  0  0  0  0  0  0
  141.8760   77.6860  220.2383 H   0  0  0  0  0  0  0  0  0  0  0  0
  143.4768   77.0866  220.6754 H   0  0  0  0  0  0  0  0  0  0  0  0
  143.8598   77.1930  218.3203 H   0  0  0  0  0  0  0  0  0  0  0  0
  141.0500   77.1720  218.3170 H   0  0  0  0  0  0  0  0  0  0  0  0
  142.1494   74.9338  217.6548 H   0  0  0  0  0  0  0  0  0  0  0  0
  143.9009   74.9206  217.8873 H   0  0  0  0  0  0  0  0  0  0  0  0
  142.2663   73.6060  219.5835 H   0  0  0  0  0  0  0  0  0  0  0  0
  143.8699   75.3222  220.9761 H   0  0  0  0  0  0  0  0  0  0  0  0
  144.8645   72.8047  221.8543 H   0  0  0  0  0  0  0  0  0  0  0  0
  143.9251   72.0088  220.9067 H   0  0  0  0  0  0  0  0  0  0  0  0
  146.2299   74.1063  220.0423 H   0  0  0  0  0  0  0  0  0  0  0  0
  145.5291   73.5381  218.7759 H   0  0  0  0  0  0  0  0  0  0  0  0
  139.2676   69.6073  222.7103 H   0  0  0  0  0  0  0  0  0  0  0  0
  139.0519   68.3465  224.8600 H   0  0  0  0  0  0  0  0  0  0  0  0
  139.3816   68.2066  227.1607 H   0  0  0  0  0  0  0  0  0  0  0  0
  140.2370   69.2238  229.2896 H   0  0  0  0  0  0  0  0  0  0  0  0
  141.2780   71.4378  229.2533 H   0  0  0  0  0  0  0  0  0  0  0  0
  141.5250   72.7320  227.1625 H   0  0  0  0  0  0  0  0  0  0  0  0
  1  2  2  0
  2  3  1  0
  3  4  1  0
  4  5  1  0
  5  6  2  0
  5  7  1  0
  7  8  1  0
  8  9  1  0
  9 10  1  0
  9 11  1  0
 11 12  1  0
 12 13  1  0
 13 14  1  0
 14 15  1  0
  2 16  1  0
 16 17  2  0
 17 18  1  0
 18 19  2  0
 19 20  1  0
 20 21  2  0
 21 22  1  0
 22 23  2  0
 23 24  1  0
 24 25  2  0
 12  7  1  0
 15 13  1  0
 25 16  1  0
 24 19  1  0
  3 26  1  0
  4 27  1  0
  4 28  1  0
  8 29  1  0
  8 30  1  0
  9 31  1  1
 10 32  1  0
 11 33  1  0
 11 34  1  0
 12 35  1  6
 13 36  1  0
 14 37  1  0
 14 38  1  0
 15 39  1  0
 15 40  1  0
 17 41  1  0
 18 42  1  0
 20 43  1  0
 21 44  1  0
 22 45  1  0
 23 46  1  0
M  END
>  <smiles>  (16) 
O=C(NCC(=O)N1C[C@H](O)C[C@H]1C1CC1)c1ccc2ccccc2n1

>  <score_type>  (16) 
oracle

>  <origin>  (16) 
autodockgpu

>  <m_score__min__energy>  (16) 
-7.7800000000000002

>  <m_primary>  (16) 
energy

>  <rmsd>  (16) 
2.4616320120720268

>  <m_score__min__rmsd>  (16) 
2.4616320120720268

>  <meeko>  (16) 
{"free_energy": -7.29, "intermolecular_energy": -9.08, "internal_energy": -1.43, "cluster_size": 6, "cluster_id": 3, "rank_in_cluster": 5}

>  <energy>  (16) 
-6.93

>  <cluster_rmsd>  (16) 
1.82

>  <cluster>  (16) 
1

$$$$

     RDKit          3D

 46 49  0  0  0  0  0  0  0  0999 V2000
  140.7200   71.3640  221.3500 O   0  0  0  0  0  0  0  0  0  0  0  0
  140.2860   71.9740  222.3740 C   0  0  0  0  0  0  0  0  0  0  0  0
  139.9310   73.3270  222.2660 N   0  0  0  0  0  0  0  0  0  0  0  0
  140.0440   74.0460  221.0230 C   0  0  0  0  0  0  0  0  0  0  0  0
  141.4330   74.5500  220.8490 C   0  0  0  0  0  0  0  0  0  0  0  0
  141.7920   75.6910  221.2410 O   0  0  0  0  0  0  0  0  0  0  0  0
  142.3640   73.6930  220.2190 N   0  0  0  0  0  0  0  0  0  0  0  0
  142.4000   73.2520  218.8180 C   0  0  0  0  0  0  0  0  0  0  0  0
  142.8460   71.7990  218.8740 C   0  0  2  0  0  0  0  0  0  0  0  0
  141.7300   70.9570  218.7690 O   0  0  0  0  0  0  0  0  0  0  0  0
  143.5250   71.6480  220.2110 C   0  0  0  0  0  0  0  0  0  0  0  0
  143.5240   73.0350  220.8200 C   0  0  1  0  0  0  0  0  0  0  0  0
  144.7380   73.8470  220.4420 C   0  0  0  0  0  0  0  0  0  0  0  0
  145.9930   73.7240  221.2440 C   0  0  0  0  0  0  0  0  0  0  0  0
  145.9340   73.2260  219.8160 C   0  0  0  0  0  0  0  0  0  0  0  0
  140.1660   71.2680  223.6360 C   0  0  0  0  0  0  0  0  0  0  0  0
  139.5570   70.0140  223.6760 C   0  0  0  0  0  0  0  0  0  0  0  0
  139.4500   69.3540  224.8810 C   0  0  0  0  0  0  0  0  0  0  0  0
  139.9600   69.9800  226.0150 C   0  0  0  0  0  0  0  0  0  0  0  0
  139.8280   69.2770  227.2100 C   0  0  0  0  0  0  0  0  0  0  0  0
  140.3280   69.8750  228.3560 C   0  0  0  0  0  0  0  0  0  0  0  0
  140.9200   71.1080  228.2810 C   0  0  0  0  0  0  0  0  0  0  0  0
  141.0500   71.8020  227.1020 C   0  0  0  0  0  0  0  0  0  0  0  0
  140.5530   71.2090  225.9560 C   0  0  0  0  0  0  0  0  0  0  0  0
  140.6450   71.8310  224.7650 N   0  0  0  0  0  0  0  0  0  0  0  0
  139.5770   73.8300  223.0970 H   0  0  0  0  0  0  0  0  0  0  0  0
  139.7939   73.3733  220.1894 H   0  0  0  0  0  0  0  0  0  0  0  0
  139.3501   74.8994  221.0360 H   0  0  0  0  0  0  0  0  0  0  0  0
  141.4025   73.3329  218.3615 H   0  0  0  0  0  0  0  0  0  0  0  0
  143.0765   73.8686  218.2080 H   0  0  0  0  0  0  0  0  0  0  0  0
  143.5240   71.5288  218.0510 H   0  0  0  0  0  0  0  0  0  0  0  0
  141.1540   71.1640  219.5600 H   0  0  0  0  0  0  0  0  0  0  0  0
  142.9672   70.9468  220.8492 H   0  0  0  0  0  0  0  0  0  0  0  0
  144.5438   71.2457  220.1099 H   0  0  0  0  0  0  0  0  0  0  0  0
  143.5113   72.9603  221.9174 H   0  0  0  0  0  0  0  0  0  0  0  0
  144.0708   74.6718  220.1513 H   0  0  0  0  0  0  0  0  0  0  0  0
  146.5798   74.6207  221.4923 H   0  0  0  0  0  0  0  0  0  0  0  0
  146.2605   73.2836  222.2158 H   0  0  0  0  0  0  0  0  0  0  0  0
  146.4803   73.7590  219.0239 H   0  0  0  0  0  0  0  0  0  0  0  0
  146.1432   72.2692  219.3151 H   0  0  0  0  0  0  0  0  0  0  0  0
  139.1661   69.5565  222.7552 H   0  0  0  0  0  0  0  0  0  0  0  0
  138.9763   68.3633  224.9448 H   0  0  0  0  0  0  0  0  0  0  0  0
  139.3469   68.2883  227.2429 H   0  0  0  0  0  0  0  0  0  0  0  0
  140.2495   69.3600  229.3248 H   0  0  0  0  0  0  0  0  0  0  0  0
  141.3082   71.5623  229.2045 H   0  0  0  0  0  0  0  0  0  0  0  0
  141.5308   72.7909  227.0712 H   0  0  0  0  0  0  0  0  0  0  0  0
  1  2  2  0
  2  3  1  0
  3  4  1  0
  4  5  1  0
  5  6  2  0
  5  7  1  0
  7  8  1  0
  8  9  1  0
  9 10  1  0
  9 11  1  0
 11 12  1  0
 12 13  1  0
 13 14  1  0
 14 15  1  0
  2 16  1  0
 16 17  2  0
 17 18  1  0
 18 19  2  0
 19 20  1  0
 20 21  2  0
 21 22  1  0
 22 23  2  0
 23 24  1  0
 24 25  2  0
 12  7  1  0
 15 13  1  0
 25 16  1  0
 24 19  1  0
  3 26  1  0
  4 27  1  0
  4 28  1  0
  8 29  1  0
  8 30  1  0
  9 31  1  6
 10 32  1  0
 11 33  1  0
 11 34  1  0
 12 35  1  1
 13 36  1  0
 14 37  1  0
 14 38  1  0
 15 39  1  0
 15 40  1  0
 17 41  1  0
 18 42  1  0
 20 43  1  0
 21 44  1  0
 22 45  1  0
 23 46  1  0
M  END
>  <smiles>  (17) 
O=C(NCC(=O)N1C[C@H](O)C[C@H]1C1CC1)c1ccc2ccccc2n1

>  <score_type>  (17) 
oracle

>  <origin>  (17) 
autodockgpu

>  <m_score__min__energy>  (17) 
-7.7800000000000002

>  <m_primary>  (17) 
energy

>  <rmsd>  (17) 
3.2198602699999763

>  <m_score__min__rmsd>  (17) 
3.2198602699999763

>  <meeko>  (17) 
{"free_energy": -7.03, "intermolecular_energy": -8.82, "internal_energy": -2.19, "cluster_size": 27, "cluster_id": 1, "rank_in_cluster": 11}

>  <energy>  (17) 
-6.92

>  <cluster_rmsd>  (17) 
1.63

>  <cluster>  (17) 
1

$$$$

     RDKit          3D

 46 49  0  0  0  0  0  0  0  0999 V2000
  139.5860   73.6720  222.5020 O   0  0  0  0  0  0  0  0  0  0  0  0
  140.2880   72.6160  222.4420 C   0  0  0  0  0  0  0  0  0  0  0  0
  141.1370   72.4210  221.3430 N   0  0  0  0  0  0  0  0  0  0  0  0
  141.2380   73.3860  220.2780 C   0  0  0  0  0  0  0  0  0  0  0  0
  142.6420   73.8640  220.1540 C   0  0  0  0  0  0  0  0  0  0  0  0
  142.9410   75.0860  220.1370 O   0  0  0  0  0  0  0  0  0  0  0  0
  143.6580   72.8850  220.0530 N   0  0  0  0  0  0  0  0  0  0  0  0
  144.9100   72.7850  220.8140 C   0  0  0  0  0  0  0  0  0  0  0  0
  145.9430   72.2990  219.8090 C   0  0  2  0  0  0  0  0  0  0  0  0
  146.6970   73.3860  219.3430 O   0  0  0  0  0  0  0  0  0  0  0  0
  145.1440   71.6660  218.7000 C   0  0  0  0  0  0  0  0  0  0  0  0
  143.7020   71.7310  219.1570 C   0  0  1  0  0  0  0  0  0  0  0  0
  143.2840   70.5280  219.9660 C   0  0  0  0  0  0  0  0  0  0  0  0
  142.3750   69.5060  219.3640 C   0  0  0  0  0  0  0  0  0  0  0  0
  143.8160   69.1680  219.6820 C   0  0  0  0  0  0  0  0  0  0  0  0
  140.2000   71.6320  223.5040 C   0  0  0  0  0  0  0  0  0  0  0  0
  139.6280   70.3860  223.2510 C   0  0  0  0  0  0  0  0  0  0  0  0
  139.5520   69.4590  224.2700 C   0  0  0  0  0  0  0  0  0  0  0  0
  140.0550   69.8190  225.5170 C   0  0  0  0  0  0  0  0  0  0  0  0
  139.9550   68.8530  226.5150 C   0  0  0  0  0  0  0  0  0  0  0  0
  140.4480   69.1820  227.7680 C   0  0  0  0  0  0  0  0  0  0  0  0
  141.0030   70.4160  227.9810 C   0  0  0  0  0  0  0  0  0  0  0  0
  141.1010   71.3700  226.9960 C   0  0  0  0  0  0  0  0  0  0  0  0
  140.6110   71.0460  225.7450 C   0  0  0  0  0  0  0  0  0  0  0  0
  140.6740   71.9300  224.7320 N   0  0  0  0  0  0  0  0  0  0  0  0
  141.7120   71.5630  221.2880 H   0  0  0  0  0  0  0  0  0  0  0  0
  140.9279   72.9180  219.3321 H   0  0  0  0  0  0  0  0  0  0  0  0
  140.5844   74.2416  220.5035 H   0  0  0  0  0  0  0  0  0  0  0  0
  145.1962   73.7671  221.2185 H   0  0  0  0  0  0  0  0  0  0  0  0
  144.8180   72.1052  221.6739 H   0  0  0  0  0  0  0  0  0  0  0  0
  146.6568   71.5828  220.2421 H   0  0  0  0  0  0  0  0  0  0  0  0
  146.0530   74.1460  219.2490 H   0  0  0  0  0  0  0  0  0  0  0  0
  145.2763   72.2256  217.7623 H   0  0  0  0  0  0  0  0  0  0  0  0
  145.4648   70.6325  218.5026 H   0  0  0  0  0  0  0  0  0  0  0  0
  143.0363   71.7834  218.2828 H   0  0  0  0  0  0  0  0  0  0  0  0
  143.2631   71.1639  220.8633 H   0  0  0  0  0  0  0  0  0  0  0  0
  141.5610   69.0706  219.9621 H   0  0  0  0  0  0  0  0  0  0  0  0
  141.7394   69.4558  218.4676 H   0  0  0  0  0  0  0  0  0  0  0  0
  144.0514   68.4844  220.5111 H   0  0  0  0  0  0  0  0  0  0  0  0
  144.6668   68.7672  219.1115 H   0  0  0  0  0  0  0  0  0  0  0  0
  139.2415   70.1446  222.2498 H   0  0  0  0  0  0  0  0  0  0  0  0
  139.1079   68.4667  224.1023 H   0  0  0  0  0  0  0  0  0  0  0  0
  139.5035   67.8696  226.3172 H   0  0  0  0  0  0  0  0  0  0  0  0
  140.3936   68.4532  228.5901 H   0  0  0  0  0  0  0  0  0  0  0  0
  141.3871   70.6540  228.9839 H   0  0  0  0  0  0  0  0  0  0  0  0
  141.5520   72.3532  227.1958 H   0  0  0  0  0  0  0  0  0  0  0  0
  1  2  2  0
  2  3  1  0
  3  4  1  0
  4  5  1  0
  5  6  2  0
  5  7  1  0
  7  8  1  0
  8  9  1  0
  9 10  1  0
  9 11  1  0
 11 12  1  0
 12 13  1  0
 13 14  1  0
 14 15  1  0
  2 16  1  0
 16 17  2  0
 17 18  1  0
 18 19  2  0
 19 20  1  0
 20 21  2  0
 21 22  1  0
 22 23  2  0
 23 24  1  0
 24 25  2  0
 12  7  1  0
 15 13  1  0
 25 16  1  0
 24 19  1  0
  3 26  1  0
  4 27  1  0
  4 28  1  0
  8 29  1  0
  8 30  1  0
  9 31  1  1
 10 32  1  0
 11 33  1  0
 11 34  1  0
 12 35  1  6
 13 36  1  0
 14 37  1  0
 14 38  1  0
 15 39  1  0
 15 40  1  0
 17 41  1  0
 18 42  1  0
 20 43  1  0
 21 44  1  0
 22 45  1  0
 23 46  1  0
M  END
>  <smiles>  (18) 
O=C(NCC(=O)N1C[C@H](O)C[C@H]1C1CC1)c1ccc2ccccc2n1

>  <score_type>  (18) 
oracle

>  <origin>  (18) 
autodockgpu

>  <m_score__min__energy>  (18) 
-7.7800000000000002

>  <m_primary>  (18) 
energy

>  <rmsd>  (18) 
4.31980974381996

>  <m_score__min__rmsd>  (18) 
4.31980974381996

>  <meeko>  (18) 
{"free_energy": -7.33, "intermolecular_energy": -9.12, "internal_energy": -1.3, "cluster_size": 27, "cluster_id": 1, "rank_in_cluster": 8}

>  <energy>  (18) 
-6.89

>  <cluster_rmsd>  (18) 
1.9

>  <cluster>  (18) 
1

$$$$

     RDKit          3D

 46 49  0  0  0  0  0  0  0  0999 V2000
  140.7360   71.3310  221.3430 O   0  0  0  0  0  0  0  0  0  0  0  0
  140.2950   71.9420  222.3640 C   0  0  0  0  0  0  0  0  0  0  0  0
  139.9440   73.2960  222.2520 N   0  0  0  0  0  0  0  0  0  0  0  0
  140.0690   74.0150  221.0110 C   0  0  0  0  0  0  0  0  0  0  0  0
  140.8060   75.2890  221.2320 C   0  0  0  0  0  0  0  0  0  0  0  0
  140.4770   76.1140  222.1250 O   0  0  0  0  0  0  0  0  0  0  0  0
  141.9120   75.5570  220.3930 N   0  0  0  0  0  0  0  0  0  0  0  0
  142.5330   76.8520  220.0830 C   0  0  0  0  0  0  0  0  0  0  0  0
  142.9070   76.7660  218.6120 C   0  0  2  0  0  0  0  0  0  0  0  0
  141.9360   77.4180  217.8380 O   0  0  0  0  0  0  0  0  0  0  0  0
  142.9590   75.2920  218.3050 C   0  0  0  0  0  0  0  0  0  0  0  0
  142.7060   74.5980  219.6270 C   0  0  1  0  0  0  0  0  0  0  0  0
  143.9700   74.3450  220.4120 C   0  0  0  0  0  0  0  0  0  0  0  0
  144.3160   72.9530  220.8340 C   0  0  0  0  0  0  0  0  0  0  0  0
  145.1520   73.6800  219.8030 C   0  0  0  0  0  0  0  0  0  0  0  0
  140.1620   71.2360  223.6240 C   0  0  0  0  0  0  0  0  0  0  0  0
  139.5440   69.9870  223.6590 C   0  0  0  0  0  0  0  0  0  0  0  0
  139.4250   69.3260  224.8630 C   0  0  0  0  0  0  0  0  0  0  0  0
  139.9330   69.9480  226.0010 C   0  0  0  0  0  0  0  0  0  0  0  0
  139.7890   69.2440  227.1940 C   0  0  0  0  0  0  0  0  0  0  0  0
  140.2860   69.8380  228.3430 C   0  0  0  0  0  0  0  0  0  0  0  0
  140.8870   71.0670  228.2730 C   0  0  0  0  0  0  0  0  0  0  0  0
  141.0290   71.7610  227.0950 C   0  0  0  0  0  0  0  0  0  0  0  0
  140.5350   71.1730  225.9460 C   0  0  0  0  0  0  0  0  0  0  0  0
  140.6390   71.7940  224.7560 N   0  0  0  0  0  0  0  0  0  0  0  0
  139.5830   73.8000  223.0810 H   0  0  0  0  0  0  0  0  0  0  0  0
  140.6191   73.3971  220.2860 H   0  0  0  0  0  0  0  0  0  0  0  0
  139.0651   74.2417  220.6227 H   0  0  0  0  0  0  0  0  0  0  0  0
  141.8211   77.6730  220.2537 H   0  0  0  0  0  0  0  0  0  0  0  0
  143.4062   77.0550  220.7205 H   0  0  0  0  0  0  0  0  0  0  0  0
  143.8678   77.2518  218.3867 H   0  0  0  0  0  0  0  0  0  0  0  0
  142.4330   78.0740  217.2690 H   0  0  0  0  0  0  0  0  0  0  0  0
  142.1821   75.0232  217.5741 H   0  0  0  0  0  0  0  0  0  0  0  0
  143.9243   74.9987  217.8666 H   0  0  0  0  0  0  0  0  0  0  0  0
  142.2303   73.6220  219.4505 H   0  0  0  0  0  0  0  0  0  0  0  0
  143.8200   75.3059  220.9259 H   0  0  0  0  0  0  0  0  0  0  0  0
  144.7200   72.7653  221.8397 H   0  0  0  0  0  0  0  0  0  0  0  0
  143.7827   71.9917  220.8721 H   0  0  0  0  0  0  0  0  0  0  0  0
  146.1668   74.0199  220.0573 H   0  0  0  0  0  0  0  0  0  0  0  0
  145.4821   73.4656  218.7758 H   0  0  0  0  0  0  0  0  0  0  0  0
  139.1552   69.5334  222.7354 H   0  0  0  0  0  0  0  0  0  0  0  0
  138.9440   68.3385  224.9230 H   0  0  0  0  0  0  0  0  0  0  0  0
  139.3015   68.2584  227.2229 H   0  0  0  0  0  0  0  0  0  0  0  0
  140.1980   69.3229  229.3109 H   0  0  0  0  0  0  0  0  0  0  0  0
  141.2725   71.5179  229.1993 H   0  0  0  0  0  0  0  0  0  0  0  0
  141.5171   72.7464  227.0679 H   0  0  0  0  0  0  0  0  0  0  0  0
  1  2  2  0
  2  3  1  0
  3  4  1  0
  4  5  1  0
  5  6  2  0
  5  7  1  0
  7  8  1  0
  8  9  1  0
  9 10  1  0
  9 11  1  0
 11 12  1  0
 12 13  1  0
 13 14  1  0
 14 15  1  0
  2 16  1  0
 16 17  2  0
 17 18  1  0
 18 19  2  0
 19 20  1  0
 20 21  2  0
 21 22  1  0
 22 23  2  0
 23 24  1  0
 24 25  2  0
 12  7  1  0
 15 13  1  0
 25 16  1  0
 24 19  1  0
  3 26  1  0
  4 27  1  0
  4 28  1  0
  8 29  1  0
  8 30  1  0
  9 31  1  1
 10 32  1  0
 11 33  1  0
 11 34  1  0
 12 35  1  6
 13 36  1  0
 14 37  1  0
 14 38  1  0
 15 39  1  0
 15 40  1  0
 17 41  1  0
 18 42  1  0
 20 43  1  0
 21 44  1  0
 22 45  1  0
 23 46  1  0
M  END
>  <smiles>  (19) 
O=C(NCC(=O)N1C[C@H](O)C[C@H]1C1CC1)c1ccc2ccccc2n1

>  <score_type>  (19) 
oracle

>  <origin>  (19) 
autodockgpu

>  <m_score__min__energy>  (19) 
-7.7800000000000002

>  <m_primary>  (19) 
energy

>  <rmsd>  (19) 
2.4362380274397264

>  <m_score__min__rmsd>  (19) 
2.4362380274397264

>  <meeko>  (19) 
{"free_energy": -7.3, "intermolecular_energy": -9.09, "internal_energy": -1.41, "cluster_size": 6, "cluster_id": 3, "rank_in_cluster": 4}

>  <energy>  (19) 
-6.85

>  <cluster_rmsd>  (19) 
1.49

>  <cluster>  (19) 
1

$$$$

     RDKit          3D

 46 49  0  0  0  0  0  0  0  0999 V2000
  139.7960   73.5020  222.6780 O   0  0  0  0  0  0  0  0  0  0  0  0
  140.3290   72.3510  222.6330 C   0  0  0  0  0  0  0  0  0  0  0  0
  141.0130   71.9590  221.4730 N   0  0  0  0  0  0  0  0  0  0  0  0
  141.1300   72.8250  220.3280 C   0  0  0  0  0  0  0  0  0  0  0  0
  141.9640   74.0100  220.6680 C   0  0  0  0  0  0  0  0  0  0  0  0
  143.2110   73.9360  220.8250 O   0  0  0  0  0  0  0  0  0  0  0  0
  141.3050   75.2520  220.8130 N   0  0  0  0  0  0  0  0  0  0  0  0
  141.0340   76.0070  222.0440 C   0  0  0  0  0  0  0  0  0  0  0  0
  139.6500   76.6040  221.8420 C   0  0  2  0  0  0  0  0  0  0  0  0
  138.6950   75.8180  222.5030 O   0  0  0  0  0  0  0  0  0  0  0  0
  139.4330   76.5970  220.3520 C   0  0  0  0  0  0  0  0  0  0  0  0
  140.7300   76.0880  219.7590 C   0  0  1  0  0  0  0  0  0  0  0  0
  141.7230   77.1880  219.4780 C   0  0  0  0  0  0  0  0  0  0  0  0
  143.1140   76.8440  219.0530 C   0  0  0  0  0  0  0  0  0  0  0  0
  142.1570   77.5190  218.0940 C   0  0  0  0  0  0  0  0  0  0  0  0
  140.2220   71.4630  223.7750 C   0  0  0  0  0  0  0  0  0  0  0  0
  139.6310   70.2090  223.6280 C   0  0  0  0  0  0  0  0  0  0  0  0
  139.5360   69.3750  224.7220 C   0  0  0  0  0  0  0  0  0  0  0  0
  140.0420   69.8320  225.9360 C   0  0  0  0  0  0  0  0  0  0  0  0
  139.9230   68.9570  227.0130 C   0  0  0  0  0  0  0  0  0  0  0  0
  140.4180   69.3840  228.2350 C   0  0  0  0  0  0  0  0  0  0  0  0
  140.9930   70.6230  228.3430 C   0  0  0  0  0  0  0  0  0  0  0  0
  141.1090   71.4870  227.2810 C   0  0  0  0  0  0  0  0  0  0  0  0
  140.6180   71.0650  226.0600 C   0  0  0  0  0  0  0  0  0  0  0  0
  140.6970   71.8580  224.9750 N   0  0  0  0  0  0  0  0  0  0  0  0
  141.4500   71.0220  221.4300 H   0  0  0  0  0  0  0  0  0  0  0  0
  141.6010   72.2735  219.5010 H   0  0  0  0  0  0  0  0  0  0  0  0
  140.1274   73.1637  220.0280 H   0  0  0  0  0  0  0  0  0  0  0  0
  141.0431   75.3386  222.9176 H   0  0  0  0  0  0  0  0  0  0  0  0
  141.7943   76.7796  222.2311 H   0  0  0  0  0  0  0  0  0  0  0  0
  139.5597   77.6210  222.2513 H   0  0  0  0  0  0  0  0  0  0  0  0
  139.2120   75.1870  223.0820 H   0  0  0  0  0  0  0  0  0  0  0  0
  138.6004   75.9285  220.0875 H   0  0  0  0  0  0  0  0  0  0  0  0
  139.1737   77.5961  219.9717 H   0  0  0  0  0  0  0  0  0  0  0  0
  140.5292   75.5788  218.8048 H   0  0  0  0  0  0  0  0  0  0  0  0
  141.2751   77.7732  220.2946 H   0  0  0  0  0  0  0  0  0  0  0  0
  143.9698   77.4009  219.4621 H   0  0  0  0  0  0  0  0  0  0  0  0
  143.7223   75.9277  219.0354 H   0  0  0  0  0  0  0  0  0  0  0  0
  142.3171   78.5676  217.8030 H   0  0  0  0  0  0  0  0  0  0  0  0
  141.7794   77.2977  217.0848 H   0  0  0  0  0  0  0  0  0  0  0  0
  139.2444   69.8881  222.6494 H   0  0  0  0  0  0  0  0  0  0  0  0
  139.0749   68.3798  224.6382 H   0  0  0  0  0  0  0  0  0  0  0  0
  139.4555   67.9679  226.8984 H   0  0  0  0  0  0  0  0  0  0  0  0
  140.3494   68.7295  229.1165 H   0  0  0  0  0  0  0  0  0  0  0  0
  141.3788   70.9399  229.3232 H   0  0  0  0  0  0  0  0  0  0  0  0
  141.5748   72.4766  227.3981 H   0  0  0  0  0  0  0  0  0  0  0  0
  1  2  2  0
  2  3  1  0
  3  4  1  0
  4  5  1  0
  5  6  2  0
  5  7  1  0
  7  8  1  0
  8  9  1  0
  9 10  1  0
  9 11  1  0
 11 12  1  0
 12 13  1  0
 13 14  1  0
 14 15  1  0
  2 16  1  0
 16 17  2  0
 17 18  1  0
 18 19  2  0
 19 20  1  0
 20 21  2  0
 21 22  1  0
 22 23  2  0
 23 24  1  0
 24 25  2  0
 12  7  1  0
 15 13  1  0
 25 16  1  0
 24 19  1  0
  3 26  1  0
  4 27  1  0
  4 28  1  0
  8 29  1  0
  8 30  1  0
  9 31  1  1
 10 32  1  0
 11 33  1  0
 11 34  1  0
 12 35  1  6
 13 36  1  0
 14 37  1  0
 14 38  1  0
 15 39  1  0
 15 40  1  0
 17 41  1  0
 18 42  1  0
 20 43  1  0
 21 44  1  0
 22 45  1  0
 23 46  1  0
M  END
>  <smiles>  (20) 
O=C(NCC(=O)N1C[C@H](O)C[C@H]1C1CC1)c1ccc2ccccc2n1

>  <score_type>  (20) 
oracle

>  <origin>  (20) 
autodockgpu

>  <m_score__min__energy>  (20) 
-7.7800000000000002

>  <m_primary>  (20) 
energy

>  <rmsd>  (20) 
2.6495032324340166

>  <m_score__min__rmsd>  (20) 
2.6495032324340166

>  <meeko>  (20) 
{"free_energy": -6.93, "intermolecular_energy": -8.72, "internal_energy": -1.88, "cluster_size": 27, "cluster_id": 1, "rank_in_cluster": 15}

>  <energy>  (20) 
-6.77

>  <cluster_rmsd>  (20) 
1.61

>  <cluster>  (20) 
1

$$$$

     RDKit          3D

 46 49  0  0  0  0  0  0  0  0999 V2000
  139.7440   71.4510  221.0440 O   0  0  0  0  0  0  0  0  0  0  0  0
  140.2860   71.9920  222.0560 C   0  0  0  0  0  0  0  0  0  0  0  0
  140.9830   73.1990  221.8960 N   0  0  0  0  0  0  0  0  0  0  0  0
  141.1030   73.8450  220.6140 C   0  0  0  0  0  0  0  0  0  0  0  0
  142.5240   74.2030  220.3550 C   0  0  0  0  0  0  0  0  0  0  0  0
  142.9180   75.3970  220.2910 O   0  0  0  0  0  0  0  0  0  0  0  0
  143.4430   73.1430  220.1780 N   0  0  0  0  0  0  0  0  0  0  0  0
  144.7140   72.9080  220.8740 C   0  0  0  0  0  0  0  0  0  0  0  0
  145.6530   72.3670  219.8070 C   0  0  2  0  0  0  0  0  0  0  0  0
  146.4790   73.3980  219.3370 O   0  0  0  0  0  0  0  0  0  0  0  0
  144.7510   71.8440  218.7200 C   0  0  0  0  0  0  0  0  0  0  0  0
  143.3430   72.0190  219.2480 C   0  0  1  0  0  0  0  0  0  0  0  0
  142.8570   70.8320  220.0410 C   0  0  0  0  0  0  0  0  0  0  0  0
  141.8630   69.8920  219.4390 C   0  0  0  0  0  0  0  0  0  0  0  0
  143.2820   69.4440  219.7170 C   0  0  0  0  0  0  0  0  0  0  0  0
  140.1770   71.3580  223.3560 C   0  0  0  0  0  0  0  0  0  0  0  0
  139.5370   70.1250  223.4770 C   0  0  0  0  0  0  0  0  0  0  0  0
  139.4410   69.5330  224.7190 C   0  0  0  0  0  0  0  0  0  0  0  0
  139.9940   70.2050  225.8050 C   0  0  0  0  0  0  0  0  0  0  0  0
  139.8720   69.5700  227.0390 C   0  0  0  0  0  0  0  0  0  0  0  0
  140.4140   70.2150  228.1400 C   0  0  0  0  0  0  0  0  0  0  0  0
  141.0360   71.4260  227.9850 C   0  0  0  0  0  0  0  0  0  0  0  0
  141.1560   72.0530  226.7680 C   0  0  0  0  0  0  0  0  0  0  0  0
  140.6170   71.4130  225.6670 C   0  0  0  0  0  0  0  0  0  0  0  0
  140.6970   71.9670  224.4430 N   0  0  0  0  0  0  0  0  0  0  0  0
  141.4270   73.6460  222.7180 H   0  0  0  0  0  0  0  0  0  0  0  0
  140.7504   73.1617  219.8274 H   0  0  0  0  0  0  0  0  0  0  0  0
  140.4941   74.7611  220.6131 H   0  0  0  0  0  0  0  0  0  0  0  0
  145.1048   73.8471  221.2928 H   0  0  0  0  0  0  0  0  0  0  0  0
  144.6006   72.2103  221.7168 H   0  0  0  0  0  0  0  0  0  0  0  0
  146.3191   71.5771  220.1843 H   0  0  0  0  0  0  0  0  0  0  0  0
  145.8870   74.1990  219.2350 H   0  0  0  0  0  0  0  0  0  0  0  0
  144.8894   72.4213  217.7940 H   0  0  0  0  0  0  0  0  0  0  0  0
  144.9694   70.7937  218.4769 H   0  0  0  0  0  0  0  0  0  0  0  0
  142.6453   72.1574  218.4089 H   0  0  0  0  0  0  0  0  0  0  0  0
  142.9023   71.4475  220.9516 H   0  0  0  0  0  0  0  0  0  0  0  0
  141.0324   69.5034  220.0465 H   0  0  0  0  0  0  0  0  0  0  0  0
  141.2064   69.9077  218.5566 H   0  0  0  0  0  0  0  0  0  0  0  0
  143.4846   68.7270  220.5262 H   0  0  0  0  0  0  0  0  0  0  0  0
  144.0890   68.9955  219.1190 H   0  0  0  0  0  0  0  0  0  0  0  0
  139.1131   69.6296  222.5910 H   0  0  0  0  0  0  0  0  0  0  0  0
  138.9431   68.5605  224.8471 H   0  0  0  0  0  0  0  0  0  0  0  0
  139.3668   68.5977  227.1357 H   0  0  0  0  0  0  0  0  0  0  0  0
  140.3448   69.7551  229.1368 H   0  0  0  0  0  0  0  0  0  0  0  0
  141.4578   71.9180  228.8738 H   0  0  0  0  0  0  0  0  0  0  0  0
  141.6609   73.0257  226.6734 H   0  0  0  0  0  0  0  0  0  0  0  0
  1  2  2  0
  2  3  1  0
  3  4  1  0
  4  5  1  0
  5  6  2  0
  5  7  1  0
  7  8  1  0
  8  9  1  0
  9 10  1  0
  9 11  1  0
 11 12  1  0
 12 13  1  0
 13 14  1  0
 14 15  1  0
  2 16  1  0
 16 17  2  0
 17 18  1  0
 18 19  2  0
 19 20  1  0
 20 21  2  0
 21 22  1  0
 22 23  2  0
 23 24  1  0
 24 25  2  0
 12  7  1  0
 15 13  1  0
 25 16  1  0
 24 19  1  0
  3 26  1  0
  4 27  1  0
  4 28  1  0
  8 29  1  0
  8 30  1  0
  9 31  1  1
 10 32  1  0
 11 33  1  0
 11 34  1  0
 12 35  1  6
 13 36  1  0
 14 37  1  0
 14 38  1  0
 15 39  1  0
 15 40  1  0
 17 41  1  0
 18 42  1  0
 20 43  1  0
 21 44  1  0
 22 45  1  0
 23 46  1  0
M  END
>  <smiles>  (21) 
O=C(NCC(=O)N1C[C@H](O)C[C@H]1C1CC1)c1ccc2ccccc2n1

>  <score_type>  (21) 
oracle

>  <origin>  (21) 
autodockgpu

>  <m_score__min__energy>  (21) 
-7.7800000000000002

>  <m_primary>  (21) 
energy

>  <rmsd>  (21) 
4.0919759888146086

>  <m_score__min__rmsd>  (21) 
4.0919759888146086

>  <meeko>  (21) 
{"free_energy": -6.77, "intermolecular_energy": -8.56, "internal_energy": -1.79, "cluster_size": 27, "cluster_id": 1, "rank_in_cluster": 20}

>  <energy>  (21) 
-6.73

>  <cluster_rmsd>  (21) 
1.56

>  <cluster>  (21) 
1

$$$$

     RDKit          3D

 46 49  0  0  0  0  0  0  0  0999 V2000
  139.5840   73.5110  222.6600 O   0  0  0  0  0  0  0  0  0  0  0  0
  140.2660   72.4410  222.6490 C   0  0  0  0  0  0  0  0  0  0  0  0
  141.0940   72.1690  221.5500 N   0  0  0  0  0  0  0  0  0  0  0  0
  141.1940   73.0690  220.4300 C   0  0  0  0  0  0  0  0  0  0  0  0
  142.0460   74.2360  220.7890 C   0  0  0  0  0  0  0  0  0  0  0  0
  143.2990   74.1540  220.8820 O   0  0  0  0  0  0  0  0  0  0  0  0
  141.3970   75.4690  221.0270 N   0  0  0  0  0  0  0  0  0  0  0  0
  141.0610   76.0940  222.3130 C   0  0  0  0  0  0  0  0  0  0  0  0
  139.7010   76.7380  222.0930 C   0  0  2  0  0  0  0  0  0  0  0  0
  138.6950   75.9070  222.6070 O   0  0  0  0  0  0  0  0  0  0  0  0
  139.5770   76.8950  220.6000 C   0  0  0  0  0  0  0  0  0  0  0  0
  140.9020   76.4240  220.0360 C   0  0  1  0  0  0  0  0  0  0  0  0
  141.9260   77.5270  219.9350 C   0  0  0  0  0  0  0  0  0  0  0  0
  142.2050   78.1640  218.6120 C   0  0  0  0  0  0  0  0  0  0  0  0
  141.5340   78.9460  219.7210 C   0  0  0  0  0  0  0  0  0  0  0  0
  140.1790   71.5200  223.7670 C   0  0  0  0  0  0  0  0  0  0  0  0
  139.6080   70.2610  223.5880 C   0  0  0  0  0  0  0  0  0  0  0  0
  139.5320   69.3960  224.6590 C   0  0  0  0  0  0  0  0  0  0  0  0
  140.0350   69.8280  225.8830 C   0  0  0  0  0  0  0  0  0  0  0  0
  139.9360   68.9210  226.9350 C   0  0  0  0  0  0  0  0  0  0  0  0
  140.4280   69.3230  228.1660 C   0  0  0  0  0  0  0  0  0  0  0  0
  140.9830   70.5680  228.3070 C   0  0  0  0  0  0  0  0  0  0  0  0
  141.0810   71.4630  227.2690 C   0  0  0  0  0  0  0  0  0  0  0  0
  140.5910   71.0660  226.0380 C   0  0  0  0  0  0  0  0  0  0  0  0
  140.6530   71.8900  224.9760 N   0  0  0  0  0  0  0  0  0  0  0  0
  141.6530   71.2980  221.5350 H   0  0  0  0  0  0  0  0  0  0  0  0
  141.6422   72.5397  219.5762 H   0  0  0  0  0  0  0  0  0  0  0  0
  140.1883   73.4250  220.1620 H   0  0  0  0  0  0  0  0  0  0  0  0
  141.0061   75.3364  223.1086 H   0  0  0  0  0  0  0  0  0  0  0  0
  141.8193   76.8261  222.6277 H   0  0  0  0  0  0  0  0  0  0  0  0
  139.6004   77.7073  222.6032 H   0  0  0  0  0  0  0  0  0  0  0  0
  139.1680   75.1780  223.1030 H   0  0  0  0  0  0  0  0  0  0  0  0
  138.7529   76.2766  220.2149 H   0  0  0  0  0  0  0  0  0  0  0  0
  139.3563   77.9340  220.3143 H   0  0  0  0  0  0  0  0  0  0  0  0
  140.7548   76.0227  219.0224 H   0  0  0  0  0  0  0  0  0  0  0  0
  142.5263   77.0116  220.6992 H   0  0  0  0  0  0  0  0  0  0  0  0
  143.2391   78.3981  218.3191 H   0  0  0  0  0  0  0  0  0  0  0  0
  141.9646   77.9291  217.5646 H   0  0  0  0  0  0  0  0  0  0  0  0
  142.0792   79.7515  220.2347 H   0  0  0  0  0  0  0  0  0  0  0  0
  140.6000   79.5194  219.8155 H   0  0  0  0  0  0  0  0  0  0  0  0
  139.2221   69.9608  222.6026 H   0  0  0  0  0  0  0  0  0  0  0  0
  139.0877   68.3957  224.5496 H   0  0  0  0  0  0  0  0  0  0  0  0
  139.4861   67.9271  226.7944 H   0  0  0  0  0  0  0  0  0  0  0  0
  140.3732   68.6436  229.0294 H   0  0  0  0  0  0  0  0  0  0  0  0
  141.3669   70.8639  229.2945 H   0  0  0  0  0  0  0  0  0  0  0  0
  141.5315   72.4563  227.4115 H   0  0  0  0  0  0  0  0  0  0  0  0
  1  2  2  0
  2  3  1  0
  3  4  1  0
  4  5  1  0
  5  6  2  0
  5  7  1  0
  7  8  1  0
  8  9  1  0
  9 10  1  0
  9 11  1  0
 11 12  1  0
 12 13  1  0
 13 14  1  0
 14 15  1  0
  2 16  1  0
 16 17  2  0
 17 18  1  0
 18 19  2  0
 19 20  1  0
 20 21  2  0
 21 22  1  0
 22 23  2  0
 23 24  1  0
 24 25  2  0
 12  7  1  0
 15 13  1  0
 25 16  1  0
 24 19  1  0
  3 26  1  0
  4 27  1  0
  4 28  1  0
  8 29  1  0
  8 30  1  0
  9 31  1  1
 10 32  1  0
 11 33  1  0
 11 34  1  0
 12 35  1  6
 13 36  1  0
 14 37  1  0
 14 38  1  0
 15 39  1  0
 15 40  1  0
 17 41  1  0
 18 42  1  0
 20 43  1  0
 21 44  1  0
 22 45  1  0
 23 46  1  0
M  END
>  <smiles>  (22) 
O=C(NCC(=O)N1C[C@H](O)C[C@H]1C1CC1)c1ccc2ccccc2n1

>  <score_type>  (22) 
oracle

>  <origin>  (22) 
autodockgpu

>  <m_score__min__energy>  (22) 
-7.7800000000000002

>  <m_primary>  (22) 
energy

>  <rmsd>  (22) 
2.7069366832833013

>  <m_score__min__rmsd>  (22) 
2.7069366832833013

>  <meeko>  (22) 
{"free_energy": -6.88, "intermolecular_energy": -8.67, "internal_energy": -1.89, "cluster_size": 5, "cluster_id": 2, "rank_in_cluster": 5}

>  <energy>  (22) 
-6.68

>  <cluster_rmsd>  (22) 
1.49

>  <cluster>  (22) 
1

$$$$

     RDKit          3D

 46 49  0  0  0  0  0  0  0  0999 V2000
  141.3660   72.4800  221.6700 O   0  0  0  0  0  0  0  0  0  0  0  0
  140.4080   72.6070  222.4920 C   0  0  0  0  0  0  0  0  0  0  0  0
  139.5290   73.6910  222.3570 N   0  0  0  0  0  0  0  0  0  0  0  0
  139.6800   74.6680  221.3100 C   0  0  0  0  0  0  0  0  0  0  0  0
  139.1180   75.9750  221.7460 C   0  0  0  0  0  0  0  0  0  0  0  0
  137.9990   76.0730  222.3150 O   0  0  0  0  0  0  0  0  0  0  0  0
  139.8920   77.1330  221.5010 N   0  0  0  0  0  0  0  0  0  0  0  0
  140.3280   77.6860  220.2130 C   0  0  0  0  0  0  0  0  0  0  0  0
  141.7370   78.2020  220.4630 C   0  0  2  0  0  0  0  0  0  0  0  0
  142.6730   77.2630  220.0050 O   0  0  0  0  0  0  0  0  0  0  0  0
  141.8280   78.3870  221.9560 C   0  0  0  0  0  0  0  0  0  0  0  0
  140.4460   78.0620  222.4850 C   0  0  1  0  0  0  0  0  0  0  0  0
  139.5320   79.2620  222.5240 C   0  0  0  0  0  0  0  0  0  0  0  0
  139.1330   79.8500  223.8380 C   0  0  0  0  0  0  0  0  0  0  0  0
  140.0280   80.6150  222.8880 C   0  0  0  0  0  0  0  0  0  0  0  0
  140.2390   71.6340  223.5550 C   0  0  0  0  0  0  0  0  0  0  0  0
  139.5920   70.4260  223.2960 C   0  0  0  0  0  0  0  0  0  0  0  0
  139.4380   69.5100  224.3150 C   0  0  0  0  0  0  0  0  0  0  0  0
  139.9420   69.8410  225.5700 C   0  0  0  0  0  0  0  0  0  0  0  0
  139.7630   68.8870  226.5690 C   0  0  0  0  0  0  0  0  0  0  0  0
  140.2540   69.1880  227.8290 C   0  0  0  0  0  0  0  0  0  0  0  0
  140.8840   70.3850  228.0490 C   0  0  0  0  0  0  0  0  0  0  0  0
  141.0600   71.3270  227.0640 C   0  0  0  0  0  0  0  0  0  0  0  0
  140.5720   71.0300  225.8040 C   0  0  0  0  0  0  0  0  0  0  0  0
  140.7090   71.9050  224.7910 N   0  0  0  0  0  0  0  0  0  0  0  0
  138.7450   73.8000  223.0250 H   0  0  0  0  0  0  0  0  0  0  0  0
  140.7482   74.7905  221.0778 H   0  0  0  0  0  0  0  0  0  0  0  0
  139.1399   74.3240  220.4156 H   0  0  0  0  0  0  0  0  0  0  0  0
  140.3341   76.9045  219.4389 H   0  0  0  0  0  0  0  0  0  0  0  0
  139.6550   78.4789  219.8546 H   0  0  0  0  0  0  0  0  0  0  0  0
  141.9478   79.1423  219.9325 H   0  0  0  0  0  0  0  0  0  0  0  0
  143.4750   77.7900  219.7240 H   0  0  0  0  0  0  0  0  0  0  0  0
  142.5751   77.7024  222.3841 H   0  0  0  0  0  0  0  0  0  0  0  0
  142.1399   79.4072  222.2242 H   0  0  0  0  0  0  0  0  0  0  0  0
  140.5207   77.6759  223.5123 H   0  0  0  0  0  0  0  0  0  0  0  0
  138.9980   78.8580  221.6513 H   0  0  0  0  0  0  0  0  0  0  0  0
  138.0962   80.1776  224.0042 H   0  0  0  0  0  0  0  0  0  0  0  0
  139.1980   79.5324  224.8891 H   0  0  0  0  0  0  0  0  0  0  0  0
  139.6437   81.5021  222.3632 H   0  0  0  0  0  0  0  0  0  0  0  0
  141.0182   81.0885  222.9610 H   0  0  0  0  0  0  0  0  0  0  0  0
  139.2083   70.2062  222.2888 H   0  0  0  0  0  0  0  0  0  0  0  0
  138.9330   68.5482  224.1419 H   0  0  0  0  0  0  0  0  0  0  0  0
  139.2528   67.9339  226.3659 H   0  0  0  0  0  0  0  0  0  0  0  0
  140.1383   68.4672  228.6518 H   0  0  0  0  0  0  0  0  0  0  0  0
  141.2654   70.6012  229.0579 H   0  0  0  0  0  0  0  0  0  0  0  0
  141.5691   72.2802  227.2694 H   0  0  0  0  0  0  0  0  0  0  0  0
  1  2  2  0
  2  3  1  0
  3  4  1  0
  4  5  1  0
  5  6  2  0
  5  7  1  0
  7  8  1  0
  8  9  1  0
  9 10  1  0
  9 11  1  0
 11 12  1  0
 12 13  1  0
 13 14  1  0
 14 15  1  0
  2 16  1  0
 16 17  2  0
 17 18  1  0
 18 19  2  0
 19 20  1  0
 20 21  2  0
 21 22  1  0
 22 23  2  0
 23 24  1  0
 24 25  2  0
 12  7  1  0
 15 13  1  0
 25 16  1  0
 24 19  1  0
  3 26  1  0
  4 27  1  0
  4 28  1  0
  8 29  1  0
  8 30  1  0
  9 31  1  6
 10 32  1  0
 11 33  1  0
 11 34  1  0
 12 35  1  1
 13 36  1  0
 14 37  1  0
 14 38  1  0
 15 39  1  0
 15 40  1  0
 17 41  1  0
 18 42  1  0
 20 43  1  0
 21 44  1  0
 22 45  1  0
 23 46  1  0
M  END
>  <smiles>  (23) 
O=C(NCC(=O)N1C[C@H](O)C[C@H]1C1CC1)c1ccc2ccccc2n1

>  <score_type>  (23) 
oracle

>  <origin>  (23) 
autodockgpu

>  <m_score__min__energy>  (23) 
-7.7800000000000002

>  <m_primary>  (23) 
energy

>  <rmsd>  (23) 
2.5084320101614948

>  <m_score__min__rmsd>  (23) 
2.5084320101614948

>  <meeko>  (23) 
{"free_energy": -7.52, "intermolecular_energy": -9.31, "internal_energy": -1.22, "cluster_size": 5, "cluster_id": 2, "rank_in_cluster": 2}

>  <energy>  (23) 
-6.63

>  <cluster_rmsd>  (23) 
1.49

>  <cluster>  (23) 
1

$$$$

     RDKit          3D

 46 49  0  0  0  0  0  0  0  0999 V2000
  140.4530   76.8900  218.9420 O   0  0  0  0  0  0  0  0  0  0  0  0
  141.6960   76.9600  219.1850 C   0  0  0  0  0  0  0  0  0  0  0  0
  142.2710   78.2100  219.4580 N   0  0  0  0  0  0  0  0  0  0  0  0
  141.4910   79.4200  219.4700 C   0  0  0  0  0  0  0  0  0  0  0  0
  141.2800   79.8770  220.8700 C   0  0  0  0  0  0  0  0  0  0  0  0
  141.5590   81.0450  221.2490 O   0  0  0  0  0  0  0  0  0  0  0  0
  140.7450   78.9440  221.7880 N   0  0  0  0  0  0  0  0  0  0  0  0
  141.4610   78.0540  222.7110 C   0  0  0  0  0  0  0  0  0  0  0  0
  140.6690   76.7560  222.7000 C   0  0  2  0  0  0  0  0  0  0  0  0
  141.2880   75.8310  221.8470 O   0  0  0  0  0  0  0  0  0  0  0  0
  139.3000   77.1360  222.1990 C   0  0  0  0  0  0  0  0  0  0  0  0
  139.3360   78.6410  222.0350 C   0  0  1  0  0  0  0  0  0  0  0  0
  138.9380   79.3810  223.2880 C   0  0  0  0  0  0  0  0  0  0  0  0
  139.4510   80.7640  223.5290 C   0  0  0  0  0  0  0  0  0  0  0  0
  137.9820   80.5200  223.2580 C   0  0  0  0  0  0  0  0  0  0  0  0
  142.5000   75.7520  219.1770 C   0  0  0  0  0  0  0  0  0  0  0  0
  142.1580   74.6950  218.3340 C   0  0  0  0  0  0  0  0  0  0  0  0
  142.9320   73.5530  218.3360 C   0  0  0  0  0  0  0  0  0  0  0  0
  144.0290   73.5110  219.1920 C   0  0  0  0  0  0  0  0  0  0  0  0
  144.7790   72.3380  219.1610 C   0  0  0  0  0  0  0  0  0  0  0  0
  145.8780   72.2660  220.0020 C   0  0  0  0  0  0  0  0  0  0  0  0
  146.1850   73.3230  220.8180 C   0  0  0  0  0  0  0  0  0  0  0  0
  145.4440   74.4810  220.8480 C   0  0  0  0  0  0  0  0  0  0  0  0
  144.3470   74.5570  220.0110 C   0  0  0  0  0  0  0  0  0  0  0  0
  143.5750   75.6590  219.9870 N   0  0  0  0  0  0  0  0  0  0  0  0
  143.2850   78.2730  219.6570 H   0  0  0  0  0  0  0  0  0  0  0  0
  142.0232   80.2018  218.9082 H   0  0  0  0  0  0  0  0  0  0  0  0
  140.5142   79.2239  219.0037 H   0  0  0  0  0  0  0  0  0  0  0  0
  142.4899   77.8820  222.3621 H   0  0  0  0  0  0  0  0  0  0  0  0
  141.5384   78.4822  223.7213 H   0  0  0  0  0  0  0  0  0  0  0  0
  140.6122   76.2823  223.6911 H   0  0  0  0  0  0  0  0  0  0  0  0
  142.1640   76.2400  221.5880 H   0  0  0  0  0  0  0  0  0  0  0  0
  139.0939   76.6485  221.2347 H   0  0  0  0  0  0  0  0  0  0  0  0
  138.5076   76.8187  222.8928 H   0  0  0  0  0  0  0  0  0  0  0  0
  138.6388   78.9464  221.2409 H   0  0  0  0  0  0  0  0  0  0  0  0
  138.9664   78.4274  223.8356 H   0  0  0  0  0  0  0  0  0  0  0  0
  139.7850   81.0616  224.5339 H   0  0  0  0  0  0  0  0  0  0  0  0
  140.2338   81.3963  223.0848 H   0  0  0  0  0  0  0  0  0  0  0  0
  137.2453   80.6421  224.0657 H   0  0  0  0  0  0  0  0  0  0  0  0
  137.2491   80.9034  222.5329 H   0  0  0  0  0  0  0  0  0  0  0  0
  141.2807   74.7710  217.6747 H   0  0  0  0  0  0  0  0  0  0  0  0
  142.6900   72.7024  217.6818 H   0  0  0  0  0  0  0  0  0  0  0  0
  144.5103   71.5035  218.4967 H   0  0  0  0  0  0  0  0  0  0  0  0
  146.5033   71.3611  220.0145 H   0  0  0  0  0  0  0  0  0  0  0  0
  147.0617   73.2418  221.4773 H   0  0  0  0  0  0  0  0  0  0  0  0
  145.7141   75.3148  221.5127 H   0  0  0  0  0  0  0  0  0  0  0  0
  1  2  2  0
  2  3  1  0
  3  4  1  0
  4  5  1  0
  5  6  2  0
  5  7  1  0
  7  8  1  0
  8  9  1  0
  9 10  1  0
  9 11  1  0
 11 12  1  0
 12 13  1  0
 13 14  1  0
 14 15  1  0
  2 16  1  0
 16 17  2  0
 17 18  1  0
 18 19  2  0
 19 20  1  0
 20 21  2  0
 21 22  1  0
 22 23  2  0
 23 24  1  0
 24 25  2  0
 12  7  1  0
 15 13  1  0
 25 16  1  0
 24 19  1  0
  3 26  1  0
  4 27  1  0
  4 28  1  0
  8 29  1  0
  8 30  1  0
  9 31  1  1
 10 32  1  0
 11 33  1  0
 11 34  1  0
 12 35  1  6
 13 36  1  0
 14 37  1  0
 14 38  1  0
 15 39  1  0
 15 40  1  0
 17 41  1  0
 18 42  1  0
 20 43  1  0
 21 44  1  0
 22 45  1  0
 23 46  1  0
M  END
>  <smiles>  (24) 
O=C(NCC(=O)N1C[C@H](O)C[C@H]1C1CC1)c1ccc2ccccc2n1

>  <score_type>  (24) 
oracle

>  <origin>  (24) 
autodockgpu

>  <m_score__min__energy>  (24) 
-7.7800000000000002

>  <m_primary>  (24) 
energy

>  <rmsd>  (24) 
7.207654660387765

>  <m_score__min__rmsd>  (24) 
7.207654660387765

>  <meeko>  (24) 
{"free_energy": -5.77, "intermolecular_energy": -7.56, "internal_energy": -2.46, "cluster_size": 1, "cluster_id": 7, "rank_in_cluster": 1}

>  <energy>  (24) 
-6.62

>  <cluster_rmsd>  (24) 
1.5

>  <cluster>  (24) 
1

$$$$

     RDKit          3D

 46 49  0  0  0  0  0  0  0  0999 V2000
  138.1670   74.4060  222.2850 O   0  0  0  0  0  0  0  0  0  0  0  0
  139.2400   75.0100  221.9800 C   0  0  0  0  0  0  0  0  0  0  0  0
  139.2640   76.4130  222.0000 N   0  0  0  0  0  0  0  0  0  0  0  0
  138.1050   77.1900  222.3560 C   0  0  0  0  0  0  0  0  0  0  0  0
  138.5190   78.5450  222.8090 C   0  0  0  0  0  0  0  0  0  0  0  0
  137.7640   79.2910  223.4870 O   0  0  0  0  0  0  0  0  0  0  0  0
  139.8140   78.9860  222.4530 N   0  0  0  0  0  0  0  0  0  0  0  0
  140.3570   79.2410  221.1120 C   0  0  0  0  0  0  0  0  0  0  0  0
  141.7950   78.7490  221.1700 C   0  0  2  0  0  0  0  0  0  0  0  0
  141.8800   77.4690  220.6030 O   0  0  0  0  0  0  0  0  0  0  0  0
  142.1430   78.7270  222.6360 C   0  0  0  0  0  0  0  0  0  0  0  0
  140.9310   79.2930  223.3450 C   0  0  1  0  0  0  0  0  0  0  0  0
  140.9790   80.7940  223.4910 C   0  0  0  0  0  0  0  0  0  0  0  0
  142.2040   81.4480  224.0450 C   0  0  0  0  0  0  0  0  0  0  0  0
  141.8100   81.6430  222.5960 C   0  0  0  0  0  0  0  0  0  0  0  0
  140.4190   74.2460  221.6180 C   0  0  0  0  0  0  0  0  0  0  0  0
  140.4000   72.8550  221.7060 C   0  0  0  0  0  0  0  0  0  0  0  0
  141.5280   72.1410  221.3580 C   0  0  0  0  0  0  0  0  0  0  0  0
  142.6450   72.8550  220.9320 C   0  0  0  0  0  0  0  0  0  0  0  0
  143.7600   72.0930  220.5920 C   0  0  0  0  0  0  0  0  0  0  0  0
  144.8870   72.7750  220.1630 C   0  0  0  0  0  0  0  0  0  0  0  0
  144.8710   74.1430  220.0890 C   0  0  0  0  0  0  0  0  0  0  0  0
  143.7710   74.8950  220.4240 C   0  0  0  0  0  0  0  0  0  0  0  0
  142.6440   74.2180  220.8520 C   0  0  0  0  0  0  0  0  0  0  0  0
  141.5290   74.8890  221.1980 N   0  0  0  0  0  0  0  0  0  0  0  0
  140.1370   76.9120  221.7530 H   0  0  0  0  0  0  0  0  0  0  0  0
  137.4468   77.2844  221.4797 H   0  0  0  0  0  0  0  0  0  0  0  0
  137.5692   76.6847  223.1731 H   0  0  0  0  0  0  0  0  0  0  0  0
  139.7883   78.6847  220.3523 H   0  0  0  0  0  0  0  0  0  0  0  0
  140.2946   80.3040  220.8360 H   0  0  0  0  0  0  0  0  0  0  0  0
  142.4892   79.3900  220.6068 H   0  0  0  0  0  0  0  0  0  0  0  0
  142.2390   76.8730  221.3230 H   0  0  0  0  0  0  0  0  0  0  0  0
  142.3382   77.6972  222.9699 H   0  0  0  0  0  0  0  0  0  0  0  0
  143.0513   79.3095  222.8498 H   0  0  0  0  0  0  0  0  0  0  0  0
  140.8605   78.8691  224.3576 H   0  0  0  0  0  0  0  0  0  0  0  0
  139.9103   80.7833  223.7513 H   0  0  0  0  0  0  0  0  0  0  0  0
  142.1109   82.2795  224.7591 H   0  0  0  0  0  0  0  0  0  0  0  0
  143.1060   81.1015  224.5706 H   0  0  0  0  0  0  0  0  0  0  0  0
  141.4319   82.6179  222.2545 H   0  0  0  0  0  0  0  0  0  0  0  0
  142.3089   81.4980  221.6264 H   0  0  0  0  0  0  0  0  0  0  0  0
  139.4951   72.3321  222.0493 H   0  0  0  0  0  0  0  0  0  0  0  0
  141.5445   71.0426  221.4152 H   0  0  0  0  0  0  0  0  0  0  0  0
  143.7464   70.9953  220.6612 H   0  0  0  0  0  0  0  0  0  0  0  0
  145.7935   72.2189  219.8821 H   0  0  0  0  0  0  0  0  0  0  0  0
  145.7784   74.6619  219.7465 H   0  0  0  0  0  0  0  0  0  0  0  0
  143.7863   75.9927  220.3544 H   0  0  0  0  0  0  0  0  0  0  0  0
  1  2  2  0
  2  3  1  0
  3  4  1  0
  4  5  1  0
  5  6  2  0
  5  7  1  0
  7  8  1  0
  8  9  1  0
  9 10  1  0
  9 11  1  0
 11 12  1  0
 12 13  1  0
 13 14  1  0
 14 15  1  0
  2 16  1  0
 16 17  2  0
 17 18  1  0
 18 19  2  0
 19 20  1  0
 20 21  2  0
 21 22  1  0
 22 23  2  0
 23 24  1  0
 24 25  2  0
 12  7  1  0
 15 13  1  0
 25 16  1  0
 24 19  1  0
  3 26  1  0
  4 27  1  0
  4 28  1  0
  8 29  1  0
  8 30  1  0
  9 31  1  6
 10 32  1  0
 11 33  1  0
 11 34  1  0
 12 35  1  1
 13 36  1  0
 14 37  1  0
 14 38  1  0
 15 39  1  0
 15 40  1  0
 17 41  1  0
 18 42  1  0
 20 43  1  0
 21 44  1  0
 22 45  1  0
 23 46  1  0
M  END
>  <smiles>  (25) 
O=C(NCC(=O)N1C[C@H](O)C[C@H]1C1CC1)c1ccc2ccccc2n1

>  <score_type>  (25) 
oracle

>  <origin>  (25) 
autodockgpu

>  <m_score__min__energy>  (25) 
-7.7800000000000002

>  <m_primary>  (25) 
energy

>  <rmsd>  (25) 
5.802944624811669

>  <m_score__min__rmsd>  (25) 
5.802944624811669

>  <meeko>  (25) 
{"free_energy": -5.77, "intermolecular_energy": -7.56, "internal_energy": -2.93, "cluster_size": 3, "cluster_id": 6, "rank_in_cluster": 3}

>  <energy>  (25) 
-6.49

>  <cluster_rmsd>  (25) 
1.52

>  <cluster>  (25) 
1

$$$$

     RDKit          3D

 46 49  0  0  0  0  0  0  0  0999 V2000
  141.4150   72.5500  221.7040 O   0  0  0  0  0  0  0  0  0  0  0  0
  140.4200   72.6330  222.4870 C   0  0  0  0  0  0  0  0  0  0  0  0
  139.5250   73.7040  222.3450 N   0  0  0  0  0  0  0  0  0  0  0  0
  139.7020   74.7150  221.3340 C   0  0  0  0  0  0  0  0  0  0  0  0
  139.1670   76.0170  221.8160 C   0  0  0  0  0  0  0  0  0  0  0  0
  138.1080   76.1050  222.4900 O   0  0  0  0  0  0  0  0  0  0  0  0
  139.8970   77.1840  221.4900 N   0  0  0  0  0  0  0  0  0  0  0  0
  140.2360   77.7110  220.1620 C   0  0  0  0  0  0  0  0  0  0  0  0
  141.6460   78.2610  220.3050 C   0  0  2  0  0  0  0  0  0  0  0  0
  142.5700   77.3290  219.8100 O   0  0  0  0  0  0  0  0  0  0  0  0
  141.8300   78.4890  221.7820 C   0  0  0  0  0  0  0  0  0  0  0  0
  140.4940   78.1510  222.4100 C   0  0  1  0  0  0  0  0  0  0  0  0
  139.5580   79.3320  222.4790 C   0  0  0  0  0  0  0  0  0  0  0  0
  139.0600   79.8090  223.8050 C   0  0  0  0  0  0  0  0  0  0  0  0
  140.0040   80.6580  222.9810 C   0  0  0  0  0  0  0  0  0  0  0  0
  140.2240   71.6250  223.5120 C   0  0  0  0  0  0  0  0  0  0  0  0
  139.5420   70.4480  223.2080 C   0  0  0  0  0  0  0  0  0  0  0  0
  139.3630   69.4980  224.1920 C   0  0  0  0  0  0  0  0  0  0  0  0
  139.8780   69.7660  225.4580 C   0  0  0  0  0  0  0  0  0  0  0  0
  139.6730   68.7800  226.4190 C   0  0  0  0  0  0  0  0  0  0  0  0
  140.1740   69.0180  227.6890 C   0  0  0  0  0  0  0  0  0  0  0  0
  140.8390   70.1870  227.9530 C   0  0  0  0  0  0  0  0  0  0  0  0
  141.0410   71.1600  227.0040 C   0  0  0  0  0  0  0  0  0  0  0  0
  140.5430   70.9270  225.7360 C   0  0  0  0  0  0  0  0  0  0  0  0
  140.7040   71.8350  224.7560 N   0  0  0  0  0  0  0  0  0  0  0  0
  138.7110   73.7780  222.9800 H   0  0  0  0  0  0  0  0  0  0  0  0
  140.7736   74.8222  221.1099 H   0  0  0  0  0  0  0  0  0  0  0  0
  139.1586   74.4158  220.4256 H   0  0  0  0  0  0  0  0  0  0  0  0
  140.2082   76.9093  219.4093 H   0  0  0  0  0  0  0  0  0  0  0  0
  139.5241   78.4806  219.8289 H   0  0  0  0  0  0  0  0  0  0  0  0
  141.8017   79.1905  219.7377 H   0  0  0  0  0  0  0  0  0  0  0  0
  143.4400   77.8180  219.7360 H   0  0  0  0  0  0  0  0  0  0  0  0
  142.6186   77.8320  222.1776 H   0  0  0  0  0  0  0  0  0  0  0  0
  142.1358   79.5226  222.0017 H   0  0  0  0  0  0  0  0  0  0  0  0
  140.6453   77.7953  223.4399 H   0  0  0  0  0  0  0  0  0  0  0  0
  139.0916   78.9918  221.5426 H   0  0  0  0  0  0  0  0  0  0  0  0
  138.0086   80.1095  223.9244 H   0  0  0  0  0  0  0  0  0  0  0  0
  139.0592   79.4100  224.8301 H   0  0  0  0  0  0  0  0  0  0  0  0
  139.6404   81.5790  222.5018 H   0  0  0  0  0  0  0  0  0  0  0  0
  140.9784   81.1364  223.1589 H   0  0  0  0  0  0  0  0  0  0  0  0
  139.1506   70.2785  222.1940 H   0  0  0  0  0  0  0  0  0  0  0  0
  138.8303   68.5585  223.9834 H   0  0  0  0  0  0  0  0  0  0  0  0
  139.1356   67.8504  226.1802 H   0  0  0  0  0  0  0  0  0  0  0  0
  140.0382   68.2699  228.4839 H   0  0  0  0  0  0  0  0  0  0  0  0
  141.2278   70.3535  228.9684 H   0  0  0  0  0  0  0  0  0  0  0  0
  141.5786   72.0891  227.2444 H   0  0  0  0  0  0  0  0  0  0  0  0
  1  2  2  0
  2  3  1  0
  3  4  1  0
  4  5  1  0
  5  6  2  0
  5  7  1  0
  7  8  1  0
  8  9  1  0
  9 10  1  0
  9 11  1  0
 11 12  1  0
 12 13  1  0
 13 14  1  0
 14 15  1  0
  2 16  1  0
 16 17  2  0
 17 18  1  0
 18 19  2  0
 19 20  1  0
 20 21  2  0
 21 22  1  0
 22 23  2  0
 23 24  1  0
 24 25  2  0
 12  7  1  0
 15 13  1  0
 25 16  1  0
 24 19  1  0
  3 26  1  0
  4 27  1  0
  4 28  1  0
  8 29  1  0
  8 30  1  0
  9 31  1  6
 10 32  1  0
 11 33  1  0
 11 34  1  0
 12 35  1  1
 13 36  1  0
 14 37  1  0
 14 38  1  0
 15 39  1  0
 15 40  1  0
 17 41  1  0
 18 42  1  0
 20 43  1  0
 21 44  1  0
 22 45  1  0
 23 46  1  0
M  END
>  <smiles>  (26) 
O=C(NCC(=O)N1C[C@H](O)C[C@H]1C1CC1)c1ccc2ccccc2n1

>  <score_type>  (26) 
oracle

>  <origin>  (26) 
autodockgpu

>  <m_score__min__energy>  (26) 
-7.7800000000000002

>  <m_primary>  (26) 
energy

>  <rmsd>  (26) 
2.47482490526084

>  <m_score__min__rmsd>  (26) 
2.47482490526084

>  <meeko>  (26) 
{"free_energy": -7.57, "intermolecular_energy": -9.36, "internal_energy": -1.26, "cluster_size": 5, "cluster_id": 2, "rank_in_cluster": 1}

>  <energy>  (26) 
-6.35

>  <cluster_rmsd>  (26) 
1.53

>  <cluster>  (26) 
1

$$$$

     RDKit          3D

 46 49  0  0  0  0  0  0  0  0999 V2000
  140.9740   71.4870  221.4190 O   0  0  0  0  0  0  0  0  0  0  0  0
  140.4270   72.0560  222.4120 C   0  0  0  0  0  0  0  0  0  0  0  0
  140.0070   73.3900  222.2900 N   0  0  0  0  0  0  0  0  0  0  0  0
  140.1790   74.1340  221.0690 C   0  0  0  0  0  0  0  0  0  0  0  0
  141.1390   75.2510  221.2830 C   0  0  0  0  0  0  0  0  0  0  0  0
  140.9810   76.1130  222.1870 O   0  0  0  0  0  0  0  0  0  0  0  0
  142.2610   75.3210  220.4250 N   0  0  0  0  0  0  0  0  0  0  0  0
  142.9300   76.5140  219.8900 C   0  0  0  0  0  0  0  0  0  0  0  0
  143.3120   76.1440  218.4650 C   0  0  2  0  0  0  0  0  0  0  0  0
  142.3710   76.6720  217.5700 O   0  0  0  0  0  0  0  0  0  0  0  0
  143.3140   74.6380  218.4380 C   0  0  0  0  0  0  0  0  0  0  0  0
  143.0270   74.2100  219.8620 C   0  0  1  0  0  0  0  0  0  0  0  0
  144.2740   74.0660  220.6980 C   0  0  0  0  0  0  0  0  0  0  0  0
  144.8480   72.7080  220.9490 C   0  0  0  0  0  0  0  0  0  0  0  0
  145.5870   73.7150  220.0950 C   0  0  0  0  0  0  0  0  0  0  0  0
  140.2450   71.3250  223.6510 C   0  0  0  0  0  0  0  0  0  0  0  0
  139.6020   70.0870  223.6400 C   0  0  0  0  0  0  0  0  0  0  0  0
  139.4370   69.4020  224.8250 C   0  0  0  0  0  0  0  0  0  0  0  0
  139.9240   69.9890  225.9900 C   0  0  0  0  0  0  0  0  0  0  0  0
  139.7330   69.2610  227.1630 C   0  0  0  0  0  0  0  0  0  0  0  0
  140.2080   69.8190  228.3390 C   0  0  0  0  0  0  0  0  0  0  0  0
  140.8350   71.0370  228.3130 C   0  0  0  0  0  0  0  0  0  0  0  0
  141.0230   71.7550  227.1560 C   0  0  0  0  0  0  0  0  0  0  0  0
  140.5510   71.2020  225.9800 C   0  0  0  0  0  0  0  0  0  0  0  0
  140.7000   71.8480  224.8090 N   0  0  0  0  0  0  0  0  0  0  0  0
  139.5600   73.8600  223.0960 H   0  0  0  0  0  0  0  0  0  0  0  0
  140.5672   73.4651  220.2868 H   0  0  0  0  0  0  0  0  0  0  0  0
  139.2080   74.5476  220.7590 H   0  0  0  0  0  0  0  0  0  0  0  0
  142.2467   77.3760  219.8959 H   0  0  0  0  0  0  0  0  0  0  0  0
  143.8049   76.8022  220.4912 H   0  0  0  0  0  0  0  0  0  0  0  0
  144.2908   76.5478  218.1669 H   0  0  0  0  0  0  0  0  0  0  0  0
  142.7470   77.5460  217.2600 H   0  0  0  0  0  0  0  0  0  0  0  0
  142.5334   74.2642  217.7590 H   0  0  0  0  0  0  0  0  0  0  0  0
  144.2718   74.2366  218.0753 H   0  0  0  0  0  0  0  0  0  0  0  0
  142.5195   73.2341  219.8630 H   0  0  0  0  0  0  0  0  0  0  0  0
  143.9247   74.8983  221.3267 H   0  0  0  0  0  0  0  0  0  0  0  0
  145.2288   72.4454  221.9470 H   0  0  0  0  0  0  0  0  0  0  0  0
  144.4988   71.6738  220.8134 H   0  0  0  0  0  0  0  0  0  0  0  0
  146.5083   74.1844  220.4703 H   0  0  0  0  0  0  0  0  0  0  0  0
  146.0019   73.7171  219.0762 H   0  0  0  0  0  0  0  0  0  0  0  0
  139.2306   69.6619  222.6959 H   0  0  0  0  0  0  0  0  0  0  0  0
  138.9365   68.4228  224.8494 H   0  0  0  0  0  0  0  0  0  0  0  0
  139.2265   68.2846  227.1555 H   0  0  0  0  0  0  0  0  0  0  0  0
  140.0818   69.2848  229.2923 H   0  0  0  0  0  0  0  0  0  0  0  0
  141.2041   71.4588  229.2595 H   0  0  0  0  0  0  0  0  0  0  0  0
  141.5293   72.7315  227.1654 H   0  0  0  0  0  0  0  0  0  0  0  0
  1  2  2  0
  2  3  1  0
  3  4  1  0
  4  5  1  0
  5  6  2  0
  5  7  1  0
  7  8  1  0
  8  9  1  0
  9 10  1  0
  9 11  1  0
 11 12  1  0
 12 13  1  0
 13 14  1  0
 14 15  1  0
  2 16  1  0
 16 17  2  0
 17 18  1  0
 18 19  2  0
 19 20  1  0
 20 21  2  0
 21 22  1  0
 22 23  2  0
 23 24  1  0
 24 25  2  0
 12  7  1  0
 15 13  1  0
 25 16  1  0
 24 19  1  0
  3 26  1  0
  4 27  1  0
  4 28  1  0
  8 29  1  0
  8 30  1  0
  9 31  1  6
 10 32  1  0
 11 33  1  0
 11 34  1  0
 12 35  1  6
 13 36  1  0
 14 37  1  0
 14 38  1  0
 15 39  1  0
 15 40  1  0
 17 41  1  0
 18 42  1  0
 20 43  1  0
 21 44  1  0
 22 45  1  0
 23 46  1  0
M  END
>  <smiles>  (27) 
O=C(NCC(=O)N1C[C@H](O)C[C@H]1C1CC1)c1ccc2ccccc2n1

>  <score_type>  (27) 
oracle

>  <origin>  (27) 
autodockgpu

>  <m_score__min__energy>  (27) 
-7.7800000000000002

>  <m_primary>  (27) 
energy

>  <rmsd>  (27) 
2.6434102753965716

>  <m_score__min__rmsd>  (27) 
2.6434102753965716

>  <meeko>  (27) 
{"free_energy": -7.4, "intermolecular_energy": -9.19, "internal_energy": -1.36, "cluster_size": 6, "cluster_id": 3, "rank_in_cluster": 1}

>  <energy>  (27) 
-6.26

>  <cluster_rmsd>  (27) 
1.55

>  <cluster>  (27) 
1

$$$$

     RDKit          3D

 46 49  0  0  0  0  0  0  0  0999 V2000
  139.0420   74.6480  222.0010 O   0  0  0  0  0  0  0  0  0  0  0  0
  140.1350   75.2920  221.9980 C   0  0  0  0  0  0  0  0  0  0  0  0
  141.3240   74.6210  221.6750 N   0  0  0  0  0  0  0  0  0  0  0  0
  141.3420   73.2190  221.3440 C   0  0  0  0  0  0  0  0  0  0  0  0
  141.9160   73.0230  219.9860 C   0  0  0  0  0  0  0  0  0  0  0  0
  141.3020   72.4060  219.0760 O   0  0  0  0  0  0  0  0  0  0  0  0
  143.1990   73.5600  219.7360 N   0  0  0  0  0  0  0  0  0  0  0  0
  144.1800   73.1520  218.7210 C   0  0  0  0  0  0  0  0  0  0  0  0
  145.5310   73.2710  219.4100 C   0  0  2  0  0  0  0  0  0  0  0  0
  145.9500   72.0070  219.8500 O   0  0  0  0  0  0  0  0  0  0  0  0
  145.3010   74.2080  220.5660 C   0  0  0  0  0  0  0  0  0  0  0  0
  143.8610   74.6590  220.4370 C   0  0  1  0  0  0  0  0  0  0  0  0
  143.7020   75.8890  219.5790 C   0  0  0  0  0  0  0  0  0  0  0  0
  142.6030   75.9540  218.5680 C   0  0  0  0  0  0  0  0  0  0  0  0
  142.5890   76.8530  219.7850 C   0  0  0  0  0  0  0  0  0  0  0  0
  140.1390   76.7050  222.3280 C   0  0  0  0  0  0  0  0  0  0  0  0
  138.9350   77.4040  222.4090 C   0  0  0  0  0  0  0  0  0  0  0  0
  138.9540   78.7460  222.7250 C   0  0  0  0  0  0  0  0  0  0  0  0
  140.1900   79.3460  222.9480 C   0  0  0  0  0  0  0  0  0  0  0  0
  140.1600   80.7020  223.2630 C   0  0  0  0  0  0  0  0  0  0  0  0
  141.3760   81.3270  223.4920 C   0  0  0  0  0  0  0  0  0  0  0  0
  142.5400   80.6100  223.4030 C   0  0  0  0  0  0  0  0  0  0  0  0
  142.5700   79.2710  223.0930 C   0  0  0  0  0  0  0  0  0  0  0  0
  141.3590   78.6440  222.8650 C   0  0  0  0  0  0  0  0  0  0  0  0
  141.3110   77.3350  222.5560 N   0  0  0  0  0  0  0  0  0  0  0  0
  142.2190   75.1410  221.6710 H   0  0  0  0  0  0  0  0  0  0  0  0
  141.9557   72.6790  222.0800 H   0  0  0  0  0  0  0  0  0  0  0  0
  140.3126   72.8316  221.3597 H   0  0  0  0  0  0  0  0  0  0  0  0
  143.9983   72.1149  218.4024 H   0  0  0  0  0  0  0  0  0  0  0  0
  144.1213   73.7741  217.8157 H   0  0  0  0  0  0  0  0  0  0  0  0
  146.3189   73.6503  218.7427 H   0  0  0  0  0  0  0  0  0  0  0  0
  145.5860   71.9040  220.7770 H   0  0  0  0  0  0  0  0  0  0  0  0
  145.4567   73.6859  221.5216 H   0  0  0  0  0  0  0  0  0  0  0  0
  145.9992   75.0579  220.5492 H   0  0  0  0  0  0  0  0  0  0  0  0
  143.4559   74.9003  221.4308 H   0  0  0  0  0  0  0  0  0  0  0  0
  144.7973   75.9873  219.5543 H   0  0  0  0  0  0  0  0  0  0  0  0
  142.7944   76.3775  217.5710 H   0  0  0  0  0  0  0  0  0  0  0  0
  141.9056   75.2290  218.1230 H   0  0  0  0  0  0  0  0  0  0  0  0
  142.7680   77.9327  219.6742 H   0  0  0  0  0  0  0  0  0  0  0  0
  141.8738   77.0558  220.5958 H   0  0  0  0  0  0  0  0  0  0  0  0
  137.9803   76.8902  222.2228 H   0  0  0  0  0  0  0  0  0  0  0  0
  138.0213   79.3245  222.7986 H   0  0  0  0  0  0  0  0  0  0  0  0
  139.2109   81.2543  223.3275 H   0  0  0  0  0  0  0  0  0  0  0  0
  141.4063   82.3971  223.7448 H   0  0  0  0  0  0  0  0  0  0  0  0
  143.4924   81.1285  223.5877 H   0  0  0  0  0  0  0  0  0  0  0  0
  143.5200   78.7202  223.0289 H   0  0  0  0  0  0  0  0  0  0  0  0
  1  2  2  0
  2  3  1  0
  3  4  1  0
  4  5  1  0
  5  6  2  0
  5  7  1  0
  7  8  1  0
  8  9  1  0
  9 10  1  0
  9 11  1  0
 11 12  1  0
 12 13  1  0
 13 14  1  0
 14 15  1  0
  2 16  1  0
 16 17  2  0
 17 18  1  0
 18 19  2  0
 19 20  1  0
 20 21  2  0
 21 22  1  0
 22 23  2  0
 23 24  1  0
 24 25  2  0
 12  7  1  0
 15 13  1  0
 25 16  1  0
 24 19  1  0
  3 26  1  0
  4 27  1  0
  4 28  1  0
  8 29  1  0
  8 30  1  0
  9 31  1  6
 10 32  1  0
 11 33  1  0
 11 34  1  0
 12 35  1  1
 13 36  1  0
 14 37  1  0
 14 38  1  0
 15 39  1  0
 15 40  1  0
 17 41  1  0
 18 42  1  0
 20 43  1  0
 21 44  1  0
 22 45  1  0
 23 46  1  0
M  END
>  <smiles>  (28) 
O=C(NCC(=O)N1C[C@H](O)C[C@H]1C1CC1)c1ccc2ccccc2n1

>  <score_type>  (28) 
oracle

>  <origin>  (28) 
autodockgpu

>  <m_score__min__energy>  (28) 
-7.7800000000000002

>  <m_primary>  (28) 
energy

>  <rmsd>  (28) 
7.540632257697501

>  <m_score__min__rmsd>  (28) 
7.540632257697501

>  <meeko>  (28) 
{"free_energy": -6.92, "intermolecular_energy": -8.71, "internal_energy": -1.68, "cluster_size": 7, "cluster_id": 5, "rank_in_cluster": 1}

>  <energy>  (28) 
-7.57

>  <cluster_rmsd>  (28) 
0.0

>  <cluster>  (28) 
2

$$$$

     RDKit          3D

 46 49  0  0  0  0  0  0  0  0999 V2000
  140.4210   73.3530  222.3610 O   0  0  0  0  0  0  0  0  0  0  0  0
  140.4330   72.0850  222.3910 C   0  0  0  0  0  0  0  0  0  0  0  0
  140.6720   71.3750  221.2050 N   0  0  0  0  0  0  0  0  0  0  0  0
  140.9060   72.0440  219.9510 C   0  0  0  0  0  0  0  0  0  0  0  0
  142.2380   71.6600  219.4100 C   0  0  0  0  0  0  0  0  0  0  0  0
  142.4770   70.5110  218.9540 O   0  0  0  0  0  0  0  0  0  0  0  0
  143.2540   72.6430  219.4180 N   0  0  0  0  0  0  0  0  0  0  0  0
  144.4570   72.7240  218.5790 C   0  0  0  0  0  0  0  0  0  0  0  0
  145.5480   73.2420  219.5040 C   0  0  2  0  0  0  0  0  0  0  0  0
  146.3330   72.1710  219.9550 O   0  0  0  0  0  0  0  0  0  0  0  0
  144.8160   73.9050  220.6410 C   0  0  0  0  0  0  0  0  0  0  0  0
  143.3480   73.8240  220.2760 C   0  0  1  0  0  0  0  0  0  0  0  0
  142.8770   75.0020  219.4590 C   0  0  0  0  0  0  0  0  0  0  0  0
  142.0200   76.0500  220.0920 C   0  0  0  0  0  0  0  0  0  0  0  0
  143.4340   76.3660  219.6550 C   0  0  0  0  0  0  0  0  0  0  0  0
  140.1980   71.3920  223.6440 C   0  0  0  0  0  0  0  0  0  0  0  0
  139.4610   70.2090  223.6570 C   0  0  0  0  0  0  0  0  0  0  0  0
  139.2460   69.5600  224.8550 C   0  0  0  0  0  0  0  0  0  0  0  0
  139.7820   70.1270  226.0080 C   0  0  0  0  0  0  0  0  0  0  0  0
  139.5390   69.4380  227.1940 C   0  0  0  0  0  0  0  0  0  0  0  0
  140.0610   69.9780  228.3590 C   0  0  0  0  0  0  0  0  0  0  0  0
  140.7810   71.1420  228.3100 C   0  0  0  0  0  0  0  0  0  0  0  0
  141.0210   71.8220  227.1390 C   0  0  0  0  0  0  0  0  0  0  0  0
  140.5020   71.2870  225.9750 C   0  0  0  0  0  0  0  0  0  0  0  0
  140.6970   71.8980  224.7910 N   0  0  0  0  0  0  0  0  0  0  0  0
  140.6830   70.3400  221.2230 H   0  0  0  0  0  0  0  0  0  0  0  0
  140.1243   71.7556  219.2329 H   0  0  0  0  0  0  0  0  0  0  0  0
  140.8817   73.1319  220.1121 H   0  0  0  0  0  0  0  0  0  0  0  0
  144.7221   71.7312  218.1864 H   0  0  0  0  0  0  0  0  0  0  0  0
  144.3094   73.3783  217.7072 H   0  0  0  0  0  0  0  0  0  0  0  0
  146.2309   73.9466  219.0068 H   0  0  0  0  0  0  0  0  0  0  0  0
  145.9470   71.9000  220.8380 H   0  0  0  0  0  0  0  0  0  0  0  0
  145.0079   73.3730  221.5845 H   0  0  0  0  0  0  0  0  0  0  0  0
  145.1442   74.9445  220.7880 H   0  0  0  0  0  0  0  0  0  0  0  0
  142.7371   73.7964  221.1903 H   0  0  0  0  0  0  0  0  0  0  0  0
  142.7869   74.3363  218.5880 H   0  0  0  0  0  0  0  0  0  0  0  0
  141.1652   76.4705  219.5421 H   0  0  0  0  0  0  0  0  0  0  0  0
  141.4539   76.1354  221.0313 H   0  0  0  0  0  0  0  0  0  0  0  0
  143.6093   77.0191  218.7874 H   0  0  0  0  0  0  0  0  0  0  0  0
  144.3272   76.7799  220.1458 H   0  0  0  0  0  0  0  0  0  0  0  0
  139.0549   69.7971  222.7213 H   0  0  0  0  0  0  0  0  0  0  0  0
  138.6694   68.6242  224.8980 H   0  0  0  0  0  0  0  0  0  0  0  0
  138.9572   68.5045  227.2056 H   0  0  0  0  0  0  0  0  0  0  0  0
  139.8971   69.4721  229.3219 H   0  0  0  0  0  0  0  0  0  0  0  0
  141.1849   71.5507  229.2480 H   0  0  0  0  0  0  0  0  0  0  0  0
  141.6032   72.7552  227.1291 H   0  0  0  0  0  0  0  0  0  0  0  0
  1  2  2  0
  2  3  1  0
  3  4  1  0
  4  5  1  0
  5  6  2  0
  5  7  1  0
  7  8  1  0
  8  9  1  0
  9 10  1  0
  9 11  1  0
 11 12  1  0
 12 13  1  0
 13 14  1  0
 14 15  1  0
  2 16  1  0
 16 17  2  0
 17 18  1  0
 18 19  2  0
 19 20  1  0
 20 21  2  0
 21 22  1  0
 22 23  2  0
 23 24  1  0
 24 25  2  0
 12  7  1  0
 15 13  1  0
 25 16  1  0
 24 19  1  0
  3 26  1  0
  4 27  1  0
  4 28  1  0
  8 29  1  0
  8 30  1  0
  9 31  1  6
 10 32  1  0
 11 33  1  0
 11 34  1  0
 12 35  1  1
 13 36  1  0
 14 37  1  0
 14 38  1  0
 15 39  1  0
 15 40  1  0
 17 41  1  0
 18 42  1  0
 20 43  1  0
 21 44  1  0
 22 45  1  0
 23 46  1  0
M  END
>  <smiles>  (29) 
O=C(NCC(=O)N1C[C@H](O)C[C@H]1C1CC1)c1ccc2ccccc2n1

>  <score_type>  (29) 
oracle

>  <origin>  (29) 
autodockgpu

>  <m_score__min__energy>  (29) 
-7.7800000000000002

>  <m_primary>  (29) 
energy

>  <rmsd>  (29) 
3.7065802495467017

>  <m_score__min__rmsd>  (29) 
3.7065802495467017

>  <meeko>  (29) 
{"free_energy": -7.77, "intermolecular_energy": -9.56, "internal_energy": -1.25, "cluster_size": 27, "cluster_id": 1, "rank_in_cluster": 2}

>  <energy>  (29) 
-7.52

>  <cluster_rmsd>  (29) 
0.14

>  <cluster>  (29) 
2

$$$$

     RDKit          3D

 46 49  0  0  0  0  0  0  0  0999 V2000
  140.3740   73.3720  222.4040 O   0  0  0  0  0  0  0  0  0  0  0  0
  140.4270   72.1050  222.4250 C   0  0  0  0  0  0  0  0  0  0  0  0
  140.6930   71.4110  221.2340 N   0  0  0  0  0  0  0  0  0  0  0  0
  140.9100   72.0970  219.9860 C   0  0  0  0  0  0  0  0  0  0  0  0
  142.2150   71.6880  219.4000 C   0  0  0  0  0  0  0  0  0  0  0  0
  142.4110   70.5400  218.9230 O   0  0  0  0  0  0  0  0  0  0  0  0
  143.2550   72.6460  219.3910 N   0  0  0  0  0  0  0  0  0  0  0  0
  144.4500   72.6920  218.5380 C   0  0  0  0  0  0  0  0  0  0  0  0
  145.5640   73.1880  219.4470 C   0  0  2  0  0  0  0  0  0  0  0  0
  146.3270   72.1010  219.8960 O   0  0  0  0  0  0  0  0  0  0  0  0
  144.8610   73.8760  220.5880 C   0  0  0  0  0  0  0  0  0  0  0  0
  143.3880   73.8290  220.2400 C   0  0  1  0  0  0  0  0  0  0  0  0
  142.9370   75.0130  219.4210 C   0  0  0  0  0  0  0  0  0  0  0  0
  141.9990   76.0140  220.0150 C   0  0  0  0  0  0  0  0  0  0  0  0
  143.4290   76.3900  219.6930 C   0  0  0  0  0  0  0  0  0  0  0  0
  140.2110   71.3950  223.6710 C   0  0  0  0  0  0  0  0  0  0  0  0
  139.4890   70.2020  223.6770 C   0  0  0  0  0  0  0  0  0  0  0  0
  139.2920   69.5380  224.8690 C   0  0  0  0  0  0  0  0  0  0  0  0
  139.8280   70.0990  226.0240 C   0  0  0  0  0  0  0  0  0  0  0  0
  139.6030   69.3940  227.2050 C   0  0  0  0  0  0  0  0  0  0  0  0
  140.1250   69.9280  228.3710 C   0  0  0  0  0  0  0  0  0  0  0  0
  140.8290   71.1030  228.3300 C   0  0  0  0  0  0  0  0  0  0  0  0
  141.0520   71.7990  227.1660 C   0  0  0  0  0  0  0  0  0  0  0  0
  140.5320   71.2700  225.9990 C   0  0  0  0  0  0  0  0  0  0  0  0
  140.7100   71.8960  224.8210 N   0  0  0  0  0  0  0  0  0  0  0  0
  140.7380   70.3770  221.2440 H   0  0  0  0  0  0  0  0  0  0  0  0
  140.1007   71.8433  219.2855 H   0  0  0  0  0  0  0  0  0  0  0  0
  140.9202   73.1819  220.1676 H   0  0  0  0  0  0  0  0  0  0  0  0
  144.6858   71.6906  218.1486 H   0  0  0  0  0  0  0  0  0  0  0  0
  144.3087   73.3447  217.6639 H   0  0  0  0  0  0  0  0  0  0  0  0
  146.2587   73.8721  218.9377 H   0  0  0  0  0  0  0  0  0  0  0  0
  145.9910   71.8900  220.8150 H   0  0  0  0  0  0  0  0  0  0  0  0
  145.0503   73.3453  221.5327 H   0  0  0  0  0  0  0  0  0  0  0  0
  145.2162   74.9081  220.7245 H   0  0  0  0  0  0  0  0  0  0  0  0
  142.7871   73.8220  221.1614 H   0  0  0  0  0  0  0  0  0  0  0  0
  142.9352   74.3692  218.5291 H   0  0  0  0  0  0  0  0  0  0  0  0
  141.1725   76.4207  219.4138 H   0  0  0  0  0  0  0  0  0  0  0  0
  141.3627   76.0538  220.9114 H   0  0  0  0  0  0  0  0  0  0  0  0
  143.6441   77.0729  218.8579 H   0  0  0  0  0  0  0  0  0  0  0  0
  144.2681   76.8200  220.2595 H   0  0  0  0  0  0  0  0  0  0  0  0
  139.0808   69.7949  222.7402 H   0  0  0  0  0  0  0  0  0  0  0  0
  138.7286   68.5940  224.9059 H   0  0  0  0  0  0  0  0  0  0  0  0
  139.0343   68.4524  227.2106 H   0  0  0  0  0  0  0  0  0  0  0  0
  139.9747   69.4095  229.3294 H   0  0  0  0  0  0  0  0  0  0  0  0
  141.2333   71.5068  229.2699 H   0  0  0  0  0  0  0  0  0  0  0  0
  141.6218   72.7399  227.1629 H   0  0  0  0  0  0  0  0  0  0  0  0
  1  2  2  0
  2  3  1  0
  3  4  1  0
  4  5  1  0
  5  6  2  0
  5  7  1  0
  7  8  1  0
  8  9  1  0
  9 10  1  0
  9 11  1  0
 11 12  1  0
 12 13  1  0
 13 14  1  0
 14 15  1  0
  2 16  1  0
 16 17  2  0
 17 18  1  0
 18 19  2  0
 19 20  1  0
 20 21  2  0
 21 22  1  0
 22 23  2  0
 23 24  1  0
 24 25  2  0
 12  7  1  0
 15 13  1  0
 25 16  1  0
 24 19  1  0
  3 26  1  0
  4 27  1  0
  4 28  1  0
  8 29  1  0
  8 30  1  0
  9 31  1  6
 10 32  1  0
 11 33  1  0
 11 34  1  0
 12 35  1  1
 13 36  1  0
 14 37  1  0
 14 38  1  0
 15 39  1  0
 15 40  1  0
 17 41  1  0
 18 42  1  0
 20 43  1  0
 21 44  1  0
 22 45  1  0
 23 46  1  0
M  END
>  <smiles>  (30) 
O=C(NCC(=O)N1C[C@H](O)C[C@H]1C1CC1)c1ccc2ccccc2n1

>  <score_type>  (30) 
oracle

>  <origin>  (30) 
autodockgpu

>  <m_score__min__energy>  (30) 
-7.7800000000000002

>  <m_primary>  (30) 
energy

>  <rmsd>  (30) 
3.7089339940918653

>  <m_score__min__rmsd>  (30) 
3.7089339940918653

>  <meeko>  (30) 
{"free_energy": -7.78, "intermolecular_energy": -9.57, "internal_energy": -1.24, "cluster_size": 27, "cluster_id": 1, "rank_in_cluster": 1}

>  <energy>  (30) 
-7.21

>  <cluster_rmsd>  (30) 
0.71

>  <cluster>  (30) 
2

$$$$

     RDKit          3D

 46 49  0  0  0  0  0  0  0  0999 V2000
  138.9540   75.0920  221.7880 O   0  0  0  0  0  0  0  0  0  0  0  0
  140.0970   75.6120  221.9680 C   0  0  0  0  0  0  0  0  0  0  0  0
  141.2440   74.8280  221.7710 N   0  0  0  0  0  0  0  0  0  0  0  0
  141.1630   73.4470  221.3710 C   0  0  0  0  0  0  0  0  0  0  0  0
  141.6430   73.2930  219.9710 C   0  0  0  0  0  0  0  0  0  0  0  0
  140.9140   72.8370  219.0520 O   0  0  0  0  0  0  0  0  0  0  0  0
  142.9730   73.6830  219.6910 N   0  0  0  0  0  0  0  0  0  0  0  0
  143.8960   73.1350  218.6880 C   0  0  0  0  0  0  0  0  0  0  0  0
  145.2590   73.1390  219.3630 C   0  0  2  0  0  0  0  0  0  0  0  0
  145.5480   71.8570  219.8510 O   0  0  0  0  0  0  0  0  0  0  0  0
  145.1390   74.1410  220.4820 C   0  0  0  0  0  0  0  0  0  0  0  0
  143.7530   74.7340  220.3430 C   0  0  1  0  0  0  0  0  0  0  0  0
  143.7140   75.9390  219.4360 C   0  0  0  0  0  0  0  0  0  0  0  0
  142.5760   76.1170  218.4840 C   0  0  0  0  0  0  0  0  0  0  0  0
  142.7580   77.0570  219.6560 C   0  0  0  0  0  0  0  0  0  0  0  0
  140.2010   77.0010  222.3720 C   0  0  0  0  0  0  0  0  0  0  0  0
  139.0460   77.7430  222.6170 C   0  0  0  0  0  0  0  0  0  0  0  0
  139.1590   79.0620  223.0010 C   0  0  0  0  0  0  0  0  0  0  0  0
  140.4380   79.5970  223.1260 C   0  0  0  0  0  0  0  0  0  0  0  0
  140.5040   80.9330  223.5150 C   0  0  0  0  0  0  0  0  0  0  0  0
  141.7640   81.4930  223.6490 C   0  0  0  0  0  0  0  0  0  0  0  0
  142.8780   80.7360  223.4000 C   0  0  0  0  0  0  0  0  0  0  0  0
  142.8140   79.4170  223.0160 C   0  0  0  0  0  0  0  0  0  0  0  0
  141.5590   78.8540  222.8820 C   0  0  0  0  0  0  0  0  0  0  0  0
  141.4180   77.5690  222.5090 N   0  0  0  0  0  0  0  0  0  0  0  0
  142.1800   75.2460  221.9160 H   0  0  0  0  0  0  0  0  0  0  0  0
  141.7882   72.8370  222.0395 H   0  0  0  0  0  0  0  0  0  0  0  0
  140.1162   73.1145  221.4322 H   0  0  0  0  0  0  0  0  0  0  0  0
  143.6040   72.1108  218.4127 H   0  0  0  0  0  0  0  0  0  0  0  0
  143.8935   73.7239  217.7589 H   0  0  0  0  0  0  0  0  0  0  0  0
  146.0757   73.4066  218.6765 H   0  0  0  0  0  0  0  0  0  0  0  0
  145.5460   71.9360  220.8490 H   0  0  0  0  0  0  0  0  0  0  0  0
  145.2491   73.6441  221.4572 H   0  0  0  0  0  0  0  0  0  0  0  0
  145.9215   74.9121  220.4266 H   0  0  0  0  0  0  0  0  0  0  0  0
  143.3855   75.0557  221.3286 H   0  0  0  0  0  0  0  0  0  0  0  0
  144.8089   75.8818  219.3470 H   0  0  0  0  0  0  0  0  0  0  0  0
  142.7637   76.4698  217.4591 H   0  0  0  0  0  0  0  0  0  0  0  0
  141.7604   75.4794  218.1121 H   0  0  0  0  0  0  0  0  0  0  0  0
  143.0765   78.0958  219.4845 H   0  0  0  0  0  0  0  0  0  0  0  0
  142.1272   77.3898  220.4935 H   0  0  0  0  0  0  0  0  0  0  0  0
  138.0544   77.2802  222.5049 H   0  0  0  0  0  0  0  0  0  0  0  0
  138.2665   79.6726  223.2024 H   0  0  0  0  0  0  0  0  0  0  0  0
  139.5933   81.5191  223.7078 H   0  0  0  0  0  0  0  0  0  0  0  0
  141.8697   82.5443  223.9550 H   0  0  0  0  0  0  0  0  0  0  0  0
  143.8673   81.2036  223.5121 H   0  0  0  0  0  0  0  0  0  0  0  0
  143.7260   78.8330  222.8231 H   0  0  0  0  0  0  0  0  0  0  0  0
  1  2  2  0
  2  3  1  0
  3  4  1  0
  4  5  1  0
  5  6  2  0
  5  7  1  0
  7  8  1  0
  8  9  1  0
  9 10  1  0
  9 11  1  0
 11 12  1  0
 12 13  1  0
 13 14  1  0
 14 15  1  0
  2 16  1  0
 16 17  2  0
 17 18  1  0
 18 19  2  0
 19 20  1  0
 20 21  2  0
 21 22  1  0
 22 23  2  0
 23 24  1  0
 24 25  2  0
 12  7  1  0
 15 13  1  0
 25 16  1  0
 24 19  1  0
  3 26  1  0
  4 27  1  0
  4 28  1  0
  8 29  1  0
  8 30  1  0
  9 31  1  6
 10 32  1  0
 11 33  1  0
 11 34  1  0
 12 35  1  1
 13 36  1  0
 14 37  1  0
 14 38  1  0
 15 39  1  0
 15 40  1  0
 17 41  1  0
 18 42  1  0
 20 43  1  0
 21 44  1  0
 22 45  1  0
 23 46  1  0
M  END
>  <smiles>  (31) 
O=C(NCC(=O)N1C[C@H](O)C[C@H]1C1CC1)c1ccc2ccccc2n1

>  <score_type>  (31) 
oracle

>  <origin>  (31) 
autodockgpu

>  <m_score__min__energy>  (31) 
-7.7800000000000002

>  <m_primary>  (31) 
energy

>  <rmsd>  (31) 
7.622594166071029

>  <m_score__min__rmsd>  (31) 
7.622594166071029

>  <meeko>  (31) 
{"free_energy": -6.8, "intermolecular_energy": -8.59, "internal_energy": -1.82, "cluster_size": 7, "cluster_id": 5, "rank_in_cluster": 4}

>  <energy>  (31) 
-7.12

>  <cluster_rmsd>  (31) 
1.11

>  <cluster>  (31) 
2

$$$$

     RDKit          3D

 46 49  0  0  0  0  0  0  0  0999 V2000
  140.5570   73.3040  222.3330 O   0  0  0  0  0  0  0  0  0  0  0  0
  140.4780   72.0380  222.3680 C   0  0  0  0  0  0  0  0  0  0  0  0
  140.6390   71.3090  221.1800 N   0  0  0  0  0  0  0  0  0  0  0  0
  140.8910   71.9560  219.9180 C   0  0  0  0  0  0  0  0  0  0  0  0
  142.2550   71.6110  219.4320 C   0  0  0  0  0  0  0  0  0  0  0  0
  142.5500   70.4640  219.0060 O   0  0  0  0  0  0  0  0  0  0  0  0
  143.2350   72.6300  219.4610 N   0  0  0  0  0  0  0  0  0  0  0  0
  144.4390   72.7650  218.6310 C   0  0  0  0  0  0  0  0  0  0  0  0
  145.5050   73.3080  219.5690 C   0  0  2  0  0  0  0  0  0  0  0  0
  146.3250   72.2600  220.0110 O   0  0  0  0  0  0  0  0  0  0  0  0
  144.7430   73.9300  220.7100 C   0  0  0  0  0  0  0  0  0  0  0  0
  143.2810   73.8010  220.3340 C   0  0  1  0  0  0  0  0  0  0  0  0
  142.7740   74.9720  219.5290 C   0  0  0  0  0  0  0  0  0  0  0  0
  141.9490   76.0280  220.1920 C   0  0  0  0  0  0  0  0  0  0  0  0
  143.3410   76.3380  219.6860 C   0  0  0  0  0  0  0  0  0  0  0  0
  140.2240   71.3680  223.6290 C   0  0  0  0  0  0  0  0  0  0  0  0
  139.4930   70.1800  223.6500 C   0  0  0  0  0  0  0  0  0  0  0  0
  139.2590   69.5530  224.8560 C   0  0  0  0  0  0  0  0  0  0  0  0
  139.7690   70.1450  226.0080 C   0  0  0  0  0  0  0  0  0  0  0  0
  139.5070   69.4770  227.2020 C   0  0  0  0  0  0  0  0  0  0  0  0
  140.0020   70.0420  228.3660 C   0  0  0  0  0  0  0  0  0  0  0  0
  140.7160   71.2110  228.3090 C   0  0  0  0  0  0  0  0  0  0  0  0
  140.9740   71.8700  227.1310 C   0  0  0  0  0  0  0  0  0  0  0  0
  140.4820   71.3090  225.9670 C   0  0  0  0  0  0  0  0  0  0  0  0
  140.6960   71.8990  224.7760 N   0  0  0  0  0  0  0  0  0  0  0  0
  140.5760   70.2760  221.2020 H   0  0  0  0  0  0  0  0  0  0  0  0
  140.1462   71.6202  219.1814 H   0  0  0  0  0  0  0  0  0  0  0  0
  140.8200   73.0457  220.0505 H   0  0  0  0  0  0  0  0  0  0  0  0
  144.7413   71.7877  218.2266 H   0  0  0  0  0  0  0  0  0  0  0  0
  144.2733   73.4258  217.7673 H   0  0  0  0  0  0  0  0  0  0  0  0
  146.1657   74.0425  219.0852 H   0  0  0  0  0  0  0  0  0  0  0  0
  145.8930   71.9050  220.8410 H   0  0  0  0  0  0  0  0  0  0  0  0
  144.9481   73.3932  221.6480 H   0  0  0  0  0  0  0  0  0  0  0  0
  145.0329   74.9786  220.8726 H   0  0  0  0  0  0  0  0  0  0  0  0
  142.6654   73.7392  221.2435 H   0  0  0  0  0  0  0  0  0  0  0  0
  142.6426   74.2982  218.6695 H   0  0  0  0  0  0  0  0  0  0  0  0
  141.0696   76.4446  219.6790 H   0  0  0  0  0  0  0  0  0  0  0  0
  141.4280   76.1231  221.1561 H   0  0  0  0  0  0  0  0  0  0  0  0
  143.4758   76.9829  218.8051 H   0  0  0  0  0  0  0  0  0  0  0  0
  144.2567   76.7552  220.1304 H   0  0  0  0  0  0  0  0  0  0  0  0
  139.1074   69.7480  222.7148 H   0  0  0  0  0  0  0  0  0  0  0  0
  138.6873   68.6146  224.9059 H   0  0  0  0  0  0  0  0  0  0  0  0
  138.9311   68.5400  227.2198 H   0  0  0  0  0  0  0  0  0  0  0  0
  139.8224   69.5532  229.3349 H   0  0  0  0  0  0  0  0  0  0  0  0
  141.0989   71.6400  229.2467 H   0  0  0  0  0  0  0  0  0  0  0  0
  141.5495   72.8073  227.1148 H   0  0  0  0  0  0  0  0  0  0  0  0
  1  2  2  0
  2  3  1  0
  3  4  1  0
  4  5  1  0
  5  6  2  0
  5  7  1  0
  7  8  1  0
  8  9  1  0
  9 10  1  0
  9 11  1  0
 11 12  1  0
 12 13  1  0
 13 14  1  0
 14 15  1  0
  2 16  1  0
 16 17  2  0
 17 18  1  0
 18 19  2  0
 19 20  1  0
 20 21  2  0
 21 22  1  0
 22 23  2  0
 23 24  1  0
 24 25  2  0
 12  7  1  0
 15 13  1  0
 25 16  1  0
 24 19  1  0
  3 26  1  0
  4 27  1  0
  4 28  1  0
  8 29  1  0
  8 30  1  0
  9 31  1  6
 10 32  1  0
 11 33  1  0
 11 34  1  0
 12 35  1  1
 13 36  1  0
 14 37  1  0
 14 38  1  0
 15 39  1  0
 15 40  1  0
 17 41  1  0
 18 42  1  0
 20 43  1  0
 21 44  1  0
 22 45  1  0
 23 46  1  0
M  END
>  <smiles>  (32) 
O=C(NCC(=O)N1C[C@H](O)C[C@H]1C1CC1)c1ccc2ccccc2n1

>  <score_type>  (32) 
oracle

>  <origin>  (32) 
autodockgpu

>  <m_score__min__energy>  (32) 
-7.7800000000000002

>  <m_primary>  (32) 
energy

>  <rmsd>  (32) 
3.6989535980418196

>  <m_score__min__rmsd>  (32) 
3.6989535980418196

>  <meeko>  (32) 
{"free_energy": -7.71, "intermolecular_energy": -9.5, "internal_energy": -1.27, "cluster_size": 27, "cluster_id": 1, "rank_in_cluster": 5}

>  <energy>  (32) 
-6.88

>  <cluster_rmsd>  (32) 
1.59

>  <cluster>  (32) 
2

$$$$

     RDKit          3D

 46 49  0  0  0  0  0  0  0  0999 V2000
  139.2230   74.7700  222.2870 O   0  0  0  0  0  0  0  0  0  0  0  0
  140.2570   75.4620  222.0420 C   0  0  0  0  0  0  0  0  0  0  0  0
  141.3750   74.8420  221.4640 N   0  0  0  0  0  0  0  0  0  0  0  0
  141.3830   73.4380  221.1390 C   0  0  0  0  0  0  0  0  0  0  0  0
  142.5680   73.1170  220.2980 C   0  0  0  0  0  0  0  0  0  0  0  0
  143.0330   71.9510  220.2040 O   0  0  0  0  0  0  0  0  0  0  0  0
  143.1730   74.1800  219.5890 N   0  0  0  0  0  0  0  0  0  0  0  0
  144.0120   75.2670  220.1090 C   0  0  0  0  0  0  0  0  0  0  0  0
  143.6030   76.4950  219.3100 C   0  0  2  0  0  0  0  0  0  0  0  0
  142.7060   77.2700  220.0600 O   0  0  0  0  0  0  0  0  0  0  0  0
  142.9560   75.9550  218.0630 C   0  0  0  0  0  0  0  0  0  0  0  0
  143.1030   74.4500  218.1530 C   0  0  1  0  0  0  0  0  0  0  0  0
  144.3890   73.9450  217.5460 C   0  0  0  0  0  0  0  0  0  0  0  0
  145.2120   72.9370  218.2800 C   0  0  0  0  0  0  0  0  0  0  0  0
  144.5090   72.5710  216.9910 C   0  0  0  0  0  0  0  0  0  0  0  0
  140.2690   76.8770  222.3620 C   0  0  0  0  0  0  0  0  0  0  0  0
  139.0660   77.5680  222.5040 C   0  0  0  0  0  0  0  0  0  0  0  0
  139.0930   78.9130  222.8090 C   0  0  0  0  0  0  0  0  0  0  0  0
  140.3350   79.5230  222.9600 C   0  0  0  0  0  0  0  0  0  0  0  0
  140.3120   80.8810  223.2670 C   0  0  0  0  0  0  0  0  0  0  0  0
  141.5340   81.5160  223.4240 C   0  0  0  0  0  0  0  0  0  0  0  0
  142.6970   80.8060  223.2760 C   0  0  0  0  0  0  0  0  0  0  0  0
  142.7190   79.4660  222.9740 C   0  0  0  0  0  0  0  0  0  0  0  0
  141.5030   78.8280  222.8170 C   0  0  0  0  0  0  0  0  0  0  0  0
  141.4470   77.5170  222.5200 N   0  0  0  0  0  0  0  0  0  0  0  0
  142.2220   75.4010  221.2610 H   0  0  0  0  0  0  0  0  0  0  0  0
  141.4250   72.8494  222.0674 H   0  0  0  0  0  0  0  0  0  0  0  0
  140.4672   73.1911  220.5818 H   0  0  0  0  0  0  0  0  0  0  0  0
  143.8228   75.4226  221.1814 H   0  0  0  0  0  0  0  0  0  0  0  0
  145.0848   75.0461  220.0078 H   0  0  0  0  0  0  0  0  0  0  0  0
  144.4539   77.1473  219.0640 H   0  0  0  0  0  0  0  0  0  0  0  0
  142.9590   77.1320  221.0180 H   0  0  0  0  0  0  0  0  0  0  0  0
  141.8932   76.2365  218.0280 H   0  0  0  0  0  0  0  0  0  0  0  0
  143.4232   76.3580  217.1523 H   0  0  0  0  0  0  0  0  0  0  0  0
  142.2758   73.9614  217.6173 H   0  0  0  0  0  0  0  0  0  0  0  0
  144.5643   74.9493  217.1328 H   0  0  0  0  0  0  0  0  0  0  0  0
  146.3077   73.0307  218.3038 H   0  0  0  0  0  0  0  0  0  0  0  0
  145.2270   72.5356  219.3040 H   0  0  0  0  0  0  0  0  0  0  0  0
  145.0932   72.3959  216.0756 H   0  0  0  0  0  0  0  0  0  0  0  0
  143.7983   71.7889  216.6858 H   0  0  0  0  0  0  0  0  0  0  0  0
  138.1063   77.0463  222.3742 H   0  0  0  0  0  0  0  0  0  0  0  0
  138.1617   79.4859  222.9292 H   0  0  0  0  0  0  0  0  0  0  0  0
  139.3638   81.4269  223.3802 H   0  0  0  0  0  0  0  0  0  0  0  0
  141.5704   82.5882  223.6670 H   0  0  0  0  0  0  0  0  0  0  0  0
  143.6545   81.3320  223.4046 H   0  0  0  0  0  0  0  0  0  0  0  0
  143.6682   78.9216  222.8614 H   0  0  0  0  0  0  0  0  0  0  0  0
  1  2  2  0
  2  3  1  0
  3  4  1  0
  4  5  1  0
  5  6  2  0
  5  7  1  0
  7  8  1  0
  8  9  1  0
  9 10  1  0
  9 11  1  0
 11 12  1  0
 12 13  1  0
 13 14  1  0
 14 15  1  0
  2 16  1  0
 16 17  2  0
 17 18  1  0
 18 19  2  0
 19 20  1  0
 20 21  2  0
 21 22  1  0
 22 23  2  0
 23 24  1  0
 24 25  2  0
 12  7  1  0
 15 13  1  0
 25 16  1  0
 24 19  1  0
  3 26  1  0
  4 27  1  0
  4 28  1  0
  8 29  1  0
  8 30  1  0
  9 31  1  6
 10 32  1  0
 11 33  1  0
 11 34  1  0
 12 35  1  6
 13 36  1  0
 14 37  1  0
 14 38  1  0
 15 39  1  0
 15 40  1  0
 17 41  1  0
 18 42  1  0
 20 43  1  0
 21 44  1  0
 22 45  1  0
 23 46  1  0
M  END
>  <smiles>  (33) 
O=C(NCC(=O)N1C[C@H](O)C[C@H]1C1CC1)c1ccc2ccccc2n1

>  <score_type>  (33) 
oracle

>  <origin>  (33) 
autodockgpu

>  <m_score__min__energy>  (33) 
-7.7800000000000002

>  <m_primary>  (33) 
energy

>  <rmsd>  (33) 
7.468249929498364

>  <m_score__min__rmsd>  (33) 
7.468249929498364

>  <meeko>  (33) 
{"free_energy": -6.01, "intermolecular_energy": -7.8, "internal_energy": -2.74, "cluster_size": 7, "cluster_id": 5, "rank_in_cluster": 6}

>  <energy>  (33) 
-7.4

>  <cluster_rmsd>  (33) 
0.0

>  <cluster>  (33) 
3

$$$$

     RDKit          3D

 46 49  0  0  0  0  0  0  0  0999 V2000
  140.6140   73.2920  222.3280 O   0  0  0  0  0  0  0  0  0  0  0  0
  140.5160   72.0280  222.3650 C   0  0  0  0  0  0  0  0  0  0  0  0
  140.6570   71.2960  221.1760 N   0  0  0  0  0  0  0  0  0  0  0  0
  140.9120   71.9370  219.9120 C   0  0  0  0  0  0  0  0  0  0  0  0
  142.2680   71.5740  219.4200 C   0  0  0  0  0  0  0  0  0  0  0  0
  142.5490   70.4190  219.0040 O   0  0  0  0  0  0  0  0  0  0  0  0
  143.2590   72.5820  219.4310 N   0  0  0  0  0  0  0  0  0  0  0  0
  144.4520   72.7030  218.5820 C   0  0  0  0  0  0  0  0  0  0  0  0
  145.5370   73.2380  219.5030 C   0  0  2  0  0  0  0  0  0  0  0  0
  146.3540   72.1830  219.9350 O   0  0  0  0  0  0  0  0  0  0  0  0
  144.7990   73.8710  220.6540 C   0  0  0  0  0  0  0  0  0  0  0  0
  143.3310   73.7560  220.3000 C   0  0  1  0  0  0  0  0  0  0  0  0
  142.8220   74.9300  219.5000 C   0  0  0  0  0  0  0  0  0  0  0  0
  141.9910   75.9790  220.1660 C   0  0  0  0  0  0  0  0  0  0  0  0
  143.3850   76.2960  219.6670 C   0  0  0  0  0  0  0  0  0  0  0  0
  140.2580   71.3630  223.6280 C   0  0  0  0  0  0  0  0  0  0  0  0
  139.5100   70.1860  223.6540 C   0  0  0  0  0  0  0  0  0  0  0  0
  139.2740   69.5640  224.8620 C   0  0  0  0  0  0  0  0  0  0  0  0
  139.7990   70.1490  226.0110 C   0  0  0  0  0  0  0  0  0  0  0  0
  139.5330   69.4860  227.2070 C   0  0  0  0  0  0  0  0  0  0  0  0
  140.0430   70.0450  228.3670 C   0  0  0  0  0  0  0  0  0  0  0  0
  140.7740   71.2030  228.3050 C   0  0  0  0  0  0  0  0  0  0  0  0
  141.0360   71.8570  227.1250 C   0  0  0  0  0  0  0  0  0  0  0  0
  140.5290   71.3030  225.9640 C   0  0  0  0  0  0  0  0  0  0  0  0
  140.7450   71.8880  224.7720 N   0  0  0  0  0  0  0  0  0  0  0  0
  140.5780   70.2640  221.2000 H   0  0  0  0  0  0  0  0  0  0  0  0
  140.1594   71.6097  219.1796 H   0  0  0  0  0  0  0  0  0  0  0  0
  140.8564   73.0277  220.0434 H   0  0  0  0  0  0  0  0  0  0  0  0
  144.7387   71.7218  218.1758 H   0  0  0  0  0  0  0  0  0  0  0  0
  144.2800   73.3628  217.7189 H   0  0  0  0  0  0  0  0  0  0  0  0
  146.1971   73.9651  219.0074 H   0  0  0  0  0  0  0  0  0  0  0  0
  145.9580   71.8660  220.7980 H   0  0  0  0  0  0  0  0  0  0  0  0
  145.0126   73.3345  221.5902 H   0  0  0  0  0  0  0  0  0  0  0  0
  145.1023   74.9168  220.8098 H   0  0  0  0  0  0  0  0  0  0  0  0
  142.7293   73.7032  221.2194 H   0  0  0  0  0  0  0  0  0  0  0  0
  142.6950   74.2610  218.6361 H   0  0  0  0  0  0  0  0  0  0  0  0
  141.1124   76.3961  219.6521 H   0  0  0  0  0  0  0  0  0  0  0  0
  141.4658   76.0667  221.1285 H   0  0  0  0  0  0  0  0  0  0  0  0
  143.5215   76.9464  218.7904 H   0  0  0  0  0  0  0  0  0  0  0  0
  144.2979   76.7130  220.1173 H   0  0  0  0  0  0  0  0  0  0  0  0
  139.1128   69.7587  222.7215 H   0  0  0  0  0  0  0  0  0  0  0  0
  138.6889   68.6341  224.9160 H   0  0  0  0  0  0  0  0  0  0  0  0
  138.9430   68.5579  227.2291 H   0  0  0  0  0  0  0  0  0  0  0  0
  139.8616   69.5600  229.3375 H   0  0  0  0  0  0  0  0  0  0  0  0
  141.1680   71.6272  229.2403 H   0  0  0  0  0  0  0  0  0  0  0  0
  141.6261   72.7851  227.1049 H   0  0  0  0  0  0  0  0  0  0  0  0
  1  2  2  0
  2  3  1  0
  3  4  1  0
  4  5  1  0
  5  6  2  0
  5  7  1  0
  7  8  1  0
  8  9  1  0
  9 10  1  0
  9 11  1  0
 11 12  1  0
 12 13  1  0
 13 14  1  0
 14 15  1  0
  2 16  1  0
 16 17  2  0
 17 18  1  0
 18 19  2  0
 19 20  1  0
 20 21  2  0
 21 22  1  0
 22 23  2  0
 23 24  1  0
 24 25  2  0
 12  7  1  0
 15 13  1  0
 25 16  1  0
 24 19  1  0
  3 26  1  0
  4 27  1  0
  4 28  1  0
  8 29  1  0
  8 30  1  0
  9 31  1  6
 10 32  1  0
 11 33  1  0
 11 34  1  0
 12 35  1  1
 13 36  1  0
 14 37  1  0
 14 38  1  0
 15 39  1  0
 15 40  1  0
 17 41  1  0
 18 42  1  0
 20 43  1  0
 21 44  1  0
 22 45  1  0
 23 46  1  0
M  END
>  <smiles>  (34) 
O=C(NCC(=O)N1C[C@H](O)C[C@H]1C1CC1)c1ccc2ccccc2n1

>  <score_type>  (34) 
oracle

>  <origin>  (34) 
autodockgpu

>  <m_score__min__energy>  (34) 
-7.7800000000000002

>  <m_primary>  (34) 
energy

>  <rmsd>  (34) 
3.7265120664823375

>  <m_score__min__rmsd>  (34) 
3.7265120664823375

>  <meeko>  (34) 
{"free_energy": -7.7, "intermolecular_energy": -9.49, "internal_energy": -1.27, "cluster_size": 27, "cluster_id": 1, "rank_in_cluster": 6}

>  <energy>  (34) 
-7.39

>  <cluster_rmsd>  (34) 
0.35

>  <cluster>  (34) 
3

$$$$

     RDKit          3D

 46 49  0  0  0  0  0  0  0  0999 V2000
  141.3890   72.3450  221.5550 O   0  0  0  0  0  0  0  0  0  0  0  0
  140.4990   72.5750  222.4290 C   0  0  0  0  0  0  0  0  0  0  0  0
  139.7530   73.7610  222.3510 N   0  0  0  0  0  0  0  0  0  0  0  0
  139.9660   74.7270  221.3040 C   0  0  0  0  0  0  0  0  0  0  0  0
  139.5660   76.0820  221.7710 C   0  0  0  0  0  0  0  0  0  0  0  0
  138.7690   76.2580  222.7290 O   0  0  0  0  0  0  0  0  0  0  0  0
  140.1180   77.1950  221.0950 N   0  0  0  0  0  0  0  0  0  0  0  0
  139.4980   78.0410  220.0670 C   0  0  0  0  0  0  0  0  0  0  0  0
  140.6170   78.3500  219.0850 C   0  0  2  0  0  0  0  0  0  0  0  0
  140.5210   77.4980  217.9750 O   0  0  0  0  0  0  0  0  0  0  0  0
  141.8900   78.1120  219.8540 C   0  0  0  0  0  0  0  0  0  0  0  0
  141.4510   77.7710  221.2630 C   0  0  1  0  0  0  0  0  0  0  0  0
  141.3000   78.9850  222.1450 C   0  0  0  0  0  0  0  0  0  0  0  0
  141.5170   78.8650  223.6190 C   0  0  0  0  0  0  0  0  0  0  0  0
  142.4740   79.6610  222.7580 C   0  0  0  0  0  0  0  0  0  0  0  0
  140.2690   71.6150  223.4920 C   0  0  0  0  0  0  0  0  0  0  0  0
  139.6080   70.4180  223.2170 C   0  0  0  0  0  0  0  0  0  0  0  0
  139.3960   69.5150  224.2370 C   0  0  0  0  0  0  0  0  0  0  0  0
  139.8570   69.8470  225.5080 C   0  0  0  0  0  0  0  0  0  0  0  0
  139.6200   68.9050  226.5070 C   0  0  0  0  0  0  0  0  0  0  0  0
  140.0680   69.2070  227.7820 C   0  0  0  0  0  0  0  0  0  0  0  0
  140.7130   70.3930  228.0170 C   0  0  0  0  0  0  0  0  0  0  0  0
  140.9470   71.3220  227.0320 C   0  0  0  0  0  0  0  0  0  0  0  0
  140.5030   71.0250  225.7580 C   0  0  0  0  0  0  0  0  0  0  0  0
  140.6960   71.8880  224.7430 N   0  0  0  0  0  0  0  0  0  0  0  0
  139.0250   73.9540  223.0610 H   0  0  0  0  0  0  0  0  0  0  0  0
  141.0309   74.7365  221.0286 H   0  0  0  0  0  0  0  0  0  0  0  0
  139.3566   74.4522  220.4305 H   0  0  0  0  0  0  0  0  0  0  0  0
  138.6804   77.5030  219.5649 H   0  0  0  0  0  0  0  0  0  0  0  0
  139.0583   78.9546  220.4935 H   0  0  0  0  0  0  0  0  0  0  0  0
  140.5737   79.3786  218.6975 H   0  0  0  0  0  0  0  0  0  0  0  0
  140.6330   78.0820  217.1710 H   0  0  0  0  0  0  0  0  0  0  0  0
  142.4549   77.2769  219.4142 H   0  0  0  0  0  0  0  0  0  0  0  0
  142.5511   78.9910  219.8329 H   0  0  0  0  0  0  0  0  0  0  0  0
  142.1957   77.1151  221.7377 H   0  0  0  0  0  0  0  0  0  0  0  0
  140.4781   79.3270  221.4988 H   0  0  0  0  0  0  0  0  0  0  0  0
  140.8447   79.3816  224.3199 H   0  0  0  0  0  0  0  0  0  0  0  0
  141.6131   78.0314  224.3302 H   0  0  0  0  0  0  0  0  0  0  0  0
  142.5004   80.7581  222.8335 H   0  0  0  0  0  0  0  0  0  0  0  0
  143.5599   79.6479  222.5830 H   0  0  0  0  0  0  0  0  0  0  0  0
  139.2596   70.1968  222.1973 H   0  0  0  0  0  0  0  0  0  0  0  0
  138.8787   68.5619  224.0523 H   0  0  0  0  0  0  0  0  0  0  0  0
  139.0986   67.9606  226.2918 H   0  0  0  0  0  0  0  0  0  0  0  0
  139.9063   68.4956  228.6053 H   0  0  0  0  0  0  0  0  0  0  0  0
  141.0584   70.6107  229.0384 H   0  0  0  0  0  0  0  0  0  0  0  0
  141.4679   72.2661  227.2496 H   0  0  0  0  0  0  0  0  0  0  0  0
  1  2  2  0
  2  3  1  0
  3  4  1  0
  4  5  1  0
  5  6  2  0
  5  7  1  0
  7  8  1  0
  8  9  1  0
  9 10  1  0
  9 11  1  0
 11 12  1  0
 12 13  1  0
 13 14  1  0
 14 15  1  0
  2 16  1  0
 16 17  2  0
 17 18  1  0
 18 19  2  0
 19 20  1  0
 20 21  2  0
 21 22  1  0
 22 23  2  0
 23 24  1  0
 24 25  2  0
 12  7  1  0
 15 13  1  0
 25 16  1  0
 24 19  1  0
  3 26  1  0
  4 27  1  0
  4 28  1  0
  8 29  1  0
  8 30  1  0
  9 31  1  6
 10 32  1  0
 11 33  1  0
 11 34  1  0
 12 35  1  1
 13 36  1  0
 14 37  1  0
 14 38  1  0
 15 39  1  0
 15 40  1  0
 17 41  1  0
 18 42  1  0
 20 43  1  0
 21 44  1  0
 22 45  1  0
 23 46  1  0
M  END
>  <smiles>  (35) 
O=C(NCC(=O)N1C[C@H](O)C[C@H]1C1CC1)c1ccc2ccccc2n1

>  <score_type>  (35) 
oracle

>  <origin>  (35) 
autodockgpu

>  <m_score__min__energy>  (35) 
-7.7800000000000002

>  <m_primary>  (35) 
energy

>  <rmsd>  (35) 
2.1042807930563554

>  <m_score__min__rmsd>  (35) 
2.1042807930563554

>  <meeko>  (35) 
{"free_energy": -7.12, "intermolecular_energy": -8.91, "internal_energy": -1.42, "cluster_size": 5, "cluster_id": 2, "rank_in_cluster": 4}

>  <energy>  (35) 
-7.31

>  <cluster_rmsd>  (35) 
0.4

>  <cluster>  (35) 
3

$$$$

     RDKit          3D

 46 49  0  0  0  0  0  0  0  0999 V2000
  140.3550   73.0570  222.7390 O   0  0  0  0  0  0  0  0  0  0  0  0
  140.4980   71.8020  222.8520 C   0  0  0  0  0  0  0  0  0  0  0  0
  140.7010   71.0300  221.6980 N   0  0  0  0  0  0  0  0  0  0  0  0
  140.7530   71.6210  220.3860 C   0  0  0  0  0  0  0  0  0  0  0  0
  142.0540   71.3060  219.7360 C   0  0  0  0  0  0  0  0  0  0  0  0
  142.2980   70.1830  219.2220 O   0  0  0  0  0  0  0  0  0  0  0  0
  143.0340   72.3250  219.7090 N   0  0  0  0  0  0  0  0  0  0  0  0
  144.0710   72.5720  218.6990 C   0  0  0  0  0  0  0  0  0  0  0  0
  145.2930   73.0120  219.4890 C   0  0  2  0  0  0  0  0  0  0  0  0
  146.1690   71.9280  219.6490 O   0  0  0  0  0  0  0  0  0  0  0  0
  144.7540   73.4850  220.8140 C   0  0  0  0  0  0  0  0  0  0  0  0
  143.2480   73.3850  220.6930 C   0  0  1  0  0  0  0  0  0  0  0  0
  142.6160   74.6370  220.1380 C   0  0  0  0  0  0  0  0  0  0  0  0
  141.1780   74.6260  219.7290 C   0  0  0  0  0  0  0  0  0  0  0  0
  141.6370   75.4370  220.9220 C   0  0  0  0  0  0  0  0  0  0  0  0
  140.4480   71.1870  224.1650 C   0  0  0  0  0  0  0  0  0  0  0  0
  140.8100   71.9230  225.2920 C   0  0  0  0  0  0  0  0  0  0  0  0
  140.7580   71.3260  226.5340 C   0  0  0  0  0  0  0  0  0  0  0  0
  140.3410   69.9990  226.6020 C   0  0  0  0  0  0  0  0  0  0  0  0
  140.3050   69.4380  227.8770 C   0  0  0  0  0  0  0  0  0  0  0  0
  139.8940   68.1190  227.9760 C   0  0  0  0  0  0  0  0  0  0  0  0
  139.5450   67.4240  226.8480 C   0  0  0  0  0  0  0  0  0  0  0  0
  139.5810   67.9780  225.5900 C   0  0  0  0  0  0  0  0  0  0  0  0
  139.9900   69.2950  225.4860 C   0  0  0  0  0  0  0  0  0  0  0  0
  140.0500   69.9030  224.2870 N   0  0  0  0  0  0  0  0  0  0  0  0
  140.8180   70.0050  221.7840 H   0  0  0  0  0  0  0  0  0  0  0  0
  139.9329   71.2191  219.7729 H   0  0  0  0  0  0  0  0  0  0  0  0
  140.6506   72.7124  220.4778 H   0  0  0  0  0  0  0  0  0  0  0  0
  144.2864   71.6534  218.1335 H   0  0  0  0  0  0  0  0  0  0  0  0
  143.7598   73.3288  217.9639 H   0  0  0  0  0  0  0  0  0  0  0  0
  145.8635   73.8066  218.9858 H   0  0  0  0  0  0  0  0  0  0  0  0
  145.9450   71.5230  220.5360 H   0  0  0  0  0  0  0  0  0  0  0  0
  145.1183   72.8427  221.6293 H   0  0  0  0  0  0  0  0  0  0  0  0
  145.0790   74.5100  221.0460 H   0  0  0  0  0  0  0  0  0  0  0  0
  142.8052   73.2085  221.6844 H   0  0  0  0  0  0  0  0  0  0  0  0
  143.5698   74.8750  219.6445 H   0  0  0  0  0  0  0  0  0  0  0  0
  140.8630   75.1330  218.8051 H   0  0  0  0  0  0  0  0  0  0  0  0
  140.4196   73.8480  219.5572 H   0  0  0  0  0  0  0  0  0  0  0  0
  141.6541   76.5355  220.8674 H   0  0  0  0  0  0  0  0  0  0  0  0
  141.3492   75.4951  221.9821 H   0  0  0  0  0  0  0  0  0  0  0  0
  141.1339   72.9694  225.1917 H   0  0  0  0  0  0  0  0  0  0  0  0
  141.0370   71.8804  227.4422 H   0  0  0  0  0  0  0  0  0  0  0  0
  140.5908   70.0179  228.7669 H   0  0  0  0  0  0  0  0  0  0  0  0
  139.8478   67.6296  228.9600 H   0  0  0  0  0  0  0  0  0  0  0  0
  139.2221   66.3778  226.9533 H   0  0  0  0  0  0  0  0  0  0  0  0
  139.2956   67.3963  224.7010 H   0  0  0  0  0  0  0  0  0  0  0  0
  1  2  2  0
  2  3  1  0
  3  4  1  0
  4  5  1  0
  5  6  2  0
  5  7  1  0
  7  8  1  0
  8  9  1  0
  9 10  1  0
  9 11  1  0
 11 12  1  0
 12 13  1  0
 13 14  1  0
 14 15  1  0
  2 16  1  0
 16 17  2  0
 17 18  1  0
 18 19  2  0
 19 20  1  0
 20 21  2  0
 21 22  1  0
 22 23  2  0
 23 24  1  0
 24 25  2  0
 12  7  1  0
 15 13  1  0
 25 16  1  0
 24 19  1  0
  3 26  1  0
  4 27  1  0
  4 28  1  0
  8 29  1  0
  8 30  1  0
  9 31  1  6
 10 32  1  0
 11 33  1  0
 11 34  1  0
 12 35  1  1
 13 36  1  0
 14 37  1  0
 14 38  1  0
 15 39  1  0
 15 40  1  0
 17 41  1  0
 18 42  1  0
 20 43  1  0
 21 44  1  0
 22 45  1  0
 23 46  1  0
M  END
>  <smiles>  (36) 
O=C(NCC(=O)N1C[C@H](O)C[C@H]1C1CC1)c1ccc2ccccc2n1

>  <score_type>  (36) 
oracle

>  <origin>  (36) 
autodockgpu

>  <m_score__min__energy>  (36) 
-7.7800000000000002

>  <m_primary>  (36) 
energy

>  <rmsd>  (36) 
4.341647518874495

>  <m_score__min__rmsd>  (36) 
4.341647518874495

>  <meeko>  (36) 
{"free_energy": -7.15, "intermolecular_energy": -8.94, "internal_energy": -1.52, "cluster_size": 27, "cluster_id": 1, "rank_in_cluster": 9}

>  <energy>  (36) 
-7.3

>  <cluster_rmsd>  (36) 
0.41

>  <cluster>  (36) 
3

$$$$

     RDKit          3D

 46 49  0  0  0  0  0  0  0  0999 V2000
  141.3440   72.2530  221.8610 O   0  0  0  0  0  0  0  0  0  0  0  0
  140.3240   72.3640  222.6060 C   0  0  0  0  0  0  0  0  0  0  0  0
  139.3530   73.3280  222.2970 N   0  0  0  0  0  0  0  0  0  0  0  0
  139.4800   74.1980  221.1550 C   0  0  0  0  0  0  0  0  0  0  0  0
  140.6400   75.1120  221.3370 C   0  0  0  0  0  0  0  0  0  0  0  0
  140.6870   75.9680  222.2580 O   0  0  0  0  0  0  0  0  0  0  0  0
  141.7150   74.9910  220.4270 N   0  0  0  0  0  0  0  0  0  0  0  0
  142.1050   73.8270  219.6210 C   0  0  0  0  0  0  0  0  0  0  0  0
  143.6260   73.8330  219.6310 C   0  0  2  0  0  0  0  0  0  0  0  0
  144.0960   72.9180  220.5840 O   0  0  0  0  0  0  0  0  0  0  0  0
  144.0100   75.2460  219.9870 C   0  0  0  0  0  0  0  0  0  0  0  0
  142.7040   76.0080  220.0710 C   0  0  1  0  0  0  0  0  0  0  0  0
  142.2770   76.5960  218.7500 C   0  0  0  0  0  0  0  0  0  0  0  0
  141.4640   77.8500  218.7220 C   0  0  0  0  0  0  0  0  0  0  0  0
  142.8880   77.8390  218.2090 C   0  0  0  0  0  0  0  0  0  0  0  0
  140.1770   71.4980  223.7610 C   0  0  0  0  0  0  0  0  0  0  0  0
  139.5210   70.2740  223.6340 C   0  0  0  0  0  0  0  0  0  0  0  0
  139.3900   69.4610  224.7400 C   0  0  0  0  0  0  0  0  0  0  0  0
  139.9240   69.9090  225.9450 C   0  0  0  0  0  0  0  0  0  0  0  0
  139.7660   69.0550  227.0340 C   0  0  0  0  0  0  0  0  0  0  0  0
  140.2880   69.4740  228.2480 C   0  0  0  0  0  0  0  0  0  0  0  0
  140.9260   70.6830  228.3370 C   0  0  0  0  0  0  0  0  0  0  0  0
  141.0810   71.5250  227.2620 C   0  0  0  0  0  0  0  0  0  0  0  0
  140.5630   71.1120  226.0490 C   0  0  0  0  0  0  0  0  0  0  0  0
  140.6770   71.8850  224.9530 N   0  0  0  0  0  0  0  0  0  0  0  0
  138.5170   73.4240  222.9000 H   0  0  0  0  0  0  0  0  0  0  0  0
  139.6329   73.5913  220.2503 H   0  0  0  0  0  0  0  0  0  0  0  0
  138.5622   74.7958  221.0531 H   0  0  0  0  0  0  0  0  0  0  0  0
  141.7191   72.8996  220.0692 H   0  0  0  0  0  0  0  0  0  0  0  0
  141.6983   73.8764  218.6001 H   0  0  0  0  0  0  0  0  0  0  0  0
  144.0612   73.5345  218.6658 H   0  0  0  0  0  0  0  0  0  0  0  0
  143.3210   72.7280  221.1880 H   0  0  0  0  0  0  0  0  0  0  0  0
  144.5330   75.2707  220.9544 H   0  0  0  0  0  0  0  0  0  0  0  0
  144.6925   75.6842  219.2440 H   0  0  0  0  0  0  0  0  0  0  0  0
  142.8041   76.8422  220.7811 H   0  0  0  0  0  0  0  0  0  0  0  0
  142.1576   75.5752  218.3578 H   0  0  0  0  0  0  0  0  0  0  0  0
  140.6244   77.9480  218.0182 H   0  0  0  0  0  0  0  0  0  0  0  0
  140.9050   78.4367  219.4659 H   0  0  0  0  0  0  0  0  0  0  0  0
  143.0857   77.9314  217.1309 H   0  0  0  0  0  0  0  0  0  0  0  0
  143.7984   78.4175  218.4245 H   0  0  0  0  0  0  0  0  0  0  0  0
  139.1124   69.9604  222.6620 H   0  0  0  0  0  0  0  0  0  0  0  0
  138.8796   68.4890  224.6723 H   0  0  0  0  0  0  0  0  0  0  0  0
  139.2490   68.0891  226.9349 H   0  0  0  0  0  0  0  0  0  0  0  0
  140.1900   68.8363  229.1389 H   0  0  0  0  0  0  0  0  0  0  0  0
  141.3318   70.9933  229.3112 H   0  0  0  0  0  0  0  0  0  0  0  0
  141.5976   72.4909  227.3631 H   0  0  0  0  0  0  0  0  0  0  0  0
  1  2  2  0
  2  3  1  0
  3  4  1  0
  4  5  1  0
  5  6  2  0
  5  7  1  0
  7  8  1  0
  8  9  1  0
  9 10  1  0
  9 11  1  0
 11 12  1  0
 12 13  1  0
 13 14  1  0
 14 15  1  0
  2 16  1  0
 16 17  2  0
 17 18  1  0
 18 19  2  0
 19 20  1  0
 20 21  2  0
 21 22  1  0
 22 23  2  0
 23 24  1  0
 24 25  2  0
 12  7  1  0
 15 13  1  0
 25 16  1  0
 24 19  1  0
  3 26  1  0
  4 27  1  0
  4 28  1  0
  8 29  1  0
  8 30  1  0
  9 31  1  6
 10 32  1  0
 11 33  1  0
 11 34  1  0
 12 35  1  1
 13 36  1  0
 14 37  1  0
 14 38  1  0
 15 39  1  0
 15 40  1  0
 17 41  1  0
 18 42  1  0
 20 43  1  0
 21 44  1  0
 22 45  1  0
 23 46  1  0
M  END
>  <smiles>  (37) 
O=C(NCC(=O)N1C[C@H](O)C[C@H]1C1CC1)c1ccc2ccccc2n1

>  <score_type>  (37) 
oracle

>  <origin>  (37) 
autodockgpu

>  <m_score__min__energy>  (37) 
-7.7800000000000002

>  <m_primary>  (37) 
energy

>  <rmsd>  (37) 
2.337395584063625

>  <m_score__min__rmsd>  (37) 
2.337395584063625

>  <meeko>  (37) 
{"free_energy": -6.95, "intermolecular_energy": -8.74, "internal_energy": -1.85, "cluster_size": 27, "cluster_id": 1, "rank_in_cluster": 13}

>  <energy>  (37) 
-7.29

>  <cluster_rmsd>  (37) 
0.53

>  <cluster>  (37) 
3

$$$$

     RDKit          3D

 46 49  0  0  0  0  0  0  0  0999 V2000
  138.0250   74.4710  222.0600 O   0  0  0  0  0  0  0  0  0  0  0  0
  139.1410   75.0590  221.9270 C   0  0  0  0  0  0  0  0  0  0  0  0
  139.2070   76.4500  222.0950 N   0  0  0  0  0  0  0  0  0  0  0  0
  138.0420   77.2340  222.4140 C   0  0  0  0  0  0  0  0  0  0  0  0
  138.4420   78.6240  222.7620 C   0  0  0  0  0  0  0  0  0  0  0  0
  137.6520   79.4390  223.3050 O   0  0  0  0  0  0  0  0  0  0  0  0
  139.7670   79.0170  222.4610 N   0  0  0  0  0  0  0  0  0  0  0  0
  140.3780   79.2400  221.1440 C   0  0  0  0  0  0  0  0  0  0  0  0
  141.7940   78.7000  221.2710 C   0  0  2  0  0  0  0  0  0  0  0  0
  141.8600   77.4120  220.7190 O   0  0  0  0  0  0  0  0  0  0  0  0
  142.0750   78.6800  222.7510 C   0  0  0  0  0  0  0  0  0  0  0  0
  140.8530   79.2940  223.4000 C   0  0  1  0  0  0  0  0  0  0  0  0
  140.9470   80.7930  223.5360 C   0  0  0  0  0  0  0  0  0  0  0  0
  142.1890   81.4130  224.0900 C   0  0  0  0  0  0  0  0  0  0  0  0
  141.8060   81.6110  222.6390 C   0  0  0  0  0  0  0  0  0  0  0  0
  140.3270   74.2870  221.6040 C   0  0  0  0  0  0  0  0  0  0  0  0
  140.3210   72.9020  221.7670 C   0  0  0  0  0  0  0  0  0  0  0  0
  141.4540   72.1810  221.4560 C   0  0  0  0  0  0  0  0  0  0  0  0
  142.5640   72.8810  220.9900 C   0  0  0  0  0  0  0  0  0  0  0  0
  143.6860   72.1120  220.6900 C   0  0  0  0  0  0  0  0  0  0  0  0
  144.8070   72.7800  220.2240 C   0  0  0  0  0  0  0  0  0  0  0  0
  144.7780   74.1420  220.0770 C   0  0  0  0  0  0  0  0  0  0  0  0
  143.6710   74.9010  220.3730 C   0  0  0  0  0  0  0  0  0  0  0  0
  142.5510   74.2380  220.8380 C   0  0  0  0  0  0  0  0  0  0  0  0
  141.4300   74.9160  221.1480 N   0  0  0  0  0  0  0  0  0  0  0  0
  140.1150   76.9350  221.9880 H   0  0  0  0  0  0  0  0  0  0  0  0
  137.3687   77.2559  221.5444 H   0  0  0  0  0  0  0  0  0  0  0  0
  137.5272   76.7811  223.2741 H   0  0  0  0  0  0  0  0  0  0  0  0
  139.8251   78.6959  220.3641 H   0  0  0  0  0  0  0  0  0  0  0  0
  140.3647   80.3017  220.8566 H   0  0  0  0  0  0  0  0  0  0  0  0
  142.5344   79.3117  220.7346 H   0  0  0  0  0  0  0  0  0  0  0  0
  142.2220   76.8220  221.4410 H   0  0  0  0  0  0  0  0  0  0  0  0
  142.2192   77.6474  223.1015 H   0  0  0  0  0  0  0  0  0  0  0  0
  142.9925   79.2329  223.0009 H   0  0  0  0  0  0  0  0  0  0  0  0
  140.7221   78.8825  224.4117 H   0  0  0  0  0  0  0  0  0  0  0  0
  139.8775   80.8161  223.7923 H   0  0  0  0  0  0  0  0  0  0  0  0
  142.1187   82.2512  224.7988 H   0  0  0  0  0  0  0  0  0  0  0  0
  143.0785   81.0426  224.6207 H   0  0  0  0  0  0  0  0  0  0  0  0
  141.4586   82.5948  222.2904 H   0  0  0  0  0  0  0  0  0  0  0  0
  142.3035   81.4452  221.6720 H   0  0  0  0  0  0  0  0  0  0  0  0
  139.4215   72.3902  222.1399 H   0  0  0  0  0  0  0  0  0  0  0  0
  141.4805   71.0875  221.5722 H   0  0  0  0  0  0  0  0  0  0  0  0
  143.6823   71.0195  220.8178 H   0  0  0  0  0  0  0  0  0  0  0  0
  145.7185   72.2179  219.9725 H   0  0  0  0  0  0  0  0  0  0  0  0
  145.6802   74.6502  219.7058 H   0  0  0  0  0  0  0  0  0  0  0  0
  143.6763   75.9935  220.2448 H   0  0  0  0  0  0  0  0  0  0  0  0
  1  2  2  0
  2  3  1  0
  3  4  1  0
  4  5  1  0
  5  6  2  0
  5  7  1  0
  7  8  1  0
  8  9  1  0
  9 10  1  0
  9 11  1  0
 11 12  1  0
 12 13  1  0
 13 14  1  0
 14 15  1  0
  2 16  1  0
 16 17  2  0
 17 18  1  0
 18 19  2  0
 19 20  1  0
 20 21  2  0
 21 22  1  0
 22 23  2  0
 23 24  1  0
 24 25  2  0
 12  7  1  0
 15 13  1  0
 25 16  1  0
 24 19  1  0
  3 26  1  0
  4 27  1  0
  4 28  1  0
  8 29  1  0
  8 30  1  0
  9 31  1  6
 10 32  1  0
 11 33  1  0
 11 34  1  0
 12 35  1  1
 13 36  1  0
 14 37  1  0
 14 38  1  0
 15 39  1  0
 15 40  1  0
 17 41  1  0
 18 42  1  0
 20 43  1  0
 21 44  1  0
 22 45  1  0
 23 46  1  0
M  END
>  <smiles>  (38) 
O=C(NCC(=O)N1C[C@H](O)C[C@H]1C1CC1)c1ccc2ccccc2n1

>  <score_type>  (38) 
oracle

>  <origin>  (38) 
autodockgpu

>  <m_score__min__energy>  (38) 
-7.7800000000000002

>  <m_primary>  (38) 
energy

>  <rmsd>  (38) 
5.808202925150572

>  <m_score__min__rmsd>  (38) 
5.808202925150572

>  <meeko>  (38) 
{"free_energy": -5.82, "intermolecular_energy": -7.61, "internal_energy": -2.82, "cluster_size": 3, "cluster_id": 6, "rank_in_cluster": 1}

>  <energy>  (38) 
-7.25

>  <cluster_rmsd>  (38) 
0.33

>  <cluster>  (38) 
3

$$$$

     RDKit          3D

 46 49  0  0  0  0  0  0  0  0999 V2000
  139.0230   74.8900  221.7980 O   0  0  0  0  0  0  0  0  0  0  0  0
  140.1370   75.4760  221.9580 C   0  0  0  0  0  0  0  0  0  0  0  0
  141.3240   74.7470  221.7910 N   0  0  0  0  0  0  0  0  0  0  0  0
  141.3170   73.3490  221.4420 C   0  0  0  0  0  0  0  0  0  0  0  0
  141.8240   73.1670  220.0550 C   0  0  0  0  0  0  0  0  0  0  0  0
  141.1400   72.6170  219.1530 O   0  0  0  0  0  0  0  0  0  0  0  0
  143.1260   73.6390  219.7690 N   0  0  0  0  0  0  0  0  0  0  0  0
  144.0680   73.1640  218.7480 C   0  0  0  0  0  0  0  0  0  0  0  0
  145.4350   73.2370  219.4100 C   0  0  2  0  0  0  0  0  0  0  0  0
  145.8050   71.9660  219.8730 O   0  0  0  0  0  0  0  0  0  0  0  0
  145.2690   74.2110  220.5470 C   0  0  0  0  0  0  0  0  0  0  0  0
  143.8490   74.7240  220.4320 C   0  0  1  0  0  0  0  0  0  0  0  0
  143.7290   75.9390  219.5460 C   0  0  0  0  0  0  0  0  0  0  0  0
  142.6220   76.0250  218.5460 C   0  0  0  0  0  0  0  0  0  0  0  0
  142.6580   76.9520  219.7430 C   0  0  0  0  0  0  0  0  0  0  0  0
  140.1670   76.8830  222.3100 C   0  0  0  0  0  0  0  0  0  0  0  0
  138.9740   77.5970  222.4210 C   0  0  0  0  0  0  0  0  0  0  0  0
  139.0170   78.9340  222.7560 C   0  0  0  0  0  0  0  0  0  0  0  0
  140.2650   79.5130  222.9700 C   0  0  0  0  0  0  0  0  0  0  0  0
  140.2590   80.8640  223.3060 C   0  0  0  0  0  0  0  0  0  0  0  0
  141.4870   81.4680  223.5250 C   0  0  0  0  0  0  0  0  0  0  0  0
  142.6390   80.7360  223.4080 C   0  0  0  0  0  0  0  0  0  0  0  0
  142.6450   79.4030  223.0770 C   0  0  0  0  0  0  0  0  0  0  0  0
  141.4220   78.7960  222.8570 C   0  0  0  0  0  0  0  0  0  0  0  0
  141.3510   77.4920  222.5290 N   0  0  0  0  0  0  0  0  0  0  0  0
  142.2360   75.2190  221.9200 H   0  0  0  0  0  0  0  0  0  0  0  0
  141.9619   72.7961  222.1408 H   0  0  0  0  0  0  0  0  0  0  0  0
  140.2871   72.9674  221.5024 H   0  0  0  0  0  0  0  0  0  0  0  0
  143.8339   72.1293  218.4573 H   0  0  0  0  0  0  0  0  0  0  0  0
  144.0208   73.7673  217.8294 H   0  0  0  0  0  0  0  0  0  0  0  0
  146.2268   73.5639  218.7199 H   0  0  0  0  0  0  0  0  0  0  0  0
  145.4970   71.9200  220.8240 H   0  0  0  0  0  0  0  0  0  0  0  0
  145.4186   73.7051  221.5122 H   0  0  0  0  0  0  0  0  0  0  0  0
  146.0045   75.0274  220.4973 H   0  0  0  0  0  0  0  0  0  0  0  0
  143.4738   75.0076  221.4264 H   0  0  0  0  0  0  0  0  0  0  0  0
  144.8270   75.9921  219.5058 H   0  0  0  0  0  0  0  0  0  0  0  0
  142.8184   76.4178  217.5375 H   0  0  0  0  0  0  0  0  0  0  0  0
  141.8912   75.3186  218.1254 H   0  0  0  0  0  0  0  0  0  0  0  0
  142.8787   78.0208  219.6055 H   0  0  0  0  0  0  0  0  0  0  0  0
  141.9614   77.2018  220.5568 H   0  0  0  0  0  0  0  0  0  0  0  0
  138.0094   77.0991  222.2433 H   0  0  0  0  0  0  0  0  0  0  0  0
  138.0940   79.5247  222.8512 H   0  0  0  0  0  0  0  0  0  0  0  0
  139.3190   81.4284  223.3940 H   0  0  0  0  0  0  0  0  0  0  0  0
  141.5366   82.5338  223.7924 H   0  0  0  0  0  0  0  0  0  0  0  0
  143.6014   81.2378  223.5870 H   0  0  0  0  0  0  0  0  0  0  0  0
  143.5861   78.8401  222.9903 H   0  0  0  0  0  0  0  0  0  0  0  0
  1  2  2  0
  2  3  1  0
  3  4  1  0
  4  5  1  0
  5  6  2  0
  5  7  1  0
  7  8  1  0
  8  9  1  0
  9 10  1  0
  9 11  1  0
 11 12  1  0
 12 13  1  0
 13 14  1  0
 14 15  1  0
  2 16  1  0
 16 17  2  0
 17 18  1  0
 18 19  2  0
 19 20  1  0
 20 21  2  0
 21 22  1  0
 22 23  2  0
 23 24  1  0
 24 25  2  0
 12  7  1  0
 15 13  1  0
 25 16  1  0
 24 19  1  0
  3 26  1  0
  4 27  1  0
  4 28  1  0
  8 29  1  0
  8 30  1  0
  9 31  1  6
 10 32  1  0
 11 33  1  0
 11 34  1  0
 12 35  1  1
 13 36  1  0
 14 37  1  0
 14 38  1  0
 15 39  1  0
 15 40  1  0
 17 41  1  0
 18 42  1  0
 20 43  1  0
 21 44  1  0
 22 45  1  0
 23 46  1  0
M  END
>  <smiles>  (39) 
O=C(NCC(=O)N1C[C@H](O)C[C@H]1C1CC1)c1ccc2ccccc2n1

>  <score_type>  (39) 
oracle

>  <origin>  (39) 
autodockgpu

>  <m_score__min__energy>  (39) 
-7.7800000000000002

>  <m_primary>  (39) 
energy

>  <rmsd>  (39) 
7.612772165898248

>  <m_score__min__rmsd>  (39) 
7.612772165898248

>  <meeko>  (39) 
{"free_energy": -6.84, "intermolecular_energy": -8.63, "internal_energy": -1.81, "cluster_size": 7, "cluster_id": 5, "rank_in_cluster": 3}

>  <energy>  (39) 
-7.02

>  <cluster_rmsd>  (39) 
0.0

>  <cluster>  (39) 
4

$$$$

     RDKit          3D

 46 49  0  0  0  0  0  0  0  0999 V2000
  139.2310   74.8820  222.3040 O   0  0  0  0  0  0  0  0  0  0  0  0
  140.2700   75.5830  222.1110 C   0  0  0  0  0  0  0  0  0  0  0  0
  141.4070   74.9820  221.5510 N   0  0  0  0  0  0  0  0  0  0  0  0
  141.4310   73.5880  221.1890 C   0  0  0  0  0  0  0  0  0  0  0  0
  142.4840   73.3460  220.1660 C   0  0  0  0  0  0  0  0  0  0  0  0
  142.9720   72.2040  219.9560 O   0  0  0  0  0  0  0  0  0  0  0  0
  142.9330   74.4560  219.4150 N   0  0  0  0  0  0  0  0  0  0  0  0
  143.8570   75.5230  219.8220 C   0  0  0  0  0  0  0  0  0  0  0  0
  143.2950   76.7900  219.1960 C   0  0  2  0  0  0  0  0  0  0  0  0
  142.5650   77.5070  220.1540 O   0  0  0  0  0  0  0  0  0  0  0  0
  142.4120   76.3140  218.0720 C   0  0  0  0  0  0  0  0  0  0  0  0
  142.5780   74.8090  218.0410 C   0  0  1  0  0  0  0  0  0  0  0  0
  143.7180   74.3590  217.1610 C   0  0  0  0  0  0  0  0  0  0  0  0
  143.5280   74.2830  215.6800 C   0  0  0  0  0  0  0  0  0  0  0  0
  144.4600   75.3080  216.2900 C   0  0  0  0  0  0  0  0  0  0  0  0
  140.2660   76.9890  222.4700 C   0  0  0  0  0  0  0  0  0  0  0  0
  139.0570   77.6550  222.6630 C   0  0  0  0  0  0  0  0  0  0  0  0
  139.0680   78.9900  223.0050 C   0  0  0  0  0  0  0  0  0  0  0  0
  140.3040   79.6180  223.1400 C   0  0  0  0  0  0  0  0  0  0  0  0
  140.2660   80.9670  223.4840 C   0  0  0  0  0  0  0  0  0  0  0  0
  141.4810   81.6190  223.6260 C   0  0  0  0  0  0  0  0  0  0  0  0
  142.6510   80.9340  223.4280 C   0  0  0  0  0  0  0  0  0  0  0  0
  142.6880   79.6030  223.0880 C   0  0  0  0  0  0  0  0  0  0  0  0
  141.4790   78.9490  222.9460 C   0  0  0  0  0  0  0  0  0  0  0  0
  141.4370   77.6450  222.6140 N   0  0  0  0  0  0  0  0  0  0  0  0
  142.2580   75.5490  221.3910 H   0  0  0  0  0  0  0  0  0  0  0  0
  141.6453   72.9832  222.0825 H   0  0  0  0  0  0  0  0  0  0  0  0
  140.4523   73.3059  220.7736 H   0  0  0  0  0  0  0  0  0  0  0  0
  143.8852   75.6129  220.9180 H   0  0  0  0  0  0  0  0  0  0  0  0
  144.8884   75.3233  219.4959 H   0  0  0  0  0  0  0  0  0  0  0  0
  144.0784   77.4673  218.8252 H   0  0  0  0  0  0  0  0  0  0  0  0
  142.7270   77.0440  221.0260 H   0  0  0  0  0  0  0  0  0  0  0  0
  141.3630   76.5817  218.2667 H   0  0  0  0  0  0  0  0  0  0  0  0
  142.6863   76.7760  217.1121 H   0  0  0  0  0  0  0  0  0  0  0  0
  141.6616   74.3407  217.6525 H   0  0  0  0  0  0  0  0  0  0  0  0
  144.0226   73.6555  217.9499 H   0  0  0  0  0  0  0  0  0  0  0  0
  143.9366   73.4330  215.1138 H   0  0  0  0  0  0  0  0  0  0  0  0
  142.6647   74.3177  214.9991 H   0  0  0  0  0  0  0  0  0  0  0  0
  145.5482   75.2057  216.1657 H   0  0  0  0  0  0  0  0  0  0  0  0
  144.5576   76.4023  216.2356 H   0  0  0  0  0  0  0  0  0  0  0  0
  138.1032   77.1202  222.5435 H   0  0  0  0  0  0  0  0  0  0  0  0
  138.1304   79.5422  223.1663 H   0  0  0  0  0  0  0  0  0  0  0  0
  139.3120   81.4930  223.6366 H   0  0  0  0  0  0  0  0  0  0  0  0
  141.5058   82.6847  223.8973 H   0  0  0  0  0  0  0  0  0  0  0  0
  143.6025   81.4731  223.5464 H   0  0  0  0  0  0  0  0  0  0  0  0
  143.6428   79.0787  222.9349 H   0  0  0  0  0  0  0  0  0  0  0  0
  1  2  2  0
  2  3  1  0
  3  4  1  0
  4  5  1  0
  5  6  2  0
  5  7  1  0
  7  8  1  0
  8  9  1  0
  9 10  1  0
  9 11  1  0
 11 12  1  0
 12 13  1  0
 13 14  1  0
 14 15  1  0
  2 16  1  0
 16 17  2  0
 17 18  1  0
 18 19  2  0
 19 20  1  0
 20 21  2  0
 21 22  1  0
 22 23  2  0
 23 24  1  0
 24 25  2  0
 12  7  1  0
 15 13  1  0
 25 16  1  0
 24 19  1  0
  3 26  1  0
  4 27  1  0
  4 28  1  0
  8 29  1  0
  8 30  1  0
  9 31  1  6
 10 32  1  0
 11 33  1  0
 11 34  1  0
 12 35  1  6
 13 36  1  0
 14 37  1  0
 14 38  1  0
 15 39  1  0
 15 40  1  0
 17 41  1  0
 18 42  1  0
 20 43  1  0
 21 44  1  0
 22 45  1  0
 23 46  1  0
M  END
>  <smiles>  (40) 
O=C(NCC(=O)N1C[C@H](O)C[C@H]1C1CC1)c1ccc2ccccc2n1

>  <score_type>  (40) 
oracle

>  <origin>  (40) 
autodockgpu

>  <m_score__min__energy>  (40) 
-7.7800000000000002

>  <m_primary>  (40) 
energy

>  <rmsd>  (40) 
7.443901034199241

>  <m_score__min__rmsd>  (40) 
7.443901034199241

>  <meeko>  (40) 
{"free_energy": -5.94, "intermolecular_energy": -7.73, "internal_energy": -2.74, "cluster_size": 7, "cluster_id": 5, "rank_in_cluster": 7}

>  <energy>  (40) 
-6.92

>  <cluster_rmsd>  (40) 
0.0

>  <cluster>  (40) 
5

$$$$

     RDKit          3D

 46 49  0  0  0  0  0  0  0  0999 V2000
  140.0950   73.5350  222.3520 O   0  0  0  0  0  0  0  0  0  0  0  0
  140.3900   72.3020  222.2950 C   0  0  0  0  0  0  0  0  0  0  0  0
  140.8610   71.7670  221.0870 N   0  0  0  0  0  0  0  0  0  0  0  0
  141.0220   72.5770  219.9060 C   0  0  0  0  0  0  0  0  0  0  0  0
  142.2510   72.1710  219.1720 C   0  0  0  0  0  0  0  0  0  0  0  0
  142.2740   71.1900  218.3830 O   0  0  0  0  0  0  0  0  0  0  0  0
  143.4230   72.9330  219.3880 N   0  0  0  0  0  0  0  0  0  0  0  0
  144.6410   72.9900  218.5700 C   0  0  0  0  0  0  0  0  0  0  0  0
  145.7820   73.0850  219.5710 C   0  0  2  0  0  0  0  0  0  0  0  0
  146.3580   71.8190  219.7540 O   0  0  0  0  0  0  0  0  0  0  0  0
  145.1490   73.5910  220.8410 C   0  0  0  0  0  0  0  0  0  0  0  0
  143.7000   73.8530  220.4900 C   0  0  1  0  0  0  0  0  0  0  0  0
  143.4610   75.2490  219.9700 C   0  0  0  0  0  0  0  0  0  0  0  0
  142.6210   75.4550  218.7500 C   0  0  0  0  0  0  0  0  0  0  0  0
  142.1430   75.9240  220.1080 C   0  0  0  0  0  0  0  0  0  0  0  0
  140.2340   71.4690  223.4720 C   0  0  0  0  0  0  0  0  0  0  0  0
  139.5930   70.2350  223.3710 C   0  0  0  0  0  0  0  0  0  0  0  0
  139.4530   69.4530  224.4980 C   0  0  0  0  0  0  0  0  0  0  0  0
  139.9630   69.9410  225.6980 C   0  0  0  0  0  0  0  0  0  0  0  0
  139.7970   69.1180  226.8090 C   0  0  0  0  0  0  0  0  0  0  0  0
  140.2960   69.5760  228.0170 C   0  0  0  0  0  0  0  0  0  0  0  0
  140.9200   70.7940  228.0810 C   0  0  0  0  0  0  0  0  0  0  0  0
  141.0840   71.6070  226.9850 C   0  0  0  0  0  0  0  0  0  0  0  0
  140.5880   71.1530  225.7760 C   0  0  0  0  0  0  0  0  0  0  0  0
  140.7120   71.8950  224.6600 N   0  0  0  0  0  0  0  0  0  0  0  0
  141.1040   70.7620  221.0330 H   0  0  0  0  0  0  0  0  0  0  0  0
  140.1473   72.4451  219.2522 H   0  0  0  0  0  0  0  0  0  0  0  0
  141.1115   73.6325  220.2025 H   0  0  0  0  0  0  0  0  0  0  0  0
  144.7384   72.0815  217.9575 H   0  0  0  0  0  0  0  0  0  0  0  0
  144.6312   73.8402  217.8722 H   0  0  0  0  0  0  0  0  0  0  0  0
  146.5891   73.7532  219.2361 H   0  0  0  0  0  0  0  0  0  0  0  0
  146.2050   71.5840  220.7150 H   0  0  0  0  0  0  0  0  0  0  0  0
  145.2219   72.8339  221.6357 H   0  0  0  0  0  0  0  0  0  0  0  0
  145.6496   74.4959  221.2157 H   0  0  0  0  0  0  0  0  0  0  0  0
  143.0715   73.7262  221.3838 H   0  0  0  0  0  0  0  0  0  0  0  0
  144.4854   75.5141  220.2706 H   0  0  0  0  0  0  0  0  0  0  0  0
  142.9245   76.1880  217.9880 H   0  0  0  0  0  0  0  0  0  0  0  0
  142.2167   74.8054  217.9597 H   0  0  0  0  0  0  0  0  0  0  0  0
  142.0961   76.9995  220.3340 H   0  0  0  0  0  0  0  0  0  0  0  0
  141.2424   75.7577  220.7172 H   0  0  0  0  0  0  0  0  0  0  0  0
  139.2031   69.8889  222.4024 H   0  0  0  0  0  0  0  0  0  0  0  0
  138.9538   68.4739  224.4504 H   0  0  0  0  0  0  0  0  0  0  0  0
  139.2906   68.1447  226.7304 H   0  0  0  0  0  0  0  0  0  0  0  0
  140.1915   68.9625  228.9240 H   0  0  0  0  0  0  0  0  0  0  0  0
  141.3067   71.1363  229.0522 H   0  0  0  0  0  0  0  0  0  0  0  0
  141.5898   72.5805  227.0660 H   0  0  0  0  0  0  0  0  0  0  0  0
  1  2  2  0
  2  3  1  0
  3  4  1  0
  4  5  1  0
  5  6  2  0
  5  7  1  0
  7  8  1  0
  8  9  1  0
  9 10  1  0
  9 11  1  0
 11 12  1  0
 12 13  1  0
 13 14  1  0
 14 15  1  0
  2 16  1  0
 16 17  2  0
 17 18  1  0
 18 19  2  0
 19 20  1  0
 20 21  2  0
 21 22  1  0
 22 23  2  0
 23 24  1  0
 24 25  2  0
 12  7  1  0
 15 13  1  0
 25 16  1  0
 24 19  1  0
  3 26  1  0
  4 27  1  0
  4 28  1  0
  8 29  1  0
  8 30  1  0
  9 31  1  6
 10 32  1  0
 11 33  1  0
 11 34  1  0
 12 35  1  1
 13 36  1  0
 14 37  1  0
 14 38  1  0
 15 39  1  0
 15 40  1  0
 17 41  1  0
 18 42  1  0
 20 43  1  0
 21 44  1  0
 22 45  1  0
 23 46  1  0
M  END
>  <smiles>  (41) 
O=C(NCC(=O)N1C[C@H](O)C[C@H]1C1CC1)c1ccc2ccccc2n1

>  <score_type>  (41) 
oracle

>  <origin>  (41) 
autodockgpu

>  <m_score__min__energy>  (41) 
-7.7800000000000002

>  <m_primary>  (41) 
energy

>  <rmsd>  (41) 
3.807697117387179

>  <m_score__min__rmsd>  (41) 
3.807697117387179

>  <meeko>  (41) 
{"free_energy": -7.73, "intermolecular_energy": -9.52, "internal_energy": -1.2, "cluster_size": 27, "cluster_id": 1, "rank_in_cluster": 3}

>  <energy>  (41) 
-6.9

>  <cluster_rmsd>  (41) 
0.13

>  <cluster>  (41) 
5

$$$$

     RDKit          3D

 46 49  0  0  0  0  0  0  0  0999 V2000
  139.0150   74.8210  221.8850 O   0  0  0  0  0  0  0  0  0  0  0  0
  140.1270   75.4260  221.9760 C   0  0  0  0  0  0  0  0  0  0  0  0
  141.3140   74.7110  221.7640 N   0  0  0  0  0  0  0  0  0  0  0  0
  141.3100   73.3060  221.4440 C   0  0  0  0  0  0  0  0  0  0  0  0
  141.8360   73.0950  220.0680 C   0  0  0  0  0  0  0  0  0  0  0  0
  141.1700   72.5120  219.1730 O   0  0  0  0  0  0  0  0  0  0  0  0
  143.1340   73.5780  219.7840 N   0  0  0  0  0  0  0  0  0  0  0  0
  144.0770   73.1190  218.7550 C   0  0  0  0  0  0  0  0  0  0  0  0
  145.4450   73.1930  219.4140 C   0  0  2  0  0  0  0  0  0  0  0  0
  145.8240   71.9200  219.8640 O   0  0  0  0  0  0  0  0  0  0  0  0
  145.2760   74.1550  220.5610 C   0  0  0  0  0  0  0  0  0  0  0  0
  143.8520   74.6600  220.4550 C   0  0  1  0  0  0  0  0  0  0  0  0
  143.7230   75.8840  219.5830 C   0  0  0  0  0  0  0  0  0  0  0  0
  142.6330   75.9580  218.5630 C   0  0  0  0  0  0  0  0  0  0  0  0
  142.6270   76.8710  219.7710 C   0  0  0  0  0  0  0  0  0  0  0  0
  140.1520   76.8410  222.2970 C   0  0  0  0  0  0  0  0  0  0  0  0
  138.9600   77.5590  222.3700 C   0  0  0  0  0  0  0  0  0  0  0  0
  138.9990   78.9030  222.6770 C   0  0  0  0  0  0  0  0  0  0  0  0
  140.2440   79.4840  222.9010 C   0  0  0  0  0  0  0  0  0  0  0  0
  140.2350   80.8430  223.2070 C   0  0  0  0  0  0  0  0  0  0  0  0
  141.4590   81.4500  223.4360 C   0  0  0  0  0  0  0  0  0  0  0  0
  142.6120   80.7140  223.3560 C   0  0  0  0  0  0  0  0  0  0  0  0
  142.6210   79.3730  223.0540 C   0  0  0  0  0  0  0  0  0  0  0  0
  141.4020   78.7630  222.8250 C   0  0  0  0  0  0  0  0  0  0  0  0
  141.3340   77.4530  222.5250 N   0  0  0  0  0  0  0  0  0  0  0  0
  142.2240   75.1980  221.8360 H   0  0  0  0  0  0  0  0  0  0  0  0
  141.9445   72.7670  222.1630 H   0  0  0  0  0  0  0  0  0  0  0  0
  140.2789   72.9267  221.4981 H   0  0  0  0  0  0  0  0  0  0  0  0
  143.8482   72.0860  218.4540 H   0  0  0  0  0  0  0  0  0  0  0  0
  144.0240   73.7318  217.8430 H   0  0  0  0  0  0  0  0  0  0  0  0
  146.2330   73.5307  218.7248 H   0  0  0  0  0  0  0  0  0  0  0  0
  145.5830   71.8890  220.8340 H   0  0  0  0  0  0  0  0  0  0  0  0
  145.4317   73.6408  221.5209 H   0  0  0  0  0  0  0  0  0  0  0  0
  146.0061   74.9766  220.5171 H   0  0  0  0  0  0  0  0  0  0  0  0
  143.4770   74.9306  221.4531 H   0  0  0  0  0  0  0  0  0  0  0  0
  144.8201   75.9620  219.5654 H   0  0  0  0  0  0  0  0  0  0  0  0
  142.8395   76.3669  217.5629 H   0  0  0  0  0  0  0  0  0  0  0  0
  141.9256   75.2412  218.1206 H   0  0  0  0  0  0  0  0  0  0  0  0
  142.8271   77.9459  219.6500 H   0  0  0  0  0  0  0  0  0  0  0  0
  141.9101   77.0960  220.5744 H   0  0  0  0  0  0  0  0  0  0  0  0
  137.9979   77.0590  222.1847 H   0  0  0  0  0  0  0  0  0  0  0  0
  138.0755   79.4970  222.7428 H   0  0  0  0  0  0  0  0  0  0  0  0
  139.2946   81.4108  223.2644 H   0  0  0  0  0  0  0  0  0  0  0  0
  141.5052   82.5212  223.6817 H   0  0  0  0  0  0  0  0  0  0  0  0
  143.5720   81.2181  223.5415 H   0  0  0  0  0  0  0  0  0  0  0  0
  143.5624   78.8069  222.9968 H   0  0  0  0  0  0  0  0  0  0  0  0
  1  2  2  0
  2  3  1  0
  3  4  1  0
  4  5  1  0
  5  6  2  0
  5  7  1  0
  7  8  1  0
  8  9  1  0
  9 10  1  0
  9 11  1  0
 11 12  1  0
 12 13  1  0
 13 14  1  0
 14 15  1  0
  2 16  1  0
 16 17  2  0
 17 18  1  0
 18 19  2  0
 19 20  1  0
 20 21  2  0
 21 22  1  0
 22 23  2  0
 23 24  1  0
 24 25  2  0
 12  7  1  0
 15 13  1  0
 25 16  1  0
 24 19  1  0
  3 26  1  0
  4 27  1  0
  4 28  1  0
  8 29  1  0
  8 30  1  0
  9 31  1  6
 10 32  1  0
 11 33  1  0
 11 34  1  0
 12 35  1  1
 13 36  1  0
 14 37  1  0
 14 38  1  0
 15 39  1  0
 15 40  1  0
 17 41  1  0
 18 42  1  0
 20 43  1  0
 21 44  1  0
 22 45  1  0
 23 46  1  0
M  END
>  <smiles>  (42) 
O=C(NCC(=O)N1C[C@H](O)C[C@H]1C1CC1)c1ccc2ccccc2n1

>  <score_type>  (42) 
oracle

>  <origin>  (42) 
autodockgpu

>  <m_score__min__energy>  (42) 
-7.7800000000000002

>  <m_primary>  (42) 
energy

>  <rmsd>  (42) 
7.611724285058053

>  <m_score__min__rmsd>  (42) 
7.611724285058053

>  <meeko>  (42) 
{"free_energy": -6.9, "intermolecular_energy": -8.69, "internal_energy": -1.75, "cluster_size": 7, "cluster_id": 5, "rank_in_cluster": 2}

>  <energy>  (42) 
-6.84

>  <cluster_rmsd>  (42) 
0.17

>  <cluster>  (42) 
5

$$$$

     RDKit          3D

 46 49  0  0  0  0  0  0  0  0999 V2000
  139.2090   74.8030  222.2460 O   0  0  0  0  0  0  0  0  0  0  0  0
  140.2540   75.4910  222.0340 C   0  0  0  0  0  0  0  0  0  0  0  0
  141.3830   74.8690  221.4830 N   0  0  0  0  0  0  0  0  0  0  0  0
  141.3930   73.4680  221.1480 C   0  0  0  0  0  0  0  0  0  0  0  0
  142.6440   73.1270  220.4170 C   0  0  0  0  0  0  0  0  0  0  0  0
  143.1670   71.9830  220.4690 O   0  0  0  0  0  0  0  0  0  0  0  0
  143.2460   74.1460  219.6430 N   0  0  0  0  0  0  0  0  0  0  0  0
  144.0760   75.2700  220.0940 C   0  0  0  0  0  0  0  0  0  0  0  0
  143.6640   76.4410  219.2170 C   0  0  2  0  0  0  0  0  0  0  0  0
  142.7590   77.2570  219.9110 O   0  0  0  0  0  0  0  0  0  0  0  0
  143.0240   75.8170  218.0040 C   0  0  0  0  0  0  0  0  0  0  0  0
  143.1810   74.3220  218.1920 C   0  0  1  0  0  0  0  0  0  0  0  0
  144.4720   73.7870  217.6240 C   0  0  0  0  0  0  0  0  0  0  0  0
  145.2230   72.7240  218.3580 C   0  0  0  0  0  0  0  0  0  0  0  0
  144.5640   72.4280  217.0290 C   0  0  0  0  0  0  0  0  0  0  0  0
  140.2640   76.9030  222.3650 C   0  0  0  0  0  0  0  0  0  0  0  0
  139.0660   77.5640  222.6310 C   0  0  0  0  0  0  0  0  0  0  0  0
  139.0900   78.9070  222.9450 C   0  0  0  0  0  0  0  0  0  0  0  0
  140.3270   79.5450  222.9800 C   0  0  0  0  0  0  0  0  0  0  0  0
  140.3030   80.9010  223.3000 C   0  0  0  0  0  0  0  0  0  0  0  0
  141.5190   81.5640  223.3430 C   0  0  0  0  0  0  0  0  0  0  0  0
  142.6780   80.8830  223.0750 C   0  0  0  0  0  0  0  0  0  0  0  0
  142.7020   79.5460  222.7590 C   0  0  0  0  0  0  0  0  0  0  0  0
  141.4910   78.8800  222.7160 C   0  0  0  0  0  0  0  0  0  0  0  0
  141.4370   77.5700  222.4130 N   0  0  0  0  0  0  0  0  0  0  0  0
  142.2390   75.4250  221.3070 H   0  0  0  0  0  0  0  0  0  0  0  0
  141.3370   72.8725  222.0712 H   0  0  0  0  0  0  0  0  0  0  0  0
  140.5281   73.2446  220.5061 H   0  0  0  0  0  0  0  0  0  0  0  0
  143.8816   75.4934  221.1534 H   0  0  0  0  0  0  0  0  0  0  0  0
  145.1504   75.0495  220.0103 H   0  0  0  0  0  0  0  0  0  0  0  0
  144.5126   77.0810  218.9336 H   0  0  0  0  0  0  0  0  0  0  0  0
  142.8660   77.0240  220.8780 H   0  0  0  0  0  0  0  0  0  0  0  0
  141.9595   76.0883  217.9478 H   0  0  0  0  0  0  0  0  0  0  0  0
  143.4912   76.1637  217.0704 H   0  0  0  0  0  0  0  0  0  0  0  0
  142.3595   73.7941  217.6856 H   0  0  0  0  0  0  0  0  0  0  0  0
  144.7033   74.7963  217.2528 H   0  0  0  0  0  0  0  0  0  0  0  0
  146.3194   72.7734  218.4317 H   0  0  0  0  0  0  0  0  0  0  0  0
  145.1777   72.2895  219.3676 H   0  0  0  0  0  0  0  0  0  0  0  0
  145.1808   72.2593  216.1340 H   0  0  0  0  0  0  0  0  0  0  0  0
  143.8380   71.6848  216.6676 H   0  0  0  0  0  0  0  0  0  0  0  0
  138.1108   77.0200  222.5909 H   0  0  0  0  0  0  0  0  0  0  0  0
  138.1617   79.4562  223.1608 H   0  0  0  0  0  0  0  0  0  0  0  0
  139.3580   81.4234  223.5098 H   0  0  0  0  0  0  0  0  0  0  0  0
  141.5542   82.6349  223.5918 H   0  0  0  0  0  0  0  0  0  0  0  0
  143.6309   81.4310  223.1146 H   0  0  0  0  0  0  0  0  0  0  0  0
  143.6480   79.0256  222.5484 H   0  0  0  0  0  0  0  0  0  0  0  0
  1  2  2  0
  2  3  1  0
  3  4  1  0
  4  5  1  0
  5  6  2  0
  5  7  1  0
  7  8  1  0
  8  9  1  0
  9 10  1  0
  9 11  1  0
 11 12  1  0
 12 13  1  0
 13 14  1  0
 14 15  1  0
  2 16  1  0
 16 17  2  0
 17 18  1  0
 18 19  2  0
 19 20  1  0
 20 21  2  0
 21 22  1  0
 22 23  2  0
 23 24  1  0
 24 25  2  0
 12  7  1  0
 15 13  1  0
 25 16  1  0
 24 19  1  0
  3 26  1  0
  4 27  1  0
  4 28  1  0
  8 29  1  0
  8 30  1  0
  9 31  1  6
 10 32  1  0
 11 33  1  0
 11 34  1  0
 12 35  1  6
 13 36  1  0
 14 37  1  0
 14 38  1  0
 15 39  1  0
 15 40  1  0
 17 41  1  0
 18 42  1  0
 20 43  1  0
 21 44  1  0
 22 45  1  0
 23 46  1  0
M  END
>  <smiles>  (43) 
O=C(NCC(=O)N1C[C@H](O)C[C@H]1C1CC1)c1ccc2ccccc2n1

>  <score_type>  (43) 
oracle

>  <origin>  (43) 
autodockgpu

>  <m_score__min__energy>  (43) 
-7.7800000000000002

>  <m_primary>  (43) 
energy

>  <rmsd>  (43) 
7.513067499335799

>  <m_score__min__rmsd>  (43) 
7.513067499335799

>  <meeko>  (43) 
{"free_energy": -6.02, "intermolecular_energy": -7.81, "internal_energy": -2.7, "cluster_size": 7, "cluster_id": 5, "rank_in_cluster": 5}

>  <energy>  (43) 
-6.8

>  <cluster_rmsd>  (43) 
0.34

>  <cluster>  (43) 
5

$$$$

     RDKit          3D

 46 49  0  0  0  0  0  0  0  0999 V2000
  140.3440   71.1170  221.3100 O   0  0  0  0  0  0  0  0  0  0  0  0
  140.0590   71.7570  222.3680 C   0  0  0  0  0  0  0  0  0  0  0  0
  139.8380   73.1400  222.2930 N   0  0  0  0  0  0  0  0  0  0  0  0
  139.9250   73.8590  221.0480 C   0  0  0  0  0  0  0  0  0  0  0  0
  141.3430   74.1980  220.7520 C   0  0  0  0  0  0  0  0  0  0  0  0
  141.8540   75.3040  221.0700 O   0  0  0  0  0  0  0  0  0  0  0  0
  142.1230   73.2220  220.0900 N   0  0  0  0  0  0  0  0  0  0  0  0
  141.9800   72.7110  218.7210 C   0  0  0  0  0  0  0  0  0  0  0  0
  142.2910   71.2260  218.8210 C   0  0  2  0  0  0  0  0  0  0  0  0
  141.0960   70.4940  218.8700 O   0  0  0  0  0  0  0  0  0  0  0  0
  143.0810   71.0760  220.0950 C   0  0  0  0  0  0  0  0  0  0  0  0
  143.2690   72.4840  220.6190 C   0  0  1  0  0  0  0  0  0  0  0  0
  144.5110   73.1520  220.0830 C   0  0  0  0  0  0  0  0  0  0  0  0
  144.8220   74.5620  220.4690 C   0  0  0  0  0  0  0  0  0  0  0  0
  145.6930   73.4190  220.9440 C   0  0  0  0  0  0  0  0  0  0  0  0
  139.9670   71.0520  223.6320 C   0  0  0  0  0  0  0  0  0  0  0  0
  139.3890   69.7840  223.6810 C   0  0  0  0  0  0  0  0  0  0  0  0
  139.3090   69.1250  224.8900 C   0  0  0  0  0  0  0  0  0  0  0  0
  139.8150   69.7670  226.0170 C   0  0  0  0  0  0  0  0  0  0  0  0
  139.7110   69.0640  227.2150 C   0  0  0  0  0  0  0  0  0  0  0  0
  140.2060   69.6770  228.3550 C   0  0  0  0  0  0  0  0  0  0  0  0
  140.7680   70.9240  228.2700 C   0  0  0  0  0  0  0  0  0  0  0  0
  140.8700   71.6180  227.0880 C   0  0  0  0  0  0  0  0  0  0  0  0
  140.3770   71.0100  225.9490 C   0  0  0  0  0  0  0  0  0  0  0  0
  140.4430   71.6290  224.7550 N   0  0  0  0  0  0  0  0  0  0  0  0
  139.6050   73.6670  223.1530 H   0  0  0  0  0  0  0  0  0  0  0  0
  139.5236   73.2330  220.2374 H   0  0  0  0  0  0  0  0  0  0  0  0
  139.3414   74.7881  221.1270 H   0  0  0  0  0  0  0  0  0  0  0  0
  140.9545   72.8675  218.3550 H   0  0  0  0  0  0  0  0  0  0  0  0
  142.6482   73.2266  218.0155 H   0  0  0  0  0  0  0  0  0  0  0  0
  142.8562   70.8490  217.9559 H   0  0  0  0  0  0  0  0  0  0  0  0
  140.6430   70.7650  219.7200 H   0  0  0  0  0  0  0  0  0  0  0  0
  142.5260   70.4654  220.8225 H   0  0  0  0  0  0  0  0  0  0  0  0
  144.0432   70.5714  219.9230 H   0  0  0  0  0  0  0  0  0  0  0  0
  143.3564   72.4659  221.7154 H   0  0  0  0  0  0  0  0  0  0  0  0
  144.3680   72.6117  219.1356 H   0  0  0  0  0  0  0  0  0  0  0  0
  145.2012   75.2695  219.7169 H   0  0  0  0  0  0  0  0  0  0  0  0
  144.2703   75.3797  220.9557 H   0  0  0  0  0  0  0  0  0  0  0  0
  146.7083   73.2953  220.5393 H   0  0  0  0  0  0  0  0  0  0  0  0
  146.0407   73.0592  221.9236 H   0  0  0  0  0  0  0  0  0  0  0  0
  139.0010   69.3142  222.7652 H   0  0  0  0  0  0  0  0  0  0  0  0
  138.8595   68.1236  224.9615 H   0  0  0  0  0  0  0  0  0  0  0  0
  139.2549   68.0638  227.2545 H   0  0  0  0  0  0  0  0  0  0  0  0
  140.1479   69.1637  229.3262 H   0  0  0  0  0  0  0  0  0  0  0  0
  141.1546   71.3901  229.1883 H   0  0  0  0  0  0  0  0  0  0  0  0
  141.3262   72.6182  227.0501 H   0  0  0  0  0  0  0  0  0  0  0  0
  1  2  2  0
  2  3  1  0
  3  4  1  0
  4  5  1  0
  5  6  2  0
  5  7  1  0
  7  8  1  0
  8  9  1  0
  9 10  1  0
  9 11  1  0
 11 12  1  0
 12 13  1  0
 13 14  1  0
 14 15  1  0
  2 16  1  0
 16 17  2  0
 17 18  1  0
 18 19  2  0
 19 20  1  0
 20 21  2  0
 21 22  1  0
 22 23  2  0
 23 24  1  0
 24 25  2  0
 12  7  1  0
 15 13  1  0
 25 16  1  0
 24 19  1  0
  3 26  1  0
  4 27  1  0
  4 28  1  0
  8 29  1  0
  8 30  1  0
  9 31  1  6
 10 32  1  0
 11 33  1  0
 11 34  1  0
 12 35  1  1
 13 36  1  0
 14 37  1  0
 14 38  1  0
 15 39  1  0
 15 40  1  0
 17 41  1  0
 18 42  1  0
 20 43  1  0
 21 44  1  0
 22 45  1  0
 23 46  1  0
M  END
>  <smiles>  (44) 
O=C(NCC(=O)N1C[C@H](O)C[C@H]1C1CC1)c1ccc2ccccc2n1

>  <score_type>  (44) 
oracle

>  <origin>  (44) 
autodockgpu

>  <m_score__min__energy>  (44) 
-7.7800000000000002

>  <m_primary>  (44) 
energy

>  <rmsd>  (44) 
3.2858019164841767

>  <m_score__min__rmsd>  (44) 
3.2858019164841767

>  <meeko>  (44) 
{"free_energy": -6.63, "intermolecular_energy": -8.42, "internal_energy": -2.27, "cluster_size": 27, "cluster_id": 1, "rank_in_cluster": 23}

>  <energy>  (44) 
-6.02

>  <cluster_rmsd>  (44) 
1.34

>  <cluster>  (44) 
5

$$$$

     RDKit          3D

 46 49  0  0  0  0  0  0  0  0999 V2000
  140.3260   71.2460  221.2540 O   0  0  0  0  0  0  0  0  0  0  0  0
  140.1310   71.9130  222.3160 C   0  0  0  0  0  0  0  0  0  0  0  0
  139.9480   73.3010  222.2280 N   0  0  0  0  0  0  0  0  0  0  0  0
  139.9760   73.9940  220.9650 C   0  0  0  0  0  0  0  0  0  0  0  0
  141.3510   74.4890  220.6850 C   0  0  0  0  0  0  0  0  0  0  0  0
  141.6930   75.6840  220.8870 O   0  0  0  0  0  0  0  0  0  0  0  0
  142.2880   73.5610  220.1750 N   0  0  0  0  0  0  0  0  0  0  0  0
  142.3390   72.9520  218.8390 C   0  0  0  0  0  0  0  0  0  0  0  0
  142.7820   71.5170  219.0780 C   0  0  2  0  0  0  0  0  0  0  0  0
  141.6650   70.6690  219.0620 O   0  0  0  0  0  0  0  0  0  0  0  0
  143.4450   71.5300  220.4300 C   0  0  0  0  0  0  0  0  0  0  0  0
  143.4390   72.9810  220.8660 C   0  0  1  0  0  0  0  0  0  0  0  0
  144.6580   73.7400  220.4070 C   0  0  0  0  0  0  0  0  0  0  0  0
  145.9090   73.7020  221.2240 C   0  0  0  0  0  0  0  0  0  0  0  0
  145.8550   73.0470  219.8610 C   0  0  0  0  0  0  0  0  0  0  0  0
  140.1000   71.2340  223.5970 C   0  0  0  0  0  0  0  0  0  0  0  0
  139.5830   69.9420  223.6880 C   0  0  0  0  0  0  0  0  0  0  0  0
  139.5600   69.3080  224.9120 C   0  0  0  0  0  0  0  0  0  0  0  0
  140.0600   69.9990  226.0130 C   0  0  0  0  0  0  0  0  0  0  0  0
  140.0160   69.3200  227.2290 C   0  0  0  0  0  0  0  0  0  0  0  0
  140.5070   69.9820  228.3420 C   0  0  0  0  0  0  0  0  0  0  0  0
  141.0080   71.2520  228.2170 C   0  0  0  0  0  0  0  0  0  0  0  0
  141.0510   71.9210  227.0180 C   0  0  0  0  0  0  0  0  0  0  0  0
  140.5630   71.2650  225.9040 C   0  0  0  0  0  0  0  0  0  0  0  0
  140.5730   71.8590  224.6960 N   0  0  0  0  0  0  0  0  0  0  0  0
  139.7880   73.8510  223.0900 H   0  0  0  0  0  0  0  0  0  0  0  0
  139.6671   73.3052  220.1649 H   0  0  0  0  0  0  0  0  0  0  0  0
  139.2865   74.8500  221.0081 H   0  0  0  0  0  0  0  0  0  0  0  0
  141.3468   72.9766  218.3647 H   0  0  0  0  0  0  0  0  0  0  0  0
  143.0231   73.4892  218.1656 H   0  0  0  0  0  0  0  0  0  0  0  0
  143.4699   71.1476  218.3032 H   0  0  0  0  0  0  0  0  0  0  0  0
  141.0680   70.9880  219.7990 H   0  0  0  0  0  0  0  0  0  0  0  0
  142.8791   70.9116  221.1423 H   0  0  0  0  0  0  0  0  0  0  0  0
  144.4644   71.1186  220.3901 H   0  0  0  0  0  0  0  0  0  0  0  0
  143.4127   73.0404  221.9641 H   0  0  0  0  0  0  0  0  0  0  0  0
  143.9962   74.5301  220.0227 H   0  0  0  0  0  0  0  0  0  0  0  0
  146.4990   74.6183  221.3732 H   0  0  0  0  0  0  0  0  0  0  0  0
  146.1696   73.3722  222.2405 H   0  0  0  0  0  0  0  0  0  0  0  0
  146.4079   73.4853  219.0171 H   0  0  0  0  0  0  0  0  0  0  0  0
  146.0621   72.0391  219.4720 H   0  0  0  0  0  0  0  0  0  0  0  0
  139.1973   69.4337  222.7919 H   0  0  0  0  0  0  0  0  0  0  0  0
  139.1595   68.2888  225.0157 H   0  0  0  0  0  0  0  0  0  0  0  0
  139.6084   68.3009  227.3019 H   0  0  0  0  0  0  0  0  0  0  0  0
  140.4950   69.4893  229.3254 H   0  0  0  0  0  0  0  0  0  0  0  0
  141.3921   71.7570  229.1155 H   0  0  0  0  0  0  0  0  0  0  0  0
  141.4585   72.9403  226.9474 H   0  0  0  0  0  0  0  0  0  0  0  0
  1  2  2  0
  2  3  1  0
  3  4  1  0
  4  5  1  0
  5  6  2  0
  5  7  1  0
  7  8  1  0
  8  9  1  0
  9 10  1  0
  9 11  1  0
 11 12  1  0
 12 13  1  0
 13 14  1  0
 14 15  1  0
  2 16  1  0
 16 17  2  0
 17 18  1  0
 18 19  2  0
 19 20  1  0
 20 21  2  0
 21 22  1  0
 22 23  2  0
 23 24  1  0
 24 25  2  0
 12  7  1  0
 15 13  1  0
 25 16  1  0
 24 19  1  0
  3 26  1  0
  4 27  1  0
  4 28  1  0
  8 29  1  0
  8 30  1  0
  9 31  1  6
 10 32  1  0
 11 33  1  0
 11 34  1  0
 12 35  1  1
 13 36  1  0
 14 37  1  0
 14 38  1  0
 15 39  1  0
 15 40  1  0
 17 41  1  0
 18 42  1  0
 20 43  1  0
 21 44  1  0
 22 45  1  0
 23 46  1  0
M  END
>  <smiles>  (45) 
O=C(NCC(=O)N1C[C@H](O)C[C@H]1C1CC1)c1ccc2ccccc2n1

>  <score_type>  (45) 
oracle

>  <origin>  (45) 
autodockgpu

>  <m_score__min__energy>  (45) 
-7.7800000000000002

>  <m_primary>  (45) 
energy

>  <rmsd>  (45) 
3.270012278158793

>  <m_score__min__rmsd>  (45) 
3.270012278158793

>  <meeko>  (45) 
{"free_energy": -6.85, "intermolecular_energy": -8.64, "internal_energy": -2.3, "cluster_size": 27, "cluster_id": 1, "rank_in_cluster": 19}

>  <energy>  (45) 
-6.01

>  <cluster_rmsd>  (45) 
1.31

>  <cluster>  (45) 
5

$$$$

     RDKit          3D

 46 49  0  0  0  0  0  0  0  0999 V2000
  140.0660   71.1760  221.2300 O   0  0  0  0  0  0  0  0  0  0  0  0
  139.9880   71.8570  222.2980 C   0  0  0  0  0  0  0  0  0  0  0  0
  139.8600   73.2510  222.2130 N   0  0  0  0  0  0  0  0  0  0  0  0
  139.8130   73.9360  220.9470 C   0  0  0  0  0  0  0  0  0  0  0  0
  141.1640   74.4550  220.5990 C   0  0  0  0  0  0  0  0  0  0  0  0
  141.4660   75.6730  220.6990 O   0  0  0  0  0  0  0  0  0  0  0  0
  142.1240   73.5230  220.1420 N   0  0  0  0  0  0  0  0  0  0  0  0
  142.1970   72.8490  218.8390 C   0  0  0  0  0  0  0  0  0  0  0  0
  142.6690   71.4370  219.1530 C   0  0  2  0  0  0  0  0  0  0  0  0
  141.5710   70.5650  219.1750 O   0  0  0  0  0  0  0  0  0  0  0  0
  143.3230   71.5350  220.5070 C   0  0  0  0  0  0  0  0  0  0  0  0
  143.2820   73.0050  220.8670 C   0  0  1  0  0  0  0  0  0  0  0  0
  144.4880   73.7670  220.3760 C   0  0  0  0  0  0  0  0  0  0  0  0
  145.7800   73.6760  221.1220 C   0  0  0  0  0  0  0  0  0  0  0  0
  145.6430   73.0820  219.7370 C   0  0  0  0  0  0  0  0  0  0  0  0
  140.0330   71.1860  223.5830 C   0  0  0  0  0  0  0  0  0  0  0  0
  139.5850   69.8710  223.6980 C   0  0  0  0  0  0  0  0  0  0  0  0
  139.6350   69.2450  224.9260 C   0  0  0  0  0  0  0  0  0  0  0  0
  140.1340   69.9680  226.0060 C   0  0  0  0  0  0  0  0  0  0  0  0
  140.1640   69.2960  227.2260 C   0  0  0  0  0  0  0  0  0  0  0  0
  140.6570   69.9900  228.3190 C   0  0  0  0  0  0  0  0  0  0  0  0
  141.0880   71.2820  228.1710 C   0  0  0  0  0  0  0  0  0  0  0  0
  141.0590   71.9450  226.9680 C   0  0  0  0  0  0  0  0  0  0  0  0
  140.5680   71.2560  225.8740 C   0  0  0  0  0  0  0  0  0  0  0  0
  140.5100   71.8420  224.6630 N   0  0  0  0  0  0  0  0  0  0  0  0
  139.7950   73.8120  223.0810 H   0  0  0  0  0  0  0  0  0  0  0  0
  139.4792   73.2365  220.1664 H   0  0  0  0  0  0  0  0  0  0  0  0
  139.1096   74.7787  221.0181 H   0  0  0  0  0  0  0  0  0  0  0  0
  141.2078   72.8282  218.3583 H   0  0  0  0  0  0  0  0  0  0  0  0
  142.8740   73.3662  218.1432 H   0  0  0  0  0  0  0  0  0  0  0  0
  143.3689   71.0429  218.4014 H   0  0  0  0  0  0  0  0  0  0  0  0
  140.9350   70.9420  219.8490 H   0  0  0  0  0  0  0  0  0  0  0  0
  142.7663   70.9417  221.2473 H   0  0  0  0  0  0  0  0  0  0  0  0
  144.3515   71.1452  220.4940 H   0  0  0  0  0  0  0  0  0  0  0  0
  143.2470   73.1199  221.9604 H   0  0  0  0  0  0  0  0  0  0  0  0
  143.8195   74.5823  220.0624 H   0  0  0  0  0  0  0  0  0  0  0  0
  146.3918   74.5767  221.2783 H   0  0  0  0  0  0  0  0  0  0  0  0
  146.0890   73.2985  222.1079 H   0  0  0  0  0  0  0  0  0  0  0  0
  146.1572   73.5491  218.8841 H   0  0  0  0  0  0  0  0  0  0  0  0
  145.8129   72.0894  219.2945 H   0  0  0  0  0  0  0  0  0  0  0  0
  139.1955   69.3379  222.8182 H   0  0  0  0  0  0  0  0  0  0  0  0
  139.2914   68.2072  225.0482 H   0  0  0  0  0  0  0  0  0  0  0  0
  139.8111   68.2582  227.3176 H   0  0  0  0  0  0  0  0  0  0  0  0
  140.7023   69.5041  229.3048 H   0  0  0  0  0  0  0  0  0  0  0  0
  141.4743   71.8119  229.0542 H   0  0  0  0  0  0  0  0  0  0  0  0
  141.4124   72.9828  226.8785 H   0  0  0  0  0  0  0  0  0  0  0  0
  1  2  2  0
  2  3  1  0
  3  4  1  0
  4  5  1  0
  5  6  2  0
  5  7  1  0
  7  8  1  0
  8  9  1  0
  9 10  1  0
  9 11  1  0
 11 12  1  0
 12 13  1  0
 13 14  1  0
 14 15  1  0
  2 16  1  0
 16 17  2  0
 17 18  1  0
 18 19  2  0
 19 20  1  0
 20 21  2  0
 21 22  1  0
 22 23  2  0
 23 24  1  0
 24 25  2  0
 12  7  1  0
 15 13  1  0
 25 16  1  0
 24 19  1  0
  3 26  1  0
  4 27  1  0
  4 28  1  0
  8 29  1  0
  8 30  1  0
  9 31  1  6
 10 32  1  0
 11 33  1  0
 11 34  1  0
 12 35  1  1
 13 36  1  0
 14 37  1  0
 14 38  1  0
 15 39  1  0
 15 40  1  0
 17 41  1  0
 18 42  1  0
 20 43  1  0
 21 44  1  0
 22 45  1  0
 23 46  1  0
M  END
>  <smiles>  (46) 
O=C(NCC(=O)N1C[C@H](O)C[C@H]1C1CC1)c1ccc2ccccc2n1

>  <score_type>  (46) 
oracle

>  <origin>  (46) 
autodockgpu

>  <m_score__min__energy>  (46) 
-7.7800000000000002

>  <m_primary>  (46) 
energy

>  <rmsd>  (46) 
3.2263675245510264

>  <m_score__min__rmsd>  (46) 
3.2263675245510264

>  <meeko>  (46) 
{"free_energy": -6.68, "intermolecular_energy": -8.47, "internal_energy": -2.35, "cluster_size": 27, "cluster_id": 1, "rank_in_cluster": 22}

>  <energy>  (46) 
-5.94

>  <cluster_rmsd>  (46) 
1.52

>  <cluster>  (46) 
5

$$$$

     RDKit          3D

 46 49  0  0  0  0  0  0  0  0999 V2000
  141.0930   71.9940  221.6980 O   0  0  0  0  0  0  0  0  0  0  0  0
  140.1750   72.1880  222.5510 C   0  0  0  0  0  0  0  0  0  0  0  0
  139.2350   73.2040  222.3250 N   0  0  0  0  0  0  0  0  0  0  0  0
  139.2800   74.0360  221.1500 C   0  0  0  0  0  0  0  0  0  0  0  0
  140.3530   75.0570  221.2890 C   0  0  0  0  0  0  0  0  0  0  0  0
  140.3310   75.9430  222.1840 O   0  0  0  0  0  0  0  0  0  0  0  0
  141.4250   75.0080  220.3680 N   0  0  0  0  0  0  0  0  0  0  0  0
  141.8060   73.9140  219.4650 C   0  0  0  0  0  0  0  0  0  0  0  0
  143.3270   73.9100  219.4710 C   0  0  2  0  0  0  0  0  0  0  0  0
  143.7940   72.9160  220.3420 O   0  0  0  0  0  0  0  0  0  0  0  0
  143.7200   75.2860  219.9440 C   0  0  0  0  0  0  0  0  0  0  0  0
  142.4190   76.0450  220.0970 C   0  0  1  0  0  0  0  0  0  0  0  0
  141.9910   76.7460  218.8310 C   0  0  0  0  0  0  0  0  0  0  0  0
  142.2390   78.2110  218.6720 C   0  0  0  0  0  0  0  0  0  0  0  0
  142.9770   77.2040  217.8160 C   0  0  0  0  0  0  0  0  0  0  0  0
  140.1120   71.3620  223.7420 C   0  0  0  0  0  0  0  0  0  0  0  0
  139.5570   70.0850  223.6740 C   0  0  0  0  0  0  0  0  0  0  0  0
  139.5040   69.3100  224.8140 C   0  0  0  0  0  0  0  0  0  0  0  0
  140.0130   69.8490  225.9920 C   0  0  0  0  0  0  0  0  0  0  0  0
  139.9380   69.0310  227.1170 C   0  0  0  0  0  0  0  0  0  0  0  0
  140.4380   69.5400  228.3050 C   0  0  0  0  0  0  0  0  0  0  0  0
  140.9760   70.7990  228.3360 C   0  0  0  0  0  0  0  0  0  0  0  0
  141.0510   71.6060  227.2260 C   0  0  0  0  0  0  0  0  0  0  0  0
  140.5540   71.1030  226.0380 C   0  0  0  0  0  0  0  0  0  0  0  0
  140.5930   71.8360  224.9110 N   0  0  0  0  0  0  0  0  0  0  0  0
  138.4830   73.3680  223.0180 H   0  0  0  0  0  0  0  0  0  0  0  0
  139.4846   73.4105  220.2686 H   0  0  0  0  0  0  0  0  0  0  0  0
  138.3118   74.5443  221.0308 H   0  0  0  0  0  0  0  0  0  0  0  0
  141.4154   72.9542  219.8342 H   0  0  0  0  0  0  0  0  0  0  0  0
  141.3972   74.0522  218.4532 H   0  0  0  0  0  0  0  0  0  0  0  0
  143.7578   73.6909  218.4829 H   0  0  0  0  0  0  0  0  0  0  0  0
  142.9950   72.6040  220.8570 H   0  0  0  0  0  0  0  0  0  0  0  0
  144.2462   75.2259  220.9081 H   0  0  0  0  0  0  0  0  0  0  0  0
  144.4025   75.7819  219.2381 H   0  0  0  0  0  0  0  0  0  0  0  0
  142.5266   76.8148  220.8754 H   0  0  0  0  0  0  0  0  0  0  0  0
  141.1076   76.0918  218.7912 H   0  0  0  0  0  0  0  0  0  0  0  0
  141.4683   78.8560  218.2249 H   0  0  0  0  0  0  0  0  0  0  0  0
  142.5328   79.0318  219.3427 H   0  0  0  0  0  0  0  0  0  0  0  0
  142.7450   77.1170  216.7443 H   0  0  0  0  0  0  0  0  0  0  0  0
  144.0344   76.9879  217.6035 H   0  0  0  0  0  0  0  0  0  0  0  0
  139.1654   69.6993  222.7212 H   0  0  0  0  0  0  0  0  0  0  0  0
  139.0731   68.2981  224.7927 H   0  0  0  0  0  0  0  0  0  0  0  0
  139.5002   68.0232  227.0646 H   0  0  0  0  0  0  0  0  0  0  0  0
  140.4028   68.9335  229.2220 H   0  0  0  0  0  0  0  0  0  0  0  0
  141.3652   71.1812  229.2912 H   0  0  0  0  0  0  0  0  0  0  0  0
  141.4896   72.6133  227.2807 H   0  0  0  0  0  0  0  0  0  0  0  0
  1  2  2  0
  2  3  1  0
  3  4  1  0
  4  5  1  0
  5  6  2  0
  5  7  1  0
  7  8  1  0
  8  9  1  0
  9 10  1  0
  9 11  1  0
 11 12  1  0
 12 13  1  0
 13 14  1  0
 14 15  1  0
  2 16  1  0
 16 17  2  0
 17 18  1  0
 18 19  2  0
 19 20  1  0
 20 21  2  0
 21 22  1  0
 22 23  2  0
 23 24  1  0
 24 25  2  0
 12  7  1  0
 15 13  1  0
 25 16  1  0
 24 19  1  0
  3 26  1  0
  4 27  1  0
  4 28  1  0
  8 29  1  0
  8 30  1  0
  9 31  1  6
 10 32  1  0
 11 33  1  0
 11 34  1  0
 12 35  1  1
 13 36  1  0
 14 37  1  0
 14 38  1  0
 15 39  1  0
 15 40  1  0
 17 41  1  0
 18 42  1  0
 20 43  1  0
 21 44  1  0
 22 45  1  0
 23 46  1  0
M  END
>  <smiles>  (47) 
O=C(NCC(=O)N1C[C@H](O)C[C@H]1C1CC1)c1ccc2ccccc2n1

>  <score_type>  (47) 
oracle

>  <origin>  (47) 
autodockgpu

>  <m_score__min__energy>  (47) 
-7.7800000000000002

>  <m_primary>  (47) 
energy

>  <rmsd>  (47) 
2.141745027408333

>  <m_score__min__rmsd>  (47) 
2.141745027408333

>  <meeko>  (47) 
{"free_energy": -6.93, "intermolecular_energy": -8.72, "internal_energy": -1.88, "cluster_size": 27, "cluster_id": 1, "rank_in_cluster": 16}

>  <energy>  (47) 
-5.82

>  <cluster_rmsd>  (47) 
0.0

>  <cluster>  (47) 
6

$$$$

     RDKit          3D

 46 49  0  0  0  0  0  0  0  0999 V2000
  140.7900   71.4690  221.3790 O   0  0  0  0  0  0  0  0  0  0  0  0
  140.3300   72.0520  222.4080 C   0  0  0  0  0  0  0  0  0  0  0  0
  139.9320   73.3940  222.3140 N   0  0  0  0  0  0  0  0  0  0  0  0
  140.0300   74.1330  221.0810 C   0  0  0  0  0  0  0  0  0  0  0  0
  140.9930   75.2560  221.2350 C   0  0  0  0  0  0  0  0  0  0  0  0
  140.8080   76.1980  222.0490 O   0  0  0  0  0  0  0  0  0  0  0  0
  142.1510   75.2380  220.4240 N   0  0  0  0  0  0  0  0  0  0  0  0
  142.9110   76.3750  219.8880 C   0  0  0  0  0  0  0  0  0  0  0  0
  143.3290   75.9450  218.4900 C   0  0  2  0  0  0  0  0  0  0  0  0
  142.4580   76.5020  217.5430 O   0  0  0  0  0  0  0  0  0  0  0  0
  143.2430   74.4410  218.5010 C   0  0  0  0  0  0  0  0  0  0  0  0
  142.8730   74.0700  219.9220 C   0  0  1  0  0  0  0  0  0  0  0  0
  144.0750   73.8770  220.8130 C   0  0  0  0  0  0  0  0  0  0  0  0
  144.7870   72.5630  220.8260 C   0  0  0  0  0  0  0  0  0  0  0  0
  145.4550   73.8000  220.2650 C   0  0  0  0  0  0  0  0  0  0  0  0
  140.2240   71.3260  223.6590 C   0  0  0  0  0  0  0  0  0  0  0  0
  139.6530   70.0540  223.6790 C   0  0  0  0  0  0  0  0  0  0  0  0
  139.5590   69.3750  224.8760 C   0  0  0  0  0  0  0  0  0  0  0  0
  140.0430   70.0020  226.0210 C   0  0  0  0  0  0  0  0  0  0  0  0
  139.9260   69.2790  227.2060 C   0  0  0  0  0  0  0  0  0  0  0  0
  140.4000   69.8770  228.3620 C   0  0  0  0  0  0  0  0  0  0  0  0
  140.9550   71.1290  228.3060 C   0  0  0  0  0  0  0  0  0  0  0  0
  141.0700   71.8420  227.1370 C   0  0  0  0  0  0  0  0  0  0  0  0
  140.5990   71.2490  225.9810 C   0  0  0  0  0  0  0  0  0  0  0  0
  140.6790   71.8880  224.7990 N   0  0  0  0  0  0  0  0  0  0  0  0
  139.5550   73.8750  223.1500 H   0  0  0  0  0  0  0  0  0  0  0  0
  140.3775   73.4625  220.2813 H   0  0  0  0  0  0  0  0  0  0  0  0
  139.0405   74.5391  220.8243 H   0  0  0  0  0  0  0  0  0  0  0  0
  142.2802   77.2751  219.8433 H   0  0  0  0  0  0  0  0  0  0  0  0
  143.7761   76.6278  220.5186 H   0  0  0  0  0  0  0  0  0  0  0  0
  144.3413   76.2831  218.2236 H   0  0  0  0  0  0  0  0  0  0  0  0
  141.6670   76.8340  218.0590 H   0  0  0  0  0  0  0  0  0  0  0  0
  142.4702   74.0945  217.7991 H   0  0  0  0  0  0  0  0  0  0  0  0
  144.1894   73.9747  218.1896 H   0  0  0  0  0  0  0  0  0  0  0  0
  142.3088   73.1257  219.9264 H   0  0  0  0  0  0  0  0  0  0  0  0
  143.5922   74.5149  221.5680 H   0  0  0  0  0  0  0  0  0  0  0  0
  145.1330   72.1319  221.7770 H   0  0  0  0  0  0  0  0  0  0  0  0
  144.5705   71.5522  220.4500 H   0  0  0  0  0  0  0  0  0  0  0  0
  146.2896   74.2689  220.8068 H   0  0  0  0  0  0  0  0  0  0  0  0
  145.9294   74.0635  219.3082 H   0  0  0  0  0  0  0  0  0  0  0  0
  139.2814   69.5969  222.7500 H   0  0  0  0  0  0  0  0  0  0  0  0
  139.1155   68.3695  224.9244 H   0  0  0  0  0  0  0  0  0  0  0  0
  139.4761   68.2754  227.2230 H   0  0  0  0  0  0  0  0  0  0  0  0
  140.3311   69.3477  229.3238 H   0  0  0  0  0  0  0  0  0  0  0  0
  141.3244   71.5828  229.2374 H   0  0  0  0  0  0  0  0  0  0  0  0
  141.5195   72.8458  227.1219 H   0  0  0  0  0  0  0  0  0  0  0  0
  1  2  2  0
  2  3  1  0
  3  4  1  0
  4  5  1  0
  5  6  2  0
  5  7  1  0
  7  8  1  0
  8  9  1  0
  9 10  1  0
  9 11  1  0
 11 12  1  0
 12 13  1  0
 13 14  1  0
 14 15  1  0
  2 16  1  0
 16 17  2  0
 17 18  1  0
 18 19  2  0
 19 20  1  0
 20 21  2  0
 21 22  1  0
 22 23  2  0
 23 24  1  0
 24 25  2  0
 12  7  1  0
 15 13  1  0
 25 16  1  0
 24 19  1  0
  3 26  1  0
  4 27  1  0
  4 28  1  0
  8 29  1  0
  8 30  1  0
  9 31  1  6
 10 32  1  0
 11 33  1  0
 11 34  1  0
 12 35  1  6
 13 36  1  0
 14 37  1  0
 14 38  1  0
 15 39  1  0
 15 40  1  0
 17 41  1  0
 18 42  1  0
 20 43  1  0
 21 44  1  0
 22 45  1  0
 23 46  1  0
M  END
>  <smiles>  (48) 
O=C(NCC(=O)N1C[C@H](O)C[C@H]1C1CC1)c1ccc2ccccc2n1

>  <score_type>  (48) 
oracle

>  <origin>  (48) 
autodockgpu

>  <m_score__min__energy>  (48) 
-7.7800000000000002

>  <m_primary>  (48) 
energy

>  <rmsd>  (48) 
2.634467515946157

>  <m_score__min__rmsd>  (48) 
2.634467515946157

>  <meeko>  (48) 
{"free_energy": -7.25, "intermolecular_energy": -9.04, "internal_energy": -1.42, "cluster_size": 6, "cluster_id": 3, "rank_in_cluster": 6}

>  <energy>  (48) 
-5.81

>  <cluster_rmsd>  (48) 
0.03

>  <cluster>  (48) 
6

$$$$

     RDKit          3D

 46 49  0  0  0  0  0  0  0  0999 V2000
  140.7340   71.3530  221.3490 O   0  0  0  0  0  0  0  0  0  0  0  0
  140.3030   71.9610  222.3750 C   0  0  0  0  0  0  0  0  0  0  0  0
  139.9470   73.3140  222.2700 N   0  0  0  0  0  0  0  0  0  0  0  0
  140.0560   74.0350  221.0280 C   0  0  0  0  0  0  0  0  0  0  0  0
  141.4460   74.5330  220.8470 C   0  0  0  0  0  0  0  0  0  0  0  0
  141.8080   75.6780  221.2230 O   0  0  0  0  0  0  0  0  0  0  0  0
  142.3750   73.6640  220.2280 N   0  0  0  0  0  0  0  0  0  0  0  0
  142.4060   73.2000  218.8350 C   0  0  0  0  0  0  0  0  0  0  0  0
  142.8510   71.7480  218.9150 C   0  0  2  0  0  0  0  0  0  0  0  0
  141.7340   70.9050  218.8270 O   0  0  0  0  0  0  0  0  0  0  0  0
  143.5350   71.6200  220.2510 C   0  0  0  0  0  0  0  0  0  0  0  0
  143.5360   73.0160  220.8370 C   0  0  1  0  0  0  0  0  0  0  0  0
  144.7490   73.8220  220.4410 C   0  0  0  0  0  0  0  0  0  0  0  0
  146.0020   73.7240  221.2490 C   0  0  0  0  0  0  0  0  0  0  0  0
  145.9490   73.1870  219.8350 C   0  0  0  0  0  0  0  0  0  0  0  0
  140.1870   71.2520  223.6360 C   0  0  0  0  0  0  0  0  0  0  0  0
  139.5810   69.9980  223.6750 C   0  0  0  0  0  0  0  0  0  0  0  0
  139.4770   69.3350  224.8800 C   0  0  0  0  0  0  0  0  0  0  0  0
  139.9900   69.9610  226.0140 C   0  0  0  0  0  0  0  0  0  0  0  0
  139.8620   69.2550  227.2080 C   0  0  0  0  0  0  0  0  0  0  0  0
  140.3630   69.8520  228.3530 C   0  0  0  0  0  0  0  0  0  0  0  0
  140.9530   71.0870  228.2790 C   0  0  0  0  0  0  0  0  0  0  0  0
  141.0790   71.7830  227.1000 C   0  0  0  0  0  0  0  0  0  0  0  0
  140.5810   71.1910  225.9550 C   0  0  0  0  0  0  0  0  0  0  0  0
  140.6680   71.8140  224.7650 N   0  0  0  0  0  0  0  0  0  0  0  0
  139.5950   73.8160  223.1040 H   0  0  0  0  0  0  0  0  0  0  0  0
  139.7980   73.3652  220.1945 H   0  0  0  0  0  0  0  0  0  0  0  0
  139.3660   74.8915  221.0469 H   0  0  0  0  0  0  0  0  0  0  0  0
  141.4071   73.2740  218.3803 H   0  0  0  0  0  0  0  0  0  0  0  0
  143.0806   73.8057  218.2121 H   0  0  0  0  0  0  0  0  0  0  0  0
  143.5262   71.4625  218.0949 H   0  0  0  0  0  0  0  0  0  0  0  0
  141.2620   70.9830  219.7060 H   0  0  0  0  0  0  0  0  0  0  0  0
  142.9801   70.9293  220.9029 H   0  0  0  0  0  0  0  0  0  0  0  0
  144.5537   71.2168  220.1523 H   0  0  0  0  0  0  0  0  0  0  0  0
  143.5265   72.9592  221.9355 H   0  0  0  0  0  0  0  0  0  0  0  0
  144.0805   74.6371  220.1269 H   0  0  0  0  0  0  0  0  0  0  0  0
  146.5857   74.6287  221.4744 H   0  0  0  0  0  0  0  0  0  0  0  0
  146.2678   73.3108  222.2332 H   0  0  0  0  0  0  0  0  0  0  0  0
  146.4963   73.6997  219.0303 H   0  0  0  0  0  0  0  0  0  0  0  0
  146.1623   72.2176  219.3610 H   0  0  0  0  0  0  0  0  0  0  0  0
  139.1894   69.5413  222.7541 H   0  0  0  0  0  0  0  0  0  0  0  0
  139.0042   68.3438  224.9436 H   0  0  0  0  0  0  0  0  0  0  0  0
  139.3832   68.2652  227.2402 H   0  0  0  0  0  0  0  0  0  0  0  0
  140.2875   69.3353  229.3212 H   0  0  0  0  0  0  0  0  0  0  0  0
  141.3423   71.5407  229.2024 H   0  0  0  0  0  0  0  0  0  0  0  0
  141.5577   72.7729  227.0694 H   0  0  0  0  0  0  0  0  0  0  0  0
  1  2  2  0
  2  3  1  0
  3  4  1  0
  4  5  1  0
  5  6  2  0
  5  7  1  0
  7  8  1  0
  8  9  1  0
  9 10  1  0
  9 11  1  0
 11 12  1  0
 12 13  1  0
 13 14  1  0
 14 15  1  0
  2 16  1  0
 16 17  2  0
 17 18  1  0
 18 19  2  0
 19 20  1  0
 20 21  2  0
 21 22  1  0
 22 23  2  0
 23 24  1  0
 24 25  2  0
 12  7  1  0
 15 13  1  0
 25 16  1  0
 24 19  1  0
  3 26  1  0
  4 27  1  0
  4 28  1  0
  8 29  1  0
  8 30  1  0
  9 31  1  6
 10 32  1  0
 11 33  1  0
 11 34  1  0
 12 35  1  1
 13 36  1  0
 14 37  1  0
 14 38  1  0
 15 39  1  0
 15 40  1  0
 17 41  1  0
 18 42  1  0
 20 43  1  0
 21 44  1  0
 22 45  1  0
 23 46  1  0
M  END
>  <smiles>  (49) 
O=C(NCC(=O)N1C[C@H](O)C[C@H]1C1CC1)c1ccc2ccccc2n1

>  <score_type>  (49) 
oracle

>  <origin>  (49) 
autodockgpu

>  <m_score__min__energy>  (49) 
-7.7800000000000002

>  <m_primary>  (49) 
energy

>  <rmsd>  (49) 
3.23878778923812

>  <m_score__min__rmsd>  (49) 
3.23878778923812

>  <meeko>  (49) 
{"free_energy": -7.04, "intermolecular_energy": -8.83, "internal_energy": -2.2, "cluster_size": 27, "cluster_id": 1, "rank_in_cluster": 10}

>  <energy>  (49) 
-5.77

>  <cluster_rmsd>  (49) 
0.13

>  <cluster>  (49) 
6

$$$$

     RDKit          3D

 46 49  0  0  0  0  0  0  0  0999 V2000
  139.3420   71.1990  221.3150 O   0  0  0  0  0  0  0  0  0  0  0  0
  139.6010   71.8740  222.3580 C   0  0  0  0  0  0  0  0  0  0  0  0
  139.7190   73.2680  222.2590 N   0  0  0  0  0  0  0  0  0  0  0  0
  139.5530   73.9590  221.0060 C   0  0  0  0  0  0  0  0  0  0  0  0
  140.8770   74.3960  220.4860 C   0  0  0  0  0  0  0  0  0  0  0  0
  141.1780   75.6090  220.3380 O   0  0  0  0  0  0  0  0  0  0  0  0
  141.8120   73.3890  220.1530 N   0  0  0  0  0  0  0  0  0  0  0  0
  141.7820   72.4480  219.0260 C   0  0  0  0  0  0  0  0  0  0  0  0
  142.3120   71.1390  219.5920 C   0  0  2  0  0  0  0  0  0  0  0  0
  141.2400   70.2900  219.9040 O   0  0  0  0  0  0  0  0  0  0  0  0
  143.0830   71.5290  220.8260 C   0  0  0  0  0  0  0  0  0  0  0  0
  143.0430   73.0430  220.8620 C   0  0  1  0  0  0  0  0  0  0  0  0
  144.1820   73.6820  220.1080 C   0  0  0  0  0  0  0  0  0  0  0  0
  145.3910   74.1560  220.8480 C   0  0  0  0  0  0  0  0  0  0  0  0
  145.4760   72.9810  219.8980 C   0  0  0  0  0  0  0  0  0  0  0  0
  139.7730   71.1970  223.6290 C   0  0  0  0  0  0  0  0  0  0  0  0
  139.4380   69.8480  223.7500 C   0  0  0  0  0  0  0  0  0  0  0  0
  139.6060   69.2170  224.9640 C   0  0  0  0  0  0  0  0  0  0  0  0
  140.1080   69.9670  226.0250 C   0  0  0  0  0  0  0  0  0  0  0  0
  140.2600   69.2880  227.2320 C   0  0  0  0  0  0  0  0  0  0  0  0
  140.7570   70.0090  228.3050 C   0  0  0  0  0  0  0  0  0  0  0  0
  141.0760   71.3320  228.1520 C   0  0  0  0  0  0  0  0  0  0  0  0
  140.9260   72.0020  226.9610 C   0  0  0  0  0  0  0  0  0  0  0  0
  140.4300   71.2870  225.8870 C   0  0  0  0  0  0  0  0  0  0  0  0
  140.2560   71.8780  224.6900 N   0  0  0  0  0  0  0  0  0  0  0  0
  139.9300   73.8240  223.1060 H   0  0  0  0  0  0  0  0  0  0  0  0
  139.0804   73.2837  220.2775 H   0  0  0  0  0  0  0  0  0  0  0  0
  138.9172   74.8429  221.1628 H   0  0  0  0  0  0  0  0  0  0  0  0
  140.7541   72.3210  218.6556 H   0  0  0  0  0  0  0  0  0  0  0  0
  142.3817   72.8032  218.1750 H   0  0  0  0  0  0  0  0  0  0  0  0
  142.9499   70.5933  218.8811 H   0  0  0  0  0  0  0  0  0  0  0  0
  140.4850   70.8890  220.1730 H   0  0  0  0  0  0  0  0  0  0  0  0
  142.6081   71.1097  221.7253 H   0  0  0  0  0  0  0  0  0  0  0  0
  144.1142   71.1469  220.8025 H   0  0  0  0  0  0  0  0  0  0  0  0
  143.1052   73.3929  221.9030 H   0  0  0  0  0  0  0  0  0  0  0  0
  143.4479   74.1413  219.4297 H   0  0  0  0  0  0  0  0  0  0  0  0
  145.8597   75.1152  220.5831 H   0  0  0  0  0  0  0  0  0  0  0  0
  145.6441   74.3276  221.9046 H   0  0  0  0  0  0  0  0  0  0  0  0
  146.0091   73.0838  218.9413 H   0  0  0  0  0  0  0  0  0  0  0  0
  145.8194   71.9389  219.9762 H   0  0  0  0  0  0  0  0  0  0  0  0
  139.0439   69.2937  222.8855 H   0  0  0  0  0  0  0  0  0  0  0  0
  139.3516   68.1544  225.0909 H   0  0  0  0  0  0  0  0  0  0  0  0
  139.9965   68.2244  227.3287 H   0  0  0  0  0  0  0  0  0  0  0  0
  140.8955   69.5190  229.2800 H   0  0  0  0  0  0  0  0  0  0  0  0
  141.4692   71.8823  229.0195 H   0  0  0  0  0  0  0  0  0  0  0  0
  141.1904   73.0656  226.8664 H   0  0  0  0  0  0  0  0  0  0  0  0
  1  2  2  0
  2  3  1  0
  3  4  1  0
  4  5  1  0
  5  6  2  0
  5  7  1  0
  7  8  1  0
  8  9  1  0
  9 10  1  0
  9 11  1  0
 11 12  1  0
 12 13  1  0
 13 14  1  0
 14 15  1  0
  2 16  1  0
 16 17  2  0
 17 18  1  0
 18 19  2  0
 19 20  1  0
 20 21  2  0
 21 22  1  0
 22 23  2  0
 23 24  1  0
 24 25  2  0
 12  7  1  0
 15 13  1  0
 25 16  1  0
 24 19  1  0
  3 26  1  0
  4 27  1  0
  4 28  1  0
  8 29  1  0
  8 30  1  0
  9 31  1  6
 10 32  1  0
 11 33  1  0
 11 34  1  0
 12 35  1  1
 13 36  1  0
 14 37  1  0
 14 38  1  0
 15 39  1  0
 15 40  1  0
 17 41  1  0
 18 42  1  0
 20 43  1  0
 21 44  1  0
 22 45  1  0
 23 46  1  0
M  END
>  <smiles>  (50) 
O=C(NCC(=O)N1C[C@H](O)C[C@H]1C1CC1)c1ccc2ccccc2n1

>  <score_type>  (50) 
oracle

>  <origin>  (50) 
autodockgpu

>  <m_score__min__energy>  (50) 
-7.7800000000000002

>  <m_primary>  (50) 
energy

>  <rmsd>  (50) 
3.206134526701638

>  <m_score__min__rmsd>  (50) 
3.206134526701638

>  <meeko>  (50) 
{"free_energy": -6.26, "intermolecular_energy": -8.05, "internal_energy": -2.46, "cluster_size": 27, "cluster_id": 1, "rank_in_cluster": 27}

>  <energy>  (50) 
-5.77

>  <cluster_rmsd>  (50) 
0.0

>  <cluster>  (50) 
7

$$$$
