
     RDKit          3D

 70 75  0  0  0  0  0  0  0  0999 V2000
  139.5700   69.6690  227.7690 C   0  0  0  0  0  0  0  0  0  0  0  0
  140.6000   70.5830  227.8690 C   0  0  0  0  0  0  0  0  0  0  0  0
  141.0810   71.2130  226.7410 C   0  0  0  0  0  0  0  0  0  0  0  0
  140.5140   70.9110  225.5170 C   0  0  0  0  0  0  0  0  0  0  0  0
  139.4790   69.9880  225.4420 C   0  0  0  0  0  0  0  0  0  0  0  0
  138.9820   69.3460  226.5570 C   0  0  0  0  0  0  0  0  0  0  0  0
  138.9340   69.7320  224.0660 C   0  0  0  0  0  0  0  0  0  0  0  0
  138.6790   71.1070  223.4580 C   0  0  0  0  0  0  0  0  0  0  0  0
  139.9510   71.7440  223.3060 N   0  0  0  0  0  0  0  0  0  0  0  0
  140.1990   72.5700  222.1790 C   0  0  0  0  0  0  0  0  0  0  0  0
  140.3810   72.0320  220.9760 N   0  0  0  0  0  0  0  0  0  0  0  0
  140.6200   72.7990  219.8720 C   0  0  0  0  0  0  0  0  0  0  0  0
  140.8070   72.1920  218.5920 N   0  0  0  0  0  0  0  0  0  0  0  0
  141.9700   71.4050  218.2460 C   0  0  0  0  0  0  0  0  0  0  0  0
  142.8700   71.2780  219.4300 C   0  0  0  0  0  0  0  0  0  0  0  0
  143.9600   72.3250  219.4700 C   0  0  0  0  0  0  0  0  0  0  0  0
  145.3290   71.7850  219.6970 C   0  0  0  0  0  0  0  0  0  0  0  0
  146.1610   72.6850  220.5890 C   0  0  0  0  0  0  0  0  0  0  0  0
  145.9370   74.0830  220.3750 N   0  0  0  0  0  0  0  0  0  0  0  0
  144.5730   74.5060  220.4710 C   0  0  0  0  0  0  0  0  0  0  0  0
  143.5970   73.3430  220.5170 C   0  0  0  0  0  0  0  0  0  0  0  0
  140.6690   74.1300  220.0450 N   0  0  0  0  0  0  0  0  0  0  0  0
  140.4920   74.7160  221.2400 C   0  0  0  0  0  0  0  0  0  0  0  0
  140.5460   76.1400  221.4130 N   0  0  0  0  0  0  0  0  0  0  0  0
  140.2370   77.0350  220.3280 C   0  0  0  0  0  0  0  0  0  0  0  0
  141.2590   78.1150  220.1200 C   0  0  0  0  0  0  0  0  0  0  0  0
  141.5030   78.7430  221.4490 C   0  0  0  0  0  0  0  0  0  0  0  0
  141.9020   80.0660  221.4470 C   0  0  0  0  0  0  0  0  0  0  0  0
  142.1550   80.7460  222.6110 C   0  0  0  0  0  0  0  0  0  0  0  0
  142.0010   80.0790  223.7990 C   0  0  0  0  0  0  0  0  0  0  0  0
  141.6000   78.7520  223.8000 C   0  0  0  0  0  0  0  0  0  0  0  0
  141.3440   78.0600  222.6390 C   0  0  0  0  0  0  0  0  0  0  0  0
  140.9190   76.6470  222.7080 C   0  0  0  0  0  0  0  0  0  0  0  0
  140.2580   73.9120  222.2920 N   0  0  0  0  0  0  0  0  0  0  0  0
  140.9950   71.5580  224.2890 C   0  0  0  0  0  0  0  0  0  0  0  0
  139.2035   69.1802  228.6837 H   0  0  0  0  0  0  0  0  0  0  0  0
  141.0384   70.8093  228.8522 H   0  0  0  0  0  0  0  0  0  0  0  0
  141.9010   71.9426  226.8136 H   0  0  0  0  0  0  0  0  0  0  0  0
  138.1620   68.6161  226.4875 H   0  0  0  0  0  0  0  0  0  0  0  0
  139.6655   69.1756  223.4616 H   0  0  0  0  0  0  0  0  0  0  0  0
  138.0155   69.1277  224.1002 H   0  0  0  0  0  0  0  0  0  0  0  0
  138.1908   71.0012  222.4780 H   0  0  0  0  0  0  0  0  0  0  0  0
  138.0179   71.7034  224.1039 H   0  0  0  0  0  0  0  0  0  0  0  0
  140.0400   72.3450  217.8810 H   0  0  0  0  0  0  0  0  0  0  0  0
  141.6494   70.4036  217.9228 H   0  0  0  0  0  0  0  0  0  0  0  0
  142.5141   71.9034  217.4302 H   0  0  0  0  0  0  0  0  0  0  0  0
  142.2621   71.3723  220.3419 H   0  0  0  0  0  0  0  0  0  0  0  0
  143.3636   70.2975  219.3593 H   0  0  0  0  0  0  0  0  0  0  0  0
  144.0120   72.7848  218.4721 H   0  0  0  0  0  0  0  0  0  0  0  0
  145.2452   70.7962  220.1715 H   0  0  0  0  0  0  0  0  0  0  0  0
  145.8318   71.7204  218.7208 H   0  0  0  0  0  0  0  0  0  0  0  0
  145.9201   72.4522  221.6368 H   0  0  0  0  0  0  0  0  0  0  0  0
  147.2155   72.4899  220.3441 H   0  0  0  0  0  0  0  0  0  0  0  0
  146.3690   74.3790  219.4810 H   0  0  0  0  0  0  0  0  0  0  0  0
  144.4535   75.1013  221.3882 H   0  0  0  0  0  0  0  0  0  0  0  0
  144.3448   75.0939  219.5697 H   0  0  0  0  0  0  0  0  0  0  0  0
  143.6365   72.8734  221.5109 H   0  0  0  0  0  0  0  0  0  0  0  0
  142.5810   73.7162  220.3209 H   0  0  0  0  0  0  0  0  0  0  0  0
  140.1635   76.4449  219.4026 H   0  0  0  0  0  0  0  0  0  0  0  0
  139.2920   77.5353  220.5862 H   0  0  0  0  0  0  0  0  0  0  0  0
  142.1919   77.6826  219.7291 H   0  0  0  0  0  0  0  0  0  0  0  0
  140.9024   78.8593  219.3928 H   0  0  0  0  0  0  0  0  0  0  0  0
  142.0199   80.5879  220.4859 H   0  0  0  0  0  0  0  0  0  0  0  0
  142.4731   81.7988  222.5919 H   0  0  0  0  0  0  0  0  0  0  0  0
  142.1954   80.5962  224.7501 H   0  0  0  0  0  0  0  0  0  0  0  0
  141.4824   78.2340  224.7633 H   0  0  0  0  0  0  0  0  0  0  0  0
  141.7502   76.0434  223.1014 H   0  0  0  0  0  0  0  0  0  0  0  0
  140.0405   76.5846  223.3671 H   0  0  0  0  0  0  0  0  0  0  0  0
  141.7847   70.9318  223.8483 H   0  0  0  0  0  0  0  0  0  0  0  0
  141.3699   72.5545  224.5655 H   0  0  0  0  0  0  0  0  0  0  0  0
  1  2  2  0
  2  3  1  0
  3  4  2  0
  4  5  1  0
  5  6  2  0
  5  7  1  0
  7  8  1  0
  8  9  1  0
  9 10  1  0
 10 11  2  0
 11 12  1  0
 12 13  1  0
 13 14  1  0
 14 15  1  0
 15 16  1  0
 16 17  1  0
 17 18  1  0
 18 19  1  0
 19 20  1  0
 20 21  1  0
 12 22  2  0
 22 23  1  0
 23 24  1  0
 24 25  1  0
 25 26  1  0
 26 27  1  0
 27 28  2  0
 28 29  1  0
 29 30  2  0
 30 31  1  0
 31 32  2  0
 32 33  1  0
 23 34  2  0
  9 35  1  0
  6  1  1  0
 34 10  1  0
 35  4  1  0
 21 16  1  0
 33 24  1  0
 32 27  1  0
  1 36  1  0
  2 37  1  0
  3 38  1  0
  6 39  1  0
  7 40  1  0
  7 41  1  0
  8 42  1  0
  8 43  1  0
 13 44  1  0
 14 45  1  0
 14 46  1  0
 15 47  1  0
 15 48  1  0
 16 49  1  0
 17 50  1  0
 17 51  1  0
 18 52  1  0
 18 53  1  0
 19 54  1  0
 20 55  1  0
 20 56  1  0
 21 57  1  0
 21 58  1  0
 25 59  1  0
 25 60  1  0
 26 61  1  0
 26 62  1  0
 28 63  1  0
 29 64  1  0
 30 65  1  0
 31 66  1  0
 33 67  1  0
 33 68  1  0
 35 69  1  0
 35 70  1  0
M  END
>  <smiles>  (1) 
c1ccc2c(c1)CCN(c1nc(NCCC3CCNCC3)nc(N3CCc4ccccc4C3)n1)C2

>  <score_type>  (1) 
oracle

>  <origin>  (1) 
autodockgpu

>  <m_score__min__energy>  (1) 
-10.140000000000001

>  <m_primary>  (1) 
energy

>  <rmsd>  (1) 
6.488678844819999

>  <m_score__min__rmsd>  (1) 
6.488678844819999

>  <meeko>  (1) 
{"free_energy": -10.04, "intermolecular_energy": -11.83, "internal_energy": -1.51, "cluster_size": 43, "cluster_id": 1, "rank_in_cluster": 3}

>  <energy>  (1) 
-10.14

>  <cluster_rmsd>  (1) 
0.0

>  <cluster>  (1) 
1

$$$$

     RDKit          3D

 70 75  0  0  0  0  0  0  0  0999 V2000
  139.6020   69.8140  227.8710 C   0  0  0  0  0  0  0  0  0  0  0  0
  140.4530   70.8990  227.9580 C   0  0  0  0  0  0  0  0  0  0  0  0
  140.8220   71.5840  226.8200 C   0  0  0  0  0  0  0  0  0  0  0  0
  140.3260   71.1640  225.5990 C   0  0  0  0  0  0  0  0  0  0  0  0
  139.4720   70.0710  225.5390 C   0  0  0  0  0  0  0  0  0  0  0  0
  139.0890   69.3710  226.6630 C   0  0  0  0  0  0  0  0  0  0  0  0
  138.9900   69.6980  224.1660 C   0  0  0  0  0  0  0  0  0  0  0  0
  138.4990   70.9950  223.5310 C   0  0  0  0  0  0  0  0  0  0  0  0
  139.6390   71.8450  223.3710 N   0  0  0  0  0  0  0  0  0  0  0  0
  139.7440   72.6810  222.2300 C   0  0  0  0  0  0  0  0  0  0  0  0
  139.6780   72.1640  221.0060 N   0  0  0  0  0  0  0  0  0  0  0  0
  139.7750   72.9420  219.8880 C   0  0  0  0  0  0  0  0  0  0  0  0
  139.6950   72.3570  218.5870 N   0  0  0  0  0  0  0  0  0  0  0  0
  140.4730   72.8190  217.4580 C   0  0  0  0  0  0  0  0  0  0  0  0
  141.9270   72.7800  217.7910 C   0  0  0  0  0  0  0  0  0  0  0  0
  142.3500   73.8550  218.7650 C   0  0  0  0  0  0  0  0  0  0  0  0
  142.2110   75.2470  218.2510 C   0  0  0  0  0  0  0  0  0  0  0  0
  143.3470   76.1430  218.7040 C   0  0  0  0  0  0  0  0  0  0  0  0
  143.7960   75.8820  220.0390 N   0  0  0  0  0  0  0  0  0  0  0  0
  144.1700   74.5270  220.3050 C   0  0  0  0  0  0  0  0  0  0  0  0
  143.7650   73.5730  219.1940 C   0  0  0  0  0  0  0  0  0  0  0  0
  139.9430   74.2620  220.0690 N   0  0  0  0  0  0  0  0  0  0  0  0
  140.0150   74.8270  221.2840 C   0  0  0  0  0  0  0  0  0  0  0  0
  140.1940   76.2400  221.4650 N   0  0  0  0  0  0  0  0  0  0  0  0
  139.8420   77.1750  220.4280 C   0  0  0  0  0  0  0  0  0  0  0  0
  140.9160   78.1800  220.1240 C   0  0  0  0  0  0  0  0  0  0  0  0
  141.3450   78.7640  221.4260 C   0  0  0  0  0  0  0  0  0  0  0  0
  141.8400   80.0530  221.3950 C   0  0  0  0  0  0  0  0  0  0  0  0
  142.2650   80.6920  222.5330 C   0  0  0  0  0  0  0  0  0  0  0  0
  142.1850   80.0160  223.7240 C   0  0  0  0  0  0  0  0  0  0  0  0
  141.6880   78.7230  223.7540 C   0  0  0  0  0  0  0  0  0  0  0  0
  141.2600   78.0730  222.6200 C   0  0  0  0  0  0  0  0  0  0  0  0
  140.7390   76.6940  222.7190 C   0  0  0  0  0  0  0  0  0  0  0  0
  139.9120   74.0130  222.3500 N   0  0  0  0  0  0  0  0  0  0  0  0
  140.6930   71.8640  224.3620 C   0  0  0  0  0  0  0  0  0  0  0  0
  139.3221   69.2835  228.7931 H   0  0  0  0  0  0  0  0  0  0  0  0
  140.8373   71.2172  228.9383 H   0  0  0  0  0  0  0  0  0  0  0  0
  141.4987   72.4490  226.8819 H   0  0  0  0  0  0  0  0  0  0  0  0
  138.4117   68.5062  226.6038 H   0  0  0  0  0  0  0  0  0  0  0  0
  139.8126   69.2695  223.5746 H   0  0  0  0  0  0  0  0  0  0  0  0
  138.1929   68.9411  224.2086 H   0  0  0  0  0  0  0  0  0  0  0  0
  138.0437   70.7865  222.5516 H   0  0  0  0  0  0  0  0  0  0  0  0
  137.7384   71.4762  224.1634 H   0  0  0  0  0  0  0  0  0  0  0  0
  139.0250   71.5490  218.4730 H   0  0  0  0  0  0  0  0  0  0  0  0
  140.2799   72.1689  216.5919 H   0  0  0  0  0  0  0  0  0  0  0  0
  140.1845   73.8533  217.2193 H   0  0  0  0  0  0  0  0  0  0  0  0
  142.1570   71.7993  218.2330 H   0  0  0  0  0  0  0  0  0  0  0  0
  142.4786   72.9550  216.8555 H   0  0  0  0  0  0  0  0  0  0  0  0
  141.6610   73.8122  219.6214 H   0  0  0  0  0  0  0  0  0  0  0  0
  142.1995   75.2187  217.1514 H   0  0  0  0  0  0  0  0  0  0  0  0
  141.2744   75.6620  218.6517 H   0  0  0  0  0  0  0  0  0  0  0  0
  144.1956   75.9992  218.0190 H   0  0  0  0  0  0  0  0  0  0  0  0
  142.9642   77.1742  218.6921 H   0  0  0  0  0  0  0  0  0  0  0  0
  143.0980   76.2290  220.7230 H   0  0  0  0  0  0  0  0  0  0  0  0
  145.2624   74.4816  220.4258 H   0  0  0  0  0  0  0  0  0  0  0  0
  143.6438   74.2125  221.2184 H   0  0  0  0  0  0  0  0  0  0  0  0
  144.4396   73.7061  218.3354 H   0  0  0  0  0  0  0  0  0  0  0  0
  143.8315   72.5390  219.5633 H   0  0  0  0  0  0  0  0  0  0  0  0
  139.6275   76.6089  219.5096 H   0  0  0  0  0  0  0  0  0  0  0  0
  138.9699   77.7395  220.7898 H   0  0  0  0  0  0  0  0  0  0  0  0
  141.7672   77.6865  219.6322 H   0  0  0  0  0  0  0  0  0  0  0  0
  140.5425   78.9618  219.4463 H   0  0  0  0  0  0  0  0  0  0  0  0
  141.8951   80.5819  220.4321 H   0  0  0  0  0  0  0  0  0  0  0  0
  142.6590   81.7182  222.4911 H   0  0  0  0  0  0  0  0  0  0  0  0
  142.5153   80.5003  224.6548 H   0  0  0  0  0  0  0  0  0  0  0  0
  141.6338   78.1977  224.7190 H   0  0  0  0  0  0  0  0  0  0  0  0
  141.5590   76.0233  223.0152 H   0  0  0  0  0  0  0  0  0  0  0  0
  139.9328   76.6845  223.4673 H   0  0  0  0  0  0  0  0  0  0  0  0
  141.5842   71.3801  223.9360 H   0  0  0  0  0  0  0  0  0  0  0  0
  140.8833   72.9158  224.6217 H   0  0  0  0  0  0  0  0  0  0  0  0
  1  2  2  0
  2  3  1  0
  3  4  2  0
  4  5  1  0
  5  6  2  0
  5  7  1  0
  7  8  1  0
  8  9  1  0
  9 10  1  0
 10 11  2  0
 11 12  1  0
 12 13  1  0
 13 14  1  0
 14 15  1  0
 15 16  1  0
 16 17  1  0
 17 18  1  0
 18 19  1  0
 19 20  1  0
 20 21  1  0
 12 22  2  0
 22 23  1  0
 23 24  1  0
 24 25  1  0
 25 26  1  0
 26 27  1  0
 27 28  2  0
 28 29  1  0
 29 30  2  0
 30 31  1  0
 31 32  2  0
 32 33  1  0
 23 34  2  0
  9 35  1  0
  6  1  1  0
 34 10  1  0
 35  4  1  0
 21 16  1  0
 33 24  1  0
 32 27  1  0
  1 36  1  0
  2 37  1  0
  3 38  1  0
  6 39  1  0
  7 40  1  0
  7 41  1  0
  8 42  1  0
  8 43  1  0
 13 44  1  0
 14 45  1  0
 14 46  1  0
 15 47  1  0
 15 48  1  0
 16 49  1  0
 17 50  1  0
 17 51  1  0
 18 52  1  0
 18 53  1  0
 19 54  1  0
 20 55  1  0
 20 56  1  0
 21 57  1  0
 21 58  1  0
 25 59  1  0
 25 60  1  0
 26 61  1  0
 26 62  1  0
 28 63  1  0
 29 64  1  0
 30 65  1  0
 31 66  1  0
 33 67  1  0
 33 68  1  0
 35 69  1  0
 35 70  1  0
M  END
>  <smiles>  (2) 
c1ccc2c(c1)CCN(c1nc(NCCC3CCNCC3)nc(N3CCc4ccccc4C3)n1)C2

>  <score_type>  (2) 
oracle

>  <origin>  (2) 
autodockgpu

>  <m_score__min__energy>  (2) 
-10.140000000000001

>  <m_primary>  (2) 
energy

>  <rmsd>  (2) 
4.668799724955498

>  <m_score__min__rmsd>  (2) 
4.668799724955498

>  <meeko>  (2) 
{"free_energy": -9.25, "intermolecular_energy": -11.04, "internal_energy": -1.84, "cluster_size": 43, "cluster_id": 1, "rank_in_cluster": 25}

>  <energy>  (2) 
-10.06

>  <cluster_rmsd>  (2) 
0.99

>  <cluster>  (2) 
1

$$$$

     RDKit          3D

 70 75  0  0  0  0  0  0  0  0999 V2000
  140.4140   81.1780  223.2300 C   0  0  0  0  0  0  0  0  0  0  0  0
  141.7080   80.6980  223.1900 C   0  0  0  0  0  0  0  0  0  0  0  0
  141.9430   79.3490  223.0340 C   0  0  0  0  0  0  0  0  0  0  0  0
  140.8640   78.4930  222.9200 C   0  0  0  0  0  0  0  0  0  0  0  0
  139.5720   79.0010  222.9620 C   0  0  0  0  0  0  0  0  0  0  0  0
  139.3120   80.3460  223.1170 C   0  0  0  0  0  0  0  0  0  0  0  0
  138.4710   77.9870  222.8290 C   0  0  0  0  0  0  0  0  0  0  0  0
  138.8380   77.1310  221.6210 C   0  0  0  0  0  0  0  0  0  0  0  0
  140.0370   76.4240  221.9540 N   0  0  0  0  0  0  0  0  0  0  0  0
  140.2230   75.0940  221.4980 C   0  0  0  0  0  0  0  0  0  0  0  0
  140.5110   74.8520  220.2220 N   0  0  0  0  0  0  0  0  0  0  0  0
  140.6970   73.5830  219.7520 C   0  0  0  0  0  0  0  0  0  0  0  0
  141.0110   73.3560  218.3770 N   0  0  0  0  0  0  0  0  0  0  0  0
  141.9520   74.1630  217.6320 C   0  0  0  0  0  0  0  0  0  0  0  0
  142.9560   74.7610  218.5590 C   0  0  0  0  0  0  0  0  0  0  0  0
  143.8210   73.7330  219.2510 C   0  0  0  0  0  0  0  0  0  0  0  0
  144.5660   74.2460  220.4350 C   0  0  0  0  0  0  0  0  0  0  0  0
  145.9570   73.6530  220.5390 C   0  0  0  0  0  0  0  0  0  0  0  0
  146.0340   72.2780  220.1480 N   0  0  0  0  0  0  0  0  0  0  0  0
  145.5260   71.9830  218.8430 C   0  0  0  0  0  0  0  0  0  0  0  0
  144.7590   73.1430  218.2320 C   0  0  0  0  0  0  0  0  0  0  0  0
  140.5760   72.5760  220.6320 N   0  0  0  0  0  0  0  0  0  0  0  0
  140.2860   72.7730  221.9280 C   0  0  0  0  0  0  0  0  0  0  0  0
  140.1590   71.6890  222.8610 N   0  0  0  0  0  0  0  0  0  0  0  0
  139.4930   70.4650  222.4950 C   0  0  0  0  0  0  0  0  0  0  0  0
  138.4690   70.0070  223.4920 C   0  0  0  0  0  0  0  0  0  0  0  0
  139.1260   70.0310  224.8300 C   0  0  0  0  0  0  0  0  0  0  0  0
  138.6480   69.1400  225.7720 C   0  0  0  0  0  0  0  0  0  0  0  0
  139.1760   69.0730  227.0360 C   0  0  0  0  0  0  0  0  0  0  0  0
  140.2060   69.9210  227.3550 C   0  0  0  0  0  0  0  0  0  0  0  0
  140.6850   70.8140  226.4090 C   0  0  0  0  0  0  0  0  0  0  0  0
  140.1630   70.8890  225.1390 C   0  0  0  0  0  0  0  0  0  0  0  0
  140.7180   71.8630  224.1760 C   0  0  0  0  0  0  0  0  0  0  0  0
  140.1140   74.0430  222.3360 N   0  0  0  0  0  0  0  0  0  0  0  0
  141.0680   77.0490  222.7530 C   0  0  0  0  0  0  0  0  0  0  0  0
  140.2524   82.2588  223.3560 H   0  0  0  0  0  0  0  0  0  0  0  0
  142.5542   81.3947  223.2830 H   0  0  0  0  0  0  0  0  0  0  0  0
  142.9715   78.9604  223.0008 H   0  0  0  0  0  0  0  0  0  0  0  0
  138.2846   80.7376  223.1492 H   0  0  0  0  0  0  0  0  0  0  0  0
  138.4110   77.3657  223.7347 H   0  0  0  0  0  0  0  0  0  0  0  0
  137.4904   78.4686  222.7010 H   0  0  0  0  0  0  0  0  0  0  0  0
  138.0283   76.4189  221.4033 H   0  0  0  0  0  0  0  0  0  0  0  0
  138.9879   77.7570  220.7290 H   0  0  0  0  0  0  0  0  0  0  0  0
  140.5130   72.5510  217.9060 H   0  0  0  0  0  0  0  0  0  0  0  0
  142.4683   73.5322  216.8934 H   0  0  0  0  0  0  0  0  0  0  0  0
  141.4088   74.9699  217.1183 H   0  0  0  0  0  0  0  0  0  0  0  0
  143.6076   75.4328  217.9810 H   0  0  0  0  0  0  0  0  0  0  0  0
  142.3975   75.2953  219.3417 H   0  0  0  0  0  0  0  0  0  0  0  0
  143.1517   72.9641  219.6644 H   0  0  0  0  0  0  0  0  0  0  0  0
  144.6526   75.3395  220.3522 H   0  0  0  0  0  0  0  0  0  0  0  0
  144.0073   73.9551  221.3368 H   0  0  0  0  0  0  0  0  0  0  0  0
  146.6304   74.2348  219.8924 H   0  0  0  0  0  0  0  0  0  0  0  0
  146.2443   73.6990  221.5998 H   0  0  0  0  0  0  0  0  0  0  0  0
  145.6010   71.6770  220.8740 H   0  0  0  0  0  0  0  0  0  0  0  0
  146.3718   71.7357  218.1846 H   0  0  0  0  0  0  0  0  0  0  0  0
  144.8260   71.1404  218.9436 H   0  0  0  0  0  0  0  0  0  0  0  0
  145.4690   73.9149  217.9003 H   0  0  0  0  0  0  0  0  0  0  0  0
  144.1765   72.7785  217.3730 H   0  0  0  0  0  0  0  0  0  0  0  0
  138.9904   70.6199  221.5289 H   0  0  0  0  0  0  0  0  0  0  0  0
  140.2654   69.6831  222.4493 H   0  0  0  0  0  0  0  0  0  0  0  0
  137.6031   70.6853  223.4836 H   0  0  0  0  0  0  0  0  0  0  0  0
  138.1073   68.9970  223.2491 H   0  0  0  0  0  0  0  0  0  0  0  0
  137.8218   68.4664  225.5007 H   0  0  0  0  0  0  0  0  0  0  0  0
  138.7839   68.3582  227.7744 H   0  0  0  0  0  0  0  0  0  0  0  0
  140.6514   69.8924  228.3604 H   0  0  0  0  0  0  0  0  0  0  0  0
  141.5114   71.4860  226.6838 H   0  0  0  0  0  0  0  0  0  0  0  0
  140.4920   72.8805  224.5277 H   0  0  0  0  0  0  0  0  0  0  0  0
  141.8040   71.7005  224.1112 H   0  0  0  0  0  0  0  0  0  0  0  0
  141.0754   76.5782  223.7471 H   0  0  0  0  0  0  0  0  0  0  0  0
  142.0238   76.9091  222.2269 H   0  0  0  0  0  0  0  0  0  0  0  0
  1  2  2  0
  2  3  1  0
  3  4  2  0
  4  5  1  0
  5  6  2  0
  5  7  1  0
  7  8  1  0
  8  9  1  0
  9 10  1  0
 10 11  2  0
 11 12  1  0
 12 13  1  0
 13 14  1  0
 14 15  1  0
 15 16  1  0
 16 17  1  0
 17 18  1  0
 18 19  1  0
 19 20  1  0
 20 21  1  0
 12 22  2  0
 22 23  1  0
 23 24  1  0
 24 25  1  0
 25 26  1  0
 26 27  1  0
 27 28  2  0
 28 29  1  0
 29 30  2  0
 30 31  1  0
 31 32  2  0
 32 33  1  0
 23 34  2  0
  9 35  1  0
  6  1  1  0
 34 10  1  0
 35  4  1  0
 21 16  1  0
 33 24  1  0
 32 27  1  0
  1 36  1  0
  2 37  1  0
  3 38  1  0
  6 39  1  0
  7 40  1  0
  7 41  1  0
  8 42  1  0
  8 43  1  0
 13 44  1  0
 14 45  1  0
 14 46  1  0
 15 47  1  0
 15 48  1  0
 16 49  1  0
 17 50  1  0
 17 51  1  0
 18 52  1  0
 18 53  1  0
 19 54  1  0
 20 55  1  0
 20 56  1  0
 21 57  1  0
 21 58  1  0
 25 59  1  0
 25 60  1  0
 26 61  1  0
 26 62  1  0
 28 63  1  0
 29 64  1  0
 30 65  1  0
 31 66  1  0
 33 67  1  0
 33 68  1  0
 35 69  1  0
 35 70  1  0
M  END
>  <smiles>  (3) 
c1ccc2c(c1)CCN(c1nc(NCCC3CCNCC3)nc(N3CCc4ccccc4C3)n1)C2

>  <score_type>  (3) 
oracle

>  <origin>  (3) 
autodockgpu

>  <m_score__min__energy>  (3) 
-10.140000000000001

>  <m_primary>  (3) 
energy

>  <rmsd>  (3) 
5.621563627592675

>  <m_score__min__rmsd>  (3) 
5.621563627592675

>  <meeko>  (3) 
{"free_energy": -9.76, "intermolecular_energy": -11.55, "internal_energy": -1.29, "cluster_size": 43, "cluster_id": 1, "rank_in_cluster": 10}

>  <energy>  (3) 
-10.04

>  <cluster_rmsd>  (3) 
0.51

>  <cluster>  (3) 
1

$$$$

     RDKit          3D

 70 75  0  0  0  0  0  0  0  0999 V2000
  139.5490   69.6460  227.6660 C   0  0  0  0  0  0  0  0  0  0  0  0
  140.5860   70.5470  227.7960 C   0  0  0  0  0  0  0  0  0  0  0  0
  141.0780   71.2040  226.6880 C   0  0  0  0  0  0  0  0  0  0  0  0
  140.5140   70.9420  225.4530 C   0  0  0  0  0  0  0  0  0  0  0  0
  139.4710   70.0310  225.3490 C   0  0  0  0  0  0  0  0  0  0  0  0
  138.9630   69.3630  226.4430 C   0  0  0  0  0  0  0  0  0  0  0  0
  138.9290   69.8190  223.9640 C   0  0  0  0  0  0  0  0  0  0  0  0
  138.6890   71.2130  223.3940 C   0  0  0  0  0  0  0  0  0  0  0  0
  139.9680   71.8420  223.2640 N   0  0  0  0  0  0  0  0  0  0  0  0
  140.2280   72.6960  222.1630 C   0  0  0  0  0  0  0  0  0  0  0  0
  140.4360   72.1890  220.9500 N   0  0  0  0  0  0  0  0  0  0  0  0
  140.6880   72.9850  219.8690 C   0  0  0  0  0  0  0  0  0  0  0  0
  140.9020   72.4100  218.5780 N   0  0  0  0  0  0  0  0  0  0  0  0
  142.0550   72.7080  217.7560 C   0  0  0  0  0  0  0  0  0  0  0  0
  142.8830   73.7670  218.4030 C   0  0  0  0  0  0  0  0  0  0  0  0
  143.8440   73.2290  219.4380 C   0  0  0  0  0  0  0  0  0  0  0  0
  144.2710   74.2220  220.4630 C   0  0  0  0  0  0  0  0  0  0  0  0
  145.7290   74.0620  220.8460 C   0  0  0  0  0  0  0  0  0  0  0  0
  146.1700   72.7000  220.8980 N   0  0  0  0  0  0  0  0  0  0  0  0
  145.9400   71.9360  219.7100 C   0  0  0  0  0  0  0  0  0  0  0  0
  145.0310   72.6440  218.7200 C   0  0  0  0  0  0  0  0  0  0  0  0
  140.7220   74.3110  220.0750 N   0  0  0  0  0  0  0  0  0  0  0  0
  140.5190   74.8670  221.2800 C   0  0  0  0  0  0  0  0  0  0  0  0
  140.5570   76.2870  221.4880 N   0  0  0  0  0  0  0  0  0  0  0  0
  140.0920   77.2010  220.4780 C   0  0  0  0  0  0  0  0  0  0  0  0
  141.0520   78.3150  220.1770 C   0  0  0  0  0  0  0  0  0  0  0  0
  141.4440   78.9150  221.4840 C   0  0  0  0  0  0  0  0  0  0  0  0
  141.8060   80.2480  221.4710 C   0  0  0  0  0  0  0  0  0  0  0  0
  142.1850   80.9040  222.6150 C   0  0  0  0  0  0  0  0  0  0  0  0
  142.1980   80.2010  223.7920 C   0  0  0  0  0  0  0  0  0  0  0  0
  141.8350   78.8630  223.8030 C   0  0  0  0  0  0  0  0  0  0  0  0
  141.4530   78.1960  222.6630 C   0  0  0  0  0  0  0  0  0  0  0  0
  141.0770   76.7690  222.7410 C   0  0  0  0  0  0  0  0  0  0  0  0
  140.2740   74.0350  222.3080 N   0  0  0  0  0  0  0  0  0  0  0  0
  141.0060   71.6180  224.2460 C   0  0  0  0  0  0  0  0  0  0  0  0
  139.1745   69.1345  228.5650 H   0  0  0  0  0  0  0  0  0  0  0  0
  141.0217   70.7418  228.7871 H   0  0  0  0  0  0  0  0  0  0  0  0
  141.9043   71.9236  226.7848 H   0  0  0  0  0  0  0  0  0  0  0  0
  138.1362   68.6435  226.3496 H   0  0  0  0  0  0  0  0  0  0  0  0
  139.6578   69.2730  223.3469 H   0  0  0  0  0  0  0  0  0  0  0  0
  138.0049   69.2225  223.9777 H   0  0  0  0  0  0  0  0  0  0  0  0
  138.2032   71.1394  222.4098 H   0  0  0  0  0  0  0  0  0  0  0  0
  138.0313   71.7974  224.0542 H   0  0  0  0  0  0  0  0  0  0  0  0
  140.1620   71.7400  218.2320 H   0  0  0  0  0  0  0  0  0  0  0  0
  142.6596   71.7974  217.6328 H   0  0  0  0  0  0  0  0  0  0  0  0
  141.7148   73.0659  216.7730 H   0  0  0  0  0  0  0  0  0  0  0  0
  143.4631   74.2814  217.6227 H   0  0  0  0  0  0  0  0  0  0  0  0
  142.1921   74.4465  218.9236 H   0  0  0  0  0  0  0  0  0  0  0  0
  143.3102   72.4584  220.0136 H   0  0  0  0  0  0  0  0  0  0  0  0
  144.1202   75.2341  220.0595 H   0  0  0  0  0  0  0  0  0  0  0  0
  143.6654   74.0554  221.3660 H   0  0  0  0  0  0  0  0  0  0  0  0
  146.3422   74.5964  220.1054 H   0  0  0  0  0  0  0  0  0  0  0  0
  145.8391   74.4719  221.8608 H   0  0  0  0  0  0  0  0  0  0  0  0
  145.7800   72.2310  221.7370 H   0  0  0  0  0  0  0  0  0  0  0  0
  146.9075   71.7439  219.2232 H   0  0  0  0  0  0  0  0  0  0  0  0
  145.4403   71.0027  220.0087 H   0  0  0  0  0  0  0  0  0  0  0  0
  145.5907   73.4508  218.2241 H   0  0  0  0  0  0  0  0  0  0  0  0
  144.6788   71.9193  217.9711 H   0  0  0  0  0  0  0  0  0  0  0  0
  139.9180   76.6340  219.5516 H   0  0  0  0  0  0  0  0  0  0  0  0
  139.1745   77.6667  220.8670 H   0  0  0  0  0  0  0  0  0  0  0  0
  141.9395   77.9202  219.6608 H   0  0  0  0  0  0  0  0  0  0  0  0
  140.5885   79.0674  219.5220 H   0  0  0  0  0  0  0  0  0  0  0  0
  141.7900   80.7980  220.5185 H   0  0  0  0  0  0  0  0  0  0  0  0
  142.4708   81.9659  222.5885 H   0  0  0  0  0  0  0  0  0  0  0  0
  142.4962   80.6981  224.7268 H   0  0  0  0  0  0  0  0  0  0  0  0
  141.8533   78.3159  224.7571 H   0  0  0  0  0  0  0  0  0  0  0  0
  141.9667   76.1798  223.0082 H   0  0  0  0  0  0  0  0  0  0  0  0
  140.2907   76.6623  223.5028 H   0  0  0  0  0  0  0  0  0  0  0  0
  141.7914   70.9966  223.7911 H   0  0  0  0  0  0  0  0  0  0  0  0
  141.3892   72.6027  224.5520 H   0  0  0  0  0  0  0  0  0  0  0  0
  1  2  2  0
  2  3  1  0
  3  4  2  0
  4  5  1  0
  5  6  2  0
  5  7  1  0
  7  8  1  0
  8  9  1  0
  9 10  1  0
 10 11  2  0
 11 12  1  0
 12 13  1  0
 13 14  1  0
 14 15  1  0
 15 16  1  0
 16 17  1  0
 17 18  1  0
 18 19  1  0
 19 20  1  0
 20 21  1  0
 12 22  2  0
 22 23  1  0
 23 24  1  0
 24 25  1  0
 25 26  1  0
 26 27  1  0
 27 28  2  0
 28 29  1  0
 29 30  2  0
 30 31  1  0
 31 32  2  0
 32 33  1  0
 23 34  2  0
  9 35  1  0
  6  1  1  0
 34 10  1  0
 35  4  1  0
 21 16  1  0
 33 24  1  0
 32 27  1  0
  1 36  1  0
  2 37  1  0
  3 38  1  0
  6 39  1  0
  7 40  1  0
  7 41  1  0
  8 42  1  0
  8 43  1  0
 13 44  1  0
 14 45  1  0
 14 46  1  0
 15 47  1  0
 15 48  1  0
 16 49  1  0
 17 50  1  0
 17 51  1  0
 18 52  1  0
 18 53  1  0
 19 54  1  0
 20 55  1  0
 20 56  1  0
 21 57  1  0
 21 58  1  0
 25 59  1  0
 25 60  1  0
 26 61  1  0
 26 62  1  0
 28 63  1  0
 29 64  1  0
 30 65  1  0
 31 66  1  0
 33 67  1  0
 33 68  1  0
 35 69  1  0
 35 70  1  0
M  END
>  <smiles>  (4) 
c1ccc2c(c1)CCN(c1nc(NCCC3CCNCC3)nc(N3CCc4ccccc4C3)n1)C2

>  <score_type>  (4) 
oracle

>  <origin>  (4) 
autodockgpu

>  <m_score__min__energy>  (4) 
-10.140000000000001

>  <m_primary>  (4) 
energy

>  <rmsd>  (4) 
5.700063009795897

>  <m_score__min__rmsd>  (4) 
5.700063009795897

>  <meeko>  (4) 
{"free_energy": -10.06, "intermolecular_energy": -11.85, "internal_energy": -1.34, "cluster_size": 43, "cluster_id": 1, "rank_in_cluster": 2}

>  <energy>  (4) 
-9.9

>  <cluster_rmsd>  (4) 
1.42

>  <cluster>  (4) 
1

$$$$

     RDKit          3D

 70 75  0  0  0  0  0  0  0  0999 V2000
  139.5690   69.8520  227.8100 C   0  0  0  0  0  0  0  0  0  0  0  0
  140.4920   70.8710  227.9370 C   0  0  0  0  0  0  0  0  0  0  0  0
  140.9630   71.5240  226.8180 C   0  0  0  0  0  0  0  0  0  0  0  0
  140.4950   71.1400  225.5760 C   0  0  0  0  0  0  0  0  0  0  0  0
  139.5660   70.1120  225.4740 C   0  0  0  0  0  0  0  0  0  0  0  0
  139.0820   69.4450  226.5790 C   0  0  0  0  0  0  0  0  0  0  0  0
  139.1220   69.7720  224.0800 C   0  0  0  0  0  0  0  0  0  0  0  0
  138.7580   71.1000  223.4250 C   0  0  0  0  0  0  0  0  0  0  0  0
  139.9630   71.8640  223.3190 N   0  0  0  0  0  0  0  0  0  0  0  0
  140.1820   72.6870  222.1850 C   0  0  0  0  0  0  0  0  0  0  0  0
  140.3130   72.1490  220.9760 N   0  0  0  0  0  0  0  0  0  0  0  0
  140.5240   72.9140  219.8640 C   0  0  0  0  0  0  0  0  0  0  0  0
  140.6560   72.3070  218.5780 N   0  0  0  0  0  0  0  0  0  0  0  0
  141.4440   72.8760  217.5060 C   0  0  0  0  0  0  0  0  0  0  0  0
  142.4810   73.7910  218.0670 C   0  0  0  0  0  0  0  0  0  0  0  0
  143.7890   73.0990  218.3750 C   0  0  0  0  0  0  0  0  0  0  0  0
  143.6770   71.6300  218.5940 C   0  0  0  0  0  0  0  0  0  0  0  0
  144.6000   71.1410  219.6930 C   0  0  0  0  0  0  0  0  0  0  0  0
  145.8690   71.8050  219.7230 N   0  0  0  0  0  0  0  0  0  0  0  0
  145.8110   73.2330  219.8000 C   0  0  0  0  0  0  0  0  0  0  0  0
  144.4140   73.7800  219.5630 C   0  0  0  0  0  0  0  0  0  0  0  0
  140.5970   74.2440  220.0370 N   0  0  0  0  0  0  0  0  0  0  0  0
  140.4710   74.8310  221.2380 C   0  0  0  0  0  0  0  0  0  0  0  0
  140.5500   76.2540  221.4100 N   0  0  0  0  0  0  0  0  0  0  0  0
  140.3160   77.1520  220.3100 C   0  0  0  0  0  0  0  0  0  0  0  0
  141.3720   78.2060  220.1490 C   0  0  0  0  0  0  0  0  0  0  0  0
  141.5670   78.8330  221.4870 C   0  0  0  0  0  0  0  0  0  0  0  0
  141.9970   80.1460  221.5010 C   0  0  0  0  0  0  0  0  0  0  0  0
  142.2100   80.8240  222.6740 C   0  0  0  0  0  0  0  0  0  0  0  0
  141.9830   80.1640  223.8550 C   0  0  0  0  0  0  0  0  0  0  0  0
  141.5510   78.8470  223.8400 C   0  0  0  0  0  0  0  0  0  0  0  0
  141.3340   78.1580  222.6700 C   0  0  0  0  0  0  0  0  0  0  0  0
  140.8730   76.7560  222.7210 C   0  0  0  0  0  0  0  0  0  0  0  0
  140.2640   74.0280  222.2970 N   0  0  0  0  0  0  0  0  0  0  0  0
  140.9690   71.8070  224.3570 C   0  0  0  0  0  0  0  0  0  0  0  0
  139.2081   69.3461  228.7176 H   0  0  0  0  0  0  0  0  0  0  0  0
  140.8527   71.1627  228.9344 H   0  0  0  0  0  0  0  0  0  0  0  0
  141.6985   72.3365  226.9122 H   0  0  0  0  0  0  0  0  0  0  0  0
  138.3471   68.6316  226.4878 H   0  0  0  0  0  0  0  0  0  0  0  0
  139.9372   69.2827  223.5269 H   0  0  0  0  0  0  0  0  0  0  0  0
  138.2704   69.0757  224.0846 H   0  0  0  0  0  0  0  0  0  0  0  0
  138.3345   70.9235  222.4252 H   0  0  0  0  0  0  0  0  0  0  0  0
  138.0066   71.6370  224.0225 H   0  0  0  0  0  0  0  0  0  0  0  0
  140.1380   71.3980  218.4300 H   0  0  0  0  0  0  0  0  0  0  0  0
  141.9360   72.0670  216.9462 H   0  0  0  0  0  0  0  0  0  0  0  0
  140.7841   73.4453  216.8348 H   0  0  0  0  0  0  0  0  0  0  0  0
  142.6731   74.5902  217.3360 H   0  0  0  0  0  0  0  0  0  0  0  0
  142.0890   74.1822  219.0174 H   0  0  0  0  0  0  0  0  0  0  0  0
  144.4278   73.1914  217.4843 H   0  0  0  0  0  0  0  0  0  0  0  0
  142.6395   71.3915  218.8710 H   0  0  0  0  0  0  0  0  0  0  0  0
  143.9688   71.1269  217.6603 H   0  0  0  0  0  0  0  0  0  0  0  0
  144.1020   71.3016  220.6606 H   0  0  0  0  0  0  0  0  0  0  0  0
  144.8003   70.0781  219.4926 H   0  0  0  0  0  0  0  0  0  0  0  0
  146.4570   71.4860  218.9310 H   0  0  0  0  0  0  0  0  0  0  0  0
  146.1452   73.5447  220.8006 H   0  0  0  0  0  0  0  0  0  0  0  0
  146.4617   73.6336  219.0087 H   0  0  0  0  0  0  0  0  0  0  0  0
  143.7955   73.5980  220.4543 H   0  0  0  0  0  0  0  0  0  0  0  0
  144.4778   74.8606  219.3674 H   0  0  0  0  0  0  0  0  0  0  0  0
  140.2731   76.5606  219.3835 H   0  0  0  0  0  0  0  0  0  0  0  0
  139.3722   77.6759  220.5213 H   0  0  0  0  0  0  0  0  0  0  0  0
  142.3119   77.7500  219.8046 H   0  0  0  0  0  0  0  0  0  0  0  0
  141.0686   78.9560  219.4037 H   0  0  0  0  0  0  0  0  0  0  0  0
  142.1733   80.6615  220.5454 H   0  0  0  0  0  0  0  0  0  0  0  0
  142.5536   81.8689  222.6680 H   0  0  0  0  0  0  0  0  0  0  0  0
  142.1437   80.6796  224.8133 H   0  0  0  0  0  0  0  0  0  0  0  0
  141.3756   78.3351  224.7977 H   0  0  0  0  0  0  0  0  0  0  0  0
  141.6700   76.1341  223.1546 H   0  0  0  0  0  0  0  0  0  0  0  0
  139.9629   76.7162  223.3376 H   0  0  0  0  0  0  0  0  0  0  0  0
  141.8400   71.2566  223.9718 H   0  0  0  0  0  0  0  0  0  0  0  0
  141.2252   72.8425  224.6256 H   0  0  0  0  0  0  0  0  0  0  0  0
  1  2  2  0
  2  3  1  0
  3  4  2  0
  4  5  1  0
  5  6  2  0
  5  7  1  0
  7  8  1  0
  8  9  1  0
  9 10  1  0
 10 11  2  0
 11 12  1  0
 12 13  1  0
 13 14  1  0
 14 15  1  0
 15 16  1  0
 16 17  1  0
 17 18  1  0
 18 19  1  0
 19 20  1  0
 20 21  1  0
 12 22  2  0
 22 23  1  0
 23 24  1  0
 24 25  1  0
 25 26  1  0
 26 27  1  0
 27 28  2  0
 28 29  1  0
 29 30  2  0
 30 31  1  0
 31 32  2  0
 32 33  1  0
 23 34  2  0
  9 35  1  0
  6  1  1  0
 34 10  1  0
 35  4  1  0
 21 16  1  0
 33 24  1  0
 32 27  1  0
  1 36  1  0
  2 37  1  0
  3 38  1  0
  6 39  1  0
  7 40  1  0
  7 41  1  0
  8 42  1  0
  8 43  1  0
 13 44  1  0
 14 45  1  0
 14 46  1  0
 15 47  1  0
 15 48  1  0
 16 49  1  0
 17 50  1  0
 17 51  1  0
 18 52  1  0
 18 53  1  0
 19 54  1  0
 20 55  1  0
 20 56  1  0
 21 57  1  0
 21 58  1  0
 25 59  1  0
 25 60  1  0
 26 61  1  0
 26 62  1  0
 28 63  1  0
 29 64  1  0
 30 65  1  0
 31 66  1  0
 33 67  1  0
 33 68  1  0
 35 69  1  0
 35 70  1  0
M  END
>  <smiles>  (5) 
c1ccc2c(c1)CCN(c1nc(NCCC3CCNCC3)nc(N3CCc4ccccc4C3)n1)C2

>  <score_type>  (5) 
oracle

>  <origin>  (5) 
autodockgpu

>  <m_score__min__energy>  (5) 
-10.140000000000001

>  <m_primary>  (5) 
energy

>  <rmsd>  (5) 
6.527033497345428

>  <m_score__min__rmsd>  (5) 
6.527033497345428

>  <meeko>  (5) 
{"free_energy": -9.01, "intermolecular_energy": -10.8, "internal_energy": -1.32, "cluster_size": 43, "cluster_id": 1, "rank_in_cluster": 34}

>  <energy>  (5) 
-9.88

>  <cluster_rmsd>  (5) 
0.9

>  <cluster>  (5) 
1

$$$$

     RDKit          3D

 70 75  0  0  0  0  0  0  0  0999 V2000
  139.6110   70.0150  228.3280 C   0  0  0  0  0  0  0  0  0  0  0  0
  140.4830   71.0860  228.3460 C   0  0  0  0  0  0  0  0  0  0  0  0
  140.9700   71.6040  227.1650 C   0  0  0  0  0  0  0  0  0  0  0  0
  140.5690   71.0340  225.9710 C   0  0  0  0  0  0  0  0  0  0  0  0
  139.6900   69.9590  225.9800 C   0  0  0  0  0  0  0  0  0  0  0  0
  139.1910   69.4240  227.1480 C   0  0  0  0  0  0  0  0  0  0  0  0
  139.3180   69.4130  224.6300 C   0  0  0  0  0  0  0  0  0  0  0  0
  138.9230   70.6220  223.7880 C   0  0  0  0  0  0  0  0  0  0  0  0
  140.0980   71.4220  223.6200 N   0  0  0  0  0  0  0  0  0  0  0  0
  140.3270   72.0950  222.3930 C   0  0  0  0  0  0  0  0  0  0  0  0
  140.5350   71.4060  221.2740 N   0  0  0  0  0  0  0  0  0  0  0  0
  140.7580   72.0240  220.0770 C   0  0  0  0  0  0  0  0  0  0  0  0
  140.9740   71.2560  218.8920 N   0  0  0  0  0  0  0  0  0  0  0  0
  142.1220   70.3970  218.6980 C   0  0  0  0  0  0  0  0  0  0  0  0
  143.1110   70.6130  219.7950 C   0  0  0  0  0  0  0  0  0  0  0  0
  143.9390   71.8650  219.6180 C   0  0  0  0  0  0  0  0  0  0  0  0
  145.4010   71.6240  219.4590 C   0  0  0  0  0  0  0  0  0  0  0  0
  146.2370   72.6750  220.1620 C   0  0  0  0  0  0  0  0  0  0  0  0
  145.6870   73.9960  220.0930 N   0  0  0  0  0  0  0  0  0  0  0  0
  144.3390   74.1230  220.5550 C   0  0  0  0  0  0  0  0  0  0  0  0
  143.6630   72.7810  220.7800 C   0  0  0  0  0  0  0  0  0  0  0  0
  140.7600   73.3660  220.0680 N   0  0  0  0  0  0  0  0  0  0  0  0
  140.5540   74.1030  221.1720 C   0  0  0  0  0  0  0  0  0  0  0  0
  140.5590   75.5380  221.1500 N   0  0  0  0  0  0  0  0  0  0  0  0
  140.4640   76.2650  219.9110 C   0  0  0  0  0  0  0  0  0  0  0  0
  141.4960   77.3440  219.7570 C   0  0  0  0  0  0  0  0  0  0  0  0
  141.4650   78.1560  221.0070 C   0  0  0  0  0  0  0  0  0  0  0  0
  141.8440   79.4800  220.8970 C   0  0  0  0  0  0  0  0  0  0  0  0
  141.8530   80.3210  221.9800 C   0  0  0  0  0  0  0  0  0  0  0  0
  141.4720   79.8160  223.1970 C   0  0  0  0  0  0  0  0  0  0  0  0
  141.0920   78.4870  223.3060 C   0  0  0  0  0  0  0  0  0  0  0  0
  141.0790   77.6350  222.2270 C   0  0  0  0  0  0  0  0  0  0  0  0
  140.6620   76.2300  222.4090 C   0  0  0  0  0  0  0  0  0  0  0  0
  140.3400   73.4410  222.3230 N   0  0  0  0  0  0  0  0  0  0  0  0
  141.0620   71.5540  224.6900 C   0  0  0  0  0  0  0  0  0  0  0  0
  139.2374   69.6179  229.2834 H   0  0  0  0  0  0  0  0  0  0  0  0
  140.7899   71.5270  229.3059 H   0  0  0  0  0  0  0  0  0  0  0  0
  141.6656   72.4561  227.1725 H   0  0  0  0  0  0  0  0  0  0  0  0
  138.4953   68.5719  227.1432 H   0  0  0  0  0  0  0  0  0  0  0  0
  140.1756   68.8942  224.1769 H   0  0  0  0  0  0  0  0  0  0  0  0
  138.4982   68.6829  224.7001 H   0  0  0  0  0  0  0  0  0  0  0  0
  138.5479   70.2925  222.8078 H   0  0  0  0  0  0  0  0  0  0  0  0
  138.1255   71.1976  224.2806 H   0  0  0  0  0  0  0  0  0  0  0  0
  140.2420   71.3400  218.1350 H   0  0  0  0  0  0  0  0  0  0  0  0
  141.7961   69.3464  218.7027 H   0  0  0  0  0  0  0  0  0  0  0  0
  142.5938   70.6363  217.7336 H   0  0  0  0  0  0  0  0  0  0  0  0
  142.5651   70.6876  220.7471 H   0  0  0  0  0  0  0  0  0  0  0  0
  143.8049   69.7596  219.7797 H   0  0  0  0  0  0  0  0  0  0  0  0
  143.6355   72.3284  218.6676 H   0  0  0  0  0  0  0  0  0  0  0  0
  145.6449   70.6377  219.8807 H   0  0  0  0  0  0  0  0  0  0  0  0
  145.6350   71.6707  218.3852 H   0  0  0  0  0  0  0  0  0  0  0  0
  146.3288   72.3930  221.2213 H   0  0  0  0  0  0  0  0  0  0  0  0
  147.2088   72.7065  219.6476 H   0  0  0  0  0  0  0  0  0  0  0  0
  145.8030   74.3800  219.1370 H   0  0  0  0  0  0  0  0  0  0  0  0
  144.3442   74.6772  221.5052 H   0  0  0  0  0  0  0  0  0  0  0  0
  143.7712   74.6525  219.7758 H   0  0  0  0  0  0  0  0  0  0  0  0
  144.0530   72.3267  221.7028 H   0  0  0  0  0  0  0  0  0  0  0  0
  142.5774   72.9338  220.8697 H   0  0  0  0  0  0  0  0  0  0  0  0
  140.5820   75.5522  219.0815 H   0  0  0  0  0  0  0  0  0  0  0  0
  139.4818   76.7603  219.9065 H   0  0  0  0  0  0  0  0  0  0  0  0
  142.4921   76.8978  219.6207 H   0  0  0  0  0  0  0  0  0  0  0  0
  141.2835   77.9687  218.8769 H   0  0  0  0  0  0  0  0  0  0  0  0
  142.1467   79.8701  219.9140 H   0  0  0  0  0  0  0  0  0  0  0  0
  142.1577   81.3728  221.8755 H   0  0  0  0  0  0  0  0  0  0  0  0
  141.4679   80.4646  224.0855 H   0  0  0  0  0  0  0  0  0  0  0  0
  140.7902   78.1006  224.2907 H   0  0  0  0  0  0  0  0  0  0  0  0
  141.4038   75.7166  223.0384 H   0  0  0  0  0  0  0  0  0  0  0  0
  139.6704   76.2253  222.8852 H   0  0  0  0  0  0  0  0  0  0  0  0
  141.9714   71.0005  224.4132 H   0  0  0  0  0  0  0  0  0  0  0  0
  141.2608   72.6275  224.8243 H   0  0  0  0  0  0  0  0  0  0  0  0
  1  2  2  0
  2  3  1  0
  3  4  2  0
  4  5  1  0
  5  6  2  0
  5  7  1  0
  7  8  1  0
  8  9  1  0
  9 10  1  0
 10 11  2  0
 11 12  1  0
 12 13  1  0
 13 14  1  0
 14 15  1  0
 15 16  1  0
 16 17  1  0
 17 18  1  0
 18 19  1  0
 19 20  1  0
 20 21  1  0
 12 22  2  0
 22 23  1  0
 23 24  1  0
 24 25  1  0
 25 26  1  0
 26 27  1  0
 27 28  2  0
 28 29  1  0
 29 30  2  0
 30 31  1  0
 31 32  2  0
 32 33  1  0
 23 34  2  0
  9 35  1  0
  6  1  1  0
 34 10  1  0
 35  4  1  0
 21 16  1  0
 33 24  1  0
 32 27  1  0
  1 36  1  0
  2 37  1  0
  3 38  1  0
  6 39  1  0
  7 40  1  0
  7 41  1  0
  8 42  1  0
  8 43  1  0
 13 44  1  0
 14 45  1  0
 14 46  1  0
 15 47  1  0
 15 48  1  0
 16 49  1  0
 17 50  1  0
 17 51  1  0
 18 52  1  0
 18 53  1  0
 19 54  1  0
 20 55  1  0
 20 56  1  0
 21 57  1  0
 21 58  1  0
 25 59  1  0
 25 60  1  0
 26 61  1  0
 26 62  1  0
 28 63  1  0
 29 64  1  0
 30 65  1  0
 31 66  1  0
 33 67  1  0
 33 68  1  0
 35 69  1  0
 35 70  1  0
M  END
>  <smiles>  (6) 
c1ccc2c(c1)CCN(c1nc(NCCC3CCNCC3)nc(N3CCc4ccccc4C3)n1)C2

>  <score_type>  (6) 
oracle

>  <origin>  (6) 
autodockgpu

>  <m_score__min__energy>  (6) 
-10.140000000000001

>  <m_primary>  (6) 
energy

>  <rmsd>  (6) 
6.873750283736011

>  <m_score__min__rmsd>  (6) 
6.873750283736011

>  <meeko>  (6) 
{"free_energy": -9.85, "intermolecular_energy": -11.64, "internal_energy": -1.57, "cluster_size": 43, "cluster_id": 1, "rank_in_cluster": 6}

>  <energy>  (6) 
-9.85

>  <cluster_rmsd>  (6) 
0.36

>  <cluster>  (6) 
1

$$$$

     RDKit          3D

 70 75  0  0  0  0  0  0  0  0999 V2000
  139.6950   69.5000  228.2350 C   0  0  0  0  0  0  0  0  0  0  0  0
  140.5100   70.6100  228.3470 C   0  0  0  0  0  0  0  0  0  0  0  0
  140.9250   71.2820  227.2180 C   0  0  0  0  0  0  0  0  0  0  0  0
  140.5120   70.8250  225.9800 C   0  0  0  0  0  0  0  0  0  0  0  0
  139.6930   69.7070  225.8940 C   0  0  0  0  0  0  0  0  0  0  0  0
  139.2650   69.0190  227.0090 C   0  0  0  0  0  0  0  0  0  0  0  0
  139.3010   69.2930  224.5040 C   0  0  0  0  0  0  0  0  0  0  0  0
  138.8130   70.5640  223.8150 C   0  0  0  0  0  0  0  0  0  0  0  0
  139.9370   71.4420  223.7030 N   0  0  0  0  0  0  0  0  0  0  0  0
  140.0850   72.2580  222.5520 C   0  0  0  0  0  0  0  0  0  0  0  0
  140.3830   71.7160  221.3740 N   0  0  0  0  0  0  0  0  0  0  0  0
  140.5320   72.4750  220.2480 C   0  0  0  0  0  0  0  0  0  0  0  0
  140.8470   71.8620  218.9960 N   0  0  0  0  0  0  0  0  0  0  0  0
  141.9630   72.2690  218.1700 C   0  0  0  0  0  0  0  0  0  0  0  0
  143.2300   71.6870  218.7010 C   0  0  0  0  0  0  0  0  0  0  0  0
  144.2240   72.7290  219.1600 C   0  0  0  0  0  0  0  0  0  0  0  0
  145.4320   72.1770  219.8360 C   0  0  0  0  0  0  0  0  0  0  0  0
  145.8870   73.0430  220.9940 C   0  0  0  0  0  0  0  0  0  0  0  0
  145.7370   74.4480  220.7640 N   0  0  0  0  0  0  0  0  0  0  0  0
  144.4230   74.8710  220.3880 C   0  0  0  0  0  0  0  0  0  0  0  0
  143.5050   73.7090  220.0460 C   0  0  0  0  0  0  0  0  0  0  0  0
  140.3670   73.8010  220.3730 N   0  0  0  0  0  0  0  0  0  0  0  0
  140.0660   74.3920  221.5400 C   0  0  0  0  0  0  0  0  0  0  0  0
  139.8910   75.8110  221.6610 N   0  0  0  0  0  0  0  0  0  0  0  0
  140.9890   76.7180  221.4480 C   0  0  0  0  0  0  0  0  0  0  0  0
  141.1530   77.7420  222.5340 C   0  0  0  0  0  0  0  0  0  0  0  0
  139.8150   78.3600  222.7520 C   0  0  0  0  0  0  0  0  0  0  0  0
  139.8000   79.6600  223.2200 C   0  0  0  0  0  0  0  0  0  0  0  0
  138.6270   80.3300  223.4570 C   0  0  0  0  0  0  0  0  0  0  0  0
  137.4460   79.6750  223.2160 C   0  0  0  0  0  0  0  0  0  0  0  0
  137.4620   78.3710  222.7470 C   0  0  0  0  0  0  0  0  0  0  0  0
  138.6320   77.6900  222.5060 C   0  0  0  0  0  0  0  0  0  0  0  0
  138.5810   76.3010  222.0040 C   0  0  0  0  0  0  0  0  0  0  0  0
  139.9300   73.5960  222.6160 N   0  0  0  0  0  0  0  0  0  0  0  0
  140.9310   71.5100  224.7510 C   0  0  0  0  0  0  0  0  0  0  0  0
  139.3766   68.9803  229.1507 H   0  0  0  0  0  0  0  0  0  0  0  0
  140.8285   70.9583  229.3406 H   0  0  0  0  0  0  0  0  0  0  0  0
  141.5736   72.1666  227.3001 H   0  0  0  0  0  0  0  0  0  0  0  0
  138.6160   68.1344  226.9296 H   0  0  0  0  0  0  0  0  0  0  0  0
  140.1673   68.8759  223.9697 H   0  0  0  0  0  0  0  0  0  0  0  0
  138.5236   68.5149  224.5169 H   0  0  0  0  0  0  0  0  0  0  0  0
  138.4208   70.3243  222.8156 H   0  0  0  0  0  0  0  0  0  0  0  0
  138.0046   71.0359  224.3928 H   0  0  0  0  0  0  0  0  0  0  0  0
  140.2150   71.0760  218.6830 H   0  0  0  0  0  0  0  0  0  0  0  0
  141.8027   71.9149  217.1409 H   0  0  0  0  0  0  0  0  0  0  0  0
  142.0379   73.3664  218.1796 H   0  0  0  0  0  0  0  0  0  0  0  0
  142.9847   71.0391  219.5554 H   0  0  0  0  0  0  0  0  0  0  0  0
  143.7010   71.1297  217.8778 H   0  0  0  0  0  0  0  0  0  0  0  0
  144.6193   73.2254  218.2615 H   0  0  0  0  0  0  0  0  0  0  0  0
  145.1968   71.1720  220.2164 H   0  0  0  0  0  0  0  0  0  0  0  0
  146.2469   72.1454  219.0978 H   0  0  0  0  0  0  0  0  0  0  0  0
  145.2958   72.7726  221.8814 H   0  0  0  0  0  0  0  0  0  0  0  0
  146.9625   72.8554  221.1285 H   0  0  0  0  0  0  0  0  0  0  0  0
  146.4530   74.7760  220.0900 H   0  0  0  0  0  0  0  0  0  0  0  0
  143.9819   75.4328  221.2245 H   0  0  0  0  0  0  0  0  0  0  0  0
  144.5209   75.4922  219.4855 H   0  0  0  0  0  0  0  0  0  0  0  0
  143.1963   73.2036  220.9730 H   0  0  0  0  0  0  0  0  0  0  0  0
  142.6197   74.0918  219.5172 H   0  0  0  0  0  0  0  0  0  0  0  0
  141.9164   76.1299  221.3839 H   0  0  0  0  0  0  0  0  0  0  0  0
  140.7725   77.2686  220.5206 H   0  0  0  0  0  0  0  0  0  0  0  0
  141.5021   77.2598  223.4590 H   0  0  0  0  0  0  0  0  0  0  0  0
  141.8959   78.5018  222.2497 H   0  0  0  0  0  0  0  0  0  0  0  0
  140.7554   80.1718  223.4077 H   0  0  0  0  0  0  0  0  0  0  0  0
  138.6330   81.3647  223.8303 H   0  0  0  0  0  0  0  0  0  0  0  0
  136.4875   80.1842  223.3948 H   0  0  0  0  0  0  0  0  0  0  0  0
  136.5045   77.8626  222.5609 H   0  0  0  0  0  0  0  0  0  0  0  0
  138.1517   75.6553  222.7843 H   0  0  0  0  0  0  0  0  0  0  0  0
  137.9605   76.2868  221.0958 H   0  0  0  0  0  0  0  0  0  0  0  0
  141.8577   71.0424  224.3869 H   0  0  0  0  0  0  0  0  0  0  0  0
  141.0784   72.5717  224.9983 H   0  0  0  0  0  0  0  0  0  0  0  0
  1  2  2  0
  2  3  1  0
  3  4  2  0
  4  5  1  0
  5  6  2  0
  5  7  1  0
  7  8  1  0
  8  9  1  0
  9 10  1  0
 10 11  2  0
 11 12  1  0
 12 13  1  0
 13 14  1  0
 14 15  1  0
 15 16  1  0
 16 17  1  0
 17 18  1  0
 18 19  1  0
 19 20  1  0
 20 21  1  0
 12 22  2  0
 22 23  1  0
 23 24  1  0
 24 25  1  0
 25 26  1  0
 26 27  1  0
 27 28  2  0
 28 29  1  0
 29 30  2  0
 30 31  1  0
 31 32  2  0
 32 33  1  0
 23 34  2  0
  9 35  1  0
  6  1  1  0
 34 10  1  0
 35  4  1  0
 21 16  1  0
 33 24  1  0
 32 27  1  0
  1 36  1  0
  2 37  1  0
  3 38  1  0
  6 39  1  0
  7 40  1  0
  7 41  1  0
  8 42  1  0
  8 43  1  0
 13 44  1  0
 14 45  1  0
 14 46  1  0
 15 47  1  0
 15 48  1  0
 16 49  1  0
 17 50  1  0
 17 51  1  0
 18 52  1  0
 18 53  1  0
 19 54  1  0
 20 55  1  0
 20 56  1  0
 21 57  1  0
 21 58  1  0
 25 59  1  0
 25 60  1  0
 26 61  1  0
 26 62  1  0
 28 63  1  0
 29 64  1  0
 30 65  1  0
 31 66  1  0
 33 67  1  0
 33 68  1  0
 35 69  1  0
 35 70  1  0
M  END
>  <smiles>  (7) 
c1ccc2c(c1)CCN(c1nc(NCCC3CCNCC3)nc(N3CCc4ccccc4C3)n1)C2

>  <score_type>  (7) 
oracle

>  <origin>  (7) 
autodockgpu

>  <m_score__min__energy>  (7) 
-10.140000000000001

>  <m_primary>  (7) 
energy

>  <rmsd>  (7) 
6.129292519139919

>  <m_score__min__rmsd>  (7) 
6.129292519139919

>  <meeko>  (7) 
{"free_energy": -9.69, "intermolecular_energy": -11.47, "internal_energy": -1.39, "cluster_size": 43, "cluster_id": 1, "rank_in_cluster": 16}

>  <energy>  (7) 
-9.8

>  <cluster_rmsd>  (7) 
1.07

>  <cluster>  (7) 
1

$$$$

     RDKit          3D

 70 75  0  0  0  0  0  0  0  0999 V2000
  142.0920   80.3400  222.1230 C   0  0  0  0  0  0  0  0  0  0  0  0
  141.7890   79.8350  223.3720 C   0  0  0  0  0  0  0  0  0  0  0  0
  141.2870   78.5580  223.5010 C   0  0  0  0  0  0  0  0  0  0  0  0
  141.0950   77.7990  222.3610 C   0  0  0  0  0  0  0  0  0  0  0  0
  141.4090   78.3290  221.1160 C   0  0  0  0  0  0  0  0  0  0  0  0
  141.9120   79.6040  220.9640 C   0  0  0  0  0  0  0  0  0  0  0  0
  141.1650   77.4240  219.9430 C   0  0  0  0  0  0  0  0  0  0  0  0
  141.8070   76.0890  220.3080 C   0  0  0  0  0  0  0  0  0  0  0  0
  141.0780   75.5600  221.4200 N   0  0  0  0  0  0  0  0  0  0  0  0
  140.8540   74.1630  221.5190 C   0  0  0  0  0  0  0  0  0  0  0  0
  139.9370   73.6840  222.3560 N   0  0  0  0  0  0  0  0  0  0  0  0
  139.6980   72.3450  222.4740 C   0  0  0  0  0  0  0  0  0  0  0  0
  138.7020   71.8620  223.3790 N   0  0  0  0  0  0  0  0  0  0  0  0
  138.8180   70.6100  224.0940 C   0  0  0  0  0  0  0  0  0  0  0  0
  140.2510   70.2020  224.1800 C   0  0  0  0  0  0  0  0  0  0  0  0
  140.7900   70.1960  225.5920 C   0  0  0  0  0  0  0  0  0  0  0  0
  140.3340   69.0480  226.4250 C   0  0  0  0  0  0  0  0  0  0  0  0
  140.0690   69.4500  227.8620 C   0  0  0  0  0  0  0  0  0  0  0  0
  140.9880   70.4230  228.3720 N   0  0  0  0  0  0  0  0  0  0  0  0
  141.1080   71.6180  227.5960 C   0  0  0  0  0  0  0  0  0  0  0  0
  140.4360   71.5090  226.2370 C   0  0  0  0  0  0  0  0  0  0  0  0
  140.4290   71.5180  221.7100 N   0  0  0  0  0  0  0  0  0  0  0  0
  141.3650   71.9560  220.8530 C   0  0  0  0  0  0  0  0  0  0  0  0
  142.1410   71.0630  220.0400 N   0  0  0  0  0  0  0  0  0  0  0  0
  141.5160   70.0040  219.2900 C   0  0  0  0  0  0  0  0  0  0  0  0
  142.1680   68.6640  219.4710 C   0  0  0  0  0  0  0  0  0  0  0  0
  143.6290   68.8590  219.2510 C   0  0  0  0  0  0  0  0  0  0  0  0
  144.3370   67.7700  218.7810 C   0  0  0  0  0  0  0  0  0  0  0  0
  145.6870   67.8330  218.5430 C   0  0  0  0  0  0  0  0  0  0  0  0
  146.3320   69.0190  218.7820 C   0  0  0  0  0  0  0  0  0  0  0  0
  145.6210   70.1120  219.2530 C   0  0  0  0  0  0  0  0  0  0  0  0
  144.2680   70.0590  219.4960 C   0  0  0  0  0  0  0  0  0  0  0  0
  143.5670   71.2590  219.9980 C   0  0  0  0  0  0  0  0  0  0  0  0
  141.5580   73.2850  220.7770 N   0  0  0  0  0  0  0  0  0  0  0  0
  140.5630   76.4340  222.4510 C   0  0  0  0  0  0  0  0  0  0  0  0
  142.4902   81.3625  222.0461 H   0  0  0  0  0  0  0  0  0  0  0  0
  141.9489   80.4541  224.2671 H   0  0  0  0  0  0  0  0  0  0  0  0
  141.0434   78.1498  224.4930 H   0  0  0  0  0  0  0  0  0  0  0  0
  142.1575   80.0149  219.9736 H   0  0  0  0  0  0  0  0  0  0  0  0
  140.0853   77.2968  219.7753 H   0  0  0  0  0  0  0  0  0  0  0  0
  141.5899   77.8380  219.0167 H   0  0  0  0  0  0  0  0  0  0  0  0
  141.7485   75.3968  219.4551 H   0  0  0  0  0  0  0  0  0  0  0  0
  142.8683   76.2227  220.5643 H   0  0  0  0  0  0  0  0  0  0  0  0
  137.8490   72.4710  223.5100 H   0  0  0  0  0  0  0  0  0  0  0  0
  138.4123   70.7314  225.1092 H   0  0  0  0  0  0  0  0  0  0  0  0
  138.2533   69.8338  223.5568 H   0  0  0  0  0  0  0  0  0  0  0  0
  140.3504   69.1883  223.7646 H   0  0  0  0  0  0  0  0  0  0  0  0
  140.8340   70.9428  223.6132 H   0  0  0  0  0  0  0  0  0  0  0  0
  141.8805   70.0675  225.5271 H   0  0  0  0  0  0  0  0  0  0  0  0
  139.4061   68.6444  225.9936 H   0  0  0  0  0  0  0  0  0  0  0  0
  141.1359   68.2950  226.4285 H   0  0  0  0  0  0  0  0  0  0  0  0
  139.0533   69.8678  227.9229 H   0  0  0  0  0  0  0  0  0  0  0  0
  140.1909   68.5443  228.4743 H   0  0  0  0  0  0  0  0  0  0  0  0
  141.9110   69.9830  228.5460 H   0  0  0  0  0  0  0  0  0  0  0  0
  140.6439   72.4459  228.1520 H   0  0  0  0  0  0  0  0  0  0  0  0
  142.1799   71.7930  227.4218 H   0  0  0  0  0  0  0  0  0  0  0  0
  139.3451   71.5701  226.3640 H   0  0  0  0  0  0  0  0  0  0  0  0
  140.7834   72.3321  225.5952 H   0  0  0  0  0  0  0  0  0  0  0  0
  140.4668   69.9249  219.6108 H   0  0  0  0  0  0  0  0  0  0  0  0
  141.6136   70.2655  218.2260 H   0  0  0  0  0  0  0  0  0  0  0  0
  141.9856   68.2892  220.4890 H   0  0  0  0  0  0  0  0  0  0  0  0
  141.7584   67.9285  218.7630 H   0  0  0  0  0  0  0  0  0  0  0  0
  143.8040   66.8264  218.5923 H   0  0  0  0  0  0  0  0  0  0  0  0
  146.2366   66.9559  218.1706 H   0  0  0  0  0  0  0  0  0  0  0  0
  147.4136   69.1033  218.6000 H   0  0  0  0  0  0  0  0  0  0  0  0
  146.1573   71.0542  219.4389 H   0  0  0  0  0  0  0  0  0  0  0  0
  143.9262   71.4834  221.0132 H   0  0  0  0  0  0  0  0  0  0  0  0
  143.7790   72.0925  219.3122 H   0  0  0  0  0  0  0  0  0  0  0  0
  139.4677   76.4775  222.3594 H   0  0  0  0  0  0  0  0  0  0  0  0
  140.8767   76.0208  223.4210 H   0  0  0  0  0  0  0  0  0  0  0  0
  1  2  2  0
  2  3  1  0
  3  4  2  0
  4  5  1  0
  5  6  2  0
  5  7  1  0
  7  8  1  0
  8  9  1  0
  9 10  1  0
 10 11  2  0
 11 12  1  0
 12 13  1  0
 13 14  1  0
 14 15  1  0
 15 16  1  0
 16 17  1  0
 17 18  1  0
 18 19  1  0
 19 20  1  0
 20 21  1  0
 12 22  2  0
 22 23  1  0
 23 24  1  0
 24 25  1  0
 25 26  1  0
 26 27  1  0
 27 28  2  0
 28 29  1  0
 29 30  2  0
 30 31  1  0
 31 32  2  0
 32 33  1  0
 23 34  2  0
  9 35  1  0
  6  1  1  0
 34 10  1  0
 35  4  1  0
 21 16  1  0
 33 24  1  0
 32 27  1  0
  1 36  1  0
  2 37  1  0
  3 38  1  0
  6 39  1  0
  7 40  1  0
  7 41  1  0
  8 42  1  0
  8 43  1  0
 13 44  1  0
 14 45  1  0
 14 46  1  0
 15 47  1  0
 15 48  1  0
 16 49  1  0
 17 50  1  0
 17 51  1  0
 18 52  1  0
 18 53  1  0
 19 54  1  0
 20 55  1  0
 20 56  1  0
 21 57  1  0
 21 58  1  0
 25 59  1  0
 25 60  1  0
 26 61  1  0
 26 62  1  0
 28 63  1  0
 29 64  1  0
 30 65  1  0
 31 66  1  0
 33 67  1  0
 33 68  1  0
 35 69  1  0
 35 70  1  0
M  END
>  <smiles>  (8) 
c1ccc2c(c1)CCN(c1nc(NCCC3CCNCC3)nc(N3CCc4ccccc4C3)n1)C2

>  <score_type>  (8) 
oracle

>  <origin>  (8) 
autodockgpu

>  <m_score__min__energy>  (8) 
-10.140000000000001

>  <m_primary>  (8) 
energy

>  <rmsd>  (8) 
9.441157289391432

>  <m_score__min__rmsd>  (8) 
9.441157289391432

>  <meeko>  (8) 
{"free_energy": -9.88, "intermolecular_energy": -11.67, "internal_energy": -1.05, "cluster_size": 6, "cluster_id": 2, "rank_in_cluster": 3}

>  <energy>  (8) 
-9.79

>  <cluster_rmsd>  (8) 
1.53

>  <cluster>  (8) 
1

$$$$

     RDKit          3D

 70 75  0  0  0  0  0  0  0  0999 V2000
  139.5730   69.3700  228.1090 C   0  0  0  0  0  0  0  0  0  0  0  0
  140.4050   70.4550  228.3000 C   0  0  0  0  0  0  0  0  0  0  0  0
  140.8680   71.1730  227.2180 C   0  0  0  0  0  0  0  0  0  0  0  0
  140.4840   70.7850  225.9470 C   0  0  0  0  0  0  0  0  0  0  0  0
  139.6450   69.6900  225.7820 C   0  0  0  0  0  0  0  0  0  0  0  0
  139.1700   68.9580  226.8490 C   0  0  0  0  0  0  0  0  0  0  0  0
  139.2880   69.3530  224.3630 C   0  0  0  0  0  0  0  0  0  0  0  0
  138.8460   70.6650  223.7230 C   0  0  0  0  0  0  0  0  0  0  0  0
  139.9900   71.5240  223.6870 N   0  0  0  0  0  0  0  0  0  0  0  0
  140.1890   72.3920  222.5830 C   0  0  0  0  0  0  0  0  0  0  0  0
  140.6160   71.9140  221.4170 N   0  0  0  0  0  0  0  0  0  0  0  0
  140.8170   72.7230  220.3360 C   0  0  0  0  0  0  0  0  0  0  0  0
  141.2720   72.1780  219.0950 N   0  0  0  0  0  0  0  0  0  0  0  0
  141.6700   72.9920  217.9680 C   0  0  0  0  0  0  0  0  0  0  0  0
  142.7750   73.9120  218.3670 C   0  0  0  0  0  0  0  0  0  0  0  0
  143.7050   73.3200  219.4010 C   0  0  0  0  0  0  0  0  0  0  0  0
  144.1640   74.2790  220.4440 C   0  0  0  0  0  0  0  0  0  0  0  0
  145.6110   74.0530  220.8360 C   0  0  0  0  0  0  0  0  0  0  0  0
  145.9950   72.6740  220.8700 N   0  0  0  0  0  0  0  0  0  0  0  0
  145.7440   71.9380  219.6690 C   0  0  0  0  0  0  0  0  0  0  0  0
  144.8730   72.6980  218.6830 C   0  0  0  0  0  0  0  0  0  0  0  0
  140.5670   74.0330  220.4910 N   0  0  0  0  0  0  0  0  0  0  0  0
  140.1340   74.5590  221.6480 C   0  0  0  0  0  0  0  0  0  0  0  0
  139.8690   75.9620  221.8020 N   0  0  0  0  0  0  0  0  0  0  0  0
  140.9060   76.9420  221.6060 C   0  0  0  0  0  0  0  0  0  0  0  0
  141.0090   77.9490  222.7150 C   0  0  0  0  0  0  0  0  0  0  0  0
  139.6340   78.4750  222.9520 C   0  0  0  0  0  0  0  0  0  0  0  0
  139.5390   79.7600  223.4500 C   0  0  0  0  0  0  0  0  0  0  0  0
  138.3260   80.3470  223.7070 C   0  0  0  0  0  0  0  0  0  0  0  0
  137.1890   79.6230  223.4550 C   0  0  0  0  0  0  0  0  0  0  0  0
  137.2860   78.3340  222.9550 C   0  0  0  0  0  0  0  0  0  0  0  0
  138.4960   77.7360  222.6940 C   0  0  0  0  0  0  0  0  0  0  0  0
  138.5320   76.3590  222.1610 C   0  0  0  0  0  0  0  0  0  0  0  0
  139.9530   73.7160  222.6800 N   0  0  0  0  0  0  0  0  0  0  0  0
  140.9530   71.5200  224.7660 C   0  0  0  0  0  0  0  0  0  0  0  0
  139.2174   68.8128  228.9883 H   0  0  0  0  0  0  0  0  0  0  0  0
  140.6994   70.7475  229.3187 H   0  0  0  0  0  0  0  0  0  0  0  0
  141.5308   72.0388  227.3628 H   0  0  0  0  0  0  0  0  0  0  0  0
  138.5060   68.0924  226.7076 H   0  0  0  0  0  0  0  0  0  0  0  0
  140.1621   68.9445  223.8348 H   0  0  0  0  0  0  0  0  0  0  0  0
  138.4954   68.5917  224.3148 H   0  0  0  0  0  0  0  0  0  0  0  0
  138.4798   70.4819  222.7021 H   0  0  0  0  0  0  0  0  0  0  0  0
  138.0297   71.1253  224.2990 H   0  0  0  0  0  0  0  0  0  0  0  0
  141.3080   71.1250  219.0280 H   0  0  0  0  0  0  0  0  0  0  0  0
  142.0155   72.3402  217.1520 H   0  0  0  0  0  0  0  0  0  0  0  0
  140.8087   73.5875  217.6310 H   0  0  0  0  0  0  0  0  0  0  0  0
  143.3627   74.1604  217.4709 H   0  0  0  0  0  0  0  0  0  0  0  0
  142.3104   74.8007  218.8190 H   0  0  0  0  0  0  0  0  0  0  0  0
  143.1354   72.5636  219.9609 H   0  0  0  0  0  0  0  0  0  0  0  0
  144.0586   75.3024  220.0547 H   0  0  0  0  0  0  0  0  0  0  0  0
  143.5444   74.1244  221.3397 H   0  0  0  0  0  0  0  0  0  0  0  0
  146.2519   74.5730  220.1088 H   0  0  0  0  0  0  0  0  0  0  0  0
  145.7291   74.4423  221.8580 H   0  0  0  0  0  0  0  0  0  0  0  0
  145.5800   72.2100  221.6990 H   0  0  0  0  0  0  0  0  0  0  0  0
  146.7069   71.7136  219.1868 H   0  0  0  0  0  0  0  0  0  0  0  0
  145.2041   71.0215  219.9493 H   0  0  0  0  0  0  0  0  0  0  0  0
  145.4694   73.4887  218.2043 H   0  0  0  0  0  0  0  0  0  0  0  0
  144.4978   72.0001  217.9200 H   0  0  0  0  0  0  0  0  0  0  0  0
  141.8688   76.4161  221.5252 H   0  0  0  0  0  0  0  0  0  0  0  0
  140.6508   77.4985  220.6921 H   0  0  0  0  0  0  0  0  0  0  0  0
  141.3928   77.4690  223.6273 H   0  0  0  0  0  0  0  0  0  0  0  0
  141.7002   78.7613  222.4461 H   0  0  0  0  0  0  0  0  0  0  0  0
  140.4606   80.3277  223.6457 H   0  0  0  0  0  0  0  0  0  0  0  0
  138.2670   81.3710  224.1045 H   0  0  0  0  0  0  0  0  0  0  0  0
  136.2007   80.0650  223.6496 H   0  0  0  0  0  0  0  0  0  0  0  0
  136.3622   77.7696  222.7601 H   0  0  0  0  0  0  0  0  0  0  0  0
  138.1492   75.6697  222.9280 H   0  0  0  0  0  0  0  0  0  0  0  0
  137.9092   76.3254  221.2549 H   0  0  0  0  0  0  0  0  0  0  0  0
  141.8810   71.0514  224.4066 H   0  0  0  0  0  0  0  0  0  0  0  0
  141.1133   72.5651  225.0695 H   0  0  0  0  0  0  0  0  0  0  0  0
  1  2  2  0
  2  3  1  0
  3  4  2  0
  4  5  1  0
  5  6  2  0
  5  7  1  0
  7  8  1  0
  8  9  1  0
  9 10  1  0
 10 11  2  0
 11 12  1  0
 12 13  1  0
 13 14  1  0
 14 15  1  0
 15 16  1  0
 16 17  1  0
 17 18  1  0
 18 19  1  0
 19 20  1  0
 20 21  1  0
 12 22  2  0
 22 23  1  0
 23 24  1  0
 24 25  1  0
 25 26  1  0
 26 27  1  0
 27 28  2  0
 28 29  1  0
 29 30  2  0
 30 31  1  0
 31 32  2  0
 32 33  1  0
 23 34  2  0
  9 35  1  0
  6  1  1  0
 34 10  1  0
 35  4  1  0
 21 16  1  0
 33 24  1  0
 32 27  1  0
  1 36  1  0
  2 37  1  0
  3 38  1  0
  6 39  1  0
  7 40  1  0
  7 41  1  0
  8 42  1  0
  8 43  1  0
 13 44  1  0
 14 45  1  0
 14 46  1  0
 15 47  1  0
 15 48  1  0
 16 49  1  0
 17 50  1  0
 17 51  1  0
 18 52  1  0
 18 53  1  0
 19 54  1  0
 20 55  1  0
 20 56  1  0
 21 57  1  0
 21 58  1  0
 25 59  1  0
 25 60  1  0
 26 61  1  0
 26 62  1  0
 28 63  1  0
 29 64  1  0
 30 65  1  0
 31 66  1  0
 33 67  1  0
 33 68  1  0
 35 69  1  0
 35 70  1  0
M  END
>  <smiles>  (9) 
c1ccc2c(c1)CCN(c1nc(NCCC3CCNCC3)nc(N3CCc4ccccc4C3)n1)C2

>  <score_type>  (9) 
oracle

>  <origin>  (9) 
autodockgpu

>  <m_score__min__energy>  (9) 
-10.140000000000001

>  <m_primary>  (9) 
energy

>  <rmsd>  (9) 
5.545359316875996

>  <m_score__min__rmsd>  (9) 
5.545359316875996

>  <meeko>  (9) 
{"free_energy": -9.73, "intermolecular_energy": -11.52, "internal_energy": -1.29, "cluster_size": 43, "cluster_id": 1, "rank_in_cluster": 14}

>  <energy>  (9) 
-9.77

>  <cluster_rmsd>  (9) 
1.58

>  <cluster>  (9) 
1

$$$$

     RDKit          3D

 70 75  0  0  0  0  0  0  0  0999 V2000
  139.5830   69.8690  228.0210 C   0  0  0  0  0  0  0  0  0  0  0  0
  140.4070   70.9740  228.1150 C   0  0  0  0  0  0  0  0  0  0  0  0
  140.8380   71.6160  226.9730 C   0  0  0  0  0  0  0  0  0  0  0  0
  140.4290   71.1350  225.7430 C   0  0  0  0  0  0  0  0  0  0  0  0
  139.6000   70.0230  225.6770 C   0  0  0  0  0  0  0  0  0  0  0  0
  139.1580   69.3650  226.8040 C   0  0  0  0  0  0  0  0  0  0  0  0
  139.2150   69.5810  224.2930 C   0  0  0  0  0  0  0  0  0  0  0  0
  138.7440   70.8400  223.5720 C   0  0  0  0  0  0  0  0  0  0  0  0
  139.8770   71.7050  223.4480 N   0  0  0  0  0  0  0  0  0  0  0  0
  140.0410   72.4930  222.2800 C   0  0  0  0  0  0  0  0  0  0  0  0
  140.1140   71.9180  221.0830 N   0  0  0  0  0  0  0  0  0  0  0  0
  140.2710   72.6490  219.9400 C   0  0  0  0  0  0  0  0  0  0  0  0
  140.3400   72.0030  218.6670 N   0  0  0  0  0  0  0  0  0  0  0  0
  141.5860   71.6390  218.0270 C   0  0  0  0  0  0  0  0  0  0  0  0
  142.7350   71.9810  218.9160 C   0  0  0  0  0  0  0  0  0  0  0  0
  143.3330   73.3390  218.6270 C   0  0  0  0  0  0  0  0  0  0  0  0
  143.7320   74.1110  219.8370 C   0  0  0  0  0  0  0  0  0  0  0  0
  143.4480   75.5930  219.6930 C   0  0  0  0  0  0  0  0  0  0  0  0
  143.6770   76.1020  218.3740 N   0  0  0  0  0  0  0  0  0  0  0  0
  142.9870   75.4180  217.3240 C   0  0  0  0  0  0  0  0  0  0  0  0
  142.3560   74.1150  217.7850 C   0  0  0  0  0  0  0  0  0  0  0  0
  140.3520   73.9830  220.0680 N   0  0  0  0  0  0  0  0  0  0  0  0
  140.2840   74.6070  221.2550 C   0  0  0  0  0  0  0  0  0  0  0  0
  140.3720   76.0340  221.3800 N   0  0  0  0  0  0  0  0  0  0  0  0
  140.0940   76.8990  220.2630 C   0  0  0  0  0  0  0  0  0  0  0  0
  141.1440   77.9450  220.0270 C   0  0  0  0  0  0  0  0  0  0  0  0
  141.3940   78.6120  221.3360 C   0  0  0  0  0  0  0  0  0  0  0  0
  141.8260   79.9240  221.2920 C   0  0  0  0  0  0  0  0  0  0  0  0
  142.0870   80.6370  222.4340 C   0  0  0  0  0  0  0  0  0  0  0  0
  141.9070   80.0150  223.6430 C   0  0  0  0  0  0  0  0  0  0  0  0
  141.4730   78.6990  223.6860 C   0  0  0  0  0  0  0  0  0  0  0  0
  141.2090   77.9750  222.5470 C   0  0  0  0  0  0  0  0  0  0  0  0
  140.7480   76.5750  222.6610 C   0  0  0  0  0  0  0  0  0  0  0  0
  140.1280   73.8370  222.3470 N   0  0  0  0  0  0  0  0  0  0  0  0
  140.8630   71.7880  224.5020 C   0  0  0  0  0  0  0  0  0  0  0  0
  139.2532   69.3725  228.9455 H   0  0  0  0  0  0  0  0  0  0  0  0
  140.7200   71.3426  229.1030 H   0  0  0  0  0  0  0  0  0  0  0  0
  141.4956   72.4953  227.0396 H   0  0  0  0  0  0  0  0  0  0  0  0
  138.5014   68.4848  226.7399 H   0  0  0  0  0  0  0  0  0  0  0  0
  140.0817   69.1443  223.7751 H   0  0  0  0  0  0  0  0  0  0  0  0
  138.4306   68.8102  224.3171 H   0  0  0  0  0  0  0  0  0  0  0  0
  138.3566   70.5811  222.5756 H   0  0  0  0  0  0  0  0  0  0  0  0
  137.9361   71.3324  224.1332 H   0  0  0  0  0  0  0  0  0  0  0  0
  139.4200   71.7940  218.1930 H   0  0  0  0  0  0  0  0  0  0  0  0
  141.5901   70.5575  217.8261 H   0  0  0  0  0  0  0  0  0  0  0  0
  141.6825   72.1941  217.0822 H   0  0  0  0  0  0  0  0  0  0  0  0
  142.3850   71.9687  219.9588 H   0  0  0  0  0  0  0  0  0  0  0  0
  143.5213   71.2339  218.7330 H   0  0  0  0  0  0  0  0  0  0  0  0
  144.2772   73.1744  218.0873 H   0  0  0  0  0  0  0  0  0  0  0  0
  143.1728   73.7261  220.7026 H   0  0  0  0  0  0  0  0  0  0  0  0
  144.8166   73.9877  219.9725 H   0  0  0  0  0  0  0  0  0  0  0  0
  142.3945   75.7709  219.9549 H   0  0  0  0  0  0  0  0  0  0  0  0
  144.1442   76.1183  220.3634 H   0  0  0  0  0  0  0  0  0  0  0  0
  144.6960   76.1630  218.1890 H   0  0  0  0  0  0  0  0  0  0  0  0
  142.1939   76.0754  216.9382 H   0  0  0  0  0  0  0  0  0  0  0  0
  143.7263   75.1714  216.5477 H   0  0  0  0  0  0  0  0  0  0  0  0
  141.4576   74.3359  218.3800 H   0  0  0  0  0  0  0  0  0  0  0  0
  142.0824   73.5151  216.9045 H   0  0  0  0  0  0  0  0  0  0  0  0
  140.0125   76.2798  219.3575 H   0  0  0  0  0  0  0  0  0  0  0  0
  139.1602   77.4314  220.4965 H   0  0  0  0  0  0  0  0  0  0  0  0
  142.0685   77.4763  219.6588 H   0  0  0  0  0  0  0  0  0  0  0  0
  140.8116   78.6726  219.2720 H   0  0  0  0  0  0  0  0  0  0  0  0
  141.9642   80.4095  220.3146 H   0  0  0  0  0  0  0  0  0  0  0  0
  142.4317   81.6803  222.3817 H   0  0  0  0  0  0  0  0  0  0  0  0
  142.1067   80.5597  224.5776 H   0  0  0  0  0  0  0  0  0  0  0  0
  141.3350   78.2172  224.6652 H   0  0  0  0  0  0  0  0  0  0  0  0
  141.5609   75.9647  223.0814 H   0  0  0  0  0  0  0  0  0  0  0  0
  139.8638   76.5564  223.3150 H   0  0  0  0  0  0  0  0  0  0  0  0
  141.7883   71.3042  224.1559 H   0  0  0  0  0  0  0  0  0  0  0  0
  141.0174   72.8537  224.7264 H   0  0  0  0  0  0  0  0  0  0  0  0
  1  2  2  0
  2  3  1  0
  3  4  2  0
  4  5  1  0
  5  6  2  0
  5  7  1  0
  7  8  1  0
  8  9  1  0
  9 10  1  0
 10 11  2  0
 11 12  1  0
 12 13  1  0
 13 14  1  0
 14 15  1  0
 15 16  1  0
 16 17  1  0
 17 18  1  0
 18 19  1  0
 19 20  1  0
 20 21  1  0
 12 22  2  0
 22 23  1  0
 23 24  1  0
 24 25  1  0
 25 26  1  0
 26 27  1  0
 27 28  2  0
 28 29  1  0
 29 30  2  0
 30 31  1  0
 31 32  2  0
 32 33  1  0
 23 34  2  0
  9 35  1  0
  6  1  1  0
 34 10  1  0
 35  4  1  0
 21 16  1  0
 33 24  1  0
 32 27  1  0
  1 36  1  0
  2 37  1  0
  3 38  1  0
  6 39  1  0
  7 40  1  0
  7 41  1  0
  8 42  1  0
  8 43  1  0
 13 44  1  0
 14 45  1  0
 14 46  1  0
 15 47  1  0
 15 48  1  0
 16 49  1  0
 17 50  1  0
 17 51  1  0
 18 52  1  0
 18 53  1  0
 19 54  1  0
 20 55  1  0
 20 56  1  0
 21 57  1  0
 21 58  1  0
 25 59  1  0
 25 60  1  0
 26 61  1  0
 26 62  1  0
 28 63  1  0
 29 64  1  0
 30 65  1  0
 31 66  1  0
 33 67  1  0
 33 68  1  0
 35 69  1  0
 35 70  1  0
M  END
>  <smiles>  (10) 
c1ccc2c(c1)CCN(c1nc(NCCC3CCNCC3)nc(N3CCc4ccccc4C3)n1)C2

>  <score_type>  (10) 
oracle

>  <origin>  (10) 
autodockgpu

>  <m_score__min__energy>  (10) 
-10.140000000000001

>  <m_primary>  (10) 
energy

>  <rmsd>  (10) 
4.943408423528422

>  <m_score__min__rmsd>  (10) 
4.943408423528422

>  <meeko>  (10) 
{"free_energy": -9.14, "intermolecular_energy": -10.93, "internal_energy": -2.04, "cluster_size": 43, "cluster_id": 1, "rank_in_cluster": 29}

>  <energy>  (10) 
-9.76

>  <cluster_rmsd>  (10) 
1.49

>  <cluster>  (10) 
1

$$$$

     RDKit          3D

 70 75  0  0  0  0  0  0  0  0999 V2000
  142.3050   80.6450  222.4790 C   0  0  0  0  0  0  0  0  0  0  0  0
  142.0410   80.0690  223.7060 C   0  0  0  0  0  0  0  0  0  0  0  0
  141.5150   78.7970  223.7760 C   0  0  0  0  0  0  0  0  0  0  0  0
  141.2580   78.1160  222.6010 C   0  0  0  0  0  0  0  0  0  0  0  0
  141.5320   78.7170  221.3790 C   0  0  0  0  0  0  0  0  0  0  0  0
  142.0590   79.9880  221.2850 C   0  0  0  0  0  0  0  0  0  0  0  0
  141.2170   77.8930  220.1640 C   0  0  0  0  0  0  0  0  0  0  0  0
  141.8420   76.5240  220.4170 C   0  0  0  0  0  0  0  0  0  0  0  0
  141.1480   75.9420  221.5240 N   0  0  0  0  0  0  0  0  0  0  0  0
  140.8950   74.5460  221.5460 C   0  0  0  0  0  0  0  0  0  0  0  0
  139.8980   74.0520  222.2750 N   0  0  0  0  0  0  0  0  0  0  0  0
  139.6290   72.7140  222.3170 C   0  0  0  0  0  0  0  0  0  0  0  0
  138.5470   72.2150  223.1060 N   0  0  0  0  0  0  0  0  0  0  0  0
  138.4580   70.8430  223.5570 C   0  0  0  0  0  0  0  0  0  0  0  0
  139.8190   70.2340  223.6080 C   0  0  0  0  0  0  0  0  0  0  0  0
  140.3870   70.1480  225.0060 C   0  0  0  0  0  0  0  0  0  0  0  0
  139.7440   69.1230  225.8750 C   0  0  0  0  0  0  0  0  0  0  0  0
  139.6010   69.5930  227.3090 C   0  0  0  0  0  0  0  0  0  0  0  0
  140.7030   70.3800  227.7750 N   0  0  0  0  0  0  0  0  0  0  0  0
  141.0280   71.5170  226.9690 C   0  0  0  0  0  0  0  0  0  0  0  0
  140.3100   71.5160  225.6310 C   0  0  0  0  0  0  0  0  0  0  0  0
  140.4150   71.9050  221.5900 N   0  0  0  0  0  0  0  0  0  0  0  0
  141.4320   72.3580  220.8400 C   0  0  0  0  0  0  0  0  0  0  0  0
  142.2660   71.4830  220.0660 N   0  0  0  0  0  0  0  0  0  0  0  0
  141.7100   70.3650  219.3480 C   0  0  0  0  0  0  0  0  0  0  0  0
  142.4340   69.0710  219.5810 C   0  0  0  0  0  0  0  0  0  0  0  0
  143.8850   69.3410  219.3680 C   0  0  0  0  0  0  0  0  0  0  0  0
  144.6580   68.2780  218.9420 C   0  0  0  0  0  0  0  0  0  0  0  0
  146.0040   68.4100  218.7140 C   0  0  0  0  0  0  0  0  0  0  0  0
  146.5790   69.6390  218.9180 C   0  0  0  0  0  0  0  0  0  0  0  0
  145.8020   70.7040  219.3440 C   0  0  0  0  0  0  0  0  0  0  0  0
  144.4520   70.5830  219.5770 C   0  0  0  0  0  0  0  0  0  0  0  0
  143.6790   71.7580  220.0300 C   0  0  0  0  0  0  0  0  0  0  0  0
  141.6510   73.6850  220.8350 N   0  0  0  0  0  0  0  0  0  0  0  0
  140.6970   76.7600  222.6290 C   0  0  0  0  0  0  0  0  0  0  0  0
  142.7253   81.6611  222.4490 H   0  0  0  0  0  0  0  0  0  0  0  0
  142.2512   80.6271  224.6303 H   0  0  0  0  0  0  0  0  0  0  0  0
  141.3034   78.3318  224.7501 H   0  0  0  0  0  0  0  0  0  0  0  0
  142.2728   80.4554  220.3125 H   0  0  0  0  0  0  0  0  0  0  0  0
  140.1285   77.7995  220.0362 H   0  0  0  0  0  0  0  0  0  0  0  0
  141.6121   78.3554  219.2475 H   0  0  0  0  0  0  0  0  0  0  0  0
  141.7313   75.8884  219.5261 H   0  0  0  0  0  0  0  0  0  0  0  0
  142.9161   76.6186  220.6347 H   0  0  0  0  0  0  0  0  0  0  0  0
  137.7880   72.9050  223.3570 H   0  0  0  0  0  0  0  0  0  0  0  0
  138.0097   70.8179  224.5612 H   0  0  0  0  0  0  0  0  0  0  0  0
  137.8326   70.2718  222.8552 H   0  0  0  0  0  0  0  0  0  0  0  0
  139.7617   69.2173  223.1919 H   0  0  0  0  0  0  0  0  0  0  0  0
  140.4877   70.8850  223.0257 H   0  0  0  0  0  0  0  0  0  0  0  0
  141.4303   69.8111  224.9168 H   0  0  0  0  0  0  0  0  0  0  0  0
  138.7444   68.8970  225.4754 H   0  0  0  0  0  0  0  0  0  0  0  0
  140.3873   68.2307  225.8757 H   0  0  0  0  0  0  0  0  0  0  0  0
  138.6861   70.1990  227.3851 H   0  0  0  0  0  0  0  0  0  0  0  0
  139.5643   68.6914  227.9381 H   0  0  0  0  0  0  0  0  0  0  0  0
  141.5300   69.7740  227.9360 H   0  0  0  0  0  0  0  0  0  0  0  0
  140.7472   72.4282  227.5176 H   0  0  0  0  0  0  0  0  0  0  0  0
  142.1082   71.4795  226.7646 H   0  0  0  0  0  0  0  0  0  0  0  0
  139.2551   71.7879  225.7835 H   0  0  0  0  0  0  0  0  0  0  0  0
  140.7906   72.2458  224.9628 H   0  0  0  0  0  0  0  0  0  0  0  0
  140.6635   70.2376  219.6621 H   0  0  0  0  0  0  0  0  0  0  0  0
  141.8046   70.5951  218.2765 H   0  0  0  0  0  0  0  0  0  0  0  0
  142.2615   68.7211  220.6095 H   0  0  0  0  0  0  0  0  0  0  0  0
  142.0744   68.2900  218.8949 H   0  0  0  0  0  0  0  0  0  0  0  0
  144.1812   67.2998  218.7814 H   0  0  0  0  0  0  0  0  0  0  0  0
  146.6063   67.5536  218.3767 H   0  0  0  0  0  0  0  0  0  0  0  0
  147.6561   69.7786  218.7434 H   0  0  0  0  0  0  0  0  0  0  0  0
  146.2819   71.6812  219.5015 H   0  0  0  0  0  0  0  0  0  0  0  0
  144.0138   72.0375  221.0398 H   0  0  0  0  0  0  0  0  0  0  0  0
  143.8512   72.5779  219.3172 H   0  0  0  0  0  0  0  0  0  0  0  0
  139.6002   76.8328  222.5872 H   0  0  0  0  0  0  0  0  0  0  0  0
  141.0399   76.2796  223.5573 H   0  0  0  0  0  0  0  0  0  0  0  0
  1  2  2  0
  2  3  1  0
  3  4  2  0
  4  5  1  0
  5  6  2  0
  5  7  1  0
  7  8  1  0
  8  9  1  0
  9 10  1  0
 10 11  2  0
 11 12  1  0
 12 13  1  0
 13 14  1  0
 14 15  1  0
 15 16  1  0
 16 17  1  0
 17 18  1  0
 18 19  1  0
 19 20  1  0
 20 21  1  0
 12 22  2  0
 22 23  1  0
 23 24  1  0
 24 25  1  0
 25 26  1  0
 26 27  1  0
 27 28  2  0
 28 29  1  0
 29 30  2  0
 30 31  1  0
 31 32  2  0
 32 33  1  0
 23 34  2  0
  9 35  1  0
  6  1  1  0
 34 10  1  0
 35  4  1  0
 21 16  1  0
 33 24  1  0
 32 27  1  0
  1 36  1  0
  2 37  1  0
  3 38  1  0
  6 39  1  0
  7 40  1  0
  7 41  1  0
  8 42  1  0
  8 43  1  0
 13 44  1  0
 14 45  1  0
 14 46  1  0
 15 47  1  0
 15 48  1  0
 16 49  1  0
 17 50  1  0
 17 51  1  0
 18 52  1  0
 18 53  1  0
 19 54  1  0
 20 55  1  0
 20 56  1  0
 21 57  1  0
 21 58  1  0
 25 59  1  0
 25 60  1  0
 26 61  1  0
 26 62  1  0
 28 63  1  0
 29 64  1  0
 30 65  1  0
 31 66  1  0
 33 67  1  0
 33 68  1  0
 35 69  1  0
 35 70  1  0
M  END
>  <smiles>  (11) 
c1ccc2c(c1)CCN(c1nc(NCCC3CCNCC3)nc(N3CCc4ccccc4C3)n1)C2

>  <score_type>  (11) 
oracle

>  <origin>  (11) 
autodockgpu

>  <m_score__min__energy>  (11) 
-10.140000000000001

>  <m_primary>  (11) 
energy

>  <rmsd>  (11) 
9.11501020301717

>  <m_score__min__rmsd>  (11) 
9.11501020301717

>  <meeko>  (11) 
{"free_energy": -9.78, "intermolecular_energy": -11.57, "internal_energy": -1.01, "cluster_size": 6, "cluster_id": 2, "rank_in_cluster": 5}

>  <energy>  (11) 
-9.76

>  <cluster_rmsd>  (11) 
1.22

>  <cluster>  (11) 
1

$$$$

     RDKit          3D

 70 75  0  0  0  0  0  0  0  0999 V2000
  139.6910   70.0670  228.3060 C   0  0  0  0  0  0  0  0  0  0  0  0
  140.6070   71.1010  228.3090 C   0  0  0  0  0  0  0  0  0  0  0  0
  141.0600   71.6290  227.1190 C   0  0  0  0  0  0  0  0  0  0  0  0
  140.5810   71.1060  225.9320 C   0  0  0  0  0  0  0  0  0  0  0  0
  139.6600   70.0670  225.9570 C   0  0  0  0  0  0  0  0  0  0  0  0
  139.1920   69.5230  227.1340 C   0  0  0  0  0  0  0  0  0  0  0  0
  139.2030   69.5710  224.6140 C   0  0  0  0  0  0  0  0  0  0  0  0
  138.8210   70.8160  223.8200 C   0  0  0  0  0  0  0  0  0  0  0  0
  140.0190   71.5710  223.6160 N   0  0  0  0  0  0  0  0  0  0  0  0
  140.2190   72.2650  222.3950 C   0  0  0  0  0  0  0  0  0  0  0  0
  140.3730   71.5960  221.2560 N   0  0  0  0  0  0  0  0  0  0  0  0
  140.5660   72.2350  220.0640 C   0  0  0  0  0  0  0  0  0  0  0  0
  140.7230   71.4870  218.8560 N   0  0  0  0  0  0  0  0  0  0  0  0
  141.7190   70.4520  218.6850 C   0  0  0  0  0  0  0  0  0  0  0  0
  142.8770   70.7040  219.5900 C   0  0  0  0  0  0  0  0  0  0  0  0
  143.6980   71.9100  219.1930 C   0  0  0  0  0  0  0  0  0  0  0  0
  143.7420   72.9930  220.2150 C   0  0  0  0  0  0  0  0  0  0  0  0
  143.7080   74.3740  219.5910 C   0  0  0  0  0  0  0  0  0  0  0  0
  144.4400   74.4760  218.3640 N   0  0  0  0  0  0  0  0  0  0  0  0
  144.0800   73.5270  217.3560 C   0  0  0  0  0  0  0  0  0  0  0  0
  143.1750   72.4240  217.8790 C   0  0  0  0  0  0  0  0  0  0  0  0
  140.5980   73.5770  220.0830 N   0  0  0  0  0  0  0  0  0  0  0  0
  140.4480   74.2930  221.2080 C   0  0  0  0  0  0  0  0  0  0  0  0
  140.4840   75.7280  221.2160 N   0  0  0  0  0  0  0  0  0  0  0  0
  140.3710   76.4840  219.9950 C   0  0  0  0  0  0  0  0  0  0  0  0
  141.4230   77.5430  219.8350 C   0  0  0  0  0  0  0  0  0  0  0  0
  141.4440   78.3280  221.1020 C   0  0  0  0  0  0  0  0  0  0  0  0
  141.8490   79.6460  221.0080 C   0  0  0  0  0  0  0  0  0  0  0  0
  141.9060   80.4640  222.1080 C   0  0  0  0  0  0  0  0  0  0  0  0
  141.5470   79.9410  223.3240 C   0  0  0  0  0  0  0  0  0  0  0  0
  141.1400   78.6190  223.4170 C   0  0  0  0  0  0  0  0  0  0  0  0
  141.0790   77.7910  222.3210 C   0  0  0  0  0  0  0  0  0  0  0  0
  140.6370   76.3910  222.4850 C   0  0  0  0  0  0  0  0  0  0  0  0
  140.2600   73.6120  222.3520 N   0  0  0  0  0  0  0  0  0  0  0  0
  141.0360   71.6370  224.6420 C   0  0  0  0  0  0  0  0  0  0  0  0
  139.3457   69.6613  229.2684 H   0  0  0  0  0  0  0  0  0  0  0  0
  140.9759   71.5041  229.2637 H   0  0  0  0  0  0  0  0  0  0  0  0
  141.7898   72.4520  227.1138 H   0  0  0  0  0  0  0  0  0  0  0  0
  138.4613   68.7008  227.1420 H   0  0  0  0  0  0  0  0  0  0  0  0
  140.0159   69.0288  224.1088 H   0  0  0  0  0  0  0  0  0  0  0  0
  138.3572   68.8738  224.7059 H   0  0  0  0  0  0  0  0  0  0  0  0
  138.3879   70.5270  222.8510 H   0  0  0  0  0  0  0  0  0  0  0  0
  138.0718   71.4110  224.3628 H   0  0  0  0  0  0  0  0  0  0  0  0
  140.0650   71.7270  218.0650 H   0  0  0  0  0  0  0  0  0  0  0  0
  141.2743   69.4752  218.9258 H   0  0  0  0  0  0  0  0  0  0  0  0
  142.0684   70.4559  217.6420 H   0  0  0  0  0  0  0  0  0  0  0  0
  142.4949   70.8625  220.6093 H   0  0  0  0  0  0  0  0  0  0  0  0
  143.5369   69.8263  219.5251 H   0  0  0  0  0  0  0  0  0  0  0  0
  144.7436   71.5810  219.1015 H   0  0  0  0  0  0  0  0  0  0  0  0
  142.8745   72.8849  220.8826 H   0  0  0  0  0  0  0  0  0  0  0  0
  144.6883   72.8964  220.7674 H   0  0  0  0  0  0  0  0  0  0  0  0
  142.6589   74.6377  219.3911 H   0  0  0  0  0  0  0  0  0  0  0  0
  144.1875   75.0587  220.3060 H   0  0  0  0  0  0  0  0  0  0  0  0
  145.4590   74.4640  218.5560 H   0  0  0  0  0  0  0  0  0  0  0  0
  143.5563   74.0564  216.5464 H   0  0  0  0  0  0  0  0  0  0  0  0
  145.0075   73.0532  217.0021 H   0  0  0  0  0  0  0  0  0  0  0  0
  142.1597   72.8226  218.0217 H   0  0  0  0  0  0  0  0  0  0  0  0
  143.1527   71.5993  217.1514 H   0  0  0  0  0  0  0  0  0  0  0  0
  140.4497   75.7870  219.1477 H   0  0  0  0  0  0  0  0  0  0  0  0
  139.4005   77.0008  220.0284 H   0  0  0  0  0  0  0  0  0  0  0  0
  142.4047   77.0778  219.6620 H   0  0  0  0  0  0  0  0  0  0  0  0
  141.2014   78.1910  218.9742 H   0  0  0  0  0  0  0  0  0  0  0  0
  142.1332   80.0500  220.0251 H   0  0  0  0  0  0  0  0  0  0  0  0
  142.2309   81.5110  222.0171 H   0  0  0  0  0  0  0  0  0  0  0  0
  141.5820   80.5704  224.2254 H   0  0  0  0  0  0  0  0  0  0  0  0
  140.8561   78.2187  224.4015 H   0  0  0  0  0  0  0  0  0  0  0  0
  141.3848   75.8489  223.0824 H   0  0  0  0  0  0  0  0  0  0  0  0
  139.6590   76.3972  222.9884 H   0  0  0  0  0  0  0  0  0  0  0  0
  141.9077   71.0539  224.3102 H   0  0  0  0  0  0  0  0  0  0  0  0
  141.2859   72.6978  224.7913 H   0  0  0  0  0  0  0  0  0  0  0  0
  1  2  2  0
  2  3  1  0
  3  4  2  0
  4  5  1  0
  5  6  2  0
  5  7  1  0
  7  8  1  0
  8  9  1  0
  9 10  1  0
 10 11  2  0
 11 12  1  0
 12 13  1  0
 13 14  1  0
 14 15  1  0
 15 16  1  0
 16 17  1  0
 17 18  1  0
 18 19  1  0
 19 20  1  0
 20 21  1  0
 12 22  2  0
 22 23  1  0
 23 24  1  0
 24 25  1  0
 25 26  1  0
 26 27  1  0
 27 28  2  0
 28 29  1  0
 29 30  2  0
 30 31  1  0
 31 32  2  0
 32 33  1  0
 23 34  2  0
  9 35  1  0
  6  1  1  0
 34 10  1  0
 35  4  1  0
 21 16  1  0
 33 24  1  0
 32 27  1  0
  1 36  1  0
  2 37  1  0
  3 38  1  0
  6 39  1  0
  7 40  1  0
  7 41  1  0
  8 42  1  0
  8 43  1  0
 13 44  1  0
 14 45  1  0
 14 46  1  0
 15 47  1  0
 15 48  1  0
 16 49  1  0
 17 50  1  0
 17 51  1  0
 18 52  1  0
 18 53  1  0
 19 54  1  0
 20 55  1  0
 20 56  1  0
 21 57  1  0
 21 58  1  0
 25 59  1  0
 25 60  1  0
 26 61  1  0
 26 62  1  0
 28 63  1  0
 29 64  1  0
 30 65  1  0
 31 66  1  0
 33 67  1  0
 33 68  1  0
 35 69  1  0
 35 70  1  0
M  END
>  <smiles>  (12) 
c1ccc2c(c1)CCN(c1nc(NCCC3CCNCC3)nc(N3CCc4ccccc4C3)n1)C2

>  <score_type>  (12) 
oracle

>  <origin>  (12) 
autodockgpu

>  <m_score__min__energy>  (12) 
-10.140000000000001

>  <m_primary>  (12) 
energy

>  <rmsd>  (12) 
6.040202695040758

>  <m_score__min__rmsd>  (12) 
6.040202695040758

>  <meeko>  (12) 
{"free_energy": -8.99, "intermolecular_energy": -10.78, "internal_energy": -1.68, "cluster_size": 43, "cluster_id": 1, "rank_in_cluster": 37}

>  <energy>  (12) 
-9.75

>  <cluster_rmsd>  (12) 
1.09

>  <cluster>  (12) 
1

$$$$

     RDKit          3D

 70 75  0  0  0  0  0  0  0  0999 V2000
  139.6020   69.8570  227.9190 C   0  0  0  0  0  0  0  0  0  0  0  0
  140.4160   70.9690  228.0080 C   0  0  0  0  0  0  0  0  0  0  0  0
  140.7900   71.6490  226.8680 C   0  0  0  0  0  0  0  0  0  0  0  0
  140.3350   71.1960  225.6430 C   0  0  0  0  0  0  0  0  0  0  0  0
  139.5170   70.0750  225.5810 C   0  0  0  0  0  0  0  0  0  0  0  0
  139.1310   69.3810  226.7070 C   0  0  0  0  0  0  0  0  0  0  0  0
  139.0790   69.6670  224.2030 C   0  0  0  0  0  0  0  0  0  0  0  0
  138.5620   70.9380  223.5380 C   0  0  0  0  0  0  0  0  0  0  0  0
  139.6780   71.8210  223.3900 N   0  0  0  0  0  0  0  0  0  0  0  0
  139.7830   72.6430  222.2390 C   0  0  0  0  0  0  0  0  0  0  0  0
  139.7220   72.1110  221.0220 N   0  0  0  0  0  0  0  0  0  0  0  0
  139.8180   72.8750  219.8940 C   0  0  0  0  0  0  0  0  0  0  0  0
  139.7440   72.2730  218.6000 N   0  0  0  0  0  0  0  0  0  0  0  0
  140.7870   72.3960  217.6050 C   0  0  0  0  0  0  0  0  0  0  0  0
  142.1260   72.3550  218.2610 C   0  0  0  0  0  0  0  0  0  0  0  0
  142.8460   73.6840  218.2410 C   0  0  0  0  0  0  0  0  0  0  0  0
  143.4020   74.1080  219.5560 C   0  0  0  0  0  0  0  0  0  0  0  0
  143.2690   75.6010  219.7810 C   0  0  0  0  0  0  0  0  0  0  0  0
  143.4660   76.3870  218.6000 N   0  0  0  0  0  0  0  0  0  0  0  0
  142.6400   76.0350  217.4860 C   0  0  0  0  0  0  0  0  0  0  0  0
  141.9040   74.7210  217.6890 C   0  0  0  0  0  0  0  0  0  0  0  0
  139.9810   74.1970  220.0580 N   0  0  0  0  0  0  0  0  0  0  0  0
  140.0490   74.7780  221.2670 C   0  0  0  0  0  0  0  0  0  0  0  0
  140.2230   76.1940  221.4300 N   0  0  0  0  0  0  0  0  0  0  0  0
  139.9300   77.1100  220.3580 C   0  0  0  0  0  0  0  0  0  0  0  0
  141.0220   78.1060  220.0930 C   0  0  0  0  0  0  0  0  0  0  0  0
  141.3820   78.7140  221.4050 C   0  0  0  0  0  0  0  0  0  0  0  0
  141.8830   80.0010  221.3760 C   0  0  0  0  0  0  0  0  0  0  0  0
  142.2480   80.6600  222.5220 C   0  0  0  0  0  0  0  0  0  0  0  0
  142.1030   80.0080  223.7200 C   0  0  0  0  0  0  0  0  0  0  0  0
  141.6000   78.7160  223.7480 C   0  0  0  0  0  0  0  0  0  0  0  0
  141.2320   78.0460  222.6050 C   0  0  0  0  0  0  0  0  0  0  0  0
  140.7010   76.6710  222.7020 C   0  0  0  0  0  0  0  0  0  0  0  0
  139.9470   73.9770  222.3420 N   0  0  0  0  0  0  0  0  0  0  0  0
  140.7080   71.8880  224.4040 C   0  0  0  0  0  0  0  0  0  0  0  0
  139.3180   69.3313  228.8426 H   0  0  0  0  0  0  0  0  0  0  0  0
  140.7674   71.3136  228.9918 H   0  0  0  0  0  0  0  0  0  0  0  0
  141.4383   72.5354  226.9318 H   0  0  0  0  0  0  0  0  0  0  0  0
  138.4823   68.4947  226.6463 H   0  0  0  0  0  0  0  0  0  0  0  0
  139.9283   69.2568  223.6369 H   0  0  0  0  0  0  0  0  0  0  0  0
  138.3057   68.8855  224.2388 H   0  0  0  0  0  0  0  0  0  0  0  0
  138.1354   70.7010  222.5522 H   0  0  0  0  0  0  0  0  0  0  0  0
  137.7728   71.4041  224.1462 H   0  0  0  0  0  0  0  0  0  0  0  0
  138.8710   71.7180  218.3870 H   0  0  0  0  0  0  0  0  0  0  0  0
  140.7068   71.5650  216.8887 H   0  0  0  0  0  0  0  0  0  0  0  0
  140.6723   73.3550  217.0786 H   0  0  0  0  0  0  0  0  0  0  0  0
  141.9917   72.0471  219.3084 H   0  0  0  0  0  0  0  0  0  0  0  0
  142.7435   71.6429  217.6938 H   0  0  0  0  0  0  0  0  0  0  0  0
  143.7309   73.5696  217.5977 H   0  0  0  0  0  0  0  0  0  0  0  0
  142.8617   73.5800  220.3556 H   0  0  0  0  0  0  0  0  0  0  0  0
  144.4736   73.8600  219.5646 H   0  0  0  0  0  0  0  0  0  0  0  0
  142.2594   75.8042  220.1675 H   0  0  0  0  0  0  0  0  0  0  0  0
  144.0592   75.8880  220.4903 H   0  0  0  0  0  0  0  0  0  0  0  0
  144.4710   76.4000  218.3450 H   0  0  0  0  0  0  0  0  0  0  0  0
  141.8985   76.8329  217.3326 H   0  0  0  0  0  0  0  0  0  0  0  0
  143.2972   75.9143  216.6122 H   0  0  0  0  0  0  0  0  0  0  0  0
  141.0748   74.8731  218.3956 H   0  0  0  0  0  0  0  0  0  0  0  0
  141.5107   74.3739  216.7221 H   0  0  0  0  0  0  0  0  0  0  0  0
  139.7628   76.5270  219.4403 H   0  0  0  0  0  0  0  0  0  0  0  0
  139.0418   77.6834  220.6619 H   0  0  0  0  0  0  0  0  0  0  0  0
  141.8968   77.6011  219.6575 H   0  0  0  0  0  0  0  0  0  0  0  0
  140.6885   78.8754  219.3811 H   0  0  0  0  0  0  0  0  0  0  0  0
  141.9921   80.5111  220.4075 H   0  0  0  0  0  0  0  0  0  0  0  0
  142.6465   81.6845  222.4815 H   0  0  0  0  0  0  0  0  0  0  0  0
  142.3854   80.5094  224.6575 H   0  0  0  0  0  0  0  0  0  0  0  0
  141.4916   78.2095  224.7184 H   0  0  0  0  0  0  0  0  0  0  0  0
  141.5011   76.0039  223.0552 H   0  0  0  0  0  0  0  0  0  0  0  0
  139.8553   76.6787  223.4053 H   0  0  0  0  0  0  0  0  0  0  0  0
  141.6233   71.4259  224.0057 H   0  0  0  0  0  0  0  0  0  0  0  0
  140.8595   72.9491  224.6512 H   0  0  0  0  0  0  0  0  0  0  0  0
  1  2  2  0
  2  3  1  0
  3  4  2  0
  4  5  1  0
  5  6  2  0
  5  7  1  0
  7  8  1  0
  8  9  1  0
  9 10  1  0
 10 11  2  0
 11 12  1  0
 12 13  1  0
 13 14  1  0
 14 15  1  0
 15 16  1  0
 16 17  1  0
 17 18  1  0
 18 19  1  0
 19 20  1  0
 20 21  1  0
 12 22  2  0
 22 23  1  0
 23 24  1  0
 24 25  1  0
 25 26  1  0
 26 27  1  0
 27 28  2  0
 28 29  1  0
 29 30  2  0
 30 31  1  0
 31 32  2  0
 32 33  1  0
 23 34  2  0
  9 35  1  0
  6  1  1  0
 34 10  1  0
 35  4  1  0
 21 16  1  0
 33 24  1  0
 32 27  1  0
  1 36  1  0
  2 37  1  0
  3 38  1  0
  6 39  1  0
  7 40  1  0
  7 41  1  0
  8 42  1  0
  8 43  1  0
 13 44  1  0
 14 45  1  0
 14 46  1  0
 15 47  1  0
 15 48  1  0
 16 49  1  0
 17 50  1  0
 17 51  1  0
 18 52  1  0
 18 53  1  0
 19 54  1  0
 20 55  1  0
 20 56  1  0
 21 57  1  0
 21 58  1  0
 25 59  1  0
 25 60  1  0
 26 61  1  0
 26 62  1  0
 28 63  1  0
 29 64  1  0
 30 65  1  0
 31 66  1  0
 33 67  1  0
 33 68  1  0
 35 69  1  0
 35 70  1  0
M  END
>  <smiles>  (13) 
c1ccc2c(c1)CCN(c1nc(NCCC3CCNCC3)nc(N3CCc4ccccc4C3)n1)C2

>  <score_type>  (13) 
oracle

>  <origin>  (13) 
autodockgpu

>  <m_score__min__energy>  (13) 
-10.140000000000001

>  <m_primary>  (13) 
energy

>  <rmsd>  (13) 
4.592145638411048

>  <m_score__min__rmsd>  (13) 
4.592145638411048

>  <meeko>  (13) 
{"free_energy": -9.09, "intermolecular_energy": -10.88, "internal_energy": -2.15, "cluster_size": 43, "cluster_id": 1, "rank_in_cluster": 30}

>  <energy>  (13) 
-9.73

>  <cluster_rmsd>  (13) 
0.97

>  <cluster>  (13) 
1

$$$$

     RDKit          3D

 70 75  0  0  0  0  0  0  0  0999 V2000
  140.7550   81.2540  223.3470 C   0  0  0  0  0  0  0  0  0  0  0  0
  142.0070   80.6920  223.1950 C   0  0  0  0  0  0  0  0  0  0  0  0
  142.1370   79.3350  222.9890 C   0  0  0  0  0  0  0  0  0  0  0  0
  140.9960   78.5550  222.9400 C   0  0  0  0  0  0  0  0  0  0  0  0
  139.7490   79.1450  223.0960 C   0  0  0  0  0  0  0  0  0  0  0  0
  139.5940   80.4990  223.3020 C   0  0  0  0  0  0  0  0  0  0  0  0
  138.5750   78.2110  223.0260 C   0  0  0  0  0  0  0  0  0  0  0  0
  138.7890   77.3680  221.7730 C   0  0  0  0  0  0  0  0  0  0  0  0
  139.9590   76.5740  221.9940 N   0  0  0  0  0  0  0  0  0  0  0  0
  140.0190   75.2480  221.4930 C   0  0  0  0  0  0  0  0  0  0  0  0
  140.1430   75.0240  220.1880 N   0  0  0  0  0  0  0  0  0  0  0  0
  140.2040   73.7600  219.6750 C   0  0  0  0  0  0  0  0  0  0  0  0
  140.3410   73.5520  218.2680 N   0  0  0  0  0  0  0  0  0  0  0  0
  141.6010   73.6700  217.5660 C   0  0  0  0  0  0  0  0  0  0  0  0
  142.3310   74.8860  218.0290 C   0  0  0  0  0  0  0  0  0  0  0  0
  143.7790   74.6220  218.3750 C   0  0  0  0  0  0  0  0  0  0  0  0
  144.5350   73.8630  217.3400 C   0  0  0  0  0  0  0  0  0  0  0  0
  145.5110   72.8760  217.9490 C   0  0  0  0  0  0  0  0  0  0  0  0
  146.1490   73.3500  219.1410 N   0  0  0  0  0  0  0  0  0  0  0  0
  145.2640   73.7910  220.1750 C   0  0  0  0  0  0  0  0  0  0  0  0
  143.8250   73.9200  219.7050 C   0  0  0  0  0  0  0  0  0  0  0  0
  140.1320   72.7390  220.5440 N   0  0  0  0  0  0  0  0  0  0  0  0
  140.0070   72.9160  221.8680 C   0  0  0  0  0  0  0  0  0  0  0  0
  139.9320   71.8170  222.7880 N   0  0  0  0  0  0  0  0  0  0  0  0
  139.1140   70.6650  222.5080 C   0  0  0  0  0  0  0  0  0  0  0  0
  138.2210   70.2630  223.6460 C   0  0  0  0  0  0  0  0  0  0  0  0
  139.0770   70.1870  224.8630 C   0  0  0  0  0  0  0  0  0  0  0  0
  138.6750   69.3090  225.8510 C   0  0  0  0  0  0  0  0  0  0  0  0
  139.3850   69.1570  227.0150 C   0  0  0  0  0  0  0  0  0  0  0  0
  140.5230   69.9050  227.1830 C   0  0  0  0  0  0  0  0  0  0  0  0
  140.9250   70.7850  226.1910 C   0  0  0  0  0  0  0  0  0  0  0  0
  140.2200   70.9460  225.0210 C   0  0  0  0  0  0  0  0  0  0  0  0
  140.7020   71.9010  224.0020 C   0  0  0  0  0  0  0  0  0  0  0  0
  139.9530   74.1830  222.3180 N   0  0  0  0  0  0  0  0  0  0  0  0
  141.0880   77.1060  222.7230 C   0  0  0  0  0  0  0  0  0  0  0  0
  140.6765   82.3391  223.5095 H   0  0  0  0  0  0  0  0  0  0  0  0
  142.9030   81.3286  223.2384 H   0  0  0  0  0  0  0  0  0  0  0  0
  143.1311   78.8805  222.8657 H   0  0  0  0  0  0  0  0  0  0  0  0
  138.6010   80.9561  223.4242 H   0  0  0  0  0  0  0  0  0  0  0  0
  138.5424   77.5690  223.9187 H   0  0  0  0  0  0  0  0  0  0  0  0
  137.6226   78.7600  222.9869 H   0  0  0  0  0  0  0  0  0  0  0  0
  137.9184   76.7176  221.6027 H   0  0  0  0  0  0  0  0  0  0  0  0
  138.9123   78.0082  220.8870 H   0  0  0  0  0  0  0  0  0  0  0  0
  139.4610   73.3030  217.7400 H   0  0  0  0  0  0  0  0  0  0  0  0
  142.2142   72.7789  217.7658 H   0  0  0  0  0  0  0  0  0  0  0  0
  141.4065   73.7546  216.4866 H   0  0  0  0  0  0  0  0  0  0  0  0
  142.2956   75.6398  217.2286 H   0  0  0  0  0  0  0  0  0  0  0  0
  141.8354   75.2318  218.9482 H   0  0  0  0  0  0  0  0  0  0  0  0
  144.2887   75.5956  218.4232 H   0  0  0  0  0  0  0  0  0  0  0  0
  143.8194   73.3115  216.7126 H   0  0  0  0  0  0  0  0  0  0  0  0
  145.1139   74.5868  216.7476 H   0  0  0  0  0  0  0  0  0  0  0  0
  144.9637   71.9534  218.1926 H   0  0  0  0  0  0  0  0  0  0  0  0
  146.3051   72.7125  217.2055 H   0  0  0  0  0  0  0  0  0  0  0  0
  146.8520   74.0740  218.9030 H   0  0  0  0  0  0  0  0  0  0  0  0
  145.2999   73.0655  221.0011 H   0  0  0  0  0  0  0  0  0  0  0  0
  145.5987   74.7895  220.4929 H   0  0  0  0  0  0  0  0  0  0  0  0
  143.3838   72.9175  219.6032 H   0  0  0  0  0  0  0  0  0  0  0  0
  143.2555   74.5052  220.4420 H   0  0  0  0  0  0  0  0  0  0  0  0
  138.4831   70.8917  221.6359 H   0  0  0  0  0  0  0  0  0  0  0  0
  139.7986   69.8234  222.3261 H   0  0  0  0  0  0  0  0  0  0  0  0
  137.4283   71.0124  223.7875 H   0  0  0  0  0  0  0  0  0  0  0  0
  137.7377   69.2957  223.4440 H   0  0  0  0  0  0  0  0  0  0  0  0
  137.7610   68.7158  225.7003 H   0  0  0  0  0  0  0  0  0  0  0  0
  139.0510   68.4544  227.7927 H   0  0  0  0  0  0  0  0  0  0  0  0
  141.1157   69.8061  228.1044 H   0  0  0  0  0  0  0  0  0  0  0  0
  141.8402   71.3756  226.3446 H   0  0  0  0  0  0  0  0  0  0  0  0
  140.6233   72.9217  224.4043 H   0  0  0  0  0  0  0  0  0  0  0  0
  141.7464   71.6510  223.7640 H   0  0  0  0  0  0  0  0  0  0  0  0
  141.1404   76.6071  223.7019 H   0  0  0  0  0  0  0  0  0  0  0  0
  141.9885   76.9189  222.1197 H   0  0  0  0  0  0  0  0  0  0  0  0
  1  2  2  0
  2  3  1  0
  3  4  2  0
  4  5  1  0
  5  6  2  0
  5  7  1  0
  7  8  1  0
  8  9  1  0
  9 10  1  0
 10 11  2  0
 11 12  1  0
 12 13  1  0
 13 14  1  0
 14 15  1  0
 15 16  1  0
 16 17  1  0
 17 18  1  0
 18 19  1  0
 19 20  1  0
 20 21  1  0
 12 22  2  0
 22 23  1  0
 23 24  1  0
 24 25  1  0
 25 26  1  0
 26 27  1  0
 27 28  2  0
 28 29  1  0
 29 30  2  0
 30 31  1  0
 31 32  2  0
 32 33  1  0
 23 34  2  0
  9 35  1  0
  6  1  1  0
 34 10  1  0
 35  4  1  0
 21 16  1  0
 33 24  1  0
 32 27  1  0
  1 36  1  0
  2 37  1  0
  3 38  1  0
  6 39  1  0
  7 40  1  0
  7 41  1  0
  8 42  1  0
  8 43  1  0
 13 44  1  0
 14 45  1  0
 14 46  1  0
 15 47  1  0
 15 48  1  0
 16 49  1  0
 17 50  1  0
 17 51  1  0
 18 52  1  0
 18 53  1  0
 19 54  1  0
 20 55  1  0
 20 56  1  0
 21 57  1  0
 21 58  1  0
 25 59  1  0
 25 60  1  0
 26 61  1  0
 26 62  1  0
 28 63  1  0
 29 64  1  0
 30 65  1  0
 31 66  1  0
 33 67  1  0
 33 68  1  0
 35 69  1  0
 35 70  1  0
M  END
>  <smiles>  (14) 
c1ccc2c(c1)CCN(c1nc(NCCC3CCNCC3)nc(N3CCc4ccccc4C3)n1)C2

>  <score_type>  (14) 
oracle

>  <origin>  (14) 
autodockgpu

>  <m_score__min__energy>  (14) 
-10.140000000000001

>  <m_primary>  (14) 
energy

>  <rmsd>  (14) 
5.954017923071515

>  <m_score__min__rmsd>  (14) 
5.954017923071515

>  <meeko>  (14) 
{"free_energy": -9.77, "intermolecular_energy": -11.56, "internal_energy": -1.31, "cluster_size": 43, "cluster_id": 1, "rank_in_cluster": 9}

>  <energy>  (14) 
-9.73

>  <cluster_rmsd>  (14) 
1.6

>  <cluster>  (14) 
1

$$$$

     RDKit          3D

 70 75  0  0  0  0  0  0  0  0999 V2000
  139.6520   69.9170  227.9790 C   0  0  0  0  0  0  0  0  0  0  0  0
  140.6020   70.9170  228.0470 C   0  0  0  0  0  0  0  0  0  0  0  0
  141.0470   71.5310  226.8960 C   0  0  0  0  0  0  0  0  0  0  0  0
  140.5260   71.1270  225.6810 C   0  0  0  0  0  0  0  0  0  0  0  0
  139.5710   70.1200  225.6390 C   0  0  0  0  0  0  0  0  0  0  0  0
  139.1110   69.4920  226.7760 C   0  0  0  0  0  0  0  0  0  0  0  0
  139.0690   69.7560  224.2700 C   0  0  0  0  0  0  0  0  0  0  0  0
  138.7130   71.0760  223.5950 C   0  0  0  0  0  0  0  0  0  0  0  0
  139.9310   71.8070  223.4270 N   0  0  0  0  0  0  0  0  0  0  0  0
  140.1290   72.5970  222.2650 C   0  0  0  0  0  0  0  0  0  0  0  0
  140.1960   72.0270  221.0650 N   0  0  0  0  0  0  0  0  0  0  0  0
  140.3850   72.7590  219.9280 C   0  0  0  0  0  0  0  0  0  0  0  0
  140.4490   72.1180  218.6520 N   0  0  0  0  0  0  0  0  0  0  0  0
  141.6210   71.4200  218.1700 C   0  0  0  0  0  0  0  0  0  0  0  0
  142.1350   70.4980  219.2250 C   0  0  0  0  0  0  0  0  0  0  0  0
  143.5290   70.8440  219.6970 C   0  0  0  0  0  0  0  0  0  0  0  0
  143.6660   72.2090  220.2780 C   0  0  0  0  0  0  0  0  0  0  0  0
  144.9820   72.8620  219.9060 C   0  0  0  0  0  0  0  0  0  0  0  0
  146.0890   71.9550  219.8630 N   0  0  0  0  0  0  0  0  0  0  0  0
  145.9120   70.8110  219.0220 C   0  0  0  0  0  0  0  0  0  0  0  0
  144.4790   70.6450  218.5470 C   0  0  0  0  0  0  0  0  0  0  0  0
  140.5020   74.0900  220.0640 N   0  0  0  0  0  0  0  0  0  0  0  0
  140.4400   74.7080  221.2540 C   0  0  0  0  0  0  0  0  0  0  0  0
  140.5670   76.1320  221.3880 N   0  0  0  0  0  0  0  0  0  0  0  0
  140.5050   76.9970  220.2390 C   0  0  0  0  0  0  0  0  0  0  0  0
  141.6220   77.9980  220.1690 C   0  0  0  0  0  0  0  0  0  0  0  0
  141.6900   78.6660  221.5000 C   0  0  0  0  0  0  0  0  0  0  0  0
  142.1770   79.9580  221.5210 C   0  0  0  0  0  0  0  0  0  0  0  0
  142.2840   80.6710  222.6890 C   0  0  0  0  0  0  0  0  0  0  0  0
  141.8900   80.0670  223.8550 C   0  0  0  0  0  0  0  0  0  0  0  0
  141.4000   78.7700  223.8330 C   0  0  0  0  0  0  0  0  0  0  0  0
  141.2890   78.0470  222.6680 C   0  0  0  0  0  0  0  0  0  0  0  0
  140.7580   76.6690  222.7110 C   0  0  0  0  0  0  0  0  0  0  0  0
  140.2520   73.9370  222.3400 N   0  0  0  0  0  0  0  0  0  0  0  0
  140.9720   71.7530  224.4300 C   0  0  0  0  0  0  0  0  0  0  0  0
  139.3132   69.4417  228.9114 H   0  0  0  0  0  0  0  0  0  0  0  0
  141.0050   71.2246  229.0232 H   0  0  0  0  0  0  0  0  0  0  0  0
  141.8033   72.3283  226.9434 H   0  0  0  0  0  0  0  0  0  0  0  0
  138.3541   68.6951  226.7311 H   0  0  0  0  0  0  0  0  0  0  0  0
  139.8521   69.2335  223.7010 H   0  0  0  0  0  0  0  0  0  0  0  0
  138.2022   69.0807  224.3223 H   0  0  0  0  0  0  0  0  0  0  0  0
  138.2496   70.8856  222.6157 H   0  0  0  0  0  0  0  0  0  0  0  0
  137.9965   71.6458  224.2049 H   0  0  0  0  0  0  0  0  0  0  0  0
  139.5810   72.1730  218.0530 H   0  0  0  0  0  0  0  0  0  0  0  0
  141.3561   70.8380  217.2749 H   0  0  0  0  0  0  0  0  0  0  0  0
  142.4013   72.1539  217.9200 H   0  0  0  0  0  0  0  0  0  0  0  0
  141.4540   70.5410  220.0878 H   0  0  0  0  0  0  0  0  0  0  0  0
  142.1821   69.4920  218.7825 H   0  0  0  0  0  0  0  0  0  0  0  0
  143.7707   70.1692  220.5314 H   0  0  0  0  0  0  0  0  0  0  0  0
  142.8422   72.8361  219.9064 H   0  0  0  0  0  0  0  0  0  0  0  0
  143.6350   72.1136  221.3734 H   0  0  0  0  0  0  0  0  0  0  0  0
  144.8719   73.3212  218.9125 H   0  0  0  0  0  0  0  0  0  0  0  0
  145.2048   73.6001  220.6906 H   0  0  0  0  0  0  0  0  0  0  0  0
  146.3650   71.6850  220.8260 H   0  0  0  0  0  0  0  0  0  0  0  0
  146.5637   70.9175  218.1422 H   0  0  0  0  0  0  0  0  0  0  0  0
  146.1691   69.9211  219.6153 H   0  0  0  0  0  0  0  0  0  0  0  0
  144.2658   71.3892  217.7655 H   0  0  0  0  0  0  0  0  0  0  0  0
  144.3481   69.6306  218.1421 H   0  0  0  0  0  0  0  0  0  0  0  0
  140.5419   76.3732  219.3337 H   0  0  0  0  0  0  0  0  0  0  0  0
  139.5689   77.5689  220.3205 H   0  0  0  0  0  0  0  0  0  0  0  0
  142.5728   77.4891  219.9523 H   0  0  0  0  0  0  0  0  0  0  0  0
  141.4431   78.7318  219.3693 H   0  0  0  0  0  0  0  0  0  0  0  0
  142.4875   80.4284  220.5764 H   0  0  0  0  0  0  0  0  0  0  0  0
  142.6752   81.6991  222.6895 H   0  0  0  0  0  0  0  0  0  0  0  0
  141.9626   80.6113  224.8081 H   0  0  0  0  0  0  0  0  0  0  0  0
  141.0894   78.3033  224.7794 H   0  0  0  0  0  0  0  0  0  0  0  0
  141.4679   76.0299  223.2565 H   0  0  0  0  0  0  0  0  0  0  0  0
  139.7814   76.6926  223.2167 H   0  0  0  0  0  0  0  0  0  0  0  0
  141.8166   71.1736  224.0289 H   0  0  0  0  0  0  0  0  0  0  0  0
  141.2610   72.7885  224.6629 H   0  0  0  0  0  0  0  0  0  0  0  0
  1  2  2  0
  2  3  1  0
  3  4  2  0
  4  5  1  0
  5  6  2  0
  5  7  1  0
  7  8  1  0
  8  9  1  0
  9 10  1  0
 10 11  2  0
 11 12  1  0
 12 13  1  0
 13 14  1  0
 14 15  1  0
 15 16  1  0
 16 17  1  0
 17 18  1  0
 18 19  1  0
 19 20  1  0
 20 21  1  0
 12 22  2  0
 22 23  1  0
 23 24  1  0
 24 25  1  0
 25 26  1  0
 26 27  1  0
 27 28  2  0
 28 29  1  0
 29 30  2  0
 30 31  1  0
 31 32  2  0
 32 33  1  0
 23 34  2  0
  9 35  1  0
  6  1  1  0
 34 10  1  0
 35  4  1  0
 21 16  1  0
 33 24  1  0
 32 27  1  0
  1 36  1  0
  2 37  1  0
  3 38  1  0
  6 39  1  0
  7 40  1  0
  7 41  1  0
  8 42  1  0
  8 43  1  0
 13 44  1  0
 14 45  1  0
 14 46  1  0
 15 47  1  0
 15 48  1  0
 16 49  1  0
 17 50  1  0
 17 51  1  0
 18 52  1  0
 18 53  1  0
 19 54  1  0
 20 55  1  0
 20 56  1  0
 21 57  1  0
 21 58  1  0
 25 59  1  0
 25 60  1  0
 26 61  1  0
 26 62  1  0
 28 63  1  0
 29 64  1  0
 30 65  1  0
 31 66  1  0
 33 67  1  0
 33 68  1  0
 35 69  1  0
 35 70  1  0
M  END
>  <smiles>  (15) 
c1ccc2c(c1)CCN(c1nc(NCCC3CCNCC3)nc(N3CCc4ccccc4C3)n1)C2

>  <score_type>  (15) 
oracle

>  <origin>  (15) 
autodockgpu

>  <m_score__min__energy>  (15) 
-10.140000000000001

>  <m_primary>  (15) 
energy

>  <rmsd>  (15) 
6.87094258319374

>  <m_score__min__rmsd>  (15) 
6.87094258319374

>  <meeko>  (15) 
{"free_energy": -9.88, "intermolecular_energy": -11.67, "internal_energy": -1.4, "cluster_size": 43, "cluster_id": 1, "rank_in_cluster": 5}

>  <energy>  (15) 
-9.71

>  <cluster_rmsd>  (15) 
1.0

>  <cluster>  (15) 
1

$$$$

     RDKit          3D

 70 75  0  0  0  0  0  0  0  0999 V2000
  142.3340   80.8100  222.5530 C   0  0  0  0  0  0  0  0  0  0  0  0
  142.1810   80.1900  223.7780 C   0  0  0  0  0  0  0  0  0  0  0  0
  141.7070   78.8970  223.8460 C   0  0  0  0  0  0  0  0  0  0  0  0
  141.3900   78.2410  222.6720 C   0  0  0  0  0  0  0  0  0  0  0  0
  141.5530   78.8860  221.4530 C   0  0  0  0  0  0  0  0  0  0  0  0
  142.0250   80.1780  221.3600 C   0  0  0  0  0  0  0  0  0  0  0  0
  141.1800   78.0850  220.2380 C   0  0  0  0  0  0  0  0  0  0  0  0
  141.8700   76.7350  220.4030 C   0  0  0  0  0  0  0  0  0  0  0  0
  141.2800   76.0950  221.5390 N   0  0  0  0  0  0  0  0  0  0  0  0
  141.0800   74.6910  221.5360 C   0  0  0  0  0  0  0  0  0  0  0  0
  140.1460   74.1410  222.3060 N   0  0  0  0  0  0  0  0  0  0  0  0
  139.9280   72.7930  222.3260 C   0  0  0  0  0  0  0  0  0  0  0  0
  138.9130   72.2320  223.1610 N   0  0  0  0  0  0  0  0  0  0  0  0
  139.1850   71.2640  224.2020 C   0  0  0  0  0  0  0  0  0  0  0  0
  140.6570   71.0990  224.3730 C   0  0  0  0  0  0  0  0  0  0  0  0
  141.0460   70.5480  225.7260 C   0  0  0  0  0  0  0  0  0  0  0  0
  140.5640   69.1640  225.9930 C   0  0  0  0  0  0  0  0  0  0  0  0
  140.1310   68.9740  227.4330 C   0  0  0  0  0  0  0  0  0  0  0  0
  140.9420   69.6780  228.3810 N   0  0  0  0  0  0  0  0  0  0  0  0
  141.0830   71.0820  228.1450 C   0  0  0  0  0  0  0  0  0  0  0  0
  140.5620   71.5050  226.7820 C   0  0  0  0  0  0  0  0  0  0  0  0
  140.7000   72.0330  221.5320 N   0  0  0  0  0  0  0  0  0  0  0  0
  141.6540   72.5440  220.7380 C   0  0  0  0  0  0  0  0  0  0  0  0
  142.4730   71.7220  219.8930 N   0  0  0  0  0  0  0  0  0  0  0  0
  141.8870   70.8090  218.9460 C   0  0  0  0  0  0  0  0  0  0  0  0
  142.4550   69.4210  219.0060 C   0  0  0  0  0  0  0  0  0  0  0  0
  143.9390   69.5580  218.9640 C   0  0  0  0  0  0  0  0  0  0  0  0
  144.6440   68.5000  218.4230 C   0  0  0  0  0  0  0  0  0  0  0  0
  146.0130   68.5160  218.3330 C   0  0  0  0  0  0  0  0  0  0  0  0
  146.6810   69.6200  218.7970 C   0  0  0  0  0  0  0  0  0  0  0  0
  145.9720   70.6800  219.3390 C   0  0  0  0  0  0  0  0  0  0  0  0
  144.6000   70.6750  219.4350 C   0  0  0  0  0  0  0  0  0  0  0  0
  143.9030   71.8380  220.0230 C   0  0  0  0  0  0  0  0  0  0  0  0
  141.8240   73.8780  220.7590 N   0  0  0  0  0  0  0  0  0  0  0  0
  140.8820   76.8640  222.6980 C   0  0  0  0  0  0  0  0  0  0  0  0
  142.7145   81.8417  222.5241 H   0  0  0  0  0  0  0  0  0  0  0  0
  142.4380   80.7293  224.7016 H   0  0  0  0  0  0  0  0  0  0  0  0
  141.5834   78.3966  224.8177 H   0  0  0  0  0  0  0  0  0  0  0  0
  142.1496   80.6804  220.3894 H   0  0  0  0  0  0  0  0  0  0  0  0
  140.0891   77.9538  220.1857 H   0  0  0  0  0  0  0  0  0  0  0  0
  141.4905   78.5879  219.3103 H   0  0  0  0  0  0  0  0  0  0  0  0
  141.7175   76.1212  219.5030 H   0  0  0  0  0  0  0  0  0  0  0  0
  142.9529   76.8645  220.5461 H   0  0  0  0  0  0  0  0  0  0  0  0
  137.9240   72.5590  222.9860 H   0  0  0  0  0  0  0  0  0  0  0  0
  138.7453   71.6131  225.1479 H   0  0  0  0  0  0  0  0  0  0  0  0
  138.7436   70.2967  223.9199 H   0  0  0  0  0  0  0  0  0  0  0  0
  141.0231   70.4101  223.5975 H   0  0  0  0  0  0  0  0  0  0  0  0
  141.1080   72.0986  224.2875 H   0  0  0  0  0  0  0  0  0  0  0  0
  142.1425   70.4614  225.7431 H   0  0  0  0  0  0  0  0  0  0  0  0
  139.7074   68.9546  225.3354 H   0  0  0  0  0  0  0  0  0  0  0  0
  141.3979   68.4736  225.7982 H   0  0  0  0  0  0  0  0  0  0  0  0
  139.0946   69.3290  227.5327 H   0  0  0  0  0  0  0  0  0  0  0  0
  140.2340   67.9023  227.6585 H   0  0  0  0  0  0  0  0  0  0  0  0
  141.8630   69.2110  228.4770 H   0  0  0  0  0  0  0  0  0  0  0  0
  140.5233   71.6266  228.9197 H   0  0  0  0  0  0  0  0  0  0  0  0
  142.1571   71.3170  228.1766 H   0  0  0  0  0  0  0  0  0  0  0  0
  139.4621   71.5055  226.7966 H   0  0  0  0  0  0  0  0  0  0  0  0
  140.9326   72.5147  226.5513 H   0  0  0  0  0  0  0  0  0  0  0  0
  140.8068   70.7498  219.1452 H   0  0  0  0  0  0  0  0  0  0  0  0
  142.1113   71.2021  217.9435 H   0  0  0  0  0  0  0  0  0  0  0  0
  142.1471   68.9263  219.9390 H   0  0  0  0  0  0  0  0  0  0  0  0
  142.0921   68.8105  218.1660 H   0  0  0  0  0  0  0  0  0  0  0  0
  144.0933   67.6219  218.0548 H   0  0  0  0  0  0  0  0  0  0  0  0
  146.5602   67.6657  217.9000 H   0  0  0  0  0  0  0  0  0  0  0  0
  147.7786   69.6641  218.7390 H   0  0  0  0  0  0  0  0  0  0  0  0
  146.5262   71.5567  219.7055 H   0  0  0  0  0  0  0  0  0  0  0  0
  144.1599   71.9056  221.0904 H   0  0  0  0  0  0  0  0  0  0  0  0
  144.2250   72.7406  219.4829 H   0  0  0  0  0  0  0  0  0  0  0  0
  139.7832   76.8960  222.7375 H   0  0  0  0  0  0  0  0  0  0  0  0
  141.3094   76.3712  223.5837 H   0  0  0  0  0  0  0  0  0  0  0  0
  1  2  2  0
  2  3  1  0
  3  4  2  0
  4  5  1  0
  5  6  2  0
  5  7  1  0
  7  8  1  0
  8  9  1  0
  9 10  1  0
 10 11  2  0
 11 12  1  0
 12 13  1  0
 13 14  1  0
 14 15  1  0
 15 16  1  0
 16 17  1  0
 17 18  1  0
 18 19  1  0
 19 20  1  0
 20 21  1  0
 12 22  2  0
 22 23  1  0
 23 24  1  0
 24 25  1  0
 25 26  1  0
 26 27  1  0
 27 28  2  0
 28 29  1  0
 29 30  2  0
 30 31  1  0
 31 32  2  0
 32 33  1  0
 23 34  2  0
  9 35  1  0
  6  1  1  0
 34 10  1  0
 35  4  1  0
 21 16  1  0
 33 24  1  0
 32 27  1  0
  1 36  1  0
  2 37  1  0
  3 38  1  0
  6 39  1  0
  7 40  1  0
  7 41  1  0
  8 42  1  0
  8 43  1  0
 13 44  1  0
 14 45  1  0
 14 46  1  0
 15 47  1  0
 15 48  1  0
 16 49  1  0
 17 50  1  0
 17 51  1  0
 18 52  1  0
 18 53  1  0
 19 54  1  0
 20 55  1  0
 20 56  1  0
 21 57  1  0
 21 58  1  0
 25 59  1  0
 25 60  1  0
 26 61  1  0
 26 62  1  0
 28 63  1  0
 29 64  1  0
 30 65  1  0
 31 66  1  0
 33 67  1  0
 33 68  1  0
 35 69  1  0
 35 70  1  0
M  END
>  <smiles>  (16) 
c1ccc2c(c1)CCN(c1nc(NCCC3CCNCC3)nc(N3CCc4ccccc4C3)n1)C2

>  <score_type>  (16) 
oracle

>  <origin>  (16) 
autodockgpu

>  <m_score__min__energy>  (16) 
-10.140000000000001

>  <m_primary>  (16) 
energy

>  <rmsd>  (16) 
9.42198754117026

>  <m_score__min__rmsd>  (16) 
9.42198754117026

>  <meeko>  (16) 
{"free_energy": -9.89, "intermolecular_energy": -11.68, "internal_energy": -1.04, "cluster_size": 6, "cluster_id": 2, "rank_in_cluster": 2}

>  <energy>  (16) 
-9.69

>  <cluster_rmsd>  (16) 
1.3

>  <cluster>  (16) 
1

$$$$

     RDKit          3D

 70 75  0  0  0  0  0  0  0  0999 V2000
  140.9000   81.1640  223.3950 C   0  0  0  0  0  0  0  0  0  0  0  0
  142.1150   80.5150  223.4840 C   0  0  0  0  0  0  0  0  0  0  0  0
  142.1910   79.1530  223.2840 C   0  0  0  0  0  0  0  0  0  0  0  0
  141.0320   78.4570  222.9950 C   0  0  0  0  0  0  0  0  0  0  0  0
  139.8220   79.1330  222.9100 C   0  0  0  0  0  0  0  0  0  0  0  0
  139.7220   80.4940  223.1060 C   0  0  0  0  0  0  0  0  0  0  0  0
  138.6240   78.2840  222.5900 C   0  0  0  0  0  0  0  0  0  0  0  0
  139.0270   77.4330  221.3900 C   0  0  0  0  0  0  0  0  0  0  0  0
  140.0710   76.5570  221.8250 N   0  0  0  0  0  0  0  0  0  0  0  0
  140.1390   75.2320  221.3230 C   0  0  0  0  0  0  0  0  0  0  0  0
  140.3400   75.0120  220.0260 N   0  0  0  0  0  0  0  0  0  0  0  0
  140.4110   73.7490  219.5120 C   0  0  0  0  0  0  0  0  0  0  0  0
  140.6330   73.5440  218.1150 N   0  0  0  0  0  0  0  0  0  0  0  0
  141.8990   73.1100  217.5660 C   0  0  0  0  0  0  0  0  0  0  0  0
  142.9790   74.0590  217.9620 C   0  0  0  0  0  0  0  0  0  0  0  0
  143.9790   73.4620  218.9260 C   0  0  0  0  0  0  0  0  0  0  0  0
  143.5420   72.1880  219.5630 C   0  0  0  0  0  0  0  0  0  0  0  0
  143.9730   72.0940  221.0130 C   0  0  0  0  0  0  0  0  0  0  0  0
  145.2660   72.6520  221.2720 N   0  0  0  0  0  0  0  0  0  0  0  0
  145.4450   74.0060  220.8470 C   0  0  0  0  0  0  0  0  0  0  0  0
  144.3140   74.5010  219.9620 C   0  0  0  0  0  0  0  0  0  0  0  0
  140.2660   72.7260  220.3690 N   0  0  0  0  0  0  0  0  0  0  0  0
  140.0620   72.9000  221.6840 C   0  0  0  0  0  0  0  0  0  0  0  0
  139.9090   71.7990  222.5910 N   0  0  0  0  0  0  0  0  0  0  0  0
  138.9670   70.7410  222.3290 C   0  0  0  0  0  0  0  0  0  0  0  0
  138.0820   70.4120  223.4960 C   0  0  0  0  0  0  0  0  0  0  0  0
  138.9710   70.2300  224.6780 C   0  0  0  0  0  0  0  0  0  0  0  0
  138.5190   69.3800  225.6690 C   0  0  0  0  0  0  0  0  0  0  0  0
  139.2530   69.1370  226.8020 C   0  0  0  0  0  0  0  0  0  0  0  0
  140.4670   69.7620  226.9350 C   0  0  0  0  0  0  0  0  0  0  0  0
  140.9190   70.6140  225.9390 C   0  0  0  0  0  0  0  0  0  0  0  0
  140.1910   70.8650  224.8000 C   0  0  0  0  0  0  0  0  0  0  0  0
  140.7290   71.7830  223.7750 C   0  0  0  0  0  0  0  0  0  0  0  0
  140.0020   74.1660  222.1360 N   0  0  0  0  0  0  0  0  0  0  0  0
  141.0650   77.0050  222.7740 C   0  0  0  0  0  0  0  0  0  0  0  0
  140.8657   82.2511  223.5593 H   0  0  0  0  0  0  0  0  0  0  0  0
  143.0259   81.0866  223.7153 H   0  0  0  0  0  0  0  0  0  0  0  0
  143.1561   78.6297  223.3531 H   0  0  0  0  0  0  0  0  0  0  0  0
  138.7584   81.0200  223.0367 H   0  0  0  0  0  0  0  0  0  0  0  0
  138.3693   77.6424  223.4464 H   0  0  0  0  0  0  0  0  0  0  0  0
  137.7385   78.8989  222.3714 H   0  0  0  0  0  0  0  0  0  0  0  0
  138.1656   76.8469  221.0372 H   0  0  0  0  0  0  0  0  0  0  0  0
  139.3697   78.0669  220.5589 H   0  0  0  0  0  0  0  0  0  0  0  0
  139.8130   73.7300  217.4750 H   0  0  0  0  0  0  0  0  0  0  0  0
  142.1373   72.1067  217.9489 H   0  0  0  0  0  0  0  0  0  0  0  0
  141.8265   73.0832  216.4687 H   0  0  0  0  0  0  0  0  0  0  0  0
  143.5150   74.3754  217.0550 H   0  0  0  0  0  0  0  0  0  0  0  0
  142.4968   74.9036  218.4759 H   0  0  0  0  0  0  0  0  0  0  0  0
  144.8696   73.1820  218.3442 H   0  0  0  0  0  0  0  0  0  0  0  0
  142.4448   72.1265  219.5152 H   0  0  0  0  0  0  0  0  0  0  0  0
  144.0144   71.3585  219.0165 H   0  0  0  0  0  0  0  0  0  0  0  0
  143.2353   72.6292  221.6289 H   0  0  0  0  0  0  0  0  0  0  0  0
  144.0324   71.0236  221.2594 H   0  0  0  0  0  0  0  0  0  0  0  0
  146.0040   72.0300  220.8940 H   0  0  0  0  0  0  0  0  0  0  0  0
  145.5013   74.6491  221.7376 H   0  0  0  0  0  0  0  0  0  0  0  0
  146.3707   74.0468  220.2542 H   0  0  0  0  0  0  0  0  0  0  0  0
  143.4263   74.6976  220.5811 H   0  0  0  0  0  0  0  0  0  0  0  0
  144.6289   75.4262  219.4571 H   0  0  0  0  0  0  0  0  0  0  0  0
  138.3295   71.0457  221.4859 H   0  0  0  0  0  0  0  0  0  0  0  0
  139.5546   69.8375  222.1090 H   0  0  0  0  0  0  0  0  0  0  0  0
  137.3750   71.2348  223.6780 H   0  0  0  0  0  0  0  0  0  0  0  0
  137.4965   69.5015  223.3008 H   0  0  0  0  0  0  0  0  0  0  0  0
  137.5444   68.8849  225.5461 H   0  0  0  0  0  0  0  0  0  0  0  0
  138.8783   68.4591  227.5831 H   0  0  0  0  0  0  0  0  0  0  0  0
  141.0810   69.5874  227.8308 H   0  0  0  0  0  0  0  0  0  0  0  0
  141.8945   71.1065  226.0645 H   0  0  0  0  0  0  0  0  0  0  0  0
  140.7708   72.7994  224.1934 H   0  0  0  0  0  0  0  0  0  0  0  0
  141.7323   71.4314  223.4925 H   0  0  0  0  0  0  0  0  0  0  0  0
  140.8858   76.4998  223.7345 H   0  0  0  0  0  0  0  0  0  0  0  0
  142.0529   76.7570  222.3586 H   0  0  0  0  0  0  0  0  0  0  0  0
  1  2  2  0
  2  3  1  0
  3  4  2  0
  4  5  1  0
  5  6  2  0
  5  7  1  0
  7  8  1  0
  8  9  1  0
  9 10  1  0
 10 11  2  0
 11 12  1  0
 12 13  1  0
 13 14  1  0
 14 15  1  0
 15 16  1  0
 16 17  1  0
 17 18  1  0
 18 19  1  0
 19 20  1  0
 20 21  1  0
 12 22  2  0
 22 23  1  0
 23 24  1  0
 24 25  1  0
 25 26  1  0
 26 27  1  0
 27 28  2  0
 28 29  1  0
 29 30  2  0
 30 31  1  0
 31 32  2  0
 32 33  1  0
 23 34  2  0
  9 35  1  0
  6  1  1  0
 34 10  1  0
 35  4  1  0
 21 16  1  0
 33 24  1  0
 32 27  1  0
  1 36  1  0
  2 37  1  0
  3 38  1  0
  6 39  1  0
  7 40  1  0
  7 41  1  0
  8 42  1  0
  8 43  1  0
 13 44  1  0
 14 45  1  0
 14 46  1  0
 15 47  1  0
 15 48  1  0
 16 49  1  0
 17 50  1  0
 17 51  1  0
 18 52  1  0
 18 53  1  0
 19 54  1  0
 20 55  1  0
 20 56  1  0
 21 57  1  0
 21 58  1  0
 25 59  1  0
 25 60  1  0
 26 61  1  0
 26 62  1  0
 28 63  1  0
 29 64  1  0
 30 65  1  0
 31 66  1  0
 33 67  1  0
 33 68  1  0
 35 69  1  0
 35 70  1  0
M  END
>  <smiles>  (17) 
c1ccc2c(c1)CCN(c1nc(NCCC3CCNCC3)nc(N3CCc4ccccc4C3)n1)C2

>  <score_type>  (17) 
oracle

>  <origin>  (17) 
autodockgpu

>  <m_score__min__energy>  (17) 
-10.140000000000001

>  <m_primary>  (17) 
energy

>  <rmsd>  (17) 
5.905878831503992

>  <m_score__min__rmsd>  (17) 
5.905878831503992

>  <meeko>  (17) 
{"free_energy": -9.09, "intermolecular_energy": -10.88, "internal_energy": -1.68, "cluster_size": 43, "cluster_id": 1, "rank_in_cluster": 31}

>  <energy>  (17) 
-9.68

>  <cluster_rmsd>  (17) 
1.31

>  <cluster>  (17) 
1

$$$$

     RDKit          3D

 70 75  0  0  0  0  0  0  0  0999 V2000
  139.5990   69.8420  227.9420 C   0  0  0  0  0  0  0  0  0  0  0  0
  140.3870   70.9720  228.0400 C   0  0  0  0  0  0  0  0  0  0  0  0
  140.7740   71.6480  226.9030 C   0  0  0  0  0  0  0  0  0  0  0  0
  140.3600   71.1750  225.6720 C   0  0  0  0  0  0  0  0  0  0  0  0
  139.5680   70.0360  225.6000 C   0  0  0  0  0  0  0  0  0  0  0  0
  139.1690   69.3440  226.7230 C   0  0  0  0  0  0  0  0  0  0  0  0
  139.1730   69.6050  224.2160 C   0  0  0  0  0  0  0  0  0  0  0  0
  138.6460   70.8600  223.5260 C   0  0  0  0  0  0  0  0  0  0  0  0
  139.7470   71.7650  223.3970 N   0  0  0  0  0  0  0  0  0  0  0  0
  139.8630   72.5780  222.2410 C   0  0  0  0  0  0  0  0  0  0  0  0
  139.8100   72.0370  221.0270 N   0  0  0  0  0  0  0  0  0  0  0  0
  139.9180   72.7930  219.8950 C   0  0  0  0  0  0  0  0  0  0  0  0
  139.8520   72.1820  218.6050 N   0  0  0  0  0  0  0  0  0  0  0  0
  141.0060   72.0000  217.7510 C   0  0  0  0  0  0  0  0  0  0  0  0
  142.2560   72.0540  218.5650 C   0  0  0  0  0  0  0  0  0  0  0  0
  143.0100   73.3560  218.4210 C   0  0  0  0  0  0  0  0  0  0  0  0
  143.5390   73.9100  219.6990 C   0  0  0  0  0  0  0  0  0  0  0  0
  143.4380   75.4220  219.7540 C   0  0  0  0  0  0  0  0  0  0  0  0
  143.6900   76.0670  218.5010 N   0  0  0  0  0  0  0  0  0  0  0  0
  142.8880   75.6130  217.4060 C   0  0  0  0  0  0  0  0  0  0  0  0
  142.1130   74.3470  217.7290 C   0  0  0  0  0  0  0  0  0  0  0  0
  140.0830   74.1160  220.0510 N   0  0  0  0  0  0  0  0  0  0  0  0
  140.1420   74.7060  221.2550 C   0  0  0  0  0  0  0  0  0  0  0  0
  140.3180   76.1220  221.4100 N   0  0  0  0  0  0  0  0  0  0  0  0
  140.1140   77.0240  220.3060 C   0  0  0  0  0  0  0  0  0  0  0  0
  141.2330   78.0050  220.1070 C   0  0  0  0  0  0  0  0  0  0  0  0
  141.5020   78.6300  221.4330 C   0  0  0  0  0  0  0  0  0  0  0  0
  142.0170   79.9120  221.4220 C   0  0  0  0  0  0  0  0  0  0  0  0
  142.3040   80.5860  222.5820 C   0  0  0  0  0  0  0  0  0  0  0  0
  142.0640   79.9540  223.7750 C   0  0  0  0  0  0  0  0  0  0  0  0
  141.5470   78.6670  223.7850 C   0  0  0  0  0  0  0  0  0  0  0  0
  141.2570   77.9830  222.6280 C   0  0  0  0  0  0  0  0  0  0  0  0
  140.7060   76.6140  222.7070 C   0  0  0  0  0  0  0  0  0  0  0  0
  140.0290   73.9130  222.3360 N   0  0  0  0  0  0  0  0  0  0  0  0
  140.7490   71.8630  224.4350 C   0  0  0  0  0  0  0  0  0  0  0  0
  139.3027   69.3195  228.8635 H   0  0  0  0  0  0  0  0  0  0  0  0
  140.7067   71.3336  229.0285 H   0  0  0  0  0  0  0  0  0  0  0  0
  141.4016   72.5486  226.9740 H   0  0  0  0  0  0  0  0  0  0  0  0
  138.5417   68.4430  226.6549 H   0  0  0  0  0  0  0  0  0  0  0  0
  140.0443   69.2074  223.6750 H   0  0  0  0  0  0  0  0  0  0  0  0
  138.4159   68.8073  224.2403 H   0  0  0  0  0  0  0  0  0  0  0  0
  138.2488   70.6053  222.5323 H   0  0  0  0  0  0  0  0  0  0  0  0
  137.8326   71.3149  224.1103 H   0  0  0  0  0  0  0  0  0  0  0  0
  138.8990   71.8580  218.2840 H   0  0  0  0  0  0  0  0  0  0  0  0
  140.9387   71.0226  217.2509 H   0  0  0  0  0  0  0  0  0  0  0  0
  141.0294   72.8025  216.9991 H   0  0  0  0  0  0  0  0  0  0  0  0
  141.9887   71.9210  219.6237 H   0  0  0  0  0  0  0  0  0  0  0  0
  142.9165   71.2540  218.1994 H   0  0  0  0  0  0  0  0  0  0  0  0
  143.9091   73.1509  217.8215 H   0  0  0  0  0  0  0  0  0  0  0  0
  142.9624   73.4860  220.5343 H   0  0  0  0  0  0  0  0  0  0  0  0
  144.6031   73.6402  219.7688 H   0  0  0  0  0  0  0  0  0  0  0  0
  142.4230   75.6894  220.0830 H   0  0  0  0  0  0  0  0  0  0  0  0
  144.2139   75.7682  220.4526 H   0  0  0  0  0  0  0  0  0  0  0  0
  144.7020   76.0290  218.2770 H   0  0  0  0  0  0  0  0  0  0  0  0
  142.1723   76.4056  217.1423 H   0  0  0  0  0  0  0  0  0  0  0  0
  143.5668   75.3820  216.5718 H   0  0  0  0  0  0  0  0  0  0  0  0
  141.2680   74.5954  218.3880 H   0  0  0  0  0  0  0  0  0  0  0  0
  141.7396   73.9041  216.7939 H   0  0  0  0  0  0  0  0  0  0  0  0
  140.0080   76.4285  219.3872 H   0  0  0  0  0  0  0  0  0  0  0  0
  139.2122   77.6106  220.5355 H   0  0  0  0  0  0  0  0  0  0  0  0
  142.1320   77.4849  219.7446 H   0  0  0  0  0  0  0  0  0  0  0  0
  140.9612   78.7662  219.3609 H   0  0  0  0  0  0  0  0  0  0  0  0
  142.2020   80.4059  220.4567 H   0  0  0  0  0  0  0  0  0  0  0  0
  142.7155   81.6058  222.5558 H   0  0  0  0  0  0  0  0  0  0  0  0
  142.2813   80.4673  224.7233 H   0  0  0  0  0  0  0  0  0  0  0  0
  141.3626   78.1765  224.7521 H   0  0  0  0  0  0  0  0  0  0  0  0
  141.4711   75.9452  223.1281 H   0  0  0  0  0  0  0  0  0  0  0  0
  139.8113   76.6400  223.3464 H   0  0  0  0  0  0  0  0  0  0  0  0
  141.6833   71.4164  224.0640 H   0  0  0  0  0  0  0  0  0  0  0  0
  140.8718   72.9294  224.6753 H   0  0  0  0  0  0  0  0  0  0  0  0
  1  2  2  0
  2  3  1  0
  3  4  2  0
  4  5  1  0
  5  6  2  0
  5  7  1  0
  7  8  1  0
  8  9  1  0
  9 10  1  0
 10 11  2  0
 11 12  1  0
 12 13  1  0
 13 14  1  0
 14 15  1  0
 15 16  1  0
 16 17  1  0
 17 18  1  0
 18 19  1  0
 19 20  1  0
 20 21  1  0
 12 22  2  0
 22 23  1  0
 23 24  1  0
 24 25  1  0
 25 26  1  0
 26 27  1  0
 27 28  2  0
 28 29  1  0
 29 30  2  0
 30 31  1  0
 31 32  2  0
 32 33  1  0
 23 34  2  0
  9 35  1  0
  6  1  1  0
 34 10  1  0
 35  4  1  0
 21 16  1  0
 33 24  1  0
 32 27  1  0
  1 36  1  0
  2 37  1  0
  3 38  1  0
  6 39  1  0
  7 40  1  0
  7 41  1  0
  8 42  1  0
  8 43  1  0
 13 44  1  0
 14 45  1  0
 14 46  1  0
 15 47  1  0
 15 48  1  0
 16 49  1  0
 17 50  1  0
 17 51  1  0
 18 52  1  0
 18 53  1  0
 19 54  1  0
 20 55  1  0
 20 56  1  0
 21 57  1  0
 21 58  1  0
 25 59  1  0
 25 60  1  0
 26 61  1  0
 26 62  1  0
 28 63  1  0
 29 64  1  0
 30 65  1  0
 31 66  1  0
 33 67  1  0
 33 68  1  0
 35 69  1  0
 35 70  1  0
M  END
>  <smiles>  (18) 
c1ccc2c(c1)CCN(c1nc(NCCC3CCNCC3)nc(N3CCc4ccccc4C3)n1)C2

>  <score_type>  (18) 
oracle

>  <origin>  (18) 
autodockgpu

>  <m_score__min__energy>  (18) 
-10.140000000000001

>  <m_primary>  (18) 
energy

>  <rmsd>  (18) 
4.8305941771197665

>  <m_score__min__rmsd>  (18) 
4.8305941771197665

>  <meeko>  (18) 
{"free_energy": -9.15, "intermolecular_energy": -10.94, "internal_energy": -2.11, "cluster_size": 43, "cluster_id": 1, "rank_in_cluster": 28}

>  <energy>  (18) 
-9.61

>  <cluster_rmsd>  (18) 
1.07

>  <cluster>  (18) 
1

$$$$

     RDKit          3D

 70 75  0  0  0  0  0  0  0  0999 V2000
  141.8900   79.5920  219.4160 C   0  0  0  0  0  0  0  0  0  0  0  0
  142.4850   78.7090  218.5360 C   0  0  0  0  0  0  0  0  0  0  0  0
  142.5780   77.3710  218.8530 C   0  0  0  0  0  0  0  0  0  0  0  0
  142.0690   76.9360  220.0620 C   0  0  0  0  0  0  0  0  0  0  0  0
  141.4750   77.8440  220.9300 C   0  0  0  0  0  0  0  0  0  0  0  0
  141.3700   79.1860  220.6340 C   0  0  0  0  0  0  0  0  0  0  0  0
  140.9540   77.2680  222.2160 C   0  0  0  0  0  0  0  0  0  0  0  0
  140.1280   76.0480  221.8200 C   0  0  0  0  0  0  0  0  0  0  0  0
  141.0310   75.0920  221.2560 N   0  0  0  0  0  0  0  0  0  0  0  0
  140.8340   73.7080  221.4930 C   0  0  0  0  0  0  0  0  0  0  0  0
  140.0120   73.2980  222.4540 N   0  0  0  0  0  0  0  0  0  0  0  0
  139.8010   71.9730  222.7070 C   0  0  0  0  0  0  0  0  0  0  0  0
  138.9070   71.5640  223.7450 N   0  0  0  0  0  0  0  0  0  0  0  0
  138.9030   70.2330  224.3130 C   0  0  0  0  0  0  0  0  0  0  0  0
  140.2980   69.8100  224.6300 C   0  0  0  0  0  0  0  0  0  0  0  0
  140.7670   70.2610  225.9940 C   0  0  0  0  0  0  0  0  0  0  0  0
  139.9960   69.6920  227.1340 C   0  0  0  0  0  0  0  0  0  0  0  0
  139.7970   70.6960  228.2520 C   0  0  0  0  0  0  0  0  0  0  0  0
  140.9220   71.5560  228.4670 N   0  0  0  0  0  0  0  0  0  0  0  0
  141.3790   72.2670  227.3130 C   0  0  0  0  0  0  0  0  0  0  0  0
  140.7500   71.7660  226.0240 C   0  0  0  0  0  0  0  0  0  0  0  0
  140.4610   71.0870  221.9440 N   0  0  0  0  0  0  0  0  0  0  0  0
  141.3010   71.4550  220.9630 C   0  0  0  0  0  0  0  0  0  0  0  0
  142.0010   70.4990  220.1530 N   0  0  0  0  0  0  0  0  0  0  0  0
  141.2940   69.4810  219.4210 C   0  0  0  0  0  0  0  0  0  0  0  0
  141.8480   68.0980  219.6100 C   0  0  0  0  0  0  0  0  0  0  0  0
  143.3170   68.1840  219.3750 C   0  0  0  0  0  0  0  0  0  0  0  0
  143.9390   67.0420  218.9100 C   0  0  0  0  0  0  0  0  0  0  0  0
  145.2870   67.0040  218.6580 C   0  0  0  0  0  0  0  0  0  0  0  0
  146.0200   68.1420  218.8790 C   0  0  0  0  0  0  0  0  0  0  0  0
  145.3950   69.2890  219.3450 C   0  0  0  0  0  0  0  0  0  0  0  0
  144.0440   69.3370  219.6010 C   0  0  0  0  0  0  0  0  0  0  0  0
  143.4380   70.5900  220.0950 C   0  0  0  0  0  0  0  0  0  0  0  0
  141.4690   72.7730  220.7580 N   0  0  0  0  0  0  0  0  0  0  0  0
  142.1470   75.5190  220.4410 C   0  0  0  0  0  0  0  0  0  0  0  0
  141.8269   80.6549  219.1398 H   0  0  0  0  0  0  0  0  0  0  0  0
  142.8858   79.0749  217.5792 H   0  0  0  0  0  0  0  0  0  0  0  0
  143.0489   76.6620  218.1562 H   0  0  0  0  0  0  0  0  0  0  0  0
  140.8982   79.8970  221.3282 H   0  0  0  0  0  0  0  0  0  0  0  0
  141.7883   76.9705  222.8683 H   0  0  0  0  0  0  0  0  0  0  0  0
  140.3523   78.0008  222.7736 H   0  0  0  0  0  0  0  0  0  0  0  0
  139.6342   75.6231  222.7064 H   0  0  0  0  0  0  0  0  0  0  0  0
  139.3471   76.3229  221.0957 H   0  0  0  0  0  0  0  0  0  0  0  0
  138.2250   72.2920  224.0930 H   0  0  0  0  0  0  0  0  0  0  0  0
  138.3035   70.2322  225.2353 H   0  0  0  0  0  0  0  0  0  0  0  0
  138.4690   69.5311  223.5857 H   0  0  0  0  0  0  0  0  0  0  0  0
  140.3469   68.7118  224.5901 H   0  0  0  0  0  0  0  0  0  0  0  0
  140.9573   70.2830  223.8873 H   0  0  0  0  0  0  0  0  0  0  0  0
  141.7865   69.8733  226.1363 H   0  0  0  0  0  0  0  0  0  0  0  0
  139.0099   69.3697  226.7683 H   0  0  0  0  0  0  0  0  0  0  0  0
  140.5702   68.8460  227.5397 H   0  0  0  0  0  0  0  0  0  0  0  0
  138.9257   71.3206  228.0055 H   0  0  0  0  0  0  0  0  0  0  0  0
  139.6548   70.1190  229.1777 H   0  0  0  0  0  0  0  0  0  0  0  0
  141.6900   71.0300  228.9240 H   0  0  0  0  0  0  0  0  0  0  0  0
  141.1299   73.3315  227.4348 H   0  0  0  0  0  0  0  0  0  0  0  0
  142.4646   72.1077  227.2349 H   0  0  0  0  0  0  0  0  0  0  0  0
  139.7102   72.1198  225.9645 H   0  0  0  0  0  0  0  0  0  0  0  0
  141.3245   72.1508  225.1685 H   0  0  0  0  0  0  0  0  0  0  0  0
  140.2451   69.4819  219.7523 H   0  0  0  0  0  0  0  0  0  0  0  0
  141.4007   69.7239  218.3535 H   0  0  0  0  0  0  0  0  0  0  0  0
  141.6486   67.7473  220.6333 H   0  0  0  0  0  0  0  0  0  0  0  0
  141.3789   67.3875  218.9135 H   0  0  0  0  0  0  0  0  0  0  0  0
  143.3369   66.1378  218.7369 H   0  0  0  0  0  0  0  0  0  0  0  0
  145.7670   66.0857  218.2887 H   0  0  0  0  0  0  0  0  0  0  0  0
  147.1031   68.1449  218.6867 H   0  0  0  0  0  0  0  0  0  0  0  0
  146.0003   70.1915  219.5158 H   0  0  0  0  0  0  0  0  0  0  0  0
  143.8232   70.7990  221.1039 H   0  0  0  0  0  0  0  0  0  0  0  0
  143.7031   71.3981  219.3973 H   0  0  0  0  0  0  0  0  0  0  0  0
  143.0766   75.3576  221.0065 H   0  0  0  0  0  0  0  0  0  0  0  0
  142.1239   74.9276  219.5138 H   0  0  0  0  0  0  0  0  0  0  0  0
  1  2  2  0
  2  3  1  0
  3  4  2  0
  4  5  1  0
  5  6  2  0
  5  7  1  0
  7  8  1  0
  8  9  1  0
  9 10  1  0
 10 11  2  0
 11 12  1  0
 12 13  1  0
 13 14  1  0
 14 15  1  0
 15 16  1  0
 16 17  1  0
 17 18  1  0
 18 19  1  0
 19 20  1  0
 20 21  1  0
 12 22  2  0
 22 23  1  0
 23 24  1  0
 24 25  1  0
 25 26  1  0
 26 27  1  0
 27 28  2  0
 28 29  1  0
 29 30  2  0
 30 31  1  0
 31 32  2  0
 32 33  1  0
 23 34  2  0
  9 35  1  0
  6  1  1  0
 34 10  1  0
 35  4  1  0
 21 16  1  0
 33 24  1  0
 32 27  1  0
  1 36  1  0
  2 37  1  0
  3 38  1  0
  6 39  1  0
  7 40  1  0
  7 41  1  0
  8 42  1  0
  8 43  1  0
 13 44  1  0
 14 45  1  0
 14 46  1  0
 15 47  1  0
 15 48  1  0
 16 49  1  0
 17 50  1  0
 17 51  1  0
 18 52  1  0
 18 53  1  0
 19 54  1  0
 20 55  1  0
 20 56  1  0
 21 57  1  0
 21 58  1  0
 25 59  1  0
 25 60  1  0
 26 61  1  0
 26 62  1  0
 28 63  1  0
 29 64  1  0
 30 65  1  0
 31 66  1  0
 33 67  1  0
 33 68  1  0
 35 69  1  0
 35 70  1  0
M  END
>  <smiles>  (19) 
c1ccc2c(c1)CCN(c1nc(NCCC3CCNCC3)nc(N3CCc4ccccc4C3)n1)C2

>  <score_type>  (19) 
oracle

>  <origin>  (19) 
autodockgpu

>  <m_score__min__energy>  (19) 
-10.140000000000001

>  <m_primary>  (19) 
energy

>  <rmsd>  (19) 
9.319381037161829

>  <m_score__min__rmsd>  (19) 
9.319381037161829

>  <meeko>  (19) 
{"free_energy": -9.23, "intermolecular_energy": -11.02, "internal_energy": -1.14, "cluster_size": 6, "cluster_id": 2, "rank_in_cluster": 6}

>  <energy>  (19) 
-9.54

>  <cluster_rmsd>  (19) 
1.04

>  <cluster>  (19) 
1

$$$$

     RDKit          3D

 70 75  0  0  0  0  0  0  0  0999 V2000
  140.9860   81.1280  223.3200 C   0  0  0  0  0  0  0  0  0  0  0  0
  142.2020   80.4860  223.1940 C   0  0  0  0  0  0  0  0  0  0  0  0
  142.2500   79.1220  223.0020 C   0  0  0  0  0  0  0  0  0  0  0  0
  141.0630   78.4160  222.9380 C   0  0  0  0  0  0  0  0  0  0  0  0
  139.8530   79.0850  223.0680 C   0  0  0  0  0  0  0  0  0  0  0  0
  139.7810   80.4480  223.2610 C   0  0  0  0  0  0  0  0  0  0  0  0
  138.6230   78.2260  222.9840 C   0  0  0  0  0  0  0  0  0  0  0  0
  138.8050   77.3600  221.7410 C   0  0  0  0  0  0  0  0  0  0  0  0
  139.9180   76.4950  221.9890 N   0  0  0  0  0  0  0  0  0  0  0  0
  139.9020   75.1640  221.5010 C   0  0  0  0  0  0  0  0  0  0  0  0
  139.8870   74.9260  220.1920 N   0  0  0  0  0  0  0  0  0  0  0  0
  139.8720   73.6560  219.6900 C   0  0  0  0  0  0  0  0  0  0  0  0
  139.8600   73.4330  218.2780 N   0  0  0  0  0  0  0  0  0  0  0  0
  140.7700   74.0850  217.3620 C   0  0  0  0  0  0  0  0  0  0  0  0
  142.0550   73.3300  217.2950 C   0  0  0  0  0  0  0  0  0  0  0  0
  143.1300   73.8940  218.1960 C   0  0  0  0  0  0  0  0  0  0  0  0
  143.6550   72.9360  219.2090 C   0  0  0  0  0  0  0  0  0  0  0  0
  143.9430   73.6060  220.5380 C   0  0  0  0  0  0  0  0  0  0  0  0
  144.4760   74.9300  220.4170 N   0  0  0  0  0  0  0  0  0  0  0  0
  143.6970   75.8340  219.6280 C   0  0  0  0  0  0  0  0  0  0  0  0
  142.5930   75.1380  218.8510 C   0  0  0  0  0  0  0  0  0  0  0  0
  139.8720   72.6450  220.5730 N   0  0  0  0  0  0  0  0  0  0  0  0
  139.8870   72.8370  221.9010 C   0  0  0  0  0  0  0  0  0  0  0  0
  139.8860   71.7480  222.8360 N   0  0  0  0  0  0  0  0  0  0  0  0
  139.0970   70.5660  222.6040 C   0  0  0  0  0  0  0  0  0  0  0  0
  138.2650   70.1490  223.7820 C   0  0  0  0  0  0  0  0  0  0  0  0
  139.1720   70.1180  224.9640 C   0  0  0  0  0  0  0  0  0  0  0  0
  138.8410   69.2400  225.9780 C   0  0  0  0  0  0  0  0  0  0  0  0
  139.6030   69.1270  227.1130 C   0  0  0  0  0  0  0  0  0  0  0  0
  140.7200   69.9140  227.2250 C   0  0  0  0  0  0  0  0  0  0  0  0
  141.0520   70.7950  226.2070 C   0  0  0  0  0  0  0  0  0  0  0  0
  140.2950   70.9160  225.0650 C   0  0  0  0  0  0  0  0  0  0  0  0
  140.7020   71.8730  224.0160 C   0  0  0  0  0  0  0  0  0  0  0  0
  139.9020   74.1090  222.3390 N   0  0  0  0  0  0  0  0  0  0  0  0
  141.0660   76.9620  222.7350 C   0  0  0  0  0  0  0  0  0  0  0  0
  140.9740   82.2173  223.4725 H   0  0  0  0  0  0  0  0  0  0  0  0
  143.1357   81.0652  223.2470 H   0  0  0  0  0  0  0  0  0  0  0  0
  143.2154   78.6044  222.9015 H   0  0  0  0  0  0  0  0  0  0  0  0
  138.8171   80.9682  223.3628 H   0  0  0  0  0  0  0  0  0  0  0  0
  138.5344   77.5952  223.8808 H   0  0  0  0  0  0  0  0  0  0  0  0
  137.7081   78.8337  222.9237 H   0  0  0  0  0  0  0  0  0  0  0  0
  137.8978   76.7649  221.5598 H   0  0  0  0  0  0  0  0  0  0  0  0
  138.9845   77.9835  220.8527 H   0  0  0  0  0  0  0  0  0  0  0  0
  139.1390   72.7520  217.9140 H   0  0  0  0  0  0  0  0  0  0  0  0
  140.3158   74.1204  216.3608 H   0  0  0  0  0  0  0  0  0  0  0  0
  140.9697   75.1066  217.7176 H   0  0  0  0  0  0  0  0  0  0  0  0
  141.8631   72.2881  217.5909 H   0  0  0  0  0  0  0  0  0  0  0  0
  142.4237   73.4073  216.2615 H   0  0  0  0  0  0  0  0  0  0  0  0
  144.0005   74.1246  217.5643 H   0  0  0  0  0  0  0  0  0  0  0  0
  142.9088   72.1433  219.3666 H   0  0  0  0  0  0  0  0  0  0  0  0
  144.6012   72.5259  218.8263 H   0  0  0  0  0  0  0  0  0  0  0  0
  143.0042   73.6614  221.1086 H   0  0  0  0  0  0  0  0  0  0  0  0
  144.7087   72.9984  221.0426 H   0  0  0  0  0  0  0  0  0  0  0  0
  145.4600   74.8890  220.0950 H   0  0  0  0  0  0  0  0  0  0  0  0
  143.2403   76.5792  220.2959 H   0  0  0  0  0  0  0  0  0  0  0  0
  144.3727   76.3007  218.8962 H   0  0  0  0  0  0  0  0  0  0  0  0
  141.7795   74.8651  219.5393 H   0  0  0  0  0  0  0  0  0  0  0  0
  142.2128   75.8191  218.0754 H   0  0  0  0  0  0  0  0  0  0  0  0
  138.4239   70.7599  221.7559 H   0  0  0  0  0  0  0  0  0  0  0  0
  139.8021   69.7455  222.4047 H   0  0  0  0  0  0  0  0  0  0  0  0
  137.4534   70.8729  223.9470 H   0  0  0  0  0  0  0  0  0  0  0  0
  137.8073   69.1634  223.6113 H   0  0  0  0  0  0  0  0  0  0  0  0
  137.9422   68.6147  225.8723 H   0  0  0  0  0  0  0  0  0  0  0  0
  139.3253   68.4238  227.9119 H   0  0  0  0  0  0  0  0  0  0  0  0
  141.3527   69.8466  228.1223 H   0  0  0  0  0  0  0  0  0  0  0  0
  141.9516   71.4185  226.3165 H   0  0  0  0  0  0  0  0  0  0  0  0
  140.6056   72.8957  224.4095 H   0  0  0  0  0  0  0  0  0  0  0  0
  141.7435   71.6545  223.7377 H   0  0  0  0  0  0  0  0  0  0  0  0
  141.0687   76.4703  223.7190 H   0  0  0  0  0  0  0  0  0  0  0  0
  141.9634   76.7124  222.1499 H   0  0  0  0  0  0  0  0  0  0  0  0
  1  2  2  0
  2  3  1  0
  3  4  2  0
  4  5  1  0
  5  6  2  0
  5  7  1  0
  7  8  1  0
  8  9  1  0
  9 10  1  0
 10 11  2  0
 11 12  1  0
 12 13  1  0
 13 14  1  0
 14 15  1  0
 15 16  1  0
 16 17  1  0
 17 18  1  0
 18 19  1  0
 19 20  1  0
 20 21  1  0
 12 22  2  0
 22 23  1  0
 23 24  1  0
 24 25  1  0
 25 26  1  0
 26 27  1  0
 27 28  2  0
 28 29  1  0
 29 30  2  0
 30 31  1  0
 31 32  2  0
 32 33  1  0
 23 34  2  0
  9 35  1  0
  6  1  1  0
 34 10  1  0
 35  4  1  0
 21 16  1  0
 33 24  1  0
 32 27  1  0
  1 36  1  0
  2 37  1  0
  3 38  1  0
  6 39  1  0
  7 40  1  0
  7 41  1  0
  8 42  1  0
  8 43  1  0
 13 44  1  0
 14 45  1  0
 14 46  1  0
 15 47  1  0
 15 48  1  0
 16 49  1  0
 17 50  1  0
 17 51  1  0
 18 52  1  0
 18 53  1  0
 19 54  1  0
 20 55  1  0
 20 56  1  0
 21 57  1  0
 21 58  1  0
 25 59  1  0
 25 60  1  0
 26 61  1  0
 26 62  1  0
 28 63  1  0
 29 64  1  0
 30 65  1  0
 31 66  1  0
 33 67  1  0
 33 68  1  0
 35 69  1  0
 35 70  1  0
M  END
>  <smiles>  (20) 
c1ccc2c(c1)CCN(c1nc(NCCC3CCNCC3)nc(N3CCc4ccccc4C3)n1)C2

>  <score_type>  (20) 
oracle

>  <origin>  (20) 
autodockgpu

>  <m_score__min__energy>  (20) 
-10.140000000000001

>  <m_primary>  (20) 
energy

>  <rmsd>  (20) 
4.989932912055922

>  <m_score__min__rmsd>  (20) 
4.989932912055922

>  <meeko>  (20) 
{"free_energy": -9.0, "intermolecular_energy": -10.79, "internal_energy": -1.77, "cluster_size": 43, "cluster_id": 1, "rank_in_cluster": 36}

>  <energy>  (20) 
-9.5

>  <cluster_rmsd>  (20) 
1.44

>  <cluster>  (20) 
1

$$$$

     RDKit          3D

 70 75  0  0  0  0  0  0  0  0999 V2000
  141.0480   81.2100  223.5720 C   0  0  0  0  0  0  0  0  0  0  0  0
  142.1830   80.4820  223.8750 C   0  0  0  0  0  0  0  0  0  0  0  0
  142.2130   79.1210  223.6540 C   0  0  0  0  0  0  0  0  0  0  0  0
  141.0920   78.5060  223.1280 C   0  0  0  0  0  0  0  0  0  0  0  0
  139.9640   79.2600  222.8320 C   0  0  0  0  0  0  0  0  0  0  0  0
  139.9110   80.6210  223.0440 C   0  0  0  0  0  0  0  0  0  0  0  0
  138.8020   78.4960  222.2650 C   0  0  0  0  0  0  0  0  0  0  0  0
  139.3760   77.6410  221.1410 C   0  0  0  0  0  0  0  0  0  0  0  0
  140.2630   76.6920  221.7420 N   0  0  0  0  0  0  0  0  0  0  0  0
  140.3460   75.3740  221.2250 C   0  0  0  0  0  0  0  0  0  0  0  0
  140.6440   75.1700  219.9450 N   0  0  0  0  0  0  0  0  0  0  0  0
  140.7320   73.9130  219.4160 C   0  0  0  0  0  0  0  0  0  0  0  0
  141.0590   73.7260  218.0380 N   0  0  0  0  0  0  0  0  0  0  0  0
  142.3540   74.0440  217.4770 C   0  0  0  0  0  0  0  0  0  0  0  0
  143.1970   74.7320  218.4980 C   0  0  0  0  0  0  0  0  0  0  0  0
  143.9770   73.7780  219.3730 C   0  0  0  0  0  0  0  0  0  0  0  0
  144.7260   74.4280  220.4840 C   0  0  0  0  0  0  0  0  0  0  0  0
  146.0730   73.7780  220.7270 C   0  0  0  0  0  0  0  0  0  0  0  0
  146.0700   72.3550  220.5620 N   0  0  0  0  0  0  0  0  0  0  0  0
  145.5740   71.8860  219.3050 C   0  0  0  0  0  0  0  0  0  0  0  0
  144.8980   72.9770  218.4930 C   0  0  0  0  0  0  0  0  0  0  0  0
  140.5040   72.8800  220.2430 N   0  0  0  0  0  0  0  0  0  0  0  0
  140.2000   73.0390  221.5410 C   0  0  0  0  0  0  0  0  0  0  0  0
  139.9590   71.9260  222.4150 N   0  0  0  0  0  0  0  0  0  0  0  0
  138.9520   70.9420  222.1090 C   0  0  0  0  0  0  0  0  0  0  0  0
  138.0270   70.6430  223.2520 C   0  0  0  0  0  0  0  0  0  0  0  0
  138.8810   70.3700  224.4430 C   0  0  0  0  0  0  0  0  0  0  0  0
  138.3560   69.5270  225.4030 C   0  0  0  0  0  0  0  0  0  0  0  0
  139.0520   69.2050  226.5400 C   0  0  0  0  0  0  0  0  0  0  0  0
  140.3030   69.7430  226.7090 C   0  0  0  0  0  0  0  0  0  0  0  0
  140.8290   70.5880  225.7450 C   0  0  0  0  0  0  0  0  0  0  0  0
  140.1390   70.9180  224.6010 C   0  0  0  0  0  0  0  0  0  0  0  0
  140.7550   71.8240  223.6110 C   0  0  0  0  0  0  0  0  0  0  0  0
  140.1280   74.2980  222.0070 N   0  0  0  0  0  0  0  0  0  0  0  0
  141.0800   77.0600  222.8770 C   0  0  0  0  0  0  0  0  0  0  0  0
  141.0476   82.2944  223.7565 H   0  0  0  0  0  0  0  0  0  0  0  0
  143.0647   80.9894  224.2935 H   0  0  0  0  0  0  0  0  0  0  0  0
  143.1130   78.5351  223.8921 H   0  0  0  0  0  0  0  0  0  0  0  0
  139.0122   81.2089  222.8062 H   0  0  0  0  0  0  0  0  0  0  0  0
  138.3489   77.8582  223.0383 H   0  0  0  0  0  0  0  0  0  0  0  0
  138.0140   79.1704  221.8987 H   0  0  0  0  0  0  0  0  0  0  0  0
  138.5648   77.1174  220.6139 H   0  0  0  0  0  0  0  0  0  0  0  0
  139.9096   78.2651  220.4091 H   0  0  0  0  0  0  0  0  0  0  0  0
  140.2950   73.3360  217.4210 H   0  0  0  0  0  0  0  0  0  0  0  0
  142.8514   73.1157  217.1594 H   0  0  0  0  0  0  0  0  0  0  0  0
  142.2193   74.7097  216.6117 H   0  0  0  0  0  0  0  0  0  0  0  0
  143.9091   75.3890  217.9771 H   0  0  0  0  0  0  0  0  0  0  0  0
  142.5174   75.2942  219.1553 H   0  0  0  0  0  0  0  0  0  0  0  0
  143.2494   73.1276  219.8805 H   0  0  0  0  0  0  0  0  0  0  0  0
  144.8845   75.4869  220.2318 H   0  0  0  0  0  0  0  0  0  0  0  0
  144.1291   74.3186  221.4015 H   0  0  0  0  0  0  0  0  0  0  0  0
  146.7972   74.2071  220.0189 H   0  0  0  0  0  0  0  0  0  0  0  0
  146.3385   73.9769  221.7758 H   0  0  0  0  0  0  0  0  0  0  0  0
  145.5820   71.9060  221.3590 H   0  0  0  0  0  0  0  0  0  0  0  0
  146.4167   71.4857  218.7223 H   0  0  0  0  0  0  0  0  0  0  0  0
  144.8188   71.1143  219.5149 H   0  0  0  0  0  0  0  0  0  0  0  0
  145.6640   73.6416  218.0670 H   0  0  0  0  0  0  0  0  0  0  0  0
  144.3130   72.5150  217.6841 H   0  0  0  0  0  0  0  0  0  0  0  0
  138.3513   71.3120  221.2650 H   0  0  0  0  0  0  0  0  0  0  0  0
  139.4807   70.0067  221.8730 H   0  0  0  0  0  0  0  0  0  0  0  0
  137.3738   71.5067  223.4454 H   0  0  0  0  0  0  0  0  0  0  0  0
  137.3853   69.7795  223.0225 H   0  0  0  0  0  0  0  0  0  0  0  0
  137.3526   69.1025  225.2515 H   0  0  0  0  0  0  0  0  0  0  0  0
  138.6191   68.5335  227.2961 H   0  0  0  0  0  0  0  0  0  0  0  0
  140.8879   69.5036  227.6093 H   0  0  0  0  0  0  0  0  0  0  0  0
  141.8331   71.0097  225.8996 H   0  0  0  0  0  0  0  0  0  0  0  0
  140.8570   72.8240  224.0578 H   0  0  0  0  0  0  0  0  0  0  0  0
  141.7376   71.4136  223.3351 H   0  0  0  0  0  0  0  0  0  0  0  0
  140.6884   76.5520  223.7706 H   0  0  0  0  0  0  0  0  0  0  0  0
  142.1129   76.7557  222.6523 H   0  0  0  0  0  0  0  0  0  0  0  0
  1  2  2  0
  2  3  1  0
  3  4  2  0
  4  5  1  0
  5  6  2  0
  5  7  1  0
  7  8  1  0
  8  9  1  0
  9 10  1  0
 10 11  2  0
 11 12  1  0
 12 13  1  0
 13 14  1  0
 14 15  1  0
 15 16  1  0
 16 17  1  0
 17 18  1  0
 18 19  1  0
 19 20  1  0
 20 21  1  0
 12 22  2  0
 22 23  1  0
 23 24  1  0
 24 25  1  0
 25 26  1  0
 26 27  1  0
 27 28  2  0
 28 29  1  0
 29 30  2  0
 30 31  1  0
 31 32  2  0
 32 33  1  0
 23 34  2  0
  9 35  1  0
  6  1  1  0
 34 10  1  0
 35  4  1  0
 21 16  1  0
 33 24  1  0
 32 27  1  0
  1 36  1  0
  2 37  1  0
  3 38  1  0
  6 39  1  0
  7 40  1  0
  7 41  1  0
  8 42  1  0
  8 43  1  0
 13 44  1  0
 14 45  1  0
 14 46  1  0
 15 47  1  0
 15 48  1  0
 16 49  1  0
 17 50  1  0
 17 51  1  0
 18 52  1  0
 18 53  1  0
 19 54  1  0
 20 55  1  0
 20 56  1  0
 21 57  1  0
 21 58  1  0
 25 59  1  0
 25 60  1  0
 26 61  1  0
 26 62  1  0
 28 63  1  0
 29 64  1  0
 30 65  1  0
 31 66  1  0
 33 67  1  0
 33 68  1  0
 35 69  1  0
 35 70  1  0
M  END
>  <smiles>  (21) 
c1ccc2c(c1)CCN(c1nc(NCCC3CCNCC3)nc(N3CCc4ccccc4C3)n1)C2

>  <score_type>  (21) 
oracle

>  <origin>  (21) 
autodockgpu

>  <m_score__min__energy>  (21) 
-10.140000000000001

>  <m_primary>  (21) 
energy

>  <rmsd>  (21) 
5.676303960160362

>  <m_score__min__rmsd>  (21) 
5.676303960160362

>  <meeko>  (21) 
{"free_energy": -9.36, "intermolecular_energy": -11.15, "internal_energy": -1.32, "cluster_size": 43, "cluster_id": 1, "rank_in_cluster": 23}

>  <energy>  (21) 
-9.49

>  <cluster_rmsd>  (21) 
0.96

>  <cluster>  (21) 
1

$$$$

     RDKit          3D

 70 75  0  0  0  0  0  0  0  0999 V2000
  139.5710   68.3920  227.1100 C   0  0  0  0  0  0  0  0  0  0  0  0
  140.3940   69.4300  227.5010 C   0  0  0  0  0  0  0  0  0  0  0  0
  140.8190   70.3630  226.5780 C   0  0  0  0  0  0  0  0  0  0  0  0
  140.4080   70.2360  225.2650 C   0  0  0  0  0  0  0  0  0  0  0  0
  139.5810   69.1820  224.8970 C   0  0  0  0  0  0  0  0  0  0  0  0
  139.1430   68.2390  225.8020 C   0  0  0  0  0  0  0  0  0  0  0  0
  139.1920   69.1360  223.4470 C   0  0  0  0  0  0  0  0  0  0  0  0
  138.7160   70.5430  223.1000 C   0  0  0  0  0  0  0  0  0  0  0  0
  139.8470   71.4120  223.2150 N   0  0  0  0  0  0  0  0  0  0  0  0
  140.0060   72.4910  222.3080 C   0  0  0  0  0  0  0  0  0  0  0  0
  140.2890   72.2600  221.0290 N   0  0  0  0  0  0  0  0  0  0  0  0
  140.4480   73.2770  220.1300 C   0  0  0  0  0  0  0  0  0  0  0  0
  140.7460   72.9970  218.7610 N   0  0  0  0  0  0  0  0  0  0  0  0
  141.8570   73.5940  218.0510 C   0  0  0  0  0  0  0  0  0  0  0  0
  142.7610   74.2900  219.0120 C   0  0  0  0  0  0  0  0  0  0  0  0
  143.8380   73.3940  219.5790 C   0  0  0  0  0  0  0  0  0  0  0  0
  144.7850   74.0740  220.5070 C   0  0  0  0  0  0  0  0  0  0  0  0
  146.2070   73.5770  220.3420 C   0  0  0  0  0  0  0  0  0  0  0  0
  146.3050   72.1740  220.0740 N   0  0  0  0  0  0  0  0  0  0  0  0
  145.5440   71.7100  218.9550 C   0  0  0  0  0  0  0  0  0  0  0  0
  144.5690   72.7510  218.4320 C   0  0  0  0  0  0  0  0  0  0  0  0
  140.3080   74.5310  220.5880 N   0  0  0  0  0  0  0  0  0  0  0  0
  140.0240   74.8110  221.8700 C   0  0  0  0  0  0  0  0  0  0  0  0
  139.8770   76.1560  222.3490 N   0  0  0  0  0  0  0  0  0  0  0  0
  138.5800   76.7740  222.4510 C   0  0  0  0  0  0  0  0  0  0  0  0
  138.5060   78.1410  221.8360 C   0  0  0  0  0  0  0  0  0  0  0  0
  139.6570   78.9210  222.3750 C   0  0  0  0  0  0  0  0  0  0  0  0
  139.4950   80.2910  222.4540 C   0  0  0  0  0  0  0  0  0  0  0  0
  140.4860   81.1090  222.9330 C   0  0  0  0  0  0  0  0  0  0  0  0
  141.6620   80.5320  223.3410 C   0  0  0  0  0  0  0  0  0  0  0  0
  141.8230   79.1580  223.2620 C   0  0  0  0  0  0  0  0  0  0  0  0
  140.8360   78.3290  222.7830 C   0  0  0  0  0  0  0  0  0  0  0  0
  141.0690   76.8710  222.7240 C   0  0  0  0  0  0  0  0  0  0  0  0
  139.8770   73.7710  222.7100 N   0  0  0  0  0  0  0  0  0  0  0  0
  140.8370   71.2050  224.2490 C   0  0  0  0  0  0  0  0  0  0  0  0
  139.2440   67.6611  227.8642 H   0  0  0  0  0  0  0  0  0  0  0  0
  140.7113   69.5129  228.5510 H   0  0  0  0  0  0  0  0  0  0  0  0
  141.4734   71.1933  226.8819 H   0  0  0  0  0  0  0  0  0  0  0  0
  138.4877   67.4084  225.5009 H   0  0  0  0  0  0  0  0  0  0  0  0
  140.0576   68.8605  222.8267 H   0  0  0  0  0  0  0  0  0  0  0  0
  138.4089   68.3862  223.2614 H   0  0  0  0  0  0  0  0  0  0  0  0
  138.3258   70.5661  222.0718 H   0  0  0  0  0  0  0  0  0  0  0  0
  137.9089   70.8604  223.7766 H   0  0  0  0  0  0  0  0  0  0  0  0
  140.1060   72.3160  218.2680 H   0  0  0  0  0  0  0  0  0  0  0  0
  142.4191   72.8074  217.5263 H   0  0  0  0  0  0  0  0  0  0  0  0
  141.4710   74.3241  217.3244 H   0  0  0  0  0  0  0  0  0  0  0  0
  143.2444   75.1294  218.4907 H   0  0  0  0  0  0  0  0  0  0  0  0
  142.1409   74.6266  219.8559 H   0  0  0  0  0  0  0  0  0  0  0  0
  143.3410   72.6381  220.2048 H   0  0  0  0  0  0  0  0  0  0  0  0
  144.7624   75.1552  220.3060 H   0  0  0  0  0  0  0  0  0  0  0  0
  144.4672   73.8504  221.5361 H   0  0  0  0  0  0  0  0  0  0  0  0
  146.6694   74.1222  219.5059 H   0  0  0  0  0  0  0  0  0  0  0  0
  146.7200   73.7554  221.2985 H   0  0  0  0  0  0  0  0  0  0  0  0
  146.0940   71.6320  220.9330 H   0  0  0  0  0  0  0  0  0  0  0  0
  146.2384   71.4411  218.1453 H   0  0  0  0  0  0  0  0  0  0  0  0
  144.9544   70.8447  219.2921 H   0  0  0  0  0  0  0  0  0  0  0  0
  145.1227   73.5214  217.8753 H   0  0  0  0  0  0  0  0  0  0  0  0
  143.8406   72.2621  217.7684 H   0  0  0  0  0  0  0  0  0  0  0  0
  137.8477   76.1271  221.9457 H   0  0  0  0  0  0  0  0  0  0  0  0
  138.3683   76.8953  223.5236 H   0  0  0  0  0  0  0  0  0  0  0  0
  138.5784   78.0676  220.7408 H   0  0  0  0  0  0  0  0  0  0  0  0
  137.5509   78.6304  222.0776 H   0  0  0  0  0  0  0  0  0  0  0  0
  138.5455   80.7375  222.1237 H   0  0  0  0  0  0  0  0  0  0  0  0
  140.3419   82.1981  222.9886 H   0  0  0  0  0  0  0  0  0  0  0  0
  142.4768   81.1599  223.7307 H   0  0  0  0  0  0  0  0  0  0  0  0
  142.7735   78.7150  223.5940 H   0  0  0  0  0  0  0  0  0  0  0  0
  141.8559   76.6654  221.9833 H   0  0  0  0  0  0  0  0  0  0  0  0
  141.3718   76.5313  223.7255 H   0  0  0  0  0  0  0  0  0  0  0  0
  141.7617   70.8365  223.7808 H   0  0  0  0  0  0  0  0  0  0  0  0
  140.9909   72.1688  224.7563 H   0  0  0  0  0  0  0  0  0  0  0  0
  1  2  2  0
  2  3  1  0
  3  4  2  0
  4  5  1  0
  5  6  2  0
  5  7  1  0
  7  8  1  0
  8  9  1  0
  9 10  1  0
 10 11  2  0
 11 12  1  0
 12 13  1  0
 13 14  1  0
 14 15  1  0
 15 16  1  0
 16 17  1  0
 17 18  1  0
 18 19  1  0
 19 20  1  0
 20 21  1  0
 12 22  2  0
 22 23  1  0
 23 24  1  0
 24 25  1  0
 25 26  1  0
 26 27  1  0
 27 28  2  0
 28 29  1  0
 29 30  2  0
 30 31  1  0
 31 32  2  0
 32 33  1  0
 23 34  2  0
  9 35  1  0
  6  1  1  0
 34 10  1  0
 35  4  1  0
 21 16  1  0
 33 24  1  0
 32 27  1  0
  1 36  1  0
  2 37  1  0
  3 38  1  0
  6 39  1  0
  7 40  1  0
  7 41  1  0
  8 42  1  0
  8 43  1  0
 13 44  1  0
 14 45  1  0
 14 46  1  0
 15 47  1  0
 15 48  1  0
 16 49  1  0
 17 50  1  0
 17 51  1  0
 18 52  1  0
 18 53  1  0
 19 54  1  0
 20 55  1  0
 20 56  1  0
 21 57  1  0
 21 58  1  0
 25 59  1  0
 25 60  1  0
 26 61  1  0
 26 62  1  0
 28 63  1  0
 29 64  1  0
 30 65  1  0
 31 66  1  0
 33 67  1  0
 33 68  1  0
 35 69  1  0
 35 70  1  0
M  END
>  <smiles>  (22) 
c1ccc2c(c1)CCN(c1nc(NCCC3CCNCC3)nc(N3CCc4ccccc4C3)n1)C2

>  <score_type>  (22) 
oracle

>  <origin>  (22) 
autodockgpu

>  <m_score__min__energy>  (22) 
-10.140000000000001

>  <m_primary>  (22) 
energy

>  <rmsd>  (22) 
5.787680459516007

>  <m_score__min__rmsd>  (22) 
5.787680459516007

>  <meeko>  (22) 
{"free_energy": -9.9, "intermolecular_energy": -11.69, "internal_energy": -1.21, "cluster_size": 43, "cluster_id": 1, "rank_in_cluster": 4}

>  <energy>  (22) 
-9.49

>  <cluster_rmsd>  (22) 
1.3

>  <cluster>  (22) 
1

$$$$

     RDKit          3D

 70 75  0  0  0  0  0  0  0  0999 V2000
  139.9110   69.4400  228.2300 C   0  0  0  0  0  0  0  0  0  0  0  0
  140.6850   70.5790  228.3390 C   0  0  0  0  0  0  0  0  0  0  0  0
  141.0440   71.2840  227.2090 C   0  0  0  0  0  0  0  0  0  0  0  0
  140.6150   70.8300  225.9760 C   0  0  0  0  0  0  0  0  0  0  0  0
  139.8360   69.6830  225.8940 C   0  0  0  0  0  0  0  0  0  0  0  0
  139.4660   68.9620  227.0090 C   0  0  0  0  0  0  0  0  0  0  0  0
  139.4230   69.2750  224.5080 C   0  0  0  0  0  0  0  0  0  0  0  0
  138.8680   70.5360  223.8530 C   0  0  0  0  0  0  0  0  0  0  0  0
  139.9540   71.4590  223.7250 N   0  0  0  0  0  0  0  0  0  0  0  0
  140.0400   72.2980  222.5840 C   0  0  0  0  0  0  0  0  0  0  0  0
  140.2110   71.7740  221.3730 N   0  0  0  0  0  0  0  0  0  0  0  0
  140.2960   72.5540  220.2560 C   0  0  0  0  0  0  0  0  0  0  0  0
  140.4750   71.9620  218.9680 N   0  0  0  0  0  0  0  0  0  0  0  0
  141.7710   71.6290  218.4180 C   0  0  0  0  0  0  0  0  0  0  0  0
  142.7500   71.4060  219.5210 C   0  0  0  0  0  0  0  0  0  0  0  0
  143.8540   72.4380  219.5620 C   0  0  0  0  0  0  0  0  0  0  0  0
  145.2000   71.8930  219.8960 C   0  0  0  0  0  0  0  0  0  0  0  0
  145.9970   72.8310  220.7800 C   0  0  0  0  0  0  0  0  0  0  0  0
  145.8080   74.2180  220.4740 N   0  0  0  0  0  0  0  0  0  0  0  0
  144.4490   74.6650  220.4700 C   0  0  0  0  0  0  0  0  0  0  0  0
  143.4520   73.5200  220.5270 C   0  0  0  0  0  0  0  0  0  0  0  0
  140.2020   73.8830  220.4230 N   0  0  0  0  0  0  0  0  0  0  0  0
  140.0290   74.4550  221.6250 C   0  0  0  0  0  0  0  0  0  0  0  0
  139.9300   75.8770  221.7930 N   0  0  0  0  0  0  0  0  0  0  0  0
  141.0730   76.7320  221.6020 C   0  0  0  0  0  0  0  0  0  0  0  0
  141.2940   77.7110  222.7190 C   0  0  0  0  0  0  0  0  0  0  0  0
  139.9910   78.3910  222.9640 C   0  0  0  0  0  0  0  0  0  0  0  0
  140.0470   79.6740  223.4730 C   0  0  0  0  0  0  0  0  0  0  0  0
  138.9110   80.3960  223.7390 C   0  0  0  0  0  0  0  0  0  0  0  0
  137.6970   79.8120  223.4840 C   0  0  0  0  0  0  0  0  0  0  0  0
  137.6420   78.5240  222.9730 C   0  0  0  0  0  0  0  0  0  0  0  0
  138.7740   77.7920  222.7030 C   0  0  0  0  0  0  0  0  0  0  0  0
  138.6490   76.4240  222.1580 C   0  0  0  0  0  0  0  0  0  0  0  0
  139.9510   73.6380  222.6910 N   0  0  0  0  0  0  0  0  0  0  0  0
  140.9730   71.5490  224.7470 C   0  0  0  0  0  0  0  0  0  0  0  0
  139.6387   68.8937  229.1451 H   0  0  0  0  0  0  0  0  0  0  0  0
  141.0159   70.9247  229.3295 H   0  0  0  0  0  0  0  0  0  0  0  0
  141.6608   72.1914  227.2878 H   0  0  0  0  0  0  0  0  0  0  0  0
  138.8494   68.0543  226.9328 H   0  0  0  0  0  0  0  0  0  0  0  0
  140.2901   68.9002  223.9444 H   0  0  0  0  0  0  0  0  0  0  0  0
  138.6769   68.4669  224.5287 H   0  0  0  0  0  0  0  0  0  0  0  0
  138.4582   70.2962  222.8608 H   0  0  0  0  0  0  0  0  0  0  0  0
  138.0582   70.9673  224.4598 H   0  0  0  0  0  0  0  0  0  0  0  0
  139.5980   71.7700  218.4110 H   0  0  0  0  0  0  0  0  0  0  0  0
  141.6865   70.7130  217.8149 H   0  0  0  0  0  0  0  0  0  0  0  0
  142.1202   72.4596  217.7870 H   0  0  0  0  0  0  0  0  0  0  0  0
  142.2092   71.4357  220.4784 H   0  0  0  0  0  0  0  0  0  0  0  0
  143.2245   70.4300  219.3415 H   0  0  0  0  0  0  0  0  0  0  0  0
  143.9684   72.8379  218.5437 H   0  0  0  0  0  0  0  0  0  0  0  0
  145.0733   70.9346  220.4207 H   0  0  0  0  0  0  0  0  0  0  0  0
  145.7545   71.7653  218.9546 H   0  0  0  0  0  0  0  0  0  0  0  0
  145.6954   72.6625  221.8244 H   0  0  0  0  0  0  0  0  0  0  0  0
  147.0599   72.6076  220.6060 H   0  0  0  0  0  0  0  0  0  0  0  0
  146.2940   74.4560  219.5900 H   0  0  0  0  0  0  0  0  0  0  0  0
  144.2898   75.3134  221.3442 H   0  0  0  0  0  0  0  0  0  0  0  0
  144.2806   75.2039  219.5259 H   0  0  0  0  0  0  0  0  0  0  0  0
  143.4285   73.1081  221.5467 H   0  0  0  0  0  0  0  0  0  0  0  0
  142.4552   73.8957  220.2528 H   0  0  0  0  0  0  0  0  0  0  0  0
  141.9683   76.0989  221.5141 H   0  0  0  0  0  0  0  0  0  0  0  0
  140.8821   77.3220  220.6934 H   0  0  0  0  0  0  0  0  0  0  0  0
  141.6209   77.1819  223.6263 H   0  0  0  0  0  0  0  0  0  0  0  0
  142.0744   78.4398  222.4546 H   0  0  0  0  0  0  0  0  0  0  0  0
  141.0288   80.1291  223.6704 H   0  0  0  0  0  0  0  0  0  0  0  0
  138.9726   81.4161  224.1460 H   0  0  0  0  0  0  0  0  0  0  0  0
  136.7674   80.3647  223.6846 H   0  0  0  0  0  0  0  0  0  0  0  0
  136.6584   78.0723  222.7769 H   0  0  0  0  0  0  0  0  0  0  0  0
  138.1893   75.7774  222.9199 H   0  0  0  0  0  0  0  0  0  0  0  0
  138.0258   76.4711  221.2528 H   0  0  0  0  0  0  0  0  0  0  0  0
  141.9064   71.1230  224.3504 H   0  0  0  0  0  0  0  0  0  0  0  0
  141.0862   72.6117  225.0075 H   0  0  0  0  0  0  0  0  0  0  0  0
  1  2  2  0
  2  3  1  0
  3  4  2  0
  4  5  1  0
  5  6  2  0
  5  7  1  0
  7  8  1  0
  8  9  1  0
  9 10  1  0
 10 11  2  0
 11 12  1  0
 12 13  1  0
 13 14  1  0
 14 15  1  0
 15 16  1  0
 16 17  1  0
 17 18  1  0
 18 19  1  0
 19 20  1  0
 20 21  1  0
 12 22  2  0
 22 23  1  0
 23 24  1  0
 24 25  1  0
 25 26  1  0
 26 27  1  0
 27 28  2  0
 28 29  1  0
 29 30  2  0
 30 31  1  0
 31 32  2  0
 32 33  1  0
 23 34  2  0
  9 35  1  0
  6  1  1  0
 34 10  1  0
 35  4  1  0
 21 16  1  0
 33 24  1  0
 32 27  1  0
  1 36  1  0
  2 37  1  0
  3 38  1  0
  6 39  1  0
  7 40  1  0
  7 41  1  0
  8 42  1  0
  8 43  1  0
 13 44  1  0
 14 45  1  0
 14 46  1  0
 15 47  1  0
 15 48  1  0
 16 49  1  0
 17 50  1  0
 17 51  1  0
 18 52  1  0
 18 53  1  0
 19 54  1  0
 20 55  1  0
 20 56  1  0
 21 57  1  0
 21 58  1  0
 25 59  1  0
 25 60  1  0
 26 61  1  0
 26 62  1  0
 28 63  1  0
 29 64  1  0
 30 65  1  0
 31 66  1  0
 33 67  1  0
 33 68  1  0
 35 69  1  0
 35 70  1  0
M  END
>  <smiles>  (23) 
c1ccc2c(c1)CCN(c1nc(NCCC3CCNCC3)nc(N3CCc4ccccc4C3)n1)C2

>  <score_type>  (23) 
oracle

>  <origin>  (23) 
autodockgpu

>  <m_score__min__energy>  (23) 
-10.140000000000001

>  <m_primary>  (23) 
energy

>  <rmsd>  (23) 
6.293939189129406

>  <m_score__min__rmsd>  (23) 
6.293939189129406

>  <meeko>  (23) 
{"free_energy": -9.76, "intermolecular_energy": -11.55, "internal_energy": -1.49, "cluster_size": 43, "cluster_id": 1, "rank_in_cluster": 11}

>  <energy>  (23) 
-9.36

>  <cluster_rmsd>  (23) 
1.57

>  <cluster>  (23) 
1

$$$$

     RDKit          3D

 70 75  0  0  0  0  0  0  0  0999 V2000
  139.5700   69.8370  228.0160 C   0  0  0  0  0  0  0  0  0  0  0  0
  140.5500   70.8060  228.1020 C   0  0  0  0  0  0  0  0  0  0  0  0
  141.0490   71.3920  226.9580 C   0  0  0  0  0  0  0  0  0  0  0  0
  140.5500   70.9910  225.7330 C   0  0  0  0  0  0  0  0  0  0  0  0
  139.5640   70.0150  225.6730 C   0  0  0  0  0  0  0  0  0  0  0  0
  139.0500   69.4160  226.8030 C   0  0  0  0  0  0  0  0  0  0  0  0
  139.0910   69.6520  224.2940 C   0  0  0  0  0  0  0  0  0  0  0  0
  138.7970   70.9750  223.5940 C   0  0  0  0  0  0  0  0  0  0  0  0
  140.0440   71.6640  223.4550 N   0  0  0  0  0  0  0  0  0  0  0  0
  140.3000   72.4340  222.2910 C   0  0  0  0  0  0  0  0  0  0  0  0
  140.4690   71.8390  221.1130 N   0  0  0  0  0  0  0  0  0  0  0  0
  140.7170   72.5520  219.9740 C   0  0  0  0  0  0  0  0  0  0  0  0
  140.8890   71.8840  218.7220 N   0  0  0  0  0  0  0  0  0  0  0  0
  141.2820   72.5630  217.5070 C   0  0  0  0  0  0  0  0  0  0  0  0
  142.4680   73.4300  217.7680 C   0  0  0  0  0  0  0  0  0  0  0  0
  143.5200   72.7650  218.6260 C   0  0  0  0  0  0  0  0  0  0  0  0
  144.1170   73.6470  219.6680 C   0  0  0  0  0  0  0  0  0  0  0  0
  145.6010   73.3970  219.8500 C   0  0  0  0  0  0  0  0  0  0  0  0
  145.9770   72.0190  219.7340 N   0  0  0  0  0  0  0  0  0  0  0  0
  145.5660   71.3730  218.5260 C   0  0  0  0  0  0  0  0  0  0  0  0
  144.5800   72.2000  217.7190 C   0  0  0  0  0  0  0  0  0  0  0  0
  140.7870   73.8880  220.0870 N   0  0  0  0  0  0  0  0  0  0  0  0
  140.6230   74.5300  221.2540 C   0  0  0  0  0  0  0  0  0  0  0  0
  140.7000   75.9600  221.3620 N   0  0  0  0  0  0  0  0  0  0  0  0
  140.7170   76.7960  220.1900 C   0  0  0  0  0  0  0  0  0  0  0  0
  141.8090   77.8260  220.1930 C   0  0  0  0  0  0  0  0  0  0  0  0
  141.7410   78.5260  221.5070 C   0  0  0  0  0  0  0  0  0  0  0  0
  142.1910   79.8320  221.5380 C   0  0  0  0  0  0  0  0  0  0  0  0
  142.1760   80.5740  222.6920 C   0  0  0  0  0  0  0  0  0  0  0  0
  141.6960   79.9870  223.8340 C   0  0  0  0  0  0  0  0  0  0  0  0
  141.2450   78.6770  223.8020 C   0  0  0  0  0  0  0  0  0  0  0  0
  141.2560   77.9240  222.6510 C   0  0  0  0  0  0  0  0  0  0  0  0
  140.7600   76.5320  222.6820 C   0  0  0  0  0  0  0  0  0  0  0  0
  140.3810   73.7780  222.3430 N   0  0  0  0  0  0  0  0  0  0  0  0
  141.0520   71.5880  224.4890 C   0  0  0  0  0  0  0  0  0  0  0  0
  139.1890   69.3836  228.9430 H   0  0  0  0  0  0  0  0  0  0  0  0
  140.9339   71.1115  229.0865 H   0  0  0  0  0  0  0  0  0  0  0  0
  141.8298   72.1644  227.0191 H   0  0  0  0  0  0  0  0  0  0  0  0
  138.2682   68.6444  226.7447 H   0  0  0  0  0  0  0  0  0  0  0  0
  139.8733   69.0985  223.7540 H   0  0  0  0  0  0  0  0  0  0  0  0
  138.2017   69.0055  224.3281 H   0  0  0  0  0  0  0  0  0  0  0  0
  138.3568   70.7881  222.6034 H   0  0  0  0  0  0  0  0  0  0  0  0
  138.0810   71.5747  224.1751 H   0  0  0  0  0  0  0  0  0  0  0  0
  140.7110   70.8430  218.7150 H   0  0  0  0  0  0  0  0  0  0  0  0
  141.5374   71.8176  216.7394 H   0  0  0  0  0  0  0  0  0  0  0  0
  140.4476   73.1883  217.1566 H   0  0  0  0  0  0  0  0  0  0  0  0
  142.9232   73.6980  216.8031 H   0  0  0  0  0  0  0  0  0  0  0  0
  142.1104   74.3128  218.3182 H   0  0  0  0  0  0  0  0  0  0  0  0
  143.0232   71.9675  219.1980 H   0  0  0  0  0  0  0  0  0  0  0  0
  143.9684   74.6958  219.3715 H   0  0  0  0  0  0  0  0  0  0  0  0
  143.6182   73.4258  220.6231 H   0  0  0  0  0  0  0  0  0  0  0  0
  146.1450   73.9699  219.0846 H   0  0  0  0  0  0  0  0  0  0  0  0
  145.8543   73.7117  220.8731 H   0  0  0  0  0  0  0  0  0  0  0  0
  145.6690   71.4950  220.5740 H   0  0  0  0  0  0  0  0  0  0  0  0
  146.4563   71.1863  217.9075 H   0  0  0  0  0  0  0  0  0  0  0  0
  145.0596   70.4380  218.8077 H   0  0  0  0  0  0  0  0  0  0  0  0
  145.1146   73.0248  217.2251 H   0  0  0  0  0  0  0  0  0  0  0  0
  144.1042   71.5586  216.9626 H   0  0  0  0  0  0  0  0  0  0  0  0
  140.8501   76.1527  219.3077 H   0  0  0  0  0  0  0  0  0  0  0  0
  139.7626   77.3427  220.1741 H   0  0  0  0  0  0  0  0  0  0  0  0
  142.7883   77.3393  220.0740 H   0  0  0  0  0  0  0  0  0  0  0  0
  141.6828   78.5357  219.3621 H   0  0  0  0  0  0  0  0  0  0  0  0
  142.5715   80.2891  220.6126 H   0  0  0  0  0  0  0  0  0  0  0  0
  142.5394   81.6122  222.7006 H   0  0  0  0  0  0  0  0  0  0  0  0
  141.6688   80.5555  224.7753 H   0  0  0  0  0  0  0  0  0  0  0  0
  140.8650   78.2236  224.7294 H   0  0  0  0  0  0  0  0  0  0  0  0
  141.4362   75.9261  223.3030 H   0  0  0  0  0  0  0  0  0  0  0  0
  139.7425   76.5391  223.0999 H   0  0  0  0  0  0  0  0  0  0  0  0
  141.8889   70.9773  224.1193 H   0  0  0  0  0  0  0  0  0  0  0  0
  141.3667   72.6165  224.7197 H   0  0  0  0  0  0  0  0  0  0  0  0
  1  2  2  0
  2  3  1  0
  3  4  2  0
  4  5  1  0
  5  6  2  0
  5  7  1  0
  7  8  1  0
  8  9  1  0
  9 10  1  0
 10 11  2  0
 11 12  1  0
 12 13  1  0
 13 14  1  0
 14 15  1  0
 15 16  1  0
 16 17  1  0
 17 18  1  0
 18 19  1  0
 19 20  1  0
 20 21  1  0
 12 22  2  0
 22 23  1  0
 23 24  1  0
 24 25  1  0
 25 26  1  0
 26 27  1  0
 27 28  2  0
 28 29  1  0
 29 30  2  0
 30 31  1  0
 31 32  2  0
 32 33  1  0
 23 34  2  0
  9 35  1  0
  6  1  1  0
 34 10  1  0
 35  4  1  0
 21 16  1  0
 33 24  1  0
 32 27  1  0
  1 36  1  0
  2 37  1  0
  3 38  1  0
  6 39  1  0
  7 40  1  0
  7 41  1  0
  8 42  1  0
  8 43  1  0
 13 44  1  0
 14 45  1  0
 14 46  1  0
 15 47  1  0
 15 48  1  0
 16 49  1  0
 17 50  1  0
 17 51  1  0
 18 52  1  0
 18 53  1  0
 19 54  1  0
 20 55  1  0
 20 56  1  0
 21 57  1  0
 21 58  1  0
 25 59  1  0
 25 60  1  0
 26 61  1  0
 26 62  1  0
 28 63  1  0
 29 64  1  0
 30 65  1  0
 31 66  1  0
 33 67  1  0
 33 68  1  0
 35 69  1  0
 35 70  1  0
M  END
>  <smiles>  (24) 
c1ccc2c(c1)CCN(c1nc(NCCC3CCNCC3)nc(N3CCc4ccccc4C3)n1)C2

>  <score_type>  (24) 
oracle

>  <origin>  (24) 
autodockgpu

>  <m_score__min__energy>  (24) 
-10.140000000000001

>  <m_primary>  (24) 
energy

>  <rmsd>  (24) 
6.033072309326243

>  <m_score__min__rmsd>  (24) 
6.033072309326243

>  <meeko>  (24) 
{"free_energy": -9.73, "intermolecular_energy": -11.52, "internal_energy": -1.34, "cluster_size": 43, "cluster_id": 1, "rank_in_cluster": 13}

>  <energy>  (24) 
-9.28

>  <cluster_rmsd>  (24) 
1.07

>  <cluster>  (24) 
1

$$$$

     RDKit          3D

 70 75  0  0  0  0  0  0  0  0999 V2000
  139.4410   69.5990  227.6350 C   0  0  0  0  0  0  0  0  0  0  0  0
  140.2750   70.6840  227.8220 C   0  0  0  0  0  0  0  0  0  0  0  0
  140.6970   71.4280  226.7410 C   0  0  0  0  0  0  0  0  0  0  0  0
  140.2710   71.0680  225.4770 C   0  0  0  0  0  0  0  0  0  0  0  0
  139.4320   69.9730  225.3150 C   0  0  0  0  0  0  0  0  0  0  0  0
  138.9970   69.2150  226.3810 C   0  0  0  0  0  0  0  0  0  0  0  0
  139.0280   69.6670  223.9010 C   0  0  0  0  0  0  0  0  0  0  0  0
  138.5580   70.9920  223.3080 C   0  0  0  0  0  0  0  0  0  0  0  0
  139.6970   71.8560  223.2520 N   0  0  0  0  0  0  0  0  0  0  0  0
  139.8540   72.7500  222.1620 C   0  0  0  0  0  0  0  0  0  0  0  0
  139.9570   72.2870  220.9190 N   0  0  0  0  0  0  0  0  0  0  0  0
  140.1090   73.1220  219.8490 C   0  0  0  0  0  0  0  0  0  0  0  0
  140.2120   72.5940  218.5250 N   0  0  0  0  0  0  0  0  0  0  0  0
  141.0830   73.1500  217.5120 C   0  0  0  0  0  0  0  0  0  0  0  0
  142.4830   73.2160  218.0240 C   0  0  0  0  0  0  0  0  0  0  0  0
  142.9640   74.6270  218.2750 C   0  0  0  0  0  0  0  0  0  0  0  0
  143.1890   74.9580  219.7100 C   0  0  0  0  0  0  0  0  0  0  0  0
  142.7720   76.3770  220.0440 C   0  0  0  0  0  0  0  0  0  0  0  0
  143.0530   77.3240  219.0070 N   0  0  0  0  0  0  0  0  0  0  0  0
  142.5180   76.9990  217.7200 C   0  0  0  0  0  0  0  0  0  0  0  0
  141.9840   75.5790  217.6440 C   0  0  0  0  0  0  0  0  0  0  0  0
  140.1530   74.4400  220.0970 N   0  0  0  0  0  0  0  0  0  0  0  0
  140.0530   74.9530  221.3340 C   0  0  0  0  0  0  0  0  0  0  0  0
  140.1000   76.3650  221.5870 N   0  0  0  0  0  0  0  0  0  0  0  0
  139.3750   77.2950  220.7620 C   0  0  0  0  0  0  0  0  0  0  0  0
  140.1990   78.4550  220.2840 C   0  0  0  0  0  0  0  0  0  0  0  0
  140.8830   79.0230  221.4790 C   0  0  0  0  0  0  0  0  0  0  0  0
  141.1920   80.3690  221.4360 C   0  0  0  0  0  0  0  0  0  0  0  0
  141.8220   80.9990  222.4800 C   0  0  0  0  0  0  0  0  0  0  0  0
  142.1450   80.2570  223.5870 C   0  0  0  0  0  0  0  0  0  0  0  0
  141.8340   78.9060  223.6290 C   0  0  0  0  0  0  0  0  0  0  0  0
  141.2030   78.2650  222.5880 C   0  0  0  0  0  0  0  0  0  0  0  0
  140.8980   76.8230  222.6950 C   0  0  0  0  0  0  0  0  0  0  0  0
  139.9040   74.0840  222.3500 N   0  0  0  0  0  0  0  0  0  0  0  0
  140.6960   71.8330  224.2970 C   0  0  0  0  0  0  0  0  0  0  0  0
  139.1183   69.0199  228.5128 H   0  0  0  0  0  0  0  0  0  0  0  0
  140.6033   70.9551  228.8363 H   0  0  0  0  0  0  0  0  0  0  0  0
  141.3614   72.2933  226.8823 H   0  0  0  0  0  0  0  0  0  0  0  0
  138.3317   68.3500  226.2426 H   0  0  0  0  0  0  0  0  0  0  0  0
  139.8854   69.2759  223.3336 H   0  0  0  0  0  0  0  0  0  0  0  0
  138.2381   68.9025  223.8616 H   0  0  0  0  0  0  0  0  0  0  0  0
  138.1563   70.8313  222.2966 H   0  0  0  0  0  0  0  0  0  0  0  0
  137.7607   71.4350  223.9229 H   0  0  0  0  0  0  0  0  0  0  0  0
  139.6090   71.7550  218.3030 H   0  0  0  0  0  0  0  0  0  0  0  0
  141.0524   72.5131  216.6156 H   0  0  0  0  0  0  0  0  0  0  0  0
  140.7422   74.1650  217.2598 H   0  0  0  0  0  0  0  0  0  0  0  0
  142.5353   72.6563  218.9695 H   0  0  0  0  0  0  0  0  0  0  0  0
  143.1332   72.7841  217.2489 H   0  0  0  0  0  0  0  0  0  0  0  0
  143.9589   74.7226  217.8155 H   0  0  0  0  0  0  0  0  0  0  0  0
  142.6044   74.2621  220.3297 H   0  0  0  0  0  0  0  0  0  0  0  0
  144.2664   74.8668  219.9121 H   0  0  0  0  0  0  0  0  0  0  0  0
  141.6887   76.3838  220.2349 H   0  0  0  0  0  0  0  0  0  0  0  0
  143.3578   76.6833  220.9232 H   0  0  0  0  0  0  0  0  0  0  0  0
  144.0720   77.5120  218.9630 H   0  0  0  0  0  0  0  0  0  0  0  0
  141.6968   77.6955  217.4950 H   0  0  0  0  0  0  0  0  0  0  0  0
  143.3372   77.0834  216.9908 H   0  0  0  0  0  0  0  0  0  0  0  0
  141.0243   75.5215  218.1785 H   0  0  0  0  0  0  0  0  0  0  0  0
  141.8401   75.3030  216.5890 H   0  0  0  0  0  0  0  0  0  0  0  0
  138.9950   76.7545  219.8826 H   0  0  0  0  0  0  0  0  0  0  0  0
  138.5682   77.7111  221.3833 H   0  0  0  0  0  0  0  0  0  0  0  0
  140.9430   78.1130  219.5495 H   0  0  0  0  0  0  0  0  0  0  0  0
  139.5671   79.2116  219.7960 H   0  0  0  0  0  0  0  0  0  0  0  0
  140.9260   80.9511  220.5413 H   0  0  0  0  0  0  0  0  0  0  0  0
  142.0616   82.0714  222.4300 H   0  0  0  0  0  0  0  0  0  0  0  0
  142.6501   80.7326  224.4406 H   0  0  0  0  0  0  0  0  0  0  0  0
  142.1010   78.3271  224.5254 H   0  0  0  0  0  0  0  0  0  0  0  0
  141.8422   76.2589  222.7118 H   0  0  0  0  0  0  0  0  0  0  0  0
  140.3261   76.6606  223.6205 H   0  0  0  0  0  0  0  0  0  0  0  0
  141.6136   71.3781  223.8955 H   0  0  0  0  0  0  0  0  0  0  0  0
  140.8612   72.8718  224.6188 H   0  0  0  0  0  0  0  0  0  0  0  0
  1  2  2  0
  2  3  1  0
  3  4  2  0
  4  5  1  0
  5  6  2  0
  5  7  1  0
  7  8  1  0
  8  9  1  0
  9 10  1  0
 10 11  2  0
 11 12  1  0
 12 13  1  0
 13 14  1  0
 14 15  1  0
 15 16  1  0
 16 17  1  0
 17 18  1  0
 18 19  1  0
 19 20  1  0
 20 21  1  0
 12 22  2  0
 22 23  1  0
 23 24  1  0
 24 25  1  0
 25 26  1  0
 26 27  1  0
 27 28  2  0
 28 29  1  0
 29 30  2  0
 30 31  1  0
 31 32  2  0
 32 33  1  0
 23 34  2  0
  9 35  1  0
  6  1  1  0
 34 10  1  0
 35  4  1  0
 21 16  1  0
 33 24  1  0
 32 27  1  0
  1 36  1  0
  2 37  1  0
  3 38  1  0
  6 39  1  0
  7 40  1  0
  7 41  1  0
  8 42  1  0
  8 43  1  0
 13 44  1  0
 14 45  1  0
 14 46  1  0
 15 47  1  0
 15 48  1  0
 16 49  1  0
 17 50  1  0
 17 51  1  0
 18 52  1  0
 18 53  1  0
 19 54  1  0
 20 55  1  0
 20 56  1  0
 21 57  1  0
 21 58  1  0
 25 59  1  0
 25 60  1  0
 26 61  1  0
 26 62  1  0
 28 63  1  0
 29 64  1  0
 30 65  1  0
 31 66  1  0
 33 67  1  0
 33 68  1  0
 35 69  1  0
 35 70  1  0
M  END
>  <smiles>  (25) 
c1ccc2c(c1)CCN(c1nc(NCCC3CCNCC3)nc(N3CCc4ccccc4C3)n1)C2

>  <score_type>  (25) 
oracle

>  <origin>  (25) 
autodockgpu

>  <m_score__min__energy>  (25) 
-10.140000000000001

>  <m_primary>  (25) 
energy

>  <rmsd>  (25) 
4.013904761891891

>  <m_score__min__rmsd>  (25) 
4.013904761891891

>  <meeko>  (25) 
{"free_energy": -9.01, "intermolecular_energy": -10.8, "internal_energy": -2.16, "cluster_size": 43, "cluster_id": 1, "rank_in_cluster": 35}

>  <energy>  (25) 
-9.25

>  <cluster_rmsd>  (25) 
1.34

>  <cluster>  (25) 
1

$$$$

     RDKit          3D

 70 75  0  0  0  0  0  0  0  0999 V2000
  139.6460   69.8820  227.9740 C   0  0  0  0  0  0  0  0  0  0  0  0
  140.4610   70.9940  228.0590 C   0  0  0  0  0  0  0  0  0  0  0  0
  140.8520   71.6560  226.9150 C   0  0  0  0  0  0  0  0  0  0  0  0
  140.4140   71.1860  225.6910 C   0  0  0  0  0  0  0  0  0  0  0  0
  139.5950   70.0660  225.6320 C   0  0  0  0  0  0  0  0  0  0  0  0
  139.1920   69.3890  226.7630 C   0  0  0  0  0  0  0  0  0  0  0  0
  139.1760   69.6380  224.2550 C   0  0  0  0  0  0  0  0  0  0  0  0
  138.6710   70.9010  223.5640 C   0  0  0  0  0  0  0  0  0  0  0  0
  139.7910   71.7800  223.4190 N   0  0  0  0  0  0  0  0  0  0  0  0
  139.9140   72.5850  222.2580 C   0  0  0  0  0  0  0  0  0  0  0  0
  139.8500   72.0370  221.0470 N   0  0  0  0  0  0  0  0  0  0  0  0
  139.9640   72.7850  219.9100 C   0  0  0  0  0  0  0  0  0  0  0  0
  139.8850   72.1680  218.6240 N   0  0  0  0  0  0  0  0  0  0  0  0
  141.0140   72.0540  217.7260 C   0  0  0  0  0  0  0  0  0  0  0  0
  142.1880   71.4860  218.4520 C   0  0  0  0  0  0  0  0  0  0  0  0
  143.2210   72.5240  218.8270 C   0  0  0  0  0  0  0  0  0  0  0  0
  143.7010   72.4390  220.2350 C   0  0  0  0  0  0  0  0  0  0  0  0
  143.9280   73.8070  220.8480 C   0  0  0  0  0  0  0  0  0  0  0  0
  144.4640   74.7710  219.9340 N   0  0  0  0  0  0  0  0  0  0  0  0
  143.7200   74.9480  218.7250 C   0  0  0  0  0  0  0  0  0  0  0  0
  142.6530   73.8850  218.5280 C   0  0  0  0  0  0  0  0  0  0  0  0
  140.1470   74.1070  220.0580 N   0  0  0  0  0  0  0  0  0  0  0  0
  140.2190   74.7030  221.2590 C   0  0  0  0  0  0  0  0  0  0  0  0
  140.4150   76.1170  221.4050 N   0  0  0  0  0  0  0  0  0  0  0  0
  140.3220   77.0030  220.2730 C   0  0  0  0  0  0  0  0  0  0  0  0
  141.4750   77.9560  220.1510 C   0  0  0  0  0  0  0  0  0  0  0  0
  141.6510   78.5990  221.4840 C   0  0  0  0  0  0  0  0  0  0  0  0
  142.1950   79.8690  221.4940 C   0  0  0  0  0  0  0  0  0  0  0  0
  142.4020   80.5570  222.6620 C   0  0  0  0  0  0  0  0  0  0  0  0
  142.0520   79.9520  223.8420 C   0  0  0  0  0  0  0  0  0  0  0  0
  141.5060   78.6770  223.8310 C   0  0  0  0  0  0  0  0  0  0  0  0
  141.2940   77.9790  222.6650 C   0  0  0  0  0  0  0  0  0  0  0  0
  140.7080   76.6240  222.7200 C   0  0  0  0  0  0  0  0  0  0  0  0
  140.0990   73.9180  222.3440 N   0  0  0  0  0  0  0  0  0  0  0  0
  140.8060   71.8600  224.4460 C   0  0  0  0  0  0  0  0  0  0  0  0
  139.3474   69.3705  228.9009 H   0  0  0  0  0  0  0  0  0  0  0  0
  140.7990   71.3523  229.0426 H   0  0  0  0  0  0  0  0  0  0  0  0
  141.5008   72.5422  226.9749 H   0  0  0  0  0  0  0  0  0  0  0  0
  138.5431   68.5026  226.7061 H   0  0  0  0  0  0  0  0  0  0  0  0
  140.0323   69.2177  223.7072 H   0  0  0  0  0  0  0  0  0  0  0  0
  138.4009   68.8583  224.2912 H   0  0  0  0  0  0  0  0  0  0  0  0
  138.2579   70.6505  222.5757 H   0  0  0  0  0  0  0  0  0  0  0  0
  137.8743   71.3774  224.1542 H   0  0  0  0  0  0  0  0  0  0  0  0
  138.9420   71.7860  218.3410 H   0  0  0  0  0  0  0  0  0  0  0  0
  140.7482   71.3919  216.8888 H   0  0  0  0  0  0  0  0  0  0  0  0
  141.2739   73.0523  217.3440 H   0  0  0  0  0  0  0  0  0  0  0  0
  141.8285   71.0032  219.3727 H   0  0  0  0  0  0  0  0  0  0  0  0
  142.6764   70.7724  217.7721 H   0  0  0  0  0  0  0  0  0  0  0  0
  144.1185   72.3287  218.2217 H   0  0  0  0  0  0  0  0  0  0  0  0
  142.9494   71.9033  220.8334 H   0  0  0  0  0  0  0  0  0  0  0  0
  144.6640   71.9074  220.2312 H   0  0  0  0  0  0  0  0  0  0  0  0
  142.9644   74.1830  221.2223 H   0  0  0  0  0  0  0  0  0  0  0  0
  144.6711   73.6787  221.6488 H   0  0  0  0  0  0  0  0  0  0  0  0
  145.4620   74.5640  219.7430 H   0  0  0  0  0  0  0  0  0  0  0  0
  143.2327   75.9337  218.7536 H   0  0  0  0  0  0  0  0  0  0  0  0
  144.4273   74.8659  217.8865 H   0  0  0  0  0  0  0  0  0  0  0  0
  141.8101   74.0849  219.2059 H   0  0  0  0  0  0  0  0  0  0  0  0
  142.3065   73.9103  217.4843 H   0  0  0  0  0  0  0  0  0  0  0  0
  140.2783   76.3933  219.3585 H   0  0  0  0  0  0  0  0  0  0  0  0
  139.4177   77.6124  220.4176 H   0  0  0  0  0  0  0  0  0  0  0  0
  142.3882   77.4104  219.8711 H   0  0  0  0  0  0  0  0  0  0  0  0
  141.2810   78.7099  219.3738 H   0  0  0  0  0  0  0  0  0  0  0  0
  142.4695   80.3410  220.5391 H   0  0  0  0  0  0  0  0  0  0  0  0
  142.8372   81.5672  222.6528 H   0  0  0  0  0  0  0  0  0  0  0  0
  142.2042   80.4775  224.7963 H   0  0  0  0  0  0  0  0  0  0  0  0
  141.2331   78.2079  224.7878 H   0  0  0  0  0  0  0  0  0  0  0  0
  141.4214   75.9468  223.2124 H   0  0  0  0  0  0  0  0  0  0  0  0
  139.7651   76.6808  223.2836 H   0  0  0  0  0  0  0  0  0  0  0  0
  141.7260   71.3907  224.0675 H   0  0  0  0  0  0  0  0  0  0  0  0
  140.9557   72.9244  224.6799 H   0  0  0  0  0  0  0  0  0  0  0  0
  1  2  2  0
  2  3  1  0
  3  4  2  0
  4  5  1  0
  5  6  2  0
  5  7  1  0
  7  8  1  0
  8  9  1  0
  9 10  1  0
 10 11  2  0
 11 12  1  0
 12 13  1  0
 13 14  1  0
 14 15  1  0
 15 16  1  0
 16 17  1  0
 17 18  1  0
 18 19  1  0
 19 20  1  0
 20 21  1  0
 12 22  2  0
 22 23  1  0
 23 24  1  0
 24 25  1  0
 25 26  1  0
 26 27  1  0
 27 28  2  0
 28 29  1  0
 29 30  2  0
 30 31  1  0
 31 32  2  0
 32 33  1  0
 23 34  2  0
  9 35  1  0
  6  1  1  0
 34 10  1  0
 35  4  1  0
 21 16  1  0
 33 24  1  0
 32 27  1  0
  1 36  1  0
  2 37  1  0
  3 38  1  0
  6 39  1  0
  7 40  1  0
  7 41  1  0
  8 42  1  0
  8 43  1  0
 13 44  1  0
 14 45  1  0
 14 46  1  0
 15 47  1  0
 15 48  1  0
 16 49  1  0
 17 50  1  0
 17 51  1  0
 18 52  1  0
 18 53  1  0
 19 54  1  0
 20 55  1  0
 20 56  1  0
 21 57  1  0
 21 58  1  0
 25 59  1  0
 25 60  1  0
 26 61  1  0
 26 62  1  0
 28 63  1  0
 29 64  1  0
 30 65  1  0
 31 66  1  0
 33 67  1  0
 33 68  1  0
 35 69  1  0
 35 70  1  0
M  END
>  <smiles>  (26) 
c1ccc2c(c1)CCN(c1nc(NCCC3CCNCC3)nc(N3CCc4ccccc4C3)n1)C2

>  <score_type>  (26) 
oracle

>  <origin>  (26) 
autodockgpu

>  <m_score__min__energy>  (26) 
-10.140000000000001

>  <m_primary>  (26) 
energy

>  <rmsd>  (26) 
5.450339029632214

>  <m_score__min__rmsd>  (26) 
5.450339029632214

>  <meeko>  (26) 
{"free_energy": -9.18, "intermolecular_energy": -10.97, "internal_energy": -2.01, "cluster_size": 43, "cluster_id": 1, "rank_in_cluster": 26}

>  <energy>  (26) 
-9.18

>  <cluster_rmsd>  (26) 
0.85

>  <cluster>  (26) 
1

$$$$

     RDKit          3D

 70 75  0  0  0  0  0  0  0  0999 V2000
  140.2240   80.5770  222.2110 C   0  0  0  0  0  0  0  0  0  0  0  0
  141.5260   80.1420  222.0580 C   0  0  0  0  0  0  0  0  0  0  0  0
  141.8190   78.7960  222.1130 C   0  0  0  0  0  0  0  0  0  0  0  0
  140.7900   77.8980  222.3250 C   0  0  0  0  0  0  0  0  0  0  0  0
  139.4890   78.3610  222.4760 C   0  0  0  0  0  0  0  0  0  0  0  0
  139.1720   79.7010  222.4240 C   0  0  0  0  0  0  0  0  0  0  0  0
  138.4450   77.3040  222.7010 C   0  0  0  0  0  0  0  0  0  0  0  0
  138.6840   76.2490  221.6250 C   0  0  0  0  0  0  0  0  0  0  0  0
  139.9600   75.6580  221.8890 N   0  0  0  0  0  0  0  0  0  0  0  0
  140.1600   74.2730  221.6580 C   0  0  0  0  0  0  0  0  0  0  0  0
  140.3870   73.8200  220.4280 N   0  0  0  0  0  0  0  0  0  0  0  0
  140.5840   72.4930  220.1720 C   0  0  0  0  0  0  0  0  0  0  0  0
  140.8300   72.0390  218.8390 N   0  0  0  0  0  0  0  0  0  0  0  0
  141.5470   72.8170  217.8530 C   0  0  0  0  0  0  0  0  0  0  0  0
  142.9580   72.3420  217.7560 C   0  0  0  0  0  0  0  0  0  0  0  0
  143.9310   73.1830  218.5510 C   0  0  0  0  0  0  0  0  0  0  0  0
  144.8610   72.4040  219.4160 C   0  0  0  0  0  0  0  0  0  0  0  0
  145.1210   73.0890  220.7420 C   0  0  0  0  0  0  0  0  0  0  0  0
  145.2060   74.5160  220.6520 N   0  0  0  0  0  0  0  0  0  0  0  0
  144.0850   75.1590  220.0370 C   0  0  0  0  0  0  0  0  0  0  0  0
  143.1430   74.1790  219.3580 C   0  0  0  0  0  0  0  0  0  0  0  0
  140.5370   71.6510  221.2160 N   0  0  0  0  0  0  0  0  0  0  0  0
  140.3110   72.0620  222.4740 C   0  0  0  0  0  0  0  0  0  0  0  0
  140.2640   71.1520  223.5830 N   0  0  0  0  0  0  0  0  0  0  0  0
  139.5680   69.8950  223.4880 C   0  0  0  0  0  0  0  0  0  0  0  0
  138.6330   69.6290  224.6320 C   0  0  0  0  0  0  0  0  0  0  0  0
  139.4040   69.8670  225.8860 C   0  0  0  0  0  0  0  0  0  0  0  0
  139.0080   69.1550  227.0020 C   0  0  0  0  0  0  0  0  0  0  0  0
  139.6440   69.2930  228.2090 C   0  0  0  0  0  0  0  0  0  0  0  0
  140.7000   70.1650  228.2910 C   0  0  0  0  0  0  0  0  0  0  0  0
  141.0950   70.8790  227.1700 C   0  0  0  0  0  0  0  0  0  0  0  0
  140.4650   70.7480  225.9550 C   0  0  0  0  0  0  0  0  0  0  0  0
  140.9360   71.5370  224.7980 C   0  0  0  0  0  0  0  0  0  0  0  0
  140.1250   73.3800  222.6670 N   0  0  0  0  0  0  0  0  0  0  0  0
  141.0560   76.4560  222.3910 C   0  0  0  0  0  0  0  0  0  0  0  0
  140.0152   81.6559  222.1621 H   0  0  0  0  0  0  0  0  0  0  0  0
  142.3319   80.8720  221.8917 H   0  0  0  0  0  0  0  0  0  0  0  0
  142.8536   78.4429  221.9903 H   0  0  0  0  0  0  0  0  0  0  0  0
  138.1381   80.0565  222.5452 H   0  0  0  0  0  0  0  0  0  0  0  0
  138.5565   76.8623  223.7022 H   0  0  0  0  0  0  0  0  0  0  0  0
  137.4283   77.7197  222.6421 H   0  0  0  0  0  0  0  0  0  0  0  0
  137.8970   75.4817  221.6679 H   0  0  0  0  0  0  0  0  0  0  0  0
  138.6627   76.7014  220.6226 H   0  0  0  0  0  0  0  0  0  0  0  0
  140.4570   71.0820  218.5910 H   0  0  0  0  0  0  0  0  0  0  0  0
  141.0570   72.7056  216.8745 H   0  0  0  0  0  0  0  0  0  0  0  0
  141.5420   73.8749  218.1544 H   0  0  0  0  0  0  0  0  0  0  0  0
  143.0044   71.3084  218.1296 H   0  0  0  0  0  0  0  0  0  0  0  0
  143.2534   72.4159  216.6990 H   0  0  0  0  0  0  0  0  0  0  0  0
  144.5914   73.6903  217.8322 H   0  0  0  0  0  0  0  0  0  0  0  0
  144.4200   71.4149  219.6091 H   0  0  0  0  0  0  0  0  0  0  0  0
  145.8215   72.3186  218.8868 H   0  0  0  0  0  0  0  0  0  0  0  0
  144.3017   72.8337  221.4301 H   0  0  0  0  0  0  0  0  0  0  0  0
  146.0988   72.7331  221.0986 H   0  0  0  0  0  0  0  0  0  0  0  0
  146.0990   74.7920  220.2040 H   0  0  0  0  0  0  0  0  0  0  0  0
  143.5256   75.7056  220.8105 H   0  0  0  0  0  0  0  0  0  0  0  0
  144.4753   75.8343  219.2614 H   0  0  0  0  0  0  0  0  0  0  0  0
  142.5578   73.6470  220.1225 H   0  0  0  0  0  0  0  0  0  0  0  0
  142.4673   74.7321  218.6890 H   0  0  0  0  0  0  0  0  0  0  0  0
  138.9841   69.8921  222.5557 H   0  0  0  0  0  0  0  0  0  0  0  0
  140.3325   69.1044  223.5103 H   0  0  0  0  0  0  0  0  0  0  0  0
  137.7713   70.3109  224.5826 H   0  0  0  0  0  0  0  0  0  0  0  0
  138.2491   68.5988  224.5954 H   0  0  0  0  0  0  0  0  0  0  0  0
  138.1601   68.4590  226.9200 H   0  0  0  0  0  0  0  0  0  0  0  0
  139.3161   68.7195  229.0885 H   0  0  0  0  0  0  0  0  0  0  0  0
  141.2324   70.2975  229.2444 H   0  0  0  0  0  0  0  0  0  0  0  0
  141.9425   71.5750  227.2558 H   0  0  0  0  0  0  0  0  0  0  0  0
  140.7425   72.6026  224.9904 H   0  0  0  0  0  0  0  0  0  0  0  0
  142.0122   71.3494  224.6695 H   0  0  0  0  0  0  0  0  0  0  0  0
  141.2390   76.1805  223.4401 H   0  0  0  0  0  0  0  0  0  0  0  0
  141.9306   76.2523  221.7557 H   0  0  0  0  0  0  0  0  0  0  0  0
  1  2  2  0
  2  3  1  0
  3  4  2  0
  4  5  1  0
  5  6  2  0
  5  7  1  0
  7  8  1  0
  8  9  1  0
  9 10  1  0
 10 11  2  0
 11 12  1  0
 12 13  1  0
 13 14  1  0
 14 15  1  0
 15 16  1  0
 16 17  1  0
 17 18  1  0
 18 19  1  0
 19 20  1  0
 20 21  1  0
 12 22  2  0
 22 23  1  0
 23 24  1  0
 24 25  1  0
 25 26  1  0
 26 27  1  0
 27 28  2  0
 28 29  1  0
 29 30  2  0
 30 31  1  0
 31 32  2  0
 32 33  1  0
 23 34  2  0
  9 35  1  0
  6  1  1  0
 34 10  1  0
 35  4  1  0
 21 16  1  0
 33 24  1  0
 32 27  1  0
  1 36  1  0
  2 37  1  0
  3 38  1  0
  6 39  1  0
  7 40  1  0
  7 41  1  0
  8 42  1  0
  8 43  1  0
 13 44  1  0
 14 45  1  0
 14 46  1  0
 15 47  1  0
 15 48  1  0
 16 49  1  0
 17 50  1  0
 17 51  1  0
 18 52  1  0
 18 53  1  0
 19 54  1  0
 20 55  1  0
 20 56  1  0
 21 57  1  0
 21 58  1  0
 25 59  1  0
 25 60  1  0
 26 61  1  0
 26 62  1  0
 28 63  1  0
 29 64  1  0
 30 65  1  0
 31 66  1  0
 33 67  1  0
 33 68  1  0
 35 69  1  0
 35 70  1  0
M  END
>  <smiles>  (27) 
c1ccc2c(c1)CCN(c1nc(NCCC3CCNCC3)nc(N3CCc4ccccc4C3)n1)C2

>  <score_type>  (27) 
oracle

>  <origin>  (27) 
autodockgpu

>  <m_score__min__energy>  (27) 
-10.140000000000001

>  <m_primary>  (27) 
energy

>  <rmsd>  (27) 
5.748301008142649

>  <m_score__min__rmsd>  (27) 
5.748301008142649

>  <meeko>  (27) 
{"free_energy": -9.02, "intermolecular_energy": -10.81, "internal_energy": -1.51, "cluster_size": 43, "cluster_id": 1, "rank_in_cluster": 32}

>  <energy>  (27) 
-9.17

>  <cluster_rmsd>  (27) 
1.28

>  <cluster>  (27) 
1

$$$$

     RDKit          3D

 70 75  0  0  0  0  0  0  0  0999 V2000
  139.4990   69.7110  227.8860 C   0  0  0  0  0  0  0  0  0  0  0  0
  140.5000   70.6540  228.0190 C   0  0  0  0  0  0  0  0  0  0  0  0
  141.0280   71.2670  226.9030 C   0  0  0  0  0  0  0  0  0  0  0  0
  140.5380   70.9210  225.6580 C   0  0  0  0  0  0  0  0  0  0  0  0
  139.5310   69.9700  225.5510 C   0  0  0  0  0  0  0  0  0  0  0  0
  138.9880   69.3440  226.6520 C   0  0  0  0  0  0  0  0  0  0  0  0
  139.0690   69.6660  224.1540 C   0  0  0  0  0  0  0  0  0  0  0  0
  138.8150   71.0190  223.4970 C   0  0  0  0  0  0  0  0  0  0  0  0
  140.0790   71.6840  223.3980 N   0  0  0  0  0  0  0  0  0  0  0  0
  140.3690   72.4870  222.2660 C   0  0  0  0  0  0  0  0  0  0  0  0
  140.6360   71.9240  221.0900 N   0  0  0  0  0  0  0  0  0  0  0  0
  140.9190   72.6700  219.9810 C   0  0  0  0  0  0  0  0  0  0  0  0
  141.1970   72.0360  218.7310 N   0  0  0  0  0  0  0  0  0  0  0  0
  141.5230   72.7650  217.5240 C   0  0  0  0  0  0  0  0  0  0  0  0
  142.7980   73.5160  217.7110 C   0  0  0  0  0  0  0  0  0  0  0  0
  143.7470   72.8550  218.6840 C   0  0  0  0  0  0  0  0  0  0  0  0
  144.4560   73.7960  219.5960 C   0  0  0  0  0  0  0  0  0  0  0  0
  145.8910   73.3800  219.8490 C   0  0  0  0  0  0  0  0  0  0  0  0
  146.0760   71.9630  219.9500 N   0  0  0  0  0  0  0  0  0  0  0  0
  145.5850   71.2010  218.8430 C   0  0  0  0  0  0  0  0  0  0  0  0
  144.7230   72.0210  217.8980 C   0  0  0  0  0  0  0  0  0  0  0  0
  140.9200   74.0050  220.1200 N   0  0  0  0  0  0  0  0  0  0  0  0
  140.6560   74.6160  221.2860 C   0  0  0  0  0  0  0  0  0  0  0  0
  140.6600   76.0450  221.4230 N   0  0  0  0  0  0  0  0  0  0  0  0
  140.4070   76.9030  220.2940 C   0  0  0  0  0  0  0  0  0  0  0  0
  141.4120   78.0050  220.1300 C   0  0  0  0  0  0  0  0  0  0  0  0
  141.5430   78.6740  221.4550 C   0  0  0  0  0  0  0  0  0  0  0  0
  141.9060   80.0070  221.4440 C   0  0  0  0  0  0  0  0  0  0  0  0
  142.0560   80.7240  222.6040 C   0  0  0  0  0  0  0  0  0  0  0  0
  141.8340   80.0840  223.7960 C   0  0  0  0  0  0  0  0  0  0  0  0
  141.4690   78.7470  223.8060 C   0  0  0  0  0  0  0  0  0  0  0  0
  141.3160   78.0180  222.6490 C   0  0  0  0  0  0  0  0  0  0  0  0
  140.9250   76.5960  222.7270 C   0  0  0  0  0  0  0  0  0  0  0  0
  140.3840   73.8320  222.3450 N   0  0  0  0  0  0  0  0  0  0  0  0
  141.0700   71.5480  224.4420 C   0  0  0  0  0  0  0  0  0  0  0  0
  139.0939   69.2353  228.7913 H   0  0  0  0  0  0  0  0  0  0  0  0
  140.8768   70.9164  229.0186 H   0  0  0  0  0  0  0  0  0  0  0  0
  141.8253   72.0183  227.0016 H   0  0  0  0  0  0  0  0  0  0  0  0
  138.1907   68.5923  226.5559 H   0  0  0  0  0  0  0  0  0  0  0  0
  139.8459   69.1135  223.6053 H   0  0  0  0  0  0  0  0  0  0  0  0
  138.1648   69.0395  224.1538 H   0  0  0  0  0  0  0  0  0  0  0  0
  138.3842   70.8767  222.4949 H   0  0  0  0  0  0  0  0  0  0  0  0
  138.1052   71.6145  224.0899 H   0  0  0  0  0  0  0  0  0  0  0  0
  141.1530   70.9800  218.7170 H   0  0  0  0  0  0  0  0  0  0  0  0
  141.6362   72.0568  216.6899 H   0  0  0  0  0  0  0  0  0  0  0  0
  140.7139   73.4763  217.3018 H   0  0  0  0  0  0  0  0  0  0  0  0
  143.3002   73.5987  216.7358 H   0  0  0  0  0  0  0  0  0  0  0  0
  142.5372   74.4994  218.1292 H   0  0  0  0  0  0  0  0  0  0  0  0
  143.1434   72.2289  219.3575 H   0  0  0  0  0  0  0  0  0  0  0  0
  144.4529   74.7981  219.1424 H   0  0  0  0  0  0  0  0  0  0  0  0
  143.9288   73.7905  220.5614 H   0  0  0  0  0  0  0  0  0  0  0  0
  146.5106   73.7518  219.0197 H   0  0  0  0  0  0  0  0  0  0  0  0
  146.1814   73.8096  220.8191 H   0  0  0  0  0  0  0  0  0  0  0  0
  145.6970   71.6180  220.8510 H   0  0  0  0  0  0  0  0  0  0  0  0
  146.4436   70.8050  218.2808 H   0  0  0  0  0  0  0  0  0  0  0  0
  144.9558   70.3954  219.2494 H   0  0  0  0  0  0  0  0  0  0  0  0
  145.3666   72.6817  217.2986 H   0  0  0  0  0  0  0  0  0  0  0  0
  144.1661   71.3416  217.2360 H   0  0  0  0  0  0  0  0  0  0  0  0
  140.4162   76.2875  219.3824 H   0  0  0  0  0  0  0  0  0  0  0  0
  139.4330   77.3830  220.4700 H   0  0  0  0  0  0  0  0  0  0  0  0
  142.3817   77.5891  219.8190 H   0  0  0  0  0  0  0  0  0  0  0  0
  141.0892   78.7199  219.3588 H   0  0  0  0  0  0  0  0  0  0  0  0
  142.0794   80.5067  220.4795 H   0  0  0  0  0  0  0  0  0  0  0  0
  142.3468   81.7846  222.5784 H   0  0  0  0  0  0  0  0  0  0  0  0
  141.9455   80.6312  224.7437 H   0  0  0  0  0  0  0  0  0  0  0  0
  141.2956   78.2513  224.7726 H   0  0  0  0  0  0  0  0  0  0  0  0
  141.7414   76.0268  223.1955 H   0  0  0  0  0  0  0  0  0  0  0  0
  140.0033   76.5256  223.3232 H   0  0  0  0  0  0  0  0  0  0  0  0
  141.8973   70.9305  224.0621 H   0  0  0  0  0  0  0  0  0  0  0  0
  141.4048   72.5603  224.7126 H   0  0  0  0  0  0  0  0  0  0  0  0
  1  2  2  0
  2  3  1  0
  3  4  2  0
  4  5  1  0
  5  6  2  0
  5  7  1  0
  7  8  1  0
  8  9  1  0
  9 10  1  0
 10 11  2  0
 11 12  1  0
 12 13  1  0
 13 14  1  0
 14 15  1  0
 15 16  1  0
 16 17  1  0
 17 18  1  0
 18 19  1  0
 19 20  1  0
 20 21  1  0
 12 22  2  0
 22 23  1  0
 23 24  1  0
 24 25  1  0
 25 26  1  0
 26 27  1  0
 27 28  2  0
 28 29  1  0
 29 30  2  0
 30 31  1  0
 31 32  2  0
 32 33  1  0
 23 34  2  0
  9 35  1  0
  6  1  1  0
 34 10  1  0
 35  4  1  0
 21 16  1  0
 33 24  1  0
 32 27  1  0
  1 36  1  0
  2 37  1  0
  3 38  1  0
  6 39  1  0
  7 40  1  0
  7 41  1  0
  8 42  1  0
  8 43  1  0
 13 44  1  0
 14 45  1  0
 14 46  1  0
 15 47  1  0
 15 48  1  0
 16 49  1  0
 17 50  1  0
 17 51  1  0
 18 52  1  0
 18 53  1  0
 19 54  1  0
 20 55  1  0
 20 56  1  0
 21 57  1  0
 21 58  1  0
 25 59  1  0
 25 60  1  0
 26 61  1  0
 26 62  1  0
 28 63  1  0
 29 64  1  0
 30 65  1  0
 31 66  1  0
 33 67  1  0
 33 68  1  0
 35 69  1  0
 35 70  1  0
M  END
>  <smiles>  (28) 
c1ccc2c(c1)CCN(c1nc(NCCC3CCNCC3)nc(N3CCc4ccccc4C3)n1)C2

>  <score_type>  (28) 
oracle

>  <origin>  (28) 
autodockgpu

>  <m_score__min__energy>  (28) 
-10.140000000000001

>  <m_primary>  (28) 
energy

>  <rmsd>  (28) 
6.105542228604214

>  <m_score__min__rmsd>  (28) 
6.105542228604214

>  <meeko>  (28) 
{"free_energy": -9.71, "intermolecular_energy": -11.5, "internal_energy": -1.32, "cluster_size": 43, "cluster_id": 1, "rank_in_cluster": 15}

>  <energy>  (28) 
-9.15

>  <cluster_rmsd>  (28) 
1.28

>  <cluster>  (28) 
1

$$$$

     RDKit          3D

 70 75  0  0  0  0  0  0  0  0999 V2000
  139.5650   69.3020  227.8110 C   0  0  0  0  0  0  0  0  0  0  0  0
  140.3860   70.3950  228.0050 C   0  0  0  0  0  0  0  0  0  0  0  0
  140.8140   71.1410  226.9270 C   0  0  0  0  0  0  0  0  0  0  0  0
  140.4080   70.7720  225.6580 C   0  0  0  0  0  0  0  0  0  0  0  0
  139.5810   69.6680  225.4900 C   0  0  0  0  0  0  0  0  0  0  0  0
  139.1410   68.9090  226.5520 C   0  0  0  0  0  0  0  0  0  0  0  0
  139.1980   69.3530  224.0720 C   0  0  0  0  0  0  0  0  0  0  0  0
  138.7230   70.6710  223.4680 C   0  0  0  0  0  0  0  0  0  0  0  0
  139.8540   71.5470  223.4240 N   0  0  0  0  0  0  0  0  0  0  0  0
  140.0160   72.4390  222.3330 C   0  0  0  0  0  0  0  0  0  0  0  0
  140.2270   71.9720  221.1060 N   0  0  0  0  0  0  0  0  0  0  0  0
  140.3870   72.8040  220.0340 C   0  0  0  0  0  0  0  0  0  0  0  0
  140.6080   72.2720  218.7270 N   0  0  0  0  0  0  0  0  0  0  0  0
  141.6160   72.7790  217.8220 C   0  0  0  0  0  0  0  0  0  0  0  0
  142.8850   73.0350  218.5630 C   0  0  0  0  0  0  0  0  0  0  0  0
  143.2420   74.5010  218.6550 C   0  0  0  0  0  0  0  0  0  0  0  0
  143.2310   75.0550  220.0380 C   0  0  0  0  0  0  0  0  0  0  0  0
  142.6880   76.4700  220.0850 C   0  0  0  0  0  0  0  0  0  0  0  0
  143.0660   77.2740  218.9610 N   0  0  0  0  0  0  0  0  0  0  0  0
  142.7490   76.7230  217.6800 C   0  0  0  0  0  0  0  0  0  0  0  0
  142.3150   75.2690  217.7530 C   0  0  0  0  0  0  0  0  0  0  0  0
  140.3230   74.1250  220.2660 N   0  0  0  0  0  0  0  0  0  0  0  0
  140.1110   74.6410  221.4870 C   0  0  0  0  0  0  0  0  0  0  0  0
  140.0450   76.0560  221.7230 N   0  0  0  0  0  0  0  0  0  0  0  0
  139.1260   76.8910  220.9930 C   0  0  0  0  0  0  0  0  0  0  0  0
  139.7570   78.1190  220.4030 C   0  0  0  0  0  0  0  0  0  0  0  0
  140.5280   78.7780  221.4960 C   0  0  0  0  0  0  0  0  0  0  0  0
  140.6880   80.1470  221.4040 C   0  0  0  0  0  0  0  0  0  0  0  0
  141.3780   80.8590  222.3520 C   0  0  0  0  0  0  0  0  0  0  0  0
  141.9160   80.1750  223.4120 C   0  0  0  0  0  0  0  0  0  0  0  0
  141.7550   78.8010  223.5030 C   0  0  0  0  0  0  0  0  0  0  0  0
  141.0650   78.0780  222.5590 C   0  0  0  0  0  0  0  0  0  0  0  0
  140.9270   76.6150  222.7140 C   0  0  0  0  0  0  0  0  0  0  0  0
  139.9600   73.7750  222.5050 N   0  0  0  0  0  0  0  0  0  0  0  0
  140.8400   71.5370  224.4820 C   0  0  0  0  0  0  0  0  0  0  0  0
  139.2361   68.7231  228.6866 H   0  0  0  0  0  0  0  0  0  0  0  0
  140.6996   70.6716  229.0224 H   0  0  0  0  0  0  0  0  0  0  0  0
  141.4668   72.0141  227.0742 H   0  0  0  0  0  0  0  0  0  0  0  0
  138.4871   68.0363  226.4079 H   0  0  0  0  0  0  0  0  0  0  0  0
  140.0663   68.9680  223.5171 H   0  0  0  0  0  0  0  0  0  0  0  0
  138.4159   68.5808  224.0255 H   0  0  0  0  0  0  0  0  0  0  0  0
  138.3367   70.5026  222.4519 H   0  0  0  0  0  0  0  0  0  0  0  0
  137.9132   71.1080  224.0708 H   0  0  0  0  0  0  0  0  0  0  0  0
  139.9880   71.4680  218.4340 H   0  0  0  0  0  0  0  0  0  0  0  0
  141.7999   72.0383  217.0298 H   0  0  0  0  0  0  0  0  0  0  0  0
  141.2613   73.7206  217.3776 H   0  0  0  0  0  0  0  0  0  0  0  0
  142.7792   72.6373  219.5831 H   0  0  0  0  0  0  0  0  0  0  0  0
  143.6925   72.5389  218.0046 H   0  0  0  0  0  0  0  0  0  0  0  0
  144.2873   74.6073  218.3294 H   0  0  0  0  0  0  0  0  0  0  0  0
  142.6015   74.4130  220.6716 H   0  0  0  0  0  0  0  0  0  0  0  0
  144.2696   75.0802  220.3995 H   0  0  0  0  0  0  0  0  0  0  0  0
  141.5898   76.4186  220.1205 H   0  0  0  0  0  0  0  0  0  0  0  0
  143.1173   76.9475  220.9782 H   0  0  0  0  0  0  0  0  0  0  0  0
  144.0670   77.5350  219.0310 H   0  0  0  0  0  0  0  0  0  0  0  0
  141.9318   77.3114  217.2373 H   0  0  0  0  0  0  0  0  0  0  0  0
  143.6618   76.7647  217.0676 H   0  0  0  0  0  0  0  0  0  0  0  0
  141.2909   75.2139  218.1508 H   0  0  0  0  0  0  0  0  0  0  0  0
  142.3471   74.8311  216.7444 H   0  0  0  0  0  0  0  0  0  0  0  0
  138.6932   76.2968  220.1747 H   0  0  0  0  0  0  0  0  0  0  0  0
  138.3677   77.2355  221.7116 H   0  0  0  0  0  0  0  0  0  0  0  0
  140.4312   77.8396  219.5800 H   0  0  0  0  0  0  0  0  0  0  0  0
  138.9927   78.7975  219.9962 H   0  0  0  0  0  0  0  0  0  0  0  0
  140.2503   80.6806  220.5474 H   0  0  0  0  0  0  0  0  0  0  0  0
  141.4966   81.9491  222.2644 H   0  0  0  0  0  0  0  0  0  0  0  0
  142.4749   80.7163  224.1896 H   0  0  0  0  0  0  0  0  0  0  0  0
  142.1948   78.2708  224.3606 H   0  0  0  0  0  0  0  0  0  0  0  0
  141.9188   76.1504  222.6114 H   0  0  0  0  0  0  0  0  0  0  0  0
  140.4987   76.4140  223.7071 H   0  0  0  0  0  0  0  0  0  0  0  0
  141.7670   71.0901  224.0936 H   0  0  0  0  0  0  0  0  0  0  0  0
  140.9908   72.5784  224.8027 H   0  0  0  0  0  0  0  0  0  0  0  0
  1  2  2  0
  2  3  1  0
  3  4  2  0
  4  5  1  0
  5  6  2  0
  5  7  1  0
  7  8  1  0
  8  9  1  0
  9 10  1  0
 10 11  2  0
 11 12  1  0
 12 13  1  0
 13 14  1  0
 14 15  1  0
 15 16  1  0
 16 17  1  0
 17 18  1  0
 18 19  1  0
 19 20  1  0
 20 21  1  0
 12 22  2  0
 22 23  1  0
 23 24  1  0
 24 25  1  0
 25 26  1  0
 26 27  1  0
 27 28  2  0
 28 29  1  0
 29 30  2  0
 30 31  1  0
 31 32  2  0
 32 33  1  0
 23 34  2  0
  9 35  1  0
  6  1  1  0
 34 10  1  0
 35  4  1  0
 21 16  1  0
 33 24  1  0
 32 27  1  0
  1 36  1  0
  2 37  1  0
  3 38  1  0
  6 39  1  0
  7 40  1  0
  7 41  1  0
  8 42  1  0
  8 43  1  0
 13 44  1  0
 14 45  1  0
 14 46  1  0
 15 47  1  0
 15 48  1  0
 16 49  1  0
 17 50  1  0
 17 51  1  0
 18 52  1  0
 18 53  1  0
 19 54  1  0
 20 55  1  0
 20 56  1  0
 21 57  1  0
 21 58  1  0
 25 59  1  0
 25 60  1  0
 26 61  1  0
 26 62  1  0
 28 63  1  0
 29 64  1  0
 30 65  1  0
 31 66  1  0
 33 67  1  0
 33 68  1  0
 35 69  1  0
 35 70  1  0
M  END
>  <smiles>  (29) 
c1ccc2c(c1)CCN(c1nc(NCCC3CCNCC3)nc(N3CCc4ccccc4C3)n1)C2

>  <score_type>  (29) 
oracle

>  <origin>  (29) 
autodockgpu

>  <m_score__min__energy>  (29) 
-10.140000000000001

>  <m_primary>  (29) 
energy

>  <rmsd>  (29) 
4.119184422164498

>  <m_score__min__rmsd>  (29) 
4.119184422164498

>  <meeko>  (29) 
{"free_energy": -8.98, "intermolecular_energy": -10.77, "internal_energy": -2.08, "cluster_size": 43, "cluster_id": 1, "rank_in_cluster": 38}

>  <energy>  (29) 
-9.14

>  <cluster_rmsd>  (29) 
1.22

>  <cluster>  (29) 
1

$$$$

     RDKit          3D

 70 75  0  0  0  0  0  0  0  0999 V2000
  139.6520   69.9030  227.8980 C   0  0  0  0  0  0  0  0  0  0  0  0
  140.5470   70.9520  227.9700 C   0  0  0  0  0  0  0  0  0  0  0  0
  140.9380   71.6100  226.8240 C   0  0  0  0  0  0  0  0  0  0  0  0
  140.4190   71.2010  225.6100 C   0  0  0  0  0  0  0  0  0  0  0  0
  139.5200   70.1430  225.5640 C   0  0  0  0  0  0  0  0  0  0  0  0
  139.1150   69.4700  226.6970 C   0  0  0  0  0  0  0  0  0  0  0  0
  139.0160   69.7780  224.1970 C   0  0  0  0  0  0  0  0  0  0  0  0
  138.5750   71.0880  223.5530 C   0  0  0  0  0  0  0  0  0  0  0  0
  139.7490   71.8890  223.3790 N   0  0  0  0  0  0  0  0  0  0  0  0
  139.8820   72.7090  222.2300 C   0  0  0  0  0  0  0  0  0  0  0  0
  139.8650   72.1730  221.0120 N   0  0  0  0  0  0  0  0  0  0  0  0
  139.9900   72.9360  219.8860 C   0  0  0  0  0  0  0  0  0  0  0  0
  139.9630   72.3310  218.5920 N   0  0  0  0  0  0  0  0  0  0  0  0
  140.9130   71.3280  218.1630 C   0  0  0  0  0  0  0  0  0  0  0  0
  142.2080   71.9730  217.8030 C   0  0  0  0  0  0  0  0  0  0  0  0
  143.2330   71.9250  218.9130 C   0  0  0  0  0  0  0  0  0  0  0  0
  143.2280   73.1120  219.8130 C   0  0  0  0  0  0  0  0  0  0  0  0
  144.6260   73.5170  220.2380 C   0  0  0  0  0  0  0  0  0  0  0  0
  145.5060   72.4100  220.4680 N   0  0  0  0  0  0  0  0  0  0  0  0
  145.6260   71.4870  219.3810 C   0  0  0  0  0  0  0  0  0  0  0  0
  144.5890   71.7170  218.2950 C   0  0  0  0  0  0  0  0  0  0  0  0
  140.1340   74.2600  220.0530 N   0  0  0  0  0  0  0  0  0  0  0  0
  140.1570   74.8450  221.2610 C   0  0  0  0  0  0  0  0  0  0  0  0
  140.3110   76.2620  221.4270 N   0  0  0  0  0  0  0  0  0  0  0  0
  140.0510   77.1730  220.3410 C   0  0  0  0  0  0  0  0  0  0  0  0
  141.1420   78.1780  220.1150 C   0  0  0  0  0  0  0  0  0  0  0  0
  141.4470   78.7930  221.4380 C   0  0  0  0  0  0  0  0  0  0  0  0
  141.9360   80.0850  221.4240 C   0  0  0  0  0  0  0  0  0  0  0  0
  142.2510   80.7510  222.5810 C   0  0  0  0  0  0  0  0  0  0  0  0
  142.0660   80.1000  223.7740 C   0  0  0  0  0  0  0  0  0  0  0  0
  141.5750   78.8040  223.7870 C   0  0  0  0  0  0  0  0  0  0  0  0
  141.2570   78.1280  222.6330 C   0  0  0  0  0  0  0  0  0  0  0  0
  140.7360   76.7470  222.7140 C   0  0  0  0  0  0  0  0  0  0  0  0
  140.0280   74.0450  222.3350 N   0  0  0  0  0  0  0  0  0  0  0  0
  140.8070   71.8730  224.3640 C   0  0  0  0  0  0  0  0  0  0  0  0
  139.3552   69.3936  228.8267 H   0  0  0  0  0  0  0  0  0  0  0  0
  140.9492   71.2635  228.9453 H   0  0  0  0  0  0  0  0  0  0  0  0
  141.6508   72.4463  226.8745 H   0  0  0  0  0  0  0  0  0  0  0  0
  138.4028   68.6331  226.6496 H   0  0  0  0  0  0  0  0  0  0  0  0
  139.8173   69.3111  223.6054 H   0  0  0  0  0  0  0  0  0  0  0  0
  138.1890   69.0547  224.2504 H   0  0  0  0  0  0  0  0  0  0  0  0
  138.1058   70.8897  222.5780 H   0  0  0  0  0  0  0  0  0  0  0  0
  137.8384   71.6058  224.1848 H   0  0  0  0  0  0  0  0  0  0  0  0
  139.2000   72.6540  217.9360 H   0  0  0  0  0  0  0  0  0  0  0  0
  141.0783   70.6099  218.9797 H   0  0  0  0  0  0  0  0  0  0  0  0
  140.5128   70.8052  217.2818 H   0  0  0  0  0  0  0  0  0  0  0  0
  142.6218   71.4570  216.9240 H   0  0  0  0  0  0  0  0  0  0  0  0
  141.9971   73.0337  217.6022 H   0  0  0  0  0  0  0  0  0  0  0  0
  142.9656   71.0851  219.5710 H   0  0  0  0  0  0  0  0  0  0  0  0
  142.7608   73.9555  219.2836 H   0  0  0  0  0  0  0  0  0  0  0  0
  142.6645   72.8452  220.7192 H   0  0  0  0  0  0  0  0  0  0  0  0
  145.0600   74.1460  219.4468 H   0  0  0  0  0  0  0  0  0  0  0  0
  144.5271   74.0506  221.1948 H   0  0  0  0  0  0  0  0  0  0  0  0
  145.2520   71.9320  221.3520 H   0  0  0  0  0  0  0  0  0  0  0  0
  146.6275   71.5935  218.9386 H   0  0  0  0  0  0  0  0  0  0  0  0
  145.4633   70.4770  219.7852 H   0  0  0  0  0  0  0  0  0  0  0  0
  144.8640   72.6082  217.7118 H   0  0  0  0  0  0  0  0  0  0  0  0
  144.5543   70.8362  217.6370 H   0  0  0  0  0  0  0  0  0  0  0  0
  139.9247   76.5859  219.4194 H   0  0  0  0  0  0  0  0  0  0  0  0
  139.1466   77.7389  220.6090 H   0  0  0  0  0  0  0  0  0  0  0  0
  142.0373   77.6803  219.7141 H   0  0  0  0  0  0  0  0  0  0  0  0
  140.8280   78.9425  219.3891 H   0  0  0  0  0  0  0  0  0  0  0  0
  142.0766   80.5934  220.4587 H   0  0  0  0  0  0  0  0  0  0  0  0
  142.6413   81.7790  222.5529 H   0  0  0  0  0  0  0  0  0  0  0  0
  142.3073   80.6064  224.7202 H   0  0  0  0  0  0  0  0  0  0  0  0
  141.4349   78.2989  224.7541 H   0  0  0  0  0  0  0  0  0  0  0  0
  141.5289   76.0889  223.0989 H   0  0  0  0  0  0  0  0  0  0  0  0
  139.8643   76.7481  223.3850 H   0  0  0  0  0  0  0  0  0  0  0  0
  141.6749   71.3483  223.9380 H   0  0  0  0  0  0  0  0  0  0  0  0
  141.0415   72.9185  224.6127 H   0  0  0  0  0  0  0  0  0  0  0  0
  1  2  2  0
  2  3  1  0
  3  4  2  0
  4  5  1  0
  5  6  2  0
  5  7  1  0
  7  8  1  0
  8  9  1  0
  9 10  1  0
 10 11  2  0
 11 12  1  0
 12 13  1  0
 13 14  1  0
 14 15  1  0
 15 16  1  0
 16 17  1  0
 17 18  1  0
 18 19  1  0
 19 20  1  0
 20 21  1  0
 12 22  2  0
 22 23  1  0
 23 24  1  0
 24 25  1  0
 25 26  1  0
 26 27  1  0
 27 28  2  0
 28 29  1  0
 29 30  2  0
 30 31  1  0
 31 32  2  0
 32 33  1  0
 23 34  2  0
  9 35  1  0
  6  1  1  0
 34 10  1  0
 35  4  1  0
 21 16  1  0
 33 24  1  0
 32 27  1  0
  1 36  1  0
  2 37  1  0
  3 38  1  0
  6 39  1  0
  7 40  1  0
  7 41  1  0
  8 42  1  0
  8 43  1  0
 13 44  1  0
 14 45  1  0
 14 46  1  0
 15 47  1  0
 15 48  1  0
 16 49  1  0
 17 50  1  0
 17 51  1  0
 18 52  1  0
 18 53  1  0
 19 54  1  0
 20 55  1  0
 20 56  1  0
 21 57  1  0
 21 58  1  0
 25 59  1  0
 25 60  1  0
 26 61  1  0
 26 62  1  0
 28 63  1  0
 29 64  1  0
 30 65  1  0
 31 66  1  0
 33 67  1  0
 33 68  1  0
 35 69  1  0
 35 70  1  0
M  END
>  <smiles>  (30) 
c1ccc2c(c1)CCN(c1nc(NCCC3CCNCC3)nc(N3CCc4ccccc4C3)n1)C2

>  <score_type>  (30) 
oracle

>  <origin>  (30) 
autodockgpu

>  <m_score__min__energy>  (30) 
-10.140000000000001

>  <m_primary>  (30) 
energy

>  <rmsd>  (30) 
6.148468872852191

>  <m_score__min__rmsd>  (30) 
6.148468872852191

>  <meeko>  (30) 
{"free_energy": -9.49, "intermolecular_energy": -11.28, "internal_energy": -1.39, "cluster_size": 43, "cluster_id": 1, "rank_in_cluster": 21}

>  <energy>  (30) 
-9.09

>  <cluster_rmsd>  (30) 
1.38

>  <cluster>  (30) 
1

$$$$

     RDKit          3D

 70 75  0  0  0  0  0  0  0  0999 V2000
  139.5500   69.7310  227.7480 C   0  0  0  0  0  0  0  0  0  0  0  0
  140.4100   70.8030  227.8830 C   0  0  0  0  0  0  0  0  0  0  0  0
  140.8150   71.5120  226.7720 C   0  0  0  0  0  0  0  0  0  0  0  0
  140.3450   71.1290  225.5300 C   0  0  0  0  0  0  0  0  0  0  0  0
  139.4810   70.0470  225.4200 C   0  0  0  0  0  0  0  0  0  0  0  0
  139.0630   69.3240  226.5170 C   0  0  0  0  0  0  0  0  0  0  0  0
  139.0290   69.7140  224.0270 C   0  0  0  0  0  0  0  0  0  0  0  0
  138.5680   71.0330  223.4140 C   0  0  0  0  0  0  0  0  0  0  0  0
  139.7210   71.8730  223.3030 N   0  0  0  0  0  0  0  0  0  0  0  0
  139.8640   72.7360  222.1870 C   0  0  0  0  0  0  0  0  0  0  0  0
  139.8860   72.2430  220.9520 N   0  0  0  0  0  0  0  0  0  0  0  0
  140.0220   73.0470  219.8560 C   0  0  0  0  0  0  0  0  0  0  0  0
  140.0370   72.4880  218.5410 N   0  0  0  0  0  0  0  0  0  0  0  0
  140.4790   73.2170  217.3720 C   0  0  0  0  0  0  0  0  0  0  0  0
  141.9490   73.0430  217.1880 C   0  0  0  0  0  0  0  0  0  0  0  0
  142.7670   74.1650  217.7860 C   0  0  0  0  0  0  0  0  0  0  0  0
  143.2990   73.8850  219.1490 C   0  0  0  0  0  0  0  0  0  0  0  0
  143.2690   75.1110  220.0400 C   0  0  0  0  0  0  0  0  0  0  0  0
  143.5720   76.3330  219.3570 N   0  0  0  0  0  0  0  0  0  0  0  0
  142.7690   76.6060  218.2050 C   0  0  0  0  0  0  0  0  0  0  0  0
  141.9290   75.4150  217.7750 C   0  0  0  0  0  0  0  0  0  0  0  0
  140.1340   74.3680  220.0720 N   0  0  0  0  0  0  0  0  0  0  0  0
  140.1160   74.9100  221.3000 C   0  0  0  0  0  0  0  0  0  0  0  0
  140.2370   76.3230  221.5180 N   0  0  0  0  0  0  0  0  0  0  0  0
  139.7480   77.2720  220.5510 C   0  0  0  0  0  0  0  0  0  0  0  0
  140.7380   78.3430  220.1950 C   0  0  0  0  0  0  0  0  0  0  0  0
  141.2470   78.9060  221.4770 C   0  0  0  0  0  0  0  0  0  0  0  0
  141.6700   80.2210  221.4530 C   0  0  0  0  0  0  0  0  0  0  0  0
  142.1580   80.8440  222.5730 C   0  0  0  0  0  0  0  0  0  0  0  0
  142.2180   80.1260  223.7410 C   0  0  0  0  0  0  0  0  0  0  0  0
  141.7930   78.8070  223.7640 C   0  0  0  0  0  0  0  0  0  0  0  0
  141.3020   78.1730  222.6460 C   0  0  0  0  0  0  0  0  0  0  0  0
  140.8640   76.7650  222.7370 C   0  0  0  0  0  0  0  0  0  0  0  0
  139.9800   74.0700  222.3420 N   0  0  0  0  0  0  0  0  0  0  0  0
  140.7500   71.8550  224.3200 C   0  0  0  0  0  0  0  0  0  0  0  0
  139.2411   69.1813  228.6493 H   0  0  0  0  0  0  0  0  0  0  0  0
  140.7731   71.0922  228.8802 H   0  0  0  0  0  0  0  0  0  0  0  0
  141.4998   72.3670  226.8723 H   0  0  0  0  0  0  0  0  0  0  0  0
  138.3784   68.4685  226.4196 H   0  0  0  0  0  0  0  0  0  0  0  0
  139.8611   69.2911  223.4450 H   0  0  0  0  0  0  0  0  0  0  0  0
  138.2232   68.9653  224.0306 H   0  0  0  0  0  0  0  0  0  0  0  0
  138.1340   70.8550  222.4190 H   0  0  0  0  0  0  0  0  0  0  0  0
  137.7980   71.5070  224.0404 H   0  0  0  0  0  0  0  0  0  0  0  0
  139.7020   71.4900  218.4490 H   0  0  0  0  0  0  0  0  0  0  0  0
  139.9531   72.8355  216.4844 H   0  0  0  0  0  0  0  0  0  0  0  0
  140.2560   74.2856  217.5071 H   0  0  0  0  0  0  0  0  0  0  0  0
  142.2506   72.0991  217.6655 H   0  0  0  0  0  0  0  0  0  0  0  0
  142.1424   73.0422  216.1051 H   0  0  0  0  0  0  0  0  0  0  0  0
  143.6664   74.2858  217.1643 H   0  0  0  0  0  0  0  0  0  0  0  0
  142.6884   73.0959  219.6121 H   0  0  0  0  0  0  0  0  0  0  0  0
  144.3478   73.5706  219.0434 H   0  0  0  0  0  0  0  0  0  0  0  0
  142.2626   75.1981  220.4754 H   0  0  0  0  0  0  0  0  0  0  0  0
  144.0488   74.9701  220.8029 H   0  0  0  0  0  0  0  0  0  0  0  0
  144.5850   76.3770  219.1390 H   0  0  0  0  0  0  0  0  0  0  0  0
  142.0962   77.4448  218.4367 H   0  0  0  0  0  0  0  0  0  0  0  0
  143.4511   76.8458  217.3760 H   0  0  0  0  0  0  0  0  0  0  0  0
  141.0851   75.2942  218.4701 H   0  0  0  0  0  0  0  0  0  0  0  0
  141.5509   75.5880  216.7566 H   0  0  0  0  0  0  0  0  0  0  0  0
  139.4833   76.7262  219.6334 H   0  0  0  0  0  0  0  0  0  0  0  0
  138.8831   77.7757  221.0072 H   0  0  0  0  0  0  0  0  0  0  0  0
  141.5678   77.9132  219.6148 H   0  0  0  0  0  0  0  0  0  0  0  0
  140.2678   79.1252  219.5809 H   0  0  0  0  0  0  0  0  0  0  0  0
  141.6138   80.7838  220.5095 H   0  0  0  0  0  0  0  0  0  0  0  0
  142.4924   81.8913  222.5361 H   0  0  0  0  0  0  0  0  0  0  0  0
  142.6029   80.5967  224.6577 H   0  0  0  0  0  0  0  0  0  0  0  0
  141.8503   78.2474  224.7093 H   0  0  0  0  0  0  0  0  0  0  0  0
  141.7404   76.1311  222.9374 H   0  0  0  0  0  0  0  0  0  0  0  0
  140.1271   76.6867  223.5499 H   0  0  0  0  0  0  0  0  0  0  0  0
  141.6462   71.3714  223.9040 H   0  0  0  0  0  0  0  0  0  0  0  0
  140.9450   72.8978  224.6106 H   0  0  0  0  0  0  0  0  0  0  0  0
  1  2  2  0
  2  3  1  0
  3  4  2  0
  4  5  1  0
  5  6  2  0
  5  7  1  0
  7  8  1  0
  8  9  1  0
  9 10  1  0
 10 11  2  0
 11 12  1  0
 12 13  1  0
 13 14  1  0
 14 15  1  0
 15 16  1  0
 16 17  1  0
 17 18  1  0
 18 19  1  0
 19 20  1  0
 20 21  1  0
 12 22  2  0
 22 23  1  0
 23 24  1  0
 24 25  1  0
 25 26  1  0
 26 27  1  0
 27 28  2  0
 28 29  1  0
 29 30  2  0
 30 31  1  0
 31 32  2  0
 32 33  1  0
 23 34  2  0
  9 35  1  0
  6  1  1  0
 34 10  1  0
 35  4  1  0
 21 16  1  0
 33 24  1  0
 32 27  1  0
  1 36  1  0
  2 37  1  0
  3 38  1  0
  6 39  1  0
  7 40  1  0
  7 41  1  0
  8 42  1  0
  8 43  1  0
 13 44  1  0
 14 45  1  0
 14 46  1  0
 15 47  1  0
 15 48  1  0
 16 49  1  0
 17 50  1  0
 17 51  1  0
 18 52  1  0
 18 53  1  0
 19 54  1  0
 20 55  1  0
 20 56  1  0
 21 57  1  0
 21 58  1  0
 25 59  1  0
 25 60  1  0
 26 61  1  0
 26 62  1  0
 28 63  1  0
 29 64  1  0
 30 65  1  0
 31 66  1  0
 33 67  1  0
 33 68  1  0
 35 69  1  0
 35 70  1  0
M  END
>  <smiles>  (31) 
c1ccc2c(c1)CCN(c1nc(NCCC3CCNCC3)nc(N3CCc4ccccc4C3)n1)C2

>  <score_type>  (31) 
oracle

>  <origin>  (31) 
autodockgpu

>  <m_score__min__energy>  (31) 
-10.140000000000001

>  <m_primary>  (31) 
energy

>  <rmsd>  (31) 
4.488742000819696

>  <m_score__min__rmsd>  (31) 
4.488742000819696

>  <meeko>  (31) 
{"free_energy": -8.83, "intermolecular_energy": -10.62, "internal_energy": -2.14, "cluster_size": 43, "cluster_id": 1, "rank_in_cluster": 42}

>  <energy>  (31) 
-9.09

>  <cluster_rmsd>  (31) 
1.51

>  <cluster>  (31) 
1

$$$$

     RDKit          3D

 70 75  0  0  0  0  0  0  0  0999 V2000
  139.4850   69.5790  227.4230 C   0  0  0  0  0  0  0  0  0  0  0  0
  140.5170   70.4870  227.5570 C   0  0  0  0  0  0  0  0  0  0  0  0
  140.9880   71.1680  226.4560 C   0  0  0  0  0  0  0  0  0  0  0  0
  140.4110   70.9250  225.2240 C   0  0  0  0  0  0  0  0  0  0  0  0
  139.3740   70.0070  225.1150 C   0  0  0  0  0  0  0  0  0  0  0  0
  138.8860   69.3140  226.2020 C   0  0  0  0  0  0  0  0  0  0  0  0
  138.8160   69.8170  223.7330 C   0  0  0  0  0  0  0  0  0  0  0  0
  138.5570   71.2200  223.1930 C   0  0  0  0  0  0  0  0  0  0  0  0
  139.8290   71.8620  223.0590 N   0  0  0  0  0  0  0  0  0  0  0  0
  140.0680   72.7400  221.9710 C   0  0  0  0  0  0  0  0  0  0  0  0
  140.1720   72.2650  220.7320 N   0  0  0  0  0  0  0  0  0  0  0  0
  140.4010   73.0840  219.6630 C   0  0  0  0  0  0  0  0  0  0  0  0
  140.5030   72.5440  218.3440 N   0  0  0  0  0  0  0  0  0  0  0  0
  141.7210   72.5770  217.5630 C   0  0  0  0  0  0  0  0  0  0  0  0
  142.6040   73.6790  218.0430 C   0  0  0  0  0  0  0  0  0  0  0  0
  143.7080   73.2070  218.9620 C   0  0  0  0  0  0  0  0  0  0  0  0
  143.4270   71.9200  219.6580 C   0  0  0  0  0  0  0  0  0  0  0  0
  143.9450   71.9130  221.0820 C   0  0  0  0  0  0  0  0  0  0  0  0
  145.1930   72.5950  221.2500 N   0  0  0  0  0  0  0  0  0  0  0  0
  145.2220   73.9450  220.7790 C   0  0  0  0  0  0  0  0  0  0  0  0
  144.0020   74.3060  219.9480 C   0  0  0  0  0  0  0  0  0  0  0  0
  140.5200   74.3980  219.9090 N   0  0  0  0  0  0  0  0  0  0  0  0
  140.4230   74.9210  221.1410 C   0  0  0  0  0  0  0  0  0  0  0  0
  140.5520   76.3290  221.3910 N   0  0  0  0  0  0  0  0  0  0  0  0
  140.3080   77.2960  220.3530 C   0  0  0  0  0  0  0  0  0  0  0  0
  141.3910   78.3270  220.2150 C   0  0  0  0  0  0  0  0  0  0  0  0
  141.6500   78.8690  221.5780 C   0  0  0  0  0  0  0  0  0  0  0  0
  142.1210   80.1660  221.6510 C   0  0  0  0  0  0  0  0  0  0  0  0
  142.3940   80.7690  222.8530 C   0  0  0  0  0  0  0  0  0  0  0  0
  142.1870   80.0490  224.0020 C   0  0  0  0  0  0  0  0  0  0  0  0
  141.7140   78.7480  223.9270 C   0  0  0  0  0  0  0  0  0  0  0  0
  141.4370   78.1340  222.7280 C   0  0  0  0  0  0  0  0  0  0  0  0
  140.9350   76.7450  222.7160 C   0  0  0  0  0  0  0  0  0  0  0  0
  140.1960   74.0680  222.1560 N   0  0  0  0  0  0  0  0  0  0  0  0
  140.8810   71.6280  224.0240 C   0  0  0  0  0  0  0  0  0  0  0  0
  139.1261   69.0477  228.3168 H   0  0  0  0  0  0  0  0  0  0  0  0
  140.9642   70.6670  228.5458 H   0  0  0  0  0  0  0  0  0  0  0  0
  141.8094   71.8928  226.5558 H   0  0  0  0  0  0  0  0  0  0  0  0
  138.0645   68.5889  226.1052 H   0  0  0  0  0  0  0  0  0  0  0  0
  139.5413   69.2893  223.0962 H   0  0  0  0  0  0  0  0  0  0  0  0
  137.8971   69.2125  223.7469 H   0  0  0  0  0  0  0  0  0  0  0  0
  138.0592   71.1613  222.2138 H   0  0  0  0  0  0  0  0  0  0  0  0
  137.9030   71.7860  223.8726 H   0  0  0  0  0  0  0  0  0  0  0  0
  139.6280   72.1080  217.9440 H   0  0  0  0  0  0  0  0  0  0  0  0
  142.2471   71.6167  217.6676 H   0  0  0  0  0  0  0  0  0  0  0  0
  141.4684   72.7504  216.5065 H   0  0  0  0  0  0  0  0  0  0  0  0
  143.0619   74.1647  217.1687 H   0  0  0  0  0  0  0  0  0  0  0  0
  141.9742   74.3713  218.6210 H   0  0  0  0  0  0  0  0  0  0  0  0
  144.5870   72.9903  218.3372 H   0  0  0  0  0  0  0  0  0  0  0  0
  142.3392   71.7575  219.6762 H   0  0  0  0  0  0  0  0  0  0  0  0
  143.9429   71.1194  219.1076 H   0  0  0  0  0  0  0  0  0  0  0  0
  143.1961   72.3983  221.7251 H   0  0  0  0  0  0  0  0  0  0  0  0
  144.1176   70.8610  221.3533 H   0  0  0  0  0  0  0  0  0  0  0  0
  145.9640   72.0300  220.8470 H   0  0  0  0  0  0  0  0  0  0  0  0
  145.2677   74.6190  221.6471 H   0  0  0  0  0  0  0  0  0  0  0  0
  146.1057   74.0509  220.1326 H   0  0  0  0  0  0  0  0  0  0  0  0
  143.1356   74.4411  220.6122 H   0  0  0  0  0  0  0  0  0  0  0  0
  144.2009   75.2391  219.4005 H   0  0  0  0  0  0  0  0  0  0  0  0
  140.2151   76.7611  219.3963 H   0  0  0  0  0  0  0  0  0  0  0  0
  139.3884   77.8337  220.6273 H   0  0  0  0  0  0  0  0  0  0  0  0
  142.3042   77.8645  219.8122 H   0  0  0  0  0  0  0  0  0  0  0  0
  141.0864   79.1275  219.5248 H   0  0  0  0  0  0  0  0  0  0  0  0
  142.2814   80.7303  220.7205 H   0  0  0  0  0  0  0  0  0  0  0  0
  142.7689   81.8023  222.8940 H   0  0  0  0  0  0  0  0  0  0  0  0
  142.3960   80.5033  224.9817 H   0  0  0  0  0  0  0  0  0  0  0  0
  141.5546   78.1869  224.8596 H   0  0  0  0  0  0  0  0  0  0  0  0
  141.7269   76.0764  223.0847 H   0  0  0  0  0  0  0  0  0  0  0  0
  140.0458   76.6959  223.3616 H   0  0  0  0  0  0  0  0  0  0  0  0
  141.6658   71.0222  223.5474 H   0  0  0  0  0  0  0  0  0  0  0  0
  141.2589   72.6102  224.3442 H   0  0  0  0  0  0  0  0  0  0  0  0
  1  2  2  0
  2  3  1  0
  3  4  2  0
  4  5  1  0
  5  6  2  0
  5  7  1  0
  7  8  1  0
  8  9  1  0
  9 10  1  0
 10 11  2  0
 11 12  1  0
 12 13  1  0
 13 14  1  0
 14 15  1  0
 15 16  1  0
 16 17  1  0
 17 18  1  0
 18 19  1  0
 19 20  1  0
 20 21  1  0
 12 22  2  0
 22 23  1  0
 23 24  1  0
 24 25  1  0
 25 26  1  0
 26 27  1  0
 27 28  2  0
 28 29  1  0
 29 30  2  0
 30 31  1  0
 31 32  2  0
 32 33  1  0
 23 34  2  0
  9 35  1  0
  6  1  1  0
 34 10  1  0
 35  4  1  0
 21 16  1  0
 33 24  1  0
 32 27  1  0
  1 36  1  0
  2 37  1  0
  3 38  1  0
  6 39  1  0
  7 40  1  0
  7 41  1  0
  8 42  1  0
  8 43  1  0
 13 44  1  0
 14 45  1  0
 14 46  1  0
 15 47  1  0
 15 48  1  0
 16 49  1  0
 17 50  1  0
 17 51  1  0
 18 52  1  0
 18 53  1  0
 19 54  1  0
 20 55  1  0
 20 56  1  0
 21 57  1  0
 21 58  1  0
 25 59  1  0
 25 60  1  0
 26 61  1  0
 26 62  1  0
 28 63  1  0
 29 64  1  0
 30 65  1  0
 31 66  1  0
 33 67  1  0
 33 68  1  0
 35 69  1  0
 35 70  1  0
M  END
>  <smiles>  (32) 
c1ccc2c(c1)CCN(c1nc(NCCC3CCNCC3)nc(N3CCc4ccccc4C3)n1)C2

>  <score_type>  (32) 
oracle

>  <origin>  (32) 
autodockgpu

>  <m_score__min__energy>  (32) 
-10.140000000000001

>  <m_primary>  (32) 
energy

>  <rmsd>  (32) 
5.98527341181874

>  <m_score__min__rmsd>  (32) 
5.98527341181874

>  <meeko>  (32) 
{"free_energy": -9.28, "intermolecular_energy": -11.07, "internal_energy": -1.8, "cluster_size": 43, "cluster_id": 1, "rank_in_cluster": 24}

>  <energy>  (32) 
-9.02

>  <cluster_rmsd>  (32) 
1.08

>  <cluster>  (32) 
1

$$$$

     RDKit          3D

 70 75  0  0  0  0  0  0  0  0999 V2000
  142.0170   80.3540  221.8440 C   0  0  0  0  0  0  0  0  0  0  0  0
  141.7420   79.8930  223.1160 C   0  0  0  0  0  0  0  0  0  0  0  0
  141.2660   78.6120  223.3020 C   0  0  0  0  0  0  0  0  0  0  0  0
  141.0710   77.8070  222.1960 C   0  0  0  0  0  0  0  0  0  0  0  0
  141.3550   78.2940  220.9270 C   0  0  0  0  0  0  0  0  0  0  0  0
  141.8320   79.5700  220.7170 C   0  0  0  0  0  0  0  0  0  0  0  0
  141.1080   77.3390  219.7940 C   0  0  0  0  0  0  0  0  0  0  0  0
  141.7810   76.0310  220.1990 C   0  0  0  0  0  0  0  0  0  0  0  0
  141.0800   75.5330  221.3430 N   0  0  0  0  0  0  0  0  0  0  0  0
  140.8840   74.1370  221.5000 C   0  0  0  0  0  0  0  0  0  0  0  0
  140.0150   73.6740  222.3950 N   0  0  0  0  0  0  0  0  0  0  0  0
  139.8030   72.3360  222.5700 C   0  0  0  0  0  0  0  0  0  0  0  0
  138.8600   71.8700  223.5370 N   0  0  0  0  0  0  0  0  0  0  0  0
  138.8900   70.5370  224.0990 C   0  0  0  0  0  0  0  0  0  0  0  0
  140.3020   70.1070  224.3170 C   0  0  0  0  0  0  0  0  0  0  0  0
  140.8060   70.3860  225.7140 C   0  0  0  0  0  0  0  0  0  0  0  0
  140.1020   69.6330  226.7890 C   0  0  0  0  0  0  0  0  0  0  0  0
  139.9080   70.4650  228.0420 C   0  0  0  0  0  0  0  0  0  0  0  0
  141.0070   71.3350  228.3370 N   0  0  0  0  0  0  0  0  0  0  0  0
  141.3930   72.2160  227.2780 C   0  0  0  0  0  0  0  0  0  0  0  0
  140.7330   71.8710  225.9540 C   0  0  0  0  0  0  0  0  0  0  0  0
  140.5100   71.4950  221.8000 N   0  0  0  0  0  0  0  0  0  0  0  0
  141.3970   71.9160  220.8840 C   0  0  0  0  0  0  0  0  0  0  0  0
  142.1470   71.0070  220.0650 N   0  0  0  0  0  0  0  0  0  0  0  0
  141.4910   69.9860  219.2890 C   0  0  0  0  0  0  0  0  0  0  0  0
  142.0870   68.6180  219.4540 C   0  0  0  0  0  0  0  0  0  0  0  0
  143.5580   68.7590  219.2560 C   0  0  0  0  0  0  0  0  0  0  0  0
  144.2280   67.6510  218.7750 C   0  0  0  0  0  0  0  0  0  0  0  0
  145.5820   67.6650  218.5540 C   0  0  0  0  0  0  0  0  0  0  0  0
  146.2700   68.8210  218.8210 C   0  0  0  0  0  0  0  0  0  0  0  0
  145.5970   69.9320  219.3030 C   0  0  0  0  0  0  0  0  0  0  0  0
  144.2400   69.9290  219.5290 C   0  0  0  0  0  0  0  0  0  0  0  0
  143.5800   71.1470  220.0430 C   0  0  0  0  0  0  0  0  0  0  0  0
  141.5640   73.2440  220.7540 N   0  0  0  0  0  0  0  0  0  0  0  0
  140.5650   76.4370  222.3480 C   0  0  0  0  0  0  0  0  0  0  0  0
  142.3961   81.3793  221.7212 H   0  0  0  0  0  0  0  0  0  0  0  0
  141.9031   80.5495  223.9838 H   0  0  0  0  0  0  0  0  0  0  0  0
  141.0456   78.2379  224.3127 H   0  0  0  0  0  0  0  0  0  0  0  0
  142.0541   79.9461  219.7074 H   0  0  0  0  0  0  0  0  0  0  0  0
  140.0282   77.1858  219.6506 H   0  0  0  0  0  0  0  0  0  0  0  0
  141.5094   77.7241  218.8450 H   0  0  0  0  0  0  0  0  0  0  0  0
  141.7215   75.3051  219.3747 H   0  0  0  0  0  0  0  0  0  0  0  0
  142.8438   76.1934  220.4315 H   0  0  0  0  0  0  0  0  0  0  0  0
  138.1140   72.5560  223.8370 H   0  0  0  0  0  0  0  0  0  0  0  0
  138.3559   70.5350  225.0607 H   0  0  0  0  0  0  0  0  0  0  0  0
  138.4038   69.8397  223.4009 H   0  0  0  0  0  0  0  0  0  0  0  0
  140.3694   69.0248  224.1318 H   0  0  0  0  0  0  0  0  0  0  0  0
  140.9287   70.6875  223.6240 H   0  0  0  0  0  0  0  0  0  0  0  0
  141.8443   70.0266  225.7667 H   0  0  0  0  0  0  0  0  0  0  0  0
  139.1156   69.3215  226.4149 H   0  0  0  0  0  0  0  0  0  0  0  0
  140.7234   68.7650  227.0542 H   0  0  0  0  0  0  0  0  0  0  0  0
  139.0047   71.0794  227.9133 H   0  0  0  0  0  0  0  0  0  0  0  0
  139.8236   69.7609  228.8829 H   0  0  0  0  0  0  0  0  0  0  0  0
  141.8120   70.7840  228.6900 H   0  0  0  0  0  0  0  0  0  0  0  0
  141.1104   73.2425  227.5544 H   0  0  0  0  0  0  0  0  0  0  0  0
  142.4798   72.1139  227.1424 H   0  0  0  0  0  0  0  0  0  0  0  0
  139.6789   72.1845  225.9797 H   0  0  0  0  0  0  0  0  0  0  0  0
  141.2580   72.3945  225.1414 H   0  0  0  0  0  0  0  0  0  0  0  0
  140.4354   69.9429  219.5955 H   0  0  0  0  0  0  0  0  0  0  0  0
  141.6133   70.2616  218.2311 H   0  0  0  0  0  0  0  0  0  0  0  0
  141.8764   68.2329  220.4626 H   0  0  0  0  0  0  0  0  0  0  0  0
  141.6582   67.9118  218.7278 H   0  0  0  0  0  0  0  0  0  0  0  0
  143.6607   66.7326  218.5634 H   0  0  0  0  0  0  0  0  0  0  0  0
  146.1016   66.7734  218.1731 H   0  0  0  0  0  0  0  0  0  0  0  0
  147.3561   68.8661  218.6525 H   0  0  0  0  0  0  0  0  0  0  0  0
  146.1678   70.8487  219.5123 H   0  0  0  0  0  0  0  0  0  0  0  0
  143.9351   71.3402  221.0660 H   0  0  0  0  0  0  0  0  0  0  0  0
  143.8328   71.9826  219.3737 H   0  0  0  0  0  0  0  0  0  0  0  0
  139.4678   76.4575  222.2728 H   0  0  0  0  0  0  0  0  0  0  0  0
  140.9007   76.0675  223.3282 H   0  0  0  0  0  0  0  0  0  0  0  0
  1  2  2  0
  2  3  1  0
  3  4  2  0
  4  5  1  0
  5  6  2  0
  5  7  1  0
  7  8  1  0
  8  9  1  0
  9 10  1  0
 10 11  2  0
 11 12  1  0
 12 13  1  0
 13 14  1  0
 14 15  1  0
 15 16  1  0
 16 17  1  0
 17 18  1  0
 18 19  1  0
 19 20  1  0
 20 21  1  0
 12 22  2  0
 22 23  1  0
 23 24  1  0
 24 25  1  0
 25 26  1  0
 26 27  1  0
 27 28  2  0
 28 29  1  0
 29 30  2  0
 30 31  1  0
 31 32  2  0
 32 33  1  0
 23 34  2  0
  9 35  1  0
  6  1  1  0
 34 10  1  0
 35  4  1  0
 21 16  1  0
 33 24  1  0
 32 27  1  0
  1 36  1  0
  2 37  1  0
  3 38  1  0
  6 39  1  0
  7 40  1  0
  7 41  1  0
  8 42  1  0
  8 43  1  0
 13 44  1  0
 14 45  1  0
 14 46  1  0
 15 47  1  0
 15 48  1  0
 16 49  1  0
 17 50  1  0
 17 51  1  0
 18 52  1  0
 18 53  1  0
 19 54  1  0
 20 55  1  0
 20 56  1  0
 21 57  1  0
 21 58  1  0
 25 59  1  0
 25 60  1  0
 26 61  1  0
 26 62  1  0
 28 63  1  0
 29 64  1  0
 30 65  1  0
 31 66  1  0
 33 67  1  0
 33 68  1  0
 35 69  1  0
 35 70  1  0
M  END
>  <smiles>  (33) 
c1ccc2c(c1)CCN(c1nc(NCCC3CCNCC3)nc(N3CCc4ccccc4C3)n1)C2

>  <score_type>  (33) 
oracle

>  <origin>  (33) 
autodockgpu

>  <m_score__min__energy>  (33) 
-10.140000000000001

>  <m_primary>  (33) 
energy

>  <rmsd>  (33) 
9.155299839563781

>  <m_score__min__rmsd>  (33) 
9.155299839563781

>  <meeko>  (33) 
{"free_energy": -9.85, "intermolecular_energy": -11.63, "internal_energy": -1.13, "cluster_size": 6, "cluster_id": 2, "rank_in_cluster": 4}

>  <energy>  (33) 
-9.02

>  <cluster_rmsd>  (33) 
1.05

>  <cluster>  (33) 
1

$$$$

     RDKit          3D

 70 75  0  0  0  0  0  0  0  0999 V2000
  139.3680   69.5790  227.6380 C   0  0  0  0  0  0  0  0  0  0  0  0
  140.4250   70.4490  227.8170 C   0  0  0  0  0  0  0  0  0  0  0  0
  140.9790   71.1010  226.7350 C   0  0  0  0  0  0  0  0  0  0  0  0
  140.4560   70.8650  225.4770 C   0  0  0  0  0  0  0  0  0  0  0  0
  139.3920   69.9860  225.3240 C   0  0  0  0  0  0  0  0  0  0  0  0
  138.8230   69.3240  226.3910 C   0  0  0  0  0  0  0  0  0  0  0  0
  138.9000   69.8010  223.9170 C   0  0  0  0  0  0  0  0  0  0  0  0
  138.7230   71.2060  223.3510 C   0  0  0  0  0  0  0  0  0  0  0  0
  140.0230   71.7980  223.2770 N   0  0  0  0  0  0  0  0  0  0  0  0
  140.3510   72.6540  222.1950 C   0  0  0  0  0  0  0  0  0  0  0  0
  140.6890   72.1470  221.0120 N   0  0  0  0  0  0  0  0  0  0  0  0
  141.0090   72.9430  219.9500 C   0  0  0  0  0  0  0  0  0  0  0  0
  141.3630   72.3680  218.6910 N   0  0  0  0  0  0  0  0  0  0  0  0
  141.6870   70.9680  218.5190 C   0  0  0  0  0  0  0  0  0  0  0  0
  142.2260   70.4090  219.7920 C   0  0  0  0  0  0  0  0  0  0  0  0
  143.6890   70.7200  220.0130 C   0  0  0  0  0  0  0  0  0  0  0  0
  143.9550   72.0620  220.6030 C   0  0  0  0  0  0  0  0  0  0  0  0
  145.1930   72.7110  220.0180 C   0  0  0  0  0  0  0  0  0  0  0  0
  146.2570   71.7920  219.7450 N   0  0  0  0  0  0  0  0  0  0  0  0
  145.9080   70.6810  218.9140 C   0  0  0  0  0  0  0  0  0  0  0  0
  144.4100   70.5500  218.7030 C   0  0  0  0  0  0  0  0  0  0  0  0
  140.9720   74.2710  220.1430 N   0  0  0  0  0  0  0  0  0  0  0  0
  140.6380   74.8280  221.3180 C   0  0  0  0  0  0  0  0  0  0  0  0
  140.6020   76.2490  221.5130 N   0  0  0  0  0  0  0  0  0  0  0  0
  140.1180   77.1310  220.4820 C   0  0  0  0  0  0  0  0  0  0  0  0
  141.0290   78.2880  220.1930 C   0  0  0  0  0  0  0  0  0  0  0  0
  141.3600   78.9180  221.5030 C   0  0  0  0  0  0  0  0  0  0  0  0
  141.6560   80.2670  221.4860 C   0  0  0  0  0  0  0  0  0  0  0  0
  141.9750   80.9510  222.6320 C   0  0  0  0  0  0  0  0  0  0  0  0
  141.9930   80.2590  223.8160 C   0  0  0  0  0  0  0  0  0  0  0  0
  141.6950   78.9060  223.8320 C   0  0  0  0  0  0  0  0  0  0  0  0
  141.3750   78.2110  222.6900 C   0  0  0  0  0  0  0  0  0  0  0  0
  141.0670   76.7680  222.7730 C   0  0  0  0  0  0  0  0  0  0  0  0
  140.3310   73.9950  222.3290 N   0  0  0  0  0  0  0  0  0  0  0  0
  141.0140   71.5360  224.2970 C   0  0  0  0  0  0  0  0  0  0  0  0
  138.9441   69.0708  228.5166 H   0  0  0  0  0  0  0  0  0  0  0  0
  140.8268   70.6228  228.8261 H   0  0  0  0  0  0  0  0  0  0  0  0
  141.8211   71.7957  226.8704 H   0  0  0  0  0  0  0  0  0  0  0  0
  137.9802   68.6296  226.2586 H   0  0  0  0  0  0  0  0  0  0  0  0
  139.6369   69.2392  223.3242 H   0  0  0  0  0  0  0  0  0  0  0  0
  137.9594   69.2314  223.8885 H   0  0  0  0  0  0  0  0  0  0  0  0
  138.2744   71.1547  222.3479 H   0  0  0  0  0  0  0  0  0  0  0  0
  138.0570   71.8040  223.9904 H   0  0  0  0  0  0  0  0  0  0  0  0
  141.3820   73.0220  217.8620 H   0  0  0  0  0  0  0  0  0  0  0  0
  140.7789   70.4162  218.2345 H   0  0  0  0  0  0  0  0  0  0  0  0
  142.4471   70.8676  217.7302 H   0  0  0  0  0  0  0  0  0  0  0  0
  141.6498   70.8299  220.6291 H   0  0  0  0  0  0  0  0  0  0  0  0
  142.1324   69.3147  219.7312 H   0  0  0  0  0  0  0  0  0  0  0  0
  144.0656   70.0130  220.7669 H   0  0  0  0  0  0  0  0  0  0  0  0
  143.0892   72.7120  220.4086 H   0  0  0  0  0  0  0  0  0  0  0  0
  144.1223   71.9286  221.6820 H   0  0  0  0  0  0  0  0  0  0  0  0
  144.9125   73.2055  219.0763 H   0  0  0  0  0  0  0  0  0  0  0  0
  145.5684   73.4188  220.7717 H   0  0  0  0  0  0  0  0  0  0  0  0
  146.6990   71.4850  220.6310 H   0  0  0  0  0  0  0  0  0  0  0  0
  146.3907   70.8101  217.9341 H   0  0  0  0  0  0  0  0  0  0  0  0
  146.2515   69.7676  219.4217 H   0  0  0  0  0  0  0  0  0  0  0  0
  144.0723   71.3241  217.9982 H   0  0  0  0  0  0  0  0  0  0  0  0
  144.1886   69.5525  218.2957 H   0  0  0  0  0  0  0  0  0  0  0  0
  139.9949   76.5480  219.5574 H   0  0  0  0  0  0  0  0  0  0  0  0
  139.1697   77.5547  220.8442 H   0  0  0  0  0  0  0  0  0  0  0  0
  141.9469   77.9329  219.7016 H   0  0  0  0  0  0  0  0  0  0  0  0
  140.5449   79.0111  219.5201 H   0  0  0  0  0  0  0  0  0  0  0  0
  141.6355   80.8075  220.5282 H   0  0  0  0  0  0  0  0  0  0  0  0
  142.2099   82.0252  222.6019 H   0  0  0  0  0  0  0  0  0  0  0  0
  142.2440   80.7781  224.7528 H   0  0  0  0  0  0  0  0  0  0  0  0
  141.7152   78.3693  224.7920 H   0  0  0  0  0  0  0  0  0  0  0  0
  141.9775   76.2256  223.0677 H   0  0  0  0  0  0  0  0  0  0  0  0
  140.2679   76.6303  223.5163 H   0  0  0  0  0  0  0  0  0  0  0  0
  141.7988   70.8959  223.8676 H   0  0  0  0  0  0  0  0  0  0  0  0
  141.4124   72.5068  224.6270 H   0  0  0  0  0  0  0  0  0  0  0  0
  1  2  2  0
  2  3  1  0
  3  4  2  0
  4  5  1  0
  5  6  2  0
  5  7  1  0
  7  8  1  0
  8  9  1  0
  9 10  1  0
 10 11  2  0
 11 12  1  0
 12 13  1  0
 13 14  1  0
 14 15  1  0
 15 16  1  0
 16 17  1  0
 17 18  1  0
 18 19  1  0
 19 20  1  0
 20 21  1  0
 12 22  2  0
 22 23  1  0
 23 24  1  0
 24 25  1  0
 25 26  1  0
 26 27  1  0
 27 28  2  0
 28 29  1  0
 29 30  2  0
 30 31  1  0
 31 32  2  0
 32 33  1  0
 23 34  2  0
  9 35  1  0
  6  1  1  0
 34 10  1  0
 35  4  1  0
 21 16  1  0
 33 24  1  0
 32 27  1  0
  1 36  1  0
  2 37  1  0
  3 38  1  0
  6 39  1  0
  7 40  1  0
  7 41  1  0
  8 42  1  0
  8 43  1  0
 13 44  1  0
 14 45  1  0
 14 46  1  0
 15 47  1  0
 15 48  1  0
 16 49  1  0
 17 50  1  0
 17 51  1  0
 18 52  1  0
 18 53  1  0
 19 54  1  0
 20 55  1  0
 20 56  1  0
 21 57  1  0
 21 58  1  0
 25 59  1  0
 25 60  1  0
 26 61  1  0
 26 62  1  0
 28 63  1  0
 29 64  1  0
 30 65  1  0
 31 66  1  0
 33 67  1  0
 33 68  1  0
 35 69  1  0
 35 70  1  0
M  END
>  <smiles>  (34) 
c1ccc2c(c1)CCN(c1nc(NCCC3CCNCC3)nc(N3CCc4ccccc4C3)n1)C2

>  <score_type>  (34) 
oracle

>  <origin>  (34) 
autodockgpu

>  <m_score__min__energy>  (34) 
-10.140000000000001

>  <m_primary>  (34) 
energy

>  <rmsd>  (34) 
7.041877424408526

>  <m_score__min__rmsd>  (34) 
7.041877424408526

>  <meeko>  (34) 
{"free_energy": -9.75, "intermolecular_energy": -11.54, "internal_energy": -1.04, "cluster_size": 43, "cluster_id": 1, "rank_in_cluster": 12}

>  <energy>  (34) 
-9.01

>  <cluster_rmsd>  (34) 
1.04

>  <cluster>  (34) 
1

$$$$

     RDKit          3D

 70 75  0  0  0  0  0  0  0  0999 V2000
  139.5570   69.8470  227.8400 C   0  0  0  0  0  0  0  0  0  0  0  0
  140.4260   70.9100  227.9860 C   0  0  0  0  0  0  0  0  0  0  0  0
  140.8910   71.5830  226.8760 C   0  0  0  0  0  0  0  0  0  0  0  0
  140.4700   71.1740  225.6240 C   0  0  0  0  0  0  0  0  0  0  0  0
  139.5940   70.1030  225.5040 C   0  0  0  0  0  0  0  0  0  0  0  0
  139.1170   69.4150  226.5990 C   0  0  0  0  0  0  0  0  0  0  0  0
  139.1990   69.7400  224.1010 C   0  0  0  0  0  0  0  0  0  0  0  0
  138.7860   71.0480  223.4350 C   0  0  0  0  0  0  0  0  0  0  0  0
  139.9560   71.8690  223.3540 N   0  0  0  0  0  0  0  0  0  0  0  0
  140.1610   72.7000  222.2230 C   0  0  0  0  0  0  0  0  0  0  0  0
  140.2820   72.1700  221.0090 N   0  0  0  0  0  0  0  0  0  0  0  0
  140.4790   72.9430  219.9000 C   0  0  0  0  0  0  0  0  0  0  0  0
  140.6010   72.3440  218.6090 N   0  0  0  0  0  0  0  0  0  0  0  0
  141.3150   72.9580  217.5110 C   0  0  0  0  0  0  0  0  0  0  0  0
  142.4190   73.8140  218.0360 C   0  0  0  0  0  0  0  0  0  0  0  0
  143.4820   73.0350  218.7760 C   0  0  0  0  0  0  0  0  0  0  0  0
  144.0650   73.7430  219.9500 C   0  0  0  0  0  0  0  0  0  0  0  0
  145.5530   73.4900  220.0920 C   0  0  0  0  0  0  0  0  0  0  0  0
  145.9510   72.1570  219.7520 N   0  0  0  0  0  0  0  0  0  0  0  0
  145.5510   71.7110  218.4530 C   0  0  0  0  0  0  0  0  0  0  0  0
  144.5510   72.6440  217.7910 C   0  0  0  0  0  0  0  0  0  0  0  0
  140.5490   74.2710  220.0810 N   0  0  0  0  0  0  0  0  0  0  0  0
  140.4320   74.8500  221.2860 C   0  0  0  0  0  0  0  0  0  0  0  0
  140.5080   76.2720  221.4670 N   0  0  0  0  0  0  0  0  0  0  0  0
  140.1150   77.1790  220.4190 C   0  0  0  0  0  0  0  0  0  0  0  0
  141.1220   78.2560  220.1360 C   0  0  0  0  0  0  0  0  0  0  0  0
  141.4800   78.8700  221.4460 C   0  0  0  0  0  0  0  0  0  0  0  0
  141.8850   80.1910  221.4210 C   0  0  0  0  0  0  0  0  0  0  0  0
  142.2380   80.8590  222.5660 C   0  0  0  0  0  0  0  0  0  0  0  0
  142.1800   80.1820  223.7570 C   0  0  0  0  0  0  0  0  0  0  0  0
  141.7730   78.8570  223.7800 C   0  0  0  0  0  0  0  0  0  0  0  0
  141.4170   78.1770  222.6390 C   0  0  0  0  0  0  0  0  0  0  0  0
  140.9920   76.7650  222.7310 C   0  0  0  0  0  0  0  0  0  0  0  0
  140.2380   74.0400  222.3420 N   0  0  0  0  0  0  0  0  0  0  0  0
  140.9390   71.8620  224.4150 C   0  0  0  0  0  0  0  0  0  0  0  0
  139.2015   69.3247  228.7404 H   0  0  0  0  0  0  0  0  0  0  0  0
  140.7483   71.2209  228.9907 H   0  0  0  0  0  0  0  0  0  0  0  0
  141.5844   72.4300  226.9845 H   0  0  0  0  0  0  0  0  0  0  0  0
  138.4236   68.5676  226.4933 H   0  0  0  0  0  0  0  0  0  0  0  0
  140.0495   69.2903  223.5677 H   0  0  0  0  0  0  0  0  0  0  0  0
  138.3825   69.0031  224.0877 H   0  0  0  0  0  0  0  0  0  0  0  0
  138.3938   70.8501  222.4265 H   0  0  0  0  0  0  0  0  0  0  0  0
  137.9964   71.5491  224.0142 H   0  0  0  0  0  0  0  0  0  0  0  0
  140.1340   71.4050  218.4790 H   0  0  0  0  0  0  0  0  0  0  0  0
  141.7375   72.1729  216.8667 H   0  0  0  0  0  0  0  0  0  0  0  0
  140.6188   73.5816  216.9310 H   0  0  0  0  0  0  0  0  0  0  0  0
  142.8923   74.3314  217.1885 H   0  0  0  0  0  0  0  0  0  0  0  0
  141.9717   74.5166  218.7545 H   0  0  0  0  0  0  0  0  0  0  0  0
  142.9981   72.1469  219.2085 H   0  0  0  0  0  0  0  0  0  0  0  0
  143.8996   74.8238  219.8296 H   0  0  0  0  0  0  0  0  0  0  0  0
  143.5701   73.3599  220.8546 H   0  0  0  0  0  0  0  0  0  0  0  0
  146.0875   74.1897  219.4326 H   0  0  0  0  0  0  0  0  0  0  0  0
  145.8013   73.6359  221.1536 H   0  0  0  0  0  0  0  0  0  0  0  0
  145.6530   71.4970  220.4930 H   0  0  0  0  0  0  0  0  0  0  0  0
  146.4441   71.6432  217.8145 H   0  0  0  0  0  0  0  0  0  0  0  0
  145.0609   70.7338  218.5752 H   0  0  0  0  0  0  0  0  0  0  0  0
  145.0720   73.5474  217.4410 H   0  0  0  0  0  0  0  0  0  0  0  0
  144.0853   72.1281  216.9383 H   0  0  0  0  0  0  0  0  0  0  0  0
  139.9615   76.5979  219.4977 H   0  0  0  0  0  0  0  0  0  0  0  0
  139.1977   77.6816  220.7596 H   0  0  0  0  0  0  0  0  0  0  0  0
  142.0164   77.8229  219.6643 H   0  0  0  0  0  0  0  0  0  0  0  0
  140.7099   79.0090  219.4481 H   0  0  0  0  0  0  0  0  0  0  0  0
  141.9254   80.7207  220.4578 H   0  0  0  0  0  0  0  0  0  0  0  0
  142.5593   81.9104  222.5296 H   0  0  0  0  0  0  0  0  0  0  0  0
  142.4560   80.6896  224.6930 H   0  0  0  0  0  0  0  0  0  0  0  0
  141.7334   78.3309  224.7452 H   0  0  0  0  0  0  0  0  0  0  0  0
  141.8503   76.1540  223.0471 H   0  0  0  0  0  0  0  0  0  0  0  0
  140.1722   76.7000  223.4616 H   0  0  0  0  0  0  0  0  0  0  0  0
  141.8444   71.3543  224.0512 H   0  0  0  0  0  0  0  0  0  0  0  0
  141.1381   72.9090  224.6873 H   0  0  0  0  0  0  0  0  0  0  0  0
  1  2  2  0
  2  3  1  0
  3  4  2  0
  4  5  1  0
  5  6  2  0
  5  7  1  0
  7  8  1  0
  8  9  1  0
  9 10  1  0
 10 11  2  0
 11 12  1  0
 12 13  1  0
 13 14  1  0
 14 15  1  0
 15 16  1  0
 16 17  1  0
 17 18  1  0
 18 19  1  0
 19 20  1  0
 20 21  1  0
 12 22  2  0
 22 23  1  0
 23 24  1  0
 24 25  1  0
 25 26  1  0
 26 27  1  0
 27 28  2  0
 28 29  1  0
 29 30  2  0
 30 31  1  0
 31 32  2  0
 32 33  1  0
 23 34  2  0
  9 35  1  0
  6  1  1  0
 34 10  1  0
 35  4  1  0
 21 16  1  0
 33 24  1  0
 32 27  1  0
  1 36  1  0
  2 37  1  0
  3 38  1  0
  6 39  1  0
  7 40  1  0
  7 41  1  0
  8 42  1  0
  8 43  1  0
 13 44  1  0
 14 45  1  0
 14 46  1  0
 15 47  1  0
 15 48  1  0
 16 49  1  0
 17 50  1  0
 17 51  1  0
 18 52  1  0
 18 53  1  0
 19 54  1  0
 20 55  1  0
 20 56  1  0
 21 57  1  0
 21 58  1  0
 25 59  1  0
 25 60  1  0
 26 61  1  0
 26 62  1  0
 28 63  1  0
 29 64  1  0
 30 65  1  0
 31 66  1  0
 33 67  1  0
 33 68  1  0
 35 69  1  0
 35 70  1  0
M  END
>  <smiles>  (35) 
c1ccc2c(c1)CCN(c1nc(NCCC3CCNCC3)nc(N3CCc4ccccc4C3)n1)C2

>  <score_type>  (35) 
oracle

>  <origin>  (35) 
autodockgpu

>  <m_score__min__energy>  (35) 
-10.140000000000001

>  <m_primary>  (35) 
energy

>  <rmsd>  (35) 
5.817677442509945

>  <m_score__min__rmsd>  (35) 
5.817677442509945

>  <meeko>  (35) 
{"free_energy": -9.8, "intermolecular_energy": -11.59, "internal_energy": -1.29, "cluster_size": 43, "cluster_id": 1, "rank_in_cluster": 7}

>  <energy>  (35) 
-9.01

>  <cluster_rmsd>  (35) 
1.58

>  <cluster>  (35) 
1

$$$$

     RDKit          3D

 70 75  0  0  0  0  0  0  0  0999 V2000
  139.7480   69.1590  227.0370 C   0  0  0  0  0  0  0  0  0  0  0  0
  140.5050   70.2760  227.3290 C   0  0  0  0  0  0  0  0  0  0  0  0
  140.8150   71.1830  226.3380 C   0  0  0  0  0  0  0  0  0  0  0  0
  140.3550   70.9510  225.0550 C   0  0  0  0  0  0  0  0  0  0  0  0
  139.5950   69.8190  224.7870 C   0  0  0  0  0  0  0  0  0  0  0  0
  139.2730   68.9000  225.7610 C   0  0  0  0  0  0  0  0  0  0  0  0
  139.1450   69.6610  223.3620 C   0  0  0  0  0  0  0  0  0  0  0  0
  138.5470   71.0070  222.9640 C   0  0  0  0  0  0  0  0  0  0  0  0
  139.6120   71.9620  222.9750 N   0  0  0  0  0  0  0  0  0  0  0  0
  139.6460   72.9960  222.0050 C   0  0  0  0  0  0  0  0  0  0  0  0
  139.5850   72.7060  220.7080 N   0  0  0  0  0  0  0  0  0  0  0  0
  139.6140   73.6780  219.7490 C   0  0  0  0  0  0  0  0  0  0  0  0
  139.5410   73.3350  218.3640 N   0  0  0  0  0  0  0  0  0  0  0  0
  139.9710   74.2180  217.3020 C   0  0  0  0  0  0  0  0  0  0  0  0
  141.4500   74.1290  217.1310 C   0  0  0  0  0  0  0  0  0  0  0  0
  142.2000   75.2630  217.7920 C   0  0  0  0  0  0  0  0  0  0  0  0
  142.8590   74.9030  219.0790 C   0  0  0  0  0  0  0  0  0  0  0  0
  142.7810   76.0230  220.0970 C   0  0  0  0  0  0  0  0  0  0  0  0
  142.9130   77.3330  219.5320 N   0  0  0  0  0  0  0  0  0  0  0  0
  142.0020   77.6370  218.4720 C   0  0  0  0  0  0  0  0  0  0  0  0
  141.2490   76.4160  217.9720 C   0  0  0  0  0  0  0  0  0  0  0  0
  139.7110   74.9510  220.1650 N   0  0  0  0  0  0  0  0  0  0  0  0
  139.7760   75.2900  221.4620 C   0  0  0  0  0  0  0  0  0  0  0  0
  139.8790   76.6550  221.8950 N   0  0  0  0  0  0  0  0  0  0  0  0
  138.8870   77.6320  221.5250 C   0  0  0  0  0  0  0  0  0  0  0  0
  139.4630   78.9040  220.9730 C   0  0  0  0  0  0  0  0  0  0  0  0
  140.5130   79.3550  221.9290 C   0  0  0  0  0  0  0  0  0  0  0  0
  140.7570   80.7140  221.9870 C   0  0  0  0  0  0  0  0  0  0  0  0
  141.7010   81.2430  222.8300 C   0  0  0  0  0  0  0  0  0  0  0  0
  142.4120   80.3840  223.6290 C   0  0  0  0  0  0  0  0  0  0  0  0
  142.1660   79.0210  223.5700 C   0  0  0  0  0  0  0  0  0  0  0  0
  141.2220   78.4800  222.7290 C   0  0  0  0  0  0  0  0  0  0  0  0
  141.0070   77.0180  222.7130 C   0  0  0  0  0  0  0  0  0  0  0  0
  139.7420   74.2920  222.3630 N   0  0  0  0  0  0  0  0  0  0  0  0
  140.6610   71.8890  223.9680 C   0  0  0  0  0  0  0  0  0  0  0  0
  139.5138   68.4502  227.8449 H   0  0  0  0  0  0  0  0  0  0  0  0
  140.8621   70.4429  228.3559 H   0  0  0  0  0  0  0  0  0  0  0  0
  141.4175   72.0752  226.5640 H   0  0  0  0  0  0  0  0  0  0  0  0
  138.6704   68.0072  225.5379 H   0  0  0  0  0  0  0  0  0  0  0  0
  140.0001   69.4153  222.7151 H   0  0  0  0  0  0  0  0  0  0  0  0
  138.4142   68.8457  223.2559 H   0  0  0  0  0  0  0  0  0  0  0  0
  138.1092   70.9421  221.9570 H   0  0  0  0  0  0  0  0  0  0  0  0
  137.7500   71.3024  223.6622 H   0  0  0  0  0  0  0  0  0  0  0  0
  139.1480   72.3820  218.1340 H   0  0  0  0  0  0  0  0  0  0  0  0
  139.4777   73.9257  216.3633 H   0  0  0  0  0  0  0  0  0  0  0  0
  139.6993   75.2521  217.5604 H   0  0  0  0  0  0  0  0  0  0  0  0
  141.7952   73.1807  217.5687 H   0  0  0  0  0  0  0  0  0  0  0  0
  141.6564   74.1884  216.0522 H   0  0  0  0  0  0  0  0  0  0  0  0
  143.0332   75.5375  217.1284 H   0  0  0  0  0  0  0  0  0  0  0  0
  142.3633   74.0128  219.4935 H   0  0  0  0  0  0  0  0  0  0  0  0
  143.9218   74.7102  218.8710 H   0  0  0  0  0  0  0  0  0  0  0  0
  141.8073   75.9617  220.6051 H   0  0  0  0  0  0  0  0  0  0  0  0
  143.6272   75.8865  220.7864 H   0  0  0  0  0  0  0  0  0  0  0  0
  143.8970   77.5020  219.2530 H   0  0  0  0  0  0  0  0  0  0  0  0
  141.2721   78.3745  218.8371 H   0  0  0  0  0  0  0  0  0  0  0  0
  142.5928   78.0282  217.6306 H   0  0  0  0  0  0  0  0  0  0  0  0
  140.4759   76.1397  218.7041 H   0  0  0  0  0  0  0  0  0  0  0  0
  140.7800   76.6517  217.0053 H   0  0  0  0  0  0  0  0  0  0  0  0
  138.2317   77.1882  220.7610 H   0  0  0  0  0  0  0  0  0  0  0  0
  138.3436   77.8993  222.4433 H   0  0  0  0  0  0  0  0  0  0  0  0
  139.9065   78.7201  219.9833 H   0  0  0  0  0  0  0  0  0  0  0  0
  138.6829   79.6705  220.8550 H   0  0  0  0  0  0  0  0  0  0  0  0
  140.1787   81.3897  221.3397 H   0  0  0  0  0  0  0  0  0  0  0  0
  141.8830   82.3273  222.8644 H   0  0  0  0  0  0  0  0  0  0  0  0
  143.1765   80.7763  224.3158 H   0  0  0  0  0  0  0  0  0  0  0  0
  142.7464   78.3485  224.2188 H   0  0  0  0  0  0  0  0  0  0  0  0
  141.9084   76.5294  222.3145 H   0  0  0  0  0  0  0  0  0  0  0  0
  140.8037   76.6898  223.7430 H   0  0  0  0  0  0  0  0  0  0  0  0
  141.5890   71.5640  223.4749 H   0  0  0  0  0  0  0  0  0  0  0  0
  140.7630   72.8892  224.4143 H   0  0  0  0  0  0  0  0  0  0  0  0
  1  2  2  0
  2  3  1  0
  3  4  2  0
  4  5  1  0
  5  6  2  0
  5  7  1  0
  7  8  1  0
  8  9  1  0
  9 10  1  0
 10 11  2  0
 11 12  1  0
 12 13  1  0
 13 14  1  0
 14 15  1  0
 15 16  1  0
 16 17  1  0
 17 18  1  0
 18 19  1  0
 19 20  1  0
 20 21  1  0
 12 22  2  0
 22 23  1  0
 23 24  1  0
 24 25  1  0
 25 26  1  0
 26 27  1  0
 27 28  2  0
 28 29  1  0
 29 30  2  0
 30 31  1  0
 31 32  2  0
 32 33  1  0
 23 34  2  0
  9 35  1  0
  6  1  1  0
 34 10  1  0
 35  4  1  0
 21 16  1  0
 33 24  1  0
 32 27  1  0
  1 36  1  0
  2 37  1  0
  3 38  1  0
  6 39  1  0
  7 40  1  0
  7 41  1  0
  8 42  1  0
  8 43  1  0
 13 44  1  0
 14 45  1  0
 14 46  1  0
 15 47  1  0
 15 48  1  0
 16 49  1  0
 17 50  1  0
 17 51  1  0
 18 52  1  0
 18 53  1  0
 19 54  1  0
 20 55  1  0
 20 56  1  0
 21 57  1  0
 21 58  1  0
 25 59  1  0
 25 60  1  0
 26 61  1  0
 26 62  1  0
 28 63  1  0
 29 64  1  0
 30 65  1  0
 31 66  1  0
 33 67  1  0
 33 68  1  0
 35 69  1  0
 35 70  1  0
M  END
>  <smiles>  (36) 
c1ccc2c(c1)CCN(c1nc(NCCC3CCNCC3)nc(N3CCc4ccccc4C3)n1)C2

>  <score_type>  (36) 
oracle

>  <origin>  (36) 
autodockgpu

>  <m_score__min__energy>  (36) 
-10.140000000000001

>  <m_primary>  (36) 
energy

>  <rmsd>  (36) 
3.7376566489080556

>  <m_score__min__rmsd>  (36) 
3.7376566489080556

>  <meeko>  (36) 
{"free_energy": -8.59, "intermolecular_energy": -10.38, "internal_energy": -2.23, "cluster_size": 43, "cluster_id": 1, "rank_in_cluster": 43}

>  <energy>  (36) 
-9.0

>  <cluster_rmsd>  (36) 
1.54

>  <cluster>  (36) 
1

$$$$

     RDKit          3D

 70 75  0  0  0  0  0  0  0  0999 V2000
  140.3600   80.9300  223.0500 C   0  0  0  0  0  0  0  0  0  0  0  0
  141.6580   80.4580  223.0500 C   0  0  0  0  0  0  0  0  0  0  0  0
  141.9040   79.1060  222.9380 C   0  0  0  0  0  0  0  0  0  0  0  0
  140.8330   78.2400  222.8290 C   0  0  0  0  0  0  0  0  0  0  0  0
  139.5370   78.7400  222.8320 C   0  0  0  0  0  0  0  0  0  0  0  0
  139.2660   80.0870  222.9420 C   0  0  0  0  0  0  0  0  0  0  0  0
  138.4450   77.7160  222.7070 C   0  0  0  0  0  0  0  0  0  0  0  0
  138.8410   76.8270  221.5320 C   0  0  0  0  0  0  0  0  0  0  0  0
  140.0370   76.1380  221.9080 N   0  0  0  0  0  0  0  0  0  0  0  0
  140.2400   74.7960  221.4960 C   0  0  0  0  0  0  0  0  0  0  0  0
  140.5390   74.5180  220.2300 N   0  0  0  0  0  0  0  0  0  0  0  0
  140.7420   73.2370  219.8010 C   0  0  0  0  0  0  0  0  0  0  0  0
  141.0660   72.9700  218.4350 N   0  0  0  0  0  0  0  0  0  0  0  0
  141.6510   73.9540  217.5500 C   0  0  0  0  0  0  0  0  0  0  0  0
  142.7890   74.6390  218.2300 C   0  0  0  0  0  0  0  0  0  0  0  0
  143.6510   73.7030  219.0470 C   0  0  0  0  0  0  0  0  0  0  0  0
  144.2110   74.3040  220.2900 C   0  0  0  0  0  0  0  0  0  0  0  0
  145.6260   73.8350  220.5670 C   0  0  0  0  0  0  0  0  0  0  0  0
  145.8600   72.4630  220.2310 N   0  0  0  0  0  0  0  0  0  0  0  0
  145.5300   72.0960  218.8880 C   0  0  0  0  0  0  0  0  0  0  0  0
  144.7450   73.1730  218.1590 C   0  0  0  0  0  0  0  0  0  0  0  0
  140.6250   72.2570  220.7120 N   0  0  0  0  0  0  0  0  0  0  0  0
  140.3250   72.4910  221.9990 C   0  0  0  0  0  0  0  0  0  0  0  0
  140.2040   71.4350  222.9640 N   0  0  0  0  0  0  0  0  0  0  0  0
  139.5730   70.1850  222.6260 C   0  0  0  0  0  0  0  0  0  0  0  0
  138.5400   69.7370  223.6190 C   0  0  0  0  0  0  0  0  0  0  0  0
  139.1690   69.8190  224.9670 C   0  0  0  0  0  0  0  0  0  0  0  0
  138.6930   68.9490  225.9280 C   0  0  0  0  0  0  0  0  0  0  0  0
  139.1970   68.9350  227.2040 C   0  0  0  0  0  0  0  0  0  0  0  0
  140.2020   69.8160  227.5140 C   0  0  0  0  0  0  0  0  0  0  0  0
  140.6790   70.6890  226.5490 C   0  0  0  0  0  0  0  0  0  0  0  0
  140.1810   70.7110  225.2670 C   0  0  0  0  0  0  0  0  0  0  0  0
  140.7330   71.6650  224.2840 C   0  0  0  0  0  0  0  0  0  0  0  0
  140.1380   73.7710  222.3650 N   0  0  0  0  0  0  0  0  0  0  0  0
  141.0490   76.7930  222.7080 C   0  0  0  0  0  0  0  0  0  0  0  0
  140.1889   82.0130  223.1389 H   0  0  0  0  0  0  0  0  0  0  0  0
  142.4979   81.1627  223.1396 H   0  0  0  0  0  0  0  0  0  0  0  0
  142.9353   78.7234  222.9355 H   0  0  0  0  0  0  0  0  0  0  0  0
  138.2356   80.4722  222.9439 H   0  0  0  0  0  0  0  0  0  0  0  0
  138.3704   77.1211  223.6293 H   0  0  0  0  0  0  0  0  0  0  0  0
  137.4645   78.1876  222.5453 H   0  0  0  0  0  0  0  0  0  0  0  0
  138.0400   76.1036  221.3199 H   0  0  0  0  0  0  0  0  0  0  0  0
  139.0048   77.4278  220.6252 H   0  0  0  0  0  0  0  0  0  0  0  0
  140.8550   71.9970  218.0820 H   0  0  0  0  0  0  0  0  0  0  0  0
  142.0172   73.4545  216.6409 H   0  0  0  0  0  0  0  0  0  0  0  0
  140.8875   74.6998  217.2839 H   0  0  0  0  0  0  0  0  0  0  0  0
  143.4190   75.1133  217.4631 H   0  0  0  0  0  0  0  0  0  0  0  0
  142.3572   75.3736  218.9257 H   0  0  0  0  0  0  0  0  0  0  0  0
  143.0043   72.8890  219.4063 H   0  0  0  0  0  0  0  0  0  0  0  0
  144.2154   75.3988  220.1831 H   0  0  0  0  0  0  0  0  0  0  0  0
  143.5793   73.9861  221.1325 H   0  0  0  0  0  0  0  0  0  0  0  0
  146.3180   74.4577  219.9810 H   0  0  0  0  0  0  0  0  0  0  0  0
  145.7866   73.9295  221.6511 H   0  0  0  0  0  0  0  0  0  0  0  0
  145.3970   71.8430  220.9230 H   0  0  0  0  0  0  0  0  0  0  0  0
  146.4626   71.9067  218.3362 H   0  0  0  0  0  0  0  0  0  0  0  0
  144.8950   71.1991  218.9365 H   0  0  0  0  0  0  0  0  0  0  0  0
  145.4224   73.9953  217.8853 H   0  0  0  0  0  0  0  0  0  0  0  0
  144.2965   72.7414  217.2520 H   0  0  0  0  0  0  0  0  0  0  0  0
  139.0859   70.2967  221.6461 H   0  0  0  0  0  0  0  0  0  0  0  0
  140.3632   69.4198  222.6200 H   0  0  0  0  0  0  0  0  0  0  0  0
  137.6599   70.3952  223.5719 H   0  0  0  0  0  0  0  0  0  0  0  0
  138.2058   68.7115  223.4029 H   0  0  0  0  0  0  0  0  0  0  0  0
  137.8877   68.2480  225.6632 H   0  0  0  0  0  0  0  0  0  0  0  0
  138.8059   68.2362  227.9581 H   0  0  0  0  0  0  0  0  0  0  0  0
  140.6289   69.8295  228.5277 H   0  0  0  0  0  0  0  0  0  0  0  0
  141.4840   71.3888  226.8177 H   0  0  0  0  0  0  0  0  0  0  0  0
  140.4772   72.6879  224.5974 H   0  0  0  0  0  0  0  0  0  0  0  0
  141.8235   71.5258  224.2457 H   0  0  0  0  0  0  0  0  0  0  0  0
  141.0404   76.3513  223.7154 H   0  0  0  0  0  0  0  0  0  0  0  0
  142.0155   76.6443  222.2043 H   0  0  0  0  0  0  0  0  0  0  0  0
  1  2  2  0
  2  3  1  0
  3  4  2  0
  4  5  1  0
  5  6  2  0
  5  7  1  0
  7  8  1  0
  8  9  1  0
  9 10  1  0
 10 11  2  0
 11 12  1  0
 12 13  1  0
 13 14  1  0
 14 15  1  0
 15 16  1  0
 16 17  1  0
 17 18  1  0
 18 19  1  0
 19 20  1  0
 20 21  1  0
 12 22  2  0
 22 23  1  0
 23 24  1  0
 24 25  1  0
 25 26  1  0
 26 27  1  0
 27 28  2  0
 28 29  1  0
 29 30  2  0
 30 31  1  0
 31 32  2  0
 32 33  1  0
 23 34  2  0
  9 35  1  0
  6  1  1  0
 34 10  1  0
 35  4  1  0
 21 16  1  0
 33 24  1  0
 32 27  1  0
  1 36  1  0
  2 37  1  0
  3 38  1  0
  6 39  1  0
  7 40  1  0
  7 41  1  0
  8 42  1  0
  8 43  1  0
 13 44  1  0
 14 45  1  0
 14 46  1  0
 15 47  1  0
 15 48  1  0
 16 49  1  0
 17 50  1  0
 17 51  1  0
 18 52  1  0
 18 53  1  0
 19 54  1  0
 20 55  1  0
 20 56  1  0
 21 57  1  0
 21 58  1  0
 25 59  1  0
 25 60  1  0
 26 61  1  0
 26 62  1  0
 28 63  1  0
 29 64  1  0
 30 65  1  0
 31 66  1  0
 33 67  1  0
 33 68  1  0
 35 69  1  0
 35 70  1  0
M  END
>  <smiles>  (37) 
c1ccc2c(c1)CCN(c1nc(NCCC3CCNCC3)nc(N3CCc4ccccc4C3)n1)C2

>  <score_type>  (37) 
oracle

>  <origin>  (37) 
autodockgpu

>  <m_score__min__energy>  (37) 
-10.140000000000001

>  <m_primary>  (37) 
energy

>  <rmsd>  (37) 
5.470969819754569

>  <m_score__min__rmsd>  (37) 
5.470969819754569

>  <meeko>  (37) 
{"free_energy": -9.5, "intermolecular_energy": -11.29, "internal_energy": -1.3, "cluster_size": 43, "cluster_id": 1, "rank_in_cluster": 20}

>  <energy>  (37) 
-8.99

>  <cluster_rmsd>  (37) 
0.75

>  <cluster>  (37) 
1

$$$$

     RDKit          3D

 70 75  0  0  0  0  0  0  0  0999 V2000
  139.6000   69.8010  227.9210 C   0  0  0  0  0  0  0  0  0  0  0  0
  140.3990   70.9230  228.0210 C   0  0  0  0  0  0  0  0  0  0  0  0
  140.7810   71.6060  226.8860 C   0  0  0  0  0  0  0  0  0  0  0  0
  140.3500   71.1470  225.6560 C   0  0  0  0  0  0  0  0  0  0  0  0
  139.5470   70.0160  225.5810 C   0  0  0  0  0  0  0  0  0  0  0  0
  139.1530   69.3170  226.7020 C   0  0  0  0  0  0  0  0  0  0  0  0
  139.1340   69.6020  224.1980 C   0  0  0  0  0  0  0  0  0  0  0  0
  138.6120   70.8670  223.5240 C   0  0  0  0  0  0  0  0  0  0  0  0
  139.7190   71.7630  223.3920 N   0  0  0  0  0  0  0  0  0  0  0  0
  139.8310   72.5860  222.2430 C   0  0  0  0  0  0  0  0  0  0  0  0
  139.7840   72.0530  221.0250 N   0  0  0  0  0  0  0  0  0  0  0  0
  139.8880   72.8180  219.8980 C   0  0  0  0  0  0  0  0  0  0  0  0
  139.8290   72.2160  218.6030 N   0  0  0  0  0  0  0  0  0  0  0  0
  140.6140   72.6730  217.4770 C   0  0  0  0  0  0  0  0  0  0  0  0
  142.0590   72.3800  217.7110 C   0  0  0  0  0  0  0  0  0  0  0  0
  142.8670   73.6040  218.0780 C   0  0  0  0  0  0  0  0  0  0  0  0
  143.3820   73.6100  219.4760 C   0  0  0  0  0  0  0  0  0  0  0  0
  143.3400   74.9920  220.0970 C   0  0  0  0  0  0  0  0  0  0  0  0
  143.6510   76.0500  219.1830 N   0  0  0  0  0  0  0  0  0  0  0  0
  142.8620   76.0790  217.9890 C   0  0  0  0  0  0  0  0  0  0  0  0
  142.0290   74.8230  217.8010 C   0  0  0  0  0  0  0  0  0  0  0  0
  140.0430   74.1410  220.0640 N   0  0  0  0  0  0  0  0  0  0  0  0
  140.0960   74.7220  221.2730 C   0  0  0  0  0  0  0  0  0  0  0  0
  140.2610   76.1390  221.4380 N   0  0  0  0  0  0  0  0  0  0  0  0
  139.9820   77.0530  220.3610 C   0  0  0  0  0  0  0  0  0  0  0  0
  141.0740   78.0530  220.1130 C   0  0  0  0  0  0  0  0  0  0  0  0
  141.4100   78.6630  221.4310 C   0  0  0  0  0  0  0  0  0  0  0  0
  141.9060   79.9520  221.4090 C   0  0  0  0  0  0  0  0  0  0  0  0
  142.2500   80.6140  222.5610 C   0  0  0  0  0  0  0  0  0  0  0  0
  142.0870   79.9620  223.7560 C   0  0  0  0  0  0  0  0  0  0  0  0
  141.5890   78.6680  223.7770 C   0  0  0  0  0  0  0  0  0  0  0  0
  141.2430   77.9960  222.6280 C   0  0  0  0  0  0  0  0  0  0  0  0
  140.7160   76.6180  222.7180 C   0  0  0  0  0  0  0  0  0  0  0  0
  139.9870   73.9210  222.3470 N   0  0  0  0  0  0  0  0  0  0  0  0
  140.7330   71.8430  224.4210 C   0  0  0  0  0  0  0  0  0  0  0  0
  139.3083   69.2732  228.8410 H   0  0  0  0  0  0  0  0  0  0  0  0
  140.7317   71.2728  229.0094 H   0  0  0  0  0  0  0  0  0  0  0  0
  141.4175   72.5003  226.9583 H   0  0  0  0  0  0  0  0  0  0  0  0
  138.5172   68.4221  226.6324 H   0  0  0  0  0  0  0  0  0  0  0  0
  139.9960   69.2010  223.6447 H   0  0  0  0  0  0  0  0  0  0  0  0
  138.3693   68.8117  224.2234 H   0  0  0  0  0  0  0  0  0  0  0  0
  138.2031   70.6243  222.5321 H   0  0  0  0  0  0  0  0  0  0  0  0
  137.8084   71.3241  224.1201 H   0  0  0  0  0  0  0  0  0  0  0  0
  139.1680   71.4000  218.4920 H   0  0  0  0  0  0  0  0  0  0  0  0
  140.2800   72.1553  216.5657 H   0  0  0  0  0  0  0  0  0  0  0  0
  140.4796   73.7584  217.3592 H   0  0  0  0  0  0  0  0  0  0  0  0
  142.1388   71.6506  218.5305 H   0  0  0  0  0  0  0  0  0  0  0  0
  142.4688   71.9907  216.7673 H   0  0  0  0  0  0  0  0  0  0  0  0
  143.7740   73.5986  217.4557 H   0  0  0  0  0  0  0  0  0  0  0  0
  142.7661   72.9302  220.0831 H   0  0  0  0  0  0  0  0  0  0  0  0
  144.4322   73.2839  219.4498 H   0  0  0  0  0  0  0  0  0  0  0  0
  142.3280   75.1629  220.4929 H   0  0  0  0  0  0  0  0  0  0  0  0
  144.1103   75.0122  220.8820 H   0  0  0  0  0  0  0  0  0  0  0  0
  144.6660   76.0510  218.9720 H   0  0  0  0  0  0  0  0  0  0  0  0
  142.1855   76.9451  218.0362 H   0  0  0  0  0  0  0  0  0  0  0  0
  143.5545   76.1467  217.1370 H   0  0  0  0  0  0  0  0  0  0  0  0
  141.1760   74.8442  218.4952 H   0  0  0  0  0  0  0  0  0  0  0  0
  141.6647   74.7829  216.7638 H   0  0  0  0  0  0  0  0  0  0  0  0
  139.8320   76.4688  219.4411 H   0  0  0  0  0  0  0  0  0  0  0  0
  139.0868   77.6231  220.6501 H   0  0  0  0  0  0  0  0  0  0  0  0
  141.9578   77.5514  219.6920 H   0  0  0  0  0  0  0  0  0  0  0  0
  140.7493   78.8207  219.3952 H   0  0  0  0  0  0  0  0  0  0  0  0
  142.0286   80.4617  220.4420 H   0  0  0  0  0  0  0  0  0  0  0  0
  142.6457   81.6398  222.5265 H   0  0  0  0  0  0  0  0  0  0  0  0
  142.3512   80.4652  224.6978 H   0  0  0  0  0  0  0  0  0  0  0  0
  141.4665   78.1617  224.7458 H   0  0  0  0  0  0  0  0  0  0  0  0
  141.5130   75.9544  223.0846 H   0  0  0  0  0  0  0  0  0  0  0  0
  139.8593   76.6220  223.4079 H   0  0  0  0  0  0  0  0  0  0  0  0
  141.6595   71.3916  224.0366 H   0  0  0  0  0  0  0  0  0  0  0  0
  140.8680   72.9060  224.6695 H   0  0  0  0  0  0  0  0  0  0  0  0
  1  2  2  0
  2  3  1  0
  3  4  2  0
  4  5  1  0
  5  6  2  0
  5  7  1  0
  7  8  1  0
  8  9  1  0
  9 10  1  0
 10 11  2  0
 11 12  1  0
 12 13  1  0
 13 14  1  0
 14 15  1  0
 15 16  1  0
 16 17  1  0
 17 18  1  0
 18 19  1  0
 19 20  1  0
 20 21  1  0
 12 22  2  0
 22 23  1  0
 23 24  1  0
 24 25  1  0
 25 26  1  0
 26 27  1  0
 27 28  2  0
 28 29  1  0
 29 30  2  0
 30 31  1  0
 31 32  2  0
 32 33  1  0
 23 34  2  0
  9 35  1  0
  6  1  1  0
 34 10  1  0
 35  4  1  0
 21 16  1  0
 33 24  1  0
 32 27  1  0
  1 36  1  0
  2 37  1  0
  3 38  1  0
  6 39  1  0
  7 40  1  0
  7 41  1  0
  8 42  1  0
  8 43  1  0
 13 44  1  0
 14 45  1  0
 14 46  1  0
 15 47  1  0
 15 48  1  0
 16 49  1  0
 17 50  1  0
 17 51  1  0
 18 52  1  0
 18 53  1  0
 19 54  1  0
 20 55  1  0
 20 56  1  0
 21 57  1  0
 21 58  1  0
 25 59  1  0
 25 60  1  0
 26 61  1  0
 26 62  1  0
 28 63  1  0
 29 64  1  0
 30 65  1  0
 31 66  1  0
 33 67  1  0
 33 68  1  0
 35 69  1  0
 35 70  1  0
M  END
>  <smiles>  (38) 
c1ccc2c(c1)CCN(c1nc(NCCC3CCNCC3)nc(N3CCc4ccccc4C3)n1)C2

>  <score_type>  (38) 
oracle

>  <origin>  (38) 
autodockgpu

>  <m_score__min__energy>  (38) 
-10.140000000000001

>  <m_primary>  (38) 
energy

>  <rmsd>  (38) 
4.716987459437292

>  <m_score__min__rmsd>  (38) 
4.716987459437292

>  <meeko>  (38) 
{"free_energy": -8.96, "intermolecular_energy": -10.75, "internal_energy": -2.17, "cluster_size": 43, "cluster_id": 1, "rank_in_cluster": 40}

>  <energy>  (38) 
-8.98

>  <cluster_rmsd>  (38) 
1.51

>  <cluster>  (38) 
1

$$$$

     RDKit          3D

 70 75  0  0  0  0  0  0  0  0999 V2000
  139.7730   69.3530  228.2290 C   0  0  0  0  0  0  0  0  0  0  0  0
  140.6180   70.4420  228.3140 C   0  0  0  0  0  0  0  0  0  0  0  0
  141.0240   71.0950  227.1700 C   0  0  0  0  0  0  0  0  0  0  0  0
  140.5710   70.6400  225.9460 C   0  0  0  0  0  0  0  0  0  0  0  0
  139.7220   69.5430  225.8880 C   0  0  0  0  0  0  0  0  0  0  0  0
  139.3020   68.8740  227.0180 C   0  0  0  0  0  0  0  0  0  0  0  0
  139.2870   69.1290  224.5100 C   0  0  0  0  0  0  0  0  0  0  0  0
  138.8160   70.4060  223.8230 C   0  0  0  0  0  0  0  0  0  0  0  0
  139.9590   71.2540  223.6770 N   0  0  0  0  0  0  0  0  0  0  0  0
  140.1010   72.0580  222.5170 C   0  0  0  0  0  0  0  0  0  0  0  0
  140.4050   71.5040  221.3460 N   0  0  0  0  0  0  0  0  0  0  0  0
  140.5480   72.2500  220.2110 C   0  0  0  0  0  0  0  0  0  0  0  0
  140.8690   71.6250  218.9660 N   0  0  0  0  0  0  0  0  0  0  0  0
  141.8920   70.6120  218.8260 C   0  0  0  0  0  0  0  0  0  0  0  0
  142.9320   70.7880  219.8810 C   0  0  0  0  0  0  0  0  0  0  0  0
  143.8070   72.0010  219.6660 C   0  0  0  0  0  0  0  0  0  0  0  0
  145.2680   71.7120  219.6210 C   0  0  0  0  0  0  0  0  0  0  0  0
  146.0890   72.7930  220.2960 C   0  0  0  0  0  0  0  0  0  0  0  0
  145.5840   74.1180  220.0920 N   0  0  0  0  0  0  0  0  0  0  0  0
  144.2140   74.3140  220.4550 C   0  0  0  0  0  0  0  0  0  0  0  0
  143.4860   73.0100  220.7350 C   0  0  0  0  0  0  0  0  0  0  0  0
  140.3710   73.5760  220.3190 N   0  0  0  0  0  0  0  0  0  0  0  0
  140.0650   74.1780  221.4790 C   0  0  0  0  0  0  0  0  0  0  0  0
  139.8780   75.5980  221.5830 N   0  0  0  0  0  0  0  0  0  0  0  0
  140.9620   76.5130  221.3330 C   0  0  0  0  0  0  0  0  0  0  0  0
  141.1370   77.5540  222.4000 C   0  0  0  0  0  0  0  0  0  0  0  0
  139.7980   78.1620  222.6380 C   0  0  0  0  0  0  0  0  0  0  0  0
  139.7800   79.4690  223.0870 C   0  0  0  0  0  0  0  0  0  0  0  0
  138.6050   80.1300  223.3380 C   0  0  0  0  0  0  0  0  0  0  0  0
  137.4260   79.4600  223.1320 C   0  0  0  0  0  0  0  0  0  0  0  0
  137.4450   78.1490  222.6810 C   0  0  0  0  0  0  0  0  0  0  0  0
  138.6180   77.4770  222.4260 C   0  0  0  0  0  0  0  0  0  0  0  0
  138.5700   76.0800  221.9460 C   0  0  0  0  0  0  0  0  0  0  0  0
  139.9350   73.3950  222.5650 N   0  0  0  0  0  0  0  0  0  0  0  0
  140.9780   71.3050  224.7020 C   0  0  0  0  0  0  0  0  0  0  0  0
  139.4631   68.8482  229.1559 H   0  0  0  0  0  0  0  0  0  0  0  0
  140.9680   70.7892  229.2973 H   0  0  0  0  0  0  0  0  0  0  0  0
  141.6968   71.9631  227.2301 H   0  0  0  0  0  0  0  0  0  0  0  0
  138.6287   68.0060  226.9607 H   0  0  0  0  0  0  0  0  0  0  0  0
  140.1297   68.6859  223.9591 H   0  0  0  0  0  0  0  0  0  0  0  0
  138.4905   68.3713  224.5470 H   0  0  0  0  0  0  0  0  0  0  0  0
  138.3940   70.1689  222.8352 H   0  0  0  0  0  0  0  0  0  0  0  0
  138.0342   70.9030  224.4161 H   0  0  0  0  0  0  0  0  0  0  0  0
  140.3160   71.9410  218.1230 H   0  0  0  0  0  0  0  0  0  0  0  0
  141.4352   69.6165  218.9273 H   0  0  0  0  0  0  0  0  0  0  0  0
  142.3620   70.7078  217.8361 H   0  0  0  0  0  0  0  0  0  0  0  0
  142.4282   70.8897  220.8535 H   0  0  0  0  0  0  0  0  0  0  0  0
  143.5866   69.9049  219.8416 H   0  0  0  0  0  0  0  0  0  0  0  0
  143.5783   72.3976  218.6658 H   0  0  0  0  0  0  0  0  0  0  0  0
  145.4553   70.7553  220.1306 H   0  0  0  0  0  0  0  0  0  0  0  0
  145.5705   71.6700  218.5642 H   0  0  0  0  0  0  0  0  0  0  0  0
  146.1053   72.5912  221.3772 H   0  0  0  0  0  0  0  0  0  0  0  0
  147.0919   72.7606  219.8452 H   0  0  0  0  0  0  0  0  0  0  0  0
  145.7710   74.4240  219.1200 H   0  0  0  0  0  0  0  0  0  0  0  0
  144.1762   74.9387  221.3596 H   0  0  0  0  0  0  0  0  0  0  0  0
  143.7120   74.7971  219.6037 H   0  0  0  0  0  0  0  0  0  0  0  0
  143.8035   72.6183  221.7126 H   0  0  0  0  0  0  0  0  0  0  0  0
  142.4019   73.1962  220.7416 H   0  0  0  0  0  0  0  0  0  0  0  0
  141.8941   75.9337  221.2581 H   0  0  0  0  0  0  0  0  0  0  0  0
  140.7210   77.0471  220.4021 H   0  0  0  0  0  0  0  0  0  0  0  0
  141.5105   77.0888  223.3242 H   0  0  0  0  0  0  0  0  0  0  0  0
  141.8653   78.3173  222.0885 H   0  0  0  0  0  0  0  0  0  0  0  0
  140.7338   79.9931  223.2473 H   0  0  0  0  0  0  0  0  0  0  0  0
  138.6079   81.1704  223.6952 H   0  0  0  0  0  0  0  0  0  0  0  0
  136.4664   79.9622  223.3244 H   0  0  0  0  0  0  0  0  0  0  0  0
  136.4892   77.6283  222.5216 H   0  0  0  0  0  0  0  0  0  0  0  0
  138.1636   75.4421  222.7447 H   0  0  0  0  0  0  0  0  0  0  0  0
  137.9306   76.0457  221.0516 H   0  0  0  0  0  0  0  0  0  0  0  0
  141.8843   70.8118  224.3207 H   0  0  0  0  0  0  0  0  0  0  0  0
  141.1566   72.3646  224.9374 H   0  0  0  0  0  0  0  0  0  0  0  0
  1  2  2  0
  2  3  1  0
  3  4  2  0
  4  5  1  0
  5  6  2  0
  5  7  1  0
  7  8  1  0
  8  9  1  0
  9 10  1  0
 10 11  2  0
 11 12  1  0
 12 13  1  0
 13 14  1  0
 14 15  1  0
 15 16  1  0
 16 17  1  0
 17 18  1  0
 18 19  1  0
 19 20  1  0
 20 21  1  0
 12 22  2  0
 22 23  1  0
 23 24  1  0
 24 25  1  0
 25 26  1  0
 26 27  1  0
 27 28  2  0
 28 29  1  0
 29 30  2  0
 30 31  1  0
 31 32  2  0
 32 33  1  0
 23 34  2  0
  9 35  1  0
  6  1  1  0
 34 10  1  0
 35  4  1  0
 21 16  1  0
 33 24  1  0
 32 27  1  0
  1 36  1  0
  2 37  1  0
  3 38  1  0
  6 39  1  0
  7 40  1  0
  7 41  1  0
  8 42  1  0
  8 43  1  0
 13 44  1  0
 14 45  1  0
 14 46  1  0
 15 47  1  0
 15 48  1  0
 16 49  1  0
 17 50  1  0
 17 51  1  0
 18 52  1  0
 18 53  1  0
 19 54  1  0
 20 55  1  0
 20 56  1  0
 21 57  1  0
 21 58  1  0
 25 59  1  0
 25 60  1  0
 26 61  1  0
 26 62  1  0
 28 63  1  0
 29 64  1  0
 30 65  1  0
 31 66  1  0
 33 67  1  0
 33 68  1  0
 35 69  1  0
 35 70  1  0
M  END
>  <smiles>  (39) 
c1ccc2c(c1)CCN(c1nc(NCCC3CCNCC3)nc(N3CCc4ccccc4C3)n1)C2

>  <score_type>  (39) 
oracle

>  <origin>  (39) 
autodockgpu

>  <m_score__min__energy>  (39) 
-10.140000000000001

>  <m_primary>  (39) 
energy

>  <rmsd>  (39) 
6.668796169330317

>  <m_score__min__rmsd>  (39) 
6.668796169330317

>  <meeko>  (39) 
{"free_energy": -9.49, "intermolecular_energy": -11.28, "internal_energy": -1.42, "cluster_size": 43, "cluster_id": 1, "rank_in_cluster": 22}

>  <energy>  (39) 
-8.97

>  <cluster_rmsd>  (39) 
1.57

>  <cluster>  (39) 
1

$$$$

     RDKit          3D

 70 75  0  0  0  0  0  0  0  0999 V2000
  131.9000   73.2370  227.0940 C   0  0  0  0  0  0  0  0  0  0  0  0
  132.0300   74.5390  227.5340 C   0  0  0  0  0  0  0  0  0  0  0  0
  133.0460   75.3370  227.0510 C   0  0  0  0  0  0  0  0  0  0  0  0
  133.9240   74.8080  226.1240 C   0  0  0  0  0  0  0  0  0  0  0  0
  133.7720   73.4950  225.6970 C   0  0  0  0  0  0  0  0  0  0  0  0
  132.7640   72.6800  226.1660 C   0  0  0  0  0  0  0  0  0  0  0  0
  134.7780   73.0180  224.6890 C   0  0  0  0  0  0  0  0  0  0  0  0
  134.8270   74.0950  223.6100 C   0  0  0  0  0  0  0  0  0  0  0  0
  135.3540   75.2780  224.2170 N   0  0  0  0  0  0  0  0  0  0  0  0
  136.2140   76.1300  223.4790 C   0  0  0  0  0  0  0  0  0  0  0  0
  135.9900   77.4410  223.4360 N   0  0  0  0  0  0  0  0  0  0  0  0
  136.7990   78.2890  222.7340 C   0  0  0  0  0  0  0  0  0  0  0  0
  136.5360   79.6930  222.7120 N   0  0  0  0  0  0  0  0  0  0  0  0
  137.5570   80.6970  222.9130 C   0  0  0  0  0  0  0  0  0  0  0  0
  138.6590   80.1430  223.7530 C   0  0  0  0  0  0  0  0  0  0  0  0
  139.9530   79.9520  222.9950 C   0  0  0  0  0  0  0  0  0  0  0  0
  140.7630   78.7820  223.4370 C   0  0  0  0  0  0  0  0  0  0  0  0
  142.2510   79.0730  223.4170 C   0  0  0  0  0  0  0  0  0  0  0  0
  142.6670   79.8980  222.3230 N   0  0  0  0  0  0  0  0  0  0  0  0
  141.9730   81.1430  222.1960 C   0  0  0  0  0  0  0  0  0  0  0  0
  140.7460   81.2280  223.0880 C   0  0  0  0  0  0  0  0  0  0  0  0
  137.8390   77.7470  222.0800 N   0  0  0  0  0  0  0  0  0  0  0  0
  138.1030   76.4300  222.0950 C   0  0  0  0  0  0  0  0  0  0  0  0
  139.2180   75.8620  221.3920 N   0  0  0  0  0  0  0  0  0  0  0  0
  139.3420   74.4380  221.2160 C   0  0  0  0  0  0  0  0  0  0  0  0
  140.6920   73.8940  221.5830 C   0  0  0  0  0  0  0  0  0  0  0  0
  141.7040   74.7390  220.8870 C   0  0  0  0  0  0  0  0  0  0  0  0
  142.9060   74.1350  220.5740 C   0  0  0  0  0  0  0  0  0  0  0  0
  143.9100   74.8150  219.9330 C   0  0  0  0  0  0  0  0  0  0  0  0
  143.6960   76.1280  219.6020 C   0  0  0  0  0  0  0  0  0  0  0  0
  142.4890   76.7330  219.9170 C   0  0  0  0  0  0  0  0  0  0  0  0
  141.4760   76.0610  220.5590 C   0  0  0  0  0  0  0  0  0  0  0  0
  140.2120   76.7620  220.8660 C   0  0  0  0  0  0  0  0  0  0  0  0
  137.2730   75.6430  222.8030 N   0  0  0  0  0  0  0  0  0  0  0  0
  135.0200   75.6200  225.5820 C   0  0  0  0  0  0  0  0  0  0  0  0
  131.0817   72.6205  227.4944 H   0  0  0  0  0  0  0  0  0  0  0  0
  131.3209   74.9414  228.2724 H   0  0  0  0  0  0  0  0  0  0  0  0
  133.1555   76.3753  227.3972 H   0  0  0  0  0  0  0  0  0  0  0  0
  132.6518   71.6415  225.8212 H   0  0  0  0  0  0  0  0  0  0  0  0
  135.7657   72.9013  225.1590 H   0  0  0  0  0  0  0  0  0  0  0  0
  134.5004   72.0388  224.2717 H   0  0  0  0  0  0  0  0  0  0  0  0
  135.4788   73.7724  222.7848 H   0  0  0  0  0  0  0  0  0  0  0  0
  133.8241   74.2810  223.1981 H   0  0  0  0  0  0  0  0  0  0  0  0
  135.5350   79.9820  222.5380 H   0  0  0  0  0  0  0  0  0  0  0  0
  137.9620   81.0051  221.9378 H   0  0  0  0  0  0  0  0  0  0  0  0
  137.1146   81.5648  223.4241 H   0  0  0  0  0  0  0  0  0  0  0  0
  138.8428   80.8351  224.5880 H   0  0  0  0  0  0  0  0  0  0  0  0
  138.3358   79.1503  224.0996 H   0  0  0  0  0  0  0  0  0  0  0  0
  139.6926   79.7227  221.9511 H   0  0  0  0  0  0  0  0  0  0  0  0
  140.4684   78.5147  224.4625 H   0  0  0  0  0  0  0  0  0  0  0  0
  140.5718   77.9558  222.7364 H   0  0  0  0  0  0  0  0  0  0  0  0
  142.5168   79.5821  224.3552 H   0  0  0  0  0  0  0  0  0  0  0  0
  142.7634   78.1066  223.3006 H   0  0  0  0  0  0  0  0  0  0  0  0
  142.6460   79.3550  221.4400 H   0  0  0  0  0  0  0  0  0  0  0  0
  142.6609   81.9577  222.4663 H   0  0  0  0  0  0  0  0  0  0  0  0
  141.6307   81.2260  221.1539 H   0  0  0  0  0  0  0  0  0  0  0  0
  141.0629   81.3849  224.1296 H   0  0  0  0  0  0  0  0  0  0  0  0
  140.1176   82.0687  222.7588 H   0  0  0  0  0  0  0  0  0  0  0  0
  138.5871   73.9444  221.8456 H   0  0  0  0  0  0  0  0  0  0  0  0
  139.1971   74.2354  220.1446 H   0  0  0  0  0  0  0  0  0  0  0  0
  140.8384   73.9484  222.6719 H   0  0  0  0  0  0  0  0  0  0  0  0
  140.7862   72.8399  221.2830 H   0  0  0  0  0  0  0  0  0  0  0  0
  143.0623   73.0807  220.8460 H   0  0  0  0  0  0  0  0  0  0  0  0
  144.8619   74.3198  219.6909 H   0  0  0  0  0  0  0  0  0  0  0  0
  144.4812   76.7010  219.0870 H   0  0  0  0  0  0  0  0  0  0  0  0
  142.3366   77.7875  219.6437 H   0  0  0  0  0  0  0  0  0  0  0  0
  140.4114   77.5472  221.6101 H   0  0  0  0  0  0  0  0  0  0  0  0
  139.8237   77.1938  219.9318 H   0  0  0  0  0  0  0  0  0  0  0  0
  135.9111   75.4699  226.2092 H   0  0  0  0  0  0  0  0  0  0  0  0
  134.6869   76.6683  225.5869 H   0  0  0  0  0  0  0  0  0  0  0  0
  1  2  2  0
  2  3  1  0
  3  4  2  0
  4  5  1  0
  5  6  2  0
  5  7  1  0
  7  8  1  0
  8  9  1  0
  9 10  1  0
 10 11  2  0
 11 12  1  0
 12 13  1  0
 13 14  1  0
 14 15  1  0
 15 16  1  0
 16 17  1  0
 17 18  1  0
 18 19  1  0
 19 20  1  0
 20 21  1  0
 12 22  2  0
 22 23  1  0
 23 24  1  0
 24 25  1  0
 25 26  1  0
 26 27  1  0
 27 28  2  0
 28 29  1  0
 29 30  2  0
 30 31  1  0
 31 32  2  0
 32 33  1  0
 23 34  2  0
  9 35  1  0
  6  1  1  0
 34 10  1  0
 35  4  1  0
 21 16  1  0
 33 24  1  0
 32 27  1  0
  1 36  1  0
  2 37  1  0
  3 38  1  0
  6 39  1  0
  7 40  1  0
  7 41  1  0
  8 42  1  0
  8 43  1  0
 13 44  1  0
 14 45  1  0
 14 46  1  0
 15 47  1  0
 15 48  1  0
 16 49  1  0
 17 50  1  0
 17 51  1  0
 18 52  1  0
 18 53  1  0
 19 54  1  0
 20 55  1  0
 20 56  1  0
 21 57  1  0
 21 58  1  0
 25 59  1  0
 25 60  1  0
 26 61  1  0
 26 62  1  0
 28 63  1  0
 29 64  1  0
 30 65  1  0
 31 66  1  0
 33 67  1  0
 33 68  1  0
 35 69  1  0
 35 70  1  0
M  END
>  <smiles>  (40) 
c1ccc2c(c1)CCN(c1nc(NCCC3CCNCC3)nc(N3CCc4ccccc4C3)n1)C2

>  <score_type>  (40) 
oracle

>  <origin>  (40) 
autodockgpu

>  <m_score__min__energy>  (40) 
-10.140000000000001

>  <m_primary>  (40) 
energy

>  <rmsd>  (40) 
5.470507829533376

>  <m_score__min__rmsd>  (40) 
5.470507829533376

>  <meeko>  (40) 
{"free_energy": -8.3, "intermolecular_energy": -10.09, "internal_energy": -1.78, "cluster_size": 1, "cluster_id": 3, "rank_in_cluster": 1}

>  <energy>  (40) 
-8.96

>  <cluster_rmsd>  (40) 
1.26

>  <cluster>  (40) 
1

$$$$

     RDKit          3D

 70 75  0  0  0  0  0  0  0  0999 V2000
  140.9220   80.9910  223.1260 C   0  0  0  0  0  0  0  0  0  0  0  0
  142.1340   80.3300  223.1100 C   0  0  0  0  0  0  0  0  0  0  0  0
  142.1750   78.9590  222.9750 C   0  0  0  0  0  0  0  0  0  0  0  0
  140.9850   78.2650  222.8580 C   0  0  0  0  0  0  0  0  0  0  0  0
  139.7780   78.9540  222.8770 C   0  0  0  0  0  0  0  0  0  0  0  0
  139.7140   80.3240  223.0100 C   0  0  0  0  0  0  0  0  0  0  0  0
  138.5450   78.1070  222.7420 C   0  0  0  0  0  0  0  0  0  0  0  0
  138.7990   77.1890  221.5510 C   0  0  0  0  0  0  0  0  0  0  0  0
  139.8790   76.3220  221.9090 N   0  0  0  0  0  0  0  0  0  0  0  0
  139.8770   74.9720  221.4740 C   0  0  0  0  0  0  0  0  0  0  0  0
  139.8140   74.6810  220.1770 N   0  0  0  0  0  0  0  0  0  0  0  0
  139.8110   73.3920  219.7260 C   0  0  0  0  0  0  0  0  0  0  0  0
  139.7470   73.1120  218.3260 N   0  0  0  0  0  0  0  0  0  0  0  0
  140.5310   73.8200  217.3370 C   0  0  0  0  0  0  0  0  0  0  0  0
  141.9830   73.7140  217.6660 C   0  0  0  0  0  0  0  0  0  0  0  0
  142.6040   75.0310  218.0700 C   0  0  0  0  0  0  0  0  0  0  0  0
  142.8610   75.1730  219.5310 C   0  0  0  0  0  0  0  0  0  0  0  0
  142.5890   76.5790  220.0280 C   0  0  0  0  0  0  0  0  0  0  0  0
  142.9640   77.6050  219.1020 N   0  0  0  0  0  0  0  0  0  0  0  0
  142.3990   77.4840  217.7930 C   0  0  0  0  0  0  0  0  0  0  0  0
  141.7250   76.1430  217.5620 C   0  0  0  0  0  0  0  0  0  0  0  0
  139.8730   72.4170  220.6470 N   0  0  0  0  0  0  0  0  0  0  0  0
  139.9380   72.6630  221.9650 C   0  0  0  0  0  0  0  0  0  0  0  0
  140.0040   71.6120  222.9410 N   0  0  0  0  0  0  0  0  0  0  0  0
  139.4010   70.3280  222.6950 C   0  0  0  0  0  0  0  0  0  0  0  0
  138.5360   69.8360  223.8200 C   0  0  0  0  0  0  0  0  0  0  0  0
  139.3370   69.9650  225.0700 C   0  0  0  0  0  0  0  0  0  0  0  0
  139.0410   69.0810  226.0900 C   0  0  0  0  0  0  0  0  0  0  0  0
  139.7130   69.1070  227.2860 C   0  0  0  0  0  0  0  0  0  0  0  0
  140.7020   70.0420  227.4540 C   0  0  0  0  0  0  0  0  0  0  0  0
  140.9980   70.9280  226.4300 C   0  0  0  0  0  0  0  0  0  0  0  0
  140.3310   70.9110  225.2280 C   0  0  0  0  0  0  0  0  0  0  0  0
  140.6940   71.8830  224.1760 C   0  0  0  0  0  0  0  0  0  0  0  0
  139.9390   73.9510  222.3520 N   0  0  0  0  0  0  0  0  0  0  0  0
  140.9800   76.8040  222.7130 C   0  0  0  0  0  0  0  0  0  0  0  0
  140.9157   82.0856  223.2347 H   0  0  0  0  0  0  0  0  0  0  0  0
  143.0702   80.8996  223.2053 H   0  0  0  0  0  0  0  0  0  0  0  0
  143.1374   78.4264  222.9606 H   0  0  0  0  0  0  0  0  0  0  0  0
  138.7535   80.8599  223.0233 H   0  0  0  0  0  0  0  0  0  0  0  0
  138.3856   77.5145  223.6550 H   0  0  0  0  0  0  0  0  0  0  0  0
  137.6455   78.7226  222.5937 H   0  0  0  0  0  0  0  0  0  0  0  0
  137.8977   76.5978  221.3317 H   0  0  0  0  0  0  0  0  0  0  0  0
  139.0482   77.7736  220.6531 H   0  0  0  0  0  0  0  0  0  0  0  0
  139.0840   72.3460  218.0280 H   0  0  0  0  0  0  0  0  0  0  0  0
  140.3491   73.3806  216.3451 H   0  0  0  0  0  0  0  0  0  0  0  0
  140.2375   74.8801  217.3346 H   0  0  0  0  0  0  0  0  0  0  0  0
  142.1013   73.0031  218.4970 H   0  0  0  0  0  0  0  0  0  0  0  0
  142.4989   73.3775  216.7547 H   0  0  0  0  0  0  0  0  0  0  0  0
  143.6037   75.0769  217.6133 H   0  0  0  0  0  0  0  0  0  0  0  0
  142.2093   74.4732  220.0747 H   0  0  0  0  0  0  0  0  0  0  0  0
  143.9238   74.9523  219.7092 H   0  0  0  0  0  0  0  0  0  0  0  0
  141.5119   76.6723  220.2306 H   0  0  0  0  0  0  0  0  0  0  0  0
  143.2026   76.7230  220.9295 H   0  0  0  0  0  0  0  0  0  0  0  0
  143.9960   77.6940  219.0690 H   0  0  0  0  0  0  0  0  0  0  0  0
  141.6520   78.2801  217.6582 H   0  0  0  0  0  0  0  0  0  0  0  0
  143.2227   77.5686  217.0688 H   0  0  0  0  0  0  0  0  0  0  0  0
  140.7641   76.1212  218.0970 H   0  0  0  0  0  0  0  0  0  0  0  0
  141.5548   76.0052  216.4840 H   0  0  0  0  0  0  0  0  0  0  0  0
  138.7812   70.4043  221.7895 H   0  0  0  0  0  0  0  0  0  0  0  0
  140.2229   69.6053  222.5848 H   0  0  0  0  0  0  0  0  0  0  0  0
  137.6237   70.4465  223.8906 H   0  0  0  0  0  0  0  0  0  0  0  0
  138.2301   68.7925  223.6542 H   0  0  0  0  0  0  0  0  0  0  0  0
  138.2454   68.3366  225.9391 H   0  0  0  0  0  0  0  0  0  0  0  0
  139.4650   68.3968  228.0886 H   0  0  0  0  0  0  0  0  0  0  0  0
  141.2600   70.0888  228.4008 H   0  0  0  0  0  0  0  0  0  0  0  0
  141.7945   71.6708  226.5845 H   0  0  0  0  0  0  0  0  0  0  0  0
  140.4292   72.8944  224.5181 H   0  0  0  0  0  0  0  0  0  0  0  0
  141.7751   71.8007  223.9906 H   0  0  0  0  0  0  0  0  0  0  0  0
  140.9082   76.3523  223.7134 H   0  0  0  0  0  0  0  0  0  0  0  0
  141.9114   76.5199  222.2014 H   0  0  0  0  0  0  0  0  0  0  0  0
  1  2  2  0
  2  3  1  0
  3  4  2  0
  4  5  1  0
  5  6  2  0
  5  7  1  0
  7  8  1  0
  8  9  1  0
  9 10  1  0
 10 11  2  0
 11 12  1  0
 12 13  1  0
 13 14  1  0
 14 15  1  0
 15 16  1  0
 16 17  1  0
 17 18  1  0
 18 19  1  0
 19 20  1  0
 20 21  1  0
 12 22  2  0
 22 23  1  0
 23 24  1  0
 24 25  1  0
 25 26  1  0
 26 27  1  0
 27 28  2  0
 28 29  1  0
 29 30  2  0
 30 31  1  0
 31 32  2  0
 32 33  1  0
 23 34  2  0
  9 35  1  0
  6  1  1  0
 34 10  1  0
 35  4  1  0
 21 16  1  0
 33 24  1  0
 32 27  1  0
  1 36  1  0
  2 37  1  0
  3 38  1  0
  6 39  1  0
  7 40  1  0
  7 41  1  0
  8 42  1  0
  8 43  1  0
 13 44  1  0
 14 45  1  0
 14 46  1  0
 15 47  1  0
 15 48  1  0
 16 49  1  0
 17 50  1  0
 17 51  1  0
 18 52  1  0
 18 53  1  0
 19 54  1  0
 20 55  1  0
 20 56  1  0
 21 57  1  0
 21 58  1  0
 25 59  1  0
 25 60  1  0
 26 61  1  0
 26 62  1  0
 28 63  1  0
 29 64  1  0
 30 65  1  0
 31 66  1  0
 33 67  1  0
 33 68  1  0
 35 69  1  0
 35 70  1  0
M  END
>  <smiles>  (41) 
c1ccc2c(c1)CCN(c1nc(NCCC3CCNCC3)nc(N3CCc4ccccc4C3)n1)C2

>  <score_type>  (41) 
oracle

>  <origin>  (41) 
autodockgpu

>  <m_score__min__energy>  (41) 
-10.140000000000001

>  <m_primary>  (41) 
energy

>  <rmsd>  (41) 
3.7461796709280692

>  <m_score__min__rmsd>  (41) 
3.7461796709280692

>  <meeko>  (41) 
{"free_energy": -8.88, "intermolecular_energy": -10.67, "internal_energy": -1.95, "cluster_size": 43, "cluster_id": 1, "rank_in_cluster": 41}

>  <energy>  (41) 
-8.88

>  <cluster_rmsd>  (41) 
1.87

>  <cluster>  (41) 
1

$$$$

     RDKit          3D

 70 75  0  0  0  0  0  0  0  0999 V2000
  140.8130   81.0090  223.0980 C   0  0  0  0  0  0  0  0  0  0  0  0
  142.0540   80.4040  223.0630 C   0  0  0  0  0  0  0  0  0  0  0  0
  142.1550   79.0360  222.9290 C   0  0  0  0  0  0  0  0  0  0  0  0
  140.9960   78.2880  222.8320 C   0  0  0  0  0  0  0  0  0  0  0  0
  139.7600   78.9210  222.8690 C   0  0  0  0  0  0  0  0  0  0  0  0
  139.6350   80.2870  223.0020 C   0  0  0  0  0  0  0  0  0  0  0  0
  138.5650   78.0190  222.7550 C   0  0  0  0  0  0  0  0  0  0  0  0
  138.8420   77.1110  221.5600 C   0  0  0  0  0  0  0  0  0  0  0  0
  139.9660   76.2950  221.9020 N   0  0  0  0  0  0  0  0  0  0  0  0
  140.0190   74.9460  221.4680 C   0  0  0  0  0  0  0  0  0  0  0  0
  140.0620   74.6550  220.1700 N   0  0  0  0  0  0  0  0  0  0  0  0
  140.1140   73.3670  219.7200 C   0  0  0  0  0  0  0  0  0  0  0  0
  140.1630   73.0880  218.3200 N   0  0  0  0  0  0  0  0  0  0  0  0
  141.2440   72.3600  217.6920 C   0  0  0  0  0  0  0  0  0  0  0  0
  142.1280   71.7600  218.7330 C   0  0  0  0  0  0  0  0  0  0  0  0
  143.4230   72.5140  218.9290 C   0  0  0  0  0  0  0  0  0  0  0  0
  144.0390   73.0240  217.6720 C   0  0  0  0  0  0  0  0  0  0  0  0
  145.5520   72.9200  217.6910 C   0  0  0  0  0  0  0  0  0  0  0  0
  146.1370   73.1880  218.9700 N   0  0  0  0  0  0  0  0  0  0  0  0
  145.6280   72.4020  220.0520 C   0  0  0  0  0  0  0  0  0  0  0  0
  144.3770   71.6240  219.6800 C   0  0  0  0  0  0  0  0  0  0  0  0
  140.1190   72.3920  220.6430 N   0  0  0  0  0  0  0  0  0  0  0  0
  140.0770   72.6370  221.9630 C   0  0  0  0  0  0  0  0  0  0  0  0
  140.0840   71.5870  222.9410 N   0  0  0  0  0  0  0  0  0  0  0  0
  139.5070   70.2990  222.6550 C   0  0  0  0  0  0  0  0  0  0  0  0
  138.5710   69.8020  223.7180 C   0  0  0  0  0  0  0  0  0  0  0  0
  139.2840   69.9350  225.0200 C   0  0  0  0  0  0  0  0  0  0  0  0
  138.9250   69.0480  226.0170 C   0  0  0  0  0  0  0  0  0  0  0  0
  139.5140   69.0780  227.2560 C   0  0  0  0  0  0  0  0  0  0  0  0
  140.4840   70.0190  227.4910 C   0  0  0  0  0  0  0  0  0  0  0  0
  140.8430   70.9070  226.4890 C   0  0  0  0  0  0  0  0  0  0  0  0
  140.2590   70.8870  225.2450 C   0  0  0  0  0  0  0  0  0  0  0  0
  140.6860   71.8610  224.2190 C   0  0  0  0  0  0  0  0  0  0  0  0
  140.0280   73.9250  222.3490 N   0  0  0  0  0  0  0  0  0  0  0  0
  141.0570   76.8290  222.6880 C   0  0  0  0  0  0  0  0  0  0  0  0
  140.7583   82.1023  223.2059 H   0  0  0  0  0  0  0  0  0  0  0  0
  142.9647   81.0159  223.1423 H   0  0  0  0  0  0  0  0  0  0  0  0
  143.1403   78.5478  222.8997 H   0  0  0  0  0  0  0  0  0  0  0  0
  138.6511   80.7782  223.0304 H   0  0  0  0  0  0  0  0  0  0  0  0
  138.4474   77.4214  223.6710 H   0  0  0  0  0  0  0  0  0  0  0  0
  137.6361   78.5926  222.6209 H   0  0  0  0  0  0  0  0  0  0  0  0
  137.9653   76.4788  221.3555 H   0  0  0  0  0  0  0  0  0  0  0  0
  139.0499   77.7047  220.6576 H   0  0  0  0  0  0  0  0  0  0  0  0
  139.3560   73.4450  217.7390 H   0  0  0  0  0  0  0  0  0  0  0  0
  140.8270   71.5597  217.0630 H   0  0  0  0  0  0  0  0  0  0  0  0
  141.8337   73.0523  217.0731 H   0  0  0  0  0  0  0  0  0  0  0  0
  141.5832   71.7487  219.6886 H   0  0  0  0  0  0  0  0  0  0  0  0
  142.3905   70.7478  218.3916 H   0  0  0  0  0  0  0  0  0  0  0  0
  143.1919   73.4221  219.5052 H   0  0  0  0  0  0  0  0  0  0  0  0
  143.6543   72.4364  216.8254 H   0  0  0  0  0  0  0  0  0  0  0  0
  143.7753   74.0875  217.5745 H   0  0  0  0  0  0  0  0  0  0  0  0
  145.8327   71.9002  217.3889 H   0  0  0  0  0  0  0  0  0  0  0  0
  145.9329   73.6859  216.9994 H   0  0  0  0  0  0  0  0  0  0  0  0
  146.0900   74.2030  219.1780 H   0  0  0  0  0  0  0  0  0  0  0  0
  146.4052   71.6887  220.3637 H   0  0  0  0  0  0  0  0  0  0  0  0
  145.3577   73.0934  220.8638 H   0  0  0  0  0  0  0  0  0  0  0  0
  144.6545   70.7694  219.0454 H   0  0  0  0  0  0  0  0  0  0  0  0
  143.8890   71.2636  220.5976 H   0  0  0  0  0  0  0  0  0  0  0  0
  138.9499   70.3714  221.7093 H   0  0  0  0  0  0  0  0  0  0  0  0
  140.3389   69.5814  222.6013 H   0  0  0  0  0  0  0  0  0  0  0  0
  137.6525   70.4072  223.7263 H   0  0  0  0  0  0  0  0  0  0  0  0
  138.2835   68.7567  223.5318 H   0  0  0  0  0  0  0  0  0  0  0  0
  138.1467   68.2982  225.8120 H   0  0  0  0  0  0  0  0  0  0  0  0
  139.2162   68.3663  228.0400 H   0  0  0  0  0  0  0  0  0  0  0  0
  140.9763   70.0689  228.4734 H   0  0  0  0  0  0  0  0  0  0  0  0
  141.6230   71.6542  226.6969 H   0  0  0  0  0  0  0  0  0  0  0  0
  140.3925   72.8707  224.5421 H   0  0  0  0  0  0  0  0  0  0  0  0
  141.7776   71.7844  224.1070 H   0  0  0  0  0  0  0  0  0  0  0  0
  141.0228   76.3757  223.6897 H   0  0  0  0  0  0  0  0  0  0  0  0
  141.9922   76.5880  222.1615 H   0  0  0  0  0  0  0  0  0  0  0  0
  1  2  2  0
  2  3  1  0
  3  4  2  0
  4  5  1  0
  5  6  2  0
  5  7  1  0
  7  8  1  0
  8  9  1  0
  9 10  1  0
 10 11  2  0
 11 12  1  0
 12 13  1  0
 13 14  1  0
 14 15  1  0
 15 16  1  0
 16 17  1  0
 17 18  1  0
 18 19  1  0
 19 20  1  0
 20 21  1  0
 12 22  2  0
 22 23  1  0
 23 24  1  0
 24 25  1  0
 25 26  1  0
 26 27  1  0
 27 28  2  0
 28 29  1  0
 29 30  2  0
 30 31  1  0
 31 32  2  0
 32 33  1  0
 23 34  2  0
  9 35  1  0
  6  1  1  0
 34 10  1  0
 35  4  1  0
 21 16  1  0
 33 24  1  0
 32 27  1  0
  1 36  1  0
  2 37  1  0
  3 38  1  0
  6 39  1  0
  7 40  1  0
  7 41  1  0
  8 42  1  0
  8 43  1  0
 13 44  1  0
 14 45  1  0
 14 46  1  0
 15 47  1  0
 15 48  1  0
 16 49  1  0
 17 50  1  0
 17 51  1  0
 18 52  1  0
 18 53  1  0
 19 54  1  0
 20 55  1  0
 20 56  1  0
 21 57  1  0
 21 58  1  0
 25 59  1  0
 25 60  1  0
 26 61  1  0
 26 62  1  0
 28 63  1  0
 29 64  1  0
 30 65  1  0
 31 66  1  0
 33 67  1  0
 33 68  1  0
 35 69  1  0
 35 70  1  0
M  END
>  <smiles>  (42) 
c1ccc2c(c1)CCN(c1nc(NCCC3CCNCC3)nc(N3CCc4ccccc4C3)n1)C2

>  <score_type>  (42) 
oracle

>  <origin>  (42) 
autodockgpu

>  <m_score__min__energy>  (42) 
-10.140000000000001

>  <m_primary>  (42) 
energy

>  <rmsd>  (42) 
6.5988373792931165

>  <m_score__min__rmsd>  (42) 
6.5988373792931165

>  <meeko>  (42) 
{"free_energy": -9.68, "intermolecular_energy": -11.47, "internal_energy": -1.13, "cluster_size": 43, "cluster_id": 1, "rank_in_cluster": 17}

>  <energy>  (42) 
-8.83

>  <cluster_rmsd>  (42) 
1.39

>  <cluster>  (42) 
1

$$$$

     RDKit          3D

 70 75  0  0  0  0  0  0  0  0999 V2000
  142.1040   80.0630  222.1950 C   0  0  0  0  0  0  0  0  0  0  0  0
  141.8110   79.4940  223.4190 C   0  0  0  0  0  0  0  0  0  0  0  0
  141.2990   78.2160  223.4850 C   0  0  0  0  0  0  0  0  0  0  0  0
  141.0870   77.5210  222.3090 C   0  0  0  0  0  0  0  0  0  0  0  0
  141.3900   78.1160  221.0910 C   0  0  0  0  0  0  0  0  0  0  0  0
  141.9030   79.3920  221.0000 C   0  0  0  0  0  0  0  0  0  0  0  0
  141.1230   77.2760  219.8740 C   0  0  0  0  0  0  0  0  0  0  0  0
  141.7580   75.9190  220.1580 C   0  0  0  0  0  0  0  0  0  0  0  0
  141.0380   75.3360  221.2490 N   0  0  0  0  0  0  0  0  0  0  0  0
  140.8030   73.9380  221.2760 C   0  0  0  0  0  0  0  0  0  0  0  0
  140.7550   73.2400  220.1440 N   0  0  0  0  0  0  0  0  0  0  0  0
  140.5310   71.8930  220.1360 C   0  0  0  0  0  0  0  0  0  0  0  0
  140.4890   71.1700  218.9040 N   0  0  0  0  0  0  0  0  0  0  0  0
  141.6480   70.5340  218.3150 C   0  0  0  0  0  0  0  0  0  0  0  0
  142.7510   70.4570  219.3160 C   0  0  0  0  0  0  0  0  0  0  0  0
  143.7050   71.6270  219.2490 C   0  0  0  0  0  0  0  0  0  0  0  0
  143.7960   72.2770  217.9110 C   0  0  0  0  0  0  0  0  0  0  0  0
  145.2090   72.7160  217.5810 C   0  0  0  0  0  0  0  0  0  0  0  0
  145.9390   73.2190  218.7050 N   0  0  0  0  0  0  0  0  0  0  0  0
  146.0030   72.3440  219.8350 C   0  0  0  0  0  0  0  0  0  0  0  0
  145.0570   71.1610  219.7200 C   0  0  0  0  0  0  0  0  0  0  0  0
  140.3590   71.2900  221.3230 N   0  0  0  0  0  0  0  0  0  0  0  0
  140.3990   71.9530  222.4900 C   0  0  0  0  0  0  0  0  0  0  0  0
  140.2130   71.2980  223.7530 N   0  0  0  0  0  0  0  0  0  0  0  0
  140.6820   71.8930  224.9780 C   0  0  0  0  0  0  0  0  0  0  0  0
  141.4790   70.9600  225.8430 C   0  0  0  0  0  0  0  0  0  0  0  0
  140.6830   69.7070  225.9760 C   0  0  0  0  0  0  0  0  0  0  0  0
  140.8730   68.9710  227.1300 C   0  0  0  0  0  0  0  0  0  0  0  0
  140.1950   67.8010  227.3610 C   0  0  0  0  0  0  0  0  0  0  0  0
  139.3060   67.3680  226.4100 C   0  0  0  0  0  0  0  0  0  0  0  0
  139.1160   68.1080  225.2530 C   0  0  0  0  0  0  0  0  0  0  0  0
  139.7910   69.2810  225.0120 C   0  0  0  0  0  0  0  0  0  0  0  0
  139.5420   70.0240  223.7590 C   0  0  0  0  0  0  0  0  0  0  0  0
  140.6240   73.2790  222.4380 N   0  0  0  0  0  0  0  0  0  0  0  0
  140.5440   76.1580  222.3320 C   0  0  0  0  0  0  0  0  0  0  0  0
  142.5111   81.0845  222.1683 H   0  0  0  0  0  0  0  0  0  0  0  0
  141.9868   80.0626  224.3441 H   0  0  0  0  0  0  0  0  0  0  0  0
  141.0632   77.7571  224.4565 H   0  0  0  0  0  0  0  0  0  0  0  0
  142.1402   79.8530  220.0299 H   0  0  0  0  0  0  0  0  0  0  0  0
  140.0402   77.1663  219.7144 H   0  0  0  0  0  0  0  0  0  0  0  0
  141.5396   77.7356  218.9656 H   0  0  0  0  0  0  0  0  0  0  0  0
  141.6835   75.2745  219.2697 H   0  0  0  0  0  0  0  0  0  0  0  0
  142.8234   76.0305  220.4079 H   0  0  0  0  0  0  0  0  0  0  0  0
  139.5520   71.1170  218.4200 H   0  0  0  0  0  0  0  0  0  0  0  0
  141.3800   69.5181  217.9893 H   0  0  0  0  0  0  0  0  0  0  0  0
  141.9848   71.1258  217.4511 H   0  0  0  0  0  0  0  0  0  0  0  0
  142.3073   70.4261  220.3221 H   0  0  0  0  0  0  0  0  0  0  0  0
  143.3321   69.5508  219.0898 H   0  0  0  0  0  0  0  0  0  0  0  0
  143.3067   72.4141  219.9061 H   0  0  0  0  0  0  0  0  0  0  0  0
  143.4599   71.5614  217.1462 H   0  0  0  0  0  0  0  0  0  0  0  0
  143.1596   73.1741  217.9281 H   0  0  0  0  0  0  0  0  0  0  0  0
  145.7536   71.8516  217.1733 H   0  0  0  0  0  0  0  0  0  0  0  0
  145.1257   73.5422  216.8595 H   0  0  0  0  0  0  0  0  0  0  0  0
  145.5870   74.1590  218.9660 H   0  0  0  0  0  0  0  0  0  0  0  0
  147.0311   71.9638  219.9269 H   0  0  0  0  0  0  0  0  0  0  0  0
  145.7008   72.9239  220.7195 H   0  0  0  0  0  0  0  0  0  0  0  0
  145.4646   70.4374  218.9987 H   0  0  0  0  0  0  0  0  0  0  0  0
  144.9517   70.6855  220.7063 H   0  0  0  0  0  0  0  0  0  0  0  0
  141.3158   72.7552  224.7234 H   0  0  0  0  0  0  0  0  0  0  0  0
  139.7903   72.1791  225.5551 H   0  0  0  0  0  0  0  0  0  0  0  0
  142.4493   70.7436  225.3722 H   0  0  0  0  0  0  0  0  0  0  0  0
  141.6759   71.4079  226.8282 H   0  0  0  0  0  0  0  0  0  0  0  0
  141.5874   69.3332  227.8840 H   0  0  0  0  0  0  0  0  0  0  0  0
  140.3597   67.2255  228.2839 H   0  0  0  0  0  0  0  0  0  0  0  0
  138.7446   66.4349  226.5653 H   0  0  0  0  0  0  0  0  0  0  0  0
  138.4000   67.7437  224.5016 H   0  0  0  0  0  0  0  0  0  0  0  0
  139.9062   69.4253  222.9111 H   0  0  0  0  0  0  0  0  0  0  0  0
  138.4602   70.2058  223.6773 H   0  0  0  0  0  0  0  0  0  0  0  0
  139.4481   76.2156  222.2570 H   0  0  0  0  0  0  0  0  0  0  0  0
  140.8663   75.6906  223.2742 H   0  0  0  0  0  0  0  0  0  0  0  0
  1  2  2  0
  2  3  1  0
  3  4  2  0
  4  5  1  0
  5  6  2  0
  5  7  1  0
  7  8  1  0
  8  9  1  0
  9 10  1  0
 10 11  2  0
 11 12  1  0
 12 13  1  0
 13 14  1  0
 14 15  1  0
 15 16  1  0
 16 17  1  0
 17 18  1  0
 18 19  1  0
 19 20  1  0
 20 21  1  0
 12 22  2  0
 22 23  1  0
 23 24  1  0
 24 25  1  0
 25 26  1  0
 26 27  1  0
 27 28  2  0
 28 29  1  0
 29 30  2  0
 30 31  1  0
 31 32  2  0
 32 33  1  0
 23 34  2  0
  9 35  1  0
  6  1  1  0
 34 10  1  0
 35  4  1  0
 21 16  1  0
 33 24  1  0
 32 27  1  0
  1 36  1  0
  2 37  1  0
  3 38  1  0
  6 39  1  0
  7 40  1  0
  7 41  1  0
  8 42  1  0
  8 43  1  0
 13 44  1  0
 14 45  1  0
 14 46  1  0
 15 47  1  0
 15 48  1  0
 16 49  1  0
 17 50  1  0
 17 51  1  0
 18 52  1  0
 18 53  1  0
 19 54  1  0
 20 55  1  0
 20 56  1  0
 21 57  1  0
 21 58  1  0
 25 59  1  0
 25 60  1  0
 26 61  1  0
 26 62  1  0
 28 63  1  0
 29 64  1  0
 30 65  1  0
 31 66  1  0
 33 67  1  0
 33 68  1  0
 35 69  1  0
 35 70  1  0
M  END
>  <smiles>  (43) 
c1ccc2c(c1)CCN(c1nc(NCCC3CCNCC3)nc(N3CCc4ccccc4C3)n1)C2

>  <score_type>  (43) 
oracle

>  <origin>  (43) 
autodockgpu

>  <m_score__min__energy>  (43) 
-10.140000000000001

>  <m_primary>  (43) 
energy

>  <rmsd>  (43) 
7.224413581099035

>  <m_score__min__rmsd>  (43) 
7.224413581099035

>  <meeko>  (43) 
{"free_energy": -9.61, "intermolecular_energy": -11.4, "internal_energy": -1.39, "cluster_size": 43, "cluster_id": 1, "rank_in_cluster": 18}

>  <energy>  (43) 
-8.59

>  <cluster_rmsd>  (43) 
1.9

>  <cluster>  (43) 
1

$$$$

     RDKit          3D

 70 75  0  0  0  0  0  0  0  0999 V2000
  140.5530   81.2550  223.4410 C   0  0  0  0  0  0  0  0  0  0  0  0
  141.8320   80.7450  223.3320 C   0  0  0  0  0  0  0  0  0  0  0  0
  142.0250   79.3960  223.1240 C   0  0  0  0  0  0  0  0  0  0  0  0
  140.9190   78.5710  223.0290 C   0  0  0  0  0  0  0  0  0  0  0  0
  139.6440   79.1090  223.1420 C   0  0  0  0  0  0  0  0  0  0  0  0
  139.4270   80.4550  223.3490 C   0  0  0  0  0  0  0  0  0  0  0  0
  138.5120   78.1290  223.0240 C   0  0  0  0  0  0  0  0  0  0  0  0
  138.8060   77.3030  221.7750 C   0  0  0  0  0  0  0  0  0  0  0  0
  139.9980   76.5560  222.0350 N   0  0  0  0  0  0  0  0  0  0  0  0
  140.1300   75.2360  221.5310 C   0  0  0  0  0  0  0  0  0  0  0  0
  140.3630   75.0290  220.2370 N   0  0  0  0  0  0  0  0  0  0  0  0
  140.4960   73.7720  219.7210 C   0  0  0  0  0  0  0  0  0  0  0  0
  140.7500   73.5810  218.3280 N   0  0  0  0  0  0  0  0  0  0  0  0
  141.9330   74.0790  217.6600 C   0  0  0  0  0  0  0  0  0  0  0  0
  142.8760   74.6610  218.6590 C   0  0  0  0  0  0  0  0  0  0  0  0
  143.7890   73.6360  219.2920 C   0  0  0  0  0  0  0  0  0  0  0  0
  144.6180   74.1550  220.4160 C   0  0  0  0  0  0  0  0  0  0  0  0
  146.0130   73.5620  220.4210 C   0  0  0  0  0  0  0  0  0  0  0  0
  146.0600   72.1840  220.0330 N   0  0  0  0  0  0  0  0  0  0  0  0
  145.4580   71.8820  218.7710 C   0  0  0  0  0  0  0  0  0  0  0  0
  144.6490   73.0390  218.2110 C   0  0  0  0  0  0  0  0  0  0  0  0
  140.3800   72.7400  220.5730 N   0  0  0  0  0  0  0  0  0  0  0  0
  140.1460   72.9020  221.8850 C   0  0  0  0  0  0  0  0  0  0  0  0
  140.0240   71.7920  222.7870 N   0  0  0  0  0  0  0  0  0  0  0  0
  139.2250   70.6420  222.4500 C   0  0  0  0  0  0  0  0  0  0  0  0
  138.2730   70.2240  223.5340 C   0  0  0  0  0  0  0  0  0  0  0  0
  139.0630   70.1370  224.7950 C   0  0  0  0  0  0  0  0  0  0  0  0
  138.6110   69.2470  225.7500 C   0  0  0  0  0  0  0  0  0  0  0  0
  139.2590   69.0830  226.9480 C   0  0  0  0  0  0  0  0  0  0  0  0
  140.3840   69.8310  227.1850 C   0  0  0  0  0  0  0  0  0  0  0  0
  140.8360   70.7240  226.2260 C   0  0  0  0  0  0  0  0  0  0  0  0
  140.1950   70.8960  225.0220 C   0  0  0  0  0  0  0  0  0  0  0  0
  140.7280   71.8630  224.0410 C   0  0  0  0  0  0  0  0  0  0  0  0
  140.0250   74.1630  222.3380 N   0  0  0  0  0  0  0  0  0  0  0  0
  141.0780   77.1280  222.8090 C   0  0  0  0  0  0  0  0  0  0  0  0
  140.4246   82.3348  223.6067 H   0  0  0  0  0  0  0  0  0  0  0  0
  142.6991   81.4172  223.4114 H   0  0  0  0  0  0  0  0  0  0  0  0
  143.0406   78.9830  223.0351 H   0  0  0  0  0  0  0  0  0  0  0  0
  138.4125   80.8711  223.4364 H   0  0  0  0  0  0  0  0  0  0  0  0
  138.4726   77.4805  223.9116 H   0  0  0  0  0  0  0  0  0  0  0  0
  137.5402   78.6395  222.9525 H   0  0  0  0  0  0  0  0  0  0  0  0
  137.9694   76.6189  221.5696 H   0  0  0  0  0  0  0  0  0  0  0  0
  138.9354   77.9533  220.8973 H   0  0  0  0  0  0  0  0  0  0  0  0
  140.0190   73.0480  217.7830 H   0  0  0  0  0  0  0  0  0  0  0  0
  142.4281   73.2515  217.1307 H   0  0  0  0  0  0  0  0  0  0  0  0
  141.6408   74.8593  216.9419 H   0  0  0  0  0  0  0  0  0  0  0  0
  143.4966   75.4159  218.1539 H   0  0  0  0  0  0  0  0  0  0  0  0
  142.2669   75.0950  219.4656 H   0  0  0  0  0  0  0  0  0  0  0  0
  143.1516   72.8699  219.7577 H   0  0  0  0  0  0  0  0  0  0  0  0
  144.6982   75.2480  220.3215 H   0  0  0  0  0  0  0  0  0  0  0  0
  144.1265   73.8691  221.3577 H   0  0  0  0  0  0  0  0  0  0  0  0
  146.6372   74.1396  219.7233 H   0  0  0  0  0  0  0  0  0  0  0  0
  146.3781   73.6142  221.4573 H   0  0  0  0  0  0  0  0  0  0  0  0
  145.6810   71.5880  220.7920 H   0  0  0  0  0  0  0  0  0  0  0  0
  146.2532   71.6300  218.0540 H   0  0  0  0  0  0  0  0  0  0  0  0
  144.7668   71.0407  218.9275 H   0  0  0  0  0  0  0  0  0  0  0  0
  145.3333   73.8081  217.8234 H   0  0  0  0  0  0  0  0  0  0  0  0
  144.0047   72.6699  217.3994 H   0  0  0  0  0  0  0  0  0  0  0  0
  138.6411   70.8781  221.5482 H   0  0  0  0  0  0  0  0  0  0  0  0
  139.9206   69.8040  222.2951 H   0  0  0  0  0  0  0  0  0  0  0  0
  137.4709   70.9691  223.6409 H   0  0  0  0  0  0  0  0  0  0  0  0
  137.8049   69.2576  223.2955 H   0  0  0  0  0  0  0  0  0  0  0  0
  137.7075   68.6541  225.5444 H   0  0  0  0  0  0  0  0  0  0  0  0
  138.8863   68.3705  227.6986 H   0  0  0  0  0  0  0  0  0  0  0  0
  140.9271   69.7223  228.1354 H   0  0  0  0  0  0  0  0  0  0  0  0
  141.7392   71.3158  226.4357 H   0  0  0  0  0  0  0  0  0  0  0  0
  140.6259   72.8789  224.4502 H   0  0  0  0  0  0  0  0  0  0  0  0
  141.7840   71.6170  223.8559 H   0  0  0  0  0  0  0  0  0  0  0  0
  141.1140   76.6254  223.7868 H   0  0  0  0  0  0  0  0  0  0  0  0
  142.0075   76.9805  222.2395 H   0  0  0  0  0  0  0  0  0  0  0  0
  1  2  2  0
  2  3  1  0
  3  4  2  0
  4  5  1  0
  5  6  2  0
  5  7  1  0
  7  8  1  0
  8  9  1  0
  9 10  1  0
 10 11  2  0
 11 12  1  0
 12 13  1  0
 13 14  1  0
 14 15  1  0
 15 16  1  0
 16 17  1  0
 17 18  1  0
 18 19  1  0
 19 20  1  0
 20 21  1  0
 12 22  2  0
 22 23  1  0
 23 24  1  0
 24 25  1  0
 25 26  1  0
 26 27  1  0
 27 28  2  0
 28 29  1  0
 29 30  2  0
 30 31  1  0
 31 32  2  0
 32 33  1  0
 23 34  2  0
  9 35  1  0
  6  1  1  0
 34 10  1  0
 35  4  1  0
 21 16  1  0
 33 24  1  0
 32 27  1  0
  1 36  1  0
  2 37  1  0
  3 38  1  0
  6 39  1  0
  7 40  1  0
  7 41  1  0
  8 42  1  0
  8 43  1  0
 13 44  1  0
 14 45  1  0
 14 46  1  0
 15 47  1  0
 15 48  1  0
 16 49  1  0
 17 50  1  0
 17 51  1  0
 18 52  1  0
 18 53  1  0
 19 54  1  0
 20 55  1  0
 20 56  1  0
 21 57  1  0
 21 58  1  0
 25 59  1  0
 25 60  1  0
 26 61  1  0
 26 62  1  0
 28 63  1  0
 29 64  1  0
 30 65  1  0
 31 66  1  0
 33 67  1  0
 33 68  1  0
 35 69  1  0
 35 70  1  0
M  END
>  <smiles>  (44) 
c1ccc2c(c1)CCN(c1nc(NCCC3CCNCC3)nc(N3CCc4ccccc4C3)n1)C2

>  <score_type>  (44) 
oracle

>  <origin>  (44) 
autodockgpu

>  <m_score__min__energy>  (44) 
-10.140000000000001

>  <m_primary>  (44) 
energy

>  <rmsd>  (44) 
5.681483932541004

>  <m_score__min__rmsd>  (44) 
5.681483932541004

>  <meeko>  (44) 
{"free_energy": -9.79, "intermolecular_energy": -11.58, "internal_energy": -1.28, "cluster_size": 43, "cluster_id": 1, "rank_in_cluster": 8}

>  <energy>  (44) 
-10.01

>  <cluster_rmsd>  (44) 
0.0

>  <cluster>  (44) 
2

$$$$

     RDKit          3D

 70 75  0  0  0  0  0  0  0  0999 V2000
  142.0080   79.9790  222.0140 C   0  0  0  0  0  0  0  0  0  0  0  0
  141.7720   79.4430  223.2640 C   0  0  0  0  0  0  0  0  0  0  0  0
  141.2990   78.1540  223.3890 C   0  0  0  0  0  0  0  0  0  0  0  0
  141.0690   77.4150  222.2430 C   0  0  0  0  0  0  0  0  0  0  0  0
  141.3150   77.9770  220.9970 C   0  0  0  0  0  0  0  0  0  0  0  0
  141.7880   79.2630  220.8480 C   0  0  0  0  0  0  0  0  0  0  0  0
  141.0330   77.0900  219.8180 C   0  0  0  0  0  0  0  0  0  0  0  0
  141.7150   75.7610  220.1240 C   0  0  0  0  0  0  0  0  0  0  0  0
  141.0480   75.1960  221.2570 N   0  0  0  0  0  0  0  0  0  0  0  0
  140.8550   73.7930  221.3370 C   0  0  0  0  0  0  0  0  0  0  0  0
  140.8690   73.0460  220.2360 N   0  0  0  0  0  0  0  0  0  0  0  0
  140.6860   71.6930  220.2800 C   0  0  0  0  0  0  0  0  0  0  0  0
  140.7120   70.9180  219.0800 N   0  0  0  0  0  0  0  0  0  0  0  0
  141.9200   70.6540  218.3280 C   0  0  0  0  0  0  0  0  0  0  0  0
  143.0790   70.5170  219.2580 C   0  0  0  0  0  0  0  0  0  0  0  0
  143.9400   71.7570  219.3290 C   0  0  0  0  0  0  0  0  0  0  0  0
  144.2510   72.2170  220.7110 C   0  0  0  0  0  0  0  0  0  0  0  0
  144.2540   73.7290  220.8270 C   0  0  0  0  0  0  0  0  0  0  0  0
  144.7900   74.3980  219.6800 N   0  0  0  0  0  0  0  0  0  0  0  0
  144.1840   74.0530  218.4300 C   0  0  0  0  0  0  0  0  0  0  0  0
  143.2700   72.8440  218.5320 C   0  0  0  0  0  0  0  0  0  0  0  0
  140.4880   71.1370  221.4850 N   0  0  0  0  0  0  0  0  0  0  0  0
  140.4650   71.8500  222.6220 C   0  0  0  0  0  0  0  0  0  0  0  0
  140.2530   71.2450  223.9060 N   0  0  0  0  0  0  0  0  0  0  0  0
  140.6670   71.9020  225.1190 C   0  0  0  0  0  0  0  0  0  0  0  0
  141.4550   71.0250  226.0480 C   0  0  0  0  0  0  0  0  0  0  0  0
  140.6840   69.7600  226.2090 C   0  0  0  0  0  0  0  0  0  0  0  0
  140.8530   69.0780  227.3990 C   0  0  0  0  0  0  0  0  0  0  0  0
  140.1950   67.9030  227.6570 C   0  0  0  0  0  0  0  0  0  0  0  0
  139.3490   67.4090  226.6970 C   0  0  0  0  0  0  0  0  0  0  0  0
  139.1800   68.0940  225.5050 C   0  0  0  0  0  0  0  0  0  0  0  0
  139.8350   69.2730  225.2350 C   0  0  0  0  0  0  0  0  0  0  0  0
  139.6110   69.9560  223.9440 C   0  0  0  0  0  0  0  0  0  0  0  0
  140.6520   73.1790  222.5200 N   0  0  0  0  0  0  0  0  0  0  0  0
  140.5660   76.0390  222.3290 C   0  0  0  0  0  0  0  0  0  0  0  0
  142.3837   81.0102  221.9409 H   0  0  0  0  0  0  0  0  0  0  0  0
  141.9620   80.0466  224.1638 H   0  0  0  0  0  0  0  0  0  0  0  0
  141.1081   77.7213  224.3822 H   0  0  0  0  0  0  0  0  0  0  0  0
  141.9806   79.6980  219.8562 H   0  0  0  0  0  0  0  0  0  0  0  0
  139.9491   76.9455  219.6982 H   0  0  0  0  0  0  0  0  0  0  0  0
  141.4070   77.5304  218.8820 H   0  0  0  0  0  0  0  0  0  0  0  0
  141.6292   75.0854  219.2602 H   0  0  0  0  0  0  0  0  0  0  0  0
  142.7846   75.9093  220.3335 H   0  0  0  0  0  0  0  0  0  0  0  0
  139.7860   70.5310  218.7480 H   0  0  0  0  0  0  0  0  0  0  0  0
  141.7979   69.7212  217.7579 H   0  0  0  0  0  0  0  0  0  0  0  0
  142.1067   71.4904  217.6383 H   0  0  0  0  0  0  0  0  0  0  0  0
  142.6942   70.3013  220.2657 H   0  0  0  0  0  0  0  0  0  0  0  0
  143.7112   69.7037  218.8721 H   0  0  0  0  0  0  0  0  0  0  0  0
  144.9206   71.5009  218.9014 H   0  0  0  0  0  0  0  0  0  0  0  0
  143.4938   71.8110  221.3978 H   0  0  0  0  0  0  0  0  0  0  0  0
  145.2588   71.8578  220.9666 H   0  0  0  0  0  0  0  0  0  0  0  0
  143.2174   74.0672  220.9722 H   0  0  0  0  0  0  0  0  0  0  0  0
  144.9041   73.9826  221.6773 H   0  0  0  0  0  0  0  0  0  0  0  0
  145.8210   74.2850  219.6510 H   0  0  0  0  0  0  0  0  0  0  0  0
  143.5933   74.9112  218.0772 H   0  0  0  0  0  0  0  0  0  0  0  0
  144.9928   73.7982  217.7293 H   0  0  0  0  0  0  0  0  0  0  0  0
  142.3338   73.1363  219.0300 H   0  0  0  0  0  0  0  0  0  0  0  0
  143.0538   72.4689  217.5208 H   0  0  0  0  0  0  0  0  0  0  0  0
  141.2896   72.7677  224.8487 H   0  0  0  0  0  0  0  0  0  0  0  0
  139.7504   72.1911  225.6540 H   0  0  0  0  0  0  0  0  0  0  0  0
  142.4450   70.8123  225.6183 H   0  0  0  0  0  0  0  0  0  0  0  0
  141.6083   71.5184  227.0191 H   0  0  0  0  0  0  0  0  0  0  0  0
  141.5335   69.4887  228.1595 H   0  0  0  0  0  0  0  0  0  0  0  0
  140.3417   67.3708  228.6084 H   0  0  0  0  0  0  0  0  0  0  0  0
  138.8050   66.4694  226.8736 H   0  0  0  0  0  0  0  0  0  0  0  0
  138.4979   67.6805  224.7476 H   0  0  0  0  0  0  0  0  0  0  0  0
  140.0170   69.3313  223.1348 H   0  0  0  0  0  0  0  0  0  0  0  0
  138.5287   70.1076  223.8189 H   0  0  0  0  0  0  0  0  0  0  0  0
  139.4670   76.0638  222.2891 H   0  0  0  0  0  0  0  0  0  0  0  0
  140.9315   75.6122  223.2747 H   0  0  0  0  0  0  0  0  0  0  0  0
  1  2  2  0
  2  3  1  0
  3  4  2  0
  4  5  1  0
  5  6  2  0
  5  7  1  0
  7  8  1  0
  8  9  1  0
  9 10  1  0
 10 11  2  0
 11 12  1  0
 12 13  1  0
 13 14  1  0
 14 15  1  0
 15 16  1  0
 16 17  1  0
 17 18  1  0
 18 19  1  0
 19 20  1  0
 20 21  1  0
 12 22  2  0
 22 23  1  0
 23 24  1  0
 24 25  1  0
 25 26  1  0
 26 27  1  0
 27 28  2  0
 28 29  1  0
 29 30  2  0
 30 31  1  0
 31 32  2  0
 32 33  1  0
 23 34  2  0
  9 35  1  0
  6  1  1  0
 34 10  1  0
 35  4  1  0
 21 16  1  0
 33 24  1  0
 32 27  1  0
  1 36  1  0
  2 37  1  0
  3 38  1  0
  6 39  1  0
  7 40  1  0
  7 41  1  0
  8 42  1  0
  8 43  1  0
 13 44  1  0
 14 45  1  0
 14 46  1  0
 15 47  1  0
 15 48  1  0
 16 49  1  0
 17 50  1  0
 17 51  1  0
 18 52  1  0
 18 53  1  0
 19 54  1  0
 20 55  1  0
 20 56  1  0
 21 57  1  0
 21 58  1  0
 25 59  1  0
 25 60  1  0
 26 61  1  0
 26 62  1  0
 28 63  1  0
 29 64  1  0
 30 65  1  0
 31 66  1  0
 33 67  1  0
 33 68  1  0
 35 69  1  0
 35 70  1  0
M  END
>  <smiles>  (45) 
c1ccc2c(c1)CCN(c1nc(NCCC3CCNCC3)nc(N3CCc4ccccc4C3)n1)C2

>  <score_type>  (45) 
oracle

>  <origin>  (45) 
autodockgpu

>  <m_score__min__energy>  (45) 
-10.140000000000001

>  <m_primary>  (45) 
energy

>  <rmsd>  (45) 
6.17739888720386

>  <m_score__min__rmsd>  (45) 
6.17739888720386

>  <meeko>  (45) 
{"free_energy": -9.02, "intermolecular_energy": -10.81, "internal_energy": -2.01, "cluster_size": 43, "cluster_id": 1, "rank_in_cluster": 33}

>  <energy>  (45) 
-9.89

>  <cluster_rmsd>  (45) 
0.86

>  <cluster>  (45) 
2

$$$$

     RDKit          3D

 70 75  0  0  0  0  0  0  0  0999 V2000
  139.6780   70.0060  228.2580 C   0  0  0  0  0  0  0  0  0  0  0  0
  140.5910   71.0410  228.2830 C   0  0  0  0  0  0  0  0  0  0  0  0
  141.0580   71.5830  227.1040 C   0  0  0  0  0  0  0  0  0  0  0  0
  140.5960   71.0700  225.9060 C   0  0  0  0  0  0  0  0  0  0  0  0
  139.6780   70.0280  225.9080 C   0  0  0  0  0  0  0  0  0  0  0  0
  139.1970   69.4710  227.0740 C   0  0  0  0  0  0  0  0  0  0  0  0
  139.2410   69.5440  224.5550 C   0  0  0  0  0  0  0  0  0  0  0  0
  138.8650   70.7960  223.7680 C   0  0  0  0  0  0  0  0  0  0  0  0
  140.0640   71.5560  223.5870 N   0  0  0  0  0  0  0  0  0  0  0  0
  140.2780   72.2630  222.3760 C   0  0  0  0  0  0  0  0  0  0  0  0
  140.4590   71.6050  221.2340 N   0  0  0  0  0  0  0  0  0  0  0  0
  140.6660   72.2560  220.0510 C   0  0  0  0  0  0  0  0  0  0  0  0
  140.8530   71.5200  218.8400 N   0  0  0  0  0  0  0  0  0  0  0  0
  142.1440   71.3340  218.2130 C   0  0  0  0  0  0  0  0  0  0  0  0
  143.1860   71.0960  219.2540 C   0  0  0  0  0  0  0  0  0  0  0  0
  144.1780   72.2290  219.3810 C   0  0  0  0  0  0  0  0  0  0  0  0
  145.5730   71.8010  219.6840 C   0  0  0  0  0  0  0  0  0  0  0  0
  146.2690   72.7470  220.6420 C   0  0  0  0  0  0  0  0  0  0  0  0
  145.9390   74.1260  220.4380 N   0  0  0  0  0  0  0  0  0  0  0  0
  144.5410   74.4310  220.4560 C   0  0  0  0  0  0  0  0  0  0  0  0
  143.6660   73.1890  220.4200 C   0  0  0  0  0  0  0  0  0  0  0  0
  140.6830   73.5980  220.0810 N   0  0  0  0  0  0  0  0  0  0  0  0
  140.5050   74.3030  221.2100 C   0  0  0  0  0  0  0  0  0  0  0  0
  140.5250   75.7380  221.2300 N   0  0  0  0  0  0  0  0  0  0  0  0
  140.4230   76.5030  220.0140 C   0  0  0  0  0  0  0  0  0  0  0  0
  141.4650   77.5750  219.8800 C   0  0  0  0  0  0  0  0  0  0  0  0
  141.4570   78.3500  221.1530 C   0  0  0  0  0  0  0  0  0  0  0  0
  141.8490   79.6720  221.0760 C   0  0  0  0  0  0  0  0  0  0  0  0
  141.8800   80.4810  222.1840 C   0  0  0  0  0  0  0  0  0  0  0  0
  141.5080   79.9450  223.3900 C   0  0  0  0  0  0  0  0  0  0  0  0
  141.1150   78.6170  223.4650 C   0  0  0  0  0  0  0  0  0  0  0  0
  141.0800   77.7980  222.3610 C   0  0  0  0  0  0  0  0  0  0  0  0
  140.6500   76.3920  222.5070 C   0  0  0  0  0  0  0  0  0  0  0  0
  140.3040   73.6100  222.3450 N   0  0  0  0  0  0  0  0  0  0  0  0
  141.0670   71.6150  224.6270 C   0  0  0  0  0  0  0  0  0  0  0  0
  139.3197   69.5914  229.2118 H   0  0  0  0  0  0  0  0  0  0  0  0
  140.9472   71.4347  229.2464 H   0  0  0  0  0  0  0  0  0  0  0  0
  141.7849   72.4085  227.1164 H   0  0  0  0  0  0  0  0  0  0  0  0
  138.4699   68.6456  227.0646 H   0  0  0  0  0  0  0  0  0  0  0  0
  140.0625   69.0097  224.0554 H   0  0  0  0  0  0  0  0  0  0  0  0
  138.3966   68.8429  224.6287 H   0  0  0  0  0  0  0  0  0  0  0  0
  138.4452   70.5153  222.7908 H   0  0  0  0  0  0  0  0  0  0  0  0
  138.1069   71.3836  224.3065 H   0  0  0  0  0  0  0  0  0  0  0  0
  139.9860   71.1050  218.4020 H   0  0  0  0  0  0  0  0  0  0  0  0
  142.0994   70.4673  217.5370 H   0  0  0  0  0  0  0  0  0  0  0  0
  142.4026   72.2383  217.6426 H   0  0  0  0  0  0  0  0  0  0  0  0
  142.6852   70.9608  220.2240 H   0  0  0  0  0  0  0  0  0  0  0  0
  143.7509   70.2027  218.9494 H   0  0  0  0  0  0  0  0  0  0  0  0
  144.2518   72.7138  218.3964 H   0  0  0  0  0  0  0  0  0  0  0  0
  145.5454   70.7980  220.1347 H   0  0  0  0  0  0  0  0  0  0  0  0
  146.1380   71.8016  218.7402 H   0  0  0  0  0  0  0  0  0  0  0  0
  145.9855   72.4712  221.6684 H   0  0  0  0  0  0  0  0  0  0  0  0
  147.3494   72.6470  220.4611 H   0  0  0  0  0  0  0  0  0  0  0  0
  146.3980   74.4780  219.5780 H   0  0  0  0  0  0  0  0  0  0  0  0
  144.3158   74.9929  221.3744 H   0  0  0  0  0  0  0  0  0  0  0  0
  144.3189   75.0185  219.5529 H   0  0  0  0  0  0  0  0  0  0  0  0
  143.6839   72.7021  221.4062 H   0  0  0  0  0  0  0  0  0  0  0  0
  142.6360   73.4801  220.1664 H   0  0  0  0  0  0  0  0  0  0  0  0
  140.5233   75.8142  219.1622 H   0  0  0  0  0  0  0  0  0  0  0  0
  139.4463   77.0085  220.0361 H   0  0  0  0  0  0  0  0  0  0  0  0
  142.4546   77.1223  219.7192 H   0  0  0  0  0  0  0  0  0  0  0  0
  141.2495   78.2276  219.0211 H   0  0  0  0  0  0  0  0  0  0  0  0
  142.1441   80.0873  220.1011 H   0  0  0  0  0  0  0  0  0  0  0  0
  142.1951   81.5321  222.1067 H   0  0  0  0  0  0  0  0  0  0  0  0
  141.5212   80.5674  224.2969 H   0  0  0  0  0  0  0  0  0  0  0  0
  140.8211   78.2046  224.4415 H   0  0  0  0  0  0  0  0  0  0  0  0
  141.3935   75.8528  223.1124 H   0  0  0  0  0  0  0  0  0  0  0  0
  139.6640   76.3838  222.9945 H   0  0  0  0  0  0  0  0  0  0  0  0
  141.9448   71.0376  224.3013 H   0  0  0  0  0  0  0  0  0  0  0  0
  141.3119   72.6750  224.7898 H   0  0  0  0  0  0  0  0  0  0  0  0
  1  2  2  0
  2  3  1  0
  3  4  2  0
  4  5  1  0
  5  6  2  0
  5  7  1  0
  7  8  1  0
  8  9  1  0
  9 10  1  0
 10 11  2  0
 11 12  1  0
 12 13  1  0
 13 14  1  0
 14 15  1  0
 15 16  1  0
 16 17  1  0
 17 18  1  0
 18 19  1  0
 19 20  1  0
 20 21  1  0
 12 22  2  0
 22 23  1  0
 23 24  1  0
 24 25  1  0
 25 26  1  0
 26 27  1  0
 27 28  2  0
 28 29  1  0
 29 30  2  0
 30 31  1  0
 31 32  2  0
 32 33  1  0
 23 34  2  0
  9 35  1  0
  6  1  1  0
 34 10  1  0
 35  4  1  0
 21 16  1  0
 33 24  1  0
 32 27  1  0
  1 36  1  0
  2 37  1  0
  3 38  1  0
  6 39  1  0
  7 40  1  0
  7 41  1  0
  8 42  1  0
  8 43  1  0
 13 44  1  0
 14 45  1  0
 14 46  1  0
 15 47  1  0
 15 48  1  0
 16 49  1  0
 17 50  1  0
 17 51  1  0
 18 52  1  0
 18 53  1  0
 19 54  1  0
 20 55  1  0
 20 56  1  0
 21 57  1  0
 21 58  1  0
 25 59  1  0
 25 60  1  0
 26 61  1  0
 26 62  1  0
 28 63  1  0
 29 64  1  0
 30 65  1  0
 31 66  1  0
 33 67  1  0
 33 68  1  0
 35 69  1  0
 35 70  1  0
M  END
>  <smiles>  (46) 
c1ccc2c(c1)CCN(c1nc(NCCC3CCNCC3)nc(N3CCc4ccccc4C3)n1)C2

>  <score_type>  (46) 
oracle

>  <origin>  (46) 
autodockgpu

>  <m_score__min__energy>  (46) 
-10.140000000000001

>  <m_primary>  (46) 
energy

>  <rmsd>  (46) 
6.589664103596096

>  <m_score__min__rmsd>  (46) 
6.589664103596096

>  <meeko>  (46) 
{"free_energy": -10.14, "intermolecular_energy": -11.93, "internal_energy": -1.57, "cluster_size": 43, "cluster_id": 1, "rank_in_cluster": 1}

>  <energy>  (46) 
-9.88

>  <cluster_rmsd>  (46) 
1.08

>  <cluster>  (46) 
2

$$$$

     RDKit          3D

 70 75  0  0  0  0  0  0  0  0999 V2000
  139.4780   69.6160  227.6450 C   0  0  0  0  0  0  0  0  0  0  0  0
  140.3400   70.6800  227.8200 C   0  0  0  0  0  0  0  0  0  0  0  0
  140.7690   71.4120  226.7330 C   0  0  0  0  0  0  0  0  0  0  0  0
  140.3210   71.0590  225.4740 C   0  0  0  0  0  0  0  0  0  0  0  0
  139.4540   69.9840  225.3240 C   0  0  0  0  0  0  0  0  0  0  0  0
  139.0120   69.2390  226.3960 C   0  0  0  0  0  0  0  0  0  0  0  0
  139.0270   69.6840  223.9160 C   0  0  0  0  0  0  0  0  0  0  0  0
  138.5840   71.0190  223.3230 C   0  0  0  0  0  0  0  0  0  0  0  0
  139.7420   71.8550  223.2530 N   0  0  0  0  0  0  0  0  0  0  0  0
  139.9090   72.7430  222.1600 C   0  0  0  0  0  0  0  0  0  0  0  0
  140.0290   72.2720  220.9210 N   0  0  0  0  0  0  0  0  0  0  0  0
  140.1910   73.0990  219.8470 C   0  0  0  0  0  0  0  0  0  0  0  0
  140.3120   72.5630  218.5280 N   0  0  0  0  0  0  0  0  0  0  0  0
  141.0850   73.1940  217.4810 C   0  0  0  0  0  0  0  0  0  0  0  0
  142.5200   73.2700  217.8810 C   0  0  0  0  0  0  0  0  0  0  0  0
  142.9860   74.6760  218.1830 C   0  0  0  0  0  0  0  0  0  0  0  0
  143.2880   74.9340  219.6190 C   0  0  0  0  0  0  0  0  0  0  0  0
  142.8620   76.3210  220.0560 C   0  0  0  0  0  0  0  0  0  0  0  0
  143.0600   77.3300  219.0590 N   0  0  0  0  0  0  0  0  0  0  0  0
  142.4570   77.0640  217.7890 C   0  0  0  0  0  0  0  0  0  0  0  0
  141.9500   75.6370  217.6650 C   0  0  0  0  0  0  0  0  0  0  0  0
  140.2270   74.4200  220.0870 N   0  0  0  0  0  0  0  0  0  0  0  0
  140.1100   74.9400  221.3190 C   0  0  0  0  0  0  0  0  0  0  0  0
  140.1500   76.3540  221.5630 N   0  0  0  0  0  0  0  0  0  0  0  0
  139.4490   77.2780  220.7100 C   0  0  0  0  0  0  0  0  0  0  0  0
  140.2870   78.4350  220.2480 C   0  0  0  0  0  0  0  0  0  0  0  0
  140.9350   79.0120  221.4600 C   0  0  0  0  0  0  0  0  0  0  0  0
  141.2450   80.3580  221.4170 C   0  0  0  0  0  0  0  0  0  0  0  0
  141.8430   80.9960  222.4740 C   0  0  0  0  0  0  0  0  0  0  0  0
  142.1320   80.2610  223.5950 C   0  0  0  0  0  0  0  0  0  0  0  0
  141.8200   78.9110  223.6380 C   0  0  0  0  0  0  0  0  0  0  0  0
  141.2210   78.2620  222.5840 C   0  0  0  0  0  0  0  0  0  0  0  0
  140.9140   76.8210  222.6910 C   0  0  0  0  0  0  0  0  0  0  0  0
  139.9520   74.0780  222.3390 N   0  0  0  0  0  0  0  0  0  0  0  0
  140.7520   71.8100  224.2880 C   0  0  0  0  0  0  0  0  0  0  0  0
  139.1498   69.0478  228.5279 H   0  0  0  0  0  0  0  0  0  0  0  0
  140.6858   70.9448  228.8301 H   0  0  0  0  0  0  0  0  0  0  0  0
  141.4553   72.2614  226.8654 H   0  0  0  0  0  0  0  0  0  0  0  0
  138.3252   68.3895  226.2666 H   0  0  0  0  0  0  0  0  0  0  0  0
  139.8679   69.2694  223.3407 H   0  0  0  0  0  0  0  0  0  0  0  0
  138.2175   68.9398  223.8881 H   0  0  0  0  0  0  0  0  0  0  0  0
  138.1688   70.8650  222.3161 H   0  0  0  0  0  0  0  0  0  0  0  0
  137.8041   71.4831  223.9446 H   0  0  0  0  0  0  0  0  0  0  0  0
  139.7980   71.6600  218.3370 H   0  0  0  0  0  0  0  0  0  0  0  0
  140.9953   72.6047  216.5565 H   0  0  0  0  0  0  0  0  0  0  0  0
  140.7026   74.2117  217.3135 H   0  0  0  0  0  0  0  0  0  0  0  0
  142.6641   72.6542  218.7810 H   0  0  0  0  0  0  0  0  0  0  0  0
  143.1139   72.9073  217.0291 H   0  0  0  0  0  0  0  0  0  0  0  0
  143.9500   74.8198  217.6732 H   0  0  0  0  0  0  0  0  0  0  0  0
  142.7559   74.1911  220.2314 H   0  0  0  0  0  0  0  0  0  0  0  0
  144.3773   74.8588  219.7526 H   0  0  0  0  0  0  0  0  0  0  0  0
  141.7922   76.2907  220.3104 H   0  0  0  0  0  0  0  0  0  0  0  0
  143.4929   76.5929  220.9151 H   0  0  0  0  0  0  0  0  0  0  0  0
  144.0700   77.5460  218.9670 H   0  0  0  0  0  0  0  0  0  0  0  0
  141.6092   77.7513  217.6517 H   0  0  0  0  0  0  0  0  0  0  0  0
  143.2290   77.2092  217.0190 H   0  0  0  0  0  0  0  0  0  0  0  0
  141.0255   75.5267  218.2508 H   0  0  0  0  0  0  0  0  0  0  0  0
  141.7494   75.4157  216.6063 H   0  0  0  0  0  0  0  0  0  0  0  0
  139.0951   76.7310  219.8237 H   0  0  0  0  0  0  0  0  0  0  0  0
  138.6241   77.6983  221.3041 H   0  0  0  0  0  0  0  0  0  0  0  0
  141.0528   78.0879  219.5387 H   0  0  0  0  0  0  0  0  0  0  0  0
  139.6702   79.1878  219.7354 H   0  0  0  0  0  0  0  0  0  0  0  0
  141.0057   80.9335  220.5106 H   0  0  0  0  0  0  0  0  0  0  0  0
  142.0841   82.0681  222.4237 H   0  0  0  0  0  0  0  0  0  0  0  0
  142.6114   80.7426  224.4600 H   0  0  0  0  0  0  0  0  0  0  0  0
  142.0599   78.3392  224.5466 H   0  0  0  0  0  0  0  0  0  0  0  0
  141.8578   76.2581  222.7399 H   0  0  0  0  0  0  0  0  0  0  0  0
  140.3142   76.6647  223.5998 H   0  0  0  0  0  0  0  0  0  0  0  0
  141.6537   71.3316  223.8781 H   0  0  0  0  0  0  0  0  0  0  0  0
  140.9464   72.8452  224.6051 H   0  0  0  0  0  0  0  0  0  0  0  0
  1  2  2  0
  2  3  1  0
  3  4  2  0
  4  5  1  0
  5  6  2  0
  5  7  1  0
  7  8  1  0
  8  9  1  0
  9 10  1  0
 10 11  2  0
 11 12  1  0
 12 13  1  0
 13 14  1  0
 14 15  1  0
 15 16  1  0
 16 17  1  0
 17 18  1  0
 18 19  1  0
 19 20  1  0
 20 21  1  0
 12 22  2  0
 22 23  1  0
 23 24  1  0
 24 25  1  0
 25 26  1  0
 26 27  1  0
 27 28  2  0
 28 29  1  0
 29 30  2  0
 30 31  1  0
 31 32  2  0
 32 33  1  0
 23 34  2  0
  9 35  1  0
  6  1  1  0
 34 10  1  0
 35  4  1  0
 21 16  1  0
 33 24  1  0
 32 27  1  0
  1 36  1  0
  2 37  1  0
  3 38  1  0
  6 39  1  0
  7 40  1  0
  7 41  1  0
  8 42  1  0
  8 43  1  0
 13 44  1  0
 14 45  1  0
 14 46  1  0
 15 47  1  0
 15 48  1  0
 16 49  1  0
 17 50  1  0
 17 51  1  0
 18 52  1  0
 18 53  1  0
 19 54  1  0
 20 55  1  0
 20 56  1  0
 21 57  1  0
 21 58  1  0
 25 59  1  0
 25 60  1  0
 26 61  1  0
 26 62  1  0
 28 63  1  0
 29 64  1  0
 30 65  1  0
 31 66  1  0
 33 67  1  0
 33 68  1  0
 35 69  1  0
 35 70  1  0
M  END
>  <smiles>  (47) 
c1ccc2c(c1)CCN(c1nc(NCCC3CCNCC3)nc(N3CCc4ccccc4C3)n1)C2

>  <score_type>  (47) 
oracle

>  <origin>  (47) 
autodockgpu

>  <m_score__min__energy>  (47) 
-10.140000000000001

>  <m_primary>  (47) 
energy

>  <rmsd>  (47) 
4.028680590597601

>  <m_score__min__rmsd>  (47) 
4.028680590597601

>  <meeko>  (47) 
{"free_energy": -8.97, "intermolecular_energy": -10.76, "internal_energy": -2.18, "cluster_size": 43, "cluster_id": 1, "rank_in_cluster": 39}

>  <energy>  (47) 
-9.85

>  <cluster_rmsd>  (47) 
1.17

>  <cluster>  (47) 
2

$$$$

     RDKit          3D

 70 75  0  0  0  0  0  0  0  0999 V2000
  145.8010   69.1430  217.7940 C   0  0  0  0  0  0  0  0  0  0  0  0
  144.6600   68.4360  218.1210 C   0  0  0  0  0  0  0  0  0  0  0  0
  143.7380   68.9740  218.9930 C   0  0  0  0  0  0  0  0  0  0  0  0
  143.9780   70.2250  219.5290 C   0  0  0  0  0  0  0  0  0  0  0  0
  145.1320   70.9160  219.1840 C   0  0  0  0  0  0  0  0  0  0  0  0
  146.0690   70.3980  218.3140 C   0  0  0  0  0  0  0  0  0  0  0  0
  145.2970   72.2660  219.8210 C   0  0  0  0  0  0  0  0  0  0  0  0
  143.9710   72.9890  219.6110 C   0  0  0  0  0  0  0  0  0  0  0  0
  142.9790   72.2780  220.3590 N   0  0  0  0  0  0  0  0  0  0  0  0
  141.9390   72.9890  221.0100 C   0  0  0  0  0  0  0  0  0  0  0  0
  140.9760   72.3360  221.6540 N   0  0  0  0  0  0  0  0  0  0  0  0
  139.9610   72.9910  222.2920 C   0  0  0  0  0  0  0  0  0  0  0  0
  138.9440   72.2610  222.9800 N   0  0  0  0  0  0  0  0  0  0  0  0
  139.1230   70.9090  223.4620 C   0  0  0  0  0  0  0  0  0  0  0  0
  140.3680   70.8200  224.2790 C   0  0  0  0  0  0  0  0  0  0  0  0
  140.1140   70.4570  225.7240 C   0  0  0  0  0  0  0  0  0  0  0  0
  140.4890   71.5150  226.7030 C   0  0  0  0  0  0  0  0  0  0  0  0
  141.0930   70.9380  227.9690 C   0  0  0  0  0  0  0  0  0  0  0  0
  140.4910   69.7100  228.3920 N   0  0  0  0  0  0  0  0  0  0  0  0
  140.4590   68.6720  227.4070 C   0  0  0  0  0  0  0  0  0  0  0  0
  140.8290   69.1650  226.0190 C   0  0  0  0  0  0  0  0  0  0  0  0
  139.9680   74.3330  222.2430 N   0  0  0  0  0  0  0  0  0  0  0  0
  140.9190   75.0340  221.6050 C   0  0  0  0  0  0  0  0  0  0  0  0
  140.9160   76.4690  221.5590 N   0  0  0  0  0  0  0  0  0  0  0  0
  140.8080   77.1750  220.3090 C   0  0  0  0  0  0  0  0  0  0  0  0
  141.8340   78.2560  220.1300 C   0  0  0  0  0  0  0  0  0  0  0  0
  141.8080   79.0880  221.3660 C   0  0  0  0  0  0  0  0  0  0  0  0
  142.1790   80.4120  221.2310 C   0  0  0  0  0  0  0  0  0  0  0  0
  142.1930   81.2710  222.3010 C   0  0  0  0  0  0  0  0  0  0  0  0
  141.8230   80.7840  223.5290 C   0  0  0  0  0  0  0  0  0  0  0  0
  141.4500   79.4560  223.6630 C   0  0  0  0  0  0  0  0  0  0  0  0
  141.4330   78.5860  222.5970 C   0  0  0  0  0  0  0  0  0  0  0  0
  141.0250   77.1810  222.8060 C   0  0  0  0  0  0  0  0  0  0  0  0
  141.8940   74.3360  220.9950 N   0  0  0  0  0  0  0  0  0  0  0  0
  143.0220   70.8360  220.4610 C   0  0  0  0  0  0  0  0  0  0  0  0
  146.5221   68.6930  217.0958 H   0  0  0  0  0  0  0  0  0  0  0  0
  144.4869   67.4413  217.6844 H   0  0  0  0  0  0  0  0  0  0  0  0
  142.8270   68.4173  219.2577 H   0  0  0  0  0  0  0  0  0  0  0  0
  146.9808   70.9526  218.0475 H   0  0  0  0  0  0  0  0  0  0  0  0
  145.5093   72.1594  220.8950 H   0  0  0  0  0  0  0  0  0  0  0  0
  146.1363   72.8227  219.3786 H   0  0  0  0  0  0  0  0  0  0  0  0
  144.0451   74.0252  219.9727 H   0  0  0  0  0  0  0  0  0  0  0  0
  143.7076   73.0202  218.5434 H   0  0  0  0  0  0  0  0  0  0  0  0
  138.0240   72.7590  223.1280 H   0  0  0  0  0  0  0  0  0  0  0  0
  138.2594   70.6257  224.0817 H   0  0  0  0  0  0  0  0  0  0  0  0
  139.2050   70.2269  222.6029 H   0  0  0  0  0  0  0  0  0  0  0  0
  141.0211   70.0533  223.8367 H   0  0  0  0  0  0  0  0  0  0  0  0
  140.8326   71.8170  224.2719 H   0  0  0  0  0  0  0  0  0  0  0  0
  139.0269   70.3446  225.8490 H   0  0  0  0  0  0  0  0  0  0  0  0
  141.2236   72.1865  226.2345 H   0  0  0  0  0  0  0  0  0  0  0  0
  139.5727   72.0555  226.9827 H   0  0  0  0  0  0  0  0  0  0  0  0
  142.1629   70.7556  227.7902 H   0  0  0  0  0  0  0  0  0  0  0  0
  140.9174   71.6718  228.7695 H   0  0  0  0  0  0  0  0  0  0  0  0
  139.5500   69.8920  228.7880 H   0  0  0  0  0  0  0  0  0  0  0  0
  141.1699   67.8860  227.7017 H   0  0  0  0  0  0  0  0  0  0  0  0
  139.4275   68.2929  227.3593 H   0  0  0  0  0  0  0  0  0  0  0  0
  141.9154   69.3301  225.9686 H   0  0  0  0  0  0  0  0  0  0  0  0
  140.5316   68.4100  225.2764 H   0  0  0  0  0  0  0  0  0  0  0  0
  140.9231   76.4493  219.4904 H   0  0  0  0  0  0  0  0  0  0  0  0
  139.8234   77.6654  220.3035 H   0  0  0  0  0  0  0  0  0  0  0  0
  142.8312   77.8120  219.9940 H   0  0  0  0  0  0  0  0  0  0  0  0
  141.6125   78.8651  219.2412 H   0  0  0  0  0  0  0  0  0  0  0  0
  142.4710   80.7876  220.2392 H   0  0  0  0  0  0  0  0  0  0  0  0
  142.4929   82.3221  222.1774 H   0  0  0  0  0  0  0  0  0  0  0  0
  141.8224   81.4471  224.4067 H   0  0  0  0  0  0  0  0  0  0  0  0
  141.1573   79.0845  224.6561 H   0  0  0  0  0  0  0  0  0  0  0  0
  141.7746   76.6819  223.4376 H   0  0  0  0  0  0  0  0  0  0  0  0
  140.0377   77.1782  223.2910 H   0  0  0  0  0  0  0  0  0  0  0  0
  143.3107   70.5653  221.4873 H   0  0  0  0  0  0  0  0  0  0  0  0
  142.0220   70.4571  220.2033 H   0  0  0  0  0  0  0  0  0  0  0  0
  1  2  2  0
  2  3  1  0
  3  4  2  0
  4  5  1  0
  5  6  2  0
  5  7  1  0
  7  8  1  0
  8  9  1  0
  9 10  1  0
 10 11  2  0
 11 12  1  0
 12 13  1  0
 13 14  1  0
 14 15  1  0
 15 16  1  0
 16 17  1  0
 17 18  1  0
 18 19  1  0
 19 20  1  0
 20 21  1  0
 12 22  2  0
 22 23  1  0
 23 24  1  0
 24 25  1  0
 25 26  1  0
 26 27  1  0
 27 28  2  0
 28 29  1  0
 29 30  2  0
 30 31  1  0
 31 32  2  0
 32 33  1  0
 23 34  2  0
  9 35  1  0
  6  1  1  0
 34 10  1  0
 35  4  1  0
 21 16  1  0
 33 24  1  0
 32 27  1  0
  1 36  1  0
  2 37  1  0
  3 38  1  0
  6 39  1  0
  7 40  1  0
  7 41  1  0
  8 42  1  0
  8 43  1  0
 13 44  1  0
 14 45  1  0
 14 46  1  0
 15 47  1  0
 15 48  1  0
 16 49  1  0
 17 50  1  0
 17 51  1  0
 18 52  1  0
 18 53  1  0
 19 54  1  0
 20 55  1  0
 20 56  1  0
 21 57  1  0
 21 58  1  0
 25 59  1  0
 25 60  1  0
 26 61  1  0
 26 62  1  0
 28 63  1  0
 29 64  1  0
 30 65  1  0
 31 66  1  0
 33 67  1  0
 33 68  1  0
 35 69  1  0
 35 70  1  0
M  END
>  <smiles>  (48) 
c1ccc2c(c1)CCN(c1nc(NCCC3CCNCC3)nc(N3CCc4ccccc4C3)n1)C2

>  <score_type>  (48) 
oracle

>  <origin>  (48) 
autodockgpu

>  <m_score__min__energy>  (48) 
-10.140000000000001

>  <m_primary>  (48) 
energy

>  <rmsd>  (48) 
8.937767196772246

>  <m_score__min__rmsd>  (48) 
8.937767196772246

>  <meeko>  (48) 
{"free_energy": -10.01, "intermolecular_energy": -11.8, "internal_energy": -1.03, "cluster_size": 6, "cluster_id": 2, "rank_in_cluster": 1}

>  <energy>  (48) 
-9.78

>  <cluster_rmsd>  (48) 
0.96

>  <cluster>  (48) 
2

$$$$

     RDKit          3D

 70 75  0  0  0  0  0  0  0  0999 V2000
  139.5640   69.8860  227.9320 C   0  0  0  0  0  0  0  0  0  0  0  0
  140.3860   70.9910  228.0340 C   0  0  0  0  0  0  0  0  0  0  0  0
  140.7940   71.6590  226.8980 C   0  0  0  0  0  0  0  0  0  0  0  0
  140.3660   71.2010  225.6660 C   0  0  0  0  0  0  0  0  0  0  0  0
  139.5400   70.0870  225.5910 C   0  0  0  0  0  0  0  0  0  0  0  0
  139.1190   69.4050  226.7120 C   0  0  0  0  0  0  0  0  0  0  0  0
  139.1320   69.6730  224.2060 C   0  0  0  0  0  0  0  0  0  0  0  0
  138.6440   70.9440  223.5190 C   0  0  0  0  0  0  0  0  0  0  0  0
  139.7720   71.8160  223.3930 N   0  0  0  0  0  0  0  0  0  0  0  0
  139.9130   72.6290  222.2390 C   0  0  0  0  0  0  0  0  0  0  0  0
  139.9110   72.0830  221.0260 N   0  0  0  0  0  0  0  0  0  0  0  0
  140.0440   72.8380  219.8950 C   0  0  0  0  0  0  0  0  0  0  0  0
  140.0320   72.2230  218.6050 N   0  0  0  0  0  0  0  0  0  0  0  0
  141.2310   71.7900  217.9200 C   0  0  0  0  0  0  0  0  0  0  0  0
  142.4200   71.9850  218.8000 C   0  0  0  0  0  0  0  0  0  0  0  0
  143.1260   73.3020  218.5730 C   0  0  0  0  0  0  0  0  0  0  0  0
  143.5590   73.9960  219.8180 C   0  0  0  0  0  0  0  0  0  0  0  0
  143.3930   75.5000  219.7240 C   0  0  0  0  0  0  0  0  0  0  0  0
  143.6870   76.0370  218.4300 N   0  0  0  0  0  0  0  0  0  0  0  0
  142.9680   75.4470  217.3430 C   0  0  0  0  0  0  0  0  0  0  0  0
  142.2290   74.1810  217.7440 C   0  0  0  0  0  0  0  0  0  0  0  0
  140.1800   74.1640  220.0530 N   0  0  0  0  0  0  0  0  0  0  0  0
  140.1880   74.7580  221.2570 C   0  0  0  0  0  0  0  0  0  0  0  0
  140.3350   76.1770  221.4130 N   0  0  0  0  0  0  0  0  0  0  0  0
  140.1230   77.0750  220.3080 C   0  0  0  0  0  0  0  0  0  0  0  0
  141.2230   78.0790  220.1190 C   0  0  0  0  0  0  0  0  0  0  0  0
  141.4680   78.7090  221.4470 C   0  0  0  0  0  0  0  0  0  0  0  0
  141.9570   80.0010  221.4400 C   0  0  0  0  0  0  0  0  0  0  0  0
  142.2200   80.6800  222.6030 C   0  0  0  0  0  0  0  0  0  0  0  0
  141.9830   80.0430  223.7940 C   0  0  0  0  0  0  0  0  0  0  0  0
  141.4910   78.7460  223.8000 C   0  0  0  0  0  0  0  0  0  0  0  0
  141.2250   78.0570  222.6400 C   0  0  0  0  0  0  0  0  0  0  0  0
  140.7020   76.6770  222.7130 C   0  0  0  0  0  0  0  0  0  0  0  0
  140.0530   73.9660  222.3350 N   0  0  0  0  0  0  0  0  0  0  0  0
  140.7760   71.8810  224.4310 C   0  0  0  0  0  0  0  0  0  0  0  0
  139.2518   69.3699  228.8519 H   0  0  0  0  0  0  0  0  0  0  0  0
  140.7163   71.3395  229.0237 H   0  0  0  0  0  0  0  0  0  0  0  0
  141.4482   72.5403  226.9713 H   0  0  0  0  0  0  0  0  0  0  0  0
  138.4636   68.5244  226.6414 H   0  0  0  0  0  0  0  0  0  0  0  0
  139.9908   69.2502  223.6640 H   0  0  0  0  0  0  0  0  0  0  0  0
  138.3503   68.8994  224.2285 H   0  0  0  0  0  0  0  0  0  0  0  0
  138.2403   70.7037  222.5244 H   0  0  0  0  0  0  0  0  0  0  0  0
  137.8441   71.4218  224.1037 H   0  0  0  0  0  0  0  0  0  0  0  0
  139.0860   72.0930  218.1530 H   0  0  0  0  0  0  0  0  0  0  0  0
  141.1390   70.7245  217.6628 H   0  0  0  0  0  0  0  0  0  0  0  0
  141.3584   72.3852  217.0038 H   0  0  0  0  0  0  0  0  0  0  0  0
  142.0886   71.9433  219.8481 H   0  0  0  0  0  0  0  0  0  0  0  0
  143.1370   71.1866  218.5583 H   0  0  0  0  0  0  0  0  0  0  0  0
  144.0656   73.0847  218.0439 H   0  0  0  0  0  0  0  0  0  0  0  0
  142.9544   73.6250  220.6587 H   0  0  0  0  0  0  0  0  0  0  0  0
  144.6278   73.7835  219.9682 H   0  0  0  0  0  0  0  0  0  0  0  0
  142.3513   75.7496  219.9739 H   0  0  0  0  0  0  0  0  0  0  0  0
  144.1142   75.9449  220.4253 H   0  0  0  0  0  0  0  0  0  0  0  0
  144.7110   76.0260  218.2640 H   0  0  0  0  0  0  0  0  0  0  0  0
  142.2360   76.1775  216.9681 H   0  0  0  0  0  0  0  0  0  0  0  0
  143.7018   75.1718  216.5711 H   0  0  0  0  0  0  0  0  0  0  0  0
  141.3384   74.4496  218.3312 H   0  0  0  0  0  0  0  0  0  0  0  0
  141.9277   73.6363  216.8371 H   0  0  0  0  0  0  0  0  0  0  0  0
  140.0376   76.4778  219.3882 H   0  0  0  0  0  0  0  0  0  0  0  0
  139.2075   77.6431  220.5299 H   0  0  0  0  0  0  0  0  0  0  0  0
  142.1356   77.5777  219.7641 H   0  0  0  0  0  0  0  0  0  0  0  0
  140.9415   78.8348  219.3710 H   0  0  0  0  0  0  0  0  0  0  0  0
  142.1404   80.4987  220.4764 H   0  0  0  0  0  0  0  0  0  0  0  0
  142.6106   81.7081  222.5805 H   0  0  0  0  0  0  0  0  0  0  0  0
  142.1829   80.5602  224.7440 H   0  0  0  0  0  0  0  0  0  0  0  0
  141.3074   78.2519  224.7655 H   0  0  0  0  0  0  0  0  0  0  0  0
  141.4773   76.0241  223.1403 H   0  0  0  0  0  0  0  0  0  0  0  0
  139.8012   76.6846  223.3443 H   0  0  0  0  0  0  0  0  0  0  0  0
  141.6967   71.4078  224.0589 H   0  0  0  0  0  0  0  0  0  0  0  0
  140.9308   72.9425  224.6745 H   0  0  0  0  0  0  0  0  0  0  0  0
  1  2  2  0
  2  3  1  0
  3  4  2  0
  4  5  1  0
  5  6  2  0
  5  7  1  0
  7  8  1  0
  8  9  1  0
  9 10  1  0
 10 11  2  0
 11 12  1  0
 12 13  1  0
 13 14  1  0
 14 15  1  0
 15 16  1  0
 16 17  1  0
 17 18  1  0
 18 19  1  0
 19 20  1  0
 20 21  1  0
 12 22  2  0
 22 23  1  0
 23 24  1  0
 24 25  1  0
 25 26  1  0
 26 27  1  0
 27 28  2  0
 28 29  1  0
 29 30  2  0
 30 31  1  0
 31 32  2  0
 32 33  1  0
 23 34  2  0
  9 35  1  0
  6  1  1  0
 34 10  1  0
 35  4  1  0
 21 16  1  0
 33 24  1  0
 32 27  1  0
  1 36  1  0
  2 37  1  0
  3 38  1  0
  6 39  1  0
  7 40  1  0
  7 41  1  0
  8 42  1  0
  8 43  1  0
 13 44  1  0
 14 45  1  0
 14 46  1  0
 15 47  1  0
 15 48  1  0
 16 49  1  0
 17 50  1  0
 17 51  1  0
 18 52  1  0
 18 53  1  0
 19 54  1  0
 20 55  1  0
 20 56  1  0
 21 57  1  0
 21 58  1  0
 25 59  1  0
 25 60  1  0
 26 61  1  0
 26 62  1  0
 28 63  1  0
 29 64  1  0
 30 65  1  0
 31 66  1  0
 33 67  1  0
 33 68  1  0
 35 69  1  0
 35 70  1  0
M  END
>  <smiles>  (49) 
c1ccc2c(c1)CCN(c1nc(NCCC3CCNCC3)nc(N3CCc4ccccc4C3)n1)C2

>  <score_type>  (49) 
oracle

>  <origin>  (49) 
autodockgpu

>  <m_score__min__energy>  (49) 
-10.140000000000001

>  <m_primary>  (49) 
energy

>  <rmsd>  (49) 
4.8789441567638665

>  <m_score__min__rmsd>  (49) 
4.8789441567638665

>  <meeko>  (49) 
{"free_energy": -9.17, "intermolecular_energy": -10.96, "internal_energy": -2.06, "cluster_size": 43, "cluster_id": 1, "rank_in_cluster": 27}

>  <energy>  (49) 
-9.23

>  <cluster_rmsd>  (49) 
1.68

>  <cluster>  (49) 
2

$$$$

     RDKit          3D

 70 75  0  0  0  0  0  0  0  0999 V2000
  140.5180   80.8810  222.7170 C   0  0  0  0  0  0  0  0  0  0  0  0
  141.7820   80.3250  222.7040 C   0  0  0  0  0  0  0  0  0  0  0  0
  141.9370   78.9550  222.6950 C   0  0  0  0  0  0  0  0  0  0  0  0
  140.8090   78.1560  222.7000 C   0  0  0  0  0  0  0  0  0  0  0  0
  139.5490   78.7400  222.7130 C   0  0  0  0  0  0  0  0  0  0  0  0
  139.3690   80.1070  222.7220 C   0  0  0  0  0  0  0  0  0  0  0  0
  138.3900   77.7840  222.7170 C   0  0  0  0  0  0  0  0  0  0  0  0
  138.6760   76.7800  221.6050 C   0  0  0  0  0  0  0  0  0  0  0  0
  139.8420   76.0450  221.9900 N   0  0  0  0  0  0  0  0  0  0  0  0
  139.9410   74.6640  221.6820 C   0  0  0  0  0  0  0  0  0  0  0  0
  140.0000   74.2570  220.4170 N   0  0  0  0  0  0  0  0  0  0  0  0
  140.0970   72.9350  220.0880 C   0  0  0  0  0  0  0  0  0  0  0  0
  140.1640   72.5300  218.7190 N   0  0  0  0  0  0  0  0  0  0  0  0
  141.4080   72.3400  218.0060 C   0  0  0  0  0  0  0  0  0  0  0  0
  142.4330   71.7520  218.9160 C   0  0  0  0  0  0  0  0  0  0  0  0
  143.6070   72.6700  219.1710 C   0  0  0  0  0  0  0  0  0  0  0  0
  144.8910   71.9700  219.4560 C   0  0  0  0  0  0  0  0  0  0  0  0
  145.7100   72.6810  220.5140 C   0  0  0  0  0  0  0  0  0  0  0  0
  145.6410   74.1100  220.4400 N   0  0  0  0  0  0  0  0  0  0  0  0
  144.3200   74.6610  220.4610 C   0  0  0  0  0  0  0  0  0  0  0  0
  143.2390   73.6080  220.2890 C   0  0  0  0  0  0  0  0  0  0  0  0
  140.1280   72.0500  221.0970 N   0  0  0  0  0  0  0  0  0  0  0  0
  140.0710   72.4140  222.3880 C   0  0  0  0  0  0  0  0  0  0  0  0
  140.1050   71.4590  223.4580 N   0  0  0  0  0  0  0  0  0  0  0  0
  139.5420   70.1430  223.3020 C   0  0  0  0  0  0  0  0  0  0  0  0
  138.6280   69.7350  224.4210 C   0  0  0  0  0  0  0  0  0  0  0  0
  139.3570   69.9960  225.6940 C   0  0  0  0  0  0  0  0  0  0  0  0
  139.0250   69.2020  226.7740 C   0  0  0  0  0  0  0  0  0  0  0  0
  139.6310   69.3530  227.9950 C   0  0  0  0  0  0  0  0  0  0  0  0
  140.5910   70.3240  228.1270 C   0  0  0  0  0  0  0  0  0  0  0  0
  140.9240   71.1200  227.0430 C   0  0  0  0  0  0  0  0  0  0  0  0
  140.3220   70.9770  225.8140 C   0  0  0  0  0  0  0  0  0  0  0  0
  140.7220   71.8580  224.6970 C   0  0  0  0  0  0  0  0  0  0  0  0
  139.9770   73.7290  222.6530 N   0  0  0  0  0  0  0  0  0  0  0  0
  140.9270   76.6930  222.6920 C   0  0  0  0  0  0  0  0  0  0  0  0
  140.4201   81.9766  222.7236 H   0  0  0  0  0  0  0  0  0  0  0  0
  142.6679   80.9771  222.7008 H   0  0  0  0  0  0  0  0  0  0  0  0
  142.9409   78.5056  222.6841 H   0  0  0  0  0  0  0  0  0  0  0  0
  138.3662   80.5591  222.7326 H   0  0  0  0  0  0  0  0  0  0  0  0
  138.3199   77.2710  223.6875 H   0  0  0  0  0  0  0  0  0  0  0  0
  137.4347   78.3051  222.5563 H   0  0  0  0  0  0  0  0  0  0  0  0
  137.8222   76.0969  221.4849 H   0  0  0  0  0  0  0  0  0  0  0  0
  138.8367   77.2940  220.6458 H   0  0  0  0  0  0  0  0  0  0  0  0
  139.2420   72.3700  218.2290 H   0  0  0  0  0  0  0  0  0  0  0  0
  141.2413   71.6601  217.1575 H   0  0  0  0  0  0  0  0  0  0  0  0
  141.7664   73.3133  217.6395 H   0  0  0  0  0  0  0  0  0  0  0  0
  141.9538   71.5230  219.8793 H   0  0  0  0  0  0  0  0  0  0  0  0
  142.8265   70.8510  218.4228 H   0  0  0  0  0  0  0  0  0  0  0  0
  143.8007   73.2221  218.2396 H   0  0  0  0  0  0  0  0  0  0  0  0
  144.6686   70.9512  219.8060 H   0  0  0  0  0  0  0  0  0  0  0  0
  145.4802   71.9555  218.5272 H   0  0  0  0  0  0  0  0  0  0  0  0
  145.3446   72.3676  221.5031 H   0  0  0  0  0  0  0  0  0  0  0  0
  146.7607   72.4034  220.3437 H   0  0  0  0  0  0  0  0  0  0  0  0
  146.1860   74.4510  219.6260 H   0  0  0  0  0  0  0  0  0  0  0  0
  144.1662   75.1681  221.4250 H   0  0  0  0  0  0  0  0  0  0  0  0
  144.2394   75.3590  219.6147 H   0  0  0  0  0  0  0  0  0  0  0  0
  143.1343   73.0374  221.2236 H   0  0  0  0  0  0  0  0  0  0  0  0
  142.2876   74.1037  220.0459 H   0  0  0  0  0  0  0  0  0  0  0  0
  138.9705   70.1201  222.3624 H   0  0  0  0  0  0  0  0  0  0  0  0
  140.3831   69.4341  223.3026 H   0  0  0  0  0  0  0  0  0  0  0  0
  137.7017   70.3273  224.3876 H   0  0  0  0  0  0  0  0  0  0  0  0
  138.3523   68.6735  224.3363 H   0  0  0  0  0  0  0  0  0  0  0  0
  138.2536   68.4274  226.6516 H   0  0  0  0  0  0  0  0  0  0  0  0
  139.3547   68.7127  228.8457 H   0  0  0  0  0  0  0  0  0  0  0  0
  141.0962   70.4706  229.0931 H   0  0  0  0  0  0  0  0  0  0  0  0
  141.6963   71.8930  227.1692 H   0  0  0  0  0  0  0  0  0  0  0  0
  140.4193   72.8895  224.9303 H   0  0  0  0  0  0  0  0  0  0  0  0
  141.8130   71.7857  224.5763 H   0  0  0  0  0  0  0  0  0  0  0  0
  140.9349   76.3358  223.7324 H   0  0  0  0  0  0  0  0  0  0  0  0
  141.8589   76.4398  222.1652 H   0  0  0  0  0  0  0  0  0  0  0  0
  1  2  2  0
  2  3  1  0
  3  4  2  0
  4  5  1  0
  5  6  2  0
  5  7  1  0
  7  8  1  0
  8  9  1  0
  9 10  1  0
 10 11  2  0
 11 12  1  0
 12 13  1  0
 13 14  1  0
 14 15  1  0
 15 16  1  0
 16 17  1  0
 17 18  1  0
 18 19  1  0
 19 20  1  0
 20 21  1  0
 12 22  2  0
 22 23  1  0
 23 24  1  0
 24 25  1  0
 25 26  1  0
 26 27  1  0
 27 28  2  0
 28 29  1  0
 29 30  2  0
 30 31  1  0
 31 32  2  0
 32 33  1  0
 23 34  2  0
  9 35  1  0
  6  1  1  0
 34 10  1  0
 35  4  1  0
 21 16  1  0
 33 24  1  0
 32 27  1  0
  1 36  1  0
  2 37  1  0
  3 38  1  0
  6 39  1  0
  7 40  1  0
  7 41  1  0
  8 42  1  0
  8 43  1  0
 13 44  1  0
 14 45  1  0
 14 46  1  0
 15 47  1  0
 15 48  1  0
 16 49  1  0
 17 50  1  0
 17 51  1  0
 18 52  1  0
 18 53  1  0
 19 54  1  0
 20 55  1  0
 20 56  1  0
 21 57  1  0
 21 58  1  0
 25 59  1  0
 25 60  1  0
 26 61  1  0
 26 62  1  0
 28 63  1  0
 29 64  1  0
 30 65  1  0
 31 66  1  0
 33 67  1  0
 33 68  1  0
 35 69  1  0
 35 70  1  0
M  END
>  <smiles>  (50) 
c1ccc2c(c1)CCN(c1nc(NCCC3CCNCC3)nc(N3CCc4ccccc4C3)n1)C2

>  <score_type>  (50) 
oracle

>  <origin>  (50) 
autodockgpu

>  <m_score__min__energy>  (50) 
-10.140000000000001

>  <m_primary>  (50) 
energy

>  <rmsd>  (50) 
6.098644571732076

>  <m_score__min__rmsd>  (50) 
6.098644571732076

>  <meeko>  (50) 
{"free_energy": -9.54, "intermolecular_energy": -11.33, "internal_energy": -1.48, "cluster_size": 43, "cluster_id": 1, "rank_in_cluster": 19}

>  <energy>  (50) 
-8.3

>  <cluster_rmsd>  (50) 
0.0

>  <cluster>  (50) 
3

$$$$
