
     RDKit          3D

 44 46  0  0  0  0  0  0  0  0999 V2000
  139.9140   73.5430  220.4770 O   0  0  0  0  0  0  0  0  0  0  0  0
  139.6690   73.6430  221.7090 C   0  0  0  0  0  0  0  0  0  0  0  0
  139.4030   74.9270  222.2540 N   0  0  0  0  0  0  0  0  0  0  0  0
  139.4260   76.0590  221.3690 C   0  0  0  0  0  0  0  0  0  0  0  0
  138.8750   77.2890  222.0030 C   0  0  0  0  0  0  0  0  0  0  0  0
  137.6480   77.5710  221.9890 O   0  0  0  0  0  0  0  0  0  0  0  0
  139.8020   78.1580  222.6420 N   0  0  0  0  0  0  0  0  0  0  0  0
  141.2320   77.8870  222.6920 C   0  0  0  0  0  0  0  0  0  0  0  0
  141.8200   78.6890  223.8290 C   0  0  0  0  0  0  0  0  0  0  0  0
  141.6980   80.1510  223.4670 C   0  0  0  0  0  0  0  0  0  0  0  0
  140.3480   80.5120  222.9380 C   0  0  0  0  0  0  0  0  0  0  0  0
  139.3670   79.3920  223.2950 C   0  0  0  0  0  0  0  0  0  0  0  0
  139.6570   72.4640  222.5720 C   0  0  0  0  0  0  0  0  0  0  0  0
  138.9170   71.3560  222.1740 C   0  0  0  0  0  0  0  0  0  0  0  0
  138.8970   70.2480  222.9730 C   0  0  0  0  0  0  0  0  0  0  0  0
  139.6060   70.2400  224.1550 C   0  0  0  0  0  0  0  0  0  0  0  0
  139.5960   69.1360  224.9680 C   0  0  0  0  0  0  0  0  0  0  0  0
  140.3010   69.1020  226.1630 C   0  0  0  0  0  0  0  0  0  0  0  0
  140.2940   67.9030  227.0530 C   0  0  0  0  0  0  0  0  0  0  0  0
  141.5430   67.4030  227.2760 F   0  0  0  0  0  0  0  0  0  0  0  0
  139.4140   66.9830  226.5160 F   0  0  0  0  0  0  0  0  0  0  0  0
  139.7820   68.2830  228.2860 F   0  0  0  0  0  0  0  0  0  0  0  0
  141.0250   70.2280  226.5210 C   0  0  0  0  0  0  0  0  0  0  0  0
  141.0660   71.3660  225.7360 C   0  0  0  0  0  0  0  0  0  0  0  0
  140.3490   71.3480  224.5580 C   0  0  0  0  0  0  0  0  0  0  0  0
  140.3330   72.4120  223.7340 N   0  0  0  0  0  0  0  0  0  0  0  0
  139.1970   75.0140  223.2930 H   0  0  0  0  0  0  0  0  0  0  0  0
  140.4668   76.2521  221.0699 H   0  0  0  0  0  0  0  0  0  0  0  0
  138.7943   75.8182  220.5013 H   0  0  0  0  0  0  0  0  0  0  0  0
  141.4027   76.8141  222.8646 H   0  0  0  0  0  0  0  0  0  0  0  0
  141.7075   78.1678  221.7406 H   0  0  0  0  0  0  0  0  0  0  0  0
  141.2667   78.4849  224.7575 H   0  0  0  0  0  0  0  0  0  0  0  0
  142.8737   78.4171  223.9894 H   0  0  0  0  0  0  0  0  0  0  0  0
  141.8938   80.7523  224.3671 H   0  0  0  0  0  0  0  0  0  0  0  0
  142.4283   80.3541  222.6698 H   0  0  0  0  0  0  0  0  0  0  0  0
  140.0129   81.4565  223.3915 H   0  0  0  0  0  0  0  0  0  0  0  0
  140.3938   80.6371  221.8461 H   0  0  0  0  0  0  0  0  0  0  0  0
  139.3518   79.2476  224.3854 H   0  0  0  0  0  0  0  0  0  0  0  0
  138.3557   79.6585  222.9541 H   0  0  0  0  0  0  0  0  0  0  0  0
  138.3552   71.3714  221.2284 H   0  0  0  0  0  0  0  0  0  0  0  0
  138.3158   69.3634  222.6734 H   0  0  0  0  0  0  0  0  0  0  0  0
  139.0135   68.2535  224.6650 H   0  0  0  0  0  0  0  0  0  0  0  0
  141.5886   70.2163  227.4656 H   0  0  0  0  0  0  0  0  0  0  0  0
  141.6469   72.2496  226.0389 H   0  0  0  0  0  0  0  0  0  0  0  0
  1  2  2  0
  2  3  1  0
  3  4  1  0
  4  5  1  0
  5  6  2  0
  5  7  1  0
  7  8  1  0
  8  9  1  0
  9 10  1  0
 10 11  1  0
 11 12  1  0
  2 13  1  0
 13 14  2  0
 14 15  1  0
 15 16  2  0
 16 17  1  0
 17 18  2  0
 18 19  1  0
 19 20  1  0
 19 21  1  0
 19 22  1  0
 18 23  1  0
 23 24  2  0
 24 25  1  0
 25 26  2  0
 12  7  1  0
 26 13  1  0
 25 16  1  0
  3 27  1  0
  4 28  1  0
  4 29  1  0
  8 30  1  0
  8 31  1  0
  9 32  1  0
  9 33  1  0
 10 34  1  0
 10 35  1  0
 11 36  1  0
 11 37  1  0
 12 38  1  0
 12 39  1  0
 14 40  1  0
 15 41  1  0
 17 42  1  0
 23 43  1  0
 24 44  1  0
M  END
>  <smiles>  (1) 
O=C(NCC(=O)N1CCCCC1)c1ccc2cc(C(F)(F)F)ccc2n1

>  <score_type>  (1) 
oracle

>  <origin>  (1) 
autodockgpu

>  <m_score__min__energy>  (1) 
-7.3200000000000003

>  <m_primary>  (1) 
energy

>  <rmsd>  (1) 
4.1134357989512225

>  <m_score__min__rmsd>  (1) 
4.1134357989512225

>  <meeko>  (1) 
{"free_energy": -7.19, "intermolecular_energy": -8.38, "internal_energy": -0.82, "cluster_size": 28, "cluster_id": 1, "rank_in_cluster": 16}

>  <energy>  (1) 
-7.32

>  <cluster_rmsd>  (1) 
0.0

>  <cluster>  (1) 
1

$$$$

     RDKit          3D

 44 46  0  0  0  0  0  0  0  0999 V2000
  140.1260   73.0930  220.4660 O   0  0  0  0  0  0  0  0  0  0  0  0
  139.8090   73.3020  221.6670 C   0  0  0  0  0  0  0  0  0  0  0  0
  139.4800   74.6230  222.0710 N   0  0  0  0  0  0  0  0  0  0  0  0
  139.5240   75.6660  221.0830 C   0  0  0  0  0  0  0  0  0  0  0  0
  140.7590   76.4930  221.1830 C   0  0  0  0  0  0  0  0  0  0  0  0
  141.8480   76.1580  220.6460 O   0  0  0  0  0  0  0  0  0  0  0  0
  140.6670   77.7050  221.9210 N   0  0  0  0  0  0  0  0  0  0  0  0
  139.4370   78.1460  222.5640 C   0  0  0  0  0  0  0  0  0  0  0  0
  139.5410   79.6350  222.8000 C   0  0  0  0  0  0  0  0  0  0  0  0
  140.6330   79.8590  223.8200 C   0  0  0  0  0  0  0  0  0  0  0  0
  141.8720   79.0750  223.5330 C   0  0  0  0  0  0  0  0  0  0  0  0
  141.8200   78.5900  222.0810 C   0  0  0  0  0  0  0  0  0  0  0  0
  139.7780   72.2100  222.6390 C   0  0  0  0  0  0  0  0  0  0  0  0
  139.0870   71.0490  222.3110 C   0  0  0  0  0  0  0  0  0  0  0  0
  139.0500   70.0210  223.2100 C   0  0  0  0  0  0  0  0  0  0  0  0
  139.6920   70.1460  224.4230 C   0  0  0  0  0  0  0  0  0  0  0  0
  139.6650   69.1240  225.3370 C   0  0  0  0  0  0  0  0  0  0  0  0
  140.3040   69.2240  226.5660 C   0  0  0  0  0  0  0  0  0  0  0  0
  140.2770   68.1150  227.5650 C   0  0  0  0  0  0  0  0  0  0  0  0
  140.0330   68.5530  228.8330 F   0  0  0  0  0  0  0  0  0  0  0  0
  141.4540   67.4020  227.4380 F   0  0  0  0  0  0  0  0  0  0  0  0
  139.2410   67.2530  227.2250 F   0  0  0  0  0  0  0  0  0  0  0  0
  140.9790   70.4000  226.8510 C   0  0  0  0  0  0  0  0  0  0  0  0
  141.0360   71.4590  225.9620 C   0  0  0  0  0  0  0  0  0  0  0  0
  140.3860   71.3080  224.7560 C   0  0  0  0  0  0  0  0  0  0  0  0
  140.3900   72.2880  223.8340 N   0  0  0  0  0  0  0  0  0  0  0  0
  139.2120   74.8010  223.0830 H   0  0  0  0  0  0  0  0  0  0  0  0
  139.4861   75.2076  220.0838 H   0  0  0  0  0  0  0  0  0  0  0  0
  138.6628   76.3280  221.2564 H   0  0  0  0  0  0  0  0  0  0  0  0
  138.5773   77.9305  221.9125 H   0  0  0  0  0  0  0  0  0  0  0  0
  139.2937   77.6171  223.5178 H   0  0  0  0  0  0  0  0  0  0  0  0
  139.7944   80.1473  221.8601 H   0  0  0  0  0  0  0  0  0  0  0  0
  138.5837   80.0371  223.1633 H   0  0  0  0  0  0  0  0  0  0  0  0
  140.8896   80.9286  223.8291 H   0  0  0  0  0  0  0  0  0  0  0  0
  140.2479   79.5199  224.7930 H   0  0  0  0  0  0  0  0  0  0  0  0
  142.7561   79.7131  223.6788 H   0  0  0  0  0  0  0  0  0  0  0  0
  141.9371   78.2137  224.2141 H   0  0  0  0  0  0  0  0  0  0  0  0
  141.7201   79.4530  221.4063 H   0  0  0  0  0  0  0  0  0  0  0  0
  142.7447   78.0475  221.8347 H   0  0  0  0  0  0  0  0  0  0  0  0
  138.5769   70.9594  221.3406 H   0  0  0  0  0  0  0  0  0  0  0  0
  138.5087   69.0950  222.9661 H   0  0  0  0  0  0  0  0  0  0  0  0
  139.1223   68.1996  225.0899 H   0  0  0  0  0  0  0  0  0  0  0  0
  141.4890   70.4955  227.8209 H   0  0  0  0  0  0  0  0  0  0  0  0
  141.5782   72.3840  226.2079 H   0  0  0  0  0  0  0  0  0  0  0  0
  1  2  2  0
  2  3  1  0
  3  4  1  0
  4  5  1  0
  5  6  2  0
  5  7  1  0
  7  8  1  0
  8  9  1  0
  9 10  1  0
 10 11  1  0
 11 12  1  0
  2 13  1  0
 13 14  2  0
 14 15  1  0
 15 16  2  0
 16 17  1  0
 17 18  2  0
 18 19  1  0
 19 20  1  0
 19 21  1  0
 19 22  1  0
 18 23  1  0
 23 24  2  0
 24 25  1  0
 25 26  2  0
 12  7  1  0
 26 13  1  0
 25 16  1  0
  3 27  1  0
  4 28  1  0
  4 29  1  0
  8 30  1  0
  8 31  1  0
  9 32  1  0
  9 33  1  0
 10 34  1  0
 10 35  1  0
 11 36  1  0
 11 37  1  0
 12 38  1  0
 12 39  1  0
 14 40  1  0
 15 41  1  0
 17 42  1  0
 23 43  1  0
 24 44  1  0
M  END
>  <smiles>  (2) 
O=C(NCC(=O)N1CCCCC1)c1ccc2cc(C(F)(F)F)ccc2n1

>  <score_type>  (2) 
oracle

>  <origin>  (2) 
autodockgpu

>  <m_score__min__energy>  (2) 
-7.3200000000000003

>  <m_primary>  (2) 
energy

>  <rmsd>  (2) 
3.77291739636187

>  <m_score__min__rmsd>  (2) 
3.77291739636187

>  <meeko>  (2) 
{"free_energy": -7.19, "intermolecular_energy": -8.38, "internal_energy": -0.84, "cluster_size": 28, "cluster_id": 1, "rank_in_cluster": 17}

>  <energy>  (2) 
-7.28

>  <cluster_rmsd>  (2) 
0.17

>  <cluster>  (2) 
1

$$$$

     RDKit          3D

 44 46  0  0  0  0  0  0  0  0999 V2000
  140.4420   73.6580  220.6690 O   0  0  0  0  0  0  0  0  0  0  0  0
  139.8650   73.6810  221.7880 C   0  0  0  0  0  0  0  0  0  0  0  0
  139.2870   74.8980  222.2380 N   0  0  0  0  0  0  0  0  0  0  0  0
  139.3900   76.0530  221.3880 C   0  0  0  0  0  0  0  0  0  0  0  0
  138.8480   77.2830  222.0310 C   0  0  0  0  0  0  0  0  0  0  0  0
  137.6230   77.5710  222.0250 O   0  0  0  0  0  0  0  0  0  0  0  0
  139.7830   78.1430  222.6690 N   0  0  0  0  0  0  0  0  0  0  0  0
  141.2120   77.8650  222.7100 C   0  0  0  0  0  0  0  0  0  0  0  0
  141.8100   78.6590  223.8480 C   0  0  0  0  0  0  0  0  0  0  0  0
  141.6940   80.1230  223.4940 C   0  0  0  0  0  0  0  0  0  0  0  0
  140.3430   80.4940  222.9740 C   0  0  0  0  0  0  0  0  0  0  0  0
  139.3580   79.3770  223.3310 C   0  0  0  0  0  0  0  0  0  0  0  0
  139.7840   72.4820  222.6190 C   0  0  0  0  0  0  0  0  0  0  0  0
  139.0900   71.3800  222.1310 C   0  0  0  0  0  0  0  0  0  0  0  0
  139.0060   70.2530  222.8990 C   0  0  0  0  0  0  0  0  0  0  0  0
  139.6080   70.2200  224.1390 C   0  0  0  0  0  0  0  0  0  0  0  0
  139.5340   69.0970  224.9210 C   0  0  0  0  0  0  0  0  0  0  0  0
  140.1300   69.0380  226.1740 C   0  0  0  0  0  0  0  0  0  0  0  0
  140.0530   67.8170  227.0310 C   0  0  0  0  0  0  0  0  0  0  0  0
  139.9490   68.1100  228.3580 F   0  0  0  0  0  0  0  0  0  0  0  0
  141.1330   67.0130  226.7200 F   0  0  0  0  0  0  0  0  0  0  0  0
  138.9080   67.1140  226.6780 F   0  0  0  0  0  0  0  0  0  0  0  0
  140.8110   70.1580  226.6210 C   0  0  0  0  0  0  0  0  0  0  0  0
  140.9140   71.3150  225.8690 C   0  0  0  0  0  0  0  0  0  0  0  0
  140.3050   71.3220  224.6320 C   0  0  0  0  0  0  0  0  0  0  0  0
  140.3550   72.4050  223.8350 N   0  0  0  0  0  0  0  0  0  0  0  0
  138.8000   74.9200  223.1810 H   0  0  0  0  0  0  0  0  0  0  0  0
  140.4499   76.2193  221.1452 H   0  0  0  0  0  0  0  0  0  0  0  0
  138.7946   75.8576  220.4839 H   0  0  0  0  0  0  0  0  0  0  0  0
  141.3786   76.7905  222.8766 H   0  0  0  0  0  0  0  0  0  0  0  0
  141.6837   78.1480  221.7574 H   0  0  0  0  0  0  0  0  0  0  0  0
  141.2603   78.4534  224.7784 H   0  0  0  0  0  0  0  0  0  0  0  0
  142.8631   78.3809  224.0015 H   0  0  0  0  0  0  0  0  0  0  0  0
  141.8979   80.7187  224.3960 H   0  0  0  0  0  0  0  0  0  0  0  0
  142.4211   80.3261  222.6939 H   0  0  0  0  0  0  0  0  0  0  0  0
  140.0153   81.4380  223.4340 H   0  0  0  0  0  0  0  0  0  0  0  0
  140.3834   80.6245  221.8825 H   0  0  0  0  0  0  0  0  0  0  0  0
  139.3482   79.2273  224.4207 H   0  0  0  0  0  0  0  0  0  0  0  0
  138.3462   79.6505  222.9970 H   0  0  0  0  0  0  0  0  0  0  0  0
  138.6148   71.4152  221.1395 H   0  0  0  0  0  0  0  0  0  0  0  0
  138.4590   69.3735  222.5286 H   0  0  0  0  0  0  0  0  0  0  0  0
  138.9879   68.2188  224.5462 H   0  0  0  0  0  0  0  0  0  0  0  0
  141.2882   70.1266  227.6116 H   0  0  0  0  0  0  0  0  0  0  0  0
  141.4598   72.1938  226.2430 H   0  0  0  0  0  0  0  0  0  0  0  0
  1  2  2  0
  2  3  1  0
  3  4  1  0
  4  5  1  0
  5  6  2  0
  5  7  1  0
  7  8  1  0
  8  9  1  0
  9 10  1  0
 10 11  1  0
 11 12  1  0
  2 13  1  0
 13 14  2  0
 14 15  1  0
 15 16  2  0
 16 17  1  0
 17 18  2  0
 18 19  1  0
 19 20  1  0
 19 21  1  0
 19 22  1  0
 18 23  1  0
 23 24  2  0
 24 25  1  0
 25 26  2  0
 12  7  1  0
 26 13  1  0
 25 16  1  0
  3 27  1  0
  4 28  1  0
  4 29  1  0
  8 30  1  0
  8 31  1  0
  9 32  1  0
  9 33  1  0
 10 34  1  0
 10 35  1  0
 11 36  1  0
 11 37  1  0
 12 38  1  0
 12 39  1  0
 14 40  1  0
 15 41  1  0
 17 42  1  0
 23 43  1  0
 24 44  1  0
M  END
>  <smiles>  (3) 
O=C(NCC(=O)N1CCCCC1)c1ccc2cc(C(F)(F)F)ccc2n1

>  <score_type>  (3) 
oracle

>  <origin>  (3) 
autodockgpu

>  <m_score__min__energy>  (3) 
-7.3200000000000003

>  <m_primary>  (3) 
energy

>  <rmsd>  (3) 
4.126336051168083

>  <m_score__min__rmsd>  (3) 
4.126336051168083

>  <meeko>  (3) 
{"free_energy": -7.24, "intermolecular_energy": -8.43, "internal_energy": -0.8, "cluster_size": 28, "cluster_id": 1, "rank_in_cluster": 9}

>  <energy>  (3) 
-7.27

>  <cluster_rmsd>  (3) 
0.11

>  <cluster>  (3) 
1

$$$$

     RDKit          3D

 44 46  0  0  0  0  0  0  0  0999 V2000
  135.4160   68.7440  224.6330 O   0  0  0  0  0  0  0  0  0  0  0  0
  135.8170   69.9140  224.8730 C   0  0  0  0  0  0  0  0  0  0  0  0
  137.1700   70.2460  224.5950 N   0  0  0  0  0  0  0  0  0  0  0  0
  138.0220   69.2250  224.0510 C   0  0  0  0  0  0  0  0  0  0  0  0
  138.9220   68.6280  225.0760 C   0  0  0  0  0  0  0  0  0  0  0  0
  138.9560   67.3920  225.3160 O   0  0  0  0  0  0  0  0  0  0  0  0
  139.7650   69.5200  225.7950 N   0  0  0  0  0  0  0  0  0  0  0  0
  139.7720   70.9580  225.5640 C   0  0  0  0  0  0  0  0  0  0  0  0
  141.0770   71.5090  226.0880 C   0  0  0  0  0  0  0  0  0  0  0  0
  141.0720   71.3410  227.5900 C   0  0  0  0  0  0  0  0  0  0  0  0
  140.6230   69.9850  228.0260 C   0  0  0  0  0  0  0  0  0  0  0  0
  140.6860   69.0380  226.8240 C   0  0  0  0  0  0  0  0  0  0  0  0
  134.9150   70.9210  225.4270 C   0  0  0  0  0  0  0  0  0  0  0  0
  133.8630   70.4990  226.2320 C   0  0  0  0  0  0  0  0  0  0  0  0
  133.0120   71.4300  226.7570 C   0  0  0  0  0  0  0  0  0  0  0  0
  133.2050   72.7680  226.4850 C   0  0  0  0  0  0  0  0  0  0  0  0
  132.3600   73.7150  227.0040 C   0  0  0  0  0  0  0  0  0  0  0  0
  132.5330   75.0680  226.7460 C   0  0  0  0  0  0  0  0  0  0  0  0
  131.6160   76.1040  227.3070 C   0  0  0  0  0  0  0  0  0  0  0  0
  130.3170   75.9160  226.9390 F   0  0  0  0  0  0  0  0  0  0  0  0
  132.1190   77.3450  226.9640 F   0  0  0  0  0  0  0  0  0  0  0  0
  131.6630   76.0170  228.6930 F   0  0  0  0  0  0  0  0  0  0  0  0
  133.5940   75.4440  225.9380 C   0  0  0  0  0  0  0  0  0  0  0  0
  134.4730   74.5270  225.3920 C   0  0  0  0  0  0  0  0  0  0  0  0
  134.2580   73.1950  225.6790 C   0  0  0  0  0  0  0  0  0  0  0  0
  135.0650   72.2360  225.1890 N   0  0  0  0  0  0  0  0  0  0  0  0
  137.5100   71.2320  224.7970 H   0  0  0  0  0  0  0  0  0  0  0  0
  137.3923   68.4287  223.6275 H   0  0  0  0  0  0  0  0  0  0  0  0
  138.6546   69.6922  223.2819 H   0  0  0  0  0  0  0  0  0  0  0  0
  139.6859   71.1634  224.4868 H   0  0  0  0  0  0  0  0  0  0  0  0
  138.9232   71.4317  226.0789 H   0  0  0  0  0  0  0  0  0  0  0  0
  141.9208   70.9548  225.6511 H   0  0  0  0  0  0  0  0  0  0  0  0
  141.1855   72.5697  225.8177 H   0  0  0  0  0  0  0  0  0  0  0  0
  142.0925   71.5092  227.9645 H   0  0  0  0  0  0  0  0  0  0  0  0
  140.3578   72.0706  227.9994 H   0  0  0  0  0  0  0  0  0  0  0  0
  141.2835   69.6150  228.8240 H   0  0  0  0  0  0  0  0  0  0  0  0
  139.5934   70.0361  228.4099 H   0  0  0  0  0  0  0  0  0  0  0  0
  141.7101   69.0172  226.4231 H   0  0  0  0  0  0  0  0  0  0  0  0
  140.4013   68.0216  227.1338 H   0  0  0  0  0  0  0  0  0  0  0  0
  133.7177   69.4294  226.4435 H   0  0  0  0  0  0  0  0  0  0  0  0
  132.1743   71.1128  227.3955 H   0  0  0  0  0  0  0  0  0  0  0  0
  131.5230   73.3941  227.6416 H   0  0  0  0  0  0  0  0  0  0  0  0
  133.7426   76.5125  225.7228 H   0  0  0  0  0  0  0  0  0  0  0  0
  135.3103   74.8468  224.7543 H   0  0  0  0  0  0  0  0  0  0  0  0
  1  2  2  0
  2  3  1  0
  3  4  1  0
  4  5  1  0
  5  6  2  0
  5  7  1  0
  7  8  1  0
  8  9  1  0
  9 10  1  0
 10 11  1  0
 11 12  1  0
  2 13  1  0
 13 14  2  0
 14 15  1  0
 15 16  2  0
 16 17  1  0
 17 18  2  0
 18 19  1  0
 19 20  1  0
 19 21  1  0
 19 22  1  0
 18 23  1  0
 23 24  2  0
 24 25  1  0
 25 26  2  0
 12  7  1  0
 26 13  1  0
 25 16  1  0
  3 27  1  0
  4 28  1  0
  4 29  1  0
  8 30  1  0
  8 31  1  0
  9 32  1  0
  9 33  1  0
 10 34  1  0
 10 35  1  0
 11 36  1  0
 11 37  1  0
 12 38  1  0
 12 39  1  0
 14 40  1  0
 15 41  1  0
 17 42  1  0
 23 43  1  0
 24 44  1  0
M  END
>  <smiles>  (4) 
O=C(NCC(=O)N1CCCCC1)c1ccc2cc(C(F)(F)F)ccc2n1

>  <score_type>  (4) 
oracle

>  <origin>  (4) 
autodockgpu

>  <m_score__min__energy>  (4) 
-7.3200000000000003

>  <m_primary>  (4) 
energy

>  <rmsd>  (4) 
8.2141659832477

>  <m_score__min__rmsd>  (4) 
8.2141659832477

>  <meeko>  (4) 
{"free_energy": -7.23, "intermolecular_energy": -8.42, "internal_energy": -0.94, "cluster_size": 19, "cluster_id": 2, "rank_in_cluster": 1}

>  <energy>  (4) 
-7.27

>  <cluster_rmsd>  (4) 
0.22

>  <cluster>  (4) 
1

$$$$

     RDKit          3D

 44 46  0  0  0  0  0  0  0  0999 V2000
  139.8370   69.6940  222.4180 O   0  0  0  0  0  0  0  0  0  0  0  0
  139.5040   70.8410  222.8160 C   0  0  0  0  0  0  0  0  0  0  0  0
  138.5410   70.9550  223.8540 N   0  0  0  0  0  0  0  0  0  0  0  0
  137.9890   69.7470  224.4040 C   0  0  0  0  0  0  0  0  0  0  0  0
  139.0340   68.8480  224.9670 C   0  0  0  0  0  0  0  0  0  0  0  0
  139.1800   67.6550  224.5930 O   0  0  0  0  0  0  0  0  0  0  0  0
  139.8860   69.3950  225.9660 N   0  0  0  0  0  0  0  0  0  0  0  0
  139.7680   70.7670  226.4410 C   0  0  0  0  0  0  0  0  0  0  0  0
  141.0810   71.1550  227.0790 C   0  0  0  0  0  0  0  0  0  0  0  0
  141.2510   70.3110  228.3220 C   0  0  0  0  0  0  0  0  0  0  0  0
  140.9470   68.8660  228.0940 C   0  0  0  0  0  0  0  0  0  0  0  0
  140.9450   68.5980  226.5860 C   0  0  0  0  0  0  0  0  0  0  0  0
  140.0920   72.0430  222.2280 C   0  0  0  0  0  0  0  0  0  0  0  0
  141.2060   71.9050  221.4080 C   0  0  0  0  0  0  0  0  0  0  0  0
  141.7660   73.0200  220.8520 C   0  0  0  0  0  0  0  0  0  0  0  0
  141.2230   74.2610  221.1080 C   0  0  0  0  0  0  0  0  0  0  0  0
  141.7720   75.3910  220.5570 C   0  0  0  0  0  0  0  0  0  0  0  0
  141.2450   76.6520  220.7990 C   0  0  0  0  0  0  0  0  0  0  0  0
  141.8380   77.8860  220.2030 C   0  0  0  0  0  0  0  0  0  0  0  0
  140.9570   78.5710  219.4210 F   0  0  0  0  0  0  0  0  0  0  0  0
  142.9990   77.5230  219.5480 F   0  0  0  0  0  0  0  0  0  0  0  0
  142.2060   78.7320  221.2420 F   0  0  0  0  0  0  0  0  0  0  0  0
  140.1340   76.7440  221.6230 C   0  0  0  0  0  0  0  0  0  0  0  0
  139.5440   75.6340  222.2010 C   0  0  0  0  0  0  0  0  0  0  0  0
  140.1060   74.4050  221.9290 C   0  0  0  0  0  0  0  0  0  0  0  0
  139.5960   73.2740  222.4500 N   0  0  0  0  0  0  0  0  0  0  0  0
  138.2590   71.9220  224.1920 H   0  0  0  0  0  0  0  0  0  0  0  0
  137.2842   70.0139  225.2052 H   0  0  0  0  0  0  0  0  0  0  0  0
  137.4872   69.2066  223.5878 H   0  0  0  0  0  0  0  0  0  0  0  0
  139.5512   71.4371  225.5961 H   0  0  0  0  0  0  0  0  0  0  0  0
  138.9494   70.8494  227.1712 H   0  0  0  0  0  0  0  0  0  0  0  0
  141.9087   70.9646  226.3800 H   0  0  0  0  0  0  0  0  0  0  0  0
  141.0857   72.2249  227.3343 H   0  0  0  0  0  0  0  0  0  0  0  0
  142.2920   70.3999  228.6661 H   0  0  0  0  0  0  0  0  0  0  0  0
  140.5369   70.6826  229.0716 H   0  0  0  0  0  0  0  0  0  0  0  0
  141.7142   68.2450  228.5795 H   0  0  0  0  0  0  0  0  0  0  0  0
  139.9641   68.6173  228.5207 H   0  0  0  0  0  0  0  0  0  0  0  0
  141.9185   68.8809  226.1591 H   0  0  0  0  0  0  0  0  0  0  0  0
  140.7671   67.5291  226.3970 H   0  0  0  0  0  0  0  0  0  0  0  0
  141.6313   70.9102  221.2093 H   0  0  0  0  0  0  0  0  0  0  0  0
  142.6482   72.9278  220.2015 H   0  0  0  0  0  0  0  0  0  0  0  0
  142.6535   75.2951  219.9060 H   0  0  0  0  0  0  0  0  0  0  0  0
  139.7054   77.7368  221.8249 H   0  0  0  0  0  0  0  0  0  0  0  0
  138.6619   75.7284  222.8514 H   0  0  0  0  0  0  0  0  0  0  0  0
  1  2  2  0
  2  3  1  0
  3  4  1  0
  4  5  1  0
  5  6  2  0
  5  7  1  0
  7  8  1  0
  8  9  1  0
  9 10  1  0
 10 11  1  0
 11 12  1  0
  2 13  1  0
 13 14  2  0
 14 15  1  0
 15 16  2  0
 16 17  1  0
 17 18  2  0
 18 19  1  0
 19 20  1  0
 19 21  1  0
 19 22  1  0
 18 23  1  0
 23 24  2  0
 24 25  1  0
 25 26  2  0
 12  7  1  0
 26 13  1  0
 25 16  1  0
  3 27  1  0
  4 28  1  0
  4 29  1  0
  8 30  1  0
  8 31  1  0
  9 32  1  0
  9 33  1  0
 10 34  1  0
 10 35  1  0
 11 36  1  0
 11 37  1  0
 12 38  1  0
 12 39  1  0
 14 40  1  0
 15 41  1  0
 17 42  1  0
 23 43  1  0
 24 44  1  0
M  END
>  <smiles>  (5) 
O=C(NCC(=O)N1CCCCC1)c1ccc2cc(C(F)(F)F)ccc2n1

>  <score_type>  (5) 
oracle

>  <origin>  (5) 
autodockgpu

>  <m_score__min__energy>  (5) 
-7.3200000000000003

>  <m_primary>  (5) 
energy

>  <rmsd>  (5) 
8.120284666288297

>  <m_score__min__rmsd>  (5) 
8.120284666288297

>  <meeko>  (5) 
{"free_energy": -6.7, "intermolecular_energy": -7.89, "internal_energy": -1.09, "cluster_size": 3, "cluster_id": 3, "rank_in_cluster": 2}

>  <energy>  (5) 
-7.27

>  <cluster_rmsd>  (5) 
0.2

>  <cluster>  (5) 
1

$$$$

     RDKit          3D

 44 46  0  0  0  0  0  0  0  0999 V2000
  140.2690   73.6280  220.6720 O   0  0  0  0  0  0  0  0  0  0  0  0
  139.7690   73.6690  221.8270 C   0  0  0  0  0  0  0  0  0  0  0  0
  139.2580   74.9030  222.3120 N   0  0  0  0  0  0  0  0  0  0  0  0
  139.3380   76.0530  221.4540 C   0  0  0  0  0  0  0  0  0  0  0  0
  138.8070   77.2850  222.1030 C   0  0  0  0  0  0  0  0  0  0  0  0
  137.5810   77.5680  222.1250 O   0  0  0  0  0  0  0  0  0  0  0  0
  139.7540   78.1530  222.7120 N   0  0  0  0  0  0  0  0  0  0  0  0
  141.1850   77.8820  222.7200 C   0  0  0  0  0  0  0  0  0  0  0  0
  141.8070   78.6850  223.8380 C   0  0  0  0  0  0  0  0  0  0  0  0
  141.6750   80.1470  223.4770 C   0  0  0  0  0  0  0  0  0  0  0  0
  140.3100   80.5080  222.9890 C   0  0  0  0  0  0  0  0  0  0  0  0
  139.3390   79.3890  223.3770 C   0  0  0  0  0  0  0  0  0  0  0  0
  139.7080   72.4730  222.6660 C   0  0  0  0  0  0  0  0  0  0  0  0
  138.9810   71.3780  222.2110 C   0  0  0  0  0  0  0  0  0  0  0  0
  138.9160   70.2550  222.9850 C   0  0  0  0  0  0  0  0  0  0  0  0
  139.5680   70.2180  224.1990 C   0  0  0  0  0  0  0  0  0  0  0  0
  139.5130   69.0980  224.9870 C   0  0  0  0  0  0  0  0  0  0  0  0
  140.1610   69.0350  226.2140 C   0  0  0  0  0  0  0  0  0  0  0  0
  140.1050   67.8180  227.0780 C   0  0  0  0  0  0  0  0  0  0  0  0
  139.9990   68.1160  228.4040 F   0  0  0  0  0  0  0  0  0  0  0  0
  141.1970   67.0300  226.7690 F   0  0  0  0  0  0  0  0  0  0  0  0
  138.9700   67.0950  226.7310 F   0  0  0  0  0  0  0  0  0  0  0  0
  140.8740   70.1490  226.6280 C   0  0  0  0  0  0  0  0  0  0  0  0
  140.9590   71.3010  225.8690 C   0  0  0  0  0  0  0  0  0  0  0  0
  140.2990   71.3120  224.6590 C   0  0  0  0  0  0  0  0  0  0  0  0
  140.3280   72.3930  223.8570 N   0  0  0  0  0  0  0  0  0  0  0  0
  138.8360   74.9400  223.2850 H   0  0  0  0  0  0  0  0  0  0  0  0
  140.3916   76.2211  221.1861 H   0  0  0  0  0  0  0  0  0  0  0  0
  138.7228   75.8510  220.5647 H   0  0  0  0  0  0  0  0  0  0  0  0
  141.3606   76.8093  222.8887 H   0  0  0  0  0  0  0  0  0  0  0  0
  141.6319   78.1620  221.7546 H   0  0  0  0  0  0  0  0  0  0  0  0
  141.2813   78.4827  224.7829 H   0  0  0  0  0  0  0  0  0  0  0  0
  142.8648   78.4125  223.9679 H   0  0  0  0  0  0  0  0  0  0  0  0
  141.8987   80.7498  224.3695 H   0  0  0  0  0  0  0  0  0  0  0  0
  142.3807   80.3480  222.6575 H   0  0  0  0  0  0  0  0  0  0  0  0
  139.9894   81.4533  223.4513 H   0  0  0  0  0  0  0  0  0  0  0  0
  140.3228   80.6314  221.8960 H   0  0  0  0  0  0  0  0  0  0  0  0
  139.3565   79.2460  224.4675 H   0  0  0  0  0  0  0  0  0  0  0  0
  138.3180   79.6558  223.0667 H   0  0  0  0  0  0  0  0  0  0  0  0
  138.4651   71.4162  221.2402 H   0  0  0  0  0  0  0  0  0  0  0  0
  138.3441   69.3809  222.6402 H   0  0  0  0  0  0  0  0  0  0  0  0
  138.9405   68.2258  224.6385 H   0  0  0  0  0  0  0  0  0  0  0  0
  141.3921   70.1151  227.5978 H   0  0  0  0  0  0  0  0  0  0  0  0
  141.5305   72.1742  226.2167 H   0  0  0  0  0  0  0  0  0  0  0  0
  1  2  2  0
  2  3  1  0
  3  4  1  0
  4  5  1  0
  5  6  2  0
  5  7  1  0
  7  8  1  0
  8  9  1  0
  9 10  1  0
 10 11  1  0
 11 12  1  0
  2 13  1  0
 13 14  2  0
 14 15  1  0
 15 16  2  0
 16 17  1  0
 17 18  2  0
 18 19  1  0
 19 20  1  0
 19 21  1  0
 19 22  1  0
 18 23  1  0
 23 24  2  0
 24 25  1  0
 25 26  2  0
 12  7  1  0
 26 13  1  0
 25 16  1  0
  3 27  1  0
  4 28  1  0
  4 29  1  0
  8 30  1  0
  8 31  1  0
  9 32  1  0
  9 33  1  0
 10 34  1  0
 10 35  1  0
 11 36  1  0
 11 37  1  0
 12 38  1  0
 12 39  1  0
 14 40  1  0
 15 41  1  0
 17 42  1  0
 23 43  1  0
 24 44  1  0
M  END
>  <smiles>  (6) 
O=C(NCC(=O)N1CCCCC1)c1ccc2cc(C(F)(F)F)ccc2n1

>  <score_type>  (6) 
oracle

>  <origin>  (6) 
autodockgpu

>  <m_score__min__energy>  (6) 
-7.3200000000000003

>  <m_primary>  (6) 
energy

>  <rmsd>  (6) 
4.127296588241705

>  <m_score__min__rmsd>  (6) 
4.127296588241705

>  <meeko>  (6) 
{"free_energy": -7.27, "intermolecular_energy": -8.46, "internal_energy": -0.8, "cluster_size": 28, "cluster_id": 1, "rank_in_cluster": 5}

>  <energy>  (6) 
-7.26

>  <cluster_rmsd>  (6) 
0.22

>  <cluster>  (6) 
1

$$$$

     RDKit          3D

 44 46  0  0  0  0  0  0  0  0999 V2000
  135.4690   68.6650  224.8240 O   0  0  0  0  0  0  0  0  0  0  0  0
  135.8300   69.8660  224.9420 C   0  0  0  0  0  0  0  0  0  0  0  0
  137.1430   70.2310  224.5440 N   0  0  0  0  0  0  0  0  0  0  0  0
  138.0040   69.2050  224.0220 C   0  0  0  0  0  0  0  0  0  0  0  0
  138.8930   68.6220  225.0660 C   0  0  0  0  0  0  0  0  0  0  0  0
  138.9080   67.3920  225.3370 O   0  0  0  0  0  0  0  0  0  0  0  0
  139.7450   69.5200  225.7640 N   0  0  0  0  0  0  0  0  0  0  0  0
  139.7730   70.9520  225.4960 C   0  0  0  0  0  0  0  0  0  0  0  0
  141.0840   71.4980  226.0120 C   0  0  0  0  0  0  0  0  0  0  0  0
  141.0720   71.3690  227.5170 C   0  0  0  0  0  0  0  0  0  0  0  0
  140.6020   70.0300  227.9860 C   0  0  0  0  0  0  0  0  0  0  0  0
  140.6570   69.0520  226.8080 C   0  0  0  0  0  0  0  0  0  0  0  0
  134.9200   70.8760  225.4790 C   0  0  0  0  0  0  0  0  0  0  0  0
  133.8570   70.4590  226.2720 C   0  0  0  0  0  0  0  0  0  0  0  0
  132.9990   71.3930  226.7800 C   0  0  0  0  0  0  0  0  0  0  0  0
  133.1960   72.7290  226.5030 C   0  0  0  0  0  0  0  0  0  0  0  0
  132.3450   73.6790  227.0050 C   0  0  0  0  0  0  0  0  0  0  0  0
  132.5210   75.0310  226.7410 C   0  0  0  0  0  0  0  0  0  0  0  0
  131.5970   76.0710  227.2840 C   0  0  0  0  0  0  0  0  0  0  0  0
  131.8170   77.3050  226.7490 F   0  0  0  0  0  0  0  0  0  0  0  0
  131.6860   76.0370  228.6630 F   0  0  0  0  0  0  0  0  0  0  0  0
  130.2970   75.7090  226.9520 F   0  0  0  0  0  0  0  0  0  0  0  0
  133.5930   75.4020  225.9450 C   0  0  0  0  0  0  0  0  0  0  0  0
  134.4790   74.4820  225.4160 C   0  0  0  0  0  0  0  0  0  0  0  0
  134.2600   73.1520  225.7080 C   0  0  0  0  0  0  0  0  0  0  0  0
  135.0730   72.1900  225.2340 N   0  0  0  0  0  0  0  0  0  0  0  0
  137.4490   71.2430  224.6420 H   0  0  0  0  0  0  0  0  0  0  0  0
  137.3812   68.4023  223.6003 H   0  0  0  0  0  0  0  0  0  0  0  0
  138.6449   69.6641  223.2549 H   0  0  0  0  0  0  0  0  0  0  0  0
  139.6943   71.1308  224.4135 H   0  0  0  0  0  0  0  0  0  0  0  0
  138.9287   71.4507  225.9945 H   0  0  0  0  0  0  0  0  0  0  0  0
  141.9215   70.9211  225.5928 H   0  0  0  0  0  0  0  0  0  0  0  0
  141.2077   72.5500  225.7155 H   0  0  0  0  0  0  0  0  0  0  0  0
  142.0936   71.5323  227.8907 H   0  0  0  0  0  0  0  0  0  0  0  0
  140.3672   72.1190  227.9053 H   0  0  0  0  0  0  0  0  0  0  0  0
  141.2540   69.6713  228.7961 H   0  0  0  0  0  0  0  0  0  0  0  0
  139.5718   70.1049  228.3642 H   0  0  0  0  0  0  0  0  0  0  0  0
  141.6820   69.0084  226.4112 H   0  0  0  0  0  0  0  0  0  0  0  0
  140.3588   68.0473  227.1420 H   0  0  0  0  0  0  0  0  0  0  0  0
  133.7086   69.3906  226.4877 H   0  0  0  0  0  0  0  0  0  0  0  0
  132.1526   71.0796  227.4088 H   0  0  0  0  0  0  0  0  0  0  0  0
  131.5000   73.3620  227.6339 H   0  0  0  0  0  0  0  0  0  0  0  0
  133.7447   76.4692  225.7257 H   0  0  0  0  0  0  0  0  0  0  0  0
  135.3246   74.7980  224.7875 H   0  0  0  0  0  0  0  0  0  0  0  0
  1  2  2  0
  2  3  1  0
  3  4  1  0
  4  5  1  0
  5  6  2  0
  5  7  1  0
  7  8  1  0
  8  9  1  0
  9 10  1  0
 10 11  1  0
 11 12  1  0
  2 13  1  0
 13 14  2  0
 14 15  1  0
 15 16  2  0
 16 17  1  0
 17 18  2  0
 18 19  1  0
 19 20  1  0
 19 21  1  0
 19 22  1  0
 18 23  1  0
 23 24  2  0
 24 25  1  0
 25 26  2  0
 12  7  1  0
 26 13  1  0
 25 16  1  0
  3 27  1  0
  4 28  1  0
  4 29  1  0
  8 30  1  0
  8 31  1  0
  9 32  1  0
  9 33  1  0
 10 34  1  0
 10 35  1  0
 11 36  1  0
 11 37  1  0
 12 38  1  0
 12 39  1  0
 14 40  1  0
 15 41  1  0
 17 42  1  0
 23 43  1  0
 24 44  1  0
M  END
>  <smiles>  (7) 
O=C(NCC(=O)N1CCCCC1)c1ccc2cc(C(F)(F)F)ccc2n1

>  <score_type>  (7) 
oracle

>  <origin>  (7) 
autodockgpu

>  <m_score__min__energy>  (7) 
-7.3200000000000003

>  <m_primary>  (7) 
energy

>  <rmsd>  (7) 
8.197510049663585

>  <m_score__min__rmsd>  (7) 
8.197510049663585

>  <meeko>  (7) 
{"free_energy": -7.17, "intermolecular_energy": -8.36, "internal_energy": -1.0, "cluster_size": 19, "cluster_id": 2, "rank_in_cluster": 10}

>  <energy>  (7) 
-7.26

>  <cluster_rmsd>  (7) 
0.19

>  <cluster>  (7) 
1

$$$$

     RDKit          3D

 44 46  0  0  0  0  0  0  0  0999 V2000
  140.2620   73.6710  220.7000 O   0  0  0  0  0  0  0  0  0  0  0  0
  139.7010   73.7520  221.8250 C   0  0  0  0  0  0  0  0  0  0  0  0
  139.1980   75.0100  222.2530 N   0  0  0  0  0  0  0  0  0  0  0  0
  139.3540   76.1370  221.3760 C   0  0  0  0  0  0  0  0  0  0  0  0
  138.8560   77.4040  221.9820 C   0  0  0  0  0  0  0  0  0  0  0  0
  137.6450   77.7460  221.9440 O   0  0  0  0  0  0  0  0  0  0  0  0
  139.8160   78.2350  222.6230 N   0  0  0  0  0  0  0  0  0  0  0  0
  141.2290   77.8940  222.7000 C   0  0  0  0  0  0  0  0  0  0  0  0
  141.8400   78.6840  223.8340 C   0  0  0  0  0  0  0  0  0  0  0  0
  141.7970   80.1440  223.4470 C   0  0  0  0  0  0  0  0  0  0  0  0
  140.4750   80.5640  222.8910 C   0  0  0  0  0  0  0  0  0  0  0  0
  139.4330   79.5000  223.2500 C   0  0  0  0  0  0  0  0  0  0  0  0
  139.5650   72.5780  222.6850 C   0  0  0  0  0  0  0  0  0  0  0  0
  138.4990   71.7130  222.4640 C   0  0  0  0  0  0  0  0  0  0  0  0
  138.3590   70.6120  223.2610 C   0  0  0  0  0  0  0  0  0  0  0  0
  139.2700   70.3730  224.2680 C   0  0  0  0  0  0  0  0  0  0  0  0
  139.1440   69.2730  225.0770 C   0  0  0  0  0  0  0  0  0  0  0  0
  140.0470   69.0100  226.0980 C   0  0  0  0  0  0  0  0  0  0  0  0
  139.9160   67.8140  226.9820 C   0  0  0  0  0  0  0  0  0  0  0  0
  139.6190   68.1410  228.2720 F   0  0  0  0  0  0  0  0  0  0  0  0
  141.0660   67.0600  226.8490 F   0  0  0  0  0  0  0  0  0  0  0  0
  138.8650   67.0390  226.5070 F   0  0  0  0  0  0  0  0  0  0  0  0
  141.0940   69.8990  226.2840 C   0  0  0  0  0  0  0  0  0  0  0  0
  141.2640   71.0220  225.4940 C   0  0  0  0  0  0  0  0  0  0  0  0
  140.3390   71.2380  224.4940 C   0  0  0  0  0  0  0  0  0  0  0  0
  140.4280   72.3060  223.6800 N   0  0  0  0  0  0  0  0  0  0  0  0
  138.7250   75.0800  223.2010 H   0  0  0  0  0  0  0  0  0  0  0  0
  140.4218   76.2548  221.1393 H   0  0  0  0  0  0  0  0  0  0  0  0
  138.7588   75.9421  220.4717 H   0  0  0  0  0  0  0  0  0  0  0  0
  141.3430   76.8169  222.8918 H   0  0  0  0  0  0  0  0  0  0  0  0
  141.7321   78.1355  221.7521 H   0  0  0  0  0  0  0  0  0  0  0  0
  141.2634   78.5232  224.7569 H   0  0  0  0  0  0  0  0  0  0  0  0
  142.8761   78.3622  224.0155 H   0  0  0  0  0  0  0  0  0  0  0  0
  142.0094   80.7495  224.3405 H   0  0  0  0  0  0  0  0  0  0  0  0
  142.5482   80.2967  222.6581 H   0  0  0  0  0  0  0  0  0  0  0  0
  140.1812   81.5314  223.3245 H   0  0  0  0  0  0  0  0  0  0  0  0
  140.5434   80.6691  221.7982 H   0  0  0  0  0  0  0  0  0  0  0  0
  139.3939   79.3744  224.3421 H   0  0  0  0  0  0  0  0  0  0  0  0
  138.4415   79.8110  222.8892 H   0  0  0  0  0  0  0  0  0  0  0  0
  137.7776   71.9125  221.6579 H   0  0  0  0  0  0  0  0  0  0  0  0
  137.5212   69.9177  223.0996 H   0  0  0  0  0  0  0  0  0  0  0  0
  138.3052   68.5807  224.9125 H   0  0  0  0  0  0  0  0  0  0  0  0
  141.8169   69.7044  227.0900 H   0  0  0  0  0  0  0  0  0  0  0  0
  142.1030   71.7146  225.6569 H   0  0  0  0  0  0  0  0  0  0  0  0
  1  2  2  0
  2  3  1  0
  3  4  1  0
  4  5  1  0
  5  6  2  0
  5  7  1  0
  7  8  1  0
  8  9  1  0
  9 10  1  0
 10 11  1  0
 11 12  1  0
  2 13  1  0
 13 14  2  0
 14 15  1  0
 15 16  2  0
 16 17  1  0
 17 18  2  0
 18 19  1  0
 19 20  1  0
 19 21  1  0
 19 22  1  0
 18 23  1  0
 23 24  2  0
 24 25  1  0
 25 26  2  0
 12  7  1  0
 26 13  1  0
 25 16  1  0
  3 27  1  0
  4 28  1  0
  4 29  1  0
  8 30  1  0
  8 31  1  0
  9 32  1  0
  9 33  1  0
 10 34  1  0
 10 35  1  0
 11 36  1  0
 11 37  1  0
 12 38  1  0
 12 39  1  0
 14 40  1  0
 15 41  1  0
 17 42  1  0
 23 43  1  0
 24 44  1  0
M  END
>  <smiles>  (8) 
O=C(NCC(=O)N1CCCCC1)c1ccc2cc(C(F)(F)F)ccc2n1

>  <score_type>  (8) 
oracle

>  <origin>  (8) 
autodockgpu

>  <m_score__min__energy>  (8) 
-7.3200000000000003

>  <m_primary>  (8) 
energy

>  <rmsd>  (8) 
4.188478961782561

>  <m_score__min__rmsd>  (8) 
4.188478961782561

>  <meeko>  (8) 
{"free_energy": -7.24, "intermolecular_energy": -8.43, "internal_energy": -0.77, "cluster_size": 28, "cluster_id": 1, "rank_in_cluster": 11}

>  <energy>  (8) 
-7.26

>  <cluster_rmsd>  (8) 
0.2

>  <cluster>  (8) 
1

$$$$

     RDKit          3D

 44 46  0  0  0  0  0  0  0  0999 V2000
  140.0020   73.5030  220.5920 O   0  0  0  0  0  0  0  0  0  0  0  0
  139.6810   73.6150  221.8050 C   0  0  0  0  0  0  0  0  0  0  0  0
  139.4150   74.9080  222.3280 N   0  0  0  0  0  0  0  0  0  0  0  0
  139.5240   76.0350  221.4420 C   0  0  0  0  0  0  0  0  0  0  0  0
  138.9370   77.2750  222.0230 C   0  0  0  0  0  0  0  0  0  0  0  0
  137.7060   77.5310  221.9770 O   0  0  0  0  0  0  0  0  0  0  0  0
  139.8360   78.1840  222.6470 N   0  0  0  0  0  0  0  0  0  0  0  0
  141.2700   77.9450  222.7310 C   0  0  0  0  0  0  0  0  0  0  0  0
  141.8210   78.7980  223.8490 C   0  0  0  0  0  0  0  0  0  0  0  0
  141.6770   80.2430  223.4330 C   0  0  0  0  0  0  0  0  0  0  0  0
  140.3300   80.5580  222.8690 C   0  0  0  0  0  0  0  0  0  0  0  0
  139.3640   79.4310  223.2480 C   0  0  0  0  0  0  0  0  0  0  0  0
  139.5820   72.4410  222.6700 C   0  0  0  0  0  0  0  0  0  0  0  0
  138.6580   71.4540  222.3470 C   0  0  0  0  0  0  0  0  0  0  0  0
  138.5550   70.3510  223.1470 C   0  0  0  0  0  0  0  0  0  0  0  0
  139.3630   70.2310  224.2580 C   0  0  0  0  0  0  0  0  0  0  0  0
  139.2720   69.1310  225.0710 C   0  0  0  0  0  0  0  0  0  0  0  0
  140.0740   68.9850  226.1960 C   0  0  0  0  0  0  0  0  0  0  0  0
  139.9790   67.7900  227.0860 C   0  0  0  0  0  0  0  0  0  0  0  0
  138.9050   67.0020  226.7990 F   0  0  0  0  0  0  0  0  0  0  0  0
  140.0130   68.2340  228.3940 F   0  0  0  0  0  0  0  0  0  0  0  0
  141.1160   67.0160  226.8900 F   0  0  0  0  0  0  0  0  0  0  0  0
  140.9800   69.9940  226.4800 C   0  0  0  0  0  0  0  0  0  0  0  0
  141.1100   71.1220  225.6910 C   0  0  0  0  0  0  0  0  0  0  0  0
  140.2910   71.2180  224.5850 C   0  0  0  0  0  0  0  0  0  0  0  0
  140.3490   72.2820  223.7630 N   0  0  0  0  0  0  0  0  0  0  0  0
  139.1450   75.0050  223.3510 H   0  0  0  0  0  0  0  0  0  0  0  0
  140.5881   76.2146  221.2286 H   0  0  0  0  0  0  0  0  0  0  0  0
  138.9631   75.7964  220.5263 H   0  0  0  0  0  0  0  0  0  0  0  0
  141.4595   76.8826  222.9440 H   0  0  0  0  0  0  0  0  0  0  0  0
  141.7566   78.2025  221.7787 H   0  0  0  0  0  0  0  0  0  0  0  0
  141.2547   78.6156  224.7742 H   0  0  0  0  0  0  0  0  0  0  0  0
  142.8767   78.5533  224.0379 H   0  0  0  0  0  0  0  0  0  0  0  0
  141.8454   80.8796  224.3141 H   0  0  0  0  0  0  0  0  0  0  0  0
  142.4169   80.4322  222.6414 H   0  0  0  0  0  0  0  0  0  0  0  0
  139.9685   81.5106  223.2835 H   0  0  0  0  0  0  0  0  0  0  0  0
  140.3929   80.6460  221.7743 H   0  0  0  0  0  0  0  0  0  0  0  0
  139.3310   79.3247  224.3424 H   0  0  0  0  0  0  0  0  0  0  0  0
  138.3541   79.6646  222.8799 H   0  0  0  0  0  0  0  0  0  0  0  0
  138.0179   71.5595  221.4587 H   0  0  0  0  0  0  0  0  0  0  0  0
  137.8292   69.5606  222.9053 H   0  0  0  0  0  0  0  0  0  0  0  0
  138.5446   68.3430  224.8261 H   0  0  0  0  0  0  0  0  0  0  0  0
  141.6212   69.8938  227.3682 H   0  0  0  0  0  0  0  0  0  0  0  0
  141.8368   71.9107  225.9352 H   0  0  0  0  0  0  0  0  0  0  0  0
  1  2  2  0
  2  3  1  0
  3  4  1  0
  4  5  1  0
  5  6  2  0
  5  7  1  0
  7  8  1  0
  8  9  1  0
  9 10  1  0
 10 11  1  0
 11 12  1  0
  2 13  1  0
 13 14  2  0
 14 15  1  0
 15 16  2  0
 16 17  1  0
 17 18  2  0
 18 19  1  0
 19 20  1  0
 19 21  1  0
 19 22  1  0
 18 23  1  0
 23 24  2  0
 24 25  1  0
 25 26  2  0
 12  7  1  0
 26 13  1  0
 25 16  1  0
  3 27  1  0
  4 28  1  0
  4 29  1  0
  8 30  1  0
  8 31  1  0
  9 32  1  0
  9 33  1  0
 10 34  1  0
 10 35  1  0
 11 36  1  0
 11 37  1  0
 12 38  1  0
 12 39  1  0
 14 40  1  0
 15 41  1  0
 17 42  1  0
 23 43  1  0
 24 44  1  0
M  END
>  <smiles>  (9) 
O=C(NCC(=O)N1CCCCC1)c1ccc2cc(C(F)(F)F)ccc2n1

>  <score_type>  (9) 
oracle

>  <origin>  (9) 
autodockgpu

>  <m_score__min__energy>  (9) 
-7.3200000000000003

>  <m_primary>  (9) 
energy

>  <rmsd>  (9) 
4.130637581956809

>  <m_score__min__rmsd>  (9) 
4.130637581956809

>  <meeko>  (9) 
{"free_energy": -7.32, "intermolecular_energy": -8.51, "internal_energy": -0.78, "cluster_size": 28, "cluster_id": 1, "rank_in_cluster": 1}

>  <energy>  (9) 
-7.24

>  <cluster_rmsd>  (9) 
0.24

>  <cluster>  (9) 
1

$$$$

     RDKit          3D

 44 46  0  0  0  0  0  0  0  0999 V2000
  139.9550   69.6730  222.7380 O   0  0  0  0  0  0  0  0  0  0  0  0
  139.5770   70.8660  222.8830 C   0  0  0  0  0  0  0  0  0  0  0  0
  138.5210   71.1470  223.7910 N   0  0  0  0  0  0  0  0  0  0  0  0
  137.9300   70.0490  224.5050 C   0  0  0  0  0  0  0  0  0  0  0  0
  138.9430   69.2210  225.2170 C   0  0  0  0  0  0  0  0  0  0  0  0
  138.9840   67.9660  225.1250 O   0  0  0  0  0  0  0  0  0  0  0  0
  139.8890   69.9110  226.0250 N   0  0  0  0  0  0  0  0  0  0  0  0
  139.8930   71.3600  226.1730 C   0  0  0  0  0  0  0  0  0  0  0  0
  141.2650   71.7770  226.6480 C   0  0  0  0  0  0  0  0  0  0  0  0
  141.4510   71.2290  228.0440 C   0  0  0  0  0  0  0  0  0  0  0  0
  141.0360   69.7990  228.1710 C   0  0  0  0  0  0  0  0  0  0  0  0
  140.9260   69.1950  226.7680 C   0  0  0  0  0  0  0  0  0  0  0  0
  140.2070   71.9520  222.1350 C   0  0  0  0  0  0  0  0  0  0  0  0
  141.1400   71.6310  221.1550 C   0  0  0  0  0  0  0  0  0  0  0  0
  141.7370   72.6360  220.4490 C   0  0  0  0  0  0  0  0  0  0  0  0
  141.4100   73.9490  220.7130 C   0  0  0  0  0  0  0  0  0  0  0  0
  141.9990   74.9700  220.0140 C   0  0  0  0  0  0  0  0  0  0  0  0
  141.6880   76.3010  220.2600 C   0  0  0  0  0  0  0  0  0  0  0  0
  142.3260   77.4170  219.5020 C   0  0  0  0  0  0  0  0  0  0  0  0
  143.6180   77.1500  219.1570 F   0  0  0  0  0  0  0  0  0  0  0  0
  142.1750   78.5730  220.2440 F   0  0  0  0  0  0  0  0  0  0  0  0
  141.6180   77.5970  218.3210 F   0  0  0  0  0  0  0  0  0  0  0  0
  140.7530   76.5760  221.2460 C   0  0  0  0  0  0  0  0  0  0  0  0
  140.1310   75.5810  221.9790 C   0  0  0  0  0  0  0  0  0  0  0  0
  140.4750   74.2760  221.6940 C   0  0  0  0  0  0  0  0  0  0  0  0
  139.9190   73.2470  222.3590 N   0  0  0  0  0  0  0  0  0  0  0  0
  138.2010   72.1520  223.9150 H   0  0  0  0  0  0  0  0  0  0  0  0
  137.2197   70.4496  225.2432 H   0  0  0  0  0  0  0  0  0  0  0  0
  137.4275   69.4035  223.7696 H   0  0  0  0  0  0  0  0  0  0  0  0
  139.6727   71.8347  225.2054 H   0  0  0  0  0  0  0  0  0  0  0  0
  139.1266   71.6722  226.8976 H   0  0  0  0  0  0  0  0  0  0  0  0
  142.0348   71.3663  225.9781 H   0  0  0  0  0  0  0  0  0  0  0  0
  141.3575   72.8731  226.6476 H   0  0  0  0  0  0  0  0  0  0  0  0
  142.5143   71.3105  228.3136 H   0  0  0  0  0  0  0  0  0  0  0  0
  140.8101   71.8182  228.7164 H   0  0  0  0  0  0  0  0  0  0  0  0
  141.7866   69.2459  228.7547 H   0  0  0  0  0  0  0  0  0  0  0  0
  140.0657   69.7338  228.6850 H   0  0  0  0  0  0  0  0  0  0  0  0
  141.8894   69.2943  226.2465 H   0  0  0  0  0  0  0  0  0  0  0  0
  140.6647   68.1289  226.8401 H   0  0  0  0  0  0  0  0  0  0  0  0
  141.3940   70.5803  220.9510 H   0  0  0  0  0  0  0  0  0  0  0  0
  142.4775   72.3983  219.6711 H   0  0  0  0  0  0  0  0  0  0  0  0
  142.7387   74.7286  219.2365 H   0  0  0  0  0  0  0  0  0  0  0  0
  140.4959   77.6252  221.4535 H   0  0  0  0  0  0  0  0  0  0  0  0
  139.3920   75.8209  222.7576 H   0  0  0  0  0  0  0  0  0  0  0  0
  1  2  2  0
  2  3  1  0
  3  4  1  0
  4  5  1  0
  5  6  2  0
  5  7  1  0
  7  8  1  0
  8  9  1  0
  9 10  1  0
 10 11  1  0
 11 12  1  0
  2 13  1  0
 13 14  2  0
 14 15  1  0
 15 16  2  0
 16 17  1  0
 17 18  2  0
 18 19  1  0
 19 20  1  0
 19 21  1  0
 19 22  1  0
 18 23  1  0
 23 24  2  0
 24 25  1  0
 25 26  2  0
 12  7  1  0
 26 13  1  0
 25 16  1  0
  3 27  1  0
  4 28  1  0
  4 29  1  0
  8 30  1  0
  8 31  1  0
  9 32  1  0
  9 33  1  0
 10 34  1  0
 10 35  1  0
 11 36  1  0
 11 37  1  0
 12 38  1  0
 12 39  1  0
 14 40  1  0
 15 41  1  0
 17 42  1  0
 23 43  1  0
 24 44  1  0
M  END
>  <smiles>  (10) 
O=C(NCC(=O)N1CCCCC1)c1ccc2cc(C(F)(F)F)ccc2n1

>  <score_type>  (10) 
oracle

>  <origin>  (10) 
autodockgpu

>  <m_score__min__energy>  (10) 
-7.3200000000000003

>  <m_primary>  (10) 
energy

>  <rmsd>  (10) 
7.926148273720873

>  <m_score__min__rmsd>  (10) 
7.926148273720873

>  <meeko>  (10) 
{"free_energy": -6.59, "intermolecular_energy": -7.78, "internal_energy": -1.04, "cluster_size": 3, "cluster_id": 3, "rank_in_cluster": 3}

>  <energy>  (10) 
-7.24

>  <cluster_rmsd>  (10) 
0.25

>  <cluster>  (10) 
1

$$$$

     RDKit          3D

 44 46  0  0  0  0  0  0  0  0999 V2000
  140.0490   73.5940  220.6560 O   0  0  0  0  0  0  0  0  0  0  0  0
  139.6490   73.6970  221.8460 C   0  0  0  0  0  0  0  0  0  0  0  0
  139.2500   74.9720  222.3280 N   0  0  0  0  0  0  0  0  0  0  0  0
  139.3230   76.0910  221.4290 C   0  0  0  0  0  0  0  0  0  0  0  0
  138.8090   77.3480  222.0410 C   0  0  0  0  0  0  0  0  0  0  0  0
  137.5910   77.6650  222.0240 O   0  0  0  0  0  0  0  0  0  0  0  0
  139.7630   78.2010  222.6630 N   0  0  0  0  0  0  0  0  0  0  0  0
  141.1840   77.8890  222.7160 C   0  0  0  0  0  0  0  0  0  0  0  0
  141.7980   78.6950  223.8370 C   0  0  0  0  0  0  0  0  0  0  0  0
  141.7180   80.1530  223.4480 C   0  0  0  0  0  0  0  0  0  0  0  0
  140.3780   80.5430  222.9150 C   0  0  0  0  0  0  0  0  0  0  0  0
  139.3650   79.4590  223.2940 C   0  0  0  0  0  0  0  0  0  0  0  0
  139.5920   72.5310  222.7260 C   0  0  0  0  0  0  0  0  0  0  0  0
  138.7240   71.4940  222.3990 C   0  0  0  0  0  0  0  0  0  0  0  0
  138.6610   70.3990  223.2130 C   0  0  0  0  0  0  0  0  0  0  0  0
  139.4510   70.3340  224.3410 C   0  0  0  0  0  0  0  0  0  0  0  0
  139.3990   69.2420  225.1680 C   0  0  0  0  0  0  0  0  0  0  0  0
  140.1850   69.1520  226.3100 C   0  0  0  0  0  0  0  0  0  0  0  0
  140.1320   67.9660  227.2150 C   0  0  0  0  0  0  0  0  0  0  0  0
  139.2130   67.0410  226.8200 F   0  0  0  0  0  0  0  0  0  0  0  0
  139.9420   68.4260  228.5040 F   0  0  0  0  0  0  0  0  0  0  0  0
  141.3750   67.3450  227.1840 F   0  0  0  0  0  0  0  0  0  0  0  0
  141.0340   70.2090  226.5970 C   0  0  0  0  0  0  0  0  0  0  0  0
  141.1220   71.3310  225.7940 C   0  0  0  0  0  0  0  0  0  0  0  0
  140.3220   71.3710  224.6720 C   0  0  0  0  0  0  0  0  0  0  0  0
  140.3440   72.4250  223.8360 N   0  0  0  0  0  0  0  0  0  0  0  0
  138.9120   75.0620  223.3310 H   0  0  0  0  0  0  0  0  0  0  0  0
  140.3733   76.2432  221.1396 H   0  0  0  0  0  0  0  0  0  0  0  0
  138.6928   75.8614  220.5572 H   0  0  0  0  0  0  0  0  0  0  0  0
  141.3234   76.8150  222.9088 H   0  0  0  0  0  0  0  0  0  0  0  0
  141.6656   78.1375  221.7587 H   0  0  0  0  0  0  0  0  0  0  0  0
  141.2411   78.5246  224.7702 H   0  0  0  0  0  0  0  0  0  0  0  0
  142.8437   78.3955  224.0005 H   0  0  0  0  0  0  0  0  0  0  0  0
  141.9334   80.7650  224.3363 H   0  0  0  0  0  0  0  0  0  0  0  0
  142.4521   80.3200  222.6460 H   0  0  0  0  0  0  0  0  0  0  0  0
  140.0716   81.5050  223.3516 H   0  0  0  0  0  0  0  0  0  0  0  0
  140.4251   80.6461  221.8209 H   0  0  0  0  0  0  0  0  0  0  0  0
  139.3475   79.3352  224.3869 H   0  0  0  0  0  0  0  0  0  0  0  0
  138.3612   79.7487  222.9499 H   0  0  0  0  0  0  0  0  0  0  0  0
  138.0970   71.5551  221.4972 H   0  0  0  0  0  0  0  0  0  0  0  0
  137.9806   69.5699  222.9688 H   0  0  0  0  0  0  0  0  0  0  0  0
  138.7169   68.4151  224.9209 H   0  0  0  0  0  0  0  0  0  0  0  0
  141.6620   70.1532  227.4984 H   0  0  0  0  0  0  0  0  0  0  0  0
  141.8032   72.1588  226.0406 H   0  0  0  0  0  0  0  0  0  0  0  0
  1  2  2  0
  2  3  1  0
  3  4  1  0
  4  5  1  0
  5  6  2  0
  5  7  1  0
  7  8  1  0
  8  9  1  0
  9 10  1  0
 10 11  1  0
 11 12  1  0
  2 13  1  0
 13 14  2  0
 14 15  1  0
 15 16  2  0
 16 17  1  0
 17 18  2  0
 18 19  1  0
 19 20  1  0
 19 21  1  0
 19 22  1  0
 18 23  1  0
 23 24  2  0
 24 25  1  0
 25 26  2  0
 12  7  1  0
 26 13  1  0
 25 16  1  0
  3 27  1  0
  4 28  1  0
  4 29  1  0
  8 30  1  0
  8 31  1  0
  9 32  1  0
  9 33  1  0
 10 34  1  0
 10 35  1  0
 11 36  1  0
 11 37  1  0
 12 38  1  0
 12 39  1  0
 14 40  1  0
 15 41  1  0
 17 42  1  0
 23 43  1  0
 24 44  1  0
M  END
>  <smiles>  (11) 
O=C(NCC(=O)N1CCCCC1)c1ccc2cc(C(F)(F)F)ccc2n1

>  <score_type>  (11) 
oracle

>  <origin>  (11) 
autodockgpu

>  <m_score__min__energy>  (11) 
-7.3200000000000003

>  <m_primary>  (11) 
energy

>  <rmsd>  (11) 
4.129136807706473

>  <m_score__min__rmsd>  (11) 
4.129136807706473

>  <meeko>  (11) 
{"free_energy": -7.26, "intermolecular_energy": -8.45, "internal_energy": -0.79, "cluster_size": 28, "cluster_id": 1, "rank_in_cluster": 8}

>  <energy>  (11) 
-7.24

>  <cluster_rmsd>  (11) 
0.22

>  <cluster>  (11) 
1

$$$$

     RDKit          3D

 44 46  0  0  0  0  0  0  0  0999 V2000
  139.9510   72.8820  220.5410 O   0  0  0  0  0  0  0  0  0  0  0  0
  139.7540   73.1830  221.7480 C   0  0  0  0  0  0  0  0  0  0  0  0
  139.5690   74.5490  222.0930 N   0  0  0  0  0  0  0  0  0  0  0  0
  139.6180   75.5280  221.0420 C   0  0  0  0  0  0  0  0  0  0  0  0
  140.8130   76.4120  221.1420 C   0  0  0  0  0  0  0  0  0  0  0  0
  141.9100   76.1390  220.5880 O   0  0  0  0  0  0  0  0  0  0  0  0
  140.6710   77.6060  221.9020 N   0  0  0  0  0  0  0  0  0  0  0  0
  139.4280   77.9760  222.5660 C   0  0  0  0  0  0  0  0  0  0  0  0
  139.4630   79.4640  222.8250 C   0  0  0  0  0  0  0  0  0  0  0  0
  140.5550   79.7250  223.8370 C   0  0  0  0  0  0  0  0  0  0  0  0
  141.8270   79.0070  223.5230 C   0  0  0  0  0  0  0  0  0  0  0  0
  141.7810   78.5440  222.0640 C   0  0  0  0  0  0  0  0  0  0  0  0
  139.7120   72.1540  222.7840 C   0  0  0  0  0  0  0  0  0  0  0  0
  138.9420   71.0180  222.5630 C   0  0  0  0  0  0  0  0  0  0  0  0
  138.8940   70.0490  223.5240 C   0  0  0  0  0  0  0  0  0  0  0  0
  139.6060   70.2060  224.6940 C   0  0  0  0  0  0  0  0  0  0  0  0
  139.5690   69.2420  225.6690 C   0  0  0  0  0  0  0  0  0  0  0  0
  140.2760   69.3760  226.8560 C   0  0  0  0  0  0  0  0  0  0  0  0
  140.2400   68.3310  227.9220 C   0  0  0  0  0  0  0  0  0  0  0  0
  141.4680   67.8000  228.1830 F   0  0  0  0  0  0  0  0  0  0  0  0
  139.2930   67.3910  227.5600 F   0  0  0  0  0  0  0  0  0  0  0  0
  139.7950   68.9260  229.0950 F   0  0  0  0  0  0  0  0  0  0  0  0
  141.0310   70.5240  227.0350 C   0  0  0  0  0  0  0  0  0  0  0  0
  141.1000   71.5240  226.0820 C   0  0  0  0  0  0  0  0  0  0  0  0
  140.3800   71.3430  224.9210 C   0  0  0  0  0  0  0  0  0  0  0  0
  140.3900   72.2650  223.9410 N   0  0  0  0  0  0  0  0  0  0  0  0
  139.4020   74.8050  223.1100 H   0  0  0  0  0  0  0  0  0  0  0  0
  139.6453   75.0058  220.0743 H   0  0  0  0  0  0  0  0  0  0  0  0
  138.7240   76.1623  221.1337 H   0  0  0  0  0  0  0  0  0  0  0  0
  138.5721   77.7293  221.9206 H   0  0  0  0  0  0  0  0  0  0  0  0
  139.3213   77.4255  223.5123 H   0  0  0  0  0  0  0  0  0  0  0  0
  139.6805   80.0025  221.8908 H   0  0  0  0  0  0  0  0  0  0  0  0
  138.4917   79.8134  223.2052 H   0  0  0  0  0  0  0  0  0  0  0  0
  140.7594   80.8056  223.8610 H   0  0  0  0  0  0  0  0  0  0  0  0
  140.1985   79.3523  224.8086 H   0  0  0  0  0  0  0  0  0  0  0  0
  142.6808   79.6849  223.6697 H   0  0  0  0  0  0  0  0  0  0  0  0
  141.9420   78.1389  224.1887 H   0  0  0  0  0  0  0  0  0  0  0  0
  141.6307   79.4120  221.4052 H   0  0  0  0  0  0  0  0  0  0  0  0
  142.7281   78.0518  221.7981 H   0  0  0  0  0  0  0  0  0  0  0  0
  138.3783   70.9010  221.6257 H   0  0  0  0  0  0  0  0  0  0  0  0
  138.2882   69.1447  223.3648 H   0  0  0  0  0  0  0  0  0  0  0  0
  138.9629   68.3386  225.5059 H   0  0  0  0  0  0  0  0  0  0  0  0
  141.5970   70.6446  227.9705 H   0  0  0  0  0  0  0  0  0  0  0  0
  141.7055   72.4279  226.2443 H   0  0  0  0  0  0  0  0  0  0  0  0
  1  2  2  0
  2  3  1  0
  3  4  1  0
  4  5  1  0
  5  6  2  0
  5  7  1  0
  7  8  1  0
  8  9  1  0
  9 10  1  0
 10 11  1  0
 11 12  1  0
  2 13  1  0
 13 14  2  0
 14 15  1  0
 15 16  2  0
 16 17  1  0
 17 18  2  0
 18 19  1  0
 19 20  1  0
 19 21  1  0
 19 22  1  0
 18 23  1  0
 23 24  2  0
 24 25  1  0
 25 26  2  0
 12  7  1  0
 26 13  1  0
 25 16  1  0
  3 27  1  0
  4 28  1  0
  4 29  1  0
  8 30  1  0
  8 31  1  0
  9 32  1  0
  9 33  1  0
 10 34  1  0
 10 35  1  0
 11 36  1  0
 11 37  1  0
 12 38  1  0
 12 39  1  0
 14 40  1  0
 15 41  1  0
 17 42  1  0
 23 43  1  0
 24 44  1  0
M  END
>  <smiles>  (12) 
O=C(NCC(=O)N1CCCCC1)c1ccc2cc(C(F)(F)F)ccc2n1

>  <score_type>  (12) 
oracle

>  <origin>  (12) 
autodockgpu

>  <m_score__min__energy>  (12) 
-7.3200000000000003

>  <m_primary>  (12) 
energy

>  <rmsd>  (12) 
3.716419139231345

>  <m_score__min__rmsd>  (12) 
3.716419139231345

>  <meeko>  (12) 
{"free_energy": -7.18, "intermolecular_energy": -8.37, "internal_energy": -0.84, "cluster_size": 28, "cluster_id": 1, "rank_in_cluster": 19}

>  <energy>  (12) 
-7.24

>  <cluster_rmsd>  (12) 
0.24

>  <cluster>  (12) 
1

$$$$

     RDKit          3D

 44 46  0  0  0  0  0  0  0  0999 V2000
  140.0350   73.0330  220.4810 O   0  0  0  0  0  0  0  0  0  0  0  0
  139.7530   73.2740  221.6840 C   0  0  0  0  0  0  0  0  0  0  0  0
  139.4770   74.6140  222.0700 N   0  0  0  0  0  0  0  0  0  0  0  0
  139.5350   75.6360  221.0610 C   0  0  0  0  0  0  0  0  0  0  0  0
  140.7640   76.4700  221.1660 C   0  0  0  0  0  0  0  0  0  0  0  0
  141.8530   76.1490  220.6220 O   0  0  0  0  0  0  0  0  0  0  0  0
  140.6660   77.6730  221.9180 N   0  0  0  0  0  0  0  0  0  0  0  0
  139.4350   78.0990  222.5700 C   0  0  0  0  0  0  0  0  0  0  0  0
  139.5300   79.5860  222.8220 C   0  0  0  0  0  0  0  0  0  0  0  0
  140.6240   79.8070  223.8400 C   0  0  0  0  0  0  0  0  0  0  0  0
  141.8680   79.0350  223.5400 C   0  0  0  0  0  0  0  0  0  0  0  0
  141.8130   78.5660  222.0830 C   0  0  0  0  0  0  0  0  0  0  0  0
  139.7060   72.2030  222.6770 C   0  0  0  0  0  0  0  0  0  0  0  0
  138.9380   71.0760  222.4030 C   0  0  0  0  0  0  0  0  0  0  0  0
  138.8860   70.0670  223.3230 C   0  0  0  0  0  0  0  0  0  0  0  0
  139.5890   70.1760  224.5030 C   0  0  0  0  0  0  0  0  0  0  0  0
  139.5480   69.1730  225.4360 C   0  0  0  0  0  0  0  0  0  0  0  0
  140.2470   69.2580  226.6330 C   0  0  0  0  0  0  0  0  0  0  0  0
  140.2050   68.1690  227.6530 C   0  0  0  0  0  0  0  0  0  0  0  0
  141.4400   67.6670  227.9420 F   0  0  0  0  0  0  0  0  0  0  0  0
  139.3040   67.2160  227.2180 F   0  0  0  0  0  0  0  0  0  0  0  0
  139.6960   68.7010  228.8310 F   0  0  0  0  0  0  0  0  0  0  0  0
  140.9990   70.3990  226.8650 C   0  0  0  0  0  0  0  0  0  0  0  0
  141.0730   71.4380  225.9550 C   0  0  0  0  0  0  0  0  0  0  0  0
  140.3600   71.3030  224.7820 C   0  0  0  0  0  0  0  0  0  0  0  0
  140.3760   72.2660  223.8420 N   0  0  0  0  0  0  0  0  0  0  0  0
  139.2390   74.8190  223.0840 H   0  0  0  0  0  0  0  0  0  0  0  0
  139.5174   75.1563  220.0713 H   0  0  0  0  0  0  0  0  0  0  0  0
  138.6681   76.2977  221.2045 H   0  0  0  0  0  0  0  0  0  0  0  0
  138.5745   77.8850  221.9190 H   0  0  0  0  0  0  0  0  0  0  0  0
  139.2984   77.5588  223.5185 H   0  0  0  0  0  0  0  0  0  0  0  0
  139.7763   80.1101  221.8868 H   0  0  0  0  0  0  0  0  0  0  0  0
  138.5714   79.9772  223.1935 H   0  0  0  0  0  0  0  0  0  0  0  0
  140.8729   80.8783  223.8596 H   0  0  0  0  0  0  0  0  0  0  0  0
  140.2451   79.4546  224.8107 H   0  0  0  0  0  0  0  0  0  0  0  0
  142.7481   79.6778  223.6894 H   0  0  0  0  0  0  0  0  0  0  0  0
  141.9425   78.1669  224.2115 H   0  0  0  0  0  0  0  0  0  0  0  0
  141.7030   79.4357  221.4186 H   0  0  0  0  0  0  0  0  0  0  0  0
  142.7409   78.0338  221.8265 H   0  0  0  0  0  0  0  0  0  0  0  0
  138.3800   70.9981  221.4583 H   0  0  0  0  0  0  0  0  0  0  0  0
  138.2836   69.1688  223.1218 H   0  0  0  0  0  0  0  0  0  0  0  0
  138.9450   68.2761  225.2312 H   0  0  0  0  0  0  0  0  0  0  0  0
  141.5582   70.4813  227.8087 H   0  0  0  0  0  0  0  0  0  0  0  0
  141.6758   72.3353  226.1584 H   0  0  0  0  0  0  0  0  0  0  0  0
  1  2  2  0
  2  3  1  0
  3  4  1  0
  4  5  1  0
  5  6  2  0
  5  7  1  0
  7  8  1  0
  8  9  1  0
  9 10  1  0
 10 11  1  0
 11 12  1  0
  2 13  1  0
 13 14  2  0
 14 15  1  0
 15 16  2  0
 16 17  1  0
 17 18  2  0
 18 19  1  0
 19 20  1  0
 19 21  1  0
 19 22  1  0
 18 23  1  0
 23 24  2  0
 24 25  1  0
 25 26  2  0
 12  7  1  0
 26 13  1  0
 25 16  1  0
  3 27  1  0
  4 28  1  0
  4 29  1  0
  8 30  1  0
  8 31  1  0
  9 32  1  0
  9 33  1  0
 10 34  1  0
 10 35  1  0
 11 36  1  0
 11 37  1  0
 12 38  1  0
 12 39  1  0
 14 40  1  0
 15 41  1  0
 17 42  1  0
 23 43  1  0
 24 44  1  0
M  END
>  <smiles>  (13) 
O=C(NCC(=O)N1CCCCC1)c1ccc2cc(C(F)(F)F)ccc2n1

>  <score_type>  (13) 
oracle

>  <origin>  (13) 
autodockgpu

>  <m_score__min__energy>  (13) 
-7.3200000000000003

>  <m_primary>  (13) 
energy

>  <rmsd>  (13) 
3.761915267291823

>  <m_score__min__rmsd>  (13) 
3.761915267291823

>  <meeko>  (13) 
{"free_energy": -7.18, "intermolecular_energy": -8.38, "internal_energy": -0.83, "cluster_size": 28, "cluster_id": 1, "rank_in_cluster": 18}

>  <energy>  (13) 
-7.21

>  <cluster_rmsd>  (13) 
0.21

>  <cluster>  (13) 
1

$$$$

     RDKit          3D

 44 46  0  0  0  0  0  0  0  0999 V2000
  140.0580   73.5880  220.6020 O   0  0  0  0  0  0  0  0  0  0  0  0
  139.6910   73.6900  221.8030 C   0  0  0  0  0  0  0  0  0  0  0  0
  139.3850   74.9770  222.3210 N   0  0  0  0  0  0  0  0  0  0  0  0
  139.5110   76.1090  221.4440 C   0  0  0  0  0  0  0  0  0  0  0  0
  138.9400   77.3520  222.0340 C   0  0  0  0  0  0  0  0  0  0  0  0
  137.7100   77.6200  221.9980 O   0  0  0  0  0  0  0  0  0  0  0  0
  139.8510   78.2490  222.6560 N   0  0  0  0  0  0  0  0  0  0  0  0
  141.2830   77.9960  222.7290 C   0  0  0  0  0  0  0  0  0  0  0  0
  141.8500   78.8390  223.8470 C   0  0  0  0  0  0  0  0  0  0  0  0
  141.7170   80.2880  223.4390 C   0  0  0  0  0  0  0  0  0  0  0  0
  140.3690   80.6180  222.8840 C   0  0  0  0  0  0  0  0  0  0  0  0
  139.3960   79.4980  223.2650 C   0  0  0  0  0  0  0  0  0  0  0  0
  139.5770   72.5110  222.6590 C   0  0  0  0  0  0  0  0  0  0  0  0
  138.6080   71.5600  222.3550 C   0  0  0  0  0  0  0  0  0  0  0  0
  138.4910   70.4540  223.1480 C   0  0  0  0  0  0  0  0  0  0  0  0
  139.3280   70.2920  224.2300 C   0  0  0  0  0  0  0  0  0  0  0  0
  139.2230   69.1870  225.0350 C   0  0  0  0  0  0  0  0  0  0  0  0
  140.0550   69.0000  226.1320 C   0  0  0  0  0  0  0  0  0  0  0  0
  139.9460   67.7990  227.0130 C   0  0  0  0  0  0  0  0  0  0  0  0
  139.7170   68.1210  228.3170 F   0  0  0  0  0  0  0  0  0  0  0  0
  141.0760   67.0280  226.8180 F   0  0  0  0  0  0  0  0  0  0  0  0
  138.8610   67.0460  226.5820 F   0  0  0  0  0  0  0  0  0  0  0  0
  141.0060   69.9720  226.3980 C   0  0  0  0  0  0  0  0  0  0  0  0
  141.1500   71.1040  225.6160 C   0  0  0  0  0  0  0  0  0  0  0  0
  140.3010   71.2410  224.5380 C   0  0  0  0  0  0  0  0  0  0  0  0
  140.3720   72.3120  223.7250 N   0  0  0  0  0  0  0  0  0  0  0  0
  139.0750   75.0650  223.3330 H   0  0  0  0  0  0  0  0  0  0  0  0
  140.5778   76.2757  221.2337 H   0  0  0  0  0  0  0  0  0  0  0  0
  138.9487   75.8853  220.5254 H   0  0  0  0  0  0  0  0  0  0  0  0
  141.4638   76.9309  222.9361 H   0  0  0  0  0  0  0  0  0  0  0  0
  141.7654   78.2530  221.7744 H   0  0  0  0  0  0  0  0  0  0  0  0
  141.2886   78.6576  224.7754 H   0  0  0  0  0  0  0  0  0  0  0  0
  142.9047   78.5835  224.0269 H   0  0  0  0  0  0  0  0  0  0  0  0
  141.8962   80.9186  224.3223 H   0  0  0  0  0  0  0  0  0  0  0  0
  142.4543   80.4747  222.6443 H   0  0  0  0  0  0  0  0  0  0  0  0
  140.0186   81.5722  223.3044 H   0  0  0  0  0  0  0  0  0  0  0  0
  140.4257   80.7103  221.7893 H   0  0  0  0  0  0  0  0  0  0  0  0
  139.3700   79.3875  224.3591 H   0  0  0  0  0  0  0  0  0  0  0  0
  138.3860   79.7426  222.9044 H   0  0  0  0  0  0  0  0  0  0  0  0
  137.9452   71.6969  221.4879 H   0  0  0  0  0  0  0  0  0  0  0  0
  137.7290   69.6933  222.9228 H   0  0  0  0  0  0  0  0  0  0  0  0
  138.4599   68.4285  224.8063 H   0  0  0  0  0  0  0  0  0  0  0  0
  141.6715   69.8385  227.2636 H   0  0  0  0  0  0  0  0  0  0  0  0
  141.9112   71.8644  225.8449 H   0  0  0  0  0  0  0  0  0  0  0  0
  1  2  2  0
  2  3  1  0
  3  4  1  0
  4  5  1  0
  5  6  2  0
  5  7  1  0
  7  8  1  0
  8  9  1  0
  9 10  1  0
 10 11  1  0
 11 12  1  0
  2 13  1  0
 13 14  2  0
 14 15  1  0
 15 16  2  0
 16 17  1  0
 17 18  2  0
 18 19  1  0
 19 20  1  0
 19 21  1  0
 19 22  1  0
 18 23  1  0
 23 24  2  0
 24 25  1  0
 25 26  2  0
 12  7  1  0
 26 13  1  0
 25 16  1  0
  3 27  1  0
  4 28  1  0
  4 29  1  0
  8 30  1  0
  8 31  1  0
  9 32  1  0
  9 33  1  0
 10 34  1  0
 10 35  1  0
 11 36  1  0
 11 37  1  0
 12 38  1  0
 12 39  1  0
 14 40  1  0
 15 41  1  0
 17 42  1  0
 23 43  1  0
 24 44  1  0
M  END
>  <smiles>  (14) 
O=C(NCC(=O)N1CCCCC1)c1ccc2cc(C(F)(F)F)ccc2n1

>  <score_type>  (14) 
oracle

>  <origin>  (14) 
autodockgpu

>  <m_score__min__energy>  (14) 
-7.3200000000000003

>  <m_primary>  (14) 
energy

>  <rmsd>  (14) 
4.177995773462988

>  <m_score__min__rmsd>  (14) 
4.177995773462988

>  <meeko>  (14) 
{"free_energy": -7.27, "intermolecular_energy": -8.46, "internal_energy": -0.77, "cluster_size": 28, "cluster_id": 1, "rank_in_cluster": 3}

>  <energy>  (14) 
-7.21

>  <cluster_rmsd>  (14) 
0.3

>  <cluster>  (14) 
1

$$$$

     RDKit          3D

 44 46  0  0  0  0  0  0  0  0999 V2000
  135.4910   68.6870  224.8000 O   0  0  0  0  0  0  0  0  0  0  0  0
  135.8520   69.8850  224.9450 C   0  0  0  0  0  0  0  0  0  0  0  0
  137.1680   70.2580  224.5610 N   0  0  0  0  0  0  0  0  0  0  0  0
  138.0300   69.2430  224.0200 C   0  0  0  0  0  0  0  0  0  0  0  0
  138.9090   68.6310  225.0550 C   0  0  0  0  0  0  0  0  0  0  0  0
  138.9190   67.3950  225.2960 O   0  0  0  0  0  0  0  0  0  0  0  0
  139.7590   69.5090  225.7820 N   0  0  0  0  0  0  0  0  0  0  0  0
  139.7930   70.9470  225.5500 C   0  0  0  0  0  0  0  0  0  0  0  0
  141.1020   71.4760  226.0870 C   0  0  0  0  0  0  0  0  0  0  0  0
  141.0790   71.3100  227.5890 C   0  0  0  0  0  0  0  0  0  0  0  0
  140.6020   69.9610  228.0210 C   0  0  0  0  0  0  0  0  0  0  0  0
  140.6610   69.0130  226.8200 C   0  0  0  0  0  0  0  0  0  0  0  0
  134.9410   70.8850  225.5010 C   0  0  0  0  0  0  0  0  0  0  0  0
  133.9100   70.4560  226.3300 C   0  0  0  0  0  0  0  0  0  0  0  0
  133.0520   71.3800  226.8550 C   0  0  0  0  0  0  0  0  0  0  0  0
  133.2160   72.7160  226.5610 C   0  0  0  0  0  0  0  0  0  0  0  0
  132.3640   73.6560  227.0800 C   0  0  0  0  0  0  0  0  0  0  0  0
  132.5080   75.0080  226.7990 C   0  0  0  0  0  0  0  0  0  0  0  0
  131.5820   76.0360  227.3610 C   0  0  0  0  0  0  0  0  0  0  0  0
  131.6820   76.1530  228.7160 F   0  0  0  0  0  0  0  0  0  0  0  0
  130.3060   75.7430  226.9200 F   0  0  0  0  0  0  0  0  0  0  0  0
  131.9260   77.2690  226.8200 F   0  0  0  0  0  0  0  0  0  0  0  0
  133.5480   75.3910  225.9680 C   0  0  0  0  0  0  0  0  0  0  0  0
  134.4350   74.4810  225.4200 C   0  0  0  0  0  0  0  0  0  0  0  0
  134.2490   73.1500  225.7310 C   0  0  0  0  0  0  0  0  0  0  0  0
  135.0640   72.1980  225.2410 N   0  0  0  0  0  0  0  0  0  0  0  0
  137.4740   71.2670  224.6830 H   0  0  0  0  0  0  0  0  0  0  0  0
  137.4081   68.4532  223.5733 H   0  0  0  0  0  0  0  0  0  0  0  0
  138.6782   69.7196  223.2699 H   0  0  0  0  0  0  0  0  0  0  0  0
  139.7214   71.1529  224.4718 H   0  0  0  0  0  0  0  0  0  0  0  0
  138.9472   71.4356  226.0559 H   0  0  0  0  0  0  0  0  0  0  0  0
  141.9405   70.9068  225.6593 H   0  0  0  0  0  0  0  0  0  0  0  0
  141.2314   72.5344  225.8168 H   0  0  0  0  0  0  0  0  0  0  0  0
  142.0983   71.4610  227.9739 H   0  0  0  0  0  0  0  0  0  0  0  0
  140.3737   72.0523  227.9910 H   0  0  0  0  0  0  0  0  0  0  0  0
  141.2479   69.5799  228.8257 H   0  0  0  0  0  0  0  0  0  0  0  0
  139.5696   70.0298  228.3945 H   0  0  0  0  0  0  0  0  0  0  0  0
  141.6886   68.9751  226.4293 H   0  0  0  0  0  0  0  0  0  0  0  0
  140.3561   68.0018  227.1274 H   0  0  0  0  0  0  0  0  0  0  0  0
  133.7872   69.3873  226.5597 H   0  0  0  0  0  0  0  0  0  0  0  0
  132.2307   71.0577  227.5120 H   0  0  0  0  0  0  0  0  0  0  0  0
  131.5440   73.3304  227.7369 H   0  0  0  0  0  0  0  0  0  0  0  0
  133.6736   76.4587  225.7349 H   0  0  0  0  0  0  0  0  0  0  0  0
  135.2552   74.8059  224.7630 H   0  0  0  0  0  0  0  0  0  0  0  0
  1  2  2  0
  2  3  1  0
  3  4  1  0
  4  5  1  0
  5  6  2  0
  5  7  1  0
  7  8  1  0
  8  9  1  0
  9 10  1  0
 10 11  1  0
 11 12  1  0
  2 13  1  0
 13 14  2  0
 14 15  1  0
 15 16  2  0
 16 17  1  0
 17 18  2  0
 18 19  1  0
 19 20  1  0
 19 21  1  0
 19 22  1  0
 18 23  1  0
 23 24  2  0
 24 25  1  0
 25 26  2  0
 12  7  1  0
 26 13  1  0
 25 16  1  0
  3 27  1  0
  4 28  1  0
  4 29  1  0
  8 30  1  0
  8 31  1  0
  9 32  1  0
  9 33  1  0
 10 34  1  0
 10 35  1  0
 11 36  1  0
 11 37  1  0
 12 38  1  0
 12 39  1  0
 14 40  1  0
 15 41  1  0
 17 42  1  0
 23 43  1  0
 24 44  1  0
M  END
>  <smiles>  (15) 
O=C(NCC(=O)N1CCCCC1)c1ccc2cc(C(F)(F)F)ccc2n1

>  <score_type>  (15) 
oracle

>  <origin>  (15) 
autodockgpu

>  <m_score__min__energy>  (15) 
-7.3200000000000003

>  <m_primary>  (15) 
energy

>  <rmsd>  (15) 
8.213859651064142

>  <m_score__min__rmsd>  (15) 
8.213859651064142

>  <meeko>  (15) 
{"free_energy": -7.18, "intermolecular_energy": -8.38, "internal_energy": -0.99, "cluster_size": 19, "cluster_id": 2, "rank_in_cluster": 7}

>  <energy>  (15) 
-7.19

>  <cluster_rmsd>  (15) 
0.18

>  <cluster>  (15) 
1

$$$$

     RDKit          3D

 44 46  0  0  0  0  0  0  0  0999 V2000
  139.8940   73.2490  220.3520 O   0  0  0  0  0  0  0  0  0  0  0  0
  139.6980   73.4090  221.5860 C   0  0  0  0  0  0  0  0  0  0  0  0
  139.4720   74.7210  222.0810 N   0  0  0  0  0  0  0  0  0  0  0  0
  139.4780   75.8110  221.1430 C   0  0  0  0  0  0  0  0  0  0  0  0
  140.7300   76.6150  221.2130 C   0  0  0  0  0  0  0  0  0  0  0  0
  141.8000   76.2590  220.6520 O   0  0  0  0  0  0  0  0  0  0  0  0
  140.6780   77.8290  221.9510 N   0  0  0  0  0  0  0  0  0  0  0  0
  139.4720   78.2950  222.6220 C   0  0  0  0  0  0  0  0  0  0  0  0
  139.6090   79.7810  222.8520 C   0  0  0  0  0  0  0  0  0  0  0  0
  140.7290   79.9870  223.8460 C   0  0  0  0  0  0  0  0  0  0  0  0
  141.9460   79.1790  223.5320 C   0  0  0  0  0  0  0  0  0  0  0  0
  141.8510   78.6940  222.0820 C   0  0  0  0  0  0  0  0  0  0  0  0
  139.7010   72.2720  222.5030 C   0  0  0  0  0  0  0  0  0  0  0  0
  139.0540   71.1030  222.1150 C   0  0  0  0  0  0  0  0  0  0  0  0
  139.0490   70.0330  222.9630 C   0  0  0  0  0  0  0  0  0  0  0  0
  139.6800   70.1210  224.1860 C   0  0  0  0  0  0  0  0  0  0  0  0
  139.6850   69.0560  225.0480 C   0  0  0  0  0  0  0  0  0  0  0  0
  140.3130   69.1190  226.2850 C   0  0  0  0  0  0  0  0  0  0  0  0
  140.3210   67.9630  227.2290 C   0  0  0  0  0  0  0  0  0  0  0  0
  139.9130   66.8010  226.6450 F   0  0  0  0  0  0  0  0  0  0  0  0
  139.5780   68.3180  228.3400 F   0  0  0  0  0  0  0  0  0  0  0  0
  141.6270   67.7660  227.6600 F   0  0  0  0  0  0  0  0  0  0  0  0
  140.9440   70.3030  226.6320 C   0  0  0  0  0  0  0  0  0  0  0  0
  140.9680   71.4050  225.7960 C   0  0  0  0  0  0  0  0  0  0  0  0
  140.3290   71.2900  224.5790 C   0  0  0  0  0  0  0  0  0  0  0  0
  140.3030   72.3130  223.7050 N   0  0  0  0  0  0  0  0  0  0  0  0
  139.3060   74.8590  223.1210 H   0  0  0  0  0  0  0  0  0  0  0  0
  139.3770   75.4027  220.1266 H   0  0  0  0  0  0  0  0  0  0  0  0
  138.6387   76.4754  221.3963 H   0  0  0  0  0  0  0  0  0  0  0  0
  138.5932   78.0945  221.9915 H   0  0  0  0  0  0  0  0  0  0  0  0
  139.3418   77.7709  223.5803 H   0  0  0  0  0  0  0  0  0  0  0  0
  139.8497   80.2867  221.9053 H   0  0  0  0  0  0  0  0  0  0  0  0
  138.6681   80.2012  223.2368 H   0  0  0  0  0  0  0  0  0  0  0  0
  141.0058   81.0516  223.8461 H   0  0  0  0  0  0  0  0  0  0  0  0
  140.3607   79.6576  224.8288 H   0  0  0  0  0  0  0  0  0  0  0  0
  142.8453   79.8001  223.6567 H   0  0  0  0  0  0  0  0  0  0  0  0
  142.0104   78.3173  224.2126 H   0  0  0  0  0  0  0  0  0  0  0  0
  141.7504   79.5581  221.4088 H   0  0  0  0  0  0  0  0  0  0  0  0
  142.7598   78.1352  221.8141 H   0  0  0  0  0  0  0  0  0  0  0  0
  138.5530   71.0416  221.1377 H   0  0  0  0  0  0  0  0  0  0  0  0
  138.5421   69.1015  222.6709 H   0  0  0  0  0  0  0  0  0  0  0  0
  139.1778   68.1258  224.7522 H   0  0  0  0  0  0  0  0  0  0  0  0
  141.4448   70.3691  227.6092 H   0  0  0  0  0  0  0  0  0  0  0  0
  141.4761   72.3353  226.0899 H   0  0  0  0  0  0  0  0  0  0  0  0
  1  2  2  0
  2  3  1  0
  3  4  1  0
  4  5  1  0
  5  6  2  0
  5  7  1  0
  7  8  1  0
  8  9  1  0
  9 10  1  0
 10 11  1  0
 11 12  1  0
  2 13  1  0
 13 14  2  0
 14 15  1  0
 15 16  2  0
 16 17  1  0
 17 18  2  0
 18 19  1  0
 19 20  1  0
 19 21  1  0
 19 22  1  0
 18 23  1  0
 23 24  2  0
 24 25  1  0
 25 26  2  0
 12  7  1  0
 26 13  1  0
 25 16  1  0
  3 27  1  0
  4 28  1  0
  4 29  1  0
  8 30  1  0
  8 31  1  0
  9 32  1  0
  9 33  1  0
 10 34  1  0
 10 35  1  0
 11 36  1  0
 11 37  1  0
 12 38  1  0
 12 39  1  0
 14 40  1  0
 15 41  1  0
 17 42  1  0
 23 43  1  0
 24 44  1  0
M  END
>  <smiles>  (16) 
O=C(NCC(=O)N1CCCCC1)c1ccc2cc(C(F)(F)F)ccc2n1

>  <score_type>  (16) 
oracle

>  <origin>  (16) 
autodockgpu

>  <m_score__min__energy>  (16) 
-7.3200000000000003

>  <m_primary>  (16) 
energy

>  <rmsd>  (16) 
3.8559310072428263

>  <m_score__min__rmsd>  (16) 
3.8559310072428263

>  <meeko>  (16) 
{"free_energy": -7.0, "intermolecular_energy": -8.2, "internal_energy": -0.85, "cluster_size": 28, "cluster_id": 1, "rank_in_cluster": 27}

>  <energy>  (16) 
-7.19

>  <cluster_rmsd>  (16) 
0.26

>  <cluster>  (16) 
1

$$$$

     RDKit          3D

 44 46  0  0  0  0  0  0  0  0999 V2000
  140.2960   73.7150  220.7640 O   0  0  0  0  0  0  0  0  0  0  0  0
  139.6890   73.7480  221.8670 C   0  0  0  0  0  0  0  0  0  0  0  0
  139.1170   74.9740  222.3000 N   0  0  0  0  0  0  0  0  0  0  0  0
  139.2590   76.1260  221.4520 C   0  0  0  0  0  0  0  0  0  0  0  0
  138.7770   77.3760  222.1040 C   0  0  0  0  0  0  0  0  0  0  0  0
  137.5630   77.7080  222.1260 O   0  0  0  0  0  0  0  0  0  0  0  0
  139.7570   78.2040  222.7170 N   0  0  0  0  0  0  0  0  0  0  0  0
  141.1760   77.8750  222.7240 C   0  0  0  0  0  0  0  0  0  0  0  0
  141.8300   78.6490  223.8440 C   0  0  0  0  0  0  0  0  0  0  0  0
  141.7570   80.1160  223.4880 C   0  0  0  0  0  0  0  0  0  0  0  0
  140.4080   80.5340  223.0000 C   0  0  0  0  0  0  0  0  0  0  0  0
  139.3920   79.4530  223.3840 C   0  0  0  0  0  0  0  0  0  0  0  0
  139.5700   72.5520  222.6980 C   0  0  0  0  0  0  0  0  0  0  0  0
  138.5910   71.6170  222.3790 C   0  0  0  0  0  0  0  0  0  0  0  0
  138.4680   70.4940  223.1480 C   0  0  0  0  0  0  0  0  0  0  0  0
  139.3100   70.3010  224.2220 C   0  0  0  0  0  0  0  0  0  0  0  0
  139.2000   69.1800  225.0030 C   0  0  0  0  0  0  0  0  0  0  0  0
  140.0350   68.9620  226.0910 C   0  0  0  0  0  0  0  0  0  0  0  0
  139.9200   67.7440  226.9460 C   0  0  0  0  0  0  0  0  0  0  0  0
  141.0700   67.0120  226.9800 F   0  0  0  0  0  0  0  0  0  0  0  0
  138.8180   67.0290  226.5180 F   0  0  0  0  0  0  0  0  0  0  0  0
  139.6590   68.1530  228.2470 F   0  0  0  0  0  0  0  0  0  0  0  0
  140.9960   69.9210  226.3730 C   0  0  0  0  0  0  0  0  0  0  0  0
  141.1470   71.0680  225.6150 C   0  0  0  0  0  0  0  0  0  0  0  0
  140.2930   71.2360  224.5450 C   0  0  0  0  0  0  0  0  0  0  0  0
  140.3690   72.3230  223.7550 N   0  0  0  0  0  0  0  0  0  0  0  0
  138.6060   75.0050  223.2300 H   0  0  0  0  0  0  0  0  0  0  0  0
  140.3222   76.2480  221.1975 H   0  0  0  0  0  0  0  0  0  0  0  0
  138.6455   75.9586  220.5545 H   0  0  0  0  0  0  0  0  0  0  0  0
  141.3079   76.7956  222.8897 H   0  0  0  0  0  0  0  0  0  0  0  0
  141.6339   78.1391  221.7593 H   0  0  0  0  0  0  0  0  0  0  0  0
  141.2969   78.4651  224.7884 H   0  0  0  0  0  0  0  0  0  0  0  0
  142.8761   78.3339  223.9723 H   0  0  0  0  0  0  0  0  0  0  0  0
  142.0040   80.7062  224.3828 H   0  0  0  0  0  0  0  0  0  0  0  0
  142.4708   80.2909  222.6695 H   0  0  0  0  0  0  0  0  0  0  0  0
  140.1256   81.4899  223.4652 H   0  0  0  0  0  0  0  0  0  0  0  0
  140.4265   80.6609  221.9075 H   0  0  0  0  0  0  0  0  0  0  0  0
  139.4024   79.3065  224.4742 H   0  0  0  0  0  0  0  0  0  0  0  0
  138.3830   79.7615  223.0729 H   0  0  0  0  0  0  0  0  0  0  0  0
  137.9245   71.7793  221.5191 H   0  0  0  0  0  0  0  0  0  0  0  0
  137.6981   69.7452  222.9102 H   0  0  0  0  0  0  0  0  0  0  0  0
  138.4296   68.4329  224.7615 H   0  0  0  0  0  0  0  0  0  0  0  0
  141.6640   69.7635  227.2326 H   0  0  0  0  0  0  0  0  0  0  0  0
  141.9169   71.8159  225.8557 H   0  0  0  0  0  0  0  0  0  0  0  0
  1  2  2  0
  2  3  1  0
  3  4  1  0
  4  5  1  0
  5  6  2  0
  5  7  1  0
  7  8  1  0
  8  9  1  0
  9 10  1  0
 10 11  1  0
 11 12  1  0
  2 13  1  0
 13 14  2  0
 14 15  1  0
 15 16  2  0
 16 17  1  0
 17 18  2  0
 18 19  1  0
 19 20  1  0
 19 21  1  0
 19 22  1  0
 18 23  1  0
 23 24  2  0
 24 25  1  0
 25 26  2  0
 12  7  1  0
 26 13  1  0
 25 16  1  0
  3 27  1  0
  4 28  1  0
  4 29  1  0
  8 30  1  0
  8 31  1  0
  9 32  1  0
  9 33  1  0
 10 34  1  0
 10 35  1  0
 11 36  1  0
 11 37  1  0
 12 38  1  0
 12 39  1  0
 14 40  1  0
 15 41  1  0
 17 42  1  0
 23 43  1  0
 24 44  1  0
M  END
>  <smiles>  (17) 
O=C(NCC(=O)N1CCCCC1)c1ccc2cc(C(F)(F)F)ccc2n1

>  <score_type>  (17) 
oracle

>  <origin>  (17) 
autodockgpu

>  <m_score__min__energy>  (17) 
-7.3200000000000003

>  <m_primary>  (17) 
energy

>  <rmsd>  (17) 
4.188430268431537

>  <m_score__min__rmsd>  (17) 
4.188430268431537

>  <meeko>  (17) 
{"free_energy": -7.26, "intermolecular_energy": -8.46, "internal_energy": -0.78, "cluster_size": 28, "cluster_id": 1, "rank_in_cluster": 6}

>  <energy>  (17) 
-7.19

>  <cluster_rmsd>  (17) 
0.91

>  <cluster>  (17) 
1

$$$$

     RDKit          3D

 44 46  0  0  0  0  0  0  0  0999 V2000
  140.7020   73.4740  220.7350 O   0  0  0  0  0  0  0  0  0  0  0  0
  139.9500   73.5080  221.7450 C   0  0  0  0  0  0  0  0  0  0  0  0
  139.2090   74.6900  222.0100 N   0  0  0  0  0  0  0  0  0  0  0  0
  139.3540   75.7990  221.1080 C   0  0  0  0  0  0  0  0  0  0  0  0
  140.6380   76.5290  221.3040 C   0  0  0  0  0  0  0  0  0  0  0  0
  141.7400   76.0940  220.8780 O   0  0  0  0  0  0  0  0  0  0  0  0
  140.5780   77.7650  222.0040 N   0  0  0  0  0  0  0  0  0  0  0  0
  139.3350   78.3200  222.5210 C   0  0  0  0  0  0  0  0  0  0  0  0
  139.5380   79.8020  222.7340 C   0  0  0  0  0  0  0  0  0  0  0  0
  140.5480   79.9690  223.8450 C   0  0  0  0  0  0  0  0  0  0  0  0
  141.7400   79.0820  223.6910 C   0  0  0  0  0  0  0  0  0  0  0  0
  141.7800   78.5610  222.2510 C   0  0  0  0  0  0  0  0  0  0  0  0
  139.8340   72.3560  222.6360 C   0  0  0  0  0  0  0  0  0  0  0  0
  138.9720   71.3240  222.2800 C   0  0  0  0  0  0  0  0  0  0  0  0
  138.8530   70.2420  223.1050 C   0  0  0  0  0  0  0  0  0  0  0  0
  139.5840   70.1830  224.2720 C   0  0  0  0  0  0  0  0  0  0  0  0
  139.4770   69.1040  225.1110 C   0  0  0  0  0  0  0  0  0  0  0  0
  140.2020   69.0210  226.2920 C   0  0  0  0  0  0  0  0  0  0  0  0
  140.0890   67.8490  227.2100 C   0  0  0  0  0  0  0  0  0  0  0  0
  139.9280   68.2130  228.5130 F   0  0  0  0  0  0  0  0  0  0  0  0
  141.1830   67.0330  226.9900 F   0  0  0  0  0  0  0  0  0  0  0  0
  138.9610   67.1240  226.8460 F   0  0  0  0  0  0  0  0  0  0  0  0
  141.0490   70.0720  226.6080 C   0  0  0  0  0  0  0  0  0  0  0  0
  141.1920   71.1820  225.7950 C   0  0  0  0  0  0  0  0  0  0  0  0
  140.4500   71.2150  224.6330 C   0  0  0  0  0  0  0  0  0  0  0  0
  140.5270   72.2570  223.7850 N   0  0  0  0  0  0  0  0  0  0  0  0
  138.5750   74.7200  222.8610 H   0  0  0  0  0  0  0  0  0  0  0  0
  139.3169   75.4213  220.0755 H   0  0  0  0  0  0  0  0  0  0  0  0
  138.5342   76.5040  221.3102 H   0  0  0  0  0  0  0  0  0  0  0  0
  138.5230   78.1547  221.7976 H   0  0  0  0  0  0  0  0  0  0  0  0
  139.0635   77.8316  223.4685 H   0  0  0  0  0  0  0  0  0  0  0  0
  139.9158   80.2655  221.8107 H   0  0  0  0  0  0  0  0  0  0  0  0
  138.5876   80.2882  222.9992 H   0  0  0  0  0  0  0  0  0  0  0  0
  140.8887   81.0149  223.8542 H   0  0  0  0  0  0  0  0  0  0  0  0
  140.0505   79.6898  224.7855 H   0  0  0  0  0  0  0  0  0  0  0  0
  142.6561   79.6524  223.9041 H   0  0  0  0  0  0  0  0  0  0  0  0
  141.6734   78.2383  224.3937 H   0  0  0  0  0  0  0  0  0  0  0  0
  141.8117   79.4095  221.5516 H   0  0  0  0  0  0  0  0  0  0  0  0
  142.6761   77.9404  222.1029 H   0  0  0  0  0  0  0  0  0  0  0  0
  138.3935   71.3786  221.3460 H   0  0  0  0  0  0  0  0  0  0  0  0
  138.1744   69.4184  222.8383 H   0  0  0  0  0  0  0  0  0  0  0  0
  138.7982   68.2816  224.8410 H   0  0  0  0  0  0  0  0  0  0  0  0
  141.6296   70.0213  227.5409 H   0  0  0  0  0  0  0  0  0  0  0  0
  141.8702   72.0051  226.0645 H   0  0  0  0  0  0  0  0  0  0  0  0
  1  2  2  0
  2  3  1  0
  3  4  1  0
  4  5  1  0
  5  6  2  0
  5  7  1  0
  7  8  1  0
  8  9  1  0
  9 10  1  0
 10 11  1  0
 11 12  1  0
  2 13  1  0
 13 14  2  0
 14 15  1  0
 15 16  2  0
 16 17  1  0
 17 18  2  0
 18 19  1  0
 19 20  1  0
 19 21  1  0
 19 22  1  0
 18 23  1  0
 23 24  2  0
 24 25  1  0
 25 26  2  0
 12  7  1  0
 26 13  1  0
 25 16  1  0
  3 27  1  0
  4 28  1  0
  4 29  1  0
  8 30  1  0
  8 31  1  0
  9 32  1  0
  9 33  1  0
 10 34  1  0
 10 35  1  0
 11 36  1  0
 11 37  1  0
 12 38  1  0
 12 39  1  0
 14 40  1  0
 15 41  1  0
 17 42  1  0
 23 43  1  0
 24 44  1  0
M  END
>  <smiles>  (18) 
O=C(NCC(=O)N1CCCCC1)c1ccc2cc(C(F)(F)F)ccc2n1

>  <score_type>  (18) 
oracle

>  <origin>  (18) 
autodockgpu

>  <m_score__min__energy>  (18) 
-7.3200000000000003

>  <m_primary>  (18) 
energy

>  <rmsd>  (18) 
3.869307366091878

>  <m_score__min__rmsd>  (18) 
3.869307366091878

>  <meeko>  (18) 
{"free_energy": -7.09, "intermolecular_energy": -8.28, "internal_energy": -0.76, "cluster_size": 28, "cluster_id": 1, "rank_in_cluster": 26}

>  <energy>  (18) 
-7.18

>  <cluster_rmsd>  (18) 
0.93

>  <cluster>  (18) 
1

$$$$

     RDKit          3D

 44 46  0  0  0  0  0  0  0  0999 V2000
  140.0960   72.9560  220.5370 O   0  0  0  0  0  0  0  0  0  0  0  0
  139.7930   73.2180  221.7310 C   0  0  0  0  0  0  0  0  0  0  0  0
  139.4810   74.5590  222.0830 N   0  0  0  0  0  0  0  0  0  0  0  0
  139.5260   75.5580  221.0510 C   0  0  0  0  0  0  0  0  0  0  0  0
  140.7360   76.4220  221.1470 C   0  0  0  0  0  0  0  0  0  0  0  0
  141.8300   76.1240  220.6010 O   0  0  0  0  0  0  0  0  0  0  0  0
  140.6130   77.6250  221.8950 N   0  0  0  0  0  0  0  0  0  0  0  0
  139.3750   78.0250  222.5500 C   0  0  0  0  0  0  0  0  0  0  0  0
  139.4360   79.5150  222.7950 C   0  0  0  0  0  0  0  0  0  0  0  0
  140.5290   79.7660  223.8080 C   0  0  0  0  0  0  0  0  0  0  0  0
  141.7890   79.0210  223.5070 C   0  0  0  0  0  0  0  0  0  0  0  0
  141.7400   78.5450  222.0520 C   0  0  0  0  0  0  0  0  0  0  0  0
  139.7610   72.1690  222.7480 C   0  0  0  0  0  0  0  0  0  0  0  0
  139.0760   70.9920  222.4670 C   0  0  0  0  0  0  0  0  0  0  0  0
  139.0370   70.0030  223.4090 C   0  0  0  0  0  0  0  0  0  0  0  0
  139.6730   70.1810  224.6190 C   0  0  0  0  0  0  0  0  0  0  0  0
  139.6450   69.1990  225.5750 C   0  0  0  0  0  0  0  0  0  0  0  0
  140.2770   69.3540  226.8010 C   0  0  0  0  0  0  0  0  0  0  0  0
  140.2490   68.2880  227.8460 C   0  0  0  0  0  0  0  0  0  0  0  0
  141.4680   67.7110  228.0460 F   0  0  0  0  0  0  0  0  0  0  0  0
  139.2550   67.3890  227.5070 F   0  0  0  0  0  0  0  0  0  0  0  0
  139.8730   68.8730  229.0490 F   0  0  0  0  0  0  0  0  0  0  0  0
  140.9470   70.5430  227.0390 C   0  0  0  0  0  0  0  0  0  0  0  0
  141.0050   71.5630  226.1070 C   0  0  0  0  0  0  0  0  0  0  0  0
  140.3610   71.3590  224.9050 C   0  0  0  0  0  0  0  0  0  0  0  0
  140.3660   72.3000  223.9420 N   0  0  0  0  0  0  0  0  0  0  0  0
  139.2250   74.7820  223.0890 H   0  0  0  0  0  0  0  0  0  0  0  0
  139.5282   75.0550  220.0727 H   0  0  0  0  0  0  0  0  0  0  0  0
  138.6435   76.2035  221.1713 H   0  0  0  0  0  0  0  0  0  0  0  0
  138.5172   77.7879  221.9035 H   0  0  0  0  0  0  0  0  0  0  0  0
  139.2549   77.4861  223.5014 H   0  0  0  0  0  0  0  0  0  0  0  0
  139.6663   80.0405  221.8565 H   0  0  0  0  0  0  0  0  0  0  0  0
  138.4700   79.8854  223.1685 H   0  0  0  0  0  0  0  0  0  0  0  0
  140.7535   80.8428  223.8213 H   0  0  0  0  0  0  0  0  0  0  0  0
  140.1619   79.4100  224.7819 H   0  0  0  0  0  0  0  0  0  0  0  0
  142.6548   79.6840  223.6510 H   0  0  0  0  0  0  0  0  0  0  0  0
  141.8851   78.1575  224.1817 H   0  0  0  0  0  0  0  0  0  0  0  0
  141.6076   79.4092  221.3845 H   0  0  0  0  0  0  0  0  0  0  0  0
  142.6790   78.0334  221.7941 H   0  0  0  0  0  0  0  0  0  0  0  0
  138.5718   70.8588  221.4985 H   0  0  0  0  0  0  0  0  0  0  0  0
  138.4989   69.0662  223.2021 H   0  0  0  0  0  0  0  0  0  0  0  0
  139.1071   68.2628  225.3648 H   0  0  0  0  0  0  0  0  0  0  0  0
  141.4522   70.6810  228.0063 H   0  0  0  0  0  0  0  0  0  0  0  0
  141.5432   72.4993  226.3161 H   0  0  0  0  0  0  0  0  0  0  0  0
  1  2  2  0
  2  3  1  0
  3  4  1  0
  4  5  1  0
  5  6  2  0
  5  7  1  0
  7  8  1  0
  8  9  1  0
  9 10  1  0
 10 11  1  0
 11 12  1  0
  2 13  1  0
 13 14  2  0
 14 15  1  0
 15 16  2  0
 16 17  1  0
 17 18  2  0
 18 19  1  0
 19 20  1  0
 19 21  1  0
 19 22  1  0
 18 23  1  0
 23 24  2  0
 24 25  1  0
 25 26  2  0
 12  7  1  0
 26 13  1  0
 25 16  1  0
  3 27  1  0
  4 28  1  0
  4 29  1  0
  8 30  1  0
  8 31  1  0
  9 32  1  0
  9 33  1  0
 10 34  1  0
 10 35  1  0
 11 36  1  0
 11 37  1  0
 12 38  1  0
 12 39  1  0
 14 40  1  0
 15 41  1  0
 17 42  1  0
 23 43  1  0
 24 44  1  0
M  END
>  <smiles>  (19) 
O=C(NCC(=O)N1CCCCC1)c1ccc2cc(C(F)(F)F)ccc2n1

>  <score_type>  (19) 
oracle

>  <origin>  (19) 
autodockgpu

>  <m_score__min__energy>  (19) 
-7.3200000000000003

>  <m_primary>  (19) 
energy

>  <rmsd>  (19) 
3.7117191420351063

>  <m_score__min__rmsd>  (19) 
3.7117191420351063

>  <meeko>  (19) 
{"free_energy": -7.15, "intermolecular_energy": -8.34, "internal_energy": -0.84, "cluster_size": 28, "cluster_id": 1, "rank_in_cluster": 22}

>  <energy>  (19) 
-7.18

>  <cluster_rmsd>  (19) 
1.02

>  <cluster>  (19) 
1

$$$$

     RDKit          3D

 44 46  0  0  0  0  0  0  0  0999 V2000
  135.5580   68.8040  224.7400 O   0  0  0  0  0  0  0  0  0  0  0  0
  135.8810   70.0170  224.8450 C   0  0  0  0  0  0  0  0  0  0  0  0
  137.1810   70.4190  224.4370 N   0  0  0  0  0  0  0  0  0  0  0  0
  138.0710   69.4150  223.9210 C   0  0  0  0  0  0  0  0  0  0  0  0
  138.8830   68.7690  224.9900 C   0  0  0  0  0  0  0  0  0  0  0  0
  138.8320   67.5340  225.2300 O   0  0  0  0  0  0  0  0  0  0  0  0
  139.7390   69.6120  225.7500 N   0  0  0  0  0  0  0  0  0  0  0  0
  139.8420   71.0470  225.5200 C   0  0  0  0  0  0  0  0  0  0  0  0
  141.1490   71.5220  226.1090 C   0  0  0  0  0  0  0  0  0  0  0  0
  141.0590   71.3590  227.6090 C   0  0  0  0  0  0  0  0  0  0  0  0
  140.5100   70.0320  228.0210 C   0  0  0  0  0  0  0  0  0  0  0  0
  140.5780   69.0800  226.8230 C   0  0  0  0  0  0  0  0  0  0  0  0
  134.9440   71.0040  225.3760 C   0  0  0  0  0  0  0  0  0  0  0  0
  133.8840   70.5590  226.1600 C   0  0  0  0  0  0  0  0  0  0  0  0
  133.0000   71.4710  226.6630 C   0  0  0  0  0  0  0  0  0  0  0  0
  133.1660   72.8120  226.3910 C   0  0  0  0  0  0  0  0  0  0  0  0
  132.2880   73.7400  226.8880 C   0  0  0  0  0  0  0  0  0  0  0  0
  132.4340   75.0960  226.6280 C   0  0  0  0  0  0  0  0  0  0  0  0
  131.4810   76.1120  227.1660 C   0  0  0  0  0  0  0  0  0  0  0  0
  131.8130   76.5370  228.4180 F   0  0  0  0  0  0  0  0  0  0  0  0
  130.2060   75.5850  227.0760 F   0  0  0  0  0  0  0  0  0  0  0  0
  131.5200   77.2240  226.3350 F   0  0  0  0  0  0  0  0  0  0  0  0
  133.5030   75.4950  225.8420 C   0  0  0  0  0  0  0  0  0  0  0  0
  134.4160   74.5970  225.3180 C   0  0  0  0  0  0  0  0  0  0  0  0
  134.2270   73.2620  225.6060 C   0  0  0  0  0  0  0  0  0  0  0  0
  135.0670   72.3210  225.1360 N   0  0  0  0  0  0  0  0  0  0  0  0
  137.4560   71.4410  224.5250 H   0  0  0  0  0  0  0  0  0  0  0  0
  137.4748   68.6415  223.4148 H   0  0  0  0  0  0  0  0  0  0  0  0
  138.7657   69.9093  223.2260 H   0  0  0  0  0  0  0  0  0  0  0  0
  139.8222   71.2542  224.4399 H   0  0  0  0  0  0  0  0  0  0  0  0
  138.9977   71.5710  225.9918 H   0  0  0  0  0  0  0  0  0  0  0  0
  141.9797   70.9181  225.7150 H   0  0  0  0  0  0  0  0  0  0  0  0
  141.3329   72.5738  225.8446 H   0  0  0  0  0  0  0  0  0  0  0  0
  142.0675   71.4683  228.0344 H   0  0  0  0  0  0  0  0  0  0  0  0
  140.3694   72.1303  227.9826 H   0  0  0  0  0  0  0  0  0  0  0  0
  141.1068   69.6259  228.8510 H   0  0  0  0  0  0  0  0  0  0  0  0
  139.4671   70.1440  228.3524 H   0  0  0  0  0  0  0  0  0  0  0  0
  141.6179   68.9992  226.4736 H   0  0  0  0  0  0  0  0  0  0  0  0
  140.2201   68.0825  227.1176 H   0  0  0  0  0  0  0  0  0  0  0  0
  133.7595   69.4868  226.3720 H   0  0  0  0  0  0  0  0  0  0  0  0
  132.1566   71.1355  227.2844 H   0  0  0  0  0  0  0  0  0  0  0  0
  131.4456   73.4014  227.5091 H   0  0  0  0  0  0  0  0  0  0  0  0
  133.6307   76.5661  225.6264 H   0  0  0  0  0  0  0  0  0  0  0  0
  135.2586   74.9346  224.6967 H   0  0  0  0  0  0  0  0  0  0  0  0
  1  2  2  0
  2  3  1  0
  3  4  1  0
  4  5  1  0
  5  6  2  0
  5  7  1  0
  7  8  1  0
  8  9  1  0
  9 10  1  0
 10 11  1  0
 11 12  1  0
  2 13  1  0
 13 14  2  0
 14 15  1  0
 15 16  2  0
 16 17  1  0
 17 18  2  0
 18 19  1  0
 19 20  1  0
 19 21  1  0
 19 22  1  0
 18 23  1  0
 23 24  2  0
 24 25  1  0
 25 26  2  0
 12  7  1  0
 26 13  1  0
 25 16  1  0
  3 27  1  0
  4 28  1  0
  4 29  1  0
  8 30  1  0
  8 31  1  0
  9 32  1  0
  9 33  1  0
 10 34  1  0
 10 35  1  0
 11 36  1  0
 11 37  1  0
 12 38  1  0
 12 39  1  0
 14 40  1  0
 15 41  1  0
 17 42  1  0
 23 43  1  0
 24 44  1  0
M  END
>  <smiles>  (20) 
O=C(NCC(=O)N1CCCCC1)c1ccc2cc(C(F)(F)F)ccc2n1

>  <score_type>  (20) 
oracle

>  <origin>  (20) 
autodockgpu

>  <m_score__min__energy>  (20) 
-7.3200000000000003

>  <m_primary>  (20) 
energy

>  <rmsd>  (20) 
8.195927886466558

>  <m_score__min__rmsd>  (20) 
8.195927886466558

>  <meeko>  (20) 
{"free_energy": -7.03, "intermolecular_energy": -8.22, "internal_energy": -1.04, "cluster_size": 19, "cluster_id": 2, "rank_in_cluster": 13}

>  <energy>  (20) 
-7.17

>  <cluster_rmsd>  (20) 
0.92

>  <cluster>  (20) 
1

$$$$

     RDKit          3D

 44 46  0  0  0  0  0  0  0  0999 V2000
  140.0610   73.5700  220.6600 O   0  0  0  0  0  0  0  0  0  0  0  0
  139.6510   73.6740  221.8460 C   0  0  0  0  0  0  0  0  0  0  0  0
  139.2470   74.9500  222.3230 N   0  0  0  0  0  0  0  0  0  0  0  0
  139.3240   76.0670  221.4230 C   0  0  0  0  0  0  0  0  0  0  0  0
  138.8180   77.3270  222.0340 C   0  0  0  0  0  0  0  0  0  0  0  0
  137.6010   77.6490  222.0210 O   0  0  0  0  0  0  0  0  0  0  0  0
  139.7770   78.1770  222.6510 N   0  0  0  0  0  0  0  0  0  0  0  0
  141.1980   77.8610  222.6990 C   0  0  0  0  0  0  0  0  0  0  0  0
  141.8180   78.6650  223.8160 C   0  0  0  0  0  0  0  0  0  0  0  0
  141.7430   80.1230  223.4250 C   0  0  0  0  0  0  0  0  0  0  0  0
  140.4020   80.5180  222.8960 C   0  0  0  0  0  0  0  0  0  0  0  0
  139.3870   79.4380  223.2810 C   0  0  0  0  0  0  0  0  0  0  0  0
  139.5890   72.5100  222.7270 C   0  0  0  0  0  0  0  0  0  0  0  0
  138.7070   71.4830  222.4100 C   0  0  0  0  0  0  0  0  0  0  0  0
  138.6390   70.3890  223.2260 C   0  0  0  0  0  0  0  0  0  0  0  0
  139.4390   70.3160  224.3460 C   0  0  0  0  0  0  0  0  0  0  0  0
  139.3830   69.2250  225.1740 C   0  0  0  0  0  0  0  0  0  0  0  0
  140.1790   69.1270  226.3080 C   0  0  0  0  0  0  0  0  0  0  0  0
  140.1220   67.9420  227.2150 C   0  0  0  0  0  0  0  0  0  0  0  0
  139.2060   67.0150  226.8150 F   0  0  0  0  0  0  0  0  0  0  0  0
  139.9230   68.4040  228.5020 F   0  0  0  0  0  0  0  0  0  0  0  0
  141.3650   67.3220  227.1940 F   0  0  0  0  0  0  0  0  0  0  0  0
  141.0430   70.1740  226.5870 C   0  0  0  0  0  0  0  0  0  0  0  0
  141.1360   71.2950  225.7820 C   0  0  0  0  0  0  0  0  0  0  0  0
  140.3250   71.3430  224.6680 C   0  0  0  0  0  0  0  0  0  0  0  0
  140.3510   72.3960  223.8300 N   0  0  0  0  0  0  0  0  0  0  0  0
  138.9010   75.0400  223.3230 H   0  0  0  0  0  0  0  0  0  0  0  0
  140.3745   76.2134  221.1314 H   0  0  0  0  0  0  0  0  0  0  0  0
  138.6908   75.8395  220.5528 H   0  0  0  0  0  0  0  0  0  0  0  0
  141.3351   76.7868  222.8919 H   0  0  0  0  0  0  0  0  0  0  0  0
  141.6766   78.1077  221.7398 H   0  0  0  0  0  0  0  0  0  0  0  0
  141.2631   78.4983  224.7510 H   0  0  0  0  0  0  0  0  0  0  0  0
  142.8629   78.3612  223.9770 H   0  0  0  0  0  0  0  0  0  0  0  0
  141.9643   80.7354  224.3116 H   0  0  0  0  0  0  0  0  0  0  0  0
  142.4750   80.2857  222.6202 H   0  0  0  0  0  0  0  0  0  0  0  0
  140.1008   81.4819  223.3322 H   0  0  0  0  0  0  0  0  0  0  0  0
  140.4451   80.6199  221.8016 H   0  0  0  0  0  0  0  0  0  0  0  0
  139.3737   79.3163  224.3742 H   0  0  0  0  0  0  0  0  0  0  0  0
  138.3830   79.7308  222.9400 H   0  0  0  0  0  0  0  0  0  0  0  0
  138.0723   71.5503  221.5141 H   0  0  0  0  0  0  0  0  0  0  0  0
  137.9467   69.5676  222.9893 H   0  0  0  0  0  0  0  0  0  0  0  0
  138.6894   68.4056  224.9341 H   0  0  0  0  0  0  0  0  0  0  0  0
  141.6788   70.1112  227.4824 H   0  0  0  0  0  0  0  0  0  0  0  0
  141.8291   72.1151  226.0209 H   0  0  0  0  0  0  0  0  0  0  0  0
  1  2  2  0
  2  3  1  0
  3  4  1  0
  4  5  1  0
  5  6  2  0
  5  7  1  0
  7  8  1  0
  8  9  1  0
  9 10  1  0
 10 11  1  0
 11 12  1  0
  2 13  1  0
 13 14  2  0
 14 15  1  0
 15 16  2  0
 16 17  1  0
 17 18  2  0
 18 19  1  0
 19 20  1  0
 19 21  1  0
 19 22  1  0
 18 23  1  0
 23 24  2  0
 24 25  1  0
 25 26  2  0
 12  7  1  0
 26 13  1  0
 25 16  1  0
  3 27  1  0
  4 28  1  0
  4 29  1  0
  8 30  1  0
  8 31  1  0
  9 32  1  0
  9 33  1  0
 10 34  1  0
 10 35  1  0
 11 36  1  0
 11 37  1  0
 12 38  1  0
 12 39  1  0
 14 40  1  0
 15 41  1  0
 17 42  1  0
 23 43  1  0
 24 44  1  0
M  END
>  <smiles>  (21) 
O=C(NCC(=O)N1CCCCC1)c1ccc2cc(C(F)(F)F)ccc2n1

>  <score_type>  (21) 
oracle

>  <origin>  (21) 
autodockgpu

>  <m_score__min__energy>  (21) 
-7.3200000000000003

>  <m_primary>  (21) 
energy

>  <rmsd>  (21) 
4.112367577864935

>  <m_score__min__rmsd>  (21) 
4.112367577864935

>  <meeko>  (21) 
{"free_energy": -7.26, "intermolecular_energy": -8.45, "internal_energy": -0.79, "cluster_size": 28, "cluster_id": 1, "rank_in_cluster": 7}

>  <energy>  (21) 
-7.16

>  <cluster_rmsd>  (21) 
0.29

>  <cluster>  (21) 
1

$$$$

     RDKit          3D

 44 46  0  0  0  0  0  0  0  0999 V2000
  140.2320   73.1600  220.5120 O   0  0  0  0  0  0  0  0  0  0  0  0
  139.8450   73.3410  221.6970 C   0  0  0  0  0  0  0  0  0  0  0  0
  139.4400   74.6430  222.0950 N   0  0  0  0  0  0  0  0  0  0  0  0
  139.4910   75.6980  221.1210 C   0  0  0  0  0  0  0  0  0  0  0  0
  140.7290   76.5190  221.2340 C   0  0  0  0  0  0  0  0  0  0  0  0
  141.8240   76.1740  220.7180 O   0  0  0  0  0  0  0  0  0  0  0  0
  140.6330   77.7370  221.9620 N   0  0  0  0  0  0  0  0  0  0  0  0
  139.3950   78.1900  222.5820 C   0  0  0  0  0  0  0  0  0  0  0  0
  139.5040   79.6790  222.8090 C   0  0  0  0  0  0  0  0  0  0  0  0
  140.5810   79.9050  223.8450 C   0  0  0  0  0  0  0  0  0  0  0  0
  141.8200   79.1120  223.5830 C   0  0  0  0  0  0  0  0  0  0  0  0
  141.7880   78.6170  222.1340 C   0  0  0  0  0  0  0  0  0  0  0  0
  139.8100   72.2390  222.6550 C   0  0  0  0  0  0  0  0  0  0  0  0
  139.2070   71.0450  222.2730 C   0  0  0  0  0  0  0  0  0  0  0  0
  139.1670   70.0070  223.1600 C   0  0  0  0  0  0  0  0  0  0  0  0
  139.7210   70.1520  224.4140 C   0  0  0  0  0  0  0  0  0  0  0  0
  139.6890   69.1190  225.3150 C   0  0  0  0  0  0  0  0  0  0  0  0
  140.2390   69.2400  226.5840 C   0  0  0  0  0  0  0  0  0  0  0  0
  140.2070   68.1190  227.5710 C   0  0  0  0  0  0  0  0  0  0  0  0
  139.9510   68.5410  228.8410 F   0  0  0  0  0  0  0  0  0  0  0  0
  141.3880   67.4120  227.4460 F   0  0  0  0  0  0  0  0  0  0  0  0
  139.1780   67.2580  227.2120 F   0  0  0  0  0  0  0  0  0  0  0  0
  140.8290   70.4470  226.9230 C   0  0  0  0  0  0  0  0  0  0  0  0
  140.8860   71.5180  226.0490 C   0  0  0  0  0  0  0  0  0  0  0  0
  140.3260   71.3460  224.8010 C   0  0  0  0  0  0  0  0  0  0  0  0
  140.3370   72.3360  223.8890 N   0  0  0  0  0  0  0  0  0  0  0  0
  139.1140   74.7980  223.0940 H   0  0  0  0  0  0  0  0  0  0  0  0
  139.4536   75.2524  220.1160 H   0  0  0  0  0  0  0  0  0  0  0  0
  138.6323   76.3614  221.3013 H   0  0  0  0  0  0  0  0  0  0  0  0
  138.5447   77.9749  221.9182 H   0  0  0  0  0  0  0  0  0  0  0  0
  139.2331   77.6688  223.5371 H   0  0  0  0  0  0  0  0  0  0  0  0
  139.7753   80.1829  221.8696 H   0  0  0  0  0  0  0  0  0  0  0  0
  138.5433   80.0888  223.1543 H   0  0  0  0  0  0  0  0  0  0  0  0
  140.8433   80.9732  223.8504 H   0  0  0  0  0  0  0  0  0  0  0  0
  140.1788   79.5755  224.8144 H   0  0  0  0  0  0  0  0  0  0  0  0
  142.7053   79.7462  223.7382 H   0  0  0  0  0  0  0  0  0  0  0  0
  141.8695   78.2552  224.2711 H   0  0  0  0  0  0  0  0  0  0  0  0
  141.7033   79.4757  221.4518 H   0  0  0  0  0  0  0  0  0  0  0  0
  142.7135   78.0678  221.9062 H   0  0  0  0  0  0  0  0  0  0  0  0
  138.7682   70.9382  221.2700 H   0  0  0  0  0  0  0  0  0  0  0  0
  138.6932   69.0564  222.8740 H   0  0  0  0  0  0  0  0  0  0  0  0
  139.2152   68.1696  225.0248 H   0  0  0  0  0  0  0  0  0  0  0  0
  141.2688   70.5579  227.9251 H   0  0  0  0  0  0  0  0  0  0  0  0
  141.3589   72.4681  226.3381 H   0  0  0  0  0  0  0  0  0  0  0  0
  1  2  2  0
  2  3  1  0
  3  4  1  0
  4  5  1  0
  5  6  2  0
  5  7  1  0
  7  8  1  0
  8  9  1  0
  9 10  1  0
 10 11  1  0
 11 12  1  0
  2 13  1  0
 13 14  2  0
 14 15  1  0
 15 16  2  0
 16 17  1  0
 17 18  2  0
 18 19  1  0
 19 20  1  0
 19 21  1  0
 19 22  1  0
 18 23  1  0
 23 24  2  0
 24 25  1  0
 25 26  2  0
 12  7  1  0
 26 13  1  0
 25 16  1  0
  3 27  1  0
  4 28  1  0
  4 29  1  0
  8 30  1  0
  8 31  1  0
  9 32  1  0
  9 33  1  0
 10 34  1  0
 10 35  1  0
 11 36  1  0
 11 37  1  0
 12 38  1  0
 12 39  1  0
 14 40  1  0
 15 41  1  0
 17 42  1  0
 23 43  1  0
 24 44  1  0
M  END
>  <smiles>  (22) 
O=C(NCC(=O)N1CCCCC1)c1ccc2cc(C(F)(F)F)ccc2n1

>  <score_type>  (22) 
oracle

>  <origin>  (22) 
autodockgpu

>  <m_score__min__energy>  (22) 
-7.3200000000000003

>  <m_primary>  (22) 
energy

>  <rmsd>  (22) 
3.795006268903

>  <m_score__min__rmsd>  (22) 
3.795006268903

>  <meeko>  (22) 
{"free_energy": -7.17, "intermolecular_energy": -8.36, "internal_energy": -0.84, "cluster_size": 28, "cluster_id": 1, "rank_in_cluster": 20}

>  <energy>  (22) 
-7.15

>  <cluster_rmsd>  (22) 
0.99

>  <cluster>  (22) 
1

$$$$

     RDKit          3D

 44 46  0  0  0  0  0  0  0  0999 V2000
  135.7210   68.8920  224.7010 O   0  0  0  0  0  0  0  0  0  0  0  0
  135.9980   70.1200  224.7520 C   0  0  0  0  0  0  0  0  0  0  0  0
  137.2390   70.5660  224.2250 N   0  0  0  0  0  0  0  0  0  0  0  0
  138.1250   69.5890  223.6530 C   0  0  0  0  0  0  0  0  0  0  0  0
  138.9000   68.8490  224.6880 C   0  0  0  0  0  0  0  0  0  0  0  0
  138.8490   67.5970  224.8100 O   0  0  0  0  0  0  0  0  0  0  0  0
  139.7200   69.6200  225.5560 N   0  0  0  0  0  0  0  0  0  0  0  0
  139.8210   71.0700  225.4660 C   0  0  0  0  0  0  0  0  0  0  0  0
  141.1010   71.4940  226.1470 C   0  0  0  0  0  0  0  0  0  0  0  0
  140.9550   71.1900  227.6210 C   0  0  0  0  0  0  0  0  0  0  0  0
  140.4010   69.8280  227.8850 C   0  0  0  0  0  0  0  0  0  0  0  0
  140.5220   68.9930  226.6070 C   0  0  0  0  0  0  0  0  0  0  0  0
  135.0670   71.0790  225.3430 C   0  0  0  0  0  0  0  0  0  0  0  0
  134.0830   70.6050  226.2050 C   0  0  0  0  0  0  0  0  0  0  0  0
  133.2060   71.4900  226.7640 C   0  0  0  0  0  0  0  0  0  0  0  0
  133.3050   72.8340  226.4710 C   0  0  0  0  0  0  0  0  0  0  0  0
  132.4330   73.7350  227.0240 C   0  0  0  0  0  0  0  0  0  0  0  0
  132.5120   75.0930  226.7450 C   0  0  0  0  0  0  0  0  0  0  0  0
  131.5640   76.0800  227.3430 C   0  0  0  0  0  0  0  0  0  0  0  0
  130.2620   75.8140  227.0390 F   0  0  0  0  0  0  0  0  0  0  0  0
  131.9770   77.3440  226.9670 F   0  0  0  0  0  0  0  0  0  0  0  0
  131.6830   76.0090  228.7260 F   0  0  0  0  0  0  0  0  0  0  0  0
  133.5070   75.5210  225.8810 C   0  0  0  0  0  0  0  0  0  0  0  0
  134.4110   74.6510  225.2990 C   0  0  0  0  0  0  0  0  0  0  0  0
  134.2900   73.3130  225.6080 C   0  0  0  0  0  0  0  0  0  0  0  0
  135.1260   72.3970  225.0860 N   0  0  0  0  0  0  0  0  0  0  0  0
  137.4750   71.6010  224.2680 H   0  0  0  0  0  0  0  0  0  0  0  0
  137.5290   68.8673  223.0750 H   0  0  0  0  0  0  0  0  0  0  0  0
  138.8440   70.1223  223.0137 H   0  0  0  0  0  0  0  0  0  0  0  0
  139.8408   71.3776  224.4101 H   0  0  0  0  0  0  0  0  0  0  0  0
  138.9554   71.5434  225.9525 H   0  0  0  0  0  0  0  0  0  0  0  0
  141.9512   70.9338  225.7306 H   0  0  0  0  0  0  0  0  0  0  0  0
  141.2861   72.5668  225.9896 H   0  0  0  0  0  0  0  0  0  0  0  0
  141.9456   71.2629  228.0936 H   0  0  0  0  0  0  0  0  0  0  0  0
  140.2457   71.9198  228.0384 H   0  0  0  0  0  0  0  0  0  0  0  0
  140.9687   69.3482  228.6959 H   0  0  0  0  0  0  0  0  0  0  0  0
  139.3453   69.9042  228.1846 H   0  0  0  0  0  0  0  0  0  0  0  0
  141.5751   68.9496  226.2921 H   0  0  0  0  0  0  0  0  0  0  0  0
  140.1607   67.9708  226.7930 H   0  0  0  0  0  0  0  0  0  0  0  0
  134.0124   69.5313  226.4332 H   0  0  0  0  0  0  0  0  0  0  0  0
  132.4218   71.1314  227.4470 H   0  0  0  0  0  0  0  0  0  0  0  0
  131.6501   73.3730  227.7067 H   0  0  0  0  0  0  0  0  0  0  0  0
  133.5808   76.5937  225.6491 H   0  0  0  0  0  0  0  0  0  0  0  0
  135.1949   75.0121  224.6170 H   0  0  0  0  0  0  0  0  0  0  0  0
  1  2  2  0
  2  3  1  0
  3  4  1  0
  4  5  1  0
  5  6  2  0
  5  7  1  0
  7  8  1  0
  8  9  1  0
  9 10  1  0
 10 11  1  0
 11 12  1  0
  2 13  1  0
 13 14  2  0
 14 15  1  0
 15 16  2  0
 16 17  1  0
 17 18  2  0
 18 19  1  0
 19 20  1  0
 19 21  1  0
 19 22  1  0
 18 23  1  0
 23 24  2  0
 24 25  1  0
 25 26  2  0
 12  7  1  0
 26 13  1  0
 25 16  1  0
  3 27  1  0
  4 28  1  0
  4 29  1  0
  8 30  1  0
  8 31  1  0
  9 32  1  0
  9 33  1  0
 10 34  1  0
 10 35  1  0
 11 36  1  0
 11 37  1  0
 12 38  1  0
 12 39  1  0
 14 40  1  0
 15 41  1  0
 17 42  1  0
 23 43  1  0
 24 44  1  0
M  END
>  <smiles>  (23) 
O=C(NCC(=O)N1CCCCC1)c1ccc2cc(C(F)(F)F)ccc2n1

>  <score_type>  (23) 
oracle

>  <origin>  (23) 
autodockgpu

>  <m_score__min__energy>  (23) 
-7.3200000000000003

>  <m_primary>  (23) 
energy

>  <rmsd>  (23) 
8.114007960339977

>  <m_score__min__rmsd>  (23) 
8.114007960339977

>  <meeko>  (23) 
{"free_energy": -7.01, "intermolecular_energy": -8.2, "internal_energy": -1.07, "cluster_size": 19, "cluster_id": 2, "rank_in_cluster": 15}

>  <energy>  (23) 
-7.15

>  <cluster_rmsd>  (23) 
0.93

>  <cluster>  (23) 
1

$$$$

     RDKit          3D

 44 46  0  0  0  0  0  0  0  0999 V2000
  135.7190   68.9110  224.6690 O   0  0  0  0  0  0  0  0  0  0  0  0
  135.9990   70.1370  224.7410 C   0  0  0  0  0  0  0  0  0  0  0  0
  137.2500   70.5870  224.2400 N   0  0  0  0  0  0  0  0  0  0  0  0
  138.1420   69.6140  223.6710 C   0  0  0  0  0  0  0  0  0  0  0  0
  138.9150   68.8750  224.7080 C   0  0  0  0  0  0  0  0  0  0  0  0
  138.8560   67.6240  224.8380 O   0  0  0  0  0  0  0  0  0  0  0  0
  139.7440   69.6460  225.5680 N   0  0  0  0  0  0  0  0  0  0  0  0
  139.8550   71.0950  225.4670 C   0  0  0  0  0  0  0  0  0  0  0  0
  141.1400   71.5130  226.1420 C   0  0  0  0  0  0  0  0  0  0  0  0
  140.9970   71.2200  227.6170 C   0  0  0  0  0  0  0  0  0  0  0  0
  140.4340   69.8640  227.8930 C   0  0  0  0  0  0  0  0  0  0  0  0
  140.5440   69.0200  226.6200 C   0  0  0  0  0  0  0  0  0  0  0  0
  135.0610   71.0920  225.3280 C   0  0  0  0  0  0  0  0  0  0  0  0
  134.0600   70.6100  226.1650 C   0  0  0  0  0  0  0  0  0  0  0  0
  133.1760   71.4910  226.7200 C   0  0  0  0  0  0  0  0  0  0  0  0
  133.2860   72.8380  226.4480 C   0  0  0  0  0  0  0  0  0  0  0  0
  132.4070   73.7360  226.9980 C   0  0  0  0  0  0  0  0  0  0  0  0
  132.4960   75.0970  226.7400 C   0  0  0  0  0  0  0  0  0  0  0  0
  131.5420   76.0800  227.3350 C   0  0  0  0  0  0  0  0  0  0  0  0
  130.2400   75.7800  227.0660 F   0  0  0  0  0  0  0  0  0  0  0  0
  131.9210   77.3420  226.9200 F   0  0  0  0  0  0  0  0  0  0  0  0
  131.6910   76.0440  228.7160 F   0  0  0  0  0  0  0  0  0  0  0  0
  133.5090   75.5330  225.9010 C   0  0  0  0  0  0  0  0  0  0  0  0
  134.4200   74.6670  225.3220 C   0  0  0  0  0  0  0  0  0  0  0  0
  134.2880   73.3250  225.6110 C   0  0  0  0  0  0  0  0  0  0  0  0
  135.1300   72.4140  225.0910 N   0  0  0  0  0  0  0  0  0  0  0  0
  137.4880   71.6200  224.2990 H   0  0  0  0  0  0  0  0  0  0  0  0
  137.5512   68.8911  223.0893 H   0  0  0  0  0  0  0  0  0  0  0  0
  138.8621   70.1510  223.0361 H   0  0  0  0  0  0  0  0  0  0  0  0
  139.8744   71.3950  224.4089 H   0  0  0  0  0  0  0  0  0  0  0  0
  138.9940   71.5788  225.9514 H   0  0  0  0  0  0  0  0  0  0  0  0
  141.9845   70.9435  225.7265 H   0  0  0  0  0  0  0  0  0  0  0  0
  141.3325   72.5835  225.9775 H   0  0  0  0  0  0  0  0  0  0  0  0
  141.9898   71.2889  228.0855 H   0  0  0  0  0  0  0  0  0  0  0  0
  140.2941   71.9577  228.0314 H   0  0  0  0  0  0  0  0  0  0  0  0
  141.0015   69.3855  228.7048 H   0  0  0  0  0  0  0  0  0  0  0  0
  139.3802   69.9497  228.1967 H   0  0  0  0  0  0  0  0  0  0  0  0
  141.5957   68.9662  226.3020 H   0  0  0  0  0  0  0  0  0  0  0  0
  140.1751   68.0020  226.8139 H   0  0  0  0  0  0  0  0  0  0  0  0
  133.9814   69.5335  226.3771 H   0  0  0  0  0  0  0  0  0  0  0  0
  132.3776   71.1263  227.3830 H   0  0  0  0  0  0  0  0  0  0  0  0
  131.6104   73.3678  227.6612 H   0  0  0  0  0  0  0  0  0  0  0  0
  133.5922   76.6088  225.6870 H   0  0  0  0  0  0  0  0  0  0  0  0
  135.2168   75.0340  224.6584 H   0  0  0  0  0  0  0  0  0  0  0  0
  1  2  2  0
  2  3  1  0
  3  4  1  0
  4  5  1  0
  5  6  2  0
  5  7  1  0
  7  8  1  0
  8  9  1  0
  9 10  1  0
 10 11  1  0
 11 12  1  0
  2 13  1  0
 13 14  2  0
 14 15  1  0
 15 16  2  0
 16 17  1  0
 17 18  2  0
 18 19  1  0
 19 20  1  0
 19 21  1  0
 19 22  1  0
 18 23  1  0
 23 24  2  0
 24 25  1  0
 25 26  2  0
 12  7  1  0
 26 13  1  0
 25 16  1  0
  3 27  1  0
  4 28  1  0
  4 29  1  0
  8 30  1  0
  8 31  1  0
  9 32  1  0
  9 33  1  0
 10 34  1  0
 10 35  1  0
 11 36  1  0
 11 37  1  0
 12 38  1  0
 12 39  1  0
 14 40  1  0
 15 41  1  0
 17 42  1  0
 23 43  1  0
 24 44  1  0
M  END
>  <smiles>  (24) 
O=C(NCC(=O)N1CCCCC1)c1ccc2cc(C(F)(F)F)ccc2n1

>  <score_type>  (24) 
oracle

>  <origin>  (24) 
autodockgpu

>  <m_score__min__energy>  (24) 
-7.3200000000000003

>  <m_primary>  (24) 
energy

>  <rmsd>  (24) 
8.10964887711289

>  <m_score__min__rmsd>  (24) 
8.10964887711289

>  <meeko>  (24) 
{"free_energy": -7.01, "intermolecular_energy": -8.21, "internal_energy": -1.06, "cluster_size": 19, "cluster_id": 2, "rank_in_cluster": 14}

>  <energy>  (24) 
-7.15

>  <cluster_rmsd>  (24) 
0.9

>  <cluster>  (24) 
1

$$$$

     RDKit          3D

 44 46  0  0  0  0  0  0  0  0999 V2000
  135.7760   68.8880  224.6600 O   0  0  0  0  0  0  0  0  0  0  0  0
  136.0380   70.1190  224.7100 C   0  0  0  0  0  0  0  0  0  0  0  0
  137.2890   70.5750  224.2140 N   0  0  0  0  0  0  0  0  0  0  0  0
  138.2010   69.6030  223.6770 C   0  0  0  0  0  0  0  0  0  0  0  0
  138.9410   68.8680  224.7400 C   0  0  0  0  0  0  0  0  0  0  0  0
  138.8680   67.6190  224.8810 O   0  0  0  0  0  0  0  0  0  0  0  0
  139.7550   69.6410  225.6130 N   0  0  0  0  0  0  0  0  0  0  0  0
  139.8810   71.0880  225.5010 C   0  0  0  0  0  0  0  0  0  0  0  0
  141.1530   71.5020  226.2020 C   0  0  0  0  0  0  0  0  0  0  0  0
  140.9710   71.2250  227.6770 C   0  0  0  0  0  0  0  0  0  0  0  0
  140.3890   69.8770  227.9520 C   0  0  0  0  0  0  0  0  0  0  0  0
  140.5240   69.0190  226.6900 C   0  0  0  0  0  0  0  0  0  0  0  0
  135.0800   71.0720  225.2660 C   0  0  0  0  0  0  0  0  0  0  0  0
  134.0640   70.5920  226.0850 C   0  0  0  0  0  0  0  0  0  0  0  0
  133.1610   71.4720  226.6110 C   0  0  0  0  0  0  0  0  0  0  0  0
  133.2660   72.8170  226.3270 C   0  0  0  0  0  0  0  0  0  0  0  0
  132.3690   73.7130  226.8470 C   0  0  0  0  0  0  0  0  0  0  0  0
  132.4540   75.0720  226.5760 C   0  0  0  0  0  0  0  0  0  0  0  0
  131.4790   76.0540  227.1390 C   0  0  0  0  0  0  0  0  0  0  0  0
  130.2080   75.8530  226.6890 F   0  0  0  0  0  0  0  0  0  0  0  0
  131.9650   77.3230  226.8890 F   0  0  0  0  0  0  0  0  0  0  0  0
  131.4530   75.8930  228.5190 F   0  0  0  0  0  0  0  0  0  0  0  0
  133.4810   75.5070  225.7550 C   0  0  0  0  0  0  0  0  0  0  0  0
  134.4110   74.6430  225.2060 C   0  0  0  0  0  0  0  0  0  0  0  0
  134.2830   73.3030  225.5070 C   0  0  0  0  0  0  0  0  0  0  0  0
  135.1440   72.3920  225.0150 N   0  0  0  0  0  0  0  0  0  0  0  0
  137.5120   71.6130  224.2550 H   0  0  0  0  0  0  0  0  0  0  0  0
  137.6311   68.8776  223.0778 H   0  0  0  0  0  0  0  0  0  0  0  0
  138.9405   70.1403  223.0651 H   0  0  0  0  0  0  0  0  0  0  0  0
  139.9279   71.3776  224.4408 H   0  0  0  0  0  0  0  0  0  0  0  0
  139.0131   71.5836  225.9605 H   0  0  0  0  0  0  0  0  0  0  0  0
  142.0022   70.9210  225.8129 H   0  0  0  0  0  0  0  0  0  0  0  0
  141.3594   72.5689  226.0312 H   0  0  0  0  0  0  0  0  0  0  0  0
  141.9526   71.2897  228.1692 H   0  0  0  0  0  0  0  0  0  0  0  0
  140.2650   71.9731  228.0668 H   0  0  0  0  0  0  0  0  0  0  0  0
  140.9312   69.4018  228.7828 H   0  0  0  0  0  0  0  0  0  0  0  0
  139.3287   69.9749  228.2279 H   0  0  0  0  0  0  0  0  0  0  0  0
  141.5827   68.9541  226.3986 H   0  0  0  0  0  0  0  0  0  0  0  0
  140.1429   68.0056  226.8844 H   0  0  0  0  0  0  0  0  0  0  0  0
  133.9882   69.5172  226.3066 H   0  0  0  0  0  0  0  0  0  0  0  0
  132.3512   71.1079  227.2603 H   0  0  0  0  0  0  0  0  0  0  0  0
  131.5604   73.3459  227.4962 H   0  0  0  0  0  0  0  0  0  0  0  0
  133.5601   76.5810  225.5309 H   0  0  0  0  0  0  0  0  0  0  0  0
  135.2194   75.0093  224.5561 H   0  0  0  0  0  0  0  0  0  0  0  0
  1  2  2  0
  2  3  1  0
  3  4  1  0
  4  5  1  0
  5  6  2  0
  5  7  1  0
  7  8  1  0
  8  9  1  0
  9 10  1  0
 10 11  1  0
 11 12  1  0
  2 13  1  0
 13 14  2  0
 14 15  1  0
 15 16  2  0
 16 17  1  0
 17 18  2  0
 18 19  1  0
 19 20  1  0
 19 21  1  0
 19 22  1  0
 18 23  1  0
 23 24  2  0
 24 25  1  0
 25 26  2  0
 12  7  1  0
 26 13  1  0
 25 16  1  0
  3 27  1  0
  4 28  1  0
  4 29  1  0
  8 30  1  0
  8 31  1  0
  9 32  1  0
  9 33  1  0
 10 34  1  0
 10 35  1  0
 11 36  1  0
 11 37  1  0
 12 38  1  0
 12 39  1  0
 14 40  1  0
 15 41  1  0
 17 42  1  0
 23 43  1  0
 24 44  1  0
M  END
>  <smiles>  (25) 
O=C(NCC(=O)N1CCCCC1)c1ccc2cc(C(F)(F)F)ccc2n1

>  <score_type>  (25) 
oracle

>  <origin>  (25) 
autodockgpu

>  <m_score__min__energy>  (25) 
-7.3200000000000003

>  <m_primary>  (25) 
energy

>  <rmsd>  (25) 
8.131629895487398

>  <m_score__min__rmsd>  (25) 
8.131629895487398

>  <meeko>  (25) 
{"free_energy": -6.95, "intermolecular_energy": -8.14, "internal_energy": -1.07, "cluster_size": 19, "cluster_id": 2, "rank_in_cluster": 16}

>  <energy>  (25) 
-7.12

>  <cluster_rmsd>  (25) 
0.89

>  <cluster>  (25) 
1

$$$$

     RDKit          3D

 44 46  0  0  0  0  0  0  0  0999 V2000
  135.4910   68.7430  224.7250 O   0  0  0  0  0  0  0  0  0  0  0  0
  135.8610   69.9360  224.8890 C   0  0  0  0  0  0  0  0  0  0  0  0
  137.1820   70.3020  224.5170 N   0  0  0  0  0  0  0  0  0  0  0  0
  138.0380   69.2880  223.9670 C   0  0  0  0  0  0  0  0  0  0  0  0
  138.9150   68.6630  224.9970 C   0  0  0  0  0  0  0  0  0  0  0  0
  138.9290   67.4240  225.2190 O   0  0  0  0  0  0  0  0  0  0  0  0
  139.7590   69.5330  225.7410 N   0  0  0  0  0  0  0  0  0  0  0  0
  139.7880   70.9740  225.5320 C   0  0  0  0  0  0  0  0  0  0  0  0
  141.0920   71.5010  226.0840 C   0  0  0  0  0  0  0  0  0  0  0  0
  141.0620   71.3110  227.5830 C   0  0  0  0  0  0  0  0  0  0  0  0
  140.5890   69.9530  227.9920 C   0  0  0  0  0  0  0  0  0  0  0  0
  140.6580   69.0240  226.7760 C   0  0  0  0  0  0  0  0  0  0  0  0
  134.9560   70.9350  225.4530 C   0  0  0  0  0  0  0  0  0  0  0  0
  133.9370   70.5070  226.2980 C   0  0  0  0  0  0  0  0  0  0  0  0
  133.0830   71.4310  226.8310 C   0  0  0  0  0  0  0  0  0  0  0  0
  133.2400   72.7670  226.5290 C   0  0  0  0  0  0  0  0  0  0  0  0
  132.3920   73.7070  227.0560 C   0  0  0  0  0  0  0  0  0  0  0  0
  132.5290   75.0580  226.7670 C   0  0  0  0  0  0  0  0  0  0  0  0
  131.6090   76.0860  227.3380 C   0  0  0  0  0  0  0  0  0  0  0  0
  130.3050   75.8730  227.0000 F   0  0  0  0  0  0  0  0  0  0  0  0
  132.0840   77.3300  226.9690 F   0  0  0  0  0  0  0  0  0  0  0  0
  131.6880   76.0150  228.7230 F   0  0  0  0  0  0  0  0  0  0  0  0
  133.5570   75.4390  225.9200 C   0  0  0  0  0  0  0  0  0  0  0  0
  134.4380   74.5300  225.3640 C   0  0  0  0  0  0  0  0  0  0  0  0
  134.2600   73.2000  225.6830 C   0  0  0  0  0  0  0  0  0  0  0  0
  135.0710   72.2480  225.1850 N   0  0  0  0  0  0  0  0  0  0  0  0
  137.4960   71.3070  224.6550 H   0  0  0  0  0  0  0  0  0  0  0  0
  137.4119   68.5050  223.5142 H   0  0  0  0  0  0  0  0  0  0  0  0
  138.6879   69.7675  223.2202 H   0  0  0  0  0  0  0  0  0  0  0  0
  139.7210   71.1964  224.4568 H   0  0  0  0  0  0  0  0  0  0  0  0
  138.9376   71.4507  226.0415 H   0  0  0  0  0  0  0  0  0  0  0  0
  141.9355   70.9428  225.6517 H   0  0  0  0  0  0  0  0  0  0  0  0
  141.2177   72.5641  225.8312 H   0  0  0  0  0  0  0  0  0  0  0  0
  142.0787   71.4606  227.9754 H   0  0  0  0  0  0  0  0  0  0  0  0
  140.3509   72.0435  227.9926 H   0  0  0  0  0  0  0  0  0  0  0  0
  141.2329   69.5623  228.7937 H   0  0  0  0  0  0  0  0  0  0  0  0
  139.5547   70.0112  228.3619 H   0  0  0  0  0  0  0  0  0  0  0  0
  141.6877   68.9964  226.3901 H   0  0  0  0  0  0  0  0  0  0  0  0
  140.3556   68.0068  227.0658 H   0  0  0  0  0  0  0  0  0  0  0  0
  133.8203   69.4390  226.5339 H   0  0  0  0  0  0  0  0  0  0  0  0
  132.2713   71.1093  227.5001 H   0  0  0  0  0  0  0  0  0  0  0  0
  131.5818   73.3821  227.7254 H   0  0  0  0  0  0  0  0  0  0  0  0
  133.6769   76.5059  225.6806 H   0  0  0  0  0  0  0  0  0  0  0  0
  135.2481   74.8544  224.6943 H   0  0  0  0  0  0  0  0  0  0  0  0
  1  2  2  0
  2  3  1  0
  3  4  1  0
  4  5  1  0
  5  6  2  0
  5  7  1  0
  7  8  1  0
  8  9  1  0
  9 10  1  0
 10 11  1  0
 11 12  1  0
  2 13  1  0
 13 14  2  0
 14 15  1  0
 15 16  2  0
 16 17  1  0
 17 18  2  0
 18 19  1  0
 19 20  1  0
 19 21  1  0
 19 22  1  0
 18 23  1  0
 23 24  2  0
 24 25  1  0
 25 26  2  0
 12  7  1  0
 26 13  1  0
 25 16  1  0
  3 27  1  0
  4 28  1  0
  4 29  1  0
  8 30  1  0
  8 31  1  0
  9 32  1  0
  9 33  1  0
 10 34  1  0
 10 35  1  0
 11 36  1  0
 11 37  1  0
 12 38  1  0
 12 39  1  0
 14 40  1  0
 15 41  1  0
 17 42  1  0
 23 43  1  0
 24 44  1  0
M  END
>  <smiles>  (26) 
O=C(NCC(=O)N1CCCCC1)c1ccc2cc(C(F)(F)F)ccc2n1

>  <score_type>  (26) 
oracle

>  <origin>  (26) 
autodockgpu

>  <m_score__min__energy>  (26) 
-7.3200000000000003

>  <m_primary>  (26) 
energy

>  <rmsd>  (26) 
8.193673535789467

>  <m_score__min__rmsd>  (26) 
8.193673535789467

>  <meeko>  (26) 
{"free_energy": -7.18, "intermolecular_energy": -8.38, "internal_energy": -0.98, "cluster_size": 19, "cluster_id": 2, "rank_in_cluster": 6}

>  <energy>  (26) 
-7.09

>  <cluster_rmsd>  (26) 
0.84

>  <cluster>  (26) 
1

$$$$

     RDKit          3D

 44 46  0  0  0  0  0  0  0  0999 V2000
  140.8320   73.8370  220.9780 O   0  0  0  0  0  0  0  0  0  0  0  0
  139.9930   73.7990  221.9160 C   0  0  0  0  0  0  0  0  0  0  0  0
  139.1990   74.9490  222.1750 N   0  0  0  0  0  0  0  0  0  0  0  0
  139.3930   76.1080  221.3470 C   0  0  0  0  0  0  0  0  0  0  0  0
  138.8570   77.3500  221.9710 C   0  0  0  0  0  0  0  0  0  0  0  0
  137.6320   77.6420  221.9630 O   0  0  0  0  0  0  0  0  0  0  0  0
  139.7960   78.2170  222.5940 N   0  0  0  0  0  0  0  0  0  0  0  0
  141.2240   77.9340  222.6370 C   0  0  0  0  0  0  0  0  0  0  0  0
  141.8270   78.7440  223.7600 C   0  0  0  0  0  0  0  0  0  0  0  0
  141.7150   80.2030  223.3830 C   0  0  0  0  0  0  0  0  0  0  0  0
  140.3650   80.5700  222.8600 C   0  0  0  0  0  0  0  0  0  0  0  0
  139.3760   79.4620  223.2360 C   0  0  0  0  0  0  0  0  0  0  0  0
  139.8300   72.5990  222.7340 C   0  0  0  0  0  0  0  0  0  0  0  0
  138.8590   71.6730  222.3680 C   0  0  0  0  0  0  0  0  0  0  0  0
  138.6950   70.5470  223.1240 C   0  0  0  0  0  0  0  0  0  0  0  0
  139.4890   70.3410  224.2320 C   0  0  0  0  0  0  0  0  0  0  0  0
  139.3380   69.2170  225.0010 C   0  0  0  0  0  0  0  0  0  0  0  0
  140.1250   68.9860  226.1220 C   0  0  0  0  0  0  0  0  0  0  0  0
  139.9650   67.7630  226.9630 C   0  0  0  0  0  0  0  0  0  0  0  0
  138.9000   67.0000  226.5880 F   0  0  0  0  0  0  0  0  0  0  0  0
  139.9260   68.1620  228.2860 F   0  0  0  0  0  0  0  0  0  0  0  0
  141.1020   66.9810  226.8080 F   0  0  0  0  0  0  0  0  0  0  0  0
  141.0790   69.9350  226.4500 C   0  0  0  0  0  0  0  0  0  0  0  0
  141.2700   71.0860  225.7060 C   0  0  0  0  0  0  0  0  0  0  0  0
  140.4630   71.2670  224.6020 C   0  0  0  0  0  0  0  0  0  0  0  0
  140.5810   72.3580  223.8230 N   0  0  0  0  0  0  0  0  0  0  0  0
  138.4910   74.9190  222.9660 H   0  0  0  0  0  0  0  0  0  0  0  0
  140.4707   76.2388  221.1699 H   0  0  0  0  0  0  0  0  0  0  0  0
  138.8462   75.9430  220.4069 H   0  0  0  0  0  0  0  0  0  0  0  0
  141.3866   76.8618  222.8211 H   0  0  0  0  0  0  0  0  0  0  0  0
  141.6950   78.1993  221.6790 H   0  0  0  0  0  0  0  0  0  0  0  0
  141.2789   78.5551  224.6948 H   0  0  0  0  0  0  0  0  0  0  0  0
  142.8797   78.4651  223.9152 H   0  0  0  0  0  0  0  0  0  0  0  0
  141.9225   80.8122  224.2751 H   0  0  0  0  0  0  0  0  0  0  0  0
  142.4412   80.3910  222.5784 H   0  0  0  0  0  0  0  0  0  0  0  0
  140.0414   81.5222  223.3057 H   0  0  0  0  0  0  0  0  0  0  0  0
  140.4041   80.6829  221.7665 H   0  0  0  0  0  0  0  0  0  0  0  0
  139.3666   79.3299  224.3280 H   0  0  0  0  0  0  0  0  0  0  0  0
  138.3648   79.7336  222.8987 H   0  0  0  0  0  0  0  0  0  0  0  0
  138.2312   71.8450  221.4813 H   0  0  0  0  0  0  0  0  0  0  0  0
  137.9304   69.8056  222.8490 H   0  0  0  0  0  0  0  0  0  0  0  0
  138.5726   68.4774  224.7230 H   0  0  0  0  0  0  0  0  0  0  0  0
  141.7090   69.7673  227.3360 H   0  0  0  0  0  0  0  0  0  0  0  0
  142.0344   71.8266  225.9837 H   0  0  0  0  0  0  0  0  0  0  0  0
  1  2  2  0
  2  3  1  0
  3  4  1  0
  4  5  1  0
  5  6  2  0
  5  7  1  0
  7  8  1  0
  8  9  1  0
  9 10  1  0
 10 11  1  0
 11 12  1  0
  2 13  1  0
 13 14  2  0
 14 15  1  0
 15 16  2  0
 16 17  1  0
 17 18  2  0
 18 19  1  0
 19 20  1  0
 19 21  1  0
 19 22  1  0
 18 23  1  0
 23 24  2  0
 24 25  1  0
 25 26  2  0
 12  7  1  0
 26 13  1  0
 25 16  1  0
  3 27  1  0
  4 28  1  0
  4 29  1  0
  8 30  1  0
  8 31  1  0
  9 32  1  0
  9 33  1  0
 10 34  1  0
 10 35  1  0
 11 36  1  0
 11 37  1  0
 12 38  1  0
 12 39  1  0
 14 40  1  0
 15 41  1  0
 17 42  1  0
 23 43  1  0
 24 44  1  0
M  END
>  <smiles>  (27) 
O=C(NCC(=O)N1CCCCC1)c1ccc2cc(C(F)(F)F)ccc2n1

>  <score_type>  (27) 
oracle

>  <origin>  (27) 
autodockgpu

>  <m_score__min__energy>  (27) 
-7.3200000000000003

>  <m_primary>  (27) 
energy

>  <rmsd>  (27) 
4.160015732383232

>  <m_score__min__rmsd>  (27) 
4.160015732383232

>  <meeko>  (27) 
{"free_energy": -7.21, "intermolecular_energy": -8.4, "internal_energy": -0.78, "cluster_size": 28, "cluster_id": 1, "rank_in_cluster": 14}

>  <energy>  (27) 
-7.0

>  <cluster_rmsd>  (27) 
0.93

>  <cluster>  (27) 
1

$$$$

     RDKit          3D

 44 46  0  0  0  0  0  0  0  0999 V2000
  139.0950   73.6230  220.3220 O   0  0  0  0  0  0  0  0  0  0  0  0
  139.2810   73.6940  221.5650 C   0  0  0  0  0  0  0  0  0  0  0  0
  139.4060   74.9740  222.1690 N   0  0  0  0  0  0  0  0  0  0  0  0
  139.3130   76.1340  221.3260 C   0  0  0  0  0  0  0  0  0  0  0  0
  138.7880   77.3240  222.0510 C   0  0  0  0  0  0  0  0  0  0  0  0
  137.5600   77.5930  222.1190 O   0  0  0  0  0  0  0  0  0  0  0  0
  139.7430   78.1690  222.6810 N   0  0  0  0  0  0  0  0  0  0  0  0
  141.1760   77.9120  222.6380 C   0  0  0  0  0  0  0  0  0  0  0  0
  141.8200   78.6620  223.7810 C   0  0  0  0  0  0  0  0  0  0  0  0
  141.6660   80.1390  223.5010 C   0  0  0  0  0  0  0  0  0  0  0  0
  140.2860   80.5120  223.0660 C   0  0  0  0  0  0  0  0  0  0  0  0
  139.3350   79.3650  223.4200 C   0  0  0  0  0  0  0  0  0  0  0  0
  139.3690   72.4870  222.3840 C   0  0  0  0  0  0  0  0  0  0  0  0
  138.7340   71.3330  221.9380 C   0  0  0  0  0  0  0  0  0  0  0  0
  138.8080   70.1980  222.6940 C   0  0  0  0  0  0  0  0  0  0  0  0
  139.5070   70.2080  223.8820 C   0  0  0  0  0  0  0  0  0  0  0  0
  139.5910   69.0770  224.6530 C   0  0  0  0  0  0  0  0  0  0  0  0
  140.2890   69.0610  225.8540 C   0  0  0  0  0  0  0  0  0  0  0  0
  140.3840   67.8330  226.6980 C   0  0  0  0  0  0  0  0  0  0  0  0
  140.5710   68.1140  228.0180 F   0  0  0  0  0  0  0  0  0  0  0  0
  141.3630   67.0220  226.1560 F   0  0  0  0  0  0  0  0  0  0  0  0
  139.1820   67.1440  226.5940 F   0  0  0  0  0  0  0  0  0  0  0  0
  140.9060   70.2330  226.2600 C   0  0  0  0  0  0  0  0  0  0  0  0
  140.8500   71.3990  225.5180 C   0  0  0  0  0  0  0  0  0  0  0  0
  140.1450   71.3620  224.3340 C   0  0  0  0  0  0  0  0  0  0  0  0
  140.0390   72.4510  223.5500 N   0  0  0  0  0  0  0  0  0  0  0  0
  139.5630   75.0360  223.2170 H   0  0  0  0  0  0  0  0  0  0  0  0
  140.3152   76.3703  220.9390 H   0  0  0  0  0  0  0  0  0  0  0  0
  138.6104   75.9009  220.5124 H   0  0  0  0  0  0  0  0  0  0  0  0
  141.3652   76.8337  222.7455 H   0  0  0  0  0  0  0  0  0  0  0  0
  141.5953   78.2462  221.6775 H   0  0  0  0  0  0  0  0  0  0  0  0
  141.3208   78.4053  224.7270 H   0  0  0  0  0  0  0  0  0  0  0  0
  142.8831   78.3938  223.8694 H   0  0  0  0  0  0  0  0  0  0  0  0
  141.9066   80.6962  224.4184 H   0  0  0  0  0  0  0  0  0  0  0  0
  142.3491   80.3896  222.6760 H   0  0  0  0  0  0  0  0  0  0  0  0
  139.9694   81.4292  223.5842 H   0  0  0  0  0  0  0  0  0  0  0  0
  140.2699   80.6920  221.9809 H   0  0  0  0  0  0  0  0  0  0  0  0
  139.3822   79.1658  224.5008 H   0  0  0  0  0  0  0  0  0  0  0  0
  138.3040   79.6375  223.1503 H   0  0  0  0  0  0  0  0  0  0  0  0
  138.1791   71.3343  220.9882 H   0  0  0  0  0  0  0  0  0  0  0  0
  138.3105   69.2772  222.3554 H   0  0  0  0  0  0  0  0  0  0  0  0
  139.0924   68.1580  224.3113 H   0  0  0  0  0  0  0  0  0  0  0  0
  141.4620   70.2365  227.2091 H   0  0  0  0  0  0  0  0  0  0  0  0
  141.3479   72.3187  225.8590 H   0  0  0  0  0  0  0  0  0  0  0  0
  1  2  2  0
  2  3  1  0
  3  4  1  0
  4  5  1  0
  5  6  2  0
  5  7  1  0
  7  8  1  0
  8  9  1  0
  9 10  1  0
 10 11  1  0
 11 12  1  0
  2 13  1  0
 13 14  2  0
 14 15  1  0
 15 16  2  0
 16 17  1  0
 17 18  2  0
 18 19  1  0
 19 20  1  0
 19 21  1  0
 19 22  1  0
 18 23  1  0
 23 24  2  0
 24 25  1  0
 25 26  2  0
 12  7  1  0
 26 13  1  0
 25 16  1  0
  3 27  1  0
  4 28  1  0
  4 29  1  0
  8 30  1  0
  8 31  1  0
  9 32  1  0
  9 33  1  0
 10 34  1  0
 10 35  1  0
 11 36  1  0
 11 37  1  0
 12 38  1  0
 12 39  1  0
 14 40  1  0
 15 41  1  0
 17 42  1  0
 23 43  1  0
 24 44  1  0
M  END
>  <smiles>  (28) 
O=C(NCC(=O)N1CCCCC1)c1ccc2cc(C(F)(F)F)ccc2n1

>  <score_type>  (28) 
oracle

>  <origin>  (28) 
autodockgpu

>  <m_score__min__energy>  (28) 
-7.3200000000000003

>  <m_primary>  (28) 
energy

>  <rmsd>  (28) 
4.162264998743551

>  <m_score__min__rmsd>  (28) 
4.162264998743551

>  <meeko>  (28) 
{"free_energy": -6.89, "intermolecular_energy": -8.08, "internal_energy": -0.91, "cluster_size": 28, "cluster_id": 1, "rank_in_cluster": 28}

>  <energy>  (28) 
-6.89

>  <cluster_rmsd>  (28) 
0.43

>  <cluster>  (28) 
1

$$$$

     RDKit          3D

 44 46  0  0  0  0  0  0  0  0999 V2000
  140.6580   73.7010  220.7810 O   0  0  0  0  0  0  0  0  0  0  0  0
  140.0150   73.7420  221.8630 C   0  0  0  0  0  0  0  0  0  0  0  0
  139.4440   74.9750  222.2770 N   0  0  0  0  0  0  0  0  0  0  0  0
  139.6300   76.1250  221.4350 C   0  0  0  0  0  0  0  0  0  0  0  0
  139.0250   77.3580  222.0140 C   0  0  0  0  0  0  0  0  0  0  0  0
  137.7890   77.5930  221.9730 O   0  0  0  0  0  0  0  0  0  0  0  0
  139.9100   78.2840  222.6300 N   0  0  0  0  0  0  0  0  0  0  0  0
  141.3490   78.0690  222.7090 C   0  0  0  0  0  0  0  0  0  0  0  0
  141.8910   78.9350  223.8220 C   0  0  0  0  0  0  0  0  0  0  0  0
  141.7210   80.3760  223.4010 C   0  0  0  0  0  0  0  0  0  0  0  0
  140.3660   80.6670  222.8420 C   0  0  0  0  0  0  0  0  0  0  0  0
  139.4210   79.5250  223.2290 C   0  0  0  0  0  0  0  0  0  0  0  0
  139.8510   72.5470  222.6880 C   0  0  0  0  0  0  0  0  0  0  0  0
  138.9200   71.5910  222.2960 C   0  0  0  0  0  0  0  0  0  0  0  0
  138.7570   70.4690  223.0580 C   0  0  0  0  0  0  0  0  0  0  0  0
  139.5110   70.2980  224.1990 C   0  0  0  0  0  0  0  0  0  0  0  0
  139.3600   69.1780  224.9750 C   0  0  0  0  0  0  0  0  0  0  0  0
  140.1080   68.9810  226.1280 C   0  0  0  0  0  0  0  0  0  0  0  0
  139.9470   67.7640  226.9780 C   0  0  0  0  0  0  0  0  0  0  0  0
  138.8660   67.0130  226.6250 F   0  0  0  0  0  0  0  0  0  0  0  0
  139.9380   68.1680  228.2990 F   0  0  0  0  0  0  0  0  0  0  0  0
  141.0710   66.9660  226.8050 F   0  0  0  0  0  0  0  0  0  0  0  0
  141.0230   69.9590  226.4820 C   0  0  0  0  0  0  0  0  0  0  0  0
  141.2130   71.1060  225.7320 C   0  0  0  0  0  0  0  0  0  0  0  0
  140.4460   71.2530  224.5960 C   0  0  0  0  0  0  0  0  0  0  0  0
  140.5650   72.3380  223.8080 N   0  0  0  0  0  0  0  0  0  0  0  0
  138.9010   75.0120  223.1890 H   0  0  0  0  0  0  0  0  0  0  0  0
  140.7087   76.2917  221.2982 H   0  0  0  0  0  0  0  0  0  0  0  0
  139.1281   75.9236  220.4771 H   0  0  0  0  0  0  0  0  0  0  0  0
  141.5568   77.0106  222.9248 H   0  0  0  0  0  0  0  0  0  0  0  0
  141.8272   78.3315  221.7538 H   0  0  0  0  0  0  0  0  0  0  0  0
  141.3319   78.7467  224.7504 H   0  0  0  0  0  0  0  0  0  0  0  0
  142.9513   78.7084  224.0075 H   0  0  0  0  0  0  0  0  0  0  0  0
  141.8830   81.0187  224.2789 H   0  0  0  0  0  0  0  0  0  0  0  0
  142.4539   80.5740  222.6049 H   0  0  0  0  0  0  0  0  0  0  0  0
  139.9905   81.6147  223.2553 H   0  0  0  0  0  0  0  0  0  0  0  0
  140.4223   80.7529  221.7468 H   0  0  0  0  0  0  0  0  0  0  0  0
  139.3951   79.4217  224.3238 H   0  0  0  0  0  0  0  0  0  0  0  0
  138.4058   79.7408  222.8646 H   0  0  0  0  0  0  0  0  0  0  0  0
  138.3225   71.7365  221.3840 H   0  0  0  0  0  0  0  0  0  0  0  0
  138.0252   69.7032  222.7614 H   0  0  0  0  0  0  0  0  0  0  0  0
  138.6264   68.4148  224.6761 H   0  0  0  0  0  0  0  0  0  0  0  0
  141.6214   69.8183  227.3942 H   0  0  0  0  0  0  0  0  0  0  0  0
  141.9464   71.8697  226.0301 H   0  0  0  0  0  0  0  0  0  0  0  0
  1  2  2  0
  2  3  1  0
  3  4  1  0
  4  5  1  0
  5  6  2  0
  5  7  1  0
  7  8  1  0
  8  9  1  0
  9 10  1  0
 10 11  1  0
 11 12  1  0
  2 13  1  0
 13 14  2  0
 14 15  1  0
 15 16  2  0
 16 17  1  0
 17 18  2  0
 18 19  1  0
 19 20  1  0
 19 21  1  0
 19 22  1  0
 18 23  1  0
 23 24  2  0
 24 25  1  0
 25 26  2  0
 12  7  1  0
 26 13  1  0
 25 16  1  0
  3 27  1  0
  4 28  1  0
  4 29  1  0
  8 30  1  0
  8 31  1  0
  9 32  1  0
  9 33  1  0
 10 34  1  0
 10 35  1  0
 11 36  1  0
 11 37  1  0
 12 38  1  0
 12 39  1  0
 14 40  1  0
 15 41  1  0
 17 42  1  0
 23 43  1  0
 24 44  1  0
M  END
>  <smiles>  (29) 
O=C(NCC(=O)N1CCCCC1)c1ccc2cc(C(F)(F)F)ccc2n1

>  <score_type>  (29) 
oracle

>  <origin>  (29) 
autodockgpu

>  <m_score__min__energy>  (29) 
-7.3200000000000003

>  <m_primary>  (29) 
energy

>  <rmsd>  (29) 
4.19243740007843

>  <m_score__min__rmsd>  (29) 
4.19243740007843

>  <meeko>  (29) 
{"free_energy": -7.27, "intermolecular_energy": -8.46, "internal_energy": -0.76, "cluster_size": 28, "cluster_id": 1, "rank_in_cluster": 4}

>  <energy>  (29) 
-7.23

>  <cluster_rmsd>  (29) 
0.0

>  <cluster>  (29) 
2

$$$$

     RDKit          3D

 44 46  0  0  0  0  0  0  0  0999 V2000
  140.1930   73.6430  220.6350 O   0  0  0  0  0  0  0  0  0  0  0  0
  139.7320   73.6990  221.8060 C   0  0  0  0  0  0  0  0  0  0  0  0
  139.2510   74.9430  222.2950 N   0  0  0  0  0  0  0  0  0  0  0  0
  139.3140   76.0860  221.4250 C   0  0  0  0  0  0  0  0  0  0  0  0
  138.8040   77.3250  222.0750 C   0  0  0  0  0  0  0  0  0  0  0  0
  137.5830   77.6320  222.0920 O   0  0  0  0  0  0  0  0  0  0  0  0
  139.7630   78.1730  222.6930 N   0  0  0  0  0  0  0  0  0  0  0  0
  141.1890   77.8740  222.7070 C   0  0  0  0  0  0  0  0  0  0  0  0
  141.8200   78.6610  223.8310 C   0  0  0  0  0  0  0  0  0  0  0  0
  141.7190   80.1260  223.4750 C   0  0  0  0  0  0  0  0  0  0  0  0
  140.3640   80.5150  222.9800 C   0  0  0  0  0  0  0  0  0  0  0  0
  139.3690   79.4140  223.3590 C   0  0  0  0  0  0  0  0  0  0  0  0
  139.6870   72.5120  222.6560 C   0  0  0  0  0  0  0  0  0  0  0  0
  138.9310   71.4230  222.2370 C   0  0  0  0  0  0  0  0  0  0  0  0
  138.8810   70.3060  223.0230 C   0  0  0  0  0  0  0  0  0  0  0  0
  139.5750   70.2720  224.2130 C   0  0  0  0  0  0  0  0  0  0  0  0
  139.5350   69.1590  225.0140 C   0  0  0  0  0  0  0  0  0  0  0  0
  140.2260   69.0990  226.2170 C   0  0  0  0  0  0  0  0  0  0  0  0
  140.1860   67.8910  227.0930 C   0  0  0  0  0  0  0  0  0  0  0  0
  141.4140   67.3280  227.2730 F   0  0  0  0  0  0  0  0  0  0  0  0
  139.2460   67.0220  226.5720 F   0  0  0  0  0  0  0  0  0  0  0  0
  139.7280   68.2810  228.3450 F   0  0  0  0  0  0  0  0  0  0  0  0
  140.9660   70.2070  226.5960 C   0  0  0  0  0  0  0  0  0  0  0  0
  141.0380   71.3530  225.8230 C   0  0  0  0  0  0  0  0  0  0  0  0
  140.3350   71.3610  224.6370 C   0  0  0  0  0  0  0  0  0  0  0  0
  140.3480   72.4340  223.8250 N   0  0  0  0  0  0  0  0  0  0  0  0
  138.8620   74.9930  223.2820 H   0  0  0  0  0  0  0  0  0  0  0  0
  140.3613   76.2477  221.1299 H   0  0  0  0  0  0  0  0  0  0  0  0
  138.6761   75.8786  220.5532 H   0  0  0  0  0  0  0  0  0  0  0  0
  141.3431   76.7975  222.8727 H   0  0  0  0  0  0  0  0  0  0  0  0
  141.6463   78.1482  221.7449 H   0  0  0  0  0  0  0  0  0  0  0  0
  141.2850   78.4658  224.7721 H   0  0  0  0  0  0  0  0  0  0  0  0
  142.8716   78.3675  223.9656 H   0  0  0  0  0  0  0  0  0  0  0  0
  141.9488   80.7210  224.3712 H   0  0  0  0  0  0  0  0  0  0  0  0
  142.4337   80.3165  222.6608 H   0  0  0  0  0  0  0  0  0  0  0  0
  140.0592   81.4650  223.4432 H   0  0  0  0  0  0  0  0  0  0  0  0
  140.3857   80.6412  221.8875 H   0  0  0  0  0  0  0  0  0  0  0  0
  139.3775   79.2673  224.4491 H   0  0  0  0  0  0  0  0  0  0  0  0
  138.3552   79.7018  223.0437 H   0  0  0  0  0  0  0  0  0  0  0  0
  138.3804   71.4599  221.2854 H   0  0  0  0  0  0  0  0  0  0  0  0
  138.2877   69.4356  222.7062 H   0  0  0  0  0  0  0  0  0  0  0  0
  138.9396   68.2909  224.6948 H   0  0  0  0  0  0  0  0  0  0  0  0
  141.5173   70.1749  227.5473 H   0  0  0  0  0  0  0  0  0  0  0  0
  141.6320   72.2221  226.1420 H   0  0  0  0  0  0  0  0  0  0  0  0
  1  2  2  0
  2  3  1  0
  3  4  1  0
  4  5  1  0
  5  6  2  0
  5  7  1  0
  7  8  1  0
  8  9  1  0
  9 10  1  0
 10 11  1  0
 11 12  1  0
  2 13  1  0
 13 14  2  0
 14 15  1  0
 15 16  2  0
 16 17  1  0
 17 18  2  0
 18 19  1  0
 19 20  1  0
 19 21  1  0
 19 22  1  0
 18 23  1  0
 23 24  2  0
 24 25  1  0
 25 26  2  0
 12  7  1  0
 26 13  1  0
 25 16  1  0
  3 27  1  0
  4 28  1  0
  4 29  1  0
  8 30  1  0
  8 31  1  0
  9 32  1  0
  9 33  1  0
 10 34  1  0
 10 35  1  0
 11 36  1  0
 11 37  1  0
 12 38  1  0
 12 39  1  0
 14 40  1  0
 15 41  1  0
 17 42  1  0
 23 43  1  0
 24 44  1  0
M  END
>  <smiles>  (30) 
O=C(NCC(=O)N1CCCCC1)c1ccc2cc(C(F)(F)F)ccc2n1

>  <score_type>  (30) 
oracle

>  <origin>  (30) 
autodockgpu

>  <m_score__min__energy>  (30) 
-7.3200000000000003

>  <m_primary>  (30) 
energy

>  <rmsd>  (30) 
4.132236407950239

>  <m_score__min__rmsd>  (30) 
4.132236407950239

>  <meeko>  (30) 
{"free_energy": -7.24, "intermolecular_energy": -8.43, "internal_energy": -0.8, "cluster_size": 28, "cluster_id": 1, "rank_in_cluster": 12}

>  <energy>  (30) 
-7.2

>  <cluster_rmsd>  (30) 
0.07

>  <cluster>  (30) 
2

$$$$

     RDKit          3D

 44 46  0  0  0  0  0  0  0  0999 V2000
  140.6220   73.2230  220.6000 O   0  0  0  0  0  0  0  0  0  0  0  0
  139.9820   73.3480  221.6780 C   0  0  0  0  0  0  0  0  0  0  0  0
  139.3490   74.5870  221.9610 N   0  0  0  0  0  0  0  0  0  0  0  0
  139.4690   75.6470  220.9980 C   0  0  0  0  0  0  0  0  0  0  0  0
  140.7210   76.4360  221.1720 C   0  0  0  0  0  0  0  0  0  0  0  0
  141.8280   76.0710  220.6950 O   0  0  0  0  0  0  0  0  0  0  0  0
  140.6240   77.6460  221.9120 N   0  0  0  0  0  0  0  0  0  0  0  0
  139.3740   78.1210  222.4880 C   0  0  0  0  0  0  0  0  0  0  0  0
  139.5090   79.6040  222.7400 C   0  0  0  0  0  0  0  0  0  0  0  0
  140.5490   79.7910  223.8210 C   0  0  0  0  0  0  0  0  0  0  0  0
  141.7780   78.9710  223.5980 C   0  0  0  0  0  0  0  0  0  0  0  0
  141.7920   78.4950  222.1430 C   0  0  0  0  0  0  0  0  0  0  0  0
  139.8860   72.2430  222.6300 C   0  0  0  0  0  0  0  0  0  0  0  0
  139.1290   71.1290  222.2820 C   0  0  0  0  0  0  0  0  0  0  0  0
  139.0310   70.0900  223.1630 C   0  0  0  0  0  0  0  0  0  0  0  0
  139.6780   70.1550  224.3780 C   0  0  0  0  0  0  0  0  0  0  0  0
  139.5890   69.1210  225.2730 C   0  0  0  0  0  0  0  0  0  0  0  0
  140.2320   69.1620  226.5040 C   0  0  0  0  0  0  0  0  0  0  0  0
  140.1390   68.0390  227.4830 C   0  0  0  0  0  0  0  0  0  0  0  0
  139.2080   67.1070  227.1310 F   0  0  0  0  0  0  0  0  0  0  0  0
  139.9340   68.5860  228.7350 F   0  0  0  0  0  0  0  0  0  0  0  0
  141.3680   67.3930  227.5170 F   0  0  0  0  0  0  0  0  0  0  0  0
  140.9740   70.2910  226.8100 C   0  0  0  0  0  0  0  0  0  0  0  0
  141.0940   71.3600  225.9410 C   0  0  0  0  0  0  0  0  0  0  0  0
  140.4370   71.2690  224.7310 C   0  0  0  0  0  0  0  0  0  0  0  0
  140.5000   72.2640  223.8270 N   0  0  0  0  0  0  0  0  0  0  0  0
  138.8090   74.6950  222.8700 H   0  0  0  0  0  0  0  0  0  0  0  0
  139.4652   75.2091  219.9889 H   0  0  0  0  0  0  0  0  0  0  0  0
  138.6197   76.3304  221.1451 H   0  0  0  0  0  0  0  0  0  0  0  0
  138.5462   77.9353  221.7878 H   0  0  0  0  0  0  0  0  0  0  0  0
  139.1616   77.5917  223.4286 H   0  0  0  0  0  0  0  0  0  0  0  0
  139.8293   80.1133  221.8192 H   0  0  0  0  0  0  0  0  0  0  0  0
  138.5452   80.0320  223.0529 H   0  0  0  0  0  0  0  0  0  0  0  0
  140.8365   80.8523  223.8507 H   0  0  0  0  0  0  0  0  0  0  0  0
  140.1006   79.4599  224.7693 H   0  0  0  0  0  0  0  0  0  0  0  0
  142.6714   79.5812  223.7966 H   0  0  0  0  0  0  0  0  0  0  0  0
  141.7793   78.1049  224.2761 H   0  0  0  0  0  0  0  0  0  0  0  0
  141.7560   79.3641  221.4697 H   0  0  0  0  0  0  0  0  0  0  0  0
  142.7121   77.9254  221.9457 H   0  0  0  0  0  0  0  0  0  0  0  0
  138.6160   71.0855  221.3099 H   0  0  0  0  0  0  0  0  0  0  0  0
  138.4361   69.2020  222.9029 H   0  0  0  0  0  0  0  0  0  0  0  0
  138.9926   68.2350  225.0098 H   0  0  0  0  0  0  0  0  0  0  0  0
  141.4875   70.3390  227.7816 H   0  0  0  0  0  0  0  0  0  0  0  0
  141.6891   72.2470  226.2037 H   0  0  0  0  0  0  0  0  0  0  0  0
  1  2  2  0
  2  3  1  0
  3  4  1  0
  4  5  1  0
  5  6  2  0
  5  7  1  0
  7  8  1  0
  8  9  1  0
  9 10  1  0
 10 11  1  0
 11 12  1  0
  2 13  1  0
 13 14  2  0
 14 15  1  0
 15 16  2  0
 16 17  1  0
 17 18  2  0
 18 19  1  0
 19 20  1  0
 19 21  1  0
 19 22  1  0
 18 23  1  0
 23 24  2  0
 24 25  1  0
 25 26  2  0
 12  7  1  0
 26 13  1  0
 25 16  1  0
  3 27  1  0
  4 28  1  0
  4 29  1  0
  8 30  1  0
  8 31  1  0
  9 32  1  0
  9 33  1  0
 10 34  1  0
 10 35  1  0
 11 36  1  0
 11 37  1  0
 12 38  1  0
 12 39  1  0
 14 40  1  0
 15 41  1  0
 17 42  1  0
 23 43  1  0
 24 44  1  0
M  END
>  <smiles>  (31) 
O=C(NCC(=O)N1CCCCC1)c1ccc2cc(C(F)(F)F)ccc2n1

>  <score_type>  (31) 
oracle

>  <origin>  (31) 
autodockgpu

>  <m_score__min__energy>  (31) 
-7.3200000000000003

>  <m_primary>  (31) 
energy

>  <rmsd>  (31) 
3.771960819134765

>  <m_score__min__rmsd>  (31) 
3.771960819134765

>  <meeko>  (31) 
{"free_energy": -7.12, "intermolecular_energy": -8.32, "internal_energy": -0.79, "cluster_size": 28, "cluster_id": 1, "rank_in_cluster": 25}

>  <energy>  (31) 
-7.19

>  <cluster_rmsd>  (31) 
0.13

>  <cluster>  (31) 
2

$$$$

     RDKit          3D

 44 46  0  0  0  0  0  0  0  0999 V2000
  139.9230   73.0700  220.4170 O   0  0  0  0  0  0  0  0  0  0  0  0
  139.7360   73.2980  221.6410 C   0  0  0  0  0  0  0  0  0  0  0  0
  139.5360   74.6390  222.0670 N   0  0  0  0  0  0  0  0  0  0  0  0
  139.5580   75.6770  221.0730 C   0  0  0  0  0  0  0  0  0  0  0  0
  140.7800   76.5240  221.1600 C   0  0  0  0  0  0  0  0  0  0  0  0
  141.8700   76.2040  220.6160 O   0  0  0  0  0  0  0  0  0  0  0  0
  140.6750   77.7360  221.8950 N   0  0  0  0  0  0  0  0  0  0  0  0
  139.4430   78.1610  222.5460 C   0  0  0  0  0  0  0  0  0  0  0  0
  139.5250   79.6510  222.7760 C   0  0  0  0  0  0  0  0  0  0  0  0
  140.6220   79.8970  223.7870 C   0  0  0  0  0  0  0  0  0  0  0  0
  141.8710   79.1320  223.4930 C   0  0  0  0  0  0  0  0  0  0  0  0
  141.8140   78.6410  222.0430 C   0  0  0  0  0  0  0  0  0  0  0  0
  139.7220   72.2110  222.6180 C   0  0  0  0  0  0  0  0  0  0  0  0
  139.0330   71.0450  222.3040 C   0  0  0  0  0  0  0  0  0  0  0  0
  139.0130   70.0210  223.2080 C   0  0  0  0  0  0  0  0  0  0  0  0
  139.6700   70.1540  224.4120 C   0  0  0  0  0  0  0  0  0  0  0  0
  139.6590   69.1360  225.3300 C   0  0  0  0  0  0  0  0  0  0  0  0
  140.3130   69.2440  226.5500 C   0  0  0  0  0  0  0  0  0  0  0  0
  140.3050   68.1400  227.5540 C   0  0  0  0  0  0  0  0  0  0  0  0
  140.0710   68.5810  228.8230 F   0  0  0  0  0  0  0  0  0  0  0  0
  141.4860   67.4350  227.4180 F   0  0  0  0  0  0  0  0  0  0  0  0
  139.2720   67.2690  227.2290 F   0  0  0  0  0  0  0  0  0  0  0  0
  140.9870   70.4250  226.8220 C   0  0  0  0  0  0  0  0  0  0  0  0
  141.0280   71.4800  225.9280 C   0  0  0  0  0  0  0  0  0  0  0  0
  140.3620   71.3210  224.7310 C   0  0  0  0  0  0  0  0  0  0  0  0
  140.3490   72.2970  223.8040 N   0  0  0  0  0  0  0  0  0  0  0  0
  139.3780   74.8340  223.0990 H   0  0  0  0  0  0  0  0  0  0  0  0
  139.5211   75.2122  220.0767 H   0  0  0  0  0  0  0  0  0  0  0  0
  138.6878   76.3266  221.2487 H   0  0  0  0  0  0  0  0  0  0  0  0
  138.5818   77.9298  221.9019 H   0  0  0  0  0  0  0  0  0  0  0  0
  139.3157   77.6337  223.5030 H   0  0  0  0  0  0  0  0  0  0  0  0
  139.7625   80.1638  221.8323 H   0  0  0  0  0  0  0  0  0  0  0  0
  138.5643   80.0386  223.1459 H   0  0  0  0  0  0  0  0  0  0  0  0
  140.8613   80.9706  223.7899 H   0  0  0  0  0  0  0  0  0  0  0  0
  140.2503   79.5558  224.7644 H   0  0  0  0  0  0  0  0  0  0  0  0
  142.7459   79.7847  223.6290 H   0  0  0  0  0  0  0  0  0  0  0  0
  141.9561   78.2746  224.1768 H   0  0  0  0  0  0  0  0  0  0  0  0
  141.6937   79.5000  221.3665 H   0  0  0  0  0  0  0  0  0  0  0  0
  142.7454   78.1129  221.7909 H   0  0  0  0  0  0  0  0  0  0  0  0
  138.5110   70.9483  221.3406 H   0  0  0  0  0  0  0  0  0  0  0  0
  138.4731   69.0914  222.9751 H   0  0  0  0  0  0  0  0  0  0  0  0
  139.1173   68.2083  225.0937 H   0  0  0  0  0  0  0  0  0  0  0  0
  141.5088   70.5268  227.7850 H   0  0  0  0  0  0  0  0  0  0  0  0
  141.5699   72.4081  226.1625 H   0  0  0  0  0  0  0  0  0  0  0  0
  1  2  2  0
  2  3  1  0
  3  4  1  0
  4  5  1  0
  5  6  2  0
  5  7  1  0
  7  8  1  0
  8  9  1  0
  9 10  1  0
 10 11  1  0
 11 12  1  0
  2 13  1  0
 13 14  2  0
 14 15  1  0
 15 16  2  0
 16 17  1  0
 17 18  2  0
 18 19  1  0
 19 20  1  0
 19 21  1  0
 19 22  1  0
 18 23  1  0
 23 24  2  0
 24 25  1  0
 25 26  2  0
 12  7  1  0
 26 13  1  0
 25 16  1  0
  3 27  1  0
  4 28  1  0
  4 29  1  0
  8 30  1  0
  8 31  1  0
  9 32  1  0
  9 33  1  0
 10 34  1  0
 10 35  1  0
 11 36  1  0
 11 37  1  0
 12 38  1  0
 12 39  1  0
 14 40  1  0
 15 41  1  0
 17 42  1  0
 23 43  1  0
 24 44  1  0
M  END
>  <smiles>  (32) 
O=C(NCC(=O)N1CCCCC1)c1ccc2cc(C(F)(F)F)ccc2n1

>  <score_type>  (32) 
oracle

>  <origin>  (32) 
autodockgpu

>  <m_score__min__energy>  (32) 
-7.3200000000000003

>  <m_primary>  (32) 
energy

>  <rmsd>  (32) 
3.774818442177399

>  <m_score__min__rmsd>  (32) 
3.774818442177399

>  <meeko>  (32) 
{"free_energy": -7.15, "intermolecular_energy": -8.34, "internal_energy": -0.85, "cluster_size": 28, "cluster_id": 1, "rank_in_cluster": 23}

>  <energy>  (32) 
-7.19

>  <cluster_rmsd>  (32) 
0.1

>  <cluster>  (32) 
2

$$$$

     RDKit          3D

 44 46  0  0  0  0  0  0  0  0999 V2000
  135.4620   68.6900  224.8280 O   0  0  0  0  0  0  0  0  0  0  0  0
  135.8270   69.8900  224.9460 C   0  0  0  0  0  0  0  0  0  0  0  0
  137.1420   70.2500  224.5500 N   0  0  0  0  0  0  0  0  0  0  0  0
  138.0000   69.2210  224.0290 C   0  0  0  0  0  0  0  0  0  0  0  0
  138.8890   68.6380  225.0720 C   0  0  0  0  0  0  0  0  0  0  0  0
  138.9040   67.4100  225.3470 O   0  0  0  0  0  0  0  0  0  0  0  0
  139.7460   69.5370  225.7660 N   0  0  0  0  0  0  0  0  0  0  0  0
  139.7760   70.9680  225.4940 C   0  0  0  0  0  0  0  0  0  0  0  0
  141.0890   71.5130  226.0050 C   0  0  0  0  0  0  0  0  0  0  0  0
  141.0800   71.3880  227.5110 C   0  0  0  0  0  0  0  0  0  0  0  0
  140.6090   70.0510  227.9840 C   0  0  0  0  0  0  0  0  0  0  0  0
  140.6580   69.0700  226.8090 C   0  0  0  0  0  0  0  0  0  0  0  0
  134.9210   70.9040  225.4820 C   0  0  0  0  0  0  0  0  0  0  0  0
  133.8650   70.4920  226.2890 C   0  0  0  0  0  0  0  0  0  0  0  0
  133.0110   71.4300  226.7950 C   0  0  0  0  0  0  0  0  0  0  0  0
  133.2030   72.7630  226.5050 C   0  0  0  0  0  0  0  0  0  0  0  0
  132.3550   73.7170  227.0060 C   0  0  0  0  0  0  0  0  0  0  0  0
  132.5260   75.0670  226.7280 C   0  0  0  0  0  0  0  0  0  0  0  0
  131.6060   76.1100  227.2700 C   0  0  0  0  0  0  0  0  0  0  0  0
  130.3030   75.8920  226.9320 F   0  0  0  0  0  0  0  0  0  0  0  0
  132.0850   77.3440  226.8750 F   0  0  0  0  0  0  0  0  0  0  0  0
  131.6790   76.0710  228.6570 F   0  0  0  0  0  0  0  0  0  0  0  0
  133.5910   75.4320  225.9200 C   0  0  0  0  0  0  0  0  0  0  0  0
  134.4740   74.5080  225.3910 C   0  0  0  0  0  0  0  0  0  0  0  0
  134.2600   73.1810  225.6970 C   0  0  0  0  0  0  0  0  0  0  0  0
  135.0700   72.2150  225.2240 N   0  0  0  0  0  0  0  0  0  0  0  0
  137.4520   71.2610  224.6490 H   0  0  0  0  0  0  0  0  0  0  0  0
  137.3747   68.4189  223.6098 H   0  0  0  0  0  0  0  0  0  0  0  0
  138.6409   69.6774  223.2603 H   0  0  0  0  0  0  0  0  0  0  0  0
  139.6949   71.1439  224.4112 H   0  0  0  0  0  0  0  0  0  0  0  0
  138.9339   71.4696  225.9933 H   0  0  0  0  0  0  0  0  0  0  0  0
  141.9245   70.9334  225.5854 H   0  0  0  0  0  0  0  0  0  0  0  0
  141.2142   72.5639  225.7052 H   0  0  0  0  0  0  0  0  0  0  0  0
  142.1026   71.5507  227.8822 H   0  0  0  0  0  0  0  0  0  0  0  0
  140.3773   72.1401  227.8990 H   0  0  0  0  0  0  0  0  0  0  0  0
  141.2629   69.6929  228.7928 H   0  0  0  0  0  0  0  0  0  0  0  0
  139.5800   70.1290  228.3648 H   0  0  0  0  0  0  0  0  0  0  0  0
  141.6820   69.0220  226.4101 H   0  0  0  0  0  0  0  0  0  0  0  0
  140.3569   68.0674  227.1468 H   0  0  0  0  0  0  0  0  0  0  0  0
  133.7200   69.4255  226.5163 H   0  0  0  0  0  0  0  0  0  0  0  0
  132.1703   71.1213  227.4337 H   0  0  0  0  0  0  0  0  0  0  0  0
  131.5163   73.4046  227.6456 H   0  0  0  0  0  0  0  0  0  0  0  0
  133.7399   76.4974  225.6905 H   0  0  0  0  0  0  0  0  0  0  0  0
  135.3133   74.8196  224.7518 H   0  0  0  0  0  0  0  0  0  0  0  0
  1  2  2  0
  2  3  1  0
  3  4  1  0
  4  5  1  0
  5  6  2  0
  5  7  1  0
  7  8  1  0
  8  9  1  0
  9 10  1  0
 10 11  1  0
 11 12  1  0
  2 13  1  0
 13 14  2  0
 14 15  1  0
 15 16  2  0
 16 17  1  0
 17 18  2  0
 18 19  1  0
 19 20  1  0
 19 21  1  0
 19 22  1  0
 18 23  1  0
 23 24  2  0
 24 25  1  0
 25 26  2  0
 12  7  1  0
 26 13  1  0
 25 16  1  0
  3 27  1  0
  4 28  1  0
  4 29  1  0
  8 30  1  0
  8 31  1  0
  9 32  1  0
  9 33  1  0
 10 34  1  0
 10 35  1  0
 11 36  1  0
 11 37  1  0
 12 38  1  0
 12 39  1  0
 14 40  1  0
 15 41  1  0
 17 42  1  0
 23 43  1  0
 24 44  1  0
M  END
>  <smiles>  (33) 
O=C(NCC(=O)N1CCCCC1)c1ccc2cc(C(F)(F)F)ccc2n1

>  <score_type>  (33) 
oracle

>  <origin>  (33) 
autodockgpu

>  <m_score__min__energy>  (33) 
-7.3200000000000003

>  <m_primary>  (33) 
energy

>  <rmsd>  (33) 
8.197388185449164

>  <m_score__min__rmsd>  (33) 
8.197388185449164

>  <meeko>  (33) 
{"free_energy": -7.18, "intermolecular_energy": -8.37, "internal_energy": -1.0, "cluster_size": 19, "cluster_id": 2, "rank_in_cluster": 8}

>  <energy>  (33) 
-7.19

>  <cluster_rmsd>  (33) 
0.12

>  <cluster>  (33) 
2

$$$$

     RDKit          3D

 44 46  0  0  0  0  0  0  0  0999 V2000
  140.0320   73.6430  220.5330 O   0  0  0  0  0  0  0  0  0  0  0  0
  139.7790   73.7180  221.7640 C   0  0  0  0  0  0  0  0  0  0  0  0
  139.5190   74.9920  222.3360 N   0  0  0  0  0  0  0  0  0  0  0  0
  139.5580   76.1420  221.4750 C   0  0  0  0  0  0  0  0  0  0  0  0
  138.9420   77.3450  222.1040 C   0  0  0  0  0  0  0  0  0  0  0  0
  137.7010   77.5540  222.1010 O   0  0  0  0  0  0  0  0  0  0  0  0
  139.8230   78.2720  222.7250 N   0  0  0  0  0  0  0  0  0  0  0  0
  141.2670   78.0860  222.7610 C   0  0  0  0  0  0  0  0  0  0  0  0
  141.8190   78.9320  223.8840 C   0  0  0  0  0  0  0  0  0  0  0  0
  141.6080   80.3810  223.5100 C   0  0  0  0  0  0  0  0  0  0  0  0
  140.2340   80.6570  222.9930 C   0  0  0  0  0  0  0  0  0  0  0  0
  139.3240   79.4850  223.3710 C   0  0  0  0  0  0  0  0  0  0  0  0
  139.7520   72.5210  222.6020 C   0  0  0  0  0  0  0  0  0  0  0  0
  139.1070   71.3870  222.1200 C   0  0  0  0  0  0  0  0  0  0  0  0
  139.0740   70.2610  222.8930 C   0  0  0  0  0  0  0  0  0  0  0  0
  139.6740   70.2610  224.1340 C   0  0  0  0  0  0  0  0  0  0  0  0
  139.6500   69.1400  224.9220 C   0  0  0  0  0  0  0  0  0  0  0  0
  140.2470   69.1140  226.1760 C   0  0  0  0  0  0  0  0  0  0  0  0
  140.2230   67.8970  227.0390 C   0  0  0  0  0  0  0  0  0  0  0  0
  141.4610   67.3560  227.2230 F   0  0  0  0  0  0  0  0  0  0  0  0
  139.3040   67.0160  226.5030 F   0  0  0  0  0  0  0  0  0  0  0  0
  139.7490   68.2660  228.2920 F   0  0  0  0  0  0  0  0  0  0  0  0
  140.8770   70.2670  226.6170 C   0  0  0  0  0  0  0  0  0  0  0  0
  140.9290   71.4230  225.8590 C   0  0  0  0  0  0  0  0  0  0  0  0
  140.3210   71.3960  224.6220 C   0  0  0  0  0  0  0  0  0  0  0  0
  140.3240   72.4760  223.8190 N   0  0  0  0  0  0  0  0  0  0  0  0
  139.3060   75.0570  223.3740 H   0  0  0  0  0  0  0  0  0  0  0  0
  140.6074   76.3676  221.2344 H   0  0  0  0  0  0  0  0  0  0  0  0
  138.9791   75.9032  220.5707 H   0  0  0  0  0  0  0  0  0  0  0  0
  141.5025   77.0267  222.9412 H   0  0  0  0  0  0  0  0  0  0  0  0
  141.7147   78.3851  221.8018 H   0  0  0  0  0  0  0  0  0  0  0  0
  141.2883   78.7051  224.8204 H   0  0  0  0  0  0  0  0  0  0  0  0
  142.8884   78.7236  224.0352 H   0  0  0  0  0  0  0  0  0  0  0  0
  141.7778   81.0015  224.4023 H   0  0  0  0  0  0  0  0  0  0  0  0
  142.3167   80.6187  222.7030 H   0  0  0  0  0  0  0  0  0  0  0  0
  139.8489   81.5846  223.4416 H   0  0  0  0  0  0  0  0  0  0  0  0
  140.2609   80.7738  221.8995 H   0  0  0  0  0  0  0  0  0  0  0  0
  139.3287   79.3508  224.4628 H   0  0  0  0  0  0  0  0  0  0  0  0
  138.2955   79.6888  223.0385 H   0  0  0  0  0  0  0  0  0  0  0  0
  138.6295   71.3966  221.1291 H   0  0  0  0  0  0  0  0  0  0  0  0
  138.5692   69.3554  222.5255 H   0  0  0  0  0  0  0  0  0  0  0  0
  139.1442   68.2362  224.5514 H   0  0  0  0  0  0  0  0  0  0  0  0
  141.3541   70.2627  227.6081 H   0  0  0  0  0  0  0  0  0  0  0  0
  141.4350   72.3272  226.2283 H   0  0  0  0  0  0  0  0  0  0  0  0
  1  2  2  0
  2  3  1  0
  3  4  1  0
  4  5  1  0
  5  6  2  0
  5  7  1  0
  7  8  1  0
  8  9  1  0
  9 10  1  0
 10 11  1  0
 11 12  1  0
  2 13  1  0
 13 14  2  0
 14 15  1  0
 15 16  2  0
 16 17  1  0
 17 18  2  0
 18 19  1  0
 19 20  1  0
 19 21  1  0
 19 22  1  0
 18 23  1  0
 23 24  2  0
 24 25  1  0
 25 26  2  0
 12  7  1  0
 26 13  1  0
 25 16  1  0
  3 27  1  0
  4 28  1  0
  4 29  1  0
  8 30  1  0
  8 31  1  0
  9 32  1  0
  9 33  1  0
 10 34  1  0
 10 35  1  0
 11 36  1  0
 11 37  1  0
 12 38  1  0
 12 39  1  0
 14 40  1  0
 15 41  1  0
 17 42  1  0
 23 43  1  0
 24 44  1  0
M  END
>  <smiles>  (34) 
O=C(NCC(=O)N1CCCCC1)c1ccc2cc(C(F)(F)F)ccc2n1

>  <score_type>  (34) 
oracle

>  <origin>  (34) 
autodockgpu

>  <m_score__min__energy>  (34) 
-7.3200000000000003

>  <m_primary>  (34) 
energy

>  <rmsd>  (34) 
4.194100508494337

>  <m_score__min__rmsd>  (34) 
4.194100508494337

>  <meeko>  (34) 
{"free_energy": -7.16, "intermolecular_energy": -8.36, "internal_energy": -0.83, "cluster_size": 28, "cluster_id": 1, "rank_in_cluster": 21}

>  <energy>  (34) 
-7.18

>  <cluster_rmsd>  (34) 
0.07

>  <cluster>  (34) 
2

$$$$

     RDKit          3D

 44 46  0  0  0  0  0  0  0  0999 V2000
  135.4660   68.6530  224.8950 O   0  0  0  0  0  0  0  0  0  0  0  0
  135.8090   69.8630  224.9630 C   0  0  0  0  0  0  0  0  0  0  0  0
  137.1030   70.2360  224.5140 N   0  0  0  0  0  0  0  0  0  0  0  0
  137.9660   69.2090  223.9990 C   0  0  0  0  0  0  0  0  0  0  0  0
  138.8450   68.6230  225.0500 C   0  0  0  0  0  0  0  0  0  0  0  0
  138.8400   67.3970  225.3360 O   0  0  0  0  0  0  0  0  0  0  0  0
  139.7130   69.5160  225.7360 N   0  0  0  0  0  0  0  0  0  0  0  0
  139.7650   70.9430  225.4510 C   0  0  0  0  0  0  0  0  0  0  0  0
  141.0850   71.4730  225.9590 C   0  0  0  0  0  0  0  0  0  0  0  0
  141.0710   71.3630  227.4660 C   0  0  0  0  0  0  0  0  0  0  0  0
  140.5800   70.0380  227.9510 C   0  0  0  0  0  0  0  0  0  0  0  0
  140.6170   69.0450  226.7860 C   0  0  0  0  0  0  0  0  0  0  0  0
  134.8990   70.8750  225.4950 C   0  0  0  0  0  0  0  0  0  0  0  0
  133.8360   70.4610  226.2910 C   0  0  0  0  0  0  0  0  0  0  0  0
  132.9770   71.3970  226.7940 C   0  0  0  0  0  0  0  0  0  0  0  0
  133.1730   72.7320  226.5100 C   0  0  0  0  0  0  0  0  0  0  0  0
  132.3200   73.6830  227.0080 C   0  0  0  0  0  0  0  0  0  0  0  0
  132.4950   75.0340  226.7370 C   0  0  0  0  0  0  0  0  0  0  0  0
  131.5700   76.0750  227.2750 C   0  0  0  0  0  0  0  0  0  0  0  0
  130.2630   75.8210  226.9860 F   0  0  0  0  0  0  0  0  0  0  0  0
  132.0110   77.3060  226.8250 F   0  0  0  0  0  0  0  0  0  0  0  0
  131.6880   76.0830  228.6590 F   0  0  0  0  0  0  0  0  0  0  0  0
  133.5670   75.4020  225.9390 C   0  0  0  0  0  0  0  0  0  0  0  0
  134.4540   74.4800  225.4140 C   0  0  0  0  0  0  0  0  0  0  0  0
  134.2370   73.1510  225.7130 C   0  0  0  0  0  0  0  0  0  0  0  0
  135.0500   72.1880  225.2440 N   0  0  0  0  0  0  0  0  0  0  0  0
  137.3950   71.2560  224.5710 H   0  0  0  0  0  0  0  0  0  0  0  0
  137.3451   68.4080  223.5713 H   0  0  0  0  0  0  0  0  0  0  0  0
  138.6145   69.6676  223.2380 H   0  0  0  0  0  0  0  0  0  0  0  0
  139.6882   71.1100  224.3665 H   0  0  0  0  0  0  0  0  0  0  0  0
  138.9298   71.4617  225.9443 H   0  0  0  0  0  0  0  0  0  0  0  0
  141.9124   70.8767  225.5469 H   0  0  0  0  0  0  0  0  0  0  0  0
  141.2269   72.5188  225.6489 H   0  0  0  0  0  0  0  0  0  0  0  0
  142.0951   71.5147  227.8379 H   0  0  0  0  0  0  0  0  0  0  0  0
  140.3783   72.1289  227.8450 H   0  0  0  0  0  0  0  0  0  0  0  0
  141.2272   69.6785  228.7646 H   0  0  0  0  0  0  0  0  0  0  0  0
  139.5515   70.1346  228.3289 H   0  0  0  0  0  0  0  0  0  0  0  0
  141.6409   68.9780  226.3897 H   0  0  0  0  0  0  0  0  0  0  0  0
  140.3009   68.0501  227.1327 H   0  0  0  0  0  0  0  0  0  0  0  0
  133.6888   69.3937  226.5127 H   0  0  0  0  0  0  0  0  0  0  0  0
  132.1308   71.0861  227.4243 H   0  0  0  0  0  0  0  0  0  0  0  0
  131.4754   73.3679  227.6383 H   0  0  0  0  0  0  0  0  0  0  0  0
  133.7180   76.4683  225.7147 H   0  0  0  0  0  0  0  0  0  0  0  0
  135.2988   74.7939  224.7832 H   0  0  0  0  0  0  0  0  0  0  0  0
  1  2  2  0
  2  3  1  0
  3  4  1  0
  4  5  1  0
  5  6  2  0
  5  7  1  0
  7  8  1  0
  8  9  1  0
  9 10  1  0
 10 11  1  0
 11 12  1  0
  2 13  1  0
 13 14  2  0
 14 15  1  0
 15 16  2  0
 16 17  1  0
 17 18  2  0
 18 19  1  0
 19 20  1  0
 19 21  1  0
 19 22  1  0
 18 23  1  0
 23 24  2  0
 24 25  1  0
 25 26  2  0
 12  7  1  0
 26 13  1  0
 25 16  1  0
  3 27  1  0
  4 28  1  0
  4 29  1  0
  8 30  1  0
  8 31  1  0
  9 32  1  0
  9 33  1  0
 10 34  1  0
 10 35  1  0
 11 36  1  0
 11 37  1  0
 12 38  1  0
 12 39  1  0
 14 40  1  0
 15 41  1  0
 17 42  1  0
 23 43  1  0
 24 44  1  0
M  END
>  <smiles>  (35) 
O=C(NCC(=O)N1CCCCC1)c1ccc2cc(C(F)(F)F)ccc2n1

>  <score_type>  (35) 
oracle

>  <origin>  (35) 
autodockgpu

>  <m_score__min__energy>  (35) 
-7.3200000000000003

>  <m_primary>  (35) 
energy

>  <rmsd>  (35) 
8.197029239606175

>  <m_score__min__rmsd>  (35) 
8.197029239606175

>  <meeko>  (35) 
{"free_energy": -7.14, "intermolecular_energy": -8.33, "internal_energy": -1.03, "cluster_size": 19, "cluster_id": 2, "rank_in_cluster": 11}

>  <energy>  (35) 
-7.18

>  <cluster_rmsd>  (35) 
0.1

>  <cluster>  (35) 
2

$$$$

     RDKit          3D

 44 46  0  0  0  0  0  0  0  0999 V2000
  135.4720   68.6560  224.8750 O   0  0  0  0  0  0  0  0  0  0  0  0
  135.8240   69.8600  224.9850 C   0  0  0  0  0  0  0  0  0  0  0  0
  137.1300   70.2350  224.5710 N   0  0  0  0  0  0  0  0  0  0  0  0
  137.9940   69.2150  224.0430 C   0  0  0  0  0  0  0  0  0  0  0  0
  138.8840   68.6280  225.0840 C   0  0  0  0  0  0  0  0  0  0  0  0
  138.8990   67.3980  225.3520 O   0  0  0  0  0  0  0  0  0  0  0  0
  139.7390   69.5240  225.7820 N   0  0  0  0  0  0  0  0  0  0  0  0
  139.7680   70.9560  225.5180 C   0  0  0  0  0  0  0  0  0  0  0  0
  141.0800   71.5000  226.0310 C   0  0  0  0  0  0  0  0  0  0  0  0
  141.0720   71.3670  227.5360 C   0  0  0  0  0  0  0  0  0  0  0  0
  140.6020   70.0270  228.0030 C   0  0  0  0  0  0  0  0  0  0  0  0
  140.6530   69.0530  226.8230 C   0  0  0  0  0  0  0  0  0  0  0  0
  134.9120   70.8650  225.5280 C   0  0  0  0  0  0  0  0  0  0  0  0
  133.8570   70.4410  226.3280 C   0  0  0  0  0  0  0  0  0  0  0  0
  132.9970   71.3700  226.8420 C   0  0  0  0  0  0  0  0  0  0  0  0
  133.1830   72.7070  226.5650 C   0  0  0  0  0  0  0  0  0  0  0  0
  132.3290   73.6520  227.0730 C   0  0  0  0  0  0  0  0  0  0  0  0
  132.4950   75.0050  226.8080 C   0  0  0  0  0  0  0  0  0  0  0  0
  131.5690   76.0380  227.3580 C   0  0  0  0  0  0  0  0  0  0  0  0
  131.6660   76.1680  228.7110 F   0  0  0  0  0  0  0  0  0  0  0  0
  130.2940   75.7410  226.9160 F   0  0  0  0  0  0  0  0  0  0  0  0
  131.9140   77.2650  226.8050 F   0  0  0  0  0  0  0  0  0  0  0  0
  133.5600   75.3820  226.0050 C   0  0  0  0  0  0  0  0  0  0  0  0
  134.4480   74.4680  225.4690 C   0  0  0  0  0  0  0  0  0  0  0  0
  134.2400   73.1370  225.7630 C   0  0  0  0  0  0  0  0  0  0  0  0
  135.0550   72.1800  225.2830 N   0  0  0  0  0  0  0  0  0  0  0  0
  137.4290   71.2500  224.6630 H   0  0  0  0  0  0  0  0  0  0  0  0
  137.3737   68.4132  223.6159 H   0  0  0  0  0  0  0  0  0  0  0  0
  138.6340   69.6807  223.2791 H   0  0  0  0  0  0  0  0  0  0  0  0
  139.6863   71.1376  224.4362 H   0  0  0  0  0  0  0  0  0  0  0  0
  138.9258   71.4538  226.0209 H   0  0  0  0  0  0  0  0  0  0  0  0
  141.9161   70.9239  225.6079 H   0  0  0  0  0  0  0  0  0  0  0  0
  141.2035   72.5527  225.7367 H   0  0  0  0  0  0  0  0  0  0  0  0
  142.0948   71.5284  227.9073 H   0  0  0  0  0  0  0  0  0  0  0  0
  140.3689   72.1166  227.9281 H   0  0  0  0  0  0  0  0  0  0  0  0
  141.2559   69.6656  228.8103 H   0  0  0  0  0  0  0  0  0  0  0  0
  139.5730   70.1017  228.3845 H   0  0  0  0  0  0  0  0  0  0  0  0
  141.6770   69.0095  226.4237 H   0  0  0  0  0  0  0  0  0  0  0  0
  140.3543   68.0478  227.1553 H   0  0  0  0  0  0  0  0  0  0  0  0
  133.7165   69.3717  226.5443 H   0  0  0  0  0  0  0  0  0  0  0  0
  132.1569   71.0509  227.4764 H   0  0  0  0  0  0  0  0  0  0  0  0
  131.4901   73.3297  227.7073 H   0  0  0  0  0  0  0  0  0  0  0  0
  133.7043   76.4502  225.7856 H   0  0  0  0  0  0  0  0  0  0  0  0
  135.2865   74.7895  224.8337 H   0  0  0  0  0  0  0  0  0  0  0  0
  1  2  2  0
  2  3  1  0
  3  4  1  0
  4  5  1  0
  5  6  2  0
  5  7  1  0
  7  8  1  0
  8  9  1  0
  9 10  1  0
 10 11  1  0
 11 12  1  0
  2 13  1  0
 13 14  2  0
 14 15  1  0
 15 16  2  0
 16 17  1  0
 17 18  2  0
 18 19  1  0
 19 20  1  0
 19 21  1  0
 19 22  1  0
 18 23  1  0
 23 24  2  0
 24 25  1  0
 25 26  2  0
 12  7  1  0
 26 13  1  0
 25 16  1  0
  3 27  1  0
  4 28  1  0
  4 29  1  0
  8 30  1  0
  8 31  1  0
  9 32  1  0
  9 33  1  0
 10 34  1  0
 10 35  1  0
 11 36  1  0
 11 37  1  0
 12 38  1  0
 12 39  1  0
 14 40  1  0
 15 41  1  0
 17 42  1  0
 23 43  1  0
 24 44  1  0
M  END
>  <smiles>  (36) 
O=C(NCC(=O)N1CCCCC1)c1ccc2cc(C(F)(F)F)ccc2n1

>  <score_type>  (36) 
oracle

>  <origin>  (36) 
autodockgpu

>  <m_score__min__energy>  (36) 
-7.3200000000000003

>  <m_primary>  (36) 
energy

>  <rmsd>  (36) 
8.20853488185812

>  <m_score__min__rmsd>  (36) 
8.20853488185812

>  <meeko>  (36) 
{"free_energy": -7.18, "intermolecular_energy": -8.37, "internal_energy": -1.01, "cluster_size": 19, "cluster_id": 2, "rank_in_cluster": 9}

>  <energy>  (36) 
-7.18

>  <cluster_rmsd>  (36) 
0.07

>  <cluster>  (36) 
2

$$$$

     RDKit          3D

 44 46  0  0  0  0  0  0  0  0999 V2000
  139.9200   69.5570  222.5780 O   0  0  0  0  0  0  0  0  0  0  0  0
  139.6440   70.7550  222.8530 C   0  0  0  0  0  0  0  0  0  0  0  0
  138.7030   71.0250  223.8820 N   0  0  0  0  0  0  0  0  0  0  0  0
  138.1070   69.9100  224.5650 C   0  0  0  0  0  0  0  0  0  0  0  0
  139.1140   69.0710  225.2740 C   0  0  0  0  0  0  0  0  0  0  0  0
  139.1940   67.8250  225.1150 O   0  0  0  0  0  0  0  0  0  0  0  0
  140.0050   69.7400  226.1570 N   0  0  0  0  0  0  0  0  0  0  0  0
  139.9620   71.1780  226.3830 C   0  0  0  0  0  0  0  0  0  0  0  0
  141.3010   71.6050  226.9370 C   0  0  0  0  0  0  0  0  0  0  0  0
  141.4450   70.9850  228.3080 C   0  0  0  0  0  0  0  0  0  0  0  0
  141.0670   69.5400  228.3400 C   0  0  0  0  0  0  0  0  0  0  0  0
  141.0310   69.0110  226.9020 C   0  0  0  0  0  0  0  0  0  0  0  0
  140.2750   71.8590  222.1310 C   0  0  0  0  0  0  0  0  0  0  0  0
  141.2600   71.5630  221.1950 C   0  0  0  0  0  0  0  0  0  0  0  0
  141.8590   72.5850  220.5140 C   0  0  0  0  0  0  0  0  0  0  0  0
  141.4820   73.8880  220.7590 C   0  0  0  0  0  0  0  0  0  0  0  0
  142.0720   74.9250  220.0840 C   0  0  0  0  0  0  0  0  0  0  0  0
  141.7110   76.2460  220.3130 C   0  0  0  0  0  0  0  0  0  0  0  0
  142.3500   77.3790  219.5810 C   0  0  0  0  0  0  0  0  0  0  0  0
  143.6590   77.1430  219.2810 F   0  0  0  0  0  0  0  0  0  0  0  0
  142.1470   78.5290  220.3210 F   0  0  0  0  0  0  0  0  0  0  0  0
  141.6800   77.5480  218.3760 F   0  0  0  0  0  0  0  0  0  0  0  0
  140.7250   76.4950  221.2550 C   0  0  0  0  0  0  0  0  0  0  0  0
  140.1000   75.4830  221.9610 C   0  0  0  0  0  0  0  0  0  0  0  0
  140.4950   74.1890  221.6960 C   0  0  0  0  0  0  0  0  0  0  0  0
  139.9400   73.1440  222.3380 N   0  0  0  0  0  0  0  0  0  0  0  0
  138.4700   72.0340  224.1150 H   0  0  0  0  0  0  0  0  0  0  0  0
  137.3849   70.2924  225.3015 H   0  0  0  0  0  0  0  0  0  0  0  0
  137.6175   69.2779  223.8095 H   0  0  0  0  0  0  0  0  0  0  0  0
  139.7676   71.6991  225.4340 H   0  0  0  0  0  0  0  0  0  0  0  0
  139.1585   71.4292  227.0910 H   0  0  0  0  0  0  0  0  0  0  0  0
  142.1091   71.2529  226.2790 H   0  0  0  0  0  0  0  0  0  0  0  0
  141.3621   72.7015  226.9997 H   0  0  0  0  0  0  0  0  0  0  0  0
  142.4935   71.0798  228.6268 H   0  0  0  0  0  0  0  0  0  0  0  0
  140.7597   71.5185  228.9830 H   0  0  0  0  0  0  0  0  0  0  0  0
  141.8092   68.9758  228.9237 H   0  0  0  0  0  0  0  0  0  0  0  0
  140.0790   69.4207  228.8087 H   0  0  0  0  0  0  0  0  0  0  0  0
  142.0114   69.1639  226.4272 H   0  0  0  0  0  0  0  0  0  0  0  0
  140.7977   67.9360  226.9050 H   0  0  0  0  0  0  0  0  0  0  0  0
  141.5531   70.5199  221.0054 H   0  0  0  0  0  0  0  0  0  0  0  0
  142.6409   72.3682  219.7713 H   0  0  0  0  0  0  0  0  0  0  0  0
  142.8525   74.7046  219.3409 H   0  0  0  0  0  0  0  0  0  0  0  0
  140.4285   77.5365  221.4483 H   0  0  0  0  0  0  0  0  0  0  0  0
  139.3191   75.7019  222.7041 H   0  0  0  0  0  0  0  0  0  0  0  0
  1  2  2  0
  2  3  1  0
  3  4  1  0
  4  5  1  0
  5  6  2  0
  5  7  1  0
  7  8  1  0
  8  9  1  0
  9 10  1  0
 10 11  1  0
 11 12  1  0
  2 13  1  0
 13 14  2  0
 14 15  1  0
 15 16  2  0
 16 17  1  0
 17 18  2  0
 18 19  1  0
 19 20  1  0
 19 21  1  0
 19 22  1  0
 18 23  1  0
 23 24  2  0
 24 25  1  0
 25 26  2  0
 12  7  1  0
 26 13  1  0
 25 16  1  0
  3 27  1  0
  4 28  1  0
  4 29  1  0
  8 30  1  0
  8 31  1  0
  9 32  1  0
  9 33  1  0
 10 34  1  0
 10 35  1  0
 11 36  1  0
 11 37  1  0
 12 38  1  0
 12 39  1  0
 14 40  1  0
 15 41  1  0
 17 42  1  0
 23 43  1  0
 24 44  1  0
M  END
>  <smiles>  (37) 
O=C(NCC(=O)N1CCCCC1)c1ccc2cc(C(F)(F)F)ccc2n1

>  <score_type>  (37) 
oracle

>  <origin>  (37) 
autodockgpu

>  <m_score__min__energy>  (37) 
-7.3200000000000003

>  <m_primary>  (37) 
energy

>  <rmsd>  (37) 
8.045183925568137

>  <m_score__min__rmsd>  (37) 
8.045183925568137

>  <meeko>  (37) 
{"free_energy": -6.7, "intermolecular_energy": -7.89, "internal_energy": -1.11, "cluster_size": 3, "cluster_id": 3, "rank_in_cluster": 1}

>  <energy>  (37) 
-7.18

>  <cluster_rmsd>  (37) 
0.12

>  <cluster>  (37) 
2

$$$$

     RDKit          3D

 44 46  0  0  0  0  0  0  0  0999 V2000
  135.4620   68.6830  224.8320 O   0  0  0  0  0  0  0  0  0  0  0  0
  135.8310   69.8820  224.9550 C   0  0  0  0  0  0  0  0  0  0  0  0
  137.1460   70.2400  224.5540 N   0  0  0  0  0  0  0  0  0  0  0  0
  137.9980   69.2120  224.0250 C   0  0  0  0  0  0  0  0  0  0  0  0
  138.8950   68.6270  225.0610 C   0  0  0  0  0  0  0  0  0  0  0  0
  138.9170   67.3960  225.3250 O   0  0  0  0  0  0  0  0  0  0  0  0
  139.7480   69.5250  225.7590 N   0  0  0  0  0  0  0  0  0  0  0  0
  139.7690   70.9580  225.4980 C   0  0  0  0  0  0  0  0  0  0  0  0
  141.0810   71.5070  226.0090 C   0  0  0  0  0  0  0  0  0  0  0  0
  141.0780   71.3690  227.5140 C   0  0  0  0  0  0  0  0  0  0  0  0
  140.6160   70.0260  227.9780 C   0  0  0  0  0  0  0  0  0  0  0  0
  140.6670   69.0550  226.7950 C   0  0  0  0  0  0  0  0  0  0  0  0
  134.9290   70.8950  225.4990 C   0  0  0  0  0  0  0  0  0  0  0  0
  133.8820   70.4830  226.3160 C   0  0  0  0  0  0  0  0  0  0  0  0
  133.0320   71.4210  226.8310 C   0  0  0  0  0  0  0  0  0  0  0  0
  133.2200   72.7540  226.5380 C   0  0  0  0  0  0  0  0  0  0  0  0
  132.3770   73.7070  227.0470 C   0  0  0  0  0  0  0  0  0  0  0  0
  132.5440   75.0570  226.7670 C   0  0  0  0  0  0  0  0  0  0  0  0
  131.6280   76.1000  227.3180 C   0  0  0  0  0  0  0  0  0  0  0  0
  130.3260   75.8950  226.9700 F   0  0  0  0  0  0  0  0  0  0  0  0
  132.1190   77.3350  226.9400 F   0  0  0  0  0  0  0  0  0  0  0  0
  131.6940   76.0430  228.7040 F   0  0  0  0  0  0  0  0  0  0  0  0
  133.6000   75.4220  225.9470 C   0  0  0  0  0  0  0  0  0  0  0  0
  134.4790   74.4990  225.4100 C   0  0  0  0  0  0  0  0  0  0  0  0
  134.2690   73.1720  225.7190 C   0  0  0  0  0  0  0  0  0  0  0  0
  135.0750   72.2070  225.2390 N   0  0  0  0  0  0  0  0  0  0  0  0
  137.4580   71.2500  224.6570 H   0  0  0  0  0  0  0  0  0  0  0  0
  137.3688   68.4110  223.6098 H   0  0  0  0  0  0  0  0  0  0  0  0
  138.6330   69.6686  223.2515 H   0  0  0  0  0  0  0  0  0  0  0  0
  139.6833   71.1417  224.4168 H   0  0  0  0  0  0  0  0  0  0  0  0
  138.9257   71.4508  226.0040 H   0  0  0  0  0  0  0  0  0  0  0  0
  141.9185   70.9362  225.5815 H   0  0  0  0  0  0  0  0  0  0  0  0
  141.1987   72.5612  225.7176 H   0  0  0  0  0  0  0  0  0  0  0  0
  142.1011   71.5341  227.8828 H   0  0  0  0  0  0  0  0  0  0  0  0
  140.3724   72.1139  227.9105 H   0  0  0  0  0  0  0  0  0  0  0  0
  141.2744   69.6652  228.7820 H   0  0  0  0  0  0  0  0  0  0  0  0
  139.5878   70.0951  228.3628 H   0  0  0  0  0  0  0  0  0  0  0  0
  141.6898   69.0167  226.3921 H   0  0  0  0  0  0  0  0  0  0  0  0
  140.3736   68.0477  227.1256 H   0  0  0  0  0  0  0  0  0  0  0  0
  133.7398   69.4165  226.5447 H   0  0  0  0  0  0  0  0  0  0  0  0
  132.1985   71.1120  227.4789 H   0  0  0  0  0  0  0  0  0  0  0  0
  131.5452   73.3941  227.6952 H   0  0  0  0  0  0  0  0  0  0  0  0
  133.7447   76.4873  225.7142 H   0  0  0  0  0  0  0  0  0  0  0  0
  135.3118   74.8111  224.7627 H   0  0  0  0  0  0  0  0  0  0  0  0
  1  2  2  0
  2  3  1  0
  3  4  1  0
  4  5  1  0
  5  6  2  0
  5  7  1  0
  7  8  1  0
  8  9  1  0
  9 10  1  0
 10 11  1  0
 11 12  1  0
  2 13  1  0
 13 14  2  0
 14 15  1  0
 15 16  2  0
 16 17  1  0
 17 18  2  0
 18 19  1  0
 19 20  1  0
 19 21  1  0
 19 22  1  0
 18 23  1  0
 23 24  2  0
 24 25  1  0
 25 26  2  0
 12  7  1  0
 26 13  1  0
 25 16  1  0
  3 27  1  0
  4 28  1  0
  4 29  1  0
  8 30  1  0
  8 31  1  0
  9 32  1  0
  9 33  1  0
 10 34  1  0
 10 35  1  0
 11 36  1  0
 11 37  1  0
 12 38  1  0
 12 39  1  0
 14 40  1  0
 15 41  1  0
 17 42  1  0
 23 43  1  0
 24 44  1  0
M  END
>  <smiles>  (38) 
O=C(NCC(=O)N1CCCCC1)c1ccc2cc(C(F)(F)F)ccc2n1

>  <score_type>  (38) 
oracle

>  <origin>  (38) 
autodockgpu

>  <m_score__min__energy>  (38) 
-7.3200000000000003

>  <m_primary>  (38) 
energy

>  <rmsd>  (38) 
8.19456370306616

>  <m_score__min__rmsd>  (38) 
8.19456370306616

>  <meeko>  (38) 
{"free_energy": -7.2, "intermolecular_energy": -8.39, "internal_energy": -0.99, "cluster_size": 19, "cluster_id": 2, "rank_in_cluster": 2}

>  <energy>  (38) 
-7.17

>  <cluster_rmsd>  (38) 
0.11

>  <cluster>  (38) 
2

$$$$

     RDKit          3D

 44 46  0  0  0  0  0  0  0  0999 V2000
  139.9160   73.1070  220.4280 O   0  0  0  0  0  0  0  0  0  0  0  0
  139.6980   73.3300  221.6480 C   0  0  0  0  0  0  0  0  0  0  0  0
  139.4910   74.6690  222.0750 N   0  0  0  0  0  0  0  0  0  0  0  0
  139.5410   75.7120  221.0880 C   0  0  0  0  0  0  0  0  0  0  0  0
  140.7750   76.5400  221.1950 C   0  0  0  0  0  0  0  0  0  0  0  0
  141.8690   76.2010  220.6730 O   0  0  0  0  0  0  0  0  0  0  0  0
  140.6750   77.7570  221.9240 N   0  0  0  0  0  0  0  0  0  0  0  0
  139.4380   78.2030  222.5500 C   0  0  0  0  0  0  0  0  0  0  0  0
  139.5400   79.6930  222.7770 C   0  0  0  0  0  0  0  0  0  0  0  0
  140.6210   79.9250  223.8070 C   0  0  0  0  0  0  0  0  0  0  0  0
  141.8630   79.1390  223.5390 C   0  0  0  0  0  0  0  0  0  0  0  0
  141.8260   78.6440  222.0900 C   0  0  0  0  0  0  0  0  0  0  0  0
  139.6560   72.2380  222.6190 C   0  0  0  0  0  0  0  0  0  0  0  0
  138.8900   71.1160  222.3240 C   0  0  0  0  0  0  0  0  0  0  0  0
  138.8420   70.0880  223.2230 C   0  0  0  0  0  0  0  0  0  0  0  0
  139.5490   70.1740  224.4030 C   0  0  0  0  0  0  0  0  0  0  0  0
  139.5120   69.1510  225.3150 C   0  0  0  0  0  0  0  0  0  0  0  0
  140.2140   69.2130  226.5110 C   0  0  0  0  0  0  0  0  0  0  0  0
  140.1770   68.1030  227.5090 C   0  0  0  0  0  0  0  0  0  0  0  0
  139.2250   67.1700  227.2260 F   0  0  0  0  0  0  0  0  0  0  0  0
  140.0490   68.6670  228.7640 F   0  0  0  0  0  0  0  0  0  0  0  0
  141.4050   67.4540  227.4780 F   0  0  0  0  0  0  0  0  0  0  0  0
  140.9640   70.3500  226.7650 C   0  0  0  0  0  0  0  0  0  0  0  0
  141.0340   71.4080  225.8760 C   0  0  0  0  0  0  0  0  0  0  0  0
  140.3180   71.2970  224.7030 C   0  0  0  0  0  0  0  0  0  0  0  0
  140.3290   72.2790  223.7830 N   0  0  0  0  0  0  0  0  0  0  0  0
  139.3070   74.8600  223.1040 H   0  0  0  0  0  0  0  0  0  0  0  0
  139.5093   75.2537  220.0885 H   0  0  0  0  0  0  0  0  0  0  0  0
  138.6787   76.3738  221.2570 H   0  0  0  0  0  0  0  0  0  0  0  0
  138.5856   77.9835  221.8903 H   0  0  0  0  0  0  0  0  0  0  0  0
  139.2837   77.6807  223.5057 H   0  0  0  0  0  0  0  0  0  0  0  0
  139.8034   80.1986  221.8363 H   0  0  0  0  0  0  0  0  0  0  0  0
  138.5789   80.0971  223.1277 H   0  0  0  0  0  0  0  0  0  0  0  0
  140.8774   80.9947  223.8108 H   0  0  0  0  0  0  0  0  0  0  0  0
  140.2256   79.5933  224.7784 H   0  0  0  0  0  0  0  0  0  0  0  0
  142.7455   79.7781  223.6897 H   0  0  0  0  0  0  0  0  0  0  0  0
  141.9211   78.2826  224.2269 H   0  0  0  0  0  0  0  0  0  0  0  0
  141.7326   79.5023  221.4084 H   0  0  0  0  0  0  0  0  0  0  0  0
  142.7534   78.1003  221.8571 H   0  0  0  0  0  0  0  0  0  0  0  0
  138.3298   71.0565  221.3792 H   0  0  0  0  0  0  0  0  0  0  0  0
  138.2401   69.1934  223.0053 H   0  0  0  0  0  0  0  0  0  0  0  0
  138.9101   68.2574  225.0931 H   0  0  0  0  0  0  0  0  0  0  0  0
  141.5250   70.4140  227.7090 H   0  0  0  0  0  0  0  0  0  0  0  0
  141.6365   72.3015  226.0962 H   0  0  0  0  0  0  0  0  0  0  0  0
  1  2  2  0
  2  3  1  0
  3  4  1  0
  4  5  1  0
  5  6  2  0
  5  7  1  0
  7  8  1  0
  8  9  1  0
  9 10  1  0
 10 11  1  0
 11 12  1  0
  2 13  1  0
 13 14  2  0
 14 15  1  0
 15 16  2  0
 16 17  1  0
 17 18  2  0
 18 19  1  0
 19 20  1  0
 19 21  1  0
 19 22  1  0
 18 23  1  0
 23 24  2  0
 24 25  1  0
 25 26  2  0
 12  7  1  0
 26 13  1  0
 25 16  1  0
  3 27  1  0
  4 28  1  0
  4 29  1  0
  8 30  1  0
  8 31  1  0
  9 32  1  0
  9 33  1  0
 10 34  1  0
 10 35  1  0
 11 36  1  0
 11 37  1  0
 12 38  1  0
 12 39  1  0
 14 40  1  0
 15 41  1  0
 17 42  1  0
 23 43  1  0
 24 44  1  0
M  END
>  <smiles>  (39) 
O=C(NCC(=O)N1CCCCC1)c1ccc2cc(C(F)(F)F)ccc2n1

>  <score_type>  (39) 
oracle

>  <origin>  (39) 
autodockgpu

>  <m_score__min__energy>  (39) 
-7.3200000000000003

>  <m_primary>  (39) 
energy

>  <rmsd>  (39) 
3.8015016231320473

>  <m_score__min__rmsd>  (39) 
3.8015016231320473

>  <meeko>  (39) 
{"free_energy": -7.15, "intermolecular_energy": -8.34, "internal_energy": -0.83, "cluster_size": 28, "cluster_id": 1, "rank_in_cluster": 24}

>  <energy>  (39) 
-7.14

>  <cluster_rmsd>  (39) 
0.12

>  <cluster>  (39) 
2

$$$$

     RDKit          3D

 44 46  0  0  0  0  0  0  0  0999 V2000
  140.1240   73.5510  220.6520 O   0  0  0  0  0  0  0  0  0  0  0  0
  139.7010   73.6170  221.8370 C   0  0  0  0  0  0  0  0  0  0  0  0
  139.2690   74.8720  222.3420 N   0  0  0  0  0  0  0  0  0  0  0  0
  139.3350   76.0140  221.4720 C   0  0  0  0  0  0  0  0  0  0  0  0
  138.8090   77.2510  222.1140 C   0  0  0  0  0  0  0  0  0  0  0  0
  137.5830   77.5370  222.1370 O   0  0  0  0  0  0  0  0  0  0  0  0
  139.7590   78.1200  222.7160 N   0  0  0  0  0  0  0  0  0  0  0  0
  141.1890   77.8440  222.7220 C   0  0  0  0  0  0  0  0  0  0  0  0
  141.8160   78.6530  223.8340 C   0  0  0  0  0  0  0  0  0  0  0  0
  141.6880   80.1120  223.4650 C   0  0  0  0  0  0  0  0  0  0  0  0
  140.3230   80.4750  222.9770 C   0  0  0  0  0  0  0  0  0  0  0  0
  139.3490   79.3610  223.3740 C   0  0  0  0  0  0  0  0  0  0  0  0
  139.6520   72.4290  222.6870 C   0  0  0  0  0  0  0  0  0  0  0  0
  138.8670   71.3550  222.2830 C   0  0  0  0  0  0  0  0  0  0  0  0
  138.8110   70.2390  223.0690 C   0  0  0  0  0  0  0  0  0  0  0  0
  139.5290   70.1900  224.2440 C   0  0  0  0  0  0  0  0  0  0  0  0
  139.4850   69.0770  225.0440 C   0  0  0  0  0  0  0  0  0  0  0  0
  140.1990   69.0030  226.2330 C   0  0  0  0  0  0  0  0  0  0  0  0
  140.1540   67.7940  227.1090 C   0  0  0  0  0  0  0  0  0  0  0  0
  139.9920   68.1030  228.4270 F   0  0  0  0  0  0  0  0  0  0  0  0
  141.2820   67.0410  226.8480 F   0  0  0  0  0  0  0  0  0  0  0  0
  139.0580   67.0290  226.7320 F   0  0  0  0  0  0  0  0  0  0  0  0
  140.9670   70.0970  226.5970 C   0  0  0  0  0  0  0  0  0  0  0  0
  141.0450   71.2410  225.8240 C   0  0  0  0  0  0  0  0  0  0  0  0
  140.3180   71.2640  224.6530 C   0  0  0  0  0  0  0  0  0  0  0  0
  140.3350   72.3380  223.8420 N   0  0  0  0  0  0  0  0  0  0  0  0
  138.9120   74.9300  223.3410 H   0  0  0  0  0  0  0  0  0  0  0  0
  140.3847   76.1821  221.1895 H   0  0  0  0  0  0  0  0  0  0  0  0
  138.7089   75.8013  220.5930 H   0  0  0  0  0  0  0  0  0  0  0  0
  141.3615   76.7719  222.8973 H   0  0  0  0  0  0  0  0  0  0  0  0
  141.6347   78.1155  221.7537 H   0  0  0  0  0  0  0  0  0  0  0  0
  141.2917   78.4582  224.7812 H   0  0  0  0  0  0  0  0  0  0  0  0
  142.8733   78.3783  223.9629 H   0  0  0  0  0  0  0  0  0  0  0  0
  141.9152   80.7192  224.3536 H   0  0  0  0  0  0  0  0  0  0  0  0
  142.3928   80.3058  222.6430 H   0  0  0  0  0  0  0  0  0  0  0  0
  140.0064   81.4242  223.4341 H   0  0  0  0  0  0  0  0  0  0  0  0
  140.3340   80.5921  221.8833 H   0  0  0  0  0  0  0  0  0  0  0  0
  139.3681   79.2247  224.4653 H   0  0  0  0  0  0  0  0  0  0  0  0
  138.3281   79.6289  223.0641 H   0  0  0  0  0  0  0  0  0  0  0  0
  138.2983   71.4032  221.3426 H   0  0  0  0  0  0  0  0  0  0  0  0
  138.1938   69.3810  222.7643 H   0  0  0  0  0  0  0  0  0  0  0  0
  138.8679   68.2202  224.7358 H   0  0  0  0  0  0  0  0  0  0  0  0
  141.5366   70.0540  227.5370 H   0  0  0  0  0  0  0  0  0  0  0  0
  141.6623   72.0981  226.1312 H   0  0  0  0  0  0  0  0  0  0  0  0
  1  2  2  0
  2  3  1  0
  3  4  1  0
  4  5  1  0
  5  6  2  0
  5  7  1  0
  7  8  1  0
  8  9  1  0
  9 10  1  0
 10 11  1  0
 11 12  1  0
  2 13  1  0
 13 14  2  0
 14 15  1  0
 15 16  2  0
 16 17  1  0
 17 18  2  0
 18 19  1  0
 19 20  1  0
 19 21  1  0
 19 22  1  0
 18 23  1  0
 23 24  2  0
 24 25  1  0
 25 26  2  0
 12  7  1  0
 26 13  1  0
 25 16  1  0
  3 27  1  0
  4 28  1  0
  4 29  1  0
  8 30  1  0
  8 31  1  0
  9 32  1  0
  9 33  1  0
 10 34  1  0
 10 35  1  0
 11 36  1  0
 11 37  1  0
 12 38  1  0
 12 39  1  0
 14 40  1  0
 15 41  1  0
 17 42  1  0
 23 43  1  0
 24 44  1  0
M  END
>  <smiles>  (40) 
O=C(NCC(=O)N1CCCCC1)c1ccc2cc(C(F)(F)F)ccc2n1

>  <score_type>  (40) 
oracle

>  <origin>  (40) 
autodockgpu

>  <m_score__min__energy>  (40) 
-7.3200000000000003

>  <m_primary>  (40) 
energy

>  <rmsd>  (40) 
4.106274094416942

>  <m_score__min__rmsd>  (40) 
4.106274094416942

>  <meeko>  (40) 
{"free_energy": -7.28, "intermolecular_energy": -8.48, "internal_energy": -0.8, "cluster_size": 28, "cluster_id": 1, "rank_in_cluster": 2}

>  <energy>  (40) 
-7.04

>  <cluster_rmsd>  (40) 
0.3

>  <cluster>  (40) 
2

$$$$

     RDKit          3D

 44 46  0  0  0  0  0  0  0  0999 V2000
  135.4610   68.6540  224.8080 O   0  0  0  0  0  0  0  0  0  0  0  0
  135.8190   69.8550  224.9360 C   0  0  0  0  0  0  0  0  0  0  0  0
  137.1330   70.2260  224.5450 N   0  0  0  0  0  0  0  0  0  0  0  0
  137.9980   69.2060  224.0190 C   0  0  0  0  0  0  0  0  0  0  0  0
  138.8920   68.6250  225.0590 C   0  0  0  0  0  0  0  0  0  0  0  0
  138.9120   67.3950  225.3310 O   0  0  0  0  0  0  0  0  0  0  0  0
  139.7450   69.5250  225.7540 N   0  0  0  0  0  0  0  0  0  0  0  0
  139.7680   70.9570  225.4860 C   0  0  0  0  0  0  0  0  0  0  0  0
  141.0800   71.5070  225.9960 C   0  0  0  0  0  0  0  0  0  0  0  0
  141.0740   71.3780  227.5020 C   0  0  0  0  0  0  0  0  0  0  0  0
  140.6100   70.0380  227.9720 C   0  0  0  0  0  0  0  0  0  0  0  0
  140.6620   69.0600  226.7950 C   0  0  0  0  0  0  0  0  0  0  0  0
  134.9050   70.8590  225.4770 C   0  0  0  0  0  0  0  0  0  0  0  0
  133.8400   70.4340  226.2640 C   0  0  0  0  0  0  0  0  0  0  0  0
  132.9790   71.3620  226.7750 C   0  0  0  0  0  0  0  0  0  0  0  0
  133.1730   72.7010  226.5090 C   0  0  0  0  0  0  0  0  0  0  0  0
  132.3180   73.6450  227.0140 C   0  0  0  0  0  0  0  0  0  0  0  0
  132.4910   74.9990  226.7600 C   0  0  0  0  0  0  0  0  0  0  0  0
  131.5630   76.0330  227.3080 C   0  0  0  0  0  0  0  0  0  0  0  0
  131.6680   76.1740  228.6590 F   0  0  0  0  0  0  0  0  0  0  0  0
  130.2870   75.7250  226.8770 F   0  0  0  0  0  0  0  0  0  0  0  0
  131.8990   77.2570  226.7430 F   0  0  0  0  0  0  0  0  0  0  0  0
  133.5650   75.3780  225.9710 C   0  0  0  0  0  0  0  0  0  0  0  0
  134.4550   74.4640  225.4380 C   0  0  0  0  0  0  0  0  0  0  0  0
  134.2390   73.1320  225.7200 C   0  0  0  0  0  0  0  0  0  0  0  0
  135.0560   72.1750  225.2420 N   0  0  0  0  0  0  0  0  0  0  0  0
  137.4360   71.2380  224.6530 H   0  0  0  0  0  0  0  0  0  0  0  0
  137.3784   68.4012  223.5966 H   0  0  0  0  0  0  0  0  0  0  0  0
  138.6350   69.6705  223.2519 H   0  0  0  0  0  0  0  0  0  0  0  0
  139.6839   71.1356  224.4038 H   0  0  0  0  0  0  0  0  0  0  0  0
  138.9247   71.4532  225.9885 H   0  0  0  0  0  0  0  0  0  0  0  0
  141.9174   70.9324  225.5735 H   0  0  0  0  0  0  0  0  0  0  0  0
  141.2000   72.5592  225.6985 H   0  0  0  0  0  0  0  0  0  0  0  0
  142.0965   71.5443  227.8720 H   0  0  0  0  0  0  0  0  0  0  0  0
  140.3686   72.1259  227.8932 H   0  0  0  0  0  0  0  0  0  0  0  0
  141.2666   69.6811  228.7792 H   0  0  0  0  0  0  0  0  0  0  0  0
  139.5810   70.1104  228.3540 H   0  0  0  0  0  0  0  0  0  0  0  0
  141.6855   69.0181  226.3942 H   0  0  0  0  0  0  0  0  0  0  0  0
  140.3668   68.0551  227.1311 H   0  0  0  0  0  0  0  0  0  0  0  0
  133.6933   69.3639  226.4721 H   0  0  0  0  0  0  0  0  0  0  0  0
  132.1312   71.0418  227.3984 H   0  0  0  0  0  0  0  0  0  0  0  0
  131.4716   73.3214  227.6376 H   0  0  0  0  0  0  0  0  0  0  0  0
  133.7154   76.4472  225.7605 H   0  0  0  0  0  0  0  0  0  0  0  0
  135.3015   74.7867  224.8140 H   0  0  0  0  0  0  0  0  0  0  0  0
  1  2  2  0
  2  3  1  0
  3  4  1  0
  4  5  1  0
  5  6  2  0
  5  7  1  0
  7  8  1  0
  8  9  1  0
  9 10  1  0
 10 11  1  0
 11 12  1  0
  2 13  1  0
 13 14  2  0
 14 15  1  0
 15 16  2  0
 16 17  1  0
 17 18  2  0
 18 19  1  0
 19 20  1  0
 19 21  1  0
 19 22  1  0
 18 23  1  0
 23 24  2  0
 24 25  1  0
 25 26  2  0
 12  7  1  0
 26 13  1  0
 25 16  1  0
  3 27  1  0
  4 28  1  0
  4 29  1  0
  8 30  1  0
  8 31  1  0
  9 32  1  0
  9 33  1  0
 10 34  1  0
 10 35  1  0
 11 36  1  0
 11 37  1  0
 12 38  1  0
 12 39  1  0
 14 40  1  0
 15 41  1  0
 17 42  1  0
 23 43  1  0
 24 44  1  0
M  END
>  <smiles>  (41) 
O=C(NCC(=O)N1CCCCC1)c1ccc2cc(C(F)(F)F)ccc2n1

>  <score_type>  (41) 
oracle

>  <origin>  (41) 
autodockgpu

>  <m_score__min__energy>  (41) 
-7.3200000000000003

>  <m_primary>  (41) 
energy

>  <rmsd>  (41) 
8.192740523559316

>  <m_score__min__rmsd>  (41) 
8.192740523559316

>  <meeko>  (41) 
{"free_energy": -7.19, "intermolecular_energy": -8.38, "internal_energy": -1.0, "cluster_size": 19, "cluster_id": 2, "rank_in_cluster": 5}

>  <energy>  (41) 
-7.03

>  <cluster_rmsd>  (41) 
0.26

>  <cluster>  (41) 
2

$$$$

     RDKit          3D

 44 46  0  0  0  0  0  0  0  0999 V2000
  135.7300   68.8960  224.6690 O   0  0  0  0  0  0  0  0  0  0  0  0
  136.0010   70.1230  224.7520 C   0  0  0  0  0  0  0  0  0  0  0  0
  137.2490   70.5860  224.2580 N   0  0  0  0  0  0  0  0  0  0  0  0
  138.1500   69.6250  223.6830 C   0  0  0  0  0  0  0  0  0  0  0  0
  138.9340   68.8910  224.7160 C   0  0  0  0  0  0  0  0  0  0  0  0
  138.8850   67.6400  224.8450 O   0  0  0  0  0  0  0  0  0  0  0  0
  139.7620   69.6680  225.5720 N   0  0  0  0  0  0  0  0  0  0  0  0
  139.8620   71.1170  225.4720 C   0  0  0  0  0  0  0  0  0  0  0  0
  141.1470   71.5450  226.1390 C   0  0  0  0  0  0  0  0  0  0  0  0
  141.0150   71.2500  227.6160 C   0  0  0  0  0  0  0  0  0  0  0  0
  140.4630   69.8890  227.8930 C   0  0  0  0  0  0  0  0  0  0  0  0
  140.5730   69.0470  226.6190 C   0  0  0  0  0  0  0  0  0  0  0  0
  135.0540   71.0650  225.3450 C   0  0  0  0  0  0  0  0  0  0  0  0
  134.0710   70.5720  226.1970 C   0  0  0  0  0  0  0  0  0  0  0  0
  133.1800   71.4420  226.7580 C   0  0  0  0  0  0  0  0  0  0  0  0
  133.2630   72.7880  226.4760 C   0  0  0  0  0  0  0  0  0  0  0  0
  132.3760   73.6750  227.0310 C   0  0  0  0  0  0  0  0  0  0  0  0
  132.4380   75.0360  226.7630 C   0  0  0  0  0  0  0  0  0  0  0  0
  131.4750   76.0060  227.3630 C   0  0  0  0  0  0  0  0  0  0  0  0
  131.5830   76.0860  228.7200 F   0  0  0  0  0  0  0  0  0  0  0  0
  130.2080   75.6710  226.9240 F   0  0  0  0  0  0  0  0  0  0  0  0
  131.7600   77.2670  226.8560 F   0  0  0  0  0  0  0  0  0  0  0  0
  133.4330   75.4830  225.9080 C   0  0  0  0  0  0  0  0  0  0  0  0
  134.3510   74.6290  225.3240 C   0  0  0  0  0  0  0  0  0  0  0  0
  134.2460   73.2870  225.6230 C   0  0  0  0  0  0  0  0  0  0  0  0
  135.0970   72.3860  225.0980 N   0  0  0  0  0  0  0  0  0  0  0  0
  137.4790   71.6210  224.3270 H   0  0  0  0  0  0  0  0  0  0  0  0
  137.5656   68.8976  223.1004 H   0  0  0  0  0  0  0  0  0  0  0  0
  138.8623   70.1719  223.0478 H   0  0  0  0  0  0  0  0  0  0  0  0
  139.8727   71.4180  224.4140 H   0  0  0  0  0  0  0  0  0  0  0  0
  139.0005   71.5935  225.9628 H   0  0  0  0  0  0  0  0  0  0  0  0
  141.9935   70.9826  225.7183 H   0  0  0  0  0  0  0  0  0  0  0  0
  141.3299   72.6170  225.9738 H   0  0  0  0  0  0  0  0  0  0  0  0
  142.0101   71.3255  228.0787 H   0  0  0  0  0  0  0  0  0  0  0  0
  140.3100   71.9826  228.0359 H   0  0  0  0  0  0  0  0  0  0  0  0
  141.0377   69.4139  228.7017 H   0  0  0  0  0  0  0  0  0  0  0  0
  139.4100   69.9669  228.2015 H   0  0  0  0  0  0  0  0  0  0  0  0
  141.6233   69.0019  226.2952 H   0  0  0  0  0  0  0  0  0  0  0  0
  140.2136   68.0258  226.8138 H   0  0  0  0  0  0  0  0  0  0  0  0
  134.0121   69.4956  226.4160 H   0  0  0  0  0  0  0  0  0  0  0  0
  132.3970   71.0684  227.4342 H   0  0  0  0  0  0  0  0  0  0  0  0
  131.5943   73.2978  227.7068 H   0  0  0  0  0  0  0  0  0  0  0  0
  133.4950   76.5584  225.6853 H   0  0  0  0  0  0  0  0  0  0  0  0
  135.1333   75.0052  224.6483 H   0  0  0  0  0  0  0  0  0  0  0  0
  1  2  2  0
  2  3  1  0
  3  4  1  0
  4  5  1  0
  5  6  2  0
  5  7  1  0
  7  8  1  0
  8  9  1  0
  9 10  1  0
 10 11  1  0
 11 12  1  0
  2 13  1  0
 13 14  2  0
 14 15  1  0
 15 16  2  0
 16 17  1  0
 17 18  2  0
 18 19  1  0
 19 20  1  0
 19 21  1  0
 19 22  1  0
 18 23  1  0
 23 24  2  0
 24 25  1  0
 25 26  2  0
 12  7  1  0
 26 13  1  0
 25 16  1  0
  3 27  1  0
  4 28  1  0
  4 29  1  0
  8 30  1  0
  8 31  1  0
  9 32  1  0
  9 33  1  0
 10 34  1  0
 10 35  1  0
 11 36  1  0
 11 37  1  0
 12 38  1  0
 12 39  1  0
 14 40  1  0
 15 41  1  0
 17 42  1  0
 23 43  1  0
 24 44  1  0
M  END
>  <smiles>  (42) 
O=C(NCC(=O)N1CCCCC1)c1ccc2cc(C(F)(F)F)ccc2n1

>  <score_type>  (42) 
oracle

>  <origin>  (42) 
autodockgpu

>  <m_score__min__energy>  (42) 
-7.3200000000000003

>  <m_primary>  (42) 
energy

>  <rmsd>  (42) 
8.10710261877007

>  <m_score__min__rmsd>  (42) 
8.10710261877007

>  <meeko>  (42) 
{"free_energy": -7.04, "intermolecular_energy": -8.23, "internal_energy": -1.06, "cluster_size": 19, "cluster_id": 2, "rank_in_cluster": 12}

>  <energy>  (42) 
-7.01

>  <cluster_rmsd>  (42) 
0.29

>  <cluster>  (42) 
2

$$$$

     RDKit          3D

 44 46  0  0  0  0  0  0  0  0999 V2000
  135.4680   68.6410  224.8500 O   0  0  0  0  0  0  0  0  0  0  0  0
  135.8230   69.8440  224.9710 C   0  0  0  0  0  0  0  0  0  0  0  0
  137.1330   70.2170  224.5690 N   0  0  0  0  0  0  0  0  0  0  0  0
  137.9970   69.1980  224.0400 C   0  0  0  0  0  0  0  0  0  0  0  0
  138.8970   68.6190  225.0760 C   0  0  0  0  0  0  0  0  0  0  0  0
  138.9210   67.3900  225.3480 O   0  0  0  0  0  0  0  0  0  0  0  0
  139.7520   69.5220  225.7670 N   0  0  0  0  0  0  0  0  0  0  0  0
  139.7700   70.9540  225.4980 C   0  0  0  0  0  0  0  0  0  0  0  0
  141.0830   71.5070  226.0010 C   0  0  0  0  0  0  0  0  0  0  0  0
  141.0840   71.3780  227.5070 C   0  0  0  0  0  0  0  0  0  0  0  0
  140.6260   70.0380  227.9800 C   0  0  0  0  0  0  0  0  0  0  0  0
  140.6740   69.0600  226.8030 C   0  0  0  0  0  0  0  0  0  0  0  0
  134.9110   70.8480  225.5160 C   0  0  0  0  0  0  0  0  0  0  0  0
  133.8560   70.4230  226.3160 C   0  0  0  0  0  0  0  0  0  0  0  0
  132.9950   71.3510  226.8300 C   0  0  0  0  0  0  0  0  0  0  0  0
  133.1820   72.6880  226.5540 C   0  0  0  0  0  0  0  0  0  0  0  0
  132.3280   73.6320  227.0640 C   0  0  0  0  0  0  0  0  0  0  0  0
  132.4930   74.9850  226.8010 C   0  0  0  0  0  0  0  0  0  0  0  0
  131.5670   76.0180  227.3520 C   0  0  0  0  0  0  0  0  0  0  0  0
  131.6810   76.1640  228.7020 F   0  0  0  0  0  0  0  0  0  0  0  0
  130.2880   75.7060  226.9310 F   0  0  0  0  0  0  0  0  0  0  0  0
  131.8950   77.2410  226.7800 F   0  0  0  0  0  0  0  0  0  0  0  0
  133.5580   75.3640  225.9980 C   0  0  0  0  0  0  0  0  0  0  0  0
  134.4470   74.4500  225.4620 C   0  0  0  0  0  0  0  0  0  0  0  0
  134.2380   73.1190  225.7540 C   0  0  0  0  0  0  0  0  0  0  0  0
  135.0540   72.1630  225.2720 N   0  0  0  0  0  0  0  0  0  0  0  0
  137.4340   71.2300  224.6710 H   0  0  0  0  0  0  0  0  0  0  0  0
  137.3766   68.3919  223.6213 H   0  0  0  0  0  0  0  0  0  0  0  0
  138.6297   69.6630  223.2697 H   0  0  0  0  0  0  0  0  0  0  0  0
  139.6800   71.1318  224.4162 H   0  0  0  0  0  0  0  0  0  0  0  0
  138.9280   71.4486  226.0043 H   0  0  0  0  0  0  0  0  0  0  0  0
  141.9197   70.9342  225.5746 H   0  0  0  0  0  0  0  0  0  0  0  0
  141.1996   72.5593  225.7025 H   0  0  0  0  0  0  0  0  0  0  0  0
  142.1077   71.5472  227.8722 H   0  0  0  0  0  0  0  0  0  0  0  0
  140.3779   72.1239  227.9007 H   0  0  0  0  0  0  0  0  0  0  0  0
  141.2878   69.6829  228.7837 H   0  0  0  0  0  0  0  0  0  0  0  0
  139.5990   70.1080  228.3679 H   0  0  0  0  0  0  0  0  0  0  0  0
  141.6956   69.0201  226.3972 H   0  0  0  0  0  0  0  0  0  0  0  0
  140.3821   68.0547  227.1410 H   0  0  0  0  0  0  0  0  0  0  0  0
  133.7165   69.3535  226.5322 H   0  0  0  0  0  0  0  0  0  0  0  0
  132.1541   71.0314  227.4630 H   0  0  0  0  0  0  0  0  0  0  0  0
  131.4897   73.3084  227.6985 H   0  0  0  0  0  0  0  0  0  0  0  0
  133.7013   76.4324  225.7789 H   0  0  0  0  0  0  0  0  0  0  0  0
  135.2866   74.7720  224.8285 H   0  0  0  0  0  0  0  0  0  0  0  0
  1  2  2  0
  2  3  1  0
  3  4  1  0
  4  5  1  0
  5  6  2  0
  5  7  1  0
  7  8  1  0
  8  9  1  0
  9 10  1  0
 10 11  1  0
 11 12  1  0
  2 13  1  0
 13 14  2  0
 14 15  1  0
 15 16  2  0
 16 17  1  0
 17 18  2  0
 18 19  1  0
 19 20  1  0
 19 21  1  0
 19 22  1  0
 18 23  1  0
 23 24  2  0
 24 25  1  0
 25 26  2  0
 12  7  1  0
 26 13  1  0
 25 16  1  0
  3 27  1  0
  4 28  1  0
  4 29  1  0
  8 30  1  0
  8 31  1  0
  9 32  1  0
  9 33  1  0
 10 34  1  0
 10 35  1  0
 11 36  1  0
 11 37  1  0
 12 38  1  0
 12 39  1  0
 14 40  1  0
 15 41  1  0
 17 42  1  0
 23 43  1  0
 24 44  1  0
M  END
>  <smiles>  (43) 
O=C(NCC(=O)N1CCCCC1)c1ccc2cc(C(F)(F)F)ccc2n1

>  <score_type>  (43) 
oracle

>  <origin>  (43) 
autodockgpu

>  <m_score__min__energy>  (43) 
-7.3200000000000003

>  <m_primary>  (43) 
energy

>  <rmsd>  (43) 
8.197305480914945

>  <m_score__min__rmsd>  (43) 
8.197305480914945

>  <meeko>  (43) 
{"free_energy": -7.19, "intermolecular_energy": -8.38, "internal_energy": -1.0, "cluster_size": 19, "cluster_id": 2, "rank_in_cluster": 3}

>  <energy>  (43) 
-7.01

>  <cluster_rmsd>  (43) 
0.29

>  <cluster>  (43) 
2

$$$$

     RDKit          3D

 44 46  0  0  0  0  0  0  0  0999 V2000
  139.9400   73.5160  220.5680 O   0  0  0  0  0  0  0  0  0  0  0  0
  139.6480   73.6470  221.7860 C   0  0  0  0  0  0  0  0  0  0  0  0
  139.3590   74.9440  222.2870 N   0  0  0  0  0  0  0  0  0  0  0  0
  139.4130   76.0530  221.3740 C   0  0  0  0  0  0  0  0  0  0  0  0
  138.8630   77.3050  221.9650 C   0  0  0  0  0  0  0  0  0  0  0  0
  137.6400   77.5990  221.9200 O   0  0  0  0  0  0  0  0  0  0  0  0
  139.7870   78.1800  222.5990 N   0  0  0  0  0  0  0  0  0  0  0  0
  141.2130   77.8970  222.6830 C   0  0  0  0  0  0  0  0  0  0  0  0
  141.7880   78.7220  223.8100 C   0  0  0  0  0  0  0  0  0  0  0  0
  141.6890   80.1750  223.4080 C   0  0  0  0  0  0  0  0  0  0  0  0
  140.3530   80.5360  222.8440 C   0  0  0  0  0  0  0  0  0  0  0  0
  139.3530   79.4360  223.2110 C   0  0  0  0  0  0  0  0  0  0  0  0
  139.6050   72.4910  222.6790 C   0  0  0  0  0  0  0  0  0  0  0  0
  138.7890   71.4180  222.3380 C   0  0  0  0  0  0  0  0  0  0  0  0
  138.7390   70.3310  223.1650 C   0  0  0  0  0  0  0  0  0  0  0  0
  139.4930   70.3100  224.3180 C   0  0  0  0  0  0  0  0  0  0  0  0
  139.4550   69.2270  225.1580 C   0  0  0  0  0  0  0  0  0  0  0  0
  140.2050   69.1810  226.3260 C   0  0  0  0  0  0  0  0  0  0  0  0
  140.1670   68.0050  227.2450 C   0  0  0  0  0  0  0  0  0  0  0  0
  139.7700   68.3340  228.5070 F   0  0  0  0  0  0  0  0  0  0  0  0
  141.4010   67.3870  227.1920 F   0  0  0  0  0  0  0  0  0  0  0  0
  139.2370   67.0990  226.7490 F   0  0  0  0  0  0  0  0  0  0  0  0
  141.0040   70.2720  226.6270 C   0  0  0  0  0  0  0  0  0  0  0  0
  141.0770   71.3870  225.8120 C   0  0  0  0  0  0  0  0  0  0  0  0
  140.3130   71.3830  224.6640 C   0  0  0  0  0  0  0  0  0  0  0  0
  140.3230   72.4270  223.8150 N   0  0  0  0  0  0  0  0  0  0  0  0
  139.1130   75.0570  223.3140 H   0  0  0  0  0  0  0  0  0  0  0  0
  140.4619   76.2271  221.0919 H   0  0  0  0  0  0  0  0  0  0  0  0
  138.7965   75.7969  220.4997 H   0  0  0  0  0  0  0  0  0  0  0  0
  141.3698   76.8273  222.8860 H   0  0  0  0  0  0  0  0  0  0  0  0
  141.7087   78.1491  221.7340 H   0  0  0  0  0  0  0  0  0  0  0  0
  141.2149   78.5480  224.7326 H   0  0  0  0  0  0  0  0  0  0  0  0
  142.8354   78.4433  223.9978 H   0  0  0  0  0  0  0  0  0  0  0  0
  141.8743   80.7975  224.2957 H   0  0  0  0  0  0  0  0  0  0  0  0
  142.4364   80.3497  222.6201 H   0  0  0  0  0  0  0  0  0  0  0  0
  140.0197   81.4955  223.2663 H   0  0  0  0  0  0  0  0  0  0  0  0
  140.4208   80.6318  221.7503 H   0  0  0  0  0  0  0  0  0  0  0  0
  139.3152   79.3207  224.3043 H   0  0  0  0  0  0  0  0  0  0  0  0
  138.3515   79.7040  222.8435 H   0  0  0  0  0  0  0  0  0  0  0  0
  138.1916   71.4437  221.4147 H   0  0  0  0  0  0  0  0  0  0  0  0
  138.0978   69.4742  222.9105 H   0  0  0  0  0  0  0  0  0  0  0  0
  138.8133   68.3717  224.8999 H   0  0  0  0  0  0  0  0  0  0  0  0
  141.6031   70.2506  227.5493 H   0  0  0  0  0  0  0  0  0  0  0  0
  141.7187   72.2426  226.0692 H   0  0  0  0  0  0  0  0  0  0  0  0
  1  2  2  0
  2  3  1  0
  3  4  1  0
  4  5  1  0
  5  6  2  0
  5  7  1  0
  7  8  1  0
  8  9  1  0
  9 10  1  0
 10 11  1  0
 11 12  1  0
  2 13  1  0
 13 14  2  0
 14 15  1  0
 15 16  2  0
 16 17  1  0
 17 18  2  0
 18 19  1  0
 19 20  1  0
 19 21  1  0
 19 22  1  0
 18 23  1  0
 23 24  2  0
 24 25  1  0
 25 26  2  0
 12  7  1  0
 26 13  1  0
 25 16  1  0
  3 27  1  0
  4 28  1  0
  4 29  1  0
  8 30  1  0
  8 31  1  0
  9 32  1  0
  9 33  1  0
 10 34  1  0
 10 35  1  0
 11 36  1  0
 11 37  1  0
 12 38  1  0
 12 39  1  0
 14 40  1  0
 15 41  1  0
 17 42  1  0
 23 43  1  0
 24 44  1  0
M  END
>  <smiles>  (44) 
O=C(NCC(=O)N1CCCCC1)c1ccc2cc(C(F)(F)F)ccc2n1

>  <score_type>  (44) 
oracle

>  <origin>  (44) 
autodockgpu

>  <m_score__min__energy>  (44) 
-7.3200000000000003

>  <m_primary>  (44) 
energy

>  <rmsd>  (44) 
4.091526458319525

>  <m_score__min__rmsd>  (44) 
4.091526458319525

>  <meeko>  (44) 
{"free_energy": -7.21, "intermolecular_energy": -8.41, "internal_energy": -0.81, "cluster_size": 28, "cluster_id": 1, "rank_in_cluster": 13}

>  <energy>  (44) 
-6.95

>  <cluster_rmsd>  (44) 
0.32

>  <cluster>  (44) 
2

$$$$

     RDKit          3D

 44 46  0  0  0  0  0  0  0  0999 V2000
  135.8090   68.8710  224.6130 O   0  0  0  0  0  0  0  0  0  0  0  0
  136.0490   70.1070  224.6350 C   0  0  0  0  0  0  0  0  0  0  0  0
  137.2810   70.5770  224.1060 N   0  0  0  0  0  0  0  0  0  0  0  0
  138.2000   69.6130  223.5680 C   0  0  0  0  0  0  0  0  0  0  0  0
  138.9320   68.8680  224.6320 C   0  0  0  0  0  0  0  0  0  0  0  0
  138.8800   67.6160  224.7440 O   0  0  0  0  0  0  0  0  0  0  0  0
  139.7120   69.6380  225.5380 N   0  0  0  0  0  0  0  0  0  0  0  0
  139.8120   71.0880  225.4600 C   0  0  0  0  0  0  0  0  0  0  0  0
  141.0600   71.5110  226.1980 C   0  0  0  0  0  0  0  0  0  0  0  0
  140.8520   71.1990  227.6620 C   0  0  0  0  0  0  0  0  0  0  0  0
  140.2910   69.8340  227.8950 C   0  0  0  0  0  0  0  0  0  0  0  0
  140.4690   69.0070  226.6190 C   0  0  0  0  0  0  0  0  0  0  0  0
  135.0840   71.0530  225.1920 C   0  0  0  0  0  0  0  0  0  0  0  0
  134.0160   70.5550  225.9320 C   0  0  0  0  0  0  0  0  0  0  0  0
  133.1070   71.4280  226.4580 C   0  0  0  0  0  0  0  0  0  0  0  0
  133.2570   72.7830  226.2530 C   0  0  0  0  0  0  0  0  0  0  0  0
  132.3530   73.6720  226.7750 C   0  0  0  0  0  0  0  0  0  0  0  0
  132.4810   75.0410  226.5830 C   0  0  0  0  0  0  0  0  0  0  0  0
  131.5000   76.0150  227.1480 C   0  0  0  0  0  0  0  0  0  0  0  0
  130.2100   75.7060  226.8350 F   0  0  0  0  0  0  0  0  0  0  0  0
  131.8830   77.2810  226.7490 F   0  0  0  0  0  0  0  0  0  0  0  0
  131.6040   75.9770  228.5330 F   0  0  0  0  0  0  0  0  0  0  0  0
  133.5590   75.4940  225.8390 C   0  0  0  0  0  0  0  0  0  0  0  0
  134.4980   74.6370  225.2930 C   0  0  0  0  0  0  0  0  0  0  0  0
  134.3250   73.2860  225.5130 C   0  0  0  0  0  0  0  0  0  0  0  0
  135.1900   72.3820  225.0170 N   0  0  0  0  0  0  0  0  0  0  0  0
  137.4850   71.6190  224.1240 H   0  0  0  0  0  0  0  0  0  0  0  0
  137.6376   68.8926  222.9558 H   0  0  0  0  0  0  0  0  0  0  0  0
  138.9441   70.1580  222.9686 H   0  0  0  0  0  0  0  0  0  0  0  0
  139.8765   71.4015  224.4076 H   0  0  0  0  0  0  0  0  0  0  0  0
  138.9247   71.5566  225.9106 H   0  0  0  0  0  0  0  0  0  0  0  0
  141.9287   70.9550  225.8156 H   0  0  0  0  0  0  0  0  0  0  0  0
  141.2487   72.5852  226.0546 H   0  0  0  0  0  0  0  0  0  0  0  0
  141.8213   71.2720  228.1769 H   0  0  0  0  0  0  0  0  0  0  0  0
  140.1234   71.9248  228.0524 H   0  0  0  0  0  0  0  0  0  0  0  0
  140.8249   69.3512  228.7268 H   0  0  0  0  0  0  0  0  0  0  0  0
  139.2233   69.9056  228.1499 H   0  0  0  0  0  0  0  0  0  0  0  0
  141.5348   68.9677  226.3498 H   0  0  0  0  0  0  0  0  0  0  0  0
  140.1023   67.9831  226.7834 H   0  0  0  0  0  0  0  0  0  0  0  0
  133.9053   69.4722  226.0913 H   0  0  0  0  0  0  0  0  0  0  0  0
  132.2563   71.0505  227.0444 H   0  0  0  0  0  0  0  0  0  0  0  0
  131.5040   73.2905  227.3613 H   0  0  0  0  0  0  0  0  0  0  0  0
  133.6724   76.5760  225.6764 H   0  0  0  0  0  0  0  0  0  0  0  0
  135.3479   75.0173  224.7073 H   0  0  0  0  0  0  0  0  0  0  0  0
  1  2  2  0
  2  3  1  0
  3  4  1  0
  4  5  1  0
  5  6  2  0
  5  7  1  0
  7  8  1  0
  8  9  1  0
  9 10  1  0
 10 11  1  0
 11 12  1  0
  2 13  1  0
 13 14  2  0
 14 15  1  0
 15 16  2  0
 16 17  1  0
 17 18  2  0
 18 19  1  0
 19 20  1  0
 19 21  1  0
 19 22  1  0
 18 23  1  0
 23 24  2  0
 24 25  1  0
 25 26  2  0
 12  7  1  0
 26 13  1  0
 25 16  1  0
  3 27  1  0
  4 28  1  0
  4 29  1  0
  8 30  1  0
  8 31  1  0
  9 32  1  0
  9 33  1  0
 10 34  1  0
 10 35  1  0
 11 36  1  0
 11 37  1  0
 12 38  1  0
 12 39  1  0
 14 40  1  0
 15 41  1  0
 17 42  1  0
 23 43  1  0
 24 44  1  0
M  END
>  <smiles>  (45) 
O=C(NCC(=O)N1CCCCC1)c1ccc2cc(C(F)(F)F)ccc2n1

>  <score_type>  (45) 
oracle

>  <origin>  (45) 
autodockgpu

>  <m_score__min__energy>  (45) 
-7.3200000000000003

>  <m_primary>  (45) 
energy

>  <rmsd>  (45) 
8.08957463656548

>  <m_score__min__rmsd>  (45) 
8.08957463656548

>  <meeko>  (45) 
{"free_energy": -6.89, "intermolecular_energy": -8.08, "internal_energy": -1.1, "cluster_size": 19, "cluster_id": 2, "rank_in_cluster": 17}

>  <energy>  (45) 
-6.89

>  <cluster_rmsd>  (45) 
0.37

>  <cluster>  (45) 
2

$$$$

     RDKit          3D

 44 46  0  0  0  0  0  0  0  0999 V2000
  135.8680   69.5990  224.0360 O   0  0  0  0  0  0  0  0  0  0  0  0
  136.3750   70.7410  224.1900 C   0  0  0  0  0  0  0  0  0  0  0  0
  137.7670   70.9110  223.9630 N   0  0  0  0  0  0  0  0  0  0  0  0
  138.5350   69.7630  223.5660 C   0  0  0  0  0  0  0  0  0  0  0  0
  139.0650   69.0010  224.7310 C   0  0  0  0  0  0  0  0  0  0  0  0
  138.8500   67.7720  224.8960 O   0  0  0  0  0  0  0  0  0  0  0  0
  139.8420   69.7250  225.6770 N   0  0  0  0  0  0  0  0  0  0  0  0
  140.1260   71.1470  225.5420 C   0  0  0  0  0  0  0  0  0  0  0  0
  141.3400   71.4630  226.3840 C   0  0  0  0  0  0  0  0  0  0  0  0
  140.9550   71.2630  227.8320 C   0  0  0  0  0  0  0  0  0  0  0  0
  140.2120   69.9890  228.0690 C   0  0  0  0  0  0  0  0  0  0  0  0
  140.4090   69.0740  226.8570 C   0  0  0  0  0  0  0  0  0  0  0  0
  135.5560   71.8820  224.5950 C   0  0  0  0  0  0  0  0  0  0  0  0
  135.7030   73.0830  223.9100 C   0  0  0  0  0  0  0  0  0  0  0  0
  134.9440   74.1570  224.2790 C   0  0  0  0  0  0  0  0  0  0  0  0
  134.0460   74.0390  225.3180 C   0  0  0  0  0  0  0  0  0  0  0  0
  133.2760   75.1070  225.7010 C   0  0  0  0  0  0  0  0  0  0  0  0
  132.3650   75.0140  226.7450 C   0  0  0  0  0  0  0  0  0  0  0  0
  131.5240   76.1730  227.1670 C   0  0  0  0  0  0  0  0  0  0  0  0
  130.2690   76.1360  226.6370 F   0  0  0  0  0  0  0  0  0  0  0  0
  132.2190   77.3300  226.8700 F   0  0  0  0  0  0  0  0  0  0  0  0
  131.3850   76.1260  228.5480 F   0  0  0  0  0  0  0  0  0  0  0  0
  132.2510   73.7990  227.4000 C   0  0  0  0  0  0  0  0  0  0  0  0
  133.0050   72.6930  227.0520 C   0  0  0  0  0  0  0  0  0  0  0  0
  133.8950   72.8370  226.0080 C   0  0  0  0  0  0  0  0  0  0  0  0
  134.6680   71.8120  225.6030 N   0  0  0  0  0  0  0  0  0  0  0  0
  138.1970   71.8740  224.0920 H   0  0  0  0  0  0  0  0  0  0  0  0
  137.8923   69.0969  222.9716 H   0  0  0  0  0  0  0  0  0  0  0  0
  139.3952   70.1219  222.9819 H   0  0  0  0  0  0  0  0  0  0  0  0
  140.3294   71.3886  224.4883 H   0  0  0  0  0  0  0  0  0  0  0  0
  139.2636   71.7422  225.8766 H   0  0  0  0  0  0  0  0  0  0  0  0
  142.1668   70.7877  226.1188 H   0  0  0  0  0  0  0  0  0  0  0  0
  141.6719   72.4974  226.2113 H   0  0  0  0  0  0  0  0  0  0  0  0
  141.8717   71.2522  228.4399 H   0  0  0  0  0  0  0  0  0  0  0  0
  140.2860   72.0903  228.1113 H   0  0  0  0  0  0  0  0  0  0  0  0
  140.6009   69.4961  228.9722 H   0  0  0  0  0  0  0  0  0  0  0  0
  139.1416   70.1996  228.2100 H   0  0  0  0  0  0  0  0  0  0  0  0
  141.4829   68.8947  226.7000 H   0  0  0  0  0  0  0  0  0  0  0  0
  139.9059   68.1113  227.0303 H   0  0  0  0  0  0  0  0  0  0  0  0
  136.4215   73.1672  223.0813 H   0  0  0  0  0  0  0  0  0  0  0  0
  135.0492   75.1145  223.7479 H   0  0  0  0  0  0  0  0  0  0  0  0
  133.3827   76.0628  225.1671 H   0  0  0  0  0  0  0  0  0  0  0  0
  131.5332   73.7103  228.2288 H   0  0  0  0  0  0  0  0  0  0  0  0
  132.8992   71.7372  227.5861 H   0  0  0  0  0  0  0  0  0  0  0  0
  1  2  2  0
  2  3  1  0
  3  4  1  0
  4  5  1  0
  5  6  2  0
  5  7  1  0
  7  8  1  0
  8  9  1  0
  9 10  1  0
 10 11  1  0
 11 12  1  0
  2 13  1  0
 13 14  2  0
 14 15  1  0
 15 16  2  0
 16 17  1  0
 17 18  2  0
 18 19  1  0
 19 20  1  0
 19 21  1  0
 19 22  1  0
 18 23  1  0
 23 24  2  0
 24 25  1  0
 25 26  2  0
 12  7  1  0
 26 13  1  0
 25 16  1  0
  3 27  1  0
  4 28  1  0
  4 29  1  0
  8 30  1  0
  8 31  1  0
  9 32  1  0
  9 33  1  0
 10 34  1  0
 10 35  1  0
 11 36  1  0
 11 37  1  0
 12 38  1  0
 12 39  1  0
 14 40  1  0
 15 41  1  0
 17 42  1  0
 23 43  1  0
 24 44  1  0
M  END
>  <smiles>  (46) 
O=C(NCC(=O)N1CCCCC1)c1ccc2cc(C(F)(F)F)ccc2n1

>  <score_type>  (46) 
oracle

>  <origin>  (46) 
autodockgpu

>  <m_score__min__energy>  (46) 
-7.3200000000000003

>  <m_primary>  (46) 
energy

>  <rmsd>  (46) 
8.214466399669638

>  <m_score__min__rmsd>  (46) 
8.214466399669638

>  <meeko>  (46) 
{"free_energy": -6.84, "intermolecular_energy": -8.04, "internal_energy": -0.79, "cluster_size": 19, "cluster_id": 2, "rank_in_cluster": 19}

>  <energy>  (46) 
-6.88

>  <cluster_rmsd>  (46) 
0.47

>  <cluster>  (46) 
2

$$$$

     RDKit          3D

 44 46  0  0  0  0  0  0  0  0999 V2000
  135.7650   68.9580  224.4470 O   0  0  0  0  0  0  0  0  0  0  0  0
  136.0480   70.1790  224.5690 C   0  0  0  0  0  0  0  0  0  0  0  0
  137.3410   70.6260  224.1870 N   0  0  0  0  0  0  0  0  0  0  0  0
  138.2700   69.6560  223.6750 C   0  0  0  0  0  0  0  0  0  0  0  0
  138.9860   68.9260  224.7590 C   0  0  0  0  0  0  0  0  0  0  0  0
  138.9020   67.6790  224.9110 O   0  0  0  0  0  0  0  0  0  0  0  0
  139.7890   69.7020  225.6400 N   0  0  0  0  0  0  0  0  0  0  0  0
  139.9270   71.1470  225.5160 C   0  0  0  0  0  0  0  0  0  0  0  0
  141.1880   71.5590  226.2380 C   0  0  0  0  0  0  0  0  0  0  0  0
  140.9770   71.2980  227.7110 C   0  0  0  0  0  0  0  0  0  0  0  0
  140.3810   69.9560  227.9880 C   0  0  0  0  0  0  0  0  0  0  0  0
  140.5330   69.0850  226.7370 C   0  0  0  0  0  0  0  0  0  0  0  0
  135.0710   71.1310  225.0950 C   0  0  0  0  0  0  0  0  0  0  0  0
  133.9520   70.6370  225.7560 C   0  0  0  0  0  0  0  0  0  0  0  0
  133.0310   71.5150  226.2520 C   0  0  0  0  0  0  0  0  0  0  0  0
  133.2190   72.8710  226.0940 C   0  0  0  0  0  0  0  0  0  0  0  0
  132.3050   73.7660  226.5860 C   0  0  0  0  0  0  0  0  0  0  0  0
  132.4720   75.1370  226.4400 C   0  0  0  0  0  0  0  0  0  0  0  0
  131.4790   76.1170  226.9730 C   0  0  0  0  0  0  0  0  0  0  0  0
  131.2850   77.1780  226.1400 F   0  0  0  0  0  0  0  0  0  0  0  0
  131.8790   76.4730  228.2470 F   0  0  0  0  0  0  0  0  0  0  0  0
  130.2570   75.4680  227.0970 F   0  0  0  0  0  0  0  0  0  0  0  0
  133.6010   75.5850  225.7740 C   0  0  0  0  0  0  0  0  0  0  0  0
  134.5520   74.7230  225.2600 C   0  0  0  0  0  0  0  0  0  0  0  0
  134.3400   73.3710  225.4320 C   0  0  0  0  0  0  0  0  0  0  0  0
  135.2140   72.4620  224.9640 N   0  0  0  0  0  0  0  0  0  0  0  0
  137.5820   71.6550  224.2900 H   0  0  0  0  0  0  0  0  0  0  0  0
  137.7181   68.9271  223.0634 H   0  0  0  0  0  0  0  0  0  0  0  0
  139.0225   70.1945  223.0802 H   0  0  0  0  0  0  0  0  0  0  0  0
  139.9968   71.4256  224.4542 H   0  0  0  0  0  0  0  0  0  0  0  0
  139.0536   71.6532  225.9530 H   0  0  0  0  0  0  0  0  0  0  0  0
  142.0404   70.9686  225.8708 H   0  0  0  0  0  0  0  0  0  0  0  0
  141.4043   72.6230  226.0613 H   0  0  0  0  0  0  0  0  0  0  0  0
  141.9497   71.3613  228.2208 H   0  0  0  0  0  0  0  0  0  0  0  0
  140.2690   72.0544  228.0805 H   0  0  0  0  0  0  0  0  0  0  0  0
  140.9049   69.4853  228.8330 H   0  0  0  0  0  0  0  0  0  0  0  0
  139.3165   70.0635  228.2435 H   0  0  0  0  0  0  0  0  0  0  0  0
  141.5964   69.0095  226.4660 H   0  0  0  0  0  0  0  0  0  0  0  0
  140.1406   68.0764  226.9339 H   0  0  0  0  0  0  0  0  0  0  0  0
  133.8103   69.5530  225.8779 H   0  0  0  0  0  0  0  0  0  0  0  0
  132.1401   71.1402  226.7771 H   0  0  0  0  0  0  0  0  0  0  0  0
  131.4151   73.3882  227.1107 H   0  0  0  0  0  0  0  0  0  0  0  0
  133.7465   76.6682  225.6493 H   0  0  0  0  0  0  0  0  0  0  0  0
  135.4419   75.1003  224.7350 H   0  0  0  0  0  0  0  0  0  0  0  0
  1  2  2  0
  2  3  1  0
  3  4  1  0
  4  5  1  0
  5  6  2  0
  5  7  1  0
  7  8  1  0
  8  9  1  0
  9 10  1  0
 10 11  1  0
 11 12  1  0
  2 13  1  0
 13 14  2  0
 14 15  1  0
 15 16  2  0
 16 17  1  0
 17 18  2  0
 18 19  1  0
 19 20  1  0
 19 21  1  0
 19 22  1  0
 18 23  1  0
 23 24  2  0
 24 25  1  0
 25 26  2  0
 12  7  1  0
 26 13  1  0
 25 16  1  0
  3 27  1  0
  4 28  1  0
  4 29  1  0
  8 30  1  0
  8 31  1  0
  9 32  1  0
  9 33  1  0
 10 34  1  0
 10 35  1  0
 11 36  1  0
 11 37  1  0
 12 38  1  0
 12 39  1  0
 14 40  1  0
 15 41  1  0
 17 42  1  0
 23 43  1  0
 24 44  1  0
M  END
>  <smiles>  (47) 
O=C(NCC(=O)N1CCCCC1)c1ccc2cc(C(F)(F)F)ccc2n1

>  <score_type>  (47) 
oracle

>  <origin>  (47) 
autodockgpu

>  <m_score__min__energy>  (47) 
-7.3200000000000003

>  <m_primary>  (47) 
energy

>  <rmsd>  (47) 
8.112183220373288

>  <m_score__min__rmsd>  (47) 
8.112183220373288

>  <meeko>  (47) 
{"free_energy": -6.88, "intermolecular_energy": -8.07, "internal_energy": -1.07, "cluster_size": 19, "cluster_id": 2, "rank_in_cluster": 18}

>  <energy>  (47) 
-6.84

>  <cluster_rmsd>  (47) 
0.83

>  <cluster>  (47) 
2

$$$$

     RDKit          3D

 44 46  0  0  0  0  0  0  0  0999 V2000
  140.5780   73.7780  220.8700 O   0  0  0  0  0  0  0  0  0  0  0  0
  139.8460   73.7700  221.8950 C   0  0  0  0  0  0  0  0  0  0  0  0
  139.1390   74.9510  222.2440 N   0  0  0  0  0  0  0  0  0  0  0  0
  139.2940   76.1080  221.4050 C   0  0  0  0  0  0  0  0  0  0  0  0
  138.7880   77.3510  222.0490 C   0  0  0  0  0  0  0  0  0  0  0  0
  137.5700   77.6690  222.0540 O   0  0  0  0  0  0  0  0  0  0  0  0
  139.7490   78.1910  222.6770 N   0  0  0  0  0  0  0  0  0  0  0  0
  141.1710   77.8790  222.7060 C   0  0  0  0  0  0  0  0  0  0  0  0
  141.7990   78.6600  223.8360 C   0  0  0  0  0  0  0  0  0  0  0  0
  141.7140   80.1260  223.4800 C   0  0  0  0  0  0  0  0  0  0  0  0
  140.3670   80.5280  222.9710 C   0  0  0  0  0  0  0  0  0  0  0  0
  139.3590   79.4350  223.3390 C   0  0  0  0  0  0  0  0  0  0  0  0
  139.7190   72.5700  222.7210 C   0  0  0  0  0  0  0  0  0  0  0  0
  138.7860   71.6060  222.3520 C   0  0  0  0  0  0  0  0  0  0  0  0
  138.6570   70.4810  223.1150 C   0  0  0  0  0  0  0  0  0  0  0  0
  139.4450   70.3130  224.2330 C   0  0  0  0  0  0  0  0  0  0  0  0
  139.3270   69.1900  225.0100 C   0  0  0  0  0  0  0  0  0  0  0  0
  140.1100   68.9970  226.1410 C   0  0  0  0  0  0  0  0  0  0  0  0
  139.9860   67.7760  226.9910 C   0  0  0  0  0  0  0  0  0  0  0  0
  139.7430   68.0660  228.3000 F   0  0  0  0  0  0  0  0  0  0  0  0
  141.1160   67.0060  226.7910 F   0  0  0  0  0  0  0  0  0  0  0  0
  138.9040   67.0370  226.5290 F   0  0  0  0  0  0  0  0  0  0  0  0
  141.0250   69.9840  226.4710 C   0  0  0  0  0  0  0  0  0  0  0  0
  141.1820   71.1350  225.7200 C   0  0  0  0  0  0  0  0  0  0  0  0
  140.3810   71.2770  224.6060 C   0  0  0  0  0  0  0  0  0  0  0  0
  140.4660   72.3660  223.8200 N   0  0  0  0  0  0  0  0  0  0  0  0
  138.5220   74.9470  223.1080 H   0  0  0  0  0  0  0  0  0  0  0  0
  140.3623   76.2383  221.1776 H   0  0  0  0  0  0  0  0  0  0  0  0
  138.7037   75.9404  220.4921 H   0  0  0  0  0  0  0  0  0  0  0  0
  141.3130   76.8011  222.8735 H   0  0  0  0  0  0  0  0  0  0  0  0
  141.6404   78.1492  221.7486 H   0  0  0  0  0  0  0  0  0  0  0  0
  141.2541   78.4691  224.7723 H   0  0  0  0  0  0  0  0  0  0  0  0
  142.8467   78.3572  223.9796 H   0  0  0  0  0  0  0  0  0  0  0  0
  141.9398   80.7184  224.3789 H   0  0  0  0  0  0  0  0  0  0  0  0
  142.4384   80.3104  222.6730 H   0  0  0  0  0  0  0  0  0  0  0  0
  140.0658   81.4803  223.4319 H   0  0  0  0  0  0  0  0  0  0  0  0
  140.4008   80.6556  221.8789 H   0  0  0  0  0  0  0  0  0  0  0  0
  139.3549   79.2879  224.4291 H   0  0  0  0  0  0  0  0  0  0  0  0
  138.3511   79.7314  223.0129 H   0  0  0  0  0  0  0  0  0  0  0  0
  138.1610   71.7482  221.4581 H   0  0  0  0  0  0  0  0  0  0  0  0
  137.9243   69.7090  222.8373 H   0  0  0  0  0  0  0  0  0  0  0  0
  138.5922   68.4207  224.7303 H   0  0  0  0  0  0  0  0  0  0  0  0
  141.6509   69.8468  227.3651 H   0  0  0  0  0  0  0  0  0  0  0  0
  141.9156   71.9055  225.9997 H   0  0  0  0  0  0  0  0  0  0  0  0
  1  2  2  0
  2  3  1  0
  3  4  1  0
  4  5  1  0
  5  6  2  0
  5  7  1  0
  7  8  1  0
  8  9  1  0
  9 10  1  0
 10 11  1  0
 11 12  1  0
  2 13  1  0
 13 14  2  0
 14 15  1  0
 15 16  2  0
 16 17  1  0
 17 18  2  0
 18 19  1  0
 19 20  1  0
 19 21  1  0
 19 22  1  0
 18 23  1  0
 23 24  2  0
 24 25  1  0
 25 26  2  0
 12  7  1  0
 26 13  1  0
 25 16  1  0
  3 27  1  0
  4 28  1  0
  4 29  1  0
  8 30  1  0
  8 31  1  0
  9 32  1  0
  9 33  1  0
 10 34  1  0
 10 35  1  0
 11 36  1  0
 11 37  1  0
 12 38  1  0
 12 39  1  0
 14 40  1  0
 15 41  1  0
 17 42  1  0
 23 43  1  0
 24 44  1  0
M  END
>  <smiles>  (48) 
O=C(NCC(=O)N1CCCCC1)c1ccc2cc(C(F)(F)F)ccc2n1

>  <score_type>  (48) 
oracle

>  <origin>  (48) 
autodockgpu

>  <m_score__min__energy>  (48) 
-7.3200000000000003

>  <m_primary>  (48) 
energy

>  <rmsd>  (48) 
4.168643814829809

>  <m_score__min__rmsd>  (48) 
4.168643814829809

>  <meeko>  (48) 
{"free_energy": -7.24, "intermolecular_energy": -8.43, "internal_energy": -0.78, "cluster_size": 28, "cluster_id": 1, "rank_in_cluster": 10}

>  <energy>  (48) 
-6.7

>  <cluster_rmsd>  (48) 
0.0

>  <cluster>  (48) 
3

$$$$

     RDKit          3D

 44 46  0  0  0  0  0  0  0  0999 V2000
  135.4330   68.6840  224.8440 O   0  0  0  0  0  0  0  0  0  0  0  0
  135.7970   69.8830  224.9720 C   0  0  0  0  0  0  0  0  0  0  0  0
  137.1130   70.2470  224.5790 N   0  0  0  0  0  0  0  0  0  0  0  0
  137.9700   69.2230  224.0490 C   0  0  0  0  0  0  0  0  0  0  0  0
  138.8670   68.6390  225.0850 C   0  0  0  0  0  0  0  0  0  0  0  0
  138.8840   67.4100  225.3570 O   0  0  0  0  0  0  0  0  0  0  0  0
  139.7280   69.5360  225.7750 N   0  0  0  0  0  0  0  0  0  0  0  0
  139.7560   70.9670  225.5050 C   0  0  0  0  0  0  0  0  0  0  0  0
  141.0720   71.5120  226.0080 C   0  0  0  0  0  0  0  0  0  0  0  0
  141.0740   71.3840  227.5140 C   0  0  0  0  0  0  0  0  0  0  0  0
  140.6060   70.0460  227.9880 C   0  0  0  0  0  0  0  0  0  0  0  0
  140.6480   69.0680  226.8110 C   0  0  0  0  0  0  0  0  0  0  0  0
  134.8910   70.8920  225.5170 C   0  0  0  0  0  0  0  0  0  0  0  0
  133.8260   70.4720  226.3060 C   0  0  0  0  0  0  0  0  0  0  0  0
  132.9710   71.4050  226.8210 C   0  0  0  0  0  0  0  0  0  0  0  0
  133.1720   72.7420  226.5550 C   0  0  0  0  0  0  0  0  0  0  0  0
  132.3240   73.6910  227.0650 C   0  0  0  0  0  0  0  0  0  0  0  0
  132.5040   75.0440  226.8120 C   0  0  0  0  0  0  0  0  0  0  0  0
  131.5830   76.0820  227.3630 C   0  0  0  0  0  0  0  0  0  0  0  0
  131.6630   76.1920  228.7200 F   0  0  0  0  0  0  0  0  0  0  0  0
  130.3110   75.8080  226.9000 F   0  0  0  0  0  0  0  0  0  0  0  0
  131.9520   77.3120  226.8330 F   0  0  0  0  0  0  0  0  0  0  0  0
  133.5780   75.4180  226.0200 C   0  0  0  0  0  0  0  0  0  0  0  0
  134.4620   74.4990  225.4840 C   0  0  0  0  0  0  0  0  0  0  0  0
  134.2380   73.1680  225.7650 C   0  0  0  0  0  0  0  0  0  0  0  0
  135.0480   72.2070  225.2830 N   0  0  0  0  0  0  0  0  0  0  0  0
  137.4220   71.2570  224.6870 H   0  0  0  0  0  0  0  0  0  0  0  0
  137.3444   68.4207  223.6308 H   0  0  0  0  0  0  0  0  0  0  0  0
  138.6047   69.6837  223.2777 H   0  0  0  0  0  0  0  0  0  0  0  0
  139.6677   71.1444  224.4230 H   0  0  0  0  0  0  0  0  0  0  0  0
  138.9171   71.4675  226.0108 H   0  0  0  0  0  0  0  0  0  0  0  0
  141.9050   70.9340  225.5813 H   0  0  0  0  0  0  0  0  0  0  0  0
  141.1940   72.5637  225.7095 H   0  0  0  0  0  0  0  0  0  0  0  0
  142.0994   71.5456  227.8780 H   0  0  0  0  0  0  0  0  0  0  0  0
  140.3744   72.1356  227.9086 H   0  0  0  0  0  0  0  0  0  0  0  0
  141.2650   69.6865  228.7921 H   0  0  0  0  0  0  0  0  0  0  0  0
  139.5795   70.1230  228.3758 H   0  0  0  0  0  0  0  0  0  0  0  0
  141.6693   69.0221  226.4050 H   0  0  0  0  0  0  0  0  0  0  0  0
  140.3504   68.0643  227.1488 H   0  0  0  0  0  0  0  0  0  0  0  0
  133.6738   69.4024  226.5129 H   0  0  0  0  0  0  0  0  0  0  0  0
  132.1234   71.0893  227.4471 H   0  0  0  0  0  0  0  0  0  0  0  0
  131.4782   73.3716  227.6916 H   0  0  0  0  0  0  0  0  0  0  0  0
  133.7334   76.4864  225.8096 H   0  0  0  0  0  0  0  0  0  0  0  0
  135.3093   74.8172  224.8589 H   0  0  0  0  0  0  0  0  0  0  0  0
  1  2  2  0
  2  3  1  0
  3  4  1  0
  4  5  1  0
  5  6  2  0
  5  7  1  0
  7  8  1  0
  8  9  1  0
  9 10  1  0
 10 11  1  0
 11 12  1  0
  2 13  1  0
 13 14  2  0
 14 15  1  0
 15 16  2  0
 16 17  1  0
 17 18  2  0
 18 19  1  0
 19 20  1  0
 19 21  1  0
 19 22  1  0
 18 23  1  0
 23 24  2  0
 24 25  1  0
 25 26  2  0
 12  7  1  0
 26 13  1  0
 25 16  1  0
  3 27  1  0
  4 28  1  0
  4 29  1  0
  8 30  1  0
  8 31  1  0
  9 32  1  0
  9 33  1  0
 10 34  1  0
 10 35  1  0
 11 36  1  0
 11 37  1  0
 12 38  1  0
 12 39  1  0
 14 40  1  0
 15 41  1  0
 17 42  1  0
 23 43  1  0
 24 44  1  0
M  END
>  <smiles>  (49) 
O=C(NCC(=O)N1CCCCC1)c1ccc2cc(C(F)(F)F)ccc2n1

>  <score_type>  (49) 
oracle

>  <origin>  (49) 
autodockgpu

>  <m_score__min__energy>  (49) 
-7.3200000000000003

>  <m_primary>  (49) 
energy

>  <rmsd>  (49) 
8.205183970338483

>  <m_score__min__rmsd>  (49) 
8.205183970338483

>  <meeko>  (49) 
{"free_energy": -7.19, "intermolecular_energy": -8.38, "internal_energy": -1.0, "cluster_size": 19, "cluster_id": 2, "rank_in_cluster": 4}

>  <energy>  (49) 
-6.7

>  <cluster_rmsd>  (49) 
0.63

>  <cluster>  (49) 
3

$$$$

     RDKit          3D

 44 46  0  0  0  0  0  0  0  0999 V2000
  139.9330   73.6280  220.5150 O   0  0  0  0  0  0  0  0  0  0  0  0
  139.7300   73.7040  221.7560 C   0  0  0  0  0  0  0  0  0  0  0  0
  139.5710   74.9850  222.3490 N   0  0  0  0  0  0  0  0  0  0  0  0
  139.6520   76.1410  221.4990 C   0  0  0  0  0  0  0  0  0  0  0  0
  139.0400   77.3490  222.1210 C   0  0  0  0  0  0  0  0  0  0  0  0
  137.7980   77.5560  222.1300 O   0  0  0  0  0  0  0  0  0  0  0  0
  139.9260   78.2850  222.7220 N   0  0  0  0  0  0  0  0  0  0  0  0
  141.3710   78.1020  222.7450 C   0  0  0  0  0  0  0  0  0  0  0  0
  141.9340   78.9620  223.8520 C   0  0  0  0  0  0  0  0  0  0  0  0
  141.7150   80.4060  223.4640 C   0  0  0  0  0  0  0  0  0  0  0  0
  140.3350   80.6740  222.9600 C   0  0  0  0  0  0  0  0  0  0  0  0
  139.4310   79.5040  223.3600 C   0  0  0  0  0  0  0  0  0  0  0  0
  139.6560   72.5010  222.5820 C   0  0  0  0  0  0  0  0  0  0  0  0
  138.8570   71.4470  222.1520 C   0  0  0  0  0  0  0  0  0  0  0  0
  138.7790   70.3170  222.9150 C   0  0  0  0  0  0  0  0  0  0  0  0
  139.4880   70.2340  224.0950 C   0  0  0  0  0  0  0  0  0  0  0  0
  139.4200   69.1060  224.8720 C   0  0  0  0  0  0  0  0  0  0  0  0
  140.1240   68.9970  226.0640 C   0  0  0  0  0  0  0  0  0  0  0  0
  140.0550   67.7730  226.9150 C   0  0  0  0  0  0  0  0  0  0  0  0
  141.1850   67.0150  226.8430 F   0  0  0  0  0  0  0  0  0  0  0  0
  138.9020   67.0890  226.5790 F   0  0  0  0  0  0  0  0  0  0  0  0
  139.9180   68.1750  228.2380 F   0  0  0  0  0  0  0  0  0  0  0  0
  140.9080   70.0720  226.4550 C   0  0  0  0  0  0  0  0  0  0  0  0
  141.0090   71.2300  225.7050 C   0  0  0  0  0  0  0  0  0  0  0  0
  140.2900   71.2870  224.5300 C   0  0  0  0  0  0  0  0  0  0  0  0
  140.3300   72.3760  223.7400 N   0  0  0  0  0  0  0  0  0  0  0  0
  139.4000   75.0510  223.3950 H   0  0  0  0  0  0  0  0  0  0  0  0
  140.7110   76.3506  221.2881 H   0  0  0  0  0  0  0  0  0  0  0  0
  139.0932   75.9191  220.5779 H   0  0  0  0  0  0  0  0  0  0  0  0
  141.6103   77.0453  222.9351 H   0  0  0  0  0  0  0  0  0  0  0  0
  141.8077   78.3909  221.7776 H   0  0  0  0  0  0  0  0  0  0  0  0
  141.4148   78.7445  224.7971 H   0  0  0  0  0  0  0  0  0  0  0  0
  143.0056   78.7578  223.9932 H   0  0  0  0  0  0  0  0  0  0  0  0
  141.8939   81.0369  224.3472 H   0  0  0  0  0  0  0  0  0  0  0  0
  142.4135   80.6355  222.6458 H   0  0  0  0  0  0  0  0  0  0  0  0
  139.9532   81.6054  223.4036 H   0  0  0  0  0  0  0  0  0  0  0  0
  140.3495   80.7796  221.8652 H   0  0  0  0  0  0  0  0  0  0  0  0
  139.4470   79.3816  224.4531 H   0  0  0  0  0  0  0  0  0  0  0  0
  138.3987   79.7022  223.0358 H   0  0  0  0  0  0  0  0  0  0  0  0
  138.2950   71.5225  221.2094 H   0  0  0  0  0  0  0  0  0  0  0  0
  138.1517   69.4743  222.5889 H   0  0  0  0  0  0  0  0  0  0  0  0
  138.7914   68.2656  224.5424 H   0  0  0  0  0  0  0  0  0  0  0  0
  141.4710   70.0012  227.3974 H   0  0  0  0  0  0  0  0  0  0  0  0
  141.6375   72.0712  226.0328 H   0  0  0  0  0  0  0  0  0  0  0  0
  1  2  2  0
  2  3  1  0
  3  4  1  0
  4  5  1  0
  5  6  2  0
  5  7  1  0
  7  8  1  0
  8  9  1  0
  9 10  1  0
 10 11  1  0
 11 12  1  0
  2 13  1  0
 13 14  2  0
 14 15  1  0
 15 16  2  0
 16 17  1  0
 17 18  2  0
 18 19  1  0
 19 20  1  0
 19 21  1  0
 19 22  1  0
 18 23  1  0
 23 24  2  0
 24 25  1  0
 25 26  2  0
 12  7  1  0
 26 13  1  0
 25 16  1  0
  3 27  1  0
  4 28  1  0
  4 29  1  0
  8 30  1  0
  8 31  1  0
  9 32  1  0
  9 33  1  0
 10 34  1  0
 10 35  1  0
 11 36  1  0
 11 37  1  0
 12 38  1  0
 12 39  1  0
 14 40  1  0
 15 41  1  0
 17 42  1  0
 23 43  1  0
 24 44  1  0
M  END
>  <smiles>  (50) 
O=C(NCC(=O)N1CCCCC1)c1ccc2cc(C(F)(F)F)ccc2n1

>  <score_type>  (50) 
oracle

>  <origin>  (50) 
autodockgpu

>  <m_score__min__energy>  (50) 
-7.3200000000000003

>  <m_primary>  (50) 
energy

>  <rmsd>  (50) 
4.210415765323397

>  <m_score__min__rmsd>  (50) 
4.210415765323397

>  <meeko>  (50) 
{"free_energy": -7.19, "intermolecular_energy": -8.39, "internal_energy": -0.81, "cluster_size": 28, "cluster_id": 1, "rank_in_cluster": 15}

>  <energy>  (50) 
-6.59

>  <cluster_rmsd>  (50) 
0.2

>  <cluster>  (50) 
3

$$$$
