
     RDKit          3D

 56 59  0  0  0  0  0  0  0  0999 V2000
  138.9400   75.0660  221.9890 O   0  0  0  0  0  0  0  0  0  0  0  0
  140.0440   75.6670  222.0100 C   0  0  0  0  0  0  0  0  0  0  0  0
  141.1730   74.8760  221.5610 N   0  0  0  0  0  0  0  0  0  0  0  0
  140.9080   73.5430  221.1580 C   0  0  0  0  0  0  0  0  0  0  0  0
  142.0140   72.6530  220.8040 C   0  0  0  0  0  0  0  0  0  0  0  0
  141.7340   71.3950  221.0540 O   0  0  0  0  0  0  0  0  0  0  0  0
  143.2630   72.8880  220.2740 N   0  0  0  0  0  0  0  0  0  0  0  0
  144.5600   72.1950  220.3600 C   0  0  0  0  0  0  0  0  0  0  0  0
  145.5100   73.3360  220.7100 C   0  0  2  0  0  0  0  0  0  0  0  0
  145.9490   73.3100  222.0100 O   0  0  0  0  0  0  0  0  0  0  0  0
  144.7570   74.6050  220.3370 C   0  0  0  0  0  0  0  0  0  0  0  0
  143.6580   74.0440  219.4240 C   0  0  2  0  0  0  0  0  0  0  0  0
  142.5810   75.0210  219.1730 C   0  0  0  0  0  0  0  0  0  0  0  0
  142.9940   76.2390  219.7760 O   0  0  0  0  0  0  0  0  0  0  0  0
  143.0300   77.2840  218.8770 C   0  0  0  0  0  0  0  0  0  0  0  0
  141.9530   78.2430  219.2050 C   0  0  0  0  0  0  0  0  0  0  0  0
  142.1680   79.5660  219.5250 C   0  0  0  0  0  0  0  0  0  0  0  0
  141.1140   80.4040  219.8210 C   0  0  0  0  0  0  0  0  0  0  0  0
  139.8360   79.8960  219.7900 C   0  0  0  0  0  0  0  0  0  0  0  0
  139.5650   78.5800  219.4760 C   0  0  0  0  0  0  0  0  0  0  0  0
  140.6440   77.7640  219.1840 C   0  0  0  0  0  0  0  0  0  0  0  0
  140.2200   77.0400  222.4390 C   0  0  0  0  0  0  0  0  0  0  0  0
  139.0830   77.7650  222.7280 C   0  0  0  0  0  0  0  0  0  0  0  0
  139.2360   79.0870  223.1420 C   0  0  0  0  0  0  0  0  0  0  0  0
  140.5070   79.6550  223.2600 C   0  0  0  0  0  0  0  0  0  0  0  0
  140.6460   80.9650  223.6710 C   0  0  0  0  0  0  0  0  0  0  0  0
  141.9280   81.4900  223.7740 C   0  0  0  0  0  0  0  0  0  0  0  0
  143.0170   80.6980  223.4660 C   0  0  0  0  0  0  0  0  0  0  0  0
  142.8750   79.3790  223.0530 C   0  0  0  0  0  0  0  0  0  0  0  0
  141.6010   78.8620  222.9510 C   0  0  0  0  0  0  0  0  0  0  0  0
  141.4480   77.5930  222.5540 N   0  0  0  0  0  0  0  0  0  0  0  0
  142.1140   75.3440  221.5650 H   0  0  0  0  0  0  0  0  0  0  0  0
  140.3661   73.0625  221.9860 H   0  0  0  0  0  0  0  0  0  0  0  0
  140.3695   73.6683  220.2071 H   0  0  0  0  0  0  0  0  0  0  0  0
  144.5509   71.4273  221.1477 H   0  0  0  0  0  0  0  0  0  0  0  0
  144.8354   71.6561  219.4414 H   0  0  0  0  0  0  0  0  0  0  0  0
  146.4538   73.2569  220.1506 H   0  0  0  0  0  0  0  0  0  0  0  0
  146.0110   72.3790  222.3470 H   0  0  0  0  0  0  0  0  0  0  0  0
  144.3316   75.0966  221.2244 H   0  0  0  0  0  0  0  0  0  0  0  0
  145.3821   75.3786  219.8672 H   0  0  0  0  0  0  0  0  0  0  0  0
  143.9467   73.7848  218.3947 H   0  0  0  0  0  0  0  0  0  0  0  0
  142.4394   75.1612  218.0912 H   0  0  0  0  0  0  0  0  0  0  0  0
  141.6240   74.6746  219.5903 H   0  0  0  0  0  0  0  0  0  0  0  0
  144.0049   77.7897  218.9392 H   0  0  0  0  0  0  0  0  0  0  0  0
  142.8853   76.8996  217.8566 H   0  0  0  0  0  0  0  0  0  0  0  0
  143.1952   79.9591  219.5445 H   0  0  0  0  0  0  0  0  0  0  0  0
  141.2916   81.4589  220.0771 H   0  0  0  0  0  0  0  0  0  0  0  0
  138.9960   80.5661  220.0251 H   0  0  0  0  0  0  0  0  0  0  0  0
  138.5345   78.1956  219.4585 H   0  0  0  0  0  0  0  0  0  0  0  0
  140.4639   76.7093  218.9285 H   0  0  0  0  0  0  0  0  0  0  0  0
  138.0845   77.3131  222.6345 H   0  0  0  0  0  0  0  0  0  0  0  0
  138.3466   79.6896  223.3784 H   0  0  0  0  0  0  0  0  0  0  0  0
  139.7644   81.5776  223.9109 H   0  0  0  0  0  0  0  0  0  0  0  0
  142.0751   82.5305  224.0990 H   0  0  0  0  0  0  0  0  0  0  0  0
  144.0274   81.1245  223.5503 H   0  0  0  0  0  0  0  0  0  0  0  0
  143.7551   78.7640  222.8139 H   0  0  0  0  0  0  0  0  0  0  0  0
  1  2  2  0
  2  3  1  0
  3  4  1  0
  4  5  1  0
  5  6  2  0
  5  7  1  0
  7  8  1  0
  8  9  1  0
  9 10  1  0
  9 11  1  0
 11 12  1  0
 12 13  1  0
 13 14  1  0
 14 15  1  0
 15 16  1  0
 16 17  2  0
 17 18  1  0
 18 19  2  0
 19 20  1  0
 20 21  2  0
  2 22  1  0
 22 23  2  0
 23 24  1  0
 24 25  2  0
 25 26  1  0
 26 27  2  0
 27 28  1  0
 28 29  2  0
 29 30  1  0
 30 31  2  0
 12  7  1  0
 21 16  1  0
 31 22  1  0
 30 25  1  0
  3 32  1  0
  4 33  1  0
  4 34  1  0
  8 35  1  0
  8 36  1  0
  9 37  1  6
 10 38  1  0
 11 39  1  0
 11 40  1  0
 12 41  1  6
 13 42  1  0
 13 43  1  0
 15 44  1  0
 15 45  1  0
 17 46  1  0
 18 47  1  0
 19 48  1  0
 20 49  1  0
 21 50  1  0
 23 51  1  0
 24 52  1  0
 26 53  1  0
 27 54  1  0
 28 55  1  0
 29 56  1  0
M  END
>  <smiles>  (1) 
O=C(NCC(=O)N1C[C@H](O)C[C@@H]1COCc1ccccc1)c1ccc2ccccc2n1

>  <score_type>  (1) 
oracle

>  <origin>  (1) 
autodockgpu

>  <m_score__min__energy>  (1) 
-9.1699999999999999

>  <m_primary>  (1) 
energy

>  <rmsd>  (1) 
7.716807503902455

>  <m_score__min__rmsd>  (1) 
7.716807503902455

>  <meeko>  (1) 
{"free_energy": -6.91, "intermolecular_energy": -9.6, "internal_energy": -3.77, "cluster_size": 2, "cluster_id": 6, "rank_in_cluster": 2}

>  <energy>  (1) 
-9.17

>  <cluster_rmsd>  (1) 
0.0

>  <cluster>  (1) 
1

$$$$

     RDKit          3D

 56 59  0  0  0  0  0  0  0  0999 V2000
  141.0720   71.9400  221.5270 O   0  0  0  0  0  0  0  0  0  0  0  0
  140.3070   72.2070  222.4870 C   0  0  0  0  0  0  0  0  0  0  0  0
  139.4910   73.3910  222.3010 N   0  0  0  0  0  0  0  0  0  0  0  0
  139.6460   74.0960  221.0810 C   0  0  0  0  0  0  0  0  0  0  0  0
  140.8410   74.9090  220.8540 C   0  0  0  0  0  0  0  0  0  0  0  0
  141.4520   75.2110  221.9770 O   0  0  0  0  0  0  0  0  0  0  0  0
  141.4250   75.4050  219.7110 N   0  0  0  0  0  0  0  0  0  0  0  0
  141.8720   74.8030  218.4430 C   0  0  0  0  0  0  0  0  0  0  0  0
  143.2800   75.3690  218.2980 C   0  0  2  0  0  0  0  0  0  0  0  0
  144.2720   74.4500  218.5330 O   0  0  0  0  0  0  0  0  0  0  0  0
  143.3200   76.5720  219.2290 C   0  0  0  0  0  0  0  0  0  0  0  0
  141.8230   76.8180  219.4650 C   0  0  2  0  0  0  0  0  0  0  0  0
  141.5730   77.7340  220.5950 C   0  0  0  0  0  0  0  0  0  0  0  0
  140.1830   77.6580  220.8750 O   0  0  0  0  0  0  0  0  0  0  0  0
  139.9020   77.8900  222.2050 C   0  0  0  0  0  0  0  0  0  0  0  0
  140.7370   79.0120  222.6880 C   0  0  0  0  0  0  0  0  0  0  0  0
  141.8360   78.8590  223.5050 C   0  0  0  0  0  0  0  0  0  0  0  0
  142.5690   79.9510  223.9170 C   0  0  0  0  0  0  0  0  0  0  0  0
  142.1860   81.2030  223.4970 C   0  0  0  0  0  0  0  0  0  0  0  0
  141.0950   81.4120  222.6790 C   0  0  0  0  0  0  0  0  0  0  0  0
  140.3780   80.2960  222.2820 C   0  0  0  0  0  0  0  0  0  0  0  0
  140.2150   71.4220  223.7020 C   0  0  0  0  0  0  0  0  0  0  0  0
  139.6220   70.1800  223.6110 C   0  0  0  0  0  0  0  0  0  0  0  0
  139.5260   69.4130  224.7720 C   0  0  0  0  0  0  0  0  0  0  0  0
  140.0180   69.8940  225.9870 C   0  0  0  0  0  0  0  0  0  0  0  0
  139.9170   69.1260  227.1300 C   0  0  0  0  0  0  0  0  0  0  0  0
  140.4190   69.6430  228.3170 C   0  0  0  0  0  0  0  0  0  0  0  0
  140.9990   70.8980  228.3250 C   0  0  0  0  0  0  0  0  0  0  0  0
  141.1000   71.6690  227.1740 C   0  0  0  0  0  0  0  0  0  0  0  0
  140.6000   71.1520  225.9970 C   0  0  0  0  0  0  0  0  0  0  0  0
  140.6890   71.8840  224.8800 N   0  0  0  0  0  0  0  0  0  0  0  0
  138.8380   73.6480  223.0840 H   0  0  0  0  0  0  0  0  0  0  0  0
  139.6128   73.3479  220.2752 H   0  0  0  0  0  0  0  0  0  0  0  0
  138.8360   74.8396  221.1133 H   0  0  0  0  0  0  0  0  0  0  0  0
  141.8879   73.7049  218.5063 H   0  0  0  0  0  0  0  0  0  0  0  0
  141.2147   75.0291  217.5904 H   0  0  0  0  0  0  0  0  0  0  0  0
  143.4866   75.6652  217.2590 H   0  0  0  0  0  0  0  0  0  0  0  0
  145.1600   74.8100  218.2730 H   0  0  0  0  0  0  0  0  0  0  0  0
  143.8427   76.3375  220.1680 H   0  0  0  0  0  0  0  0  0  0  0  0
  143.8609   77.4392  218.8223 H   0  0  0  0  0  0  0  0  0  0  0  0
  141.2667   77.3233  218.6618 H   0  0  0  0  0  0  0  0  0  0  0  0
  142.1555   77.4210  221.4741 H   0  0  0  0  0  0  0  0  0  0  0  0
  141.8735   78.7628  220.3474 H   0  0  0  0  0  0  0  0  0  0  0  0
  138.8385   78.1475  222.3173 H   0  0  0  0  0  0  0  0  0  0  0  0
  140.1200   76.9862  222.7928 H   0  0  0  0  0  0  0  0  0  0  0  0
  142.1323   77.8517  223.8328 H   0  0  0  0  0  0  0  0  0  0  0  0
  143.4448   79.8232  224.5702 H   0  0  0  0  0  0  0  0  0  0  0  0
  142.7731   82.0729  223.8265 H   0  0  0  0  0  0  0  0  0  0  0  0
  140.8067   82.4231  222.3556 H   0  0  0  0  0  0  0  0  0  0  0  0
  139.5023   80.4262  221.6292 H   0  0  0  0  0  0  0  0  0  0  0  0
  139.2362   69.8055  222.6513 H   0  0  0  0  0  0  0  0  0  0  0  0
  139.0577   68.4186  224.7300 H   0  0  0  0  0  0  0  0  0  0  0  0
  139.4508   68.1301  227.1011 H   0  0  0  0  0  0  0  0  0  0  0  0
  140.3556   69.0572  229.2459 H   0  0  0  0  0  0  0  0  0  0  0  0
  141.3923   71.2980  229.2712 H   0  0  0  0  0  0  0  0  0  0  0  0
  141.5662   72.6650  227.2004 H   0  0  0  0  0  0  0  0  0  0  0  0
  1  2  2  0
  2  3  1  0
  3  4  1  0
  4  5  1  0
  5  6  2  0
  5  7  1  0
  7  8  1  0
  8  9  1  0
  9 10  1  0
  9 11  1  0
 11 12  1  0
 12 13  1  0
 13 14  1  0
 14 15  1  0
 15 16  1  0
 16 17  2  0
 17 18  1  0
 18 19  2  0
 19 20  1  0
 20 21  2  0
  2 22  1  0
 22 23  2  0
 23 24  1  0
 24 25  2  0
 25 26  1  0
 26 27  2  0
 27 28  1  0
 28 29  2  0
 29 30  1  0
 30 31  2  0
 12  7  1  0
 21 16  1  0
 31 22  1  0
 30 25  1  0
  3 32  1  0
  4 33  1  0
  4 34  1  0
  8 35  1  0
  8 36  1  0
  9 37  1  6
 10 38  1  0
 11 39  1  0
 11 40  1  0
 12 41  1  6
 13 42  1  0
 13 43  1  0
 15 44  1  0
 15 45  1  0
 17 46  1  0
 18 47  1  0
 19 48  1  0
 20 49  1  0
 21 50  1  0
 23 51  1  0
 24 52  1  0
 26 53  1  0
 27 54  1  0
 28 55  1  0
 29 56  1  0
M  END
>  <smiles>  (2) 
O=C(NCC(=O)N1C[C@H](O)C[C@@H]1COCc1ccccc1)c1ccc2ccccc2n1

>  <score_type>  (2) 
oracle

>  <origin>  (2) 
autodockgpu

>  <m_score__min__energy>  (2) 
-9.1699999999999999

>  <m_primary>  (2) 
energy

>  <rmsd>  (2) 
1.831843012666909

>  <m_score__min__rmsd>  (2) 
1.831843012666909

>  <meeko>  (2) 
{"free_energy": -9.17, "intermolecular_energy": -11.85, "internal_energy": -1.49, "cluster_size": 24, "cluster_id": 1, "rank_in_cluster": 1}

>  <energy>  (2) 
-9.15

>  <cluster_rmsd>  (2) 
0.93

>  <cluster>  (2) 
1

$$$$

     RDKit          3D

 56 59  0  0  0  0  0  0  0  0999 V2000
  138.6690   71.0150  221.6970 O   0  0  0  0  0  0  0  0  0  0  0  0
  138.3180   71.3190  222.8650 C   0  0  0  0  0  0  0  0  0  0  0  0
  137.2840   72.3330  222.9430 N   0  0  0  0  0  0  0  0  0  0  0  0
  136.7970   72.8540  221.7180 C   0  0  0  0  0  0  0  0  0  0  0  0
  137.4730   73.9870  221.0860 C   0  0  0  0  0  0  0  0  0  0  0  0
  136.6680   75.0110  220.9200 O   0  0  0  0  0  0  0  0  0  0  0  0
  138.7630   74.1700  220.6410 N   0  0  0  0  0  0  0  0  0  0  0  0
  139.6120   73.4890  219.6470 C   0  0  0  0  0  0  0  0  0  0  0  0
  140.8980   73.2560  220.4310 C   0  0  2  0  0  0  0  0  0  0  0  0
  141.0960   71.9470  220.7920 O   0  0  0  0  0  0  0  0  0  0  0  0
  140.8240   74.2170  221.6090 C   0  0  0  0  0  0  0  0  0  0  0  0
  139.7310   75.1860  221.1350 C   0  0  2  0  0  0  0  0  0  0  0  0
  139.2240   76.0410  222.2270 C   0  0  0  0  0  0  0  0  0  0  0  0
  139.8320   77.3130  222.0580 O   0  0  0  0  0  0  0  0  0  0  0  0
  141.0640   77.3910  222.6730 C   0  0  0  0  0  0  0  0  0  0  0  0
  141.3410   78.8020  223.0240 C   0  0  0  0  0  0  0  0  0  0  0  0
  142.5960   79.3710  223.0020 C   0  0  0  0  0  0  0  0  0  0  0  0
  142.7800   80.6940  223.3440 C   0  0  0  0  0  0  0  0  0  0  0  0
  141.6840   81.4420  223.7080 C   0  0  0  0  0  0  0  0  0  0  0  0
  140.4070   80.9220  223.7470 C   0  0  0  0  0  0  0  0  0  0  0  0
  140.2550   79.5910  223.3990 C   0  0  0  0  0  0  0  0  0  0  0  0
  138.8740   70.7290  224.0660 C   0  0  0  0  0  0  0  0  0  0  0  0
  138.7030   69.3720  224.2440 C   0  0  0  0  0  0  0  0  0  0  0  0
  139.2330   68.7890  225.3950 C   0  0  0  0  0  0  0  0  0  0  0  0
  139.9170   69.5630  226.3360 C   0  0  0  0  0  0  0  0  0  0  0  0
  140.4370   68.9750  227.4710 C   0  0  0  0  0  0  0  0  0  0  0  0
  141.1090   69.7810  228.3810 C   0  0  0  0  0  0  0  0  0  0  0  0
  141.2390   71.1340  228.1290 C   0  0  0  0  0  0  0  0  0  0  0  0
  140.7150   71.7240  226.9850 C   0  0  0  0  0  0  0  0  0  0  0  0
  140.0470   70.9200  226.0850 C   0  0  0  0  0  0  0  0  0  0  0  0
  139.5370   71.4740  224.9790 N   0  0  0  0  0  0  0  0  0  0  0  0
  136.9650   72.6150  223.9040 H   0  0  0  0  0  0  0  0  0  0  0  0
  136.8149   72.0279  220.9918 H   0  0  0  0  0  0  0  0  0  0  0  0
  135.8140   73.2655  221.9906 H   0  0  0  0  0  0  0  0  0  0  0  0
  139.1637   72.5380  219.3237 H   0  0  0  0  0  0  0  0  0  0  0  0
  139.7567   74.0641  218.7205 H   0  0  0  0  0  0  0  0  0  0  0  0
  141.7846   73.4570  219.8117 H   0  0  0  0  0  0  0  0  0  0  0  0
  140.2320   71.4910  220.9670 H   0  0  0  0  0  0  0  0  0  0  0  0
  140.5302   73.6991  222.5339 H   0  0  0  0  0  0  0  0  0  0  0  0
  141.7799   74.7012  221.8574 H   0  0  0  0  0  0  0  0  0  0  0  0
  140.0227   75.9456  220.3948 H   0  0  0  0  0  0  0  0  0  0  0  0
  138.1296   76.1312  222.1622 H   0  0  0  0  0  0  0  0  0  0  0  0
  139.4637   75.6130  223.2116 H   0  0  0  0  0  0  0  0  0  0  0  0
  141.0593   76.7782  223.5865 H   0  0  0  0  0  0  0  0  0  0  0  0
  141.8429   77.0186  221.9914 H   0  0  0  0  0  0  0  0  0  0  0  0
  143.4629   78.7613  222.7075 H   0  0  0  0  0  0  0  0  0  0  0  0
  143.7840   81.1430  223.3262 H   0  0  0  0  0  0  0  0  0  0  0  0
  141.8322   82.4978  223.9789 H   0  0  0  0  0  0  0  0  0  0  0  0
  139.5456   81.5392  224.0422 H   0  0  0  0  0  0  0  0  0  0  0  0
  139.2502   79.1439  223.4189 H   0  0  0  0  0  0  0  0  0  0  0  0
  138.1643   68.7670  223.4998 H   0  0  0  0  0  0  0  0  0  0  0  0
  139.1112   67.7088  225.5636 H   0  0  0  0  0  0  0  0  0  0  0  0
  140.3223   67.8958  227.6504 H   0  0  0  0  0  0  0  0  0  0  0  0
  141.5352   69.3453  229.2967 H   0  0  0  0  0  0  0  0  0  0  0  0
  141.7735   71.7629  228.8562 H   0  0  0  0  0  0  0  0  0  0  0  0
  140.8298   72.8026  226.8022 H   0  0  0  0  0  0  0  0  0  0  0  0
  1  2  2  0
  2  3  1  0
  3  4  1  0
  4  5  1  0
  5  6  2  0
  5  7  1  0
  7  8  1  0
  8  9  1  0
  9 10  1  0
  9 11  1  0
 11 12  1  0
 12 13  1  0
 13 14  1  0
 14 15  1  0
 15 16  1  0
 16 17  2  0
 17 18  1  0
 18 19  2  0
 19 20  1  0
 20 21  2  0
  2 22  1  0
 22 23  2  0
 23 24  1  0
 24 25  2  0
 25 26  1  0
 26 27  2  0
 27 28  1  0
 28 29  2  0
 29 30  1  0
 30 31  2  0
 12  7  1  0
 21 16  1  0
 31 22  1  0
 30 25  1  0
  3 32  1  0
  4 33  1  0
  4 34  1  0
  8 35  1  0
  8 36  1  0
  9 37  1  6
 10 38  1  0
 11 39  1  0
 11 40  1  0
 12 41  1  6
 13 42  1  0
 13 43  1  0
 15 44  1  0
 15 45  1  0
 17 46  1  0
 18 47  1  0
 19 48  1  0
 20 49  1  0
 21 50  1  0
 23 51  1  0
 24 52  1  0
 26 53  1  0
 27 54  1  0
 28 55  1  0
 29 56  1  0
M  END
>  <smiles>  (3) 
O=C(NCC(=O)N1C[C@H](O)C[C@@H]1COCc1ccccc1)c1ccc2ccccc2n1

>  <score_type>  (3) 
oracle

>  <origin>  (3) 
autodockgpu

>  <m_score__min__energy>  (3) 
-9.1699999999999999

>  <m_primary>  (3) 
energy

>  <rmsd>  (3) 
2.306640457850505

>  <m_score__min__rmsd>  (3) 
2.306640457850505

>  <meeko>  (3) 
{"free_energy": -7.56, "intermolecular_energy": -10.24, "internal_energy": -2.38, "cluster_size": 24, "cluster_id": 1, "rank_in_cluster": 21}

>  <energy>  (3) 
-9.08

>  <cluster_rmsd>  (3) 
0.35

>  <cluster>  (3) 
1

$$$$

     RDKit          3D

 56 59  0  0  0  0  0  0  0  0999 V2000
  138.8350   75.2560  221.7850 O   0  0  0  0  0  0  0  0  0  0  0  0
  139.9650   75.7720  221.9770 C   0  0  0  0  0  0  0  0  0  0  0  0
  141.0860   74.8870  221.7280 N   0  0  0  0  0  0  0  0  0  0  0  0
  140.7850   73.5670  221.3040 C   0  0  0  0  0  0  0  0  0  0  0  0
  140.0360   72.6710  222.1840 C   0  0  0  0  0  0  0  0  0  0  0  0
  140.7120   72.3640  223.2670 O   0  0  0  0  0  0  0  0  0  0  0  0
  138.7860   72.1020  222.0850 N   0  0  0  0  0  0  0  0  0  0  0  0
  137.4810   72.5720  221.5900 C   0  0  0  0  0  0  0  0  0  0  0  0
  136.5480   72.1930  222.7340 C   0  0  2  0  0  0  0  0  0  0  0  0
  136.1170   73.2650  223.4750 O   0  0  0  0  0  0  0  0  0  0  0  0
  137.3140   71.1540  223.5400 C   0  0  0  0  0  0  0  0  0  0  0  0
  138.4000   70.7380  222.5380 C   0  0  2  0  0  0  0  0  0  0  0  0
  139.4870   69.9680  223.1720 C   0  0  0  0  0  0  0  0  0  0  0  0
  138.9220   69.3370  224.3120 O   0  0  0  0  0  0  0  0  0  0  0  0
  139.8830   68.8580  225.1780 C   0  0  0  0  0  0  0  0  0  0  0  0
  140.1900   69.8980  226.1840 C   0  0  0  0  0  0  0  0  0  0  0  0
  139.6450   69.9330  227.4480 C   0  0  0  0  0  0  0  0  0  0  0  0
  139.9780   70.9350  228.3360 C   0  0  0  0  0  0  0  0  0  0  0  0
  140.8690   71.9040  227.9360 C   0  0  0  0  0  0  0  0  0  0  0  0
  141.4440   71.9150  226.6820 C   0  0  0  0  0  0  0  0  0  0  0  0
  141.0900   70.8970  225.8150 C   0  0  0  0  0  0  0  0  0  0  0  0
  140.1770   77.1380  222.4110 C   0  0  0  0  0  0  0  0  0  0  0  0
  139.0590   77.8950  222.6920 C   0  0  0  0  0  0  0  0  0  0  0  0
  139.2460   79.2110  223.1110 C   0  0  0  0  0  0  0  0  0  0  0  0
  140.5320   79.7420  223.2420 C   0  0  0  0  0  0  0  0  0  0  0  0
  140.7050   81.0460  223.6580 C   0  0  0  0  0  0  0  0  0  0  0  0
  142.0010   81.5340  223.7740 C   0  0  0  0  0  0  0  0  0  0  0  0
  143.0700   80.7110  223.4740 C   0  0  0  0  0  0  0  0  0  0  0  0
  142.8930   79.3980  223.0560 C   0  0  0  0  0  0  0  0  0  0  0  0
  141.6060   78.9180  222.9410 C   0  0  0  0  0  0  0  0  0  0  0  0
  141.4190   77.6550  222.5390 N   0  0  0  0  0  0  0  0  0  0  0  0
  142.0480   75.2820  221.8790 H   0  0  0  0  0  0  0  0  0  0  0  0
  140.2053   73.6564  220.3734 H   0  0  0  0  0  0  0  0  0  0  0  0
  141.7740   73.0899  221.2386 H   0  0  0  0  0  0  0  0  0  0  0  0
  137.4858   73.6592  221.4226 H   0  0  0  0  0  0  0  0  0  0  0  0
  137.1927   72.1364  220.6219 H   0  0  0  0  0  0  0  0  0  0  0  0
  135.5997   71.7826  222.3567 H   0  0  0  0  0  0  0  0  0  0  0  0
  136.8850   73.7800  223.8380 H   0  0  0  0  0  0  0  0  0  0  0  0
  137.7514   71.5919  224.4494 H   0  0  0  0  0  0  0  0  0  0  0  0
  136.6953   70.3213  223.9057 H   0  0  0  0  0  0  0  0  0  0  0  0
  138.1015   70.0498  221.7335 H   0  0  0  0  0  0  0  0  0  0  0  0
  139.8755   69.2127  222.4730 H   0  0  0  0  0  0  0  0  0  0  0  0
  140.3257   70.6216  223.4537 H   0  0  0  0  0  0  0  0  0  0  0  0
  139.5068   67.9563  225.6834 H   0  0  0  0  0  0  0  0  0  0  0  0
  140.7945   68.6050  224.6166 H   0  0  0  0  0  0  0  0  0  0  0  0
  138.9343   69.1512  227.7540 H   0  0  0  0  0  0  0  0  0  0  0  0
  139.5395   70.9587  229.3445 H   0  0  0  0  0  0  0  0  0  0  0  0
  141.1337   72.7024  228.6449 H   0  0  0  0  0  0  0  0  0  0  0  0
  142.1542   72.7004  226.3841 H   0  0  0  0  0  0  0  0  0  0  0  0
  141.5304   70.8750  224.8072 H   0  0  0  0  0  0  0  0  0  0  0  0
  138.0488   77.4723  222.5884 H   0  0  0  0  0  0  0  0  0  0  0  0
  138.3722   79.8383  223.3410 H   0  0  0  0  0  0  0  0  0  0  0  0
  139.8393   81.6831  223.8919 H   0  0  0  0  0  0  0  0  0  0  0  0
  142.1750   82.5692  224.1027 H   0  0  0  0  0  0  0  0  0  0  0  0
  144.0917   81.1075  223.5690 H   0  0  0  0  0  0  0  0  0  0  0  0
  143.7570   78.7584  222.8230 H   0  0  0  0  0  0  0  0  0  0  0  0
  1  2  2  0
  2  3  1  0
  3  4  1  0
  4  5  1  0
  5  6  2  0
  5  7  1  0
  7  8  1  0
  8  9  1  0
  9 10  1  0
  9 11  1  0
 11 12  1  0
 12 13  1  0
 13 14  1  0
 14 15  1  0
 15 16  1  0
 16 17  2  0
 17 18  1  0
 18 19  2  0
 19 20  1  0
 20 21  2  0
  2 22  1  0
 22 23  2  0
 23 24  1  0
 24 25  2  0
 25 26  1  0
 26 27  2  0
 27 28  1  0
 28 29  2  0
 29 30  1  0
 30 31  2  0
 12  7  1  0
 21 16  1  0
 31 22  1  0
 30 25  1  0
  3 32  1  0
  4 33  1  0
  4 34  1  0
  8 35  1  0
  8 36  1  0
  9 37  1  6
 10 38  1  0
 11 39  1  0
 11 40  1  0
 12 41  1  6
 13 42  1  0
 13 43  1  0
 15 44  1  0
 15 45  1  0
 17 46  1  0
 18 47  1  0
 19 48  1  0
 20 49  1  0
 21 50  1  0
 23 51  1  0
 24 52  1  0
 26 53  1  0
 27 54  1  0
 28 55  1  0
 29 56  1  0
M  END
>  <smiles>  (4) 
O=C(NCC(=O)N1C[C@H](O)C[C@@H]1COCc1ccccc1)c1ccc2ccccc2n1

>  <score_type>  (4) 
oracle

>  <origin>  (4) 
autodockgpu

>  <m_score__min__energy>  (4) 
-9.1699999999999999

>  <m_primary>  (4) 
energy

>  <rmsd>  (4) 
8.156779821515814

>  <m_score__min__rmsd>  (4) 
8.156779821515814

>  <meeko>  (4) 
{"free_energy": -9.1, "intermolecular_energy": -11.79, "internal_energy": -1.87, "cluster_size": 16, "cluster_id": 2, "rank_in_cluster": 1}

>  <energy>  (4) 
-8.89

>  <cluster_rmsd>  (4) 
0.32

>  <cluster>  (4) 
1

$$$$

     RDKit          3D

 56 59  0  0  0  0  0  0  0  0999 V2000
  140.4920   71.5460  221.3050 O   0  0  0  0  0  0  0  0  0  0  0  0
  140.1380   72.0380  222.4060 C   0  0  0  0  0  0  0  0  0  0  0  0
  139.7420   73.4310  222.3480 N   0  0  0  0  0  0  0  0  0  0  0  0
  139.7980   74.0660  221.0820 C   0  0  0  0  0  0  0  0  0  0  0  0
  140.8800   75.0030  220.7820 C   0  0  0  0  0  0  0  0  0  0  0  0
  141.5500   75.3430  221.8590 O   0  0  0  0  0  0  0  0  0  0  0  0
  141.3110   75.5820  219.6100 N   0  0  0  0  0  0  0  0  0  0  0  0
  141.6570   75.0620  218.2760 C   0  0  0  0  0  0  0  0  0  0  0  0
  143.0070   75.7210  218.0150 C   0  0  2  0  0  0  0  0  0  0  0  0
  144.0700   74.8580  218.1040 O   0  0  0  0  0  0  0  0  0  0  0  0
  143.0730   76.8860  218.9940 C   0  0  0  0  0  0  0  0  0  0  0  0
  141.5970   77.0260  219.3920 C   0  0  2  0  0  0  0  0  0  0  0  0
  141.4140   77.8770  220.5840 C   0  0  0  0  0  0  0  0  0  0  0  0
  140.0660   77.7060  220.9970 O   0  0  0  0  0  0  0  0  0  0  0  0
  139.8990   77.9310  222.3480 C   0  0  0  0  0  0  0  0  0  0  0  0
  140.6740   79.1290  222.7390 C   0  0  0  0  0  0  0  0  0  0  0  0
  140.3340   80.4170  222.3860 C   0  0  0  0  0  0  0  0  0  0  0  0
  141.1050   81.4880  222.7860 C   0  0  0  0  0  0  0  0  0  0  0  0
  142.2240   81.2490  223.5500 C   0  0  0  0  0  0  0  0  0  0  0  0
  142.6090   79.9800  223.9300 C   0  0  0  0  0  0  0  0  0  0  0  0
  141.8150   78.9260  223.5120 C   0  0  0  0  0  0  0  0  0  0  0  0
  140.1120   71.3060  223.6570 C   0  0  0  0  0  0  0  0  0  0  0  0
  139.5880   70.0310  223.6360 C   0  0  0  0  0  0  0  0  0  0  0  0
  139.5560   69.3150  224.8320 C   0  0  0  0  0  0  0  0  0  0  0  0
  140.0430   69.8780  226.0130 C   0  0  0  0  0  0  0  0  0  0  0  0
  140.0060   69.1610  227.1910 C   0  0  0  0  0  0  0  0  0  0  0  0
  140.4990   69.7590  228.3430 C   0  0  0  0  0  0  0  0  0  0  0  0
  141.0080   71.0430  228.2820 C   0  0  0  0  0  0  0  0  0  0  0  0
  141.0450   71.7640  227.0950 C   0  0  0  0  0  0  0  0  0  0  0  0
  140.5530   71.1660  225.9540 C   0  0  0  0  0  0  0  0  0  0  0  0
  140.5810   71.8490  224.8030 N   0  0  0  0  0  0  0  0  0  0  0  0
  139.4400   73.8780  223.2510 H   0  0  0  0  0  0  0  0  0  0  0  0
  139.8514   73.2670  220.3279 H   0  0  0  0  0  0  0  0  0  0  0  0
  138.9022   74.7043  221.0791 H   0  0  0  0  0  0  0  0  0  0  0  0
  141.7434   73.9654  218.2852 H   0  0  0  0  0  0  0  0  0  0  0  0
  140.9020   75.2812  217.5066 H   0  0  0  0  0  0  0  0  0  0  0  0
  143.0867   76.0715  216.9754 H   0  0  0  0  0  0  0  0  0  0  0  0
  144.8850   75.2540  217.6980 H   0  0  0  0  0  0  0  0  0  0  0  0
  143.7037   76.6470  219.8629 H   0  0  0  0  0  0  0  0  0  0  0  0
  143.5165   77.8019  218.5762 H   0  0  0  0  0  0  0  0  0  0  0  0
  140.9305   77.5269  218.6744 H   0  0  0  0  0  0  0  0  0  0  0  0
  142.0997   77.5626  221.3846 H   0  0  0  0  0  0  0  0  0  0  0  0
  141.6305   78.9315  220.3576 H   0  0  0  0  0  0  0  0  0  0  0  0
  138.8332   78.0948  222.5651 H   0  0  0  0  0  0  0  0  0  0  0  0
  140.2544   77.0584  222.9156 H   0  0  0  0  0  0  0  0  0  0  0  0
  139.4352   80.5932  221.7768 H   0  0  0  0  0  0  0  0  0  0  0  0
  140.8306   82.5140  222.4997 H   0  0  0  0  0  0  0  0  0  0  0  0
  142.8365   82.1045  223.8708 H   0  0  0  0  0  0  0  0  0  0  0  0
  143.5092   79.8127  224.5396 H   0  0  0  0  0  0  0  0  0  0  0  0
  142.0924   77.9007  223.7979 H   0  0  0  0  0  0  0  0  0  0  0  0
  139.2062   69.5913  222.7028 H   0  0  0  0  0  0  0  0  0  0  0  0
  139.1426   68.2957  224.8451 H   0  0  0  0  0  0  0  0  0  0  0  0
  139.5960   68.1406  227.2170 H   0  0  0  0  0  0  0  0  0  0  0  0
  140.4847   69.2144  229.2986 H   0  0  0  0  0  0  0  0  0  0  0  0
  141.3953   71.5076  229.2008 H   0  0  0  0  0  0  0  0  0  0  0  0
  141.4556   72.7841  227.0661 H   0  0  0  0  0  0  0  0  0  0  0  0
  1  2  2  0
  2  3  1  0
  3  4  1  0
  4  5  1  0
  5  6  2  0
  5  7  1  0
  7  8  1  0
  8  9  1  0
  9 10  1  0
  9 11  1  0
 11 12  1  0
 12 13  1  0
 13 14  1  0
 14 15  1  0
 15 16  1  0
 16 17  2  0
 17 18  1  0
 18 19  2  0
 19 20  1  0
 20 21  2  0
  2 22  1  0
 22 23  2  0
 23 24  1  0
 24 25  2  0
 25 26  1  0
 26 27  2  0
 27 28  1  0
 28 29  2  0
 29 30  1  0
 30 31  2  0
 12  7  1  0
 21 16  1  0
 31 22  1  0
 30 25  1  0
  3 32  1  0
  4 33  1  0
  4 34  1  0
  8 35  1  0
  8 36  1  0
  9 37  1  6
 10 38  1  0
 11 39  1  0
 11 40  1  0
 12 41  1  6
 13 42  1  0
 13 43  1  0
 15 44  1  0
 15 45  1  0
 17 46  1  0
 18 47  1  0
 19 48  1  0
 20 49  1  0
 21 50  1  0
 23 51  1  0
 24 52  1  0
 26 53  1  0
 27 54  1  0
 28 55  1  0
 29 56  1  0
M  END
>  <smiles>  (5) 
O=C(NCC(=O)N1C[C@H](O)C[C@@H]1COCc1ccccc1)c1ccc2ccccc2n1

>  <score_type>  (5) 
oracle

>  <origin>  (5) 
autodockgpu

>  <m_score__min__energy>  (5) 
-9.1699999999999999

>  <m_primary>  (5) 
energy

>  <rmsd>  (5) 
1.7046986000918154

>  <m_score__min__rmsd>  (5) 
1.7046986000918154

>  <meeko>  (5) 
{"free_energy": -8.89, "intermolecular_energy": -11.57, "internal_energy": -1.54, "cluster_size": 24, "cluster_id": 1, "rank_in_cluster": 4}

>  <energy>  (5) 
-8.87

>  <cluster_rmsd>  (5) 
1.18

>  <cluster>  (5) 
1

$$$$

     RDKit          3D

 56 59  0  0  0  0  0  0  0  0999 V2000
  140.5580   72.6110  222.7540 O   0  0  0  0  0  0  0  0  0  0  0  0
  140.8510   73.2240  221.6970 C   0  0  0  0  0  0  0  0  0  0  0  0
  141.1910   72.3720  220.5740 N   0  0  0  0  0  0  0  0  0  0  0  0
  141.1530   70.9710  220.7930 C   0  0  0  0  0  0  0  0  0  0  0  0
  139.8690   70.2940  220.9670 C   0  0  0  0  0  0  0  0  0  0  0  0
  139.9600   69.0020  220.7500 O   0  0  0  0  0  0  0  0  0  0  0  0
  138.6140   70.7500  221.3020 N   0  0  0  0  0  0  0  0  0  0  0  0
  137.7480   71.8300  220.7990 C   0  0  0  0  0  0  0  0  0  0  0  0
  137.3380   72.5370  222.0860 C   0  0  2  0  0  0  0  0  0  0  0  0
  137.9450   73.7550  222.2650 O   0  0  0  0  0  0  0  0  0  0  0  0
  137.6240   71.5360  223.1960 C   0  0  0  0  0  0  0  0  0  0  0  0
  137.7500   70.2320  222.3960 C   0  0  2  0  0  0  0  0  0  0  0  0
  138.3480   69.1400  223.1890 C   0  0  0  0  0  0  0  0  0  0  0  0
  138.3090   69.5600  224.5450 O   0  0  0  0  0  0  0  0  0  0  0  0
  139.2950   68.9680  225.3070 C   0  0  0  0  0  0  0  0  0  0  0  0
  139.9700   70.0050  226.1180 C   0  0  0  0  0  0  0  0  0  0  0  0
  140.8270   70.9520  225.6010 C   0  0  0  0  0  0  0  0  0  0  0  0
  141.4220   71.8900  226.4180 C   0  0  0  0  0  0  0  0  0  0  0  0
  141.1440   71.8660  227.7650 C   0  0  0  0  0  0  0  0  0  0  0  0
  140.2960   70.9390  228.3340 C   0  0  0  0  0  0  0  0  0  0  0  0
  139.7140   70.0110  227.4880 C   0  0  0  0  0  0  0  0  0  0  0  0
  140.8610   74.6680  221.5650 C   0  0  0  0  0  0  0  0  0  0  0  0
  141.8060   75.2220  220.7280 C   0  0  0  0  0  0  0  0  0  0  0  0
  141.8280   76.6100  220.5910 C   0  0  0  0  0  0  0  0  0  0  0  0
  140.9160   77.4090  221.2850 C   0  0  0  0  0  0  0  0  0  0  0  0
  140.9480   78.7810  221.1420 C   0  0  0  0  0  0  0  0  0  0  0  0
  140.0240   79.5380  221.8510 C   0  0  0  0  0  0  0  0  0  0  0  0
  139.1080   78.9060  222.6710 C   0  0  0  0  0  0  0  0  0  0  0  0
  139.0770   77.5250  222.8130 C   0  0  0  0  0  0  0  0  0  0  0  0
  139.9970   76.7770  222.1080 C   0  0  0  0  0  0  0  0  0  0  0  0
  139.9810   75.4450  222.2350 N   0  0  0  0  0  0  0  0  0  0  0  0
  141.4430   72.8490  219.6720 H   0  0  0  0  0  0  0  0  0  0  0  0
  141.6456   70.5009  219.9291 H   0  0  0  0  0  0  0  0  0  0  0  0
  141.6358   70.8548  221.7746 H   0  0  0  0  0  0  0  0  0  0  0  0
  138.3009   72.5065  220.1307 H   0  0  0  0  0  0  0  0  0  0  0  0
  136.8972   71.4723  220.2004 H   0  0  0  0  0  0  0  0  0  0  0  0
  136.2737   72.8142  222.0675 H   0  0  0  0  0  0  0  0  0  0  0  0
  138.7950   73.6600  222.7670 H   0  0  0  0  0  0  0  0  0  0  0  0
  138.5581   71.7764  223.7248 H   0  0  0  0  0  0  0  0  0  0  0  0
  136.8601   71.5084  223.9871 H   0  0  0  0  0  0  0  0  0  0  0  0
  136.8150   69.7583  222.0622 H   0  0  0  0  0  0  0  0  0  0  0  0
  137.7672   68.2147  223.0607 H   0  0  0  0  0  0  0  0  0  0  0  0
  139.3787   68.9315  222.8661 H   0  0  0  0  0  0  0  0  0  0  0  0
  138.8448   68.2160  225.9717 H   0  0  0  0  0  0  0  0  0  0  0  0
  140.0275   68.4782  224.6486 H   0  0  0  0  0  0  0  0  0  0  0  0
  141.0394   70.9599  224.5217 H   0  0  0  0  0  0  0  0  0  0  0  0
  142.1062   72.6434  226.0004 H   0  0  0  0  0  0  0  0  0  0  0  0
  141.6173   72.6168  228.4148 H   0  0  0  0  0  0  0  0  0  0  0  0
  140.0909   70.9373  229.4147 H   0  0  0  0  0  0  0  0  0  0  0  0
  139.0311   69.2580  227.9082 H   0  0  0  0  0  0  0  0  0  0  0  0
  142.5217   74.5881  220.1841 H   0  0  0  0  0  0  0  0  0  0  0  0
  142.5709   77.0802  219.9299 H   0  0  0  0  0  0  0  0  0  0  0  0
  141.6860   79.2627  220.4837 H   0  0  0  0  0  0  0  0  0  0  0  0
  140.0212   80.6343  221.7604 H   0  0  0  0  0  0  0  0  0  0  0  0
  138.3814   79.5157  223.2281 H   0  0  0  0  0  0  0  0  0  0  0  0
  138.3391   77.0408  223.4696 H   0  0  0  0  0  0  0  0  0  0  0  0
  1  2  2  0
  2  3  1  0
  3  4  1  0
  4  5  1  0
  5  6  2  0
  5  7  1  0
  7  8  1  0
  8  9  1  0
  9 10  1  0
  9 11  1  0
 11 12  1  0
 12 13  1  0
 13 14  1  0
 14 15  1  0
 15 16  1  0
 16 17  2  0
 17 18  1  0
 18 19  2  0
 19 20  1  0
 20 21  2  0
  2 22  1  0
 22 23  2  0
 23 24  1  0
 24 25  2  0
 25 26  1  0
 26 27  2  0
 27 28  1  0
 28 29  2  0
 29 30  1  0
 30 31  2  0
 12  7  1  0
 21 16  1  0
 31 22  1  0
 30 25  1  0
  3 32  1  0
  4 33  1  0
  4 34  1  0
  8 35  1  0
  8 36  1  0
  9 37  1  6
 10 38  1  0
 11 39  1  0
 11 40  1  0
 12 41  1  6
 13 42  1  0
 13 43  1  0
 15 44  1  0
 15 45  1  0
 17 46  1  0
 18 47  1  0
 19 48  1  0
 20 49  1  0
 21 50  1  0
 23 51  1  0
 24 52  1  0
 26 53  1  0
 27 54  1  0
 28 55  1  0
 29 56  1  0
M  END
>  <smiles>  (6) 
O=C(NCC(=O)N1C[C@H](O)C[C@@H]1COCc1ccccc1)c1ccc2ccccc2n1

>  <score_type>  (6) 
oracle

>  <origin>  (6) 
autodockgpu

>  <m_score__min__energy>  (6) 
-9.1699999999999999

>  <m_primary>  (6) 
energy

>  <rmsd>  (6) 
7.488055904537843

>  <m_score__min__rmsd>  (6) 
7.488055904537843

>  <meeko>  (6) 
{"free_energy": -6.88, "intermolecular_energy": -9.57, "internal_energy": -3.41, "cluster_size": 16, "cluster_id": 2, "rank_in_cluster": 15}

>  <energy>  (6) 
-8.85

>  <cluster_rmsd>  (6) 
1.1

>  <cluster>  (6) 
1

$$$$

     RDKit          3D

 56 59  0  0  0  0  0  0  0  0999 V2000
  141.2760   72.2000  221.6990 O   0  0  0  0  0  0  0  0  0  0  0  0
  140.3820   72.3390  222.5710 C   0  0  0  0  0  0  0  0  0  0  0  0
  139.4600   73.4320  222.3260 N   0  0  0  0  0  0  0  0  0  0  0  0
  139.6690   74.2010  221.1540 C   0  0  0  0  0  0  0  0  0  0  0  0
  140.8850   75.0020  221.0120 C   0  0  0  0  0  0  0  0  0  0  0  0
  141.3030   75.4700  222.1660 O   0  0  0  0  0  0  0  0  0  0  0  0
  141.6480   75.3490  219.9210 N   0  0  0  0  0  0  0  0  0  0  0  0
  142.2260   74.5980  218.7920 C   0  0  0  0  0  0  0  0  0  0  0  0
  143.6720   75.0800  218.7950 C   0  0  2  0  0  0  0  0  0  0  0  0
  144.5650   74.1440  219.2540 O   0  0  0  0  0  0  0  0  0  0  0  0
  143.6580   76.3700  219.6020 C   0  0  0  0  0  0  0  0  0  0  0  0
  142.1610   76.7080  219.5990 C   0  0  2  0  0  0  0  0  0  0  0  0
  141.8160   77.7470  220.5890 C   0  0  0  0  0  0  0  0  0  0  0  0
  140.3980   77.8080  220.6310 O   0  0  0  0  0  0  0  0  0  0  0  0
  139.9230   78.1060  221.8910 C   0  0  0  0  0  0  0  0  0  0  0  0
  140.7560   79.1760  222.4830 C   0  0  0  0  0  0  0  0  0  0  0  0
  141.7160   78.9620  223.4470 C   0  0  0  0  0  0  0  0  0  0  0  0
  142.4550   80.0090  223.9550 C   0  0  0  0  0  0  0  0  0  0  0  0
  142.2190   81.2780  223.4800 C   0  0  0  0  0  0  0  0  0  0  0  0
  141.2700   81.5480  222.5160 C   0  0  0  0  0  0  0  0  0  0  0  0
  140.5440   80.4760  222.0260 C   0  0  0  0  0  0  0  0  0  0  0  0
  140.2450   71.4980  223.7430 C   0  0  0  0  0  0  0  0  0  0  0  0
  139.6190   70.2800  223.5810 C   0  0  0  0  0  0  0  0  0  0  0  0
  139.4800   69.4600  224.7000 C   0  0  0  0  0  0  0  0  0  0  0  0
  139.9630   69.8650  225.9460 C   0  0  0  0  0  0  0  0  0  0  0  0
  139.8200   69.0450  227.0460 C   0  0  0  0  0  0  0  0  0  0  0  0
  140.3140   69.4880  228.2670 C   0  0  0  0  0  0  0  0  0  0  0  0
  140.9290   70.7230  228.3470 C   0  0  0  0  0  0  0  0  0  0  0  0
  141.0730   71.5480  227.2380 C   0  0  0  0  0  0  0  0  0  0  0  0
  140.5800   71.1050  226.0290 C   0  0  0  0  0  0  0  0  0  0  0  0
  140.7110   71.8880  224.9510 N   0  0  0  0  0  0  0  0  0  0  0  0
  138.6990   73.5810  223.0350 H   0  0  0  0  0  0  0  0  0  0  0  0
  139.6497   73.5000  220.3066 H   0  0  0  0  0  0  0  0  0  0  0  0
  138.8720   74.9576  221.2025 H   0  0  0  0  0  0  0  0  0  0  0  0
  142.1665   73.5129  218.9620 H   0  0  0  0  0  0  0  0  0  0  0  0
  141.7059   74.7644  217.8371 H   0  0  0  0  0  0  0  0  0  0  0  0
  144.0362   75.2582  217.7725 H   0  0  0  0  0  0  0  0  0  0  0  0
  145.4950   74.3860  219.0050 H   0  0  0  0  0  0  0  0  0  0  0  0
  144.0331   76.2103  220.6237 H   0  0  0  0  0  0  0  0  0  0  0  0
  144.3007   77.1642  219.1944 H   0  0  0  0  0  0  0  0  0  0  0  0
  141.7508   77.1521  218.6801 H   0  0  0  0  0  0  0  0  0  0  0  0
  142.2143   77.4768  221.5781 H   0  0  0  0  0  0  0  0  0  0  0  0
  142.2482   78.7199  220.3121 H   0  0  0  0  0  0  0  0  0  0  0  0
  138.8800   78.4482  221.8199 H   0  0  0  0  0  0  0  0  0  0  0  0
  139.9677   77.2084  222.5253 H   0  0  0  0  0  0  0  0  0  0  0  0
  141.8956   77.9417  223.8167 H   0  0  0  0  0  0  0  0  0  0  0  0
  143.2194   79.8328  224.7261 H   0  0  0  0  0  0  0  0  0  0  0  0
  142.8112   82.1116  223.8854 H   0  0  0  0  0  0  0  0  0  0  0  0
  141.0975   82.5716  222.1521 H   0  0  0  0  0  0  0  0  0  0  0  0
  139.7795   80.6546  221.2555 H   0  0  0  0  0  0  0  0  0  0  0  0
  139.2404   69.9646  222.5976 H   0  0  0  0  0  0  0  0  0  0  0  0
  138.9843   68.4831  224.6002 H   0  0  0  0  0  0  0  0  0  0  0  0
  139.3275   68.0653  226.9589 H   0  0  0  0  0  0  0  0  0  0  0  0
  140.2161   68.8594  229.1644 H   0  0  0  0  0  0  0  0  0  0  0  0
  141.3165   71.0635  229.3185 H   0  0  0  0  0  0  0  0  0  0  0  0
  141.5667   72.5274  227.3224 H   0  0  0  0  0  0  0  0  0  0  0  0
  1  2  2  0
  2  3  1  0
  3  4  1  0
  4  5  1  0
  5  6  2  0
  5  7  1  0
  7  8  1  0
  8  9  1  0
  9 10  1  0
  9 11  1  0
 11 12  1  0
 12 13  1  0
 13 14  1  0
 14 15  1  0
 15 16  1  0
 16 17  2  0
 17 18  1  0
 18 19  2  0
 19 20  1  0
 20 21  2  0
  2 22  1  0
 22 23  2  0
 23 24  1  0
 24 25  2  0
 25 26  1  0
 26 27  2  0
 27 28  1  0
 28 29  2  0
 29 30  1  0
 30 31  2  0
 12  7  1  0
 21 16  1  0
 31 22  1  0
 30 25  1  0
  3 32  1  0
  4 33  1  0
  4 34  1  0
  8 35  1  0
  8 36  1  0
  9 37  1  6
 10 38  1  0
 11 39  1  0
 11 40  1  0
 12 41  1  6
 13 42  1  0
 13 43  1  0
 15 44  1  0
 15 45  1  0
 17 46  1  0
 18 47  1  0
 19 48  1  0
 20 49  1  0
 21 50  1  0
 23 51  1  0
 24 52  1  0
 26 53  1  0
 27 54  1  0
 28 55  1  0
 29 56  1  0
M  END
>  <smiles>  (7) 
O=C(NCC(=O)N1C[C@H](O)C[C@@H]1COCc1ccccc1)c1ccc2ccccc2n1

>  <score_type>  (7) 
oracle

>  <origin>  (7) 
autodockgpu

>  <m_score__min__energy>  (7) 
-9.1699999999999999

>  <m_primary>  (7) 
energy

>  <rmsd>  (7) 
2.0462568681962314

>  <m_score__min__rmsd>  (7) 
2.0462568681962314

>  <meeko>  (7) 
{"free_energy": -9.08, "intermolecular_energy": -11.77, "internal_energy": -1.46, "cluster_size": 24, "cluster_id": 1, "rank_in_cluster": 3}

>  <energy>  (7) 
-8.81

>  <cluster_rmsd>  (7) 
1.47

>  <cluster>  (7) 
1

$$$$

     RDKit          3D

 56 59  0  0  0  0  0  0  0  0999 V2000
  140.6070   73.5110  220.5770 O   0  0  0  0  0  0  0  0  0  0  0  0
  140.1180   73.8620  221.6800 C   0  0  0  0  0  0  0  0  0  0  0  0
  139.9070   72.7810  222.6220 N   0  0  0  0  0  0  0  0  0  0  0  0
  140.2700   71.4770  222.2010 C   0  0  0  0  0  0  0  0  0  0  0  0
  139.2320   70.4920  221.8970 C   0  0  0  0  0  0  0  0  0  0  0  0
  139.5560   69.7350  220.8740 O   0  0  0  0  0  0  0  0  0  0  0  0
  138.0090   70.2240  222.4690 N   0  0  0  0  0  0  0  0  0  0  0  0
  136.6770   70.8490  222.3820 C   0  0  0  0  0  0  0  0  0  0  0  0
  136.2950   70.9920  223.8510 C   0  0  2  0  0  0  0  0  0  0  0  0
  136.3460   72.2840  224.3110 O   0  0  0  0  0  0  0  0  0  0  0  0
  137.2160   70.0350  224.5950 C   0  0  0  0  0  0  0  0  0  0  0  0
  137.7100   69.1430  223.4470 C   0  0  2  0  0  0  0  0  0  0  0  0
  138.8740   68.3220  223.8330 C   0  0  0  0  0  0  0  0  0  0  0  0
  138.7760   68.1190  225.2350 O   0  0  0  0  0  0  0  0  0  0  0  0
  140.0090   68.1230  225.8530 C   0  0  0  0  0  0  0  0  0  0  0  0
  140.2840   69.4790  226.3770 C   0  0  0  0  0  0  0  0  0  0  0  0
  140.8610   70.4890  225.6400 C   0  0  0  0  0  0  0  0  0  0  0  0
  141.0890   71.7310  226.1950 C   0  0  0  0  0  0  0  0  0  0  0  0
  140.7280   71.9460  227.5050 C   0  0  0  0  0  0  0  0  0  0  0  0
  140.1470   70.9700  228.2870 C   0  0  0  0  0  0  0  0  0  0  0  0
  139.9320   69.7340  227.7010 C   0  0  0  0  0  0  0  0  0  0  0  0
  139.7770   75.2280  222.0250 C   0  0  0  0  0  0  0  0  0  0  0  0
  138.4420   75.5760  221.9960 C   0  0  0  0  0  0  0  0  0  0  0  0
  138.0990   76.8860  222.3250 C   0  0  0  0  0  0  0  0  0  0  0  0
  139.0820   77.8150  222.6730 C   0  0  0  0  0  0  0  0  0  0  0  0
  138.7300   79.1100  222.9970 C   0  0  0  0  0  0  0  0  0  0  0  0
  139.7390   80.0010  223.3370 C   0  0  0  0  0  0  0  0  0  0  0  0
  141.0540   79.5750  223.3430 C   0  0  0  0  0  0  0  0  0  0  0  0
  141.4060   78.2710  223.0170 C   0  0  0  0  0  0  0  0  0  0  0  0
  140.4010   77.3900  222.6790 C   0  0  0  0  0  0  0  0  0  0  0  0
  140.7250   76.1300  222.3620 N   0  0  0  0  0  0  0  0  0  0  0  0
  139.4980   73.0360  223.5560 H   0  0  0  0  0  0  0  0  0  0  0  0
  140.8738   71.5941  221.2890 H   0  0  0  0  0  0  0  0  0  0  0  0
  140.7685   71.0547  223.0860 H   0  0  0  0  0  0  0  0  0  0  0  0
  136.7275   71.8292  221.8853 H   0  0  0  0  0  0  0  0  0  0  0  0
  135.9534   70.2685  221.7909 H   0  0  0  0  0  0  0  0  0  0  0  0
  135.2388   70.7329  224.0162 H   0  0  0  0  0  0  0  0  0  0  0  0
  137.2280   72.6970  224.1210 H   0  0  0  0  0  0  0  0  0  0  0  0
  138.0480   70.5693  225.0770 H   0  0  0  0  0  0  0  0  0  0  0  0
  136.7297   69.4868  225.4154 H   0  0  0  0  0  0  0  0  0  0  0  0
  137.0201   68.3672  223.0834 H   0  0  0  0  0  0  0  0  0  0  0  0
  138.8496   67.3565  223.3064 H   0  0  0  0  0  0  0  0  0  0  0  0
  139.8182   68.8203  223.5679 H   0  0  0  0  0  0  0  0  0  0  0  0
  140.0074   67.4009  226.6828 H   0  0  0  0  0  0  0  0  0  0  0  0
  140.7873   67.8410  225.1286 H   0  0  0  0  0  0  0  0  0  0  0  0
  141.1442   70.3026  224.5935 H   0  0  0  0  0  0  0  0  0  0  0  0
  141.5506   72.5340  225.6016 H   0  0  0  0  0  0  0  0  0  0  0  0
  140.9102   72.9368  227.9467 H   0  0  0  0  0  0  0  0  0  0  0  0
  139.8661   71.1652  229.3325 H   0  0  0  0  0  0  0  0  0  0  0  0
  139.4711   68.9321  228.2964 H   0  0  0  0  0  0  0  0  0  0  0  0
  137.6712   74.8409  221.7213 H   0  0  0  0  0  0  0  0  0  0  0  0
  137.0424   77.1917  222.3104 H   0  0  0  0  0  0  0  0  0  0  0  0
  137.6770   79.4278  222.9860 H   0  0  0  0  0  0  0  0  0  0  0  0
  139.4933   81.0404  223.6002 H   0  0  0  0  0  0  0  0  0  0  0  0
  141.8452   80.2895  223.6139 H   0  0  0  0  0  0  0  0  0  0  0  0
  142.4582   77.9503  223.0283 H   0  0  0  0  0  0  0  0  0  0  0  0
  1  2  2  0
  2  3  1  0
  3  4  1  0
  4  5  1  0
  5  6  2  0
  5  7  1  0
  7  8  1  0
  8  9  1  0
  9 10  1  0
  9 11  1  0
 11 12  1  0
 12 13  1  0
 13 14  1  0
 14 15  1  0
 15 16  1  0
 16 17  2  0
 17 18  1  0
 18 19  2  0
 19 20  1  0
 20 21  2  0
  2 22  1  0
 22 23  2  0
 23 24  1  0
 24 25  2  0
 25 26  1  0
 26 27  2  0
 27 28  1  0
 28 29  2  0
 29 30  1  0
 30 31  2  0
 12  7  1  0
 21 16  1  0
 31 22  1  0
 30 25  1  0
  3 32  1  0
  4 33  1  0
  4 34  1  0
  8 35  1  0
  8 36  1  0
  9 37  1  6
 10 38  1  0
 11 39  1  0
 11 40  1  0
 12 41  1  6
 13 42  1  0
 13 43  1  0
 15 44  1  0
 15 45  1  0
 17 46  1  0
 18 47  1  0
 19 48  1  0
 20 49  1  0
 21 50  1  0
 23 51  1  0
 24 52  1  0
 26 53  1  0
 27 54  1  0
 28 55  1  0
 29 56  1  0
M  END
>  <smiles>  (8) 
O=C(NCC(=O)N1C[C@H](O)C[C@@H]1COCc1ccccc1)c1ccc2ccccc2n1

>  <score_type>  (8) 
oracle

>  <origin>  (8) 
autodockgpu

>  <m_score__min__energy>  (8) 
-9.1699999999999999

>  <m_primary>  (8) 
energy

>  <rmsd>  (8) 
7.889177796915742

>  <m_score__min__rmsd>  (8) 
7.889177796915742

>  <meeko>  (8) 
{"free_energy": -8.47, "intermolecular_energy": -11.15, "internal_energy": -1.99, "cluster_size": 16, "cluster_id": 2, "rank_in_cluster": 3}

>  <energy>  (8) 
-8.64

>  <cluster_rmsd>  (8) 
1.23

>  <cluster>  (8) 
1

$$$$

     RDKit          3D

 56 59  0  0  0  0  0  0  0  0999 V2000
  139.0200   75.3440  221.4060 O   0  0  0  0  0  0  0  0  0  0  0  0
  140.1060   75.8510  221.7840 C   0  0  0  0  0  0  0  0  0  0  0  0
  141.2550   74.9750  221.6730 N   0  0  0  0  0  0  0  0  0  0  0  0
  141.0270   73.6730  221.1610 C   0  0  0  0  0  0  0  0  0  0  0  0
  142.1590   72.7890  220.8820 C   0  0  0  0  0  0  0  0  0  0  0  0
  141.9370   71.5600  221.2880 O   0  0  0  0  0  0  0  0  0  0  0  0
  143.3840   73.0050  220.2920 N   0  0  0  0  0  0  0  0  0  0  0  0
  144.6270   72.2200  220.1930 C   0  0  0  0  0  0  0  0  0  0  0  0
  145.6830   73.2390  220.6070 C   0  0  2  0  0  0  0  0  0  0  0  0
  146.2050   73.0150  221.8570 O   0  0  0  0  0  0  0  0  0  0  0  0
  145.0070   74.5940  220.4540 C   0  0  0  0  0  0  0  0  0  0  0  0
  143.8090   74.2310  219.5650 C   0  0  2  0  0  0  0  0  0  0  0  0
  142.7960   75.3040  219.5200 C   0  0  0  0  0  0  0  0  0  0  0  0
  142.4800   75.5020  218.1500 O   0  0  0  0  0  0  0  0  0  0  0  0
  142.8950   76.7340  217.6880 C   0  0  0  0  0  0  0  0  0  0  0  0
  142.0820   77.7900  218.3300 C   0  0  0  0  0  0  0  0  0  0  0  0
  142.5640   79.0360  218.6680 C   0  0  0  0  0  0  0  0  0  0  0  0
  141.7470   79.9730  219.2650 C   0  0  0  0  0  0  0  0  0  0  0  0
  140.4360   79.6430  219.5190 C   0  0  0  0  0  0  0  0  0  0  0  0
  139.9040   78.4110  219.2020 C   0  0  0  0  0  0  0  0  0  0  0  0
  140.7480   77.4920  218.6040 C   0  0  0  0  0  0  0  0  0  0  0  0
  140.2440   77.2000  222.2960 C   0  0  0  0  0  0  0  0  0  0  0  0
  139.0890   77.8660  222.6490 C   0  0  0  0  0  0  0  0  0  0  0  0
  139.2060   79.1650  223.1430 C   0  0  0  0  0  0  0  0  0  0  0  0
  140.4590   79.7680  223.2750 C   0  0  0  0  0  0  0  0  0  0  0  0
  140.5630   81.0530  223.7650 C   0  0  0  0  0  0  0  0  0  0  0  0
  141.8280   81.6150  223.8790 C   0  0  0  0  0  0  0  0  0  0  0  0
  142.9370   80.8810  223.5040 C   0  0  0  0  0  0  0  0  0  0  0  0
  142.8310   79.5860  223.0110 C   0  0  0  0  0  0  0  0  0  0  0  0
  141.5730   79.0330  222.8990 C   0  0  0  0  0  0  0  0  0  0  0  0
  141.4550   77.7870  222.4250 N   0  0  0  0  0  0  0  0  0  0  0  0
  142.1820   75.3630  221.9810 H   0  0  0  0  0  0  0  0  0  0  0  0
  140.3892   73.1520  221.8902 H   0  0  0  0  0  0  0  0  0  0  0  0
  140.6027   73.8635  220.1642 H   0  0  0  0  0  0  0  0  0  0  0  0
  144.6117   71.3600  220.8787 H   0  0  0  0  0  0  0  0  0  0  0  0
  144.7978   71.7859  219.1968 H   0  0  0  0  0  0  0  0  0  0  0  0
  146.5774   73.1694  219.9705 H   0  0  0  0  0  0  0  0  0  0  0  0
  145.9660   72.1100  222.1870 H   0  0  0  0  0  0  0  0  0  0  0  0
  144.6814   74.9940  221.4256 H   0  0  0  0  0  0  0  0  0  0  0  0
  145.6566   75.3782  220.0380 H   0  0  0  0  0  0  0  0  0  0  0  0
  144.0071   74.0873  218.4926 H   0  0  0  0  0  0  0  0  0  0  0  0
  141.8972   75.0019  220.0776 H   0  0  0  0  0  0  0  0  0  0  0  0
  143.1753   76.2290  219.9788 H   0  0  0  0  0  0  0  0  0  0  0  0
  143.9559   76.8829  217.9376 H   0  0  0  0  0  0  0  0  0  0  0  0
  142.7699   76.7820  216.5962 H   0  0  0  0  0  0  0  0  0  0  0  0
  143.6145   79.2866  218.4588 H   0  0  0  0  0  0  0  0  0  0  0  0
  142.1366   80.9661  219.5332 H   0  0  0  0  0  0  0  0  0  0  0  0
  139.7857   80.3922  219.9942 H   0  0  0  0  0  0  0  0  0  0  0  0
  138.8525   78.1689  219.4156 H   0  0  0  0  0  0  0  0  0  0  0  0
  140.3558   76.4994  218.3376 H   0  0  0  0  0  0  0  0  0  0  0  0
  138.1045   77.3867  222.5440 H   0  0  0  0  0  0  0  0  0  0  0  0
  138.3017   79.7207  223.4318 H   0  0  0  0  0  0  0  0  0  0  0  0
  139.6664   81.6187  224.0582 H   0  0  0  0  0  0  0  0  0  0  0  0
  141.9463   82.6381  224.2654 H   0  0  0  0  0  0  0  0  0  0  0  0
  143.9342   81.3356  223.5986 H   0  0  0  0  0  0  0  0  0  0  0  0
  143.7262   79.0178  222.7182 H   0  0  0  0  0  0  0  0  0  0  0  0
  1  2  2  0
  2  3  1  0
  3  4  1  0
  4  5  1  0
  5  6  2  0
  5  7  1  0
  7  8  1  0
  8  9  1  0
  9 10  1  0
  9 11  1  0
 11 12  1  0
 12 13  1  0
 13 14  1  0
 14 15  1  0
 15 16  1  0
 16 17  2  0
 17 18  1  0
 18 19  2  0
 19 20  1  0
 20 21  2  0
  2 22  1  0
 22 23  2  0
 23 24  1  0
 24 25  2  0
 25 26  1  0
 26 27  2  0
 27 28  1  0
 28 29  2  0
 29 30  1  0
 30 31  2  0
 12  7  1  0
 21 16  1  0
 31 22  1  0
 30 25  1  0
  3 32  1  0
  4 33  1  0
  4 34  1  0
  8 35  1  0
  8 36  1  0
  9 37  1  6
 10 38  1  0
 11 39  1  0
 11 40  1  0
 12 41  1  6
 13 42  1  0
 13 43  1  0
 15 44  1  0
 15 45  1  0
 17 46  1  0
 18 47  1  0
 19 48  1  0
 20 49  1  0
 21 50  1  0
 23 51  1  0
 24 52  1  0
 26 53  1  0
 27 54  1  0
 28 55  1  0
 29 56  1  0
M  END
>  <smiles>  (9) 
O=C(NCC(=O)N1C[C@H](O)C[C@@H]1COCc1ccccc1)c1ccc2ccccc2n1

>  <score_type>  (9) 
oracle

>  <origin>  (9) 
autodockgpu

>  <m_score__min__energy>  (9) 
-9.1699999999999999

>  <m_primary>  (9) 
energy

>  <rmsd>  (9) 
7.799185970414345

>  <m_score__min__rmsd>  (9) 
7.799185970414345

>  <meeko>  (9) 
{"free_energy": -7.21, "intermolecular_energy": -9.9, "internal_energy": -2.58, "cluster_size": 2, "cluster_id": 6, "rank_in_cluster": 1}

>  <energy>  (9) 
-8.61

>  <cluster_rmsd>  (9) 
1.05

>  <cluster>  (9) 
1

$$$$

     RDKit          3D

 56 59  0  0  0  0  0  0  0  0999 V2000
  139.8430   70.9560  221.3750 O   0  0  0  0  0  0  0  0  0  0  0  0
  139.8650   71.4650  222.5240 C   0  0  0  0  0  0  0  0  0  0  0  0
  139.8730   72.9150  222.5450 N   0  0  0  0  0  0  0  0  0  0  0  0
  139.8530   73.5790  221.2930 C   0  0  0  0  0  0  0  0  0  0  0  0
  140.2710   74.9770  221.2010 C   0  0  0  0  0  0  0  0  0  0  0  0
  140.2000   75.5900  222.3610 O   0  0  0  0  0  0  0  0  0  0  0  0
  140.7100   75.7500  220.1500 N   0  0  0  0  0  0  0  0  0  0  0  0
  141.7020   75.5560  219.0780 C   0  0  0  0  0  0  0  0  0  0  0  0
  142.5130   76.8440  219.1560 C   0  0  2  0  0  0  0  0  0  0  0  0
  143.7650   76.6760  219.6930 O   0  0  0  0  0  0  0  0  0  0  0  0
  141.6360   77.8180  219.9290 C   0  0  0  0  0  0  0  0  0  0  0  0
  140.2660   77.1330  219.8260 C   0  0  2  0  0  0  0  0  0  0  0  0
  139.2800   77.7000  220.7660 C   0  0  0  0  0  0  0  0  0  0  0  0
  139.2390   79.0960  220.5130 O   0  0  0  0  0  0  0  0  0  0  0  0
  139.0720   79.8340  221.6660 C   0  0  0  0  0  0  0  0  0  0  0  0
  140.3720   79.9420  222.3650 C   0  0  0  0  0  0  0  0  0  0  0  0
  141.3600   80.8390  222.0220 C   0  0  0  0  0  0  0  0  0  0  0  0
  142.5490   80.8830  222.7190 C   0  0  0  0  0  0  0  0  0  0  0  0
  142.7330   80.0140  223.7690 C   0  0  0  0  0  0  0  0  0  0  0  0
  141.7770   79.0970  224.1530 C   0  0  0  0  0  0  0  0  0  0  0  0
  140.5950   79.0770  223.4340 C   0  0  0  0  0  0  0  0  0  0  0  0
  139.8830   70.7020  223.7560 C   0  0  0  0  0  0  0  0  0  0  0  0
  139.3170   69.4450  223.7320 C   0  0  0  0  0  0  0  0  0  0  0  0
  139.3260   68.6980  224.9100 C   0  0  0  0  0  0  0  0  0  0  0  0
  139.8950   69.2140  226.0770 C   0  0  0  0  0  0  0  0  0  0  0  0
  139.8980   68.4670  227.2370 C   0  0  0  0  0  0  0  0  0  0  0  0
  140.4730   69.0190  228.3740 C   0  0  0  0  0  0  0  0  0  0  0  0
  141.0200   70.2860  228.3170 C   0  0  0  0  0  0  0  0  0  0  0  0
  141.0160   71.0380  227.1480 C   0  0  0  0  0  0  0  0  0  0  0  0
  140.4440   70.4860  226.0210 C   0  0  0  0  0  0  0  0  0  0  0  0
  140.4320   71.1980  224.8870 N   0  0  0  0  0  0  0  0  0  0  0  0
  139.8930   73.3770  223.4890 H   0  0  0  0  0  0  0  0  0  0  0  0
  140.5077   73.0067  220.6193 H   0  0  0  0  0  0  0  0  0  0  0  0
  138.7822   73.6180  221.0442 H   0  0  0  0  0  0  0  0  0  0  0  0
  142.3319   74.6753  219.2716 H   0  0  0  0  0  0  0  0  0  0  0  0
  141.2552   75.3737  218.0895 H   0  0  0  0  0  0  0  0  0  0  0  0
  142.7453   77.2312  218.1530 H   0  0  0  0  0  0  0  0  0  0  0  0
  144.0740   77.5050  220.1430 H   0  0  0  0  0  0  0  0  0  0  0  0
  141.9624   77.9111  220.9753 H   0  0  0  0  0  0  0  0  0  0  0  0
  141.6559   78.8476  219.5424 H   0  0  0  0  0  0  0  0  0  0  0  0
  139.7259   77.2352  218.8732 H   0  0  0  0  0  0  0  0  0  0  0  0
  138.2898   77.2532  220.5934 H   0  0  0  0  0  0  0  0  0  0  0  0
  139.5600   77.4927  221.8094 H   0  0  0  0  0  0  0  0  0  0  0  0
  138.7069   80.8396  221.4100 H   0  0  0  0  0  0  0  0  0  0  0  0
  138.3398   79.3382  222.3203 H   0  0  0  0  0  0  0  0  0  0  0  0
  141.1981   81.5292  221.1809 H   0  0  0  0  0  0  0  0  0  0  0  0
  143.3356   81.5997  222.4404 H   0  0  0  0  0  0  0  0  0  0  0  0
  143.6813   80.0519  224.3252 H   0  0  0  0  0  0  0  0  0  0  0  0
  141.9471   78.4104  224.9954 H   0  0  0  0  0  0  0  0  0  0  0  0
  139.8103   78.3588  223.7140 H   0  0  0  0  0  0  0  0  0  0  0  0
  138.8711   69.0428  222.8104 H   0  0  0  0  0  0  0  0  0  0  0  0
  138.8805   67.6923  224.9202 H   0  0  0  0  0  0  0  0  0  0  0  0
  139.4562   67.4599  227.2605 H   0  0  0  0  0  0  0  0  0  0  0  0
  140.4928   68.4501  229.3153 H   0  0  0  0  0  0  0  0  0  0  0  0
  141.4725   70.7129  229.2242 H   0  0  0  0  0  0  0  0  0  0  0  0
  141.4569   72.0455  227.1225 H   0  0  0  0  0  0  0  0  0  0  0  0
  1  2  2  0
  2  3  1  0
  3  4  1  0
  4  5  1  0
  5  6  2  0
  5  7  1  0
  7  8  1  0
  8  9  1  0
  9 10  1  0
  9 11  1  0
 11 12  1  0
 12 13  1  0
 13 14  1  0
 14 15  1  0
 15 16  1  0
 16 17  2  0
 17 18  1  0
 18 19  2  0
 19 20  1  0
 20 21  2  0
  2 22  1  0
 22 23  2  0
 23 24  1  0
 24 25  2  0
 25 26  1  0
 26 27  2  0
 27 28  1  0
 28 29  2  0
 29 30  1  0
 30 31  2  0
 12  7  1  0
 21 16  1  0
 31 22  1  0
 30 25  1  0
  3 32  1  0
  4 33  1  0
  4 34  1  0
  8 35  1  0
  8 36  1  0
  9 37  1  6
 10 38  1  0
 11 39  1  0
 11 40  1  0
 12 41  1  6
 13 42  1  0
 13 43  1  0
 15 44  1  0
 15 45  1  0
 17 46  1  0
 18 47  1  0
 19 48  1  0
 20 49  1  0
 21 50  1  0
 23 51  1  0
 24 52  1  0
 26 53  1  0
 27 54  1  0
 28 55  1  0
 29 56  1  0
M  END
>  <smiles>  (10) 
O=C(NCC(=O)N1C[C@H](O)C[C@@H]1COCc1ccccc1)c1ccc2ccccc2n1

>  <score_type>  (10) 
oracle

>  <origin>  (10) 
autodockgpu

>  <m_score__min__energy>  (10) 
-9.1699999999999999

>  <m_primary>  (10) 
energy

>  <rmsd>  (10) 
1.6342821338422686

>  <m_score__min__rmsd>  (10) 
1.6342821338422686

>  <meeko>  (10) 
{"free_energy": -8.64, "intermolecular_energy": -11.33, "internal_energy": -1.93, "cluster_size": 24, "cluster_id": 1, "rank_in_cluster": 8}

>  <energy>  (10) 
-8.6

>  <cluster_rmsd>  (10) 
1.28

>  <cluster>  (10) 
1

$$$$

     RDKit          3D

 56 59  0  0  0  0  0  0  0  0999 V2000
  141.3470   75.4920  218.8150 O   0  0  0  0  0  0  0  0  0  0  0  0
  141.5840   76.4770  219.5580 C   0  0  0  0  0  0  0  0  0  0  0  0
  141.6430   76.1700  220.9730 N   0  0  0  0  0  0  0  0  0  0  0  0
  141.4320   74.8200  221.3500 C   0  0  0  0  0  0  0  0  0  0  0  0
  140.0720   74.3280  221.5700 C   0  0  0  0  0  0  0  0  0  0  0  0
  140.0460   73.2980  222.3840 O   0  0  0  0  0  0  0  0  0  0  0  0
  138.8470   74.7330  221.0890 N   0  0  0  0  0  0  0  0  0  0  0  0
  137.9910   74.3000  219.9710 C   0  0  0  0  0  0  0  0  0  0  0  0
  137.6590   75.6240  219.2910 C   0  0  2  0  0  0  0  0  0  0  0  0
  138.3080   75.8090  218.0960 O   0  0  0  0  0  0  0  0  0  0  0  0
  137.9660   76.6910  220.3320 C   0  0  0  0  0  0  0  0  0  0  0  0
  138.0180   75.8500  221.6160 C   0  0  2  0  0  0  0  0  0  0  0  0
  138.6190   76.5840  222.7460 C   0  0  0  0  0  0  0  0  0  0  0  0
  139.5450   77.5020  222.1830 O   0  0  0  0  0  0  0  0  0  0  0  0
  139.2450   78.8110  222.4980 C   0  0  0  0  0  0  0  0  0  0  0  0
  140.4860   79.5100  222.8990 C   0  0  0  0  0  0  0  0  0  0  0  0
  140.5220   80.7950  223.3940 C   0  0  0  0  0  0  0  0  0  0  0  0
  141.7170   81.3850  223.7470 C   0  0  0  0  0  0  0  0  0  0  0  0
  142.8790   80.6650  223.5990 C   0  0  0  0  0  0  0  0  0  0  0  0
  142.9000   79.3760  223.1080 C   0  0  0  0  0  0  0  0  0  0  0  0
  141.6840   78.8120  222.7620 C   0  0  0  0  0  0  0  0  0  0  0  0
  141.7890   77.8300  219.0790 C   0  0  0  0  0  0  0  0  0  0  0  0
  142.3680   77.9830  217.8370 C   0  0  0  0  0  0  0  0  0  0  0  0
  142.5720   79.2790  217.3640 C   0  0  0  0  0  0  0  0  0  0  0  0
  142.1970   80.3850  218.1290 C   0  0  0  0  0  0  0  0  0  0  0  0
  142.4040   81.6630  217.6510 C   0  0  0  0  0  0  0  0  0  0  0  0
  142.0170   82.7350  218.4450 C   0  0  0  0  0  0  0  0  0  0  0  0
  141.4430   82.4970  219.6800 C   0  0  0  0  0  0  0  0  0  0  0  0
  141.2350   81.2100  220.1600 C   0  0  0  0  0  0  0  0  0  0  0  0
  141.6210   80.1500  219.3690 C   0  0  0  0  0  0  0  0  0  0  0  0
  141.4280   78.9030  219.8180 N   0  0  0  0  0  0  0  0  0  0  0  0
  141.8380   76.9700  221.6270 H   0  0  0  0  0  0  0  0  0  0  0  0
  141.8715   74.1962  220.5577 H   0  0  0  0  0  0  0  0  0  0  0  0
  141.8879   74.7614  222.3494 H   0  0  0  0  0  0  0  0  0  0  0  0
  138.5331   73.6267  219.2907 H   0  0  0  0  0  0  0  0  0  0  0  0
  137.1046   73.7305  220.2872 H   0  0  0  0  0  0  0  0  0  0  0  0
  136.6033   75.6623  218.9844 H   0  0  0  0  0  0  0  0  0  0  0  0
  139.2850   75.6580  218.1930 H   0  0  0  0  0  0  0  0  0  0  0  0
  138.9297   77.1827  220.1330 H   0  0  0  0  0  0  0  0  0  0  0  0
  137.2380   77.5151  220.3616 H   0  0  0  0  0  0  0  0  0  0  0  0
  137.0561   75.5460  222.0546 H   0  0  0  0  0  0  0  0  0  0  0  0
  137.8409   77.1239  223.3055 H   0  0  0  0  0  0  0  0  0  0  0  0
  139.1156   75.8975  223.4475 H   0  0  0  0  0  0  0  0  0  0  0  0
  138.8084   79.3101  221.6203 H   0  0  0  0  0  0  0  0  0  0  0  0
  138.5218   78.8360  223.3264 H   0  0  0  0  0  0  0  0  0  0  0  0
  139.5842   81.3582  223.5092 H   0  0  0  0  0  0  0  0  0  0  0  0
  141.7404   82.4123  224.1396 H   0  0  0  0  0  0  0  0  0  0  0  0
  143.8312   81.1363  223.8839 H   0  0  0  0  0  0  0  0  0  0  0  0
  143.8426   78.8201  222.9962 H   0  0  0  0  0  0  0  0  0  0  0  0
  141.6631   77.7851  222.3683 H   0  0  0  0  0  0  0  0  0  0  0  0
  142.6604   77.1087  217.2370 H   0  0  0  0  0  0  0  0  0  0  0  0
  143.0335   79.4315  216.3772 H   0  0  0  0  0  0  0  0  0  0  0  0
  142.8641   81.8286  216.6656 H   0  0  0  0  0  0  0  0  0  0  0  0
  142.1663   83.7666  218.0935 H   0  0  0  0  0  0  0  0  0  0  0  0
  141.1417   83.3530  220.3017 H   0  0  0  0  0  0  0  0  0  0  0  0
  140.7747   81.0418  221.1448 H   0  0  0  0  0  0  0  0  0  0  0  0
  1  2  2  0
  2  3  1  0
  3  4  1  0
  4  5  1  0
  5  6  2  0
  5  7  1  0
  7  8  1  0
  8  9  1  0
  9 10  1  0
  9 11  1  0
 11 12  1  0
 12 13  1  0
 13 14  1  0
 14 15  1  0
 15 16  1  0
 16 17  2  0
 17 18  1  0
 18 19  2  0
 19 20  1  0
 20 21  2  0
  2 22  1  0
 22 23  2  0
 23 24  1  0
 24 25  2  0
 25 26  1  0
 26 27  2  0
 27 28  1  0
 28 29  2  0
 29 30  1  0
 30 31  2  0
 12  7  1  0
 21 16  1  0
 31 22  1  0
 30 25  1  0
  3 32  1  0
  4 33  1  0
  4 34  1  0
  8 35  1  0
  8 36  1  0
  9 37  1  6
 10 38  1  0
 11 39  1  0
 11 40  1  0
 12 41  1  1
 13 42  1  0
 13 43  1  0
 15 44  1  0
 15 45  1  0
 17 46  1  0
 18 47  1  0
 19 48  1  0
 20 49  1  0
 21 50  1  0
 23 51  1  0
 24 52  1  0
 26 53  1  0
 27 54  1  0
 28 55  1  0
 29 56  1  0
M  END
>  <smiles>  (11) 
O=C(NCC(=O)N1C[C@H](O)C[C@@H]1COCc1ccccc1)c1ccc2ccccc2n1

>  <score_type>  (11) 
oracle

>  <origin>  (11) 
autodockgpu

>  <m_score__min__energy>  (11) 
-9.1699999999999999

>  <m_primary>  (11) 
energy

>  <rmsd>  (11) 
9.028412771794375

>  <m_score__min__rmsd>  (11) 
9.028412771794375

>  <meeko>  (11) 
{"free_energy": -5.7, "intermolecular_energy": -8.38, "internal_energy": -4.31, "cluster_size": 1, "cluster_id": 7, "rank_in_cluster": 1}

>  <energy>  (11) 
-8.58

>  <cluster_rmsd>  (11) 
1.3

>  <cluster>  (11) 
1

$$$$

     RDKit          3D

 56 59  0  0  0  0  0  0  0  0999 V2000
  141.1900   72.3580  221.8370 O   0  0  0  0  0  0  0  0  0  0  0  0
  140.2290   72.3170  222.6460 C   0  0  0  0  0  0  0  0  0  0  0  0
  139.1590   73.2530  222.3660 N   0  0  0  0  0  0  0  0  0  0  0  0
  139.3140   74.0910  221.2330 C   0  0  0  0  0  0  0  0  0  0  0  0
  140.5470   74.8570  221.0550 C   0  0  0  0  0  0  0  0  0  0  0  0
  140.6980   75.7710  221.9850 O   0  0  0  0  0  0  0  0  0  0  0  0
  141.5500   74.8000  220.1130 N   0  0  0  0  0  0  0  0  0  0  0  0
  142.1070   73.7260  219.2720 C   0  0  0  0  0  0  0  0  0  0  0  0
  143.6050   73.8780  219.5100 C   0  0  2  0  0  0  0  0  0  0  0  0
  144.1430   72.8900  220.2970 O   0  0  0  0  0  0  0  0  0  0  0  0
  143.7750   75.2800  220.0780 C   0  0  0  0  0  0  0  0  0  0  0  0
  142.4340   75.9220  219.6960 C   0  0  2  0  0  0  0  0  0  0  0  0
  142.1940   77.1920  220.4080 C   0  0  0  0  0  0  0  0  0  0  0  0
  141.0670   77.7940  219.7890 O   0  0  0  0  0  0  0  0  0  0  0  0
  140.2330   78.4080  220.7000 C   0  0  0  0  0  0  0  0  0  0  0  0
  141.0530   79.0590  221.7460 C   0  0  0  0  0  0  0  0  0  0  0  0
  141.8420   80.1670  221.5290 C   0  0  0  0  0  0  0  0  0  0  0  0
  142.5810   80.7210  222.5530 C   0  0  0  0  0  0  0  0  0  0  0  0
  142.5180   80.1470  223.8010 C   0  0  0  0  0  0  0  0  0  0  0  0
  141.7450   79.0370  224.0720 C   0  0  0  0  0  0  0  0  0  0  0  0
  141.0150   78.5040  223.0240 C   0  0  0  0  0  0  0  0  0  0  0  0
  140.1570   71.4200  223.7820 C   0  0  0  0  0  0  0  0  0  0  0  0
  139.5780   70.1850  223.5800 C   0  0  0  0  0  0  0  0  0  0  0  0
  139.5010   69.3110  224.6640 C   0  0  0  0  0  0  0  0  0  0  0  0
  139.9970   69.6820  225.9160 C   0  0  0  0  0  0  0  0  0  0  0  0
  139.9150   68.8090  226.9810 C   0  0  0  0  0  0  0  0  0  0  0  0
  140.4200   69.2180  228.2080 C   0  0  0  0  0  0  0  0  0  0  0  0
  140.9850   70.4740  228.3300 C   0  0  0  0  0  0  0  0  0  0  0  0
  141.0680   71.3510  227.2560 C   0  0  0  0  0  0  0  0  0  0  0  0
  140.5640   70.9410  226.0400 C   0  0  0  0  0  0  0  0  0  0  0  0
  140.6360   71.7750  224.9950 N   0  0  0  0  0  0  0  0  0  0  0  0
  138.3380   73.2490  223.0220 H   0  0  0  0  0  0  0  0  0  0  0  0
  139.2077   73.4492  220.3460 H   0  0  0  0  0  0  0  0  0  0  0  0
  138.5521   74.8693  221.3872 H   0  0  0  0  0  0  0  0  0  0  0  0
  141.7493   72.7380  219.5974 H   0  0  0  0  0  0  0  0  0  0  0  0
  141.8176   73.7980  218.2132 H   0  0  0  0  0  0  0  0  0  0  0  0
  144.1719   73.7577  218.5750 H   0  0  0  0  0  0  0  0  0  0  0  0
  143.4620   72.5160  220.9150 H   0  0  0  0  0  0  0  0  0  0  0  0
  143.9153   75.2586  221.1688 H   0  0  0  0  0  0  0  0  0  0  0  0
  144.6567   75.8169  219.6980 H   0  0  0  0  0  0  0  0  0  0  0  0
  142.3133   76.2438  218.6511 H   0  0  0  0  0  0  0  0  0  0  0  0
  141.9858   76.9985  221.4707 H   0  0  0  0  0  0  0  0  0  0  0  0
  143.0745   77.8494  220.3570 H   0  0  0  0  0  0  0  0  0  0  0  0
  139.6213   79.1650  220.1874 H   0  0  0  0  0  0  0  0  0  0  0  0
  139.5720   77.6589  221.1604 H   0  0  0  0  0  0  0  0  0  0  0  0
  141.8831   80.6159  220.5256 H   0  0  0  0  0  0  0  0  0  0  0  0
  143.2095   81.6060  222.3747 H   0  0  0  0  0  0  0  0  0  0  0  0
  143.1080   80.5910  224.6164 H   0  0  0  0  0  0  0  0  0  0  0  0
  141.7103   78.5943  225.0784 H   0  0  0  0  0  0  0  0  0  0  0  0
  140.3879   77.6185  223.2045 H   0  0  0  0  0  0  0  0  0  0  0  0
  139.1881   69.8975  222.5924 H   0  0  0  0  0  0  0  0  0  0  0  0
  139.0448   68.3188  224.5317 H   0  0  0  0  0  0  0  0  0  0  0  0
  139.4611   67.8142  226.8612 H   0  0  0  0  0  0  0  0  0  0  0  0
  140.3709   68.5467  229.0780 H   0  0  0  0  0  0  0  0  0  0  0  0
  141.3807   70.7882  229.3071 H   0  0  0  0  0  0  0  0  0  0  0  0
  141.5234   72.3455  227.3725 H   0  0  0  0  0  0  0  0  0  0  0  0
  1  2  2  0
  2  3  1  0
  3  4  1  0
  4  5  1  0
  5  6  2  0
  5  7  1  0
  7  8  1  0
  8  9  1  0
  9 10  1  0
  9 11  1  0
 11 12  1  0
 12 13  1  0
 13 14  1  0
 14 15  1  0
 15 16  1  0
 16 17  2  0
 17 18  1  0
 18 19  2  0
 19 20  1  0
 20 21  2  0
  2 22  1  0
 22 23  2  0
 23 24  1  0
 24 25  2  0
 25 26  1  0
 26 27  2  0
 27 28  1  0
 28 29  2  0
 29 30  1  0
 30 31  2  0
 12  7  1  0
 21 16  1  0
 31 22  1  0
 30 25  1  0
  3 32  1  0
  4 33  1  0
  4 34  1  0
  8 35  1  0
  8 36  1  0
  9 37  1  6
 10 38  1  0
 11 39  1  0
 11 40  1  0
 12 41  1  6
 13 42  1  0
 13 43  1  0
 15 44  1  0
 15 45  1  0
 17 46  1  0
 18 47  1  0
 19 48  1  0
 20 49  1  0
 21 50  1  0
 23 51  1  0
 24 52  1  0
 26 53  1  0
 27 54  1  0
 28 55  1  0
 29 56  1  0
M  END
>  <smiles>  (12) 
O=C(NCC(=O)N1C[C@H](O)C[C@@H]1COCc1ccccc1)c1ccc2ccccc2n1

>  <score_type>  (12) 
oracle

>  <origin>  (12) 
autodockgpu

>  <m_score__min__energy>  (12) 
-9.1699999999999999

>  <m_primary>  (12) 
energy

>  <rmsd>  (12) 
2.226345163139381

>  <m_score__min__rmsd>  (12) 
2.226345163139381

>  <meeko>  (12) 
{"free_energy": -8.58, "intermolecular_energy": -11.26, "internal_energy": -1.67, "cluster_size": 24, "cluster_id": 1, "rank_in_cluster": 12}

>  <energy>  (12) 
-8.58

>  <cluster_rmsd>  (12) 
1.16

>  <cluster>  (12) 
1

$$$$

     RDKit          3D

 56 59  0  0  0  0  0  0  0  0999 V2000
  140.2950   71.9960  222.8370 O   0  0  0  0  0  0  0  0  0  0  0  0
  140.5920   72.5010  221.7260 C   0  0  0  0  0  0  0  0  0  0  0  0
  140.6500   71.5580  220.6270 N   0  0  0  0  0  0  0  0  0  0  0  0
  140.3690   70.2010  220.9250 C   0  0  0  0  0  0  0  0  0  0  0  0
  138.9940   69.7820  221.1930 C   0  0  0  0  0  0  0  0  0  0  0  0
  138.8160   68.5010  220.9690 O   0  0  0  0  0  0  0  0  0  0  0  0
  137.8800   70.4680  221.6220 N   0  0  0  0  0  0  0  0  0  0  0  0
  137.1300   71.6290  221.1110 C   0  0  0  0  0  0  0  0  0  0  0  0
  137.0080   72.5030  222.3540 C   0  0  2  0  0  0  0  0  0  0  0  0
  137.8130   73.6150  222.3280 O   0  0  0  0  0  0  0  0  0  0  0  0
  137.2820   71.5690  223.5240 C   0  0  0  0  0  0  0  0  0  0  0  0
  137.0990   70.1970  222.8600 C   0  0  2  0  0  0  0  0  0  0  0  0
  137.6230   69.0950  223.6900 C   0  0  0  0  0  0  0  0  0  0  0  0
  138.2100   69.6970  224.8340 O   0  0  0  0  0  0  0  0  0  0  0  0
  139.5840   69.5730  224.8450 C   0  0  0  0  0  0  0  0  0  0  0  0
  140.1360   70.4030  225.9390 C   0  0  0  0  0  0  0  0  0  0  0  0
  140.9300   71.5110  225.7420 C   0  0  0  0  0  0  0  0  0  0  0  0
  141.4110   72.2370  226.8100 C   0  0  0  0  0  0  0  0  0  0  0  0
  141.0830   71.8360  228.0850 C   0  0  0  0  0  0  0  0  0  0  0  0
  140.2920   70.7350  228.3380 C   0  0  0  0  0  0  0  0  0  0  0  0
  139.8250   70.0260  227.2450 C   0  0  0  0  0  0  0  0  0  0  0  0
  140.8630   73.9100  221.5140 C   0  0  0  0  0  0  0  0  0  0  0  0
  141.8500   74.2370  220.6080 C   0  0  0  0  0  0  0  0  0  0  0  0
  142.1220   75.5870  220.3940 C   0  0  0  0  0  0  0  0  0  0  0  0
  141.4130   76.5750  221.0800 C   0  0  0  0  0  0  0  0  0  0  0  0
  141.6920   77.9090  220.8610 C   0  0  0  0  0  0  0  0  0  0  0  0
  140.9630   78.8590  221.5650 C   0  0  0  0  0  0  0  0  0  0  0  0
  139.9890   78.4490  222.4570 C   0  0  0  0  0  0  0  0  0  0  0  0
  139.7100   77.1060  222.6760 C   0  0  0  0  0  0  0  0  0  0  0  0
  140.4370   76.1670  221.9760 C   0  0  0  0  0  0  0  0  0  0  0  0
  140.1790   74.8690  222.1770 N   0  0  0  0  0  0  0  0  0  0  0  0
  140.8980   71.9440  219.6800 H   0  0  0  0  0  0  0  0  0  0  0  0
  140.7206   69.6080  220.0678 H   0  0  0  0  0  0  0  0  0  0  0  0
  140.8744   70.0435  221.8893 H   0  0  0  0  0  0  0  0  0  0  0  0
  137.6861   72.1441  220.3138 H   0  0  0  0  0  0  0  0  0  0  0  0
  136.1626   71.3663  220.6581 H   0  0  0  0  0  0  0  0  0  0  0  0
  136.0057   72.9496  222.4317 H   0  0  0  0  0  0  0  0  0  0  0  0
  138.6730   73.4430  222.7920 H   0  0  0  0  0  0  0  0  0  0  0  0
  138.3038   71.6965  223.9108 H   0  0  0  0  0  0  0  0  0  0  0  0
  136.6348   71.7377  224.3973 H   0  0  0  0  0  0  0  0  0  0  0  0
  136.0666   69.8569  222.6912 H   0  0  0  0  0  0  0  0  0  0  0  0
  136.8052   68.4238  223.9911 H   0  0  0  0  0  0  0  0  0  0  0  0
  138.3581   68.4935  223.1352 H   0  0  0  0  0  0  0  0  0  0  0  0
  139.8576   68.5200  225.0074 H   0  0  0  0  0  0  0  0  0  0  0  0
  139.9943   69.9091  223.8813 H   0  0  0  0  0  0  0  0  0  0  0  0
  141.1838   71.8209  224.7175 H   0  0  0  0  0  0  0  0  0  0  0  0
  142.0454   73.1206  226.6464 H   0  0  0  0  0  0  0  0  0  0  0  0
  141.4671   72.4170  228.9364 H   0  0  0  0  0  0  0  0  0  0  0  0
  140.0426   70.4329  229.3659 H   0  0  0  0  0  0  0  0  0  0  0  0
  139.1919   69.1419  227.4109 H   0  0  0  0  0  0  0  0  0  0  0  0
  142.4063   73.4552  220.0701 H   0  0  0  0  0  0  0  0  0  0  0  0
  142.9038   75.8773  219.6768 H   0  0  0  0  0  0  0  0  0  0  0  0
  142.4719   78.2121  220.1470 H   0  0  0  0  0  0  0  0  0  0  0  0
  141.1592   79.9308  221.4139 H   0  0  0  0  0  0  0  0  0  0  0  0
  139.4179   79.2094  223.0098 H   0  0  0  0  0  0  0  0  0  0  0  0
  138.9300   76.8000  223.3887 H   0  0  0  0  0  0  0  0  0  0  0  0
  1  2  2  0
  2  3  1  0
  3  4  1  0
  4  5  1  0
  5  6  2  0
  5  7  1  0
  7  8  1  0
  8  9  1  0
  9 10  1  0
  9 11  1  0
 11 12  1  0
 12 13  1  0
 13 14  1  0
 14 15  1  0
 15 16  1  0
 16 17  2  0
 17 18  1  0
 18 19  2  0
 19 20  1  0
 20 21  2  0
  2 22  1  0
 22 23  2  0
 23 24  1  0
 24 25  2  0
 25 26  1  0
 26 27  2  0
 27 28  1  0
 28 29  2  0
 29 30  1  0
 30 31  2  0
 12  7  1  0
 21 16  1  0
 31 22  1  0
 30 25  1  0
  3 32  1  0
  4 33  1  0
  4 34  1  0
  8 35  1  0
  8 36  1  0
  9 37  1  1
 10 38  1  0
 11 39  1  0
 11 40  1  0
 12 41  1  6
 13 42  1  0
 13 43  1  0
 15 44  1  0
 15 45  1  0
 17 46  1  0
 18 47  1  0
 19 48  1  0
 20 49  1  0
 21 50  1  0
 23 51  1  0
 24 52  1  0
 26 53  1  0
 27 54  1  0
 28 55  1  0
 29 56  1  0
M  END
>  <smiles>  (13) 
O=C(NCC(=O)N1C[C@H](O)C[C@@H]1COCc1ccccc1)c1ccc2ccccc2n1

>  <score_type>  (13) 
oracle

>  <origin>  (13) 
autodockgpu

>  <m_score__min__energy>  (13) 
-9.1699999999999999

>  <m_primary>  (13) 
energy

>  <rmsd>  (13) 
7.363971883014124

>  <m_score__min__rmsd>  (13) 
7.363971883014124

>  <meeko>  (13) 
{"free_energy": -6.91, "intermolecular_energy": -9.59, "internal_energy": -3.63, "cluster_size": 16, "cluster_id": 2, "rank_in_cluster": 13}

>  <energy>  (13) 
-8.57

>  <cluster_rmsd>  (13) 
1.45

>  <cluster>  (13) 
1

$$$$

     RDKit          3D

 56 59  0  0  0  0  0  0  0  0999 V2000
  138.6160   70.6290  221.5920 O   0  0  0  0  0  0  0  0  0  0  0  0
  138.3730   71.1860  222.6920 C   0  0  0  0  0  0  0  0  0  0  0  0
  137.5170   72.3530  222.6050 N   0  0  0  0  0  0  0  0  0  0  0  0
  137.0600   72.7230  221.3150 C   0  0  0  0  0  0  0  0  0  0  0  0
  137.9940   73.2960  220.3460 C   0  0  0  0  0  0  0  0  0  0  0  0
  137.3720   73.8530  219.3320 O   0  0  0  0  0  0  0  0  0  0  0  0
  139.3690   73.3530  220.3010 N   0  0  0  0  0  0  0  0  0  0  0  0
  140.4320   72.3470  220.1330 C   0  0  0  0  0  0  0  0  0  0  0  0
  141.3780   72.6870  221.2790 C   0  0  2  0  0  0  0  0  0  0  0  0
  141.3440   71.7830  222.3110 O   0  0  0  0  0  0  0  0  0  0  0  0
  141.0090   74.1060  221.6890 C   0  0  0  0  0  0  0  0  0  0  0  0
  140.2070   74.5710  220.4660 C   0  0  2  0  0  0  0  0  0  0  0  0
  139.4490   75.8100  220.7270 C   0  0  0  0  0  0  0  0  0  0  0  0
  140.1980   76.5460  221.6840 O   0  0  0  0  0  0  0  0  0  0  0  0
  141.1400   77.3650  221.0970 C   0  0  0  0  0  0  0  0  0  0  0  0
  141.4850   78.4560  222.0340 C   0  0  0  0  0  0  0  0  0  0  0  0
  141.4750   78.3270  223.4060 C   0  0  0  0  0  0  0  0  0  0  0  0
  141.8090   79.3890  224.2200 C   0  0  0  0  0  0  0  0  0  0  0  0
  142.1540   80.5860  223.6370 C   0  0  0  0  0  0  0  0  0  0  0  0
  142.1790   80.7690  222.2700 C   0  0  0  0  0  0  0  0  0  0  0  0
  141.8390   79.6850  221.4800 C   0  0  0  0  0  0  0  0  0  0  0  0
  138.8870   70.7320  223.9690 C   0  0  0  0  0  0  0  0  0  0  0  0
  138.5340   69.4650  224.3810 C   0  0  0  0  0  0  0  0  0  0  0  0
  139.0200   69.0140  225.6070 C   0  0  0  0  0  0  0  0  0  0  0  0
  139.8410   69.8280  226.3910 C   0  0  0  0  0  0  0  0  0  0  0  0
  140.3170   69.3720  227.6040 C   0  0  0  0  0  0  0  0  0  0  0  0
  141.1300   70.2140  228.3520 C   0  0  0  0  0  0  0  0  0  0  0  0
  141.4380   71.4720  227.8690 C   0  0  0  0  0  0  0  0  0  0  0  0
  140.9580   71.9290  226.6480 C   0  0  0  0  0  0  0  0  0  0  0  0
  140.1510   71.0900  225.9090 C   0  0  0  0  0  0  0  0  0  0  0  0
  139.6810   71.5170  224.7300 N   0  0  0  0  0  0  0  0  0  0  0  0
  137.2920   72.8470  223.5050 H   0  0  0  0  0  0  0  0  0  0  0  0
  136.6405   71.8165  220.8543 H   0  0  0  0  0  0  0  0  0  0  0  0
  136.3669   73.5523  221.5199 H   0  0  0  0  0  0  0  0  0  0  0  0
  140.0348   71.3261  220.2327 H   0  0  0  0  0  0  0  0  0  0  0  0
  140.9104   72.3700  219.1427 H   0  0  0  0  0  0  0  0  0  0  0  0
  142.4290   72.6274  220.9599 H   0  0  0  0  0  0  0  0  0  0  0  0
  140.4090   71.5900  222.5860 H   0  0  0  0  0  0  0  0  0  0  0  0
  140.3944   74.1150  222.6012 H   0  0  0  0  0  0  0  0  0  0  0  0
  141.8713   74.7441  221.9325 H   0  0  0  0  0  0  0  0  0  0  0  0
  140.7803   74.8628  219.5737 H   0  0  0  0  0  0  0  0  0  0  0  0
  139.3407   76.3919  219.7998 H   0  0  0  0  0  0  0  0  0  0  0  0
  138.4378   75.5874  221.0984 H   0  0  0  0  0  0  0  0  0  0  0  0
  142.0423   76.7805  220.8642 H   0  0  0  0  0  0  0  0  0  0  0  0
  140.7335   77.7900  220.1674 H   0  0  0  0  0  0  0  0  0  0  0  0
  141.1968   77.3636  223.8582 H   0  0  0  0  0  0  0  0  0  0  0  0
  141.7997   79.2808  225.3146 H   0  0  0  0  0  0  0  0  0  0  0  0
  142.4209   81.4320  224.2874 H   0  0  0  0  0  0  0  0  0  0  0  0
  142.4576   81.7363  221.8264 H   0  0  0  0  0  0  0  0  0  0  0  0
  141.8484   79.7962  220.3857 H   0  0  0  0  0  0  0  0  0  0  0  0
  137.8872   68.8279  223.7600 H   0  0  0  0  0  0  0  0  0  0  0  0
  138.7544   68.0069  225.9608 H   0  0  0  0  0  0  0  0  0  0  0  0
  140.0589   68.3670  227.9691 H   0  0  0  0  0  0  0  0  0  0  0  0
  141.5263   69.8817  229.3228 H   0  0  0  0  0  0  0  0  0  0  0  0
  142.0824   72.1310  228.4694 H   0  0  0  0  0  0  0  0  0  0  0  0
  141.2149   72.9335  226.2805 H   0  0  0  0  0  0  0  0  0  0  0  0
  1  2  2  0
  2  3  1  0
  3  4  1  0
  4  5  1  0
  5  6  2  0
  5  7  1  0
  7  8  1  0
  8  9  1  0
  9 10  1  0
  9 11  1  0
 11 12  1  0
 12 13  1  0
 13 14  1  0
 14 15  1  0
 15 16  1  0
 16 17  2  0
 17 18  1  0
 18 19  2  0
 19 20  1  0
 20 21  2  0
  2 22  1  0
 22 23  2  0
 23 24  1  0
 24 25  2  0
 25 26  1  0
 26 27  2  0
 27 28  1  0
 28 29  2  0
 29 30  1  0
 30 31  2  0
 12  7  1  0
 21 16  1  0
 31 22  1  0
 30 25  1  0
  3 32  1  0
  4 33  1  0
  4 34  1  0
  8 35  1  0
  8 36  1  0
  9 37  1  6
 10 38  1  0
 11 39  1  0
 11 40  1  0
 12 41  1  6
 13 42  1  0
 13 43  1  0
 15 44  1  0
 15 45  1  0
 17 46  1  0
 18 47  1  0
 19 48  1  0
 20 49  1  0
 21 50  1  0
 23 51  1  0
 24 52  1  0
 26 53  1  0
 27 54  1  0
 28 55  1  0
 29 56  1  0
M  END
>  <smiles>  (14) 
O=C(NCC(=O)N1C[C@H](O)C[C@@H]1COCc1ccccc1)c1ccc2ccccc2n1

>  <score_type>  (14) 
oracle

>  <origin>  (14) 
autodockgpu

>  <m_score__min__energy>  (14) 
-9.1699999999999999

>  <m_primary>  (14) 
energy

>  <rmsd>  (14) 
2.614953362409053

>  <m_score__min__rmsd>  (14) 
2.614953362409053

>  <meeko>  (14) 
{"free_energy": -7.3, "intermolecular_energy": -9.98, "internal_energy": -2.77, "cluster_size": 24, "cluster_id": 1, "rank_in_cluster": 23}

>  <energy>  (14) 
-8.55

>  <cluster_rmsd>  (14) 
1.23

>  <cluster>  (14) 
1

$$$$

     RDKit          3D

 56 59  0  0  0  0  0  0  0  0999 V2000
  138.6000   72.3150  222.5870 O   0  0  0  0  0  0  0  0  0  0  0  0
  139.5930   71.5830  222.8290 C   0  0  0  0  0  0  0  0  0  0  0  0
  140.6760   71.6940  221.8720 N   0  0  0  0  0  0  0  0  0  0  0  0
  140.4960   72.5980  220.7950 C   0  0  0  0  0  0  0  0  0  0  0  0
  140.7240   74.0290  220.9960 C   0  0  0  0  0  0  0  0  0  0  0  0
  140.7000   74.3580  222.2670 O   0  0  0  0  0  0  0  0  0  0  0  0
  140.9490   75.0670  220.1200 N   0  0  0  0  0  0  0  0  0  0  0  0
  141.8720   75.2740  218.9910 C   0  0  0  0  0  0  0  0  0  0  0  0
  142.4710   76.6380  219.3130 C   0  0  2  0  0  0  0  0  0  0  0  0
  143.7720   76.5820  219.7460 O   0  0  0  0  0  0  0  0  0  0  0  0
  141.5130   77.2640  220.3160 C   0  0  0  0  0  0  0  0  0  0  0  0
  140.2660   76.3890  220.1250 C   0  0  2  0  0  0  0  0  0  0  0  0
  139.2800   76.5690  221.2080 C   0  0  0  0  0  0  0  0  0  0  0  0
  139.9960   77.0790  222.3240 O   0  0  0  0  0  0  0  0  0  0  0  0
  139.4890   78.2840  222.7660 C   0  0  0  0  0  0  0  0  0  0  0  0
  140.6070   79.2260  222.9900 C   0  0  0  0  0  0  0  0  0  0  0  0
  141.8970   78.8390  223.2780 C   0  0  0  0  0  0  0  0  0  0  0  0
  142.8910   79.7740  223.4760 C   0  0  0  0  0  0  0  0  0  0  0  0
  142.5710   81.1090  223.3800 C   0  0  0  0  0  0  0  0  0  0  0  0
  141.2960   81.5510  223.0950 C   0  0  0  0  0  0  0  0  0  0  0  0
  140.3210   80.5880  222.9020 C   0  0  0  0  0  0  0  0  0  0  0  0
  139.6900   70.6860  223.9630 C   0  0  0  0  0  0  0  0  0  0  0  0
  139.1140   69.4390  223.8370 C   0  0  0  0  0  0  0  0  0  0  0  0
  139.1980   68.5650  224.9190 C   0  0  0  0  0  0  0  0  0  0  0  0
  139.8500   68.9450  226.0940 C   0  0  0  0  0  0  0  0  0  0  0  0
  139.9270   68.0710  227.1600 C   0  0  0  0  0  0  0  0  0  0  0  0
  140.5830   68.4910  228.3100 C   0  0  0  0  0  0  0  0  0  0  0  0
  141.1350   69.7570  228.3570 C   0  0  0  0  0  0  0  0  0  0  0  0
  141.0570   70.6360  227.2840 C   0  0  0  0  0  0  0  0  0  0  0  0
  140.4030   70.2150  226.1450 C   0  0  0  0  0  0  0  0  0  0  0  0
  140.3190   71.0510  225.1020 N   0  0  0  0  0  0  0  0  0  0  0  0
  141.5240   71.0960  222.0400 H   0  0  0  0  0  0  0  0  0  0  0  0
  141.1778   72.2772  219.9936 H   0  0  0  0  0  0  0  0  0  0  0  0
  139.4162   72.5396  220.5933 H   0  0  0  0  0  0  0  0  0  0  0  0
  142.6475   74.4945  218.9614 H   0  0  0  0  0  0  0  0  0  0  0  0
  141.3839   75.2267  218.0064 H   0  0  0  0  0  0  0  0  0  0  0  0
  142.5592   77.2588  218.4092 H   0  0  0  0  0  0  0  0  0  0  0  0
  144.0630   77.4550  220.1170 H   0  0  0  0  0  0  0  0  0  0  0  0
  141.9015   77.1932  221.3426 H   0  0  0  0  0  0  0  0  0  0  0  0
  141.3377   78.3390  220.1620 H   0  0  0  0  0  0  0  0  0  0  0  0
  139.6429   76.5921  219.2416 H   0  0  0  0  0  0  0  0  0  0  0  0
  138.5011   77.2813  220.8983 H   0  0  0  0  0  0  0  0  0  0  0  0
  138.7820   75.6197  221.4547 H   0  0  0  0  0  0  0  0  0  0  0  0
  138.8059   78.6963  222.0088 H   0  0  0  0  0  0  0  0  0  0  0  0
  138.9382   78.1321  223.7060 H   0  0  0  0  0  0  0  0  0  0  0  0
  142.1380   77.7682  223.3512 H   0  0  0  0  0  0  0  0  0  0  0  0
  143.9195   79.4590  223.7061 H   0  0  0  0  0  0  0  0  0  0  0  0
  143.3647   81.8542  223.5370 H   0  0  0  0  0  0  0  0  0  0  0  0
  141.0638   82.6239  223.0241 H   0  0  0  0  0  0  0  0  0  0  0  0
  139.2930   80.9054  222.6730 H   0  0  0  0  0  0  0  0  0  0  0  0
  138.6030   69.1430  222.9090 H   0  0  0  0  0  0  0  0  0  0  0  0
  138.7458   67.5648  224.8468 H   0  0  0  0  0  0  0  0  0  0  0  0
  139.4802   67.0676  227.1001 H   0  0  0  0  0  0  0  0  0  0  0  0
  140.6626   67.8200  229.1780 H   0  0  0  0  0  0  0  0  0  0  0  0
  141.6524   70.0789  229.2728 H   0  0  0  0  0  0  0  0  0  0  0  0
  141.5042   71.6394  227.3412 H   0  0  0  0  0  0  0  0  0  0  0  0
  1  2  2  0
  2  3  1  0
  3  4  1  0
  4  5  1  0
  5  6  2  0
  5  7  1  0
  7  8  1  0
  8  9  1  0
  9 10  1  0
  9 11  1  0
 11 12  1  0
 12 13  1  0
 13 14  1  0
 14 15  1  0
 15 16  1  0
 16 17  2  0
 17 18  1  0
 18 19  2  0
 19 20  1  0
 20 21  2  0
  2 22  1  0
 22 23  2  0
 23 24  1  0
 24 25  2  0
 25 26  1  0
 26 27  2  0
 27 28  1  0
 28 29  2  0
 29 30  1  0
 30 31  2  0
 12  7  1  0
 21 16  1  0
 31 22  1  0
 30 25  1  0
  3 32  1  0
  4 33  1  0
  4 34  1  0
  8 35  1  0
  8 36  1  0
  9 37  1  6
 10 38  1  0
 11 39  1  0
 11 40  1  0
 12 41  1  6
 13 42  1  0
 13 43  1  0
 15 44  1  0
 15 45  1  0
 17 46  1  0
 18 47  1  0
 19 48  1  0
 20 49  1  0
 21 50  1  0
 23 51  1  0
 24 52  1  0
 26 53  1  0
 27 54  1  0
 28 55  1  0
 29 56  1  0
M  END
>  <smiles>  (15) 
O=C(NCC(=O)N1C[C@H](O)C[C@@H]1COCc1ccccc1)c1ccc2ccccc2n1

>  <score_type>  (15) 
oracle

>  <origin>  (15) 
autodockgpu

>  <m_score__min__energy>  (15) 
-9.1699999999999999

>  <m_primary>  (15) 
energy

>  <rmsd>  (15) 
1.959907380702646

>  <m_score__min__rmsd>  (15) 
1.959907380702646

>  <meeko>  (15) 
{"free_energy": -8.81, "intermolecular_energy": -11.5, "internal_energy": -1.43, "cluster_size": 24, "cluster_id": 1, "rank_in_cluster": 7}

>  <energy>  (15) 
-8.48

>  <cluster_rmsd>  (15) 
1.37

>  <cluster>  (15) 
1

$$$$

     RDKit          3D

 56 59  0  0  0  0  0  0  0  0999 V2000
  140.9260   71.8440  221.6920 O   0  0  0  0  0  0  0  0  0  0  0  0
  140.0490   71.9260  222.5890 C   0  0  0  0  0  0  0  0  0  0  0  0
  139.0270   72.9240  222.3480 N   0  0  0  0  0  0  0  0  0  0  0  0
  139.1300   73.6790  221.1530 C   0  0  0  0  0  0  0  0  0  0  0  0
  140.2070   74.6560  220.9960 C   0  0  0  0  0  0  0  0  0  0  0  0
  140.4460   75.3090  222.1100 O   0  0  0  0  0  0  0  0  0  0  0  0
  140.9930   75.0100  219.9230 N   0  0  0  0  0  0  0  0  0  0  0  0
  142.2110   74.4480  219.3130 C   0  0  0  0  0  0  0  0  0  0  0  0
  143.1040   75.6770  219.1910 C   0  0  2  0  0  0  0  0  0  0  0  0
  144.1390   75.7000  220.0910 O   0  0  0  0  0  0  0  0  0  0  0  0
  142.1590   76.8650  219.3050 C   0  0  0  0  0  0  0  0  0  0  0  0
  140.8030   76.1950  219.0430 C   0  0  2  0  0  0  0  0  0  0  0  0
  139.6660   77.0610  219.4130 C   0  0  0  0  0  0  0  0  0  0  0  0
  139.9550   77.5740  220.7050 O   0  0  0  0  0  0  0  0  0  0  0  0
  140.1580   78.9380  220.6950 C   0  0  0  0  0  0  0  0  0  0  0  0
  141.0010   79.3110  221.8530 C   0  0  0  0  0  0  0  0  0  0  0  0
  141.0180   78.6240  223.0470 C   0  0  0  0  0  0  0  0  0  0  0  0
  141.8290   79.0300  224.0860 C   0  0  0  0  0  0  0  0  0  0  0  0
  142.6260   80.1370  223.9100 C   0  0  0  0  0  0  0  0  0  0  0  0
  142.6470   80.8600  222.7350 C   0  0  0  0  0  0  0  0  0  0  0  0
  141.8220   80.4280  221.7120 C   0  0  0  0  0  0  0  0  0  0  0  0
  140.0240   71.1060  223.7840 C   0  0  0  0  0  0  0  0  0  0  0  0
  139.4350   69.8630  223.6890 C   0  0  0  0  0  0  0  0  0  0  0  0
  139.4030   69.0630  224.8310 C   0  0  0  0  0  0  0  0  0  0  0  0
  139.9540   69.5130  226.0330 C   0  0  0  0  0  0  0  0  0  0  0  0
  139.9160   68.7130  227.1560 C   0  0  0  0  0  0  0  0  0  0  0  0
  140.4740   69.2010  228.3310 C   0  0  0  0  0  0  0  0  0  0  0  0
  141.0460   70.4590  228.3450 C   0  0  0  0  0  0  0  0  0  0  0  0
  141.0830   71.2630  227.2130 C   0  0  0  0  0  0  0  0  0  0  0  0
  140.5270   70.7760  226.0490 C   0  0  0  0  0  0  0  0  0  0  0  0
  140.5550   71.5390  224.9490 N   0  0  0  0  0  0  0  0  0  0  0  0
  138.2760   73.0230  223.0780 H   0  0  0  0  0  0  0  0  0  0  0  0
  139.2333   72.9573  220.3293 H   0  0  0  0  0  0  0  0  0  0  0  0
  138.2236   74.3021  221.1685 H   0  0  0  0  0  0  0  0  0  0  0  0
  142.6673   73.6859  219.9619 H   0  0  0  0  0  0  0  0  0  0  0  0
  142.0307   73.9355  218.3565 H   0  0  0  0  0  0  0  0  0  0  0  0
  143.6397   75.6879  218.2303 H   0  0  0  0  0  0  0  0  0  0  0  0
  143.8050   75.6140  221.0220 H   0  0  0  0  0  0  0  0  0  0  0  0
  142.1984   77.3165  220.3073 H   0  0  0  0  0  0  0  0  0  0  0  0
  142.3921   77.6941  218.6207 H   0  0  0  0  0  0  0  0  0  0  0  0
  140.5542   75.9608  217.9974 H   0  0  0  0  0  0  0  0  0  0  0  0
  139.5646   77.8846  218.6909 H   0  0  0  0  0  0  0  0  0  0  0  0
  138.7202   76.4994  219.4099 H   0  0  0  0  0  0  0  0  0  0  0  0
  140.6640   79.2282  219.7624 H   0  0  0  0  0  0  0  0  0  0  0  0
  139.1903   79.4570  220.7588 H   0  0  0  0  0  0  0  0  0  0  0  0
  140.3761   77.7397  223.1734 H   0  0  0  0  0  0  0  0  0  0  0  0
  141.8382   78.4787  225.0378 H   0  0  0  0  0  0  0  0  0  0  0  0
  143.2728   80.4590  224.7395 H   0  0  0  0  0  0  0  0  0  0  0  0
  143.2926   81.7427  222.6167 H   0  0  0  0  0  0  0  0  0  0  0  0
  141.8139   80.9814  220.7614 H   0  0  0  0  0  0  0  0  0  0  0  0
  139.0029   69.5125  222.7401 H   0  0  0  0  0  0  0  0  0  0  0  0
  138.9388   68.0668  224.7846 H   0  0  0  0  0  0  0  0  0  0  0  0
  139.4558   67.7145  227.1221 H   0  0  0  0  0  0  0  0  0  0  0  0
  140.4606   68.5894  229.2452 H   0  0  0  0  0  0  0  0  0  0  0  0
  141.4852   70.8349  229.2808 H   0  0  0  0  0  0  0  0  0  0  0  0
  141.5435   72.2615  227.2443 H   0  0  0  0  0  0  0  0  0  0  0  0
  1  2  2  0
  2  3  1  0
  3  4  1  0
  4  5  1  0
  5  6  2  0
  5  7  1  0
  7  8  1  0
  8  9  1  0
  9 10  1  0
  9 11  1  0
 11 12  1  0
 12 13  1  0
 13 14  1  0
 14 15  1  0
 15 16  1  0
 16 17  2  0
 17 18  1  0
 18 19  2  0
 19 20  1  0
 20 21  2  0
  2 22  1  0
 22 23  2  0
 23 24  1  0
 24 25  2  0
 25 26  1  0
 26 27  2  0
 27 28  1  0
 28 29  2  0
 29 30  1  0
 30 31  2  0
 12  7  1  0
 21 16  1  0
 31 22  1  0
 30 25  1  0
  3 32  1  0
  4 33  1  0
  4 34  1  0
  8 35  1  0
  8 36  1  0
  9 37  1  6
 10 38  1  0
 11 39  1  0
 11 40  1  0
 12 41  1  6
 13 42  1  0
 13 43  1  0
 15 44  1  0
 15 45  1  0
 17 46  1  0
 18 47  1  0
 19 48  1  0
 20 49  1  0
 21 50  1  0
 23 51  1  0
 24 52  1  0
 26 53  1  0
 27 54  1  0
 28 55  1  0
 29 56  1  0
M  END
>  <smiles>  (16) 
O=C(NCC(=O)N1C[C@H](O)C[C@@H]1COCc1ccccc1)c1ccc2ccccc2n1

>  <score_type>  (16) 
oracle

>  <origin>  (16) 
autodockgpu

>  <m_score__min__energy>  (16) 
-9.1699999999999999

>  <m_primary>  (16) 
energy

>  <rmsd>  (16) 
1.7269044981984802

>  <m_score__min__rmsd>  (16) 
1.7269044981984802

>  <meeko>  (16) 
{"free_energy": -8.61, "intermolecular_energy": -11.29, "internal_energy": -1.65, "cluster_size": 24, "cluster_id": 1, "rank_in_cluster": 9}

>  <energy>  (16) 
-8.32

>  <cluster_rmsd>  (16) 
0.96

>  <cluster>  (16) 
1

$$$$

     RDKit          3D

 56 59  0  0  0  0  0  0  0  0999 V2000
  136.9710   71.6010  221.3330 O   0  0  0  0  0  0  0  0  0  0  0  0
  137.0720   71.9080  222.5480 C   0  0  0  0  0  0  0  0  0  0  0  0
  136.4200   73.1500  222.9160 N   0  0  0  0  0  0  0  0  0  0  0  0
  135.7560   73.8610  221.8850 C   0  0  0  0  0  0  0  0  0  0  0  0
  136.4830   74.8570  221.1000 C   0  0  0  0  0  0  0  0  0  0  0  0
  135.7080   75.4570  220.2260 O   0  0  0  0  0  0  0  0  0  0  0  0
  137.7970   75.2670  221.1060 N   0  0  0  0  0  0  0  0  0  0  0  0
  139.0520   74.6970  220.5860 C   0  0  0  0  0  0  0  0  0  0  0  0
  139.9770   74.8080  221.7920 C   0  0  2  0  0  0  0  0  0  0  0  0
  140.2400   73.6050  222.4000 O   0  0  0  0  0  0  0  0  0  0  0  0
  139.3160   75.8300  222.7060 C   0  0  0  0  0  0  0  0  0  0  0  0
  138.3330   76.5030  221.7380 C   0  0  2  0  0  0  0  0  0  0  0  0
  137.3260   77.3230  222.4390 C   0  0  0  0  0  0  0  0  0  0  0  0
  137.9590   78.5540  222.7570 O   0  0  0  0  0  0  0  0  0  0  0  0
  138.9060   78.9140  221.8210 C   0  0  0  0  0  0  0  0  0  0  0  0
  140.0910   79.4630  222.5160 C   0  0  0  0  0  0  0  0  0  0  0  0
  140.3150   80.8080  222.7140 C   0  0  0  0  0  0  0  0  0  0  0  0
  141.4450   81.2480  223.3710 C   0  0  0  0  0  0  0  0  0  0  0  0
  142.3490   80.3180  223.8290 C   0  0  0  0  0  0  0  0  0  0  0  0
  142.1730   78.9610  223.6570 C   0  0  0  0  0  0  0  0  0  0  0  0
  141.0300   78.5500  222.9930 C   0  0  0  0  0  0  0  0  0  0  0  0
  137.7740   71.1140  223.5360 C   0  0  0  0  0  0  0  0  0  0  0  0
  137.1950   69.9230  223.9210 C   0  0  0  0  0  0  0  0  0  0  0  0
  137.8590   69.1480  224.8710 C   0  0  0  0  0  0  0  0  0  0  0  0
  139.0750   69.5700  225.4120 C   0  0  0  0  0  0  0  0  0  0  0  0
  139.7230   68.7950  226.3520 C   0  0  0  0  0  0  0  0  0  0  0  0
  140.9300   69.2520  226.8650 C   0  0  0  0  0  0  0  0  0  0  0  0
  141.4450   70.4580  226.4260 C   0  0  0  0  0  0  0  0  0  0  0  0
  140.7920   71.2370  225.4800 C   0  0  0  0  0  0  0  0  0  0  0  0
  139.5930   70.7790  224.9740 C   0  0  0  0  0  0  0  0  0  0  0  0
  138.9510   71.5190  224.0620 N   0  0  0  0  0  0  0  0  0  0  0  0
  136.4840   73.4410  223.9240 H   0  0  0  0  0  0  0  0  0  0  0  0
  135.3776   73.1111  221.1747 H   0  0  0  0  0  0  0  0  0  0  0  0
  135.0124   74.4613  222.4297 H   0  0  0  0  0  0  0  0  0  0  0  0
  138.9181   73.6487  220.2807 H   0  0  0  0  0  0  0  0  0  0  0  0
  139.4316   75.2076  219.6887 H   0  0  0  0  0  0  0  0  0  0  0  0
  140.9835   75.1365  221.4937 H   0  0  0  0  0  0  0  0  0  0  0  0
  139.5490   73.3900  223.0800 H   0  0  0  0  0  0  0  0  0  0  0  0
  138.7904   75.3438  223.5411 H   0  0  0  0  0  0  0  0  0  0  0  0
  140.0187   76.5236  223.1909 H   0  0  0  0  0  0  0  0  0  0  0  0
  138.7484   77.2398  221.0347 H   0  0  0  0  0  0  0  0  0  0  0  0
  136.4583   77.4993  221.7863 H   0  0  0  0  0  0  0  0  0  0  0  0
  136.9619   76.8171  223.3453 H   0  0  0  0  0  0  0  0  0  0  0  0
  139.1993   78.0303  221.2354 H   0  0  0  0  0  0  0  0  0  0  0  0
  138.4879   79.6746  221.1452 H   0  0  0  0  0  0  0  0  0  0  0  0
  139.5829   81.5405  222.3432 H   0  0  0  0  0  0  0  0  0  0  0  0
  141.6201   82.3229  223.5259 H   0  0  0  0  0  0  0  0  0  0  0  0
  143.2490   80.6710  224.3538 H   0  0  0  0  0  0  0  0  0  0  0  0
  142.9101   78.2356  224.0318 H   0  0  0  0  0  0  0  0  0  0  0  0
  140.8583   77.4746  222.8377 H   0  0  0  0  0  0  0  0  0  0  0  0
  136.2374   69.5941  223.4912 H   0  0  0  0  0  0  0  0  0  0  0  0
  137.4201   68.1938  225.1978 H   0  0  0  0  0  0  0  0  0  0  0  0
  139.2942   67.8389  226.6867 H   0  0  0  0  0  0  0  0  0  0  0  0
  141.4727   68.6586  227.6156 H   0  0  0  0  0  0  0  0  0  0  0  0
  142.4015   70.8111  226.8389 H   0  0  0  0  0  0  0  0  0  0  0  0
  141.2190   72.1932  225.1432 H   0  0  0  0  0  0  0  0  0  0  0  0
  1  2  2  0
  2  3  1  0
  3  4  1  0
  4  5  1  0
  5  6  2  0
  5  7  1  0
  7  8  1  0
  8  9  1  0
  9 10  1  0
  9 11  1  0
 11 12  1  0
 12 13  1  0
 13 14  1  0
 14 15  1  0
 15 16  1  0
 16 17  2  0
 17 18  1  0
 18 19  2  0
 19 20  1  0
 20 21  2  0
  2 22  1  0
 22 23  2  0
 23 24  1  0
 24 25  2  0
 25 26  1  0
 26 27  2  0
 27 28  1  0
 28 29  2  0
 29 30  1  0
 30 31  2  0
 12  7  1  0
 21 16  1  0
 31 22  1  0
 30 25  1  0
  3 32  1  0
  4 33  1  0
  4 34  1  0
  8 35  1  0
  8 36  1  0
  9 37  1  6
 10 38  1  0
 11 39  1  0
 11 40  1  0
 12 41  1  6
 13 42  1  0
 13 43  1  0
 15 44  1  0
 15 45  1  0
 17 46  1  0
 18 47  1  0
 19 48  1  0
 20 49  1  0
 21 50  1  0
 23 51  1  0
 24 52  1  0
 26 53  1  0
 27 54  1  0
 28 55  1  0
 29 56  1  0
M  END
>  <smiles>  (17) 
O=C(NCC(=O)N1C[C@H](O)C[C@@H]1COCc1ccccc1)c1ccc2ccccc2n1

>  <score_type>  (17) 
oracle

>  <origin>  (17) 
autodockgpu

>  <m_score__min__energy>  (17) 
-9.1699999999999999

>  <m_primary>  (17) 
energy

>  <rmsd>  (17) 
2.851541909635223

>  <m_score__min__rmsd>  (17) 
2.851541909635223

>  <meeko>  (17) 
{"free_energy": -7.34, "intermolecular_energy": -10.02, "internal_energy": -2.56, "cluster_size": 2, "cluster_id": 5, "rank_in_cluster": 2}

>  <energy>  (17) 
-8.12

>  <cluster_rmsd>  (17) 
1.51

>  <cluster>  (17) 
1

$$$$

     RDKit          3D

 56 59  0  0  0  0  0  0  0  0999 V2000
  140.0440   73.1100  222.7920 O   0  0  0  0  0  0  0  0  0  0  0  0
  140.2740   71.8830  222.9370 C   0  0  0  0  0  0  0  0  0  0  0  0
  140.5190   71.1610  221.7040 N   0  0  0  0  0  0  0  0  0  0  0  0
  140.4740   71.9080  220.4990 C   0  0  0  0  0  0  0  0  0  0  0  0
  141.4570   72.9640  220.2570 C   0  0  0  0  0  0  0  0  0  0  0  0
  142.5650   72.7700  220.9350 O   0  0  0  0  0  0  0  0  0  0  0  0
  141.4320   74.0950  219.4740 N   0  0  0  0  0  0  0  0  0  0  0  0
  142.0510   74.4680  218.1900 C   0  0  0  0  0  0  0  0  0  0  0  0
  142.6650   75.8250  218.5120 C   0  0  2  0  0  0  0  0  0  0  0  0
  144.0330   75.8010  218.6200 O   0  0  0  0  0  0  0  0  0  0  0  0
  141.9550   76.2910  219.7750 C   0  0  0  0  0  0  0  0  0  0  0  0
  140.7280   75.3680  219.7850 C   0  0  2  0  0  0  0  0  0  0  0  0
  140.0230   75.3820  221.0820 C   0  0  0  0  0  0  0  0  0  0  0  0
  140.7870   76.2100  221.9460 O   0  0  0  0  0  0  0  0  0  0  0  0
  140.0790   77.3120  222.3780 C   0  0  0  0  0  0  0  0  0  0  0  0
  141.0140   78.4420  222.5750 C   0  0  0  0  0  0  0  0  0  0  0  0
  141.6290   78.7350  223.7720 C   0  0  0  0  0  0  0  0  0  0  0  0
  142.4900   79.8060  223.8830 C   0  0  0  0  0  0  0  0  0  0  0  0
  142.7280   80.5820  222.7720 C   0  0  0  0  0  0  0  0  0  0  0  0
  142.1380   80.3330  221.5500 C   0  0  0  0  0  0  0  0  0  0  0  0
  141.2790   79.2510  221.4710 C   0  0  0  0  0  0  0  0  0  0  0  0
  140.3010   71.2020  224.2170 C   0  0  0  0  0  0  0  0  0  0  0  0
  140.7620   71.9140  225.3040 C   0  0  0  0  0  0  0  0  0  0  0  0
  140.7950   71.2730  226.5420 C   0  0  0  0  0  0  0  0  0  0  0  0
  140.3710   69.9490  226.6700 C   0  0  0  0  0  0  0  0  0  0  0  0
  140.4070   69.3240  227.9000 C   0  0  0  0  0  0  0  0  0  0  0  0
  139.9770   68.0060  227.9830 C   0  0  0  0  0  0  0  0  0  0  0  0
  139.5290   67.3610  226.8450 C   0  0  0  0  0  0  0  0  0  0  0  0
  139.4920   67.9920  225.6080 C   0  0  0  0  0  0  0  0  0  0  0  0
  139.9210   69.3000  225.5300 C   0  0  0  0  0  0  0  0  0  0  0  0
  139.8920   69.9210  224.3450 N   0  0  0  0  0  0  0  0  0  0  0  0
  140.7140   70.1320  221.7850 H   0  0  0  0  0  0  0  0  0  0  0  0
  140.5728   71.1869  219.6742 H   0  0  0  0  0  0  0  0  0  0  0  0
  139.5249   72.4586  220.5776 H   0  0  0  0  0  0  0  0  0  0  0  0
  142.8218   73.7417  217.8927 H   0  0  0  0  0  0  0  0  0  0  0  0
  141.3430   74.4917  217.3485 H   0  0  0  0  0  0  0  0  0  0  0  0
  142.5144   76.5370  217.6871 H   0  0  0  0  0  0  0  0  0  0  0  0
  144.4620   76.1590  217.7990 H   0  0  0  0  0  0  0  0  0  0  0  0
  142.5800   76.1405  220.6676 H   0  0  0  0  0  0  0  0  0  0  0  0
  141.7130   77.3640  219.7872 H   0  0  0  0  0  0  0  0  0  0  0  0
  139.9060   75.6215  219.0994 H   0  0  0  0  0  0  0  0  0  0  0  0
  139.0099   75.7926  220.9596 H   0  0  0  0  0  0  0  0  0  0  0  0
  139.9215   74.3660  221.4911 H   0  0  0  0  0  0  0  0  0  0  0  0
  139.3257   77.5844  221.6242 H   0  0  0  0  0  0  0  0  0  0  0  0
  139.5741   77.0792  223.3272 H   0  0  0  0  0  0  0  0  0  0  0  0
  141.4304   78.1055  224.6520 H   0  0  0  0  0  0  0  0  0  0  0  0
  142.9776   80.0358  224.8419 H   0  0  0  0  0  0  0  0  0  0  0  0
  143.4164   81.4353  222.8617 H   0  0  0  0  0  0  0  0  0  0  0  0
  142.3419   80.9679  220.6752 H   0  0  0  0  0  0  0  0  0  0  0  0
  140.7922   79.0231  220.5113 H   0  0  0  0  0  0  0  0  0  0  0  0
  141.0941   72.9573  225.1978 H   0  0  0  0  0  0  0  0  0  0  0  0
  141.1588   71.8161  227.4267 H   0  0  0  0  0  0  0  0  0  0  0  0
  140.7673   69.8566  228.7925 H   0  0  0  0  0  0  0  0  0  0  0  0
  139.9928   67.4785  228.9481 H   0  0  0  0  0  0  0  0  0  0  0  0
  139.1917   66.3168  226.9215 H   0  0  0  0  0  0  0  0  0  0  0  0
  139.1301   67.4622  224.7145 H   0  0  0  0  0  0  0  0  0  0  0  0
  1  2  2  0
  2  3  1  0
  3  4  1  0
  4  5  1  0
  5  6  2  0
  5  7  1  0
  7  8  1  0
  8  9  1  0
  9 10  1  0
  9 11  1  0
 11 12  1  0
 12 13  1  0
 13 14  1  0
 14 15  1  0
 15 16  1  0
 16 17  2  0
 17 18  1  0
 18 19  2  0
 19 20  1  0
 20 21  2  0
  2 22  1  0
 22 23  2  0
 23 24  1  0
 24 25  2  0
 25 26  1  0
 26 27  2  0
 27 28  1  0
 28 29  2  0
 29 30  1  0
 30 31  2  0
 12  7  1  0
 21 16  1  0
 31 22  1  0
 30 25  1  0
  3 32  1  0
  4 33  1  0
  4 34  1  0
  8 35  1  0
  8 36  1  0
  9 37  1  6
 10 38  1  0
 11 39  1  0
 11 40  1  0
 12 41  1  6
 13 42  1  0
 13 43  1  0
 15 44  1  0
 15 45  1  0
 17 46  1  0
 18 47  1  0
 19 48  1  0
 20 49  1  0
 21 50  1  0
 23 51  1  0
 24 52  1  0
 26 53  1  0
 27 54  1  0
 28 55  1  0
 29 56  1  0
M  END
>  <smiles>  (18) 
O=C(NCC(=O)N1C[C@H](O)C[C@@H]1COCc1ccccc1)c1ccc2ccccc2n1

>  <score_type>  (18) 
oracle

>  <origin>  (18) 
autodockgpu

>  <m_score__min__energy>  (18) 
-9.1699999999999999

>  <m_primary>  (18) 
energy

>  <rmsd>  (18) 
3.15360423701792

>  <m_score__min__rmsd>  (18) 
3.15360423701792

>  <meeko>  (18) 
{"free_energy": -8.12, "intermolecular_energy": -10.81, "internal_energy": -1.73, "cluster_size": 24, "cluster_id": 1, "rank_in_cluster": 17}

>  <energy>  (18) 
-7.98

>  <cluster_rmsd>  (18) 
1.35

>  <cluster>  (18) 
1

$$$$

     RDKit          3D

 56 59  0  0  0  0  0  0  0  0999 V2000
  140.3210   72.0160  222.8120 O   0  0  0  0  0  0  0  0  0  0  0  0
  140.6400   72.5180  221.7050 C   0  0  0  0  0  0  0  0  0  0  0  0
  140.7320   71.5700  220.6120 N   0  0  0  0  0  0  0  0  0  0  0  0
  140.4570   70.2120  220.9110 C   0  0  0  0  0  0  0  0  0  0  0  0
  139.0770   69.7790  221.1340 C   0  0  0  0  0  0  0  0  0  0  0  0
  138.9040   68.5120  220.8330 O   0  0  0  0  0  0  0  0  0  0  0  0
  137.9570   70.4390  221.5840 N   0  0  0  0  0  0  0  0  0  0  0  0
  137.1780   71.5900  221.0960 C   0  0  0  0  0  0  0  0  0  0  0  0
  137.0560   72.4490  222.3490 C   0  0  2  0  0  0  0  0  0  0  0  0
  137.8400   73.5760  222.3240 O   0  0  0  0  0  0  0  0  0  0  0  0
  137.3640   71.5080  223.5050 C   0  0  0  0  0  0  0  0  0  0  0  0
  137.1980   70.1400  222.8290 C   0  0  2  0  0  0  0  0  0  0  0  0
  137.7530   69.0400  223.6410 C   0  0  0  0  0  0  0  0  0  0  0  0
  139.0330   69.4700  224.0790 O   0  0  0  0  0  0  0  0  0  0  0  0
  139.4240   68.8500  225.2480 C   0  0  0  0  0  0  0  0  0  0  0  0
  139.9740   69.8640  226.1740 C   0  0  0  0  0  0  0  0  0  0  0  0
  139.7820   69.8480  227.5380 C   0  0  0  0  0  0  0  0  0  0  0  0
  140.3250   70.8280  228.3410 C   0  0  0  0  0  0  0  0  0  0  0  0
  141.0690   71.8270  227.7560 C   0  0  0  0  0  0  0  0  0  0  0  0
  141.2920   71.8900  226.3970 C   0  0  0  0  0  0  0  0  0  0  0  0
  140.7330   70.8920  225.6170 C   0  0  0  0  0  0  0  0  0  0  0  0
  140.9030   73.9280  221.4920 C   0  0  0  0  0  0  0  0  0  0  0  0
  141.8940   74.2600  220.5930 C   0  0  0  0  0  0  0  0  0  0  0  0
  142.1580   75.6120  220.3780 C   0  0  0  0  0  0  0  0  0  0  0  0
  141.4370   76.5970  221.0570 C   0  0  0  0  0  0  0  0  0  0  0  0
  141.7080   77.9320  220.8360 C   0  0  0  0  0  0  0  0  0  0  0  0
  140.9670   78.8780  221.5330 C   0  0  0  0  0  0  0  0  0  0  0  0
  139.9900   78.4630  222.4180 C   0  0  0  0  0  0  0  0  0  0  0  0
  139.7190   77.1190  222.6390 C   0  0  0  0  0  0  0  0  0  0  0  0
  140.4570   76.1830  221.9460 C   0  0  0  0  0  0  0  0  0  0  0  0
  140.2070   74.8840  222.1480 N   0  0  0  0  0  0  0  0  0  0  0  0
  140.9970   71.9530  219.6700 H   0  0  0  0  0  0  0  0  0  0  0  0
  140.8454   69.6166  220.0716 H   0  0  0  0  0  0  0  0  0  0  0  0
  140.9303   70.0674  221.8934 H   0  0  0  0  0  0  0  0  0  0  0  0
  137.7129   72.1239  220.2967 H   0  0  0  0  0  0  0  0  0  0  0  0
  136.2096   71.3129  220.6540 H   0  0  0  0  0  0  0  0  0  0  0  0
  136.0468   72.8760  222.4446 H   0  0  0  0  0  0  0  0  0  0  0  0
  138.7040   73.4200  222.7850 H   0  0  0  0  0  0  0  0  0  0  0  0
  138.3885   71.6510  223.8791 H   0  0  0  0  0  0  0  0  0  0  0  0
  136.7258   71.6550  224.3888 H   0  0  0  0  0  0  0  0  0  0  0  0
  136.1703   69.7816  222.6695 H   0  0  0  0  0  0  0  0  0  0  0  0
  137.1028   68.8399  224.5054 H   0  0  0  0  0  0  0  0  0  0  0  0
  137.8234   68.1103  223.0573 H   0  0  0  0  0  0  0  0  0  0  0  0
  138.5561   68.3593  225.7127 H   0  0  0  0  0  0  0  0  0  0  0  0
  140.1925   68.0945  225.0273 H   0  0  0  0  0  0  0  0  0  0  0  0
  139.1872   69.0421  227.9926 H   0  0  0  0  0  0  0  0  0  0  0  0
  140.1665   70.8118  229.4294 H   0  0  0  0  0  0  0  0  0  0  0  0
  141.5034   72.6069  228.3988 H   0  0  0  0  0  0  0  0  0  0  0  0
  141.8890   72.6992  225.9511 H   0  0  0  0  0  0  0  0  0  0  0  0
  140.8921   70.9108  224.5287 H   0  0  0  0  0  0  0  0  0  0  0  0
  142.4598   73.4811  220.0609 H   0  0  0  0  0  0  0  0  0  0  0  0
  142.9429   75.9063  219.6657 H   0  0  0  0  0  0  0  0  0  0  0  0
  142.4904   78.2390  220.1264 H   0  0  0  0  0  0  0  0  0  0  0  0
  141.1567   79.9509  221.3814 H   0  0  0  0  0  0  0  0  0  0  0  0
  139.4091   79.2207  222.9643 H   0  0  0  0  0  0  0  0  0  0  0  0
  138.9367   76.8096  223.3478 H   0  0  0  0  0  0  0  0  0  0  0  0
  1  2  2  0
  2  3  1  0
  3  4  1  0
  4  5  1  0
  5  6  2  0
  5  7  1  0
  7  8  1  0
  8  9  1  0
  9 10  1  0
  9 11  1  0
 11 12  1  0
 12 13  1  0
 13 14  1  0
 14 15  1  0
 15 16  1  0
 16 17  2  0
 17 18  1  0
 18 19  2  0
 19 20  1  0
 20 21  2  0
  2 22  1  0
 22 23  2  0
 23 24  1  0
 24 25  2  0
 25 26  1  0
 26 27  2  0
 27 28  1  0
 28 29  2  0
 29 30  1  0
 30 31  2  0
 12  7  1  0
 21 16  1  0
 31 22  1  0
 30 25  1  0
  3 32  1  0
  4 33  1  0
  4 34  1  0
  8 35  1  0
  8 36  1  0
  9 37  1  1
 10 38  1  0
 11 39  1  0
 11 40  1  0
 12 41  1  6
 13 42  1  0
 13 43  1  0
 15 44  1  0
 15 45  1  0
 17 46  1  0
 18 47  1  0
 19 48  1  0
 20 49  1  0
 21 50  1  0
 23 51  1  0
 24 52  1  0
 26 53  1  0
 27 54  1  0
 28 55  1  0
 29 56  1  0
M  END
>  <smiles>  (19) 
O=C(NCC(=O)N1C[C@H](O)C[C@@H]1COCc1ccccc1)c1ccc2ccccc2n1

>  <score_type>  (19) 
oracle

>  <origin>  (19) 
autodockgpu

>  <m_score__min__energy>  (19) 
-9.1699999999999999

>  <m_primary>  (19) 
energy

>  <rmsd>  (19) 
7.38368194443825

>  <m_score__min__rmsd>  (19) 
7.38368194443825

>  <meeko>  (19) 
{"free_energy": -6.89, "intermolecular_energy": -9.57, "internal_energy": -3.63, "cluster_size": 16, "cluster_id": 2, "rank_in_cluster": 14}

>  <energy>  (19) 
-7.83

>  <cluster_rmsd>  (19) 
1.92

>  <cluster>  (19) 
1

$$$$

     RDKit          3D

 56 59  0  0  0  0  0  0  0  0999 V2000
  141.1730   71.8300  221.6750 O   0  0  0  0  0  0  0  0  0  0  0  0
  140.3030   71.9890  222.5680 C   0  0  0  0  0  0  0  0  0  0  0  0
  139.3990   73.0990  222.3450 N   0  0  0  0  0  0  0  0  0  0  0  0
  139.5940   73.8640  221.1670 C   0  0  0  0  0  0  0  0  0  0  0  0
  140.7890   74.6950  221.0270 C   0  0  0  0  0  0  0  0  0  0  0  0
  140.8760   75.5990  221.9750 O   0  0  0  0  0  0  0  0  0  0  0  0
  141.8110   74.7060  220.1040 N   0  0  0  0  0  0  0  0  0  0  0  0
  142.8580   73.7420  219.7210 C   0  0  0  0  0  0  0  0  0  0  0  0
  144.1130   74.6060  219.7470 C   0  0  2  0  0  0  0  0  0  0  0  0
  144.9380   74.3510  220.8140 O   0  0  0  0  0  0  0  0  0  0  0  0
  143.6080   76.0400  219.6860 C   0  0  0  0  0  0  0  0  0  0  0  0
  142.1680   75.8290  219.1960 C   0  0  2  0  0  0  0  0  0  0  0  0
  141.3370   77.0380  219.3550 C   0  0  0  0  0  0  0  0  0  0  0  0
  142.2230   78.0940  219.6940 O   0  0  0  0  0  0  0  0  0  0  0  0
  141.5540   79.2450  220.0550 C   0  0  0  0  0  0  0  0  0  0  0  0
  141.8020   79.5200  221.4880 C   0  0  0  0  0  0  0  0  0  0  0  0
  142.3370   80.6960  221.9670 C   0  0  0  0  0  0  0  0  0  0  0  0
  142.5410   80.8830  223.3170 C   0  0  0  0  0  0  0  0  0  0  0  0
  142.1990   79.8720  224.1850 C   0  0  0  0  0  0  0  0  0  0  0  0
  141.6600   78.6760  223.7590 C   0  0  0  0  0  0  0  0  0  0  0  0
  141.4680   78.5180  222.3970 C   0  0  0  0  0  0  0  0  0  0  0  0
  140.1780   71.1510  223.7450 C   0  0  0  0  0  0  0  0  0  0  0  0
  139.5400   69.9370  223.5940 C   0  0  0  0  0  0  0  0  0  0  0  0
  139.4120   69.1200  224.7170 C   0  0  0  0  0  0  0  0  0  0  0  0
  139.9170   69.5240  225.9550 C   0  0  0  0  0  0  0  0  0  0  0  0
  139.7850   68.7080  227.0590 C   0  0  0  0  0  0  0  0  0  0  0  0
  140.3010   69.1490  228.2710 C   0  0  0  0  0  0  0  0  0  0  0  0
  140.9270   70.3790  228.3390 C   0  0  0  0  0  0  0  0  0  0  0  0
  141.0600   71.2000  227.2260 C   0  0  0  0  0  0  0  0  0  0  0  0
  140.5450   70.7590  226.0250 C   0  0  0  0  0  0  0  0  0  0  0  0
  140.6650   71.5390  224.9440 N   0  0  0  0  0  0  0  0  0  0  0  0
  138.6580   73.2640  223.0720 H   0  0  0  0  0  0  0  0  0  0  0  0
  139.5985   73.1560  220.3251 H   0  0  0  0  0  0  0  0  0  0  0  0
  138.7764   74.5990  221.2033 H   0  0  0  0  0  0  0  0  0  0  0  0
  142.9259   72.9174  220.4459 H   0  0  0  0  0  0  0  0  0  0  0  0
  142.6769   73.2539  218.7520 H   0  0  0  0  0  0  0  0  0  0  0  0
  144.7699   74.3812  218.8938 H   0  0  0  0  0  0  0  0  0  0  0  0
  144.4110   74.1570  221.6330 H   0  0  0  0  0  0  0  0  0  0  0  0
  143.6307   76.5178  220.6766 H   0  0  0  0  0  0  0  0  0  0  0  0
  144.2094   76.7035  219.0472 H   0  0  0  0  0  0  0  0  0  0  0  0
  142.0290   75.6206  218.1249 H   0  0  0  0  0  0  0  0  0  0  0  0
  140.8152   77.2670  218.4141 H   0  0  0  0  0  0  0  0  0  0  0  0
  140.5719   76.8955  220.1323 H   0  0  0  0  0  0  0  0  0  0  0  0
  141.9184   80.0881  219.4497 H   0  0  0  0  0  0  0  0  0  0  0  0
  140.4751   79.1158  219.8837 H   0  0  0  0  0  0  0  0  0  0  0  0
  142.6050   81.4967  221.2620 H   0  0  0  0  0  0  0  0  0  0  0  0
  142.9695   81.8235  223.6937 H   0  0  0  0  0  0  0  0  0  0  0  0
  142.3620   80.0235  225.2622 H   0  0  0  0  0  0  0  0  0  0  0  0
  141.3939   77.8812  224.4714 H   0  0  0  0  0  0  0  0  0  0  0  0
  141.0404   77.5763  222.0224 H   0  0  0  0  0  0  0  0  0  0  0  0
  139.1441   69.6229  222.6170 H   0  0  0  0  0  0  0  0  0  0  0  0
  138.9077   68.1466  224.6268 H   0  0  0  0  0  0  0  0  0  0  0  0
  139.2835   67.7320  226.9817 H   0  0  0  0  0  0  0  0  0  0  0  0
  140.2118   68.5229  229.1710 H   0  0  0  0  0  0  0  0  0  0  0  0
  141.3324   70.7185  229.3036 H   0  0  0  0  0  0  0  0  0  0  0  0
  141.5626   72.1756  227.3007 H   0  0  0  0  0  0  0  0  0  0  0  0
  1  2  2  0
  2  3  1  0
  3  4  1  0
  4  5  1  0
  5  6  2  0
  5  7  1  0
  7  8  1  0
  8  9  1  0
  9 10  1  0
  9 11  1  0
 11 12  1  0
 12 13  1  0
 13 14  1  0
 14 15  1  0
 15 16  1  0
 16 17  2  0
 17 18  1  0
 18 19  2  0
 19 20  1  0
 20 21  2  0
  2 22  1  0
 22 23  2  0
 23 24  1  0
 24 25  2  0
 25 26  1  0
 26 27  2  0
 27 28  1  0
 28 29  2  0
 29 30  1  0
 30 31  2  0
 12  7  1  0
 21 16  1  0
 31 22  1  0
 30 25  1  0
  3 32  1  0
  4 33  1  0
  4 34  1  0
  8 35  1  0
  8 36  1  0
  9 37  1  6
 10 38  1  0
 11 39  1  0
 11 40  1  0
 12 41  1  6
 13 42  1  0
 13 43  1  0
 15 44  1  0
 15 45  1  0
 17 46  1  0
 18 47  1  0
 19 48  1  0
 20 49  1  0
 21 50  1  0
 23 51  1  0
 24 52  1  0
 26 53  1  0
 27 54  1  0
 28 55  1  0
 29 56  1  0
M  END
>  <smiles>  (20) 
O=C(NCC(=O)N1C[C@H](O)C[C@@H]1COCc1ccccc1)c1ccc2ccccc2n1

>  <score_type>  (20) 
oracle

>  <origin>  (20) 
autodockgpu

>  <m_score__min__energy>  (20) 
-9.1699999999999999

>  <m_primary>  (20) 
energy

>  <rmsd>  (20) 
2.2845621328870243

>  <m_score__min__rmsd>  (20) 
2.2845621328870243

>  <meeko>  (20) 
{"free_energy": -8.87, "intermolecular_energy": -11.56, "internal_energy": -1.66, "cluster_size": 24, "cluster_id": 1, "rank_in_cluster": 5}

>  <energy>  (20) 
-7.56

>  <cluster_rmsd>  (20) 
1.66

>  <cluster>  (20) 
1

$$$$

     RDKit          3D

 56 59  0  0  0  0  0  0  0  0999 V2000
  139.5600   74.4910  222.3390 O   0  0  0  0  0  0  0  0  0  0  0  0
  140.6540   74.8740  221.8530 C   0  0  0  0  0  0  0  0  0  0  0  0
  141.5280   73.8060  221.4090 N   0  0  0  0  0  0  0  0  0  0  0  0
  141.0570   72.4790  221.5680 C   0  0  0  0  0  0  0  0  0  0  0  0
  139.8870   72.0240  220.8170 C   0  0  0  0  0  0  0  0  0  0  0  0
  140.2070   71.5960  219.6170 O   0  0  0  0  0  0  0  0  0  0  0  0
  138.5470   71.9680  221.1270 N   0  0  0  0  0  0  0  0  0  0  0  0
  137.3790   72.7990  220.7850 C   0  0  0  0  0  0  0  0  0  0  0  0
  136.7390   73.0270  222.1490 C   0  0  2  0  0  0  0  0  0  0  0  0
  136.9050   74.3010  222.6320 O   0  0  0  0  0  0  0  0  0  0  0  0
  137.3230   71.9450  223.0470 C   0  0  0  0  0  0  0  0  0  0  0  0
  137.8860   70.9660  222.0070 C   0  0  2  0  0  0  0  0  0  0  0  0
  138.8000   69.9730  222.6050 C   0  0  0  0  0  0  0  0  0  0  0  0
  138.9170   70.3100  223.9790 O   0  0  0  0  0  0  0  0  0  0  0  0
  139.9790   69.6750  224.5870 C   0  0  0  0  0  0  0  0  0  0  0  0
  140.3070   70.3770  225.8480 C   0  0  0  0  0  0  0  0  0  0  0  0
  139.8880   69.9620  227.0930 C   0  0  0  0  0  0  0  0  0  0  0  0
  140.2320   70.6670  228.2270 C   0  0  0  0  0  0  0  0  0  0  0  0
  141.0040   71.7970  228.0950 C   0  0  0  0  0  0  0  0  0  0  0  0
  141.4490   72.2560  226.8730 C   0  0  0  0  0  0  0  0  0  0  0  0
  141.0880   71.5270  225.7530 C   0  0  0  0  0  0  0  0  0  0  0  0
  141.0520   76.2630  221.7280 C   0  0  0  0  0  0  0  0  0  0  0  0
  141.4030   76.7120  220.4730 C   0  0  0  0  0  0  0  0  0  0  0  0
  141.7880   78.0450  220.3370 C   0  0  0  0  0  0  0  0  0  0  0  0
  141.8140   78.8960  221.4440 C   0  0  0  0  0  0  0  0  0  0  0  0
  142.1970   80.2140  221.2970 C   0  0  0  0  0  0  0  0  0  0  0  0
  142.2100   81.0250  222.4240 C   0  0  0  0  0  0  0  0  0  0  0  0
  141.8440   80.4990  223.6490 C   0  0  0  0  0  0  0  0  0  0  0  0
  141.4590   79.1720  223.7950 C   0  0  0  0  0  0  0  0  0  0  0  0
  141.4480   78.3700  222.6730 C   0  0  0  0  0  0  0  0  0  0  0  0
  141.0790   77.0890  222.7970 N   0  0  0  0  0  0  0  0  0  0  0  0
  142.4530   74.0870  220.9970 H   0  0  0  0  0  0  0  0  0  0  0  0
  141.8883   71.8121  221.2958 H   0  0  0  0  0  0  0  0  0  0  0  0
  140.7122   72.4561  222.6123 H   0  0  0  0  0  0  0  0  0  0  0  0
  137.6863   73.7494  220.3243 H   0  0  0  0  0  0  0  0  0  0  0  0
  136.7041   72.3334  220.0517 H   0  0  0  0  0  0  0  0  0  0  0  0
  135.6433   72.9465  222.0938 H   0  0  0  0  0  0  0  0  0  0  0  0
  137.8210   74.4290  222.9920 H   0  0  0  0  0  0  0  0  0  0  0  0
  138.1165   72.3444  223.6956 H   0  0  0  0  0  0  0  0  0  0  0  0
  136.5989   71.4968  223.7433 H   0  0  0  0  0  0  0  0  0  0  0  0
  137.1664   70.3067  221.4995 H   0  0  0  0  0  0  0  0  0  0  0  0
  138.3849   68.9602  222.4960 H   0  0  0  0  0  0  0  0  0  0  0  0
  139.7809   69.9844  222.1074 H   0  0  0  0  0  0  0  0  0  0  0  0
  139.7076   68.6318  224.8063 H   0  0  0  0  0  0  0  0  0  0  0  0
  140.8516   69.6898  223.9174 H   0  0  0  0  0  0  0  0  0  0  0  0
  139.2707   69.0560  227.1837 H   0  0  0  0  0  0  0  0  0  0  0  0
  139.8950   70.3315  229.2189 H   0  0  0  0  0  0  0  0  0  0  0  0
  141.2778   72.3577  229.0009 H   0  0  0  0  0  0  0  0  0  0  0  0
  142.0652   73.1636  226.7917 H   0  0  0  0  0  0  0  0  0  0  0  0
  141.4265   71.8643  224.7622 H   0  0  0  0  0  0  0  0  0  0  0  0
  141.3800   76.0381  219.6039 H   0  0  0  0  0  0  0  0  0  0  0  0
  142.0743   78.4305  219.3474 H   0  0  0  0  0  0  0  0  0  0  0  0
  142.4845   80.6115  220.3125 H   0  0  0  0  0  0  0  0  0  0  0  0
  142.5099   82.0802  222.3426 H   0  0  0  0  0  0  0  0  0  0  0  0
  141.8580   81.1508  224.5350 H   0  0  0  0  0  0  0  0  0  0  0  0
  141.1709   78.7721  224.7784 H   0  0  0  0  0  0  0  0  0  0  0  0
  1  2  2  0
  2  3  1  0
  3  4  1  0
  4  5  1  0
  5  6  2  0
  5  7  1  0
  7  8  1  0
  8  9  1  0
  9 10  1  0
  9 11  1  0
 11 12  1  0
 12 13  1  0
 13 14  1  0
 14 15  1  0
 15 16  1  0
 16 17  2  0
 17 18  1  0
 18 19  2  0
 19 20  1  0
 20 21  2  0
  2 22  1  0
 22 23  2  0
 23 24  1  0
 24 25  2  0
 25 26  1  0
 26 27  2  0
 27 28  1  0
 28 29  2  0
 29 30  1  0
 30 31  2  0
 12  7  1  0
 21 16  1  0
 31 22  1  0
 30 25  1  0
  3 32  1  0
  4 33  1  0
  4 34  1  0
  8 35  1  0
  8 36  1  0
  9 37  1  6
 10 38  1  0
 11 39  1  0
 11 40  1  0
 12 41  1  6
 13 42  1  0
 13 43  1  0
 15 44  1  0
 15 45  1  0
 17 46  1  0
 18 47  1  0
 19 48  1  0
 20 49  1  0
 21 50  1  0
 23 51  1  0
 24 52  1  0
 26 53  1  0
 27 54  1  0
 28 55  1  0
 29 56  1  0
M  END
>  <smiles>  (21) 
O=C(NCC(=O)N1C[C@H](O)C[C@@H]1COCc1ccccc1)c1ccc2ccccc2n1

>  <score_type>  (21) 
oracle

>  <origin>  (21) 
autodockgpu

>  <m_score__min__energy>  (21) 
-9.1699999999999999

>  <m_primary>  (21) 
energy

>  <rmsd>  (21) 
7.895185297609502

>  <m_score__min__rmsd>  (21) 
7.895185297609502

>  <meeko>  (21) 
{"free_energy": -8.02, "intermolecular_energy": -10.71, "internal_energy": -2.43, "cluster_size": 16, "cluster_id": 2, "rank_in_cluster": 7}

>  <energy>  (21) 
-7.56

>  <cluster_rmsd>  (21) 
1.73

>  <cluster>  (21) 
1

$$$$

     RDKit          3D

 56 59  0  0  0  0  0  0  0  0999 V2000
  139.3350   74.7480  222.3540 O   0  0  0  0  0  0  0  0  0  0  0  0
  140.4700   75.1120  221.9550 C   0  0  0  0  0  0  0  0  0  0  0  0
  141.3660   74.0280  221.6040 N   0  0  0  0  0  0  0  0  0  0  0  0
  140.8690   72.7080  221.7460 C   0  0  0  0  0  0  0  0  0  0  0  0
  139.7070   72.2780  220.9700 C   0  0  0  0  0  0  0  0  0  0  0  0
  140.0120   72.0410  219.7150 O   0  0  0  0  0  0  0  0  0  0  0  0
  138.3850   72.0850  221.3040 N   0  0  0  0  0  0  0  0  0  0  0  0
  137.1370   72.8130  221.0130 C   0  0  0  0  0  0  0  0  0  0  0  0
  136.5090   72.9360  222.3960 C   0  0  2  0  0  0  0  0  0  0  0  0
  136.5660   74.2040  222.9190 O   0  0  0  0  0  0  0  0  0  0  0  0
  137.2120   71.8860  223.2450 C   0  0  0  0  0  0  0  0  0  0  0  0
  137.8410   70.9990  222.1620 C   0  0  2  0  0  0  0  0  0  0  0  0
  138.8570   70.0770  222.7080 C   0  0  0  0  0  0  0  0  0  0  0  0
  139.5640   70.8030  223.7030 O   0  0  0  0  0  0  0  0  0  0  0  0
  140.3040   69.9800  224.5260 C   0  0  0  0  0  0  0  0  0  0  0  0
  140.4810   70.6390  225.8390 C   0  0  0  0  0  0  0  0  0  0  0  0
  141.1700   71.8170  226.0240 C   0  0  0  0  0  0  0  0  0  0  0  0
  141.2950   72.3750  227.2790 C   0  0  0  0  0  0  0  0  0  0  0  0
  140.7170   71.7340  228.3490 C   0  0  0  0  0  0  0  0  0  0  0  0
  140.0170   70.5520  228.2200 C   0  0  0  0  0  0  0  0  0  0  0  0
  139.9080   70.0170  226.9480 C   0  0  0  0  0  0  0  0  0  0  0  0
  140.8920   76.4940  221.8400 C   0  0  0  0  0  0  0  0  0  0  0  0
  141.0960   76.9910  220.5710 C   0  0  0  0  0  0  0  0  0  0  0  0
  141.5010   78.3190  220.4440 C   0  0  0  0  0  0  0  0  0  0  0  0
  141.6930   79.1170  221.5740 C   0  0  0  0  0  0  0  0  0  0  0  0
  142.0950   80.4300  221.4360 C   0  0  0  0  0  0  0  0  0  0  0  0
  142.2750   81.1880  222.5860 C   0  0  0  0  0  0  0  0  0  0  0  0
  142.0490   80.6150  223.8240 C   0  0  0  0  0  0  0  0  0  0  0  0
  141.6440   79.2930  223.9610 C   0  0  0  0  0  0  0  0  0  0  0  0
  141.4680   78.5450  222.8160 C   0  0  0  0  0  0  0  0  0  0  0  0
  141.0790   77.2690  222.9320 N   0  0  0  0  0  0  0  0  0  0  0  0
  142.3260   74.2930  221.2670 H   0  0  0  0  0  0  0  0  0  0  0  0
  141.6939   72.0282  221.4861 H   0  0  0  0  0  0  0  0  0  0  0  0
  140.5034   72.6852  222.7832 H   0  0  0  0  0  0  0  0  0  0  0  0
  137.3438   73.8024  220.5790 H   0  0  0  0  0  0  0  0  0  0  0  0
  136.4923   72.3097  220.2775 H   0  0  0  0  0  0  0  0  0  0  0  0
  135.4247   72.7545  222.3591 H   0  0  0  0  0  0  0  0  0  0  0  0
  137.5040   74.4710  223.1060 H   0  0  0  0  0  0  0  0  0  0  0  0
  137.9788   72.3377  223.8915 H   0  0  0  0  0  0  0  0  0  0  0  0
  136.5490   71.3491  223.9393 H   0  0  0  0  0  0  0  0  0  0  0  0
  137.1748   70.2916  221.6464 H   0  0  0  0  0  0  0  0  0  0  0  0
  138.3713   69.1960  223.1529 H   0  0  0  0  0  0  0  0  0  0  0  0
  139.5346   69.7180  221.9193 H   0  0  0  0  0  0  0  0  0  0  0  0
  139.7764   69.0244  224.6618 H   0  0  0  0  0  0  0  0  0  0  0  0
  141.2876   69.7898  224.0717 H   0  0  0  0  0  0  0  0  0  0  0  0
  141.6269   72.3198  225.1589 H   0  0  0  0  0  0  0  0  0  0  0  0
  141.8471   73.3157  227.4212 H   0  0  0  0  0  0  0  0  0  0  0  0
  140.8166   72.1817  229.3488 H   0  0  0  0  0  0  0  0  0  0  0  0
  139.5646   70.0557  229.0912 H   0  0  0  0  0  0  0  0  0  0  0  0
  139.3549   69.0765  226.8082 H   0  0  0  0  0  0  0  0  0  0  0  0
  140.9437   76.3584  219.6841 H   0  0  0  0  0  0  0  0  0  0  0  0
  141.6711   78.7427  219.4432 H   0  0  0  0  0  0  0  0  0  0  0  0
  142.2685   80.8652  220.4407 H   0  0  0  0  0  0  0  0  0  0  0  0
  142.5954   82.2377  222.5123 H   0  0  0  0  0  0  0  0  0  0  0  0
  142.1943   81.2245  224.7281 H   0  0  0  0  0  0  0  0  0  0  0  0
  141.4687   78.8554  224.9549 H   0  0  0  0  0  0  0  0  0  0  0  0
  1  2  2  0
  2  3  1  0
  3  4  1  0
  4  5  1  0
  5  6  2  0
  5  7  1  0
  7  8  1  0
  8  9  1  0
  9 10  1  0
  9 11  1  0
 11 12  1  0
 12 13  1  0
 13 14  1  0
 14 15  1  0
 15 16  1  0
 16 17  2  0
 17 18  1  0
 18 19  2  0
 19 20  1  0
 20 21  2  0
  2 22  1  0
 22 23  2  0
 23 24  1  0
 24 25  2  0
 25 26  1  0
 26 27  2  0
 27 28  1  0
 28 29  2  0
 29 30  1  0
 30 31  2  0
 12  7  1  0
 21 16  1  0
 31 22  1  0
 30 25  1  0
  3 32  1  0
  4 33  1  0
  4 34  1  0
  8 35  1  0
  8 36  1  0
  9 37  1  6
 10 38  1  0
 11 39  1  0
 11 40  1  0
 12 41  1  6
 13 42  1  0
 13 43  1  0
 15 44  1  0
 15 45  1  0
 17 46  1  0
 18 47  1  0
 19 48  1  0
 20 49  1  0
 21 50  1  0
 23 51  1  0
 24 52  1  0
 26 53  1  0
 27 54  1  0
 28 55  1  0
 29 56  1  0
M  END
>  <smiles>  (22) 
O=C(NCC(=O)N1C[C@H](O)C[C@@H]1COCc1ccccc1)c1ccc2ccccc2n1

>  <score_type>  (22) 
oracle

>  <origin>  (22) 
autodockgpu

>  <m_score__min__energy>  (22) 
-9.1699999999999999

>  <m_primary>  (22) 
energy

>  <rmsd>  (22) 
7.986333836990401

>  <m_score__min__rmsd>  (22) 
7.986333836990401

>  <meeko>  (22) 
{"free_energy": -7.95, "intermolecular_energy": -10.63, "internal_energy": -2.44, "cluster_size": 16, "cluster_id": 2, "rank_in_cluster": 9}

>  <energy>  (22) 
-7.39

>  <cluster_rmsd>  (22) 
1.65

>  <cluster>  (22) 
1

$$$$

     RDKit          3D

 56 59  0  0  0  0  0  0  0  0999 V2000
  139.5900   71.0100  221.4210 O   0  0  0  0  0  0  0  0  0  0  0  0
  139.7300   71.4990  222.5710 C   0  0  0  0  0  0  0  0  0  0  0  0
  139.8250   72.9450  222.6070 N   0  0  0  0  0  0  0  0  0  0  0  0
  139.7480   73.6290  221.3680 C   0  0  0  0  0  0  0  0  0  0  0  0
  140.3040   74.9760  221.2410 C   0  0  0  0  0  0  0  0  0  0  0  0
  140.9290   75.3550  222.3320 O   0  0  0  0  0  0  0  0  0  0  0  0
  140.2890   75.8960  220.2170 N   0  0  0  0  0  0  0  0  0  0  0  0
  141.2020   76.2080  219.1050 C   0  0  0  0  0  0  0  0  0  0  0  0
  141.3460   77.7200  219.2230 C   0  0  2  0  0  0  0  0  0  0  0  0
  142.5650   78.1230  219.7080 O   0  0  0  0  0  0  0  0  0  0  0  0
  140.1650   78.1650  220.0740 C   0  0  0  0  0  0  0  0  0  0  0  0
  139.2510   76.9350  219.9810 C   0  0  2  0  0  0  0  0  0  0  0  0
  138.1660   76.9630  220.9820 C   0  0  0  0  0  0  0  0  0  0  0  0
  138.7910   77.1130  222.2480 O   0  0  0  0  0  0  0  0  0  0  0  0
  138.5750   78.3600  222.7960 C   0  0  0  0  0  0  0  0  0  0  0  0
  139.8790   79.0020  223.0710 C   0  0  0  0  0  0  0  0  0  0  0  0
  141.0670   78.3140  223.1900 C   0  0  0  0  0  0  0  0  0  0  0  0
  142.2470   78.9790  223.4490 C   0  0  0  0  0  0  0  0  0  0  0  0
  142.2200   80.3470  223.5860 C   0  0  0  0  0  0  0  0  0  0  0  0
  141.0590   81.0840  223.4760 C   0  0  0  0  0  0  0  0  0  0  0  0
  139.8910   80.3880  223.2170 C   0  0  0  0  0  0  0  0  0  0  0  0
  139.7980   70.7170  223.7890 C   0  0  0  0  0  0  0  0  0  0  0  0
  139.2720   69.4420  223.7540 C   0  0  0  0  0  0  0  0  0  0  0  0
  139.3300   68.6770  224.9190 C   0  0  0  0  0  0  0  0  0  0  0  0
  139.9040   69.1920  226.0830 C   0  0  0  0  0  0  0  0  0  0  0  0
  139.9550   68.4270  227.2300 C   0  0  0  0  0  0  0  0  0  0  0  0
  140.5340   68.9780  228.3650 C   0  0  0  0  0  0  0  0  0  0  0  0
  141.0380   70.2650  228.3190 C   0  0  0  0  0  0  0  0  0  0  0  0
  140.9860   71.0340  227.1630 C   0  0  0  0  0  0  0  0  0  0  0  0
  140.4100   70.4830  226.0390 C   0  0  0  0  0  0  0  0  0  0  0  0
  140.3520   71.2120  224.9180 N   0  0  0  0  0  0  0  0  0  0  0  0
  139.9440   73.3910  223.5520 H   0  0  0  0  0  0  0  0  0  0  0  0
  140.2634   73.0014  220.6261 H   0  0  0  0  0  0  0  0  0  0  0  0
  138.6679   73.7873  221.2330 H   0  0  0  0  0  0  0  0  0  0  0  0
  142.1714   75.7038  219.2312 H   0  0  0  0  0  0  0  0  0  0  0  0
  140.8336   75.8743  218.1237 H   0  0  0  0  0  0  0  0  0  0  0  0
  141.3249   78.2014  218.2342 H   0  0  0  0  0  0  0  0  0  0  0  0
  143.2790   77.4790  219.4600 H   0  0  0  0  0  0  0  0  0  0  0  0
  140.4686   78.3642  221.1124 H   0  0  0  0  0  0  0  0  0  0  0  0
  139.6959   79.1025  219.7408 H   0  0  0  0  0  0  0  0  0  0  0  0
  138.6737   76.8092  219.0532 H   0  0  0  0  0  0  0  0  0  0  0  0
  137.4916   77.8101  220.7881 H   0  0  0  0  0  0  0  0  0  0  0  0
  137.5631   76.0438  220.9418 H   0  0  0  0  0  0  0  0  0  0  0  0
  138.0020   78.9784  222.0894 H   0  0  0  0  0  0  0  0  0  0  0  0
  138.0074   78.2591  223.7329 H   0  0  0  0  0  0  0  0  0  0  0  0
  141.0742   77.2199  223.0769 H   0  0  0  0  0  0  0  0  0  0  0  0
  143.1926   78.4252  223.5443 H   0  0  0  0  0  0  0  0  0  0  0  0
  143.1627   80.8753  223.7917 H   0  0  0  0  0  0  0  0  0  0  0  0
  141.0614   82.1781  223.5893 H   0  0  0  0  0  0  0  0  0  0  0  0
  138.9464   80.9440  223.1238 H   0  0  0  0  0  0  0  0  0  0  0  0
  138.8204   69.0407  222.8348 H   0  0  0  0  0  0  0  0  0  0  0  0
  138.9190   67.6567  224.9207 H   0  0  0  0  0  0  0  0  0  0  0  0
  139.5469   67.4056  227.2448 H   0  0  0  0  0  0  0  0  0  0  0  0
  140.5916   68.3943  229.2956 H   0  0  0  0  0  0  0  0  0  0  0  0
  141.4935   70.6925  229.2244 H   0  0  0  0  0  0  0  0  0  0  0  0
  141.3938   72.0555  227.1455 H   0  0  0  0  0  0  0  0  0  0  0  0
  1  2  2  0
  2  3  1  0
  3  4  1  0
  4  5  1  0
  5  6  2  0
  5  7  1  0
  7  8  1  0
  8  9  1  0
  9 10  1  0
  9 11  1  0
 11 12  1  0
 12 13  1  0
 13 14  1  0
 14 15  1  0
 15 16  1  0
 16 17  2  0
 17 18  1  0
 18 19  2  0
 19 20  1  0
 20 21  2  0
  2 22  1  0
 22 23  2  0
 23 24  1  0
 24 25  2  0
 25 26  1  0
 26 27  2  0
 27 28  1  0
 28 29  2  0
 29 30  1  0
 30 31  2  0
 12  7  1  0
 21 16  1  0
 31 22  1  0
 30 25  1  0
  3 32  1  0
  4 33  1  0
  4 34  1  0
  8 35  1  0
  8 36  1  0
  9 37  1  6
 10 38  1  0
 11 39  1  0
 11 40  1  0
 12 41  1  6
 13 42  1  0
 13 43  1  0
 15 44  1  0
 15 45  1  0
 17 46  1  0
 18 47  1  0
 19 48  1  0
 20 49  1  0
 21 50  1  0
 23 51  1  0
 24 52  1  0
 26 53  1  0
 27 54  1  0
 28 55  1  0
 29 56  1  0
M  END
>  <smiles>  (23) 
O=C(NCC(=O)N1C[C@H](O)C[C@@H]1COCc1ccccc1)c1ccc2ccccc2n1

>  <score_type>  (23) 
oracle

>  <origin>  (23) 
autodockgpu

>  <m_score__min__energy>  (23) 
-9.1699999999999999

>  <m_primary>  (23) 
energy

>  <rmsd>  (23) 
1.6896445277894758

>  <m_score__min__rmsd>  (23) 
1.6896445277894758

>  <meeko>  (23) 
{"free_energy": -7.98, "intermolecular_energy": -10.67, "internal_energy": -2.13, "cluster_size": 24, "cluster_id": 1, "rank_in_cluster": 18}

>  <energy>  (23) 
-7.3

>  <cluster_rmsd>  (23) 
1.71

>  <cluster>  (23) 
1

$$$$

     RDKit          3D

 56 59  0  0  0  0  0  0  0  0999 V2000
  139.1730   74.8640  222.3320 O   0  0  0  0  0  0  0  0  0  0  0  0
  140.2020   75.5660  222.1690 C   0  0  0  0  0  0  0  0  0  0  0  0
  141.3660   74.8400  221.7010 N   0  0  0  0  0  0  0  0  0  0  0  0
  141.2130   73.4470  221.4840 C   0  0  0  0  0  0  0  0  0  0  0  0
  140.1620   72.9580  220.5920 C   0  0  0  0  0  0  0  0  0  0  0  0
  140.5270   73.0020  219.3310 O   0  0  0  0  0  0  0  0  0  0  0  0
  138.8930   72.4770  220.8240 N   0  0  0  0  0  0  0  0  0  0  0  0
  137.5390   72.9500  220.4870 C   0  0  0  0  0  0  0  0  0  0  0  0
  136.8230   72.8530  221.8280 C   0  0  2  0  0  0  0  0  0  0  0  0
  136.5840   74.0700  222.4160 O   0  0  0  0  0  0  0  0  0  0  0  0
  137.6810   71.9190  222.6690 C   0  0  0  0  0  0  0  0  0  0  0  0
  138.5410   71.2500  221.5880 C   0  0  2  0  0  0  0  0  0  0  0  0
  139.6950   70.5240  222.1540 C   0  0  0  0  0  0  0  0  0  0  0  0
  139.8370   70.9770  223.4930 O   0  0  0  0  0  0  0  0  0  0  0  0
  139.8830   69.9370  224.3970 C   0  0  0  0  0  0  0  0  0  0  0  0
  140.2680   70.4660  225.7240 C   0  0  0  0  0  0  0  0  0  0  0  0
  139.9110   69.8820  226.9200 C   0  0  0  0  0  0  0  0  0  0  0  0
  140.3060   70.4310  228.1220 C   0  0  0  0  0  0  0  0  0  0  0  0
  141.0670   71.5770  228.1080 C   0  0  0  0  0  0  0  0  0  0  0  0
  141.4510   72.2010  226.9400 C   0  0  0  0  0  0  0  0  0  0  0  0
  141.0390   71.6260  225.7500 C   0  0  0  0  0  0  0  0  0  0  0  0
  140.2650   76.9930  222.4160 C   0  0  0  0  0  0  0  0  0  0  0  0
  139.0770   77.6930  222.3970 C   0  0  0  0  0  0  0  0  0  0  0  0
  139.1210   79.0670  222.6330 C   0  0  0  0  0  0  0  0  0  0  0  0
  140.3360   79.7090  222.8820 C   0  0  0  0  0  0  0  0  0  0  0  0
  140.3680   81.0690  223.1140 C   0  0  0  0  0  0  0  0  0  0  0  0
  141.5970   81.6670  223.3560 C   0  0  0  0  0  0  0  0  0  0  0  0
  142.7440   80.8950  223.3590 C   0  0  0  0  0  0  0  0  0  0  0  0
  142.7100   79.5260  223.1250 C   0  0  0  0  0  0  0  0  0  0  0  0
  141.4870   78.9370  222.8840 C   0  0  0  0  0  0  0  0  0  0  0  0
  141.4390   77.6180  222.6570 N   0  0  0  0  0  0  0  0  0  0  0  0
  142.2470   75.3940  221.5540 H   0  0  0  0  0  0  0  0  0  0  0  0
  142.1685   73.0815  221.0796 H   0  0  0  0  0  0  0  0  0  0  0  0
  140.9045   73.0693  222.4700 H   0  0  0  0  0  0  0  0  0  0  0  0
  137.5584   73.9864  220.1190 H   0  0  0  0  0  0  0  0  0  0  0  0
  137.0558   72.3727  219.6850 H   0  0  0  0  0  0  0  0  0  0  0  0
  135.8047   72.4544  221.7087 H   0  0  0  0  0  0  0  0  0  0  0  0
  137.2750   74.2790  223.0980 H   0  0  0  0  0  0  0  0  0  0  0  0
  138.2991   72.4771  223.3877 H   0  0  0  0  0  0  0  0  0  0  0  0
  137.1072   71.2148  223.2893 H   0  0  0  0  0  0  0  0  0  0  0  0
  138.0672   70.4546  220.9940 H   0  0  0  0  0  0  0  0  0  0  0  0
  139.5080   69.4401  222.1370 H   0  0  0  0  0  0  0  0  0  0  0  0
  140.6087   70.7114  221.5709 H   0  0  0  0  0  0  0  0  0  0  0  0
  138.8930   69.4621  224.4628 H   0  0  0  0  0  0  0  0  0  0  0  0
  140.6211   69.1912  224.0669 H   0  0  0  0  0  0  0  0  0  0  0  0
  139.3027   68.9655  226.9160 H   0  0  0  0  0  0  0  0  0  0  0  0
  140.0179   69.9613  229.0741 H   0  0  0  0  0  0  0  0  0  0  0  0
  141.3819   72.0132  229.0675 H   0  0  0  0  0  0  0  0  0  0  0  0
  142.0593   73.1174  226.9532 H   0  0  0  0  0  0  0  0  0  0  0  0
  141.3282   72.0978  224.7993 H   0  0  0  0  0  0  0  0  0  0  0  0
  138.1224   77.1826  222.2014 H   0  0  0  0  0  0  0  0  0  0  0  0
  138.1889   79.6511  222.6229 H   0  0  0  0  0  0  0  0  0  0  0  0
  139.4429   81.6641  223.1073 H   0  0  0  0  0  0  0  0  0  0  0  0
  141.6581   82.7490  223.5444 H   0  0  0  0  0  0  0  0  0  0  0  0
  143.7125   81.3793  223.5525 H   0  0  0  0  0  0  0  0  0  0  0  0
  143.6335   78.9284  223.1318 H   0  0  0  0  0  0  0  0  0  0  0  0
  1  2  2  0
  2  3  1  0
  3  4  1  0
  4  5  1  0
  5  6  2  0
  5  7  1  0
  7  8  1  0
  8  9  1  0
  9 10  1  0
  9 11  1  0
 11 12  1  0
 12 13  1  0
 13 14  1  0
 14 15  1  0
 15 16  1  0
 16 17  2  0
 17 18  1  0
 18 19  2  0
 19 20  1  0
 20 21  2  0
  2 22  1  0
 22 23  2  0
 23 24  1  0
 24 25  2  0
 25 26  1  0
 26 27  2  0
 27 28  1  0
 28 29  2  0
 29 30  1  0
 30 31  2  0
 12  7  1  0
 21 16  1  0
 31 22  1  0
 30 25  1  0
  3 32  1  0
  4 33  1  0
  4 34  1  0
  8 35  1  0
  8 36  1  0
  9 37  1  6
 10 38  1  0
 11 39  1  0
 11 40  1  0
 12 41  1  6
 13 42  1  0
 13 43  1  0
 15 44  1  0
 15 45  1  0
 17 46  1  0
 18 47  1  0
 19 48  1  0
 20 49  1  0
 21 50  1  0
 23 51  1  0
 24 52  1  0
 26 53  1  0
 27 54  1  0
 28 55  1  0
 29 56  1  0
M  END
>  <smiles>  (24) 
O=C(NCC(=O)N1C[C@H](O)C[C@@H]1COCc1ccccc1)c1ccc2ccccc2n1

>  <score_type>  (24) 
oracle

>  <origin>  (24) 
autodockgpu

>  <m_score__min__energy>  (24) 
-9.1699999999999999

>  <m_primary>  (24) 
energy

>  <rmsd>  (24) 
7.9352805934391295

>  <m_score__min__rmsd>  (24) 
7.9352805934391295

>  <meeko>  (24) 
{"free_energy": -8.12, "intermolecular_energy": -10.81, "internal_energy": -2.51, "cluster_size": 16, "cluster_id": 2, "rank_in_cluster": 5}

>  <energy>  (24) 
-7.22

>  <cluster_rmsd>  (24) 
1.67

>  <cluster>  (24) 
1

$$$$

     RDKit          3D

 56 59  0  0  0  0  0  0  0  0999 V2000
  138.5620   71.1240  221.9360 O   0  0  0  0  0  0  0  0  0  0  0  0
  139.3910   71.3060  222.8630 C   0  0  0  0  0  0  0  0  0  0  0  0
  140.2060   72.4960  222.7240 N   0  0  0  0  0  0  0  0  0  0  0  0
  139.9790   73.3040  221.5810 C   0  0  0  0  0  0  0  0  0  0  0  0
  140.9280   74.3620  221.2340 C   0  0  0  0  0  0  0  0  0  0  0  0
  140.9000   75.3510  222.0970 O   0  0  0  0  0  0  0  0  0  0  0  0
  141.8170   74.5090  220.1940 N   0  0  0  0  0  0  0  0  0  0  0  0
  142.9290   73.6950  219.6720 C   0  0  0  0  0  0  0  0  0  0  0  0
  144.0500   74.7210  219.5570 C   0  0  2  0  0  0  0  0  0  0  0  0
  145.0260   74.5840  220.5120 O   0  0  0  0  0  0  0  0  0  0  0  0
  143.3520   76.0740  219.5780 C   0  0  0  0  0  0  0  0  0  0  0  0
  141.9050   75.6680  219.2650 C   0  0  2  0  0  0  0  0  0  0  0  0
  140.9430   76.7530  219.5410 C   0  0  0  0  0  0  0  0  0  0  0  0
  141.4770   77.4970  220.6260 O   0  0  0  0  0  0  0  0  0  0  0  0
  141.6110   78.8370  220.3280 C   0  0  0  0  0  0  0  0  0  0  0  0
  141.8200   79.5940  221.5820 C   0  0  0  0  0  0  0  0  0  0  0  0
  142.1800   79.0170  222.7800 C   0  0  0  0  0  0  0  0  0  0  0  0
  142.3580   79.7850  223.9110 C   0  0  0  0  0  0  0  0  0  0  0  0
  142.1700   81.1450  223.8230 C   0  0  0  0  0  0  0  0  0  0  0  0
  141.8100   81.7730  222.6490 C   0  0  0  0  0  0  0  0  0  0  0  0
  141.6390   80.9750  221.5320 C   0  0  0  0  0  0  0  0  0  0  0  0
  139.5520   70.4210  224.0000 C   0  0  0  0  0  0  0  0  0  0  0  0
  139.0240   69.1520  223.8970 C   0  0  0  0  0  0  0  0  0  0  0  0
  139.1720   68.2890  224.9820 C   0  0  0  0  0  0  0  0  0  0  0  0
  139.8360   68.7050  226.1380 C   0  0  0  0  0  0  0  0  0  0  0  0
  139.9760   67.8430  227.2070 C   0  0  0  0  0  0  0  0  0  0  0  0
  140.6430   68.2980  228.3370 C   0  0  0  0  0  0  0  0  0  0  0  0
  141.1440   69.5860  228.3620 C   0  0  0  0  0  0  0  0  0  0  0  0
  141.0030   70.4520  227.2860 C   0  0  0  0  0  0  0  0  0  0  0  0
  140.3390   69.9970  226.1660 C   0  0  0  0  0  0  0  0  0  0  0  0
  140.1950   70.8200  225.1210 N   0  0  0  0  0  0  0  0  0  0  0  0
  140.9130   72.6820  223.4790 H   0  0  0  0  0  0  0  0  0  0  0  0
  139.9299   72.6253  220.7168 H   0  0  0  0  0  0  0  0  0  0  0  0
  139.0651   73.8586  221.8403 H   0  0  0  0  0  0  0  0  0  0  0  0
  143.1960   72.8888  220.3711 H   0  0  0  0  0  0  0  0  0  0  0  0
  142.6974   73.1849  218.7253 H   0  0  0  0  0  0  0  0  0  0  0  0
  144.6217   74.5842  218.6273 H   0  0  0  0  0  0  0  0  0  0  0  0
  145.9290   74.7160  220.1210 H   0  0  0  0  0  0  0  0  0  0  0  0
  143.4317   76.5534  220.5648 H   0  0  0  0  0  0  0  0  0  0  0  0
  143.7751   76.8111  218.8797 H   0  0  0  0  0  0  0  0  0  0  0  0
  141.6655   75.4400  218.2159 H   0  0  0  0  0  0  0  0  0  0  0  0
  140.8321   77.3971  218.6562 H   0  0  0  0  0  0  0  0  0  0  0  0
  139.9484   76.3512  219.7847 H   0  0  0  0  0  0  0  0  0  0  0  0
  142.4747   78.9816  219.6623 H   0  0  0  0  0  0  0  0  0  0  0  0
  140.7014   79.1973  219.8252 H   0  0  0  0  0  0  0  0  0  0  0  0
  142.3275   77.9283  222.8350 H   0  0  0  0  0  0  0  0  0  0  0  0
  142.6448   79.3193  224.8654 H   0  0  0  0  0  0  0  0  0  0  0  0
  142.3127   81.7567  224.7261 H   0  0  0  0  0  0  0  0  0  0  0  0
  141.6650   82.8624  222.6028 H   0  0  0  0  0  0  0  0  0  0  0  0
  141.3525   81.4430  220.5787 H   0  0  0  0  0  0  0  0  0  0  0  0
  138.5008   68.8293  222.9848 H   0  0  0  0  0  0  0  0  0  0  0  0
  138.7615   67.2699  224.9269 H   0  0  0  0  0  0  0  0  0  0  0  0
  139.5696   66.8217  227.1649 H   0  0  0  0  0  0  0  0  0  0  0  0
  140.7718   67.6373  229.2070 H   0  0  0  0  0  0  0  0  0  0  0  0
  141.6707   69.9357  229.2622 H   0  0  0  0  0  0  0  0  0  0  0  0
  141.4098   71.4732  227.3257 H   0  0  0  0  0  0  0  0  0  0  0  0
  1  2  2  0
  2  3  1  0
  3  4  1  0
  4  5  1  0
  5  6  2  0
  5  7  1  0
  7  8  1  0
  8  9  1  0
  9 10  1  0
  9 11  1  0
 11 12  1  0
 12 13  1  0
 13 14  1  0
 14 15  1  0
 15 16  1  0
 16 17  2  0
 17 18  1  0
 18 19  2  0
 19 20  1  0
 20 21  2  0
  2 22  1  0
 22 23  2  0
 23 24  1  0
 24 25  2  0
 25 26  1  0
 26 27  2  0
 27 28  1  0
 28 29  2  0
 29 30  1  0
 30 31  2  0
 12  7  1  0
 21 16  1  0
 31 22  1  0
 30 25  1  0
  3 32  1  0
  4 33  1  0
  4 34  1  0
  8 35  1  0
  8 36  1  0
  9 37  1  6
 10 38  1  0
 11 39  1  0
 11 40  1  0
 12 41  1  6
 13 42  1  0
 13 43  1  0
 15 44  1  0
 15 45  1  0
 17 46  1  0
 18 47  1  0
 19 48  1  0
 20 49  1  0
 21 50  1  0
 23 51  1  0
 24 52  1  0
 26 53  1  0
 27 54  1  0
 28 55  1  0
 29 56  1  0
M  END
>  <smiles>  (25) 
O=C(NCC(=O)N1C[C@H](O)C[C@@H]1COCc1ccccc1)c1ccc2ccccc2n1

>  <score_type>  (25) 
oracle

>  <origin>  (25) 
autodockgpu

>  <m_score__min__energy>  (25) 
-9.1699999999999999

>  <m_primary>  (25) 
energy

>  <rmsd>  (25) 
2.2823660898524865

>  <m_score__min__rmsd>  (25) 
2.2823660898524865

>  <meeko>  (25) 
{"free_energy": -8.58, "intermolecular_energy": -11.26, "internal_energy": -1.49, "cluster_size": 24, "cluster_id": 1, "rank_in_cluster": 11}

>  <energy>  (25) 
-9.1

>  <cluster_rmsd>  (25) 
0.0

>  <cluster>  (25) 
2

$$$$

     RDKit          3D

 56 59  0  0  0  0  0  0  0  0999 V2000
  141.9000   72.5320  221.0900 O   0  0  0  0  0  0  0  0  0  0  0  0
  141.1900   73.4110  221.6390 C   0  0  0  0  0  0  0  0  0  0  0  0
  140.2390   72.9050  222.6080 N   0  0  0  0  0  0  0  0  0  0  0  0
  140.2190   71.5030  222.8220 C   0  0  0  0  0  0  0  0  0  0  0  0
  139.1620   70.6890  222.2250 C   0  0  0  0  0  0  0  0  0  0  0  0
  139.5420   70.1390  221.0940 O   0  0  0  0  0  0  0  0  0  0  0  0
  137.8730   70.4040  222.6180 N   0  0  0  0  0  0  0  0  0  0  0  0
  136.5770   71.0840  222.4540 C   0  0  0  0  0  0  0  0  0  0  0  0
  136.0280   71.0730  223.8760 C   0  0  2  0  0  0  0  0  0  0  0  0
  136.0560   72.3010  224.4890 O   0  0  0  0  0  0  0  0  0  0  0  0
  136.8310   70.0030  224.6020 C   0  0  0  0  0  0  0  0  0  0  0  0
  137.4350   69.2300  223.4210 C   0  0  2  0  0  0  0  0  0  0  0  0
  138.5250   68.3260  223.8370 C   0  0  0  0  0  0  0  0  0  0  0  0
  138.5870   68.3960  225.2540 O   0  0  0  0  0  0  0  0  0  0  0  0
  139.8780   68.3020  225.7280 C   0  0  0  0  0  0  0  0  0  0  0  0
  140.2530   69.5810  226.3710 C   0  0  0  0  0  0  0  0  0  0  0  0
  141.0750   70.5230  225.7930 C   0  0  0  0  0  0  0  0  0  0  0  0
  141.3830   71.6950  226.4520 C   0  0  0  0  0  0  0  0  0  0  0  0
  140.8520   71.9100  227.7030 C   0  0  0  0  0  0  0  0  0  0  0  0
  140.0250   70.9990  228.3270 C   0  0  0  0  0  0  0  0  0  0  0  0
  139.7350   69.8330  227.6400 C   0  0  0  0  0  0  0  0  0  0  0  0
  141.2820   74.8300  221.3560 C   0  0  0  0  0  0  0  0  0  0  0  0
  142.0050   75.2100  220.2450 C   0  0  0  0  0  0  0  0  0  0  0  0
  142.1020   76.5710  219.9600 C   0  0  0  0  0  0  0  0  0  0  0  0
  141.4830   77.5180  220.7800 C   0  0  0  0  0  0  0  0  0  0  0  0
  141.5870   78.8630  220.4880 C   0  0  0  0  0  0  0  0  0  0  0  0
  140.9560   79.7700  221.3300 C   0  0  0  0  0  0  0  0  0  0  0  0
  140.2510   79.3080  222.4250 C   0  0  0  0  0  0  0  0  0  0  0  0
  140.1470   77.9540  222.7170 C   0  0  0  0  0  0  0  0  0  0  0  0
  140.7750   77.0570  221.8790 C   0  0  0  0  0  0  0  0  0  0  0  0
  140.6850   75.7490  222.1480 N   0  0  0  0  0  0  0  0  0  0  0  0
  139.6260   73.6110  223.0880 H   0  0  0  0  0  0  0  0  0  0  0  0
  141.1744   71.1101  222.4442 H   0  0  0  0  0  0  0  0  0  0  0  0
  140.0282   71.4141  223.9017 H   0  0  0  0  0  0  0  0  0  0  0  0
  136.7093   72.1118  222.0851 H   0  0  0  0  0  0  0  0  0  0  0  0
  135.9143   70.6021  221.7201 H   0  0  0  0  0  0  0  0  0  0  0  0
  134.9535   70.8378  223.8871 H   0  0  0  0  0  0  0  0  0  0  0  0
  136.9410   72.7360  224.3770 H   0  0  0  0  0  0  0  0  0  0  0  0
  137.6132   70.4466  225.2356 H   0  0  0  0  0  0  0  0  0  0  0  0
  136.2380   69.3835  225.2909 H   0  0  0  0  0  0  0  0  0  0  0  0
  136.7741   68.5274  222.8923 H   0  0  0  0  0  0  0  0  0  0  0  0
  138.3082   67.2963  223.5164 H   0  0  0  0  0  0  0  0  0  0  0  0
  139.4820   68.6203  223.3815 H   0  0  0  0  0  0  0  0  0  0  0  0
  139.9415   67.4872  226.4643 H   0  0  0  0  0  0  0  0  0  0  0  0
  140.5641   68.0916  224.8943 H   0  0  0  0  0  0  0  0  0  0  0  0
  141.4917   70.3381  224.7919 H   0  0  0  0  0  0  0  0  0  0  0  0
  142.0407   72.4436  225.9862 H   0  0  0  0  0  0  0  0  0  0  0  0
  141.0968   72.8459  228.2266 H   0  0  0  0  0  0  0  0  0  0  0  0
  139.6132   71.1913  229.3287 H   0  0  0  0  0  0  0  0  0  0  0  0
  139.0781   69.0852  228.1082 H   0  0  0  0  0  0  0  0  0  0  0  0
  142.4910   74.4610  219.6024 H   0  0  0  0  0  0  0  0  0  0  0  0
  142.6721   76.9032  219.0799 H   0  0  0  0  0  0  0  0  0  0  0  0
  142.1549   79.2078  219.6113 H   0  0  0  0  0  0  0  0  0  0  0  0
  141.0171   80.8492  221.1263 H   0  0  0  0  0  0  0  0  0  0  0  0
  139.7568   80.0352  223.0860 H   0  0  0  0  0  0  0  0  0  0  0  0
  139.5792   77.6068  223.5928 H   0  0  0  0  0  0  0  0  0  0  0  0
  1  2  2  0
  2  3  1  0
  3  4  1  0
  4  5  1  0
  5  6  2  0
  5  7  1  0
  7  8  1  0
  8  9  1  0
  9 10  1  0
  9 11  1  0
 11 12  1  0
 12 13  1  0
 13 14  1  0
 14 15  1  0
 15 16  1  0
 16 17  2  0
 17 18  1  0
 18 19  2  0
 19 20  1  0
 20 21  2  0
  2 22  1  0
 22 23  2  0
 23 24  1  0
 24 25  2  0
 25 26  1  0
 26 27  2  0
 27 28  1  0
 28 29  2  0
 29 30  1  0
 30 31  2  0
 12  7  1  0
 21 16  1  0
 31 22  1  0
 30 25  1  0
  3 32  1  0
  4 33  1  0
  4 34  1  0
  8 35  1  0
  8 36  1  0
  9 37  1  6
 10 38  1  0
 11 39  1  0
 11 40  1  0
 12 41  1  6
 13 42  1  0
 13 43  1  0
 15 44  1  0
 15 45  1  0
 17 46  1  0
 18 47  1  0
 19 48  1  0
 20 49  1  0
 21 50  1  0
 23 51  1  0
 24 52  1  0
 26 53  1  0
 27 54  1  0
 28 55  1  0
 29 56  1  0
M  END
>  <smiles>  (26) 
O=C(NCC(=O)N1C[C@H](O)C[C@@H]1COCc1ccccc1)c1ccc2ccccc2n1

>  <score_type>  (26) 
oracle

>  <origin>  (26) 
autodockgpu

>  <m_score__min__energy>  (26) 
-9.1699999999999999

>  <m_primary>  (26) 
energy

>  <rmsd>  (26) 
8.19070358741432

>  <m_score__min__rmsd>  (26) 
8.19070358741432

>  <meeko>  (26) 
{"free_energy": -8.12, "intermolecular_energy": -10.81, "internal_energy": -2.02, "cluster_size": 16, "cluster_id": 2, "rank_in_cluster": 4}

>  <energy>  (26) 
-8.94

>  <cluster_rmsd>  (26) 
0.58

>  <cluster>  (26) 
2

$$$$

     RDKit          3D

 56 59  0  0  0  0  0  0  0  0999 V2000
  141.7090   72.8990  221.0500 O   0  0  0  0  0  0  0  0  0  0  0  0
  140.9860   73.7780  221.5840 C   0  0  0  0  0  0  0  0  0  0  0  0
  139.8930   73.2600  222.3850 N   0  0  0  0  0  0  0  0  0  0  0  0
  139.7690   71.8510  222.4720 C   0  0  0  0  0  0  0  0  0  0  0  0
  138.4580   71.2470  222.7110 C   0  0  0  0  0  0  0  0  0  0  0  0
  137.5980   72.1130  223.1960 O   0  0  0  0  0  0  0  0  0  0  0  0
  137.9750   69.9710  222.5300 N   0  0  0  0  0  0  0  0  0  0  0  0
  137.4990   69.2100  221.3620 C   0  0  0  0  0  0  0  0  0  0  0  0
  136.1750   68.6460  221.8640 C   0  0  2  0  0  0  0  0  0  0  0  0
  135.0720   69.2550  221.3190 O   0  0  0  0  0  0  0  0  0  0  0  0
  136.2510   68.7510  223.3810 C   0  0  0  0  0  0  0  0  0  0  0  0
  137.7580   68.9510  223.5920 C   0  0  2  0  0  0  0  0  0  0  0  0
  138.0810   69.4050  224.9580 C   0  0  0  0  0  0  0  0  0  0  0  0
  138.6680   68.2960  225.6230 O   0  0  0  0  0  0  0  0  0  0  0  0
  140.0360   68.4190  225.7410 C   0  0  0  0  0  0  0  0  0  0  0  0
  140.3510   69.6860  226.4380 C   0  0  0  0  0  0  0  0  0  0  0  0
  139.9740   69.9670  227.7330 C   0  0  0  0  0  0  0  0  0  0  0  0
  140.3020   71.1710  228.3200 C   0  0  0  0  0  0  0  0  0  0  0  0
  141.0160   72.0920  227.5890 C   0  0  0  0  0  0  0  0  0  0  0  0
  141.4170   71.8610  226.2890 C   0  0  0  0  0  0  0  0  0  0  0  0
  141.0730   70.6430  225.7280 C   0  0  0  0  0  0  0  0  0  0  0  0
  141.1910   75.2050  221.4380 C   0  0  0  0  0  0  0  0  0  0  0  0
  141.9730   75.6290  220.3840 C   0  0  0  0  0  0  0  0  0  0  0  0
  142.1800   76.9990  220.2310 C   0  0  0  0  0  0  0  0  0  0  0  0
  141.6100   77.9110  221.1220 C   0  0  0  0  0  0  0  0  0  0  0  0
  141.8220   79.2650  220.9600 C   0  0  0  0  0  0  0  0  0  0  0  0
  141.2360   80.1360  221.8700 C   0  0  0  0  0  0  0  0  0  0  0  0
  140.4660   79.6320  222.9000 C   0  0  0  0  0  0  0  0  0  0  0  0
  140.2530   78.2680  223.0610 C   0  0  0  0  0  0  0  0  0  0  0  0
  140.8370   77.4070  222.1570 C   0  0  0  0  0  0  0  0  0  0  0  0
  140.6410   76.0900  222.2990 N   0  0  0  0  0  0  0  0  0  0  0  0
  139.2650   73.9650  222.8470 H   0  0  0  0  0  0  0  0  0  0  0  0
  140.1399   71.4399  221.5215 H   0  0  0  0  0  0  0  0  0  0  0  0
  140.3327   71.6026  223.3834 H   0  0  0  0  0  0  0  0  0  0  0  0
  137.3488   69.8665  220.4923 H   0  0  0  0  0  0  0  0  0  0  0  0
  138.2054   68.4400  221.0185 H   0  0  0  0  0  0  0  0  0  0  0  0
  136.0389   67.6022  221.5447 H   0  0  0  0  0  0  0  0  0  0  0  0
  135.0600   70.2250  221.5280 H   0  0  0  0  0  0  0  0  0  0  0  0
  135.6743   69.6099  223.7548 H   0  0  0  0  0  0  0  0  0  0  0  0
  135.8318   67.8852  223.9146 H   0  0  0  0  0  0  0  0  0  0  0  0
  138.3964   68.0586  223.5145 H   0  0  0  0  0  0  0  0  0  0  0  0
  138.7901   70.2451  224.9215 H   0  0  0  0  0  0  0  0  0  0  0  0
  137.1805   69.7537  225.4847 H   0  0  0  0  0  0  0  0  0  0  0  0
  140.4333   67.5719  226.3195 H   0  0  0  0  0  0  0  0  0  0  0  0
  140.4949   68.4225  224.7413 H   0  0  0  0  0  0  0  0  0  0  0  0
  139.4038   69.2212  228.3063 H   0  0  0  0  0  0  0  0  0  0  0  0
  139.9982   71.3909  229.3541 H   0  0  0  0  0  0  0  0  0  0  0  0
  141.2778   73.0511  228.0597 H   0  0  0  0  0  0  0  0  0  0  0  0
  141.9860   72.6128  225.7224 H   0  0  0  0  0  0  0  0  0  0  0  0
  141.3779   70.4249  224.6938 H   0  0  0  0  0  0  0  0  0  0  0  0
  142.4202   74.9073  219.6847 H   0  0  0  0  0  0  0  0  0  0  0  0
  142.7992   77.3659  219.3992 H   0  0  0  0  0  0  0  0  0  0  0  0
  142.4388   79.6447  220.1321 H   0  0  0  0  0  0  0  0  0  0  0  0
  141.3845   81.2214  221.7707 H   0  0  0  0  0  0  0  0  0  0  0  0
  140.0074   80.3314  223.6146 H   0  0  0  0  0  0  0  0  0  0  0  0
  139.6353   77.8861  223.8872 H   0  0  0  0  0  0  0  0  0  0  0  0
  1  2  2  0
  2  3  1  0
  3  4  1  0
  4  5  1  0
  5  6  2  0
  5  7  1  0
  7  8  1  0
  8  9  1  0
  9 10  1  0
  9 11  1  0
 11 12  1  0
 12 13  1  0
 13 14  1  0
 14 15  1  0
 15 16  1  0
 16 17  2  0
 17 18  1  0
 18 19  2  0
 19 20  1  0
 20 21  2  0
  2 22  1  0
 22 23  2  0
 23 24  1  0
 24 25  2  0
 25 26  1  0
 26 27  2  0
 27 28  1  0
 28 29  2  0
 29 30  1  0
 30 31  2  0
 12  7  1  0
 21 16  1  0
 31 22  1  0
 30 25  1  0
  3 32  1  0
  4 33  1  0
  4 34  1  0
  8 35  1  0
  8 36  1  0
  9 37  1  1
 10 38  1  0
 11 39  1  0
 11 40  1  0
 12 41  1  6
 13 42  1  0
 13 43  1  0
 15 44  1  0
 15 45  1  0
 17 46  1  0
 18 47  1  0
 19 48  1  0
 20 49  1  0
 21 50  1  0
 23 51  1  0
 24 52  1  0
 26 53  1  0
 27 54  1  0
 28 55  1  0
 29 56  1  0
M  END
>  <smiles>  (27) 
O=C(NCC(=O)N1C[C@H](O)C[C@@H]1COCc1ccccc1)c1ccc2ccccc2n1

>  <score_type>  (27) 
oracle

>  <origin>  (27) 
autodockgpu

>  <m_score__min__energy>  (27) 
-9.1699999999999999

>  <m_primary>  (27) 
energy

>  <rmsd>  (27) 
8.32934413306368

>  <m_score__min__rmsd>  (27) 
8.32934413306368

>  <meeko>  (27) 
{"free_energy": -7.71, "intermolecular_energy": -10.39, "internal_energy": -2.09, "cluster_size": 4, "cluster_id": 4, "rank_in_cluster": 1}

>  <energy>  (27) 
-8.47

>  <cluster_rmsd>  (27) 
1.49

>  <cluster>  (27) 
2

$$$$

     RDKit          3D

 56 59  0  0  0  0  0  0  0  0999 V2000
  140.3820   73.3910  222.6380 O   0  0  0  0  0  0  0  0  0  0  0  0
  140.9250   73.8410  221.5980 C   0  0  0  0  0  0  0  0  0  0  0  0
  141.4180   72.8290  220.6840 N   0  0  0  0  0  0  0  0  0  0  0  0
  141.2340   71.4750  221.0610 C   0  0  0  0  0  0  0  0  0  0  0  0
  139.9150   70.8540  220.9320 C   0  0  0  0  0  0  0  0  0  0  0  0
  139.9960   69.6000  220.5530 O   0  0  0  0  0  0  0  0  0  0  0  0
  138.6390   71.3330  221.1260 N   0  0  0  0  0  0  0  0  0  0  0  0
  137.8480   72.4190  220.5210 C   0  0  0  0  0  0  0  0  0  0  0  0
  137.3140   73.1480  221.7490 C   0  0  2  0  0  0  0  0  0  0  0  0
  137.9170   74.3590  221.9770 O   0  0  0  0  0  0  0  0  0  0  0  0
  137.4650   72.1570  222.8940 C   0  0  0  0  0  0  0  0  0  0  0  0
  137.6550   70.8410  222.1270 C   0  0  2  0  0  0  0  0  0  0  0  0
  138.1480   69.7510  222.9920 C   0  0  0  0  0  0  0  0  0  0  0  0
  138.5970   70.3620  224.1930 O   0  0  0  0  0  0  0  0  0  0  0  0
  139.9680   70.2970  224.3340 C   0  0  0  0  0  0  0  0  0  0  0  0
  140.3380   70.7600  225.6900 C   0  0  0  0  0  0  0  0  0  0  0  0
  141.0960   71.8830  225.9410 C   0  0  0  0  0  0  0  0  0  0  0  0
  141.4040   72.2560  227.2320 C   0  0  0  0  0  0  0  0  0  0  0  0
  140.9380   71.4850  228.2720 C   0  0  0  0  0  0  0  0  0  0  0  0
  140.1760   70.3520  228.0760 C   0  0  0  0  0  0  0  0  0  0  0  0
  139.8840   70.0040  226.7690 C   0  0  0  0  0  0  0  0  0  0  0  0
  141.0690   75.2510  221.2960 C   0  0  0  0  0  0  0  0  0  0  0  0
  140.5520   76.1510  222.2040 C   0  0  0  0  0  0  0  0  0  0  0  0
  140.6820   77.5110  221.9270 C   0  0  0  0  0  0  0  0  0  0  0  0
  141.3180   77.9440  220.7620 C   0  0  0  0  0  0  0  0  0  0  0  0
  141.4410   79.2930  220.4980 C   0  0  0  0  0  0  0  0  0  0  0  0
  142.0810   79.6790  219.3270 C   0  0  0  0  0  0  0  0  0  0  0  0
  142.5720   78.7150  218.4670 C   0  0  0  0  0  0  0  0  0  0  0  0
  142.4480   77.3580  218.7340 C   0  0  0  0  0  0  0  0  0  0  0  0
  141.8110   76.9780  219.8970 C   0  0  0  0  0  0  0  0  0  0  0  0
  141.6840   75.6740  220.1690 N   0  0  0  0  0  0  0  0  0  0  0  0
  141.8800   73.1670  219.8030 H   0  0  0  0  0  0  0  0  0  0  0  0
  141.9275   70.8780  220.4506 H   0  0  0  0  0  0  0  0  0  0  0  0
  141.4025   71.4892  222.1479 H   0  0  0  0  0  0  0  0  0  0  0  0
  138.4794   73.0791  219.9081 H   0  0  0  0  0  0  0  0  0  0  0  0
  137.0606   72.0658  219.8389 H   0  0  0  0  0  0  0  0  0  0  0  0
  136.2619   73.4399  221.6151 H   0  0  0  0  0  0  0  0  0  0  0  0
  138.4970   74.3230  222.7820 H   0  0  0  0  0  0  0  0  0  0  0  0
  138.3413   72.3908  223.5164 H   0  0  0  0  0  0  0  0  0  0  0  0
  136.6209   72.1504  223.5993 H   0  0  0  0  0  0  0  0  0  0  0  0
  136.7539   70.3761  221.7005 H   0  0  0  0  0  0  0  0  0  0  0  0
  137.3367   69.0401  223.2074 H   0  0  0  0  0  0  0  0  0  0  0  0
  138.9586   69.1906  222.5033 H   0  0  0  0  0  0  0  0  0  0  0  0
  140.3037   69.2588  224.1949 H   0  0  0  0  0  0  0  0  0  0  0  0
  140.4488   70.9373  223.5798 H   0  0  0  0  0  0  0  0  0  0  0  0
  141.4605   72.4904  225.0995 H   0  0  0  0  0  0  0  0  0  0  0  0
  142.0106   73.1527  227.4269 H   0  0  0  0  0  0  0  0  0  0  0  0
  141.1831   71.7843  229.3017 H   0  0  0  0  0  0  0  0  0  0  0  0
  139.8155   69.7503  228.9233 H   0  0  0  0  0  0  0  0  0  0  0  0
  139.2774   69.1068  226.5766 H   0  0  0  0  0  0  0  0  0  0  0  0
  140.0514   75.8056  223.1206 H   0  0  0  0  0  0  0  0  0  0  0  0
  140.2791   78.2511  222.6340 H   0  0  0  0  0  0  0  0  0  0  0  0
  141.0425   80.0433  221.1968 H   0  0  0  0  0  0  0  0  0  0  0  0
  142.1963   80.7460  219.0856 H   0  0  0  0  0  0  0  0  0  0  0  0
  143.0766   79.0325  217.5425 H   0  0  0  0  0  0  0  0  0  0  0  0
  142.8469   76.6064  218.0369 H   0  0  0  0  0  0  0  0  0  0  0  0
  1  2  2  0
  2  3  1  0
  3  4  1  0
  4  5  1  0
  5  6  2  0
  5  7  1  0
  7  8  1  0
  8  9  1  0
  9 10  1  0
  9 11  1  0
 11 12  1  0
 12 13  1  0
 13 14  1  0
 14 15  1  0
 15 16  1  0
 16 17  2  0
 17 18  1  0
 18 19  2  0
 19 20  1  0
 20 21  2  0
  2 22  1  0
 22 23  2  0
 23 24  1  0
 24 25  2  0
 25 26  1  0
 26 27  2  0
 27 28  1  0
 28 29  2  0
 29 30  1  0
 30 31  2  0
 12  7  1  0
 21 16  1  0
 31 22  1  0
 30 25  1  0
  3 32  1  0
  4 33  1  0
  4 34  1  0
  8 35  1  0
  8 36  1  0
  9 37  1  6
 10 38  1  0
 11 39  1  0
 11 40  1  0
 12 41  1  6
 13 42  1  0
 13 43  1  0
 15 44  1  0
 15 45  1  0
 17 46  1  0
 18 47  1  0
 19 48  1  0
 20 49  1  0
 21 50  1  0
 23 51  1  0
 24 52  1  0
 26 53  1  0
 27 54  1  0
 28 55  1  0
 29 56  1  0
M  END
>  <smiles>  (28) 
O=C(NCC(=O)N1C[C@H](O)C[C@@H]1COCc1ccccc1)c1ccc2ccccc2n1

>  <score_type>  (28) 
oracle

>  <origin>  (28) 
autodockgpu

>  <m_score__min__energy>  (28) 
-9.1699999999999999

>  <m_primary>  (28) 
energy

>  <rmsd>  (28) 
7.976726318711199

>  <m_score__min__rmsd>  (28) 
7.976726318711199

>  <meeko>  (28) 
{"free_energy": -6.9, "intermolecular_energy": -9.58, "internal_energy": -3.12, "cluster_size": 4, "cluster_id": 4, "rank_in_cluster": 4}

>  <energy>  (28) 
-8.12

>  <cluster_rmsd>  (28) 
1.79

>  <cluster>  (28) 
2

$$$$

     RDKit          3D

 56 59  0  0  0  0  0  0  0  0999 V2000
  139.7660   73.3820  222.4200 O   0  0  0  0  0  0  0  0  0  0  0  0
  140.1140   72.1770  222.4910 C   0  0  0  0  0  0  0  0  0  0  0  0
  140.5390   71.5920  221.2350 N   0  0  0  0  0  0  0  0  0  0  0  0
  140.5160   72.4310  220.0920 C   0  0  0  0  0  0  0  0  0  0  0  0
  141.5370   73.4650  219.9250 C   0  0  0  0  0  0  0  0  0  0  0  0
  142.7250   73.0500  220.2980 O   0  0  0  0  0  0  0  0  0  0  0  0
  141.4800   74.7610  219.4650 N   0  0  0  0  0  0  0  0  0  0  0  0
  141.5180   75.3780  218.1270 C   0  0  0  0  0  0  0  0  0  0  0  0
  142.5700   76.4650  218.3060 C   0  0  2  0  0  0  0  0  0  0  0  0
  143.7630   76.1860  217.6870 O   0  0  0  0  0  0  0  0  0  0  0  0
  142.6860   76.6620  219.8100 C   0  0  0  0  0  0  0  0  0  0  0  0
  141.3950   75.9900  220.2990 C   0  0  2  0  0  0  0  0  0  0  0  0
  141.4010   75.7490  221.7550 C   0  0  0  0  0  0  0  0  0  0  0  0
  140.4230   76.6140  222.3110 O   0  0  0  0  0  0  0  0  0  0  0  0
  140.3130   77.8000  221.6140 C   0  0  0  0  0  0  0  0  0  0  0  0
  141.0130   78.8680  222.3610 C   0  0  0  0  0  0  0  0  0  0  0  0
  142.3810   79.0330  222.3720 C   0  0  0  0  0  0  0  0  0  0  0  0
  142.9650   80.0520  223.0930 C   0  0  0  0  0  0  0  0  0  0  0  0
  142.1570   80.9080  223.8050 C   0  0  0  0  0  0  0  0  0  0  0  0
  140.7830   80.7870  223.8290 C   0  0  0  0  0  0  0  0  0  0  0  0
  140.2260   79.7540  223.0950 C   0  0  0  0  0  0  0  0  0  0  0  0
  140.1060   71.3950  223.7120 C   0  0  0  0  0  0  0  0  0  0  0  0
  139.5670   70.1270  223.6500 C   0  0  0  0  0  0  0  0  0  0  0  0
  139.5520   69.3630  224.8160 C   0  0  0  0  0  0  0  0  0  0  0  0
  140.0690   69.8730  226.0100 C   0  0  0  0  0  0  0  0  0  0  0  0
  140.0490   69.1080  227.1580 C   0  0  0  0  0  0  0  0  0  0  0  0
  140.5730   69.6540  228.3220 C   0  0  0  0  0  0  0  0  0  0  0  0
  141.0960   70.9330  228.3020 C   0  0  0  0  0  0  0  0  0  0  0  0
  141.1160   71.7020  227.1450 C   0  0  0  0  0  0  0  0  0  0  0  0
  140.5930   71.1570  225.9920 C   0  0  0  0  0  0  0  0  0  0  0  0
  140.6050   71.8850  224.8690 N   0  0  0  0  0  0  0  0  0  0  0  0
  140.8360   70.5840  221.2550 H   0  0  0  0  0  0  0  0  0  0  0  0
  140.5834   71.7729  219.2132 H   0  0  0  0  0  0  0  0  0  0  0  0
  139.5887   73.0086  220.2200 H   0  0  0  0  0  0  0  0  0  0  0  0
  141.8224   74.6503  217.3603 H   0  0  0  0  0  0  0  0  0  0  0  0
  140.5431   75.7576  217.7870 H   0  0  0  0  0  0  0  0  0  0  0  0
  142.2681   77.3982  217.8080 H   0  0  0  0  0  0  0  0  0  0  0  0
  144.4540   75.9200  218.3480 H   0  0  0  0  0  0  0  0  0  0  0  0
  143.5787   76.1624  220.2144 H   0  0  0  0  0  0  0  0  0  0  0  0
  142.7945   77.7116  220.1209 H   0  0  0  0  0  0  0  0  0  0  0  0
  140.4614   76.5610  220.1878 H   0  0  0  0  0  0  0  0  0  0  0  0
  141.1457   74.7004  221.9676 H   0  0  0  0  0  0  0  0  0  0  0  0
  142.3943   75.9427  222.1860 H   0  0  0  0  0  0  0  0  0  0  0  0
  140.7693   77.6864  220.6196 H   0  0  0  0  0  0  0  0  0  0  0  0
  139.2515   78.0641  221.4977 H   0  0  0  0  0  0  0  0  0  0  0  0
  143.0155   78.3420  221.7975 H   0  0  0  0  0  0  0  0  0  0  0  0
  144.0577   80.1786  223.0991 H   0  0  0  0  0  0  0  0  0  0  0  0
  142.6254   81.7217  224.3782 H   0  0  0  0  0  0  0  0  0  0  0  0
  140.1564   81.4821  224.4071 H   0  0  0  0  0  0  0  0  0  0  0  0
  139.1331   79.6289  223.0908 H   0  0  0  0  0  0  0  0  0  0  0  0
  139.1608   69.7301  222.7080 H   0  0  0  0  0  0  0  0  0  0  0  0
  139.1287   68.3479  224.7960 H   0  0  0  0  0  0  0  0  0  0  0  0
  139.6286   68.0915  227.1512 H   0  0  0  0  0  0  0  0  0  0  0  0
  140.5719   69.0716  229.2552 H   0  0  0  0  0  0  0  0  0  0  0  0
  141.5089   71.3550  229.2301 H   0  0  0  0  0  0  0  0  0  0  0  0
  141.5377   72.7180  227.1490 H   0  0  0  0  0  0  0  0  0  0  0  0
  1  2  2  0
  2  3  1  0
  3  4  1  0
  4  5  1  0
  5  6  2  0
  5  7  1  0
  7  8  1  0
  8  9  1  0
  9 10  1  0
  9 11  1  0
 11 12  1  0
 12 13  1  0
 13 14  1  0
 14 15  1  0
 15 16  1  0
 16 17  2  0
 17 18  1  0
 18 19  2  0
 19 20  1  0
 20 21  2  0
  2 22  1  0
 22 23  2  0
 23 24  1  0
 24 25  2  0
 25 26  1  0
 26 27  2  0
 27 28  1  0
 28 29  2  0
 29 30  1  0
 30 31  2  0
 12  7  1  0
 21 16  1  0
 31 22  1  0
 30 25  1  0
  3 32  1  0
  4 33  1  0
  4 34  1  0
  8 35  1  0
  8 36  1  0
  9 37  1  6
 10 38  1  0
 11 39  1  0
 11 40  1  0
 12 41  1  6
 13 42  1  0
 13 43  1  0
 15 44  1  0
 15 45  1  0
 17 46  1  0
 18 47  1  0
 19 48  1  0
 20 49  1  0
 21 50  1  0
 23 51  1  0
 24 52  1  0
 26 53  1  0
 27 54  1  0
 28 55  1  0
 29 56  1  0
M  END
>  <smiles>  (29) 
O=C(NCC(=O)N1C[C@H](O)C[C@@H]1COCc1ccccc1)c1ccc2ccccc2n1

>  <score_type>  (29) 
oracle

>  <origin>  (29) 
autodockgpu

>  <m_score__min__energy>  (29) 
-9.1699999999999999

>  <m_primary>  (29) 
energy

>  <rmsd>  (29) 
2.111774545757238

>  <m_score__min__rmsd>  (29) 
2.111774545757238

>  <meeko>  (29) 
{"free_energy": -8.48, "intermolecular_energy": -11.16, "internal_energy": -1.58, "cluster_size": 24, "cluster_id": 1, "rank_in_cluster": 15}

>  <energy>  (29) 
-8.12

>  <cluster_rmsd>  (29) 
1.03

>  <cluster>  (29) 
2

$$$$

     RDKit          3D

 56 59  0  0  0  0  0  0  0  0999 V2000
  139.0690   74.9670  222.3760 O   0  0  0  0  0  0  0  0  0  0  0  0
  140.1340   75.6250  222.2690 C   0  0  0  0  0  0  0  0  0  0  0  0
  141.2850   74.8530  221.8440 N   0  0  0  0  0  0  0  0  0  0  0  0
  141.0820   73.4710  221.6010 C   0  0  0  0  0  0  0  0  0  0  0  0
  140.0180   73.0380  220.6960 C   0  0  0  0  0  0  0  0  0  0  0  0
  140.3580   73.1750  219.4350 O   0  0  0  0  0  0  0  0  0  0  0  0
  138.7570   72.5310  220.9170 N   0  0  0  0  0  0  0  0  0  0  0  0
  137.3930   73.0270  220.6650 C   0  0  0  0  0  0  0  0  0  0  0  0
  136.7150   72.7980  222.0110 C   0  0  2  0  0  0  0  0  0  0  0  0
  136.4910   73.9510  222.7200 O   0  0  0  0  0  0  0  0  0  0  0  0
  137.6000   71.7910  222.7330 C   0  0  0  0  0  0  0  0  0  0  0  0
  138.4300   71.2340  221.5680 C   0  0  2  0  0  0  0  0  0  0  0  0
  139.6010   70.4630  222.0300 C   0  0  0  0  0  0  0  0  0  0  0  0
  139.9300   70.9640  223.3170 O   0  0  0  0  0  0  0  0  0  0  0  0
  139.9230   69.9780  224.2810 C   0  0  0  0  0  0  0  0  0  0  0  0
  140.3090   70.5690  225.5820 C   0  0  0  0  0  0  0  0  0  0  0  0
  141.0810   71.7030  225.7150 C   0  0  0  0  0  0  0  0  0  0  0  0
  141.4030   72.1980  226.9610 C   0  0  0  0  0  0  0  0  0  0  0  0
  140.9380   71.5390  228.0750 C   0  0  0  0  0  0  0  0  0  0  0  0
  140.1630   70.4000  227.9980 C   0  0  0  0  0  0  0  0  0  0  0  0
  139.8570   69.9280  226.7340 C   0  0  0  0  0  0  0  0  0  0  0  0
  140.2480   77.0450  222.5380 C   0  0  0  0  0  0  0  0  0  0  0  0
  139.0790   77.7750  222.6000 C   0  0  0  0  0  0  0  0  0  0  0  0
  139.1720   79.1410  222.8580 C   0  0  0  0  0  0  0  0  0  0  0  0
  140.4160   79.7480  223.0490 C   0  0  0  0  0  0  0  0  0  0  0  0
  140.4960   81.1020  223.3040 C   0  0  0  0  0  0  0  0  0  0  0  0
  141.7530   81.6640  223.4880 C   0  0  0  0  0  0  0  0  0  0  0  0
  142.8770   80.8640  223.4110 C   0  0  0  0  0  0  0  0  0  0  0  0
  142.7950   79.5010  223.1540 C   0  0  0  0  0  0  0  0  0  0  0  0
  141.5450   78.9470  222.9720 C   0  0  0  0  0  0  0  0  0  0  0  0
  141.4490   77.6350  222.7240 N   0  0  0  0  0  0  0  0  0  0  0  0
  142.1950   75.3700  221.7440 H   0  0  0  0  0  0  0  0  0  0  0  0
  142.0252   73.0779  221.1938 H   0  0  0  0  0  0  0  0  0  0  0  0
  140.7554   73.0868  222.5786 H   0  0  0  0  0  0  0  0  0  0  0  0
  137.3994   74.0940  220.3977 H   0  0  0  0  0  0  0  0  0  0  0  0
  136.8887   72.5267  219.8251 H   0  0  0  0  0  0  0  0  0  0  0  0
  135.6943   72.4084  221.8832 H   0  0  0  0  0  0  0  0  0  0  0  0
  137.3220   74.2670  223.1600 H   0  0  0  0  0  0  0  0  0  0  0  0
  138.2374   72.2803  223.4842 H   0  0  0  0  0  0  0  0  0  0  0  0
  137.0462   71.0271  223.2984 H   0  0  0  0  0  0  0  0  0  0  0  0
  137.9418   70.4978  220.9125 H   0  0  0  0  0  0  0  0  0  0  0  0
  139.3520   69.3933  222.0907 H   0  0  0  0  0  0  0  0  0  0  0  0
  140.4464   70.5674  221.3340 H   0  0  0  0  0  0  0  0  0  0  0  0
  138.9146   69.5453  224.3578 H   0  0  0  0  0  0  0  0  0  0  0  0
  140.6369   69.1872  224.0071 H   0  0  0  0  0  0  0  0  0  0  0  0
  141.4451   72.2201  224.8150 H   0  0  0  0  0  0  0  0  0  0  0  0
  142.0202   73.1029  227.0621 H   0  0  0  0  0  0  0  0  0  0  0  0
  141.1945   71.9363  229.0682 H   0  0  0  0  0  0  0  0  0  0  0  0
  139.8036   69.8889  228.9033 H   0  0  0  0  0  0  0  0  0  0  0  0
  139.2403   69.0224  226.6356 H   0  0  0  0  0  0  0  0  0  0  0  0
  138.1019   77.2926  222.4501 H   0  0  0  0  0  0  0  0  0  0  0  0
  138.2563   79.7481  222.9119 H   0  0  0  0  0  0  0  0  0  0  0  0
  139.5879   81.7202  223.3601 H   0  0  0  0  0  0  0  0  0  0  0  0
  141.8530   82.7399  223.6939 H   0  0  0  0  0  0  0  0  0  0  0  0
  143.8671   81.3202  223.5576 H   0  0  0  0  0  0  0  0  0  0  0  0
  143.7018   78.8809  223.0973 H   0  0  0  0  0  0  0  0  0  0  0  0
  1  2  2  0
  2  3  1  0
  3  4  1  0
  4  5  1  0
  5  6  2  0
  5  7  1  0
  7  8  1  0
  8  9  1  0
  9 10  1  0
  9 11  1  0
 11 12  1  0
 12 13  1  0
 13 14  1  0
 14 15  1  0
 15 16  1  0
 16 17  2  0
 17 18  1  0
 18 19  2  0
 19 20  1  0
 20 21  2  0
  2 22  1  0
 22 23  2  0
 23 24  1  0
 24 25  2  0
 25 26  1  0
 26 27  2  0
 27 28  1  0
 28 29  2  0
 29 30  1  0
 30 31  2  0
 12  7  1  0
 21 16  1  0
 31 22  1  0
 30 25  1  0
  3 32  1  0
  4 33  1  0
  4 34  1  0
  8 35  1  0
  8 36  1  0
  9 37  1  6
 10 38  1  0
 11 39  1  0
 11 40  1  0
 12 41  1  6
 13 42  1  0
 13 43  1  0
 15 44  1  0
 15 45  1  0
 17 46  1  0
 18 47  1  0
 19 48  1  0
 20 49  1  0
 21 50  1  0
 23 51  1  0
 24 52  1  0
 26 53  1  0
 27 54  1  0
 28 55  1  0
 29 56  1  0
M  END
>  <smiles>  (30) 
O=C(NCC(=O)N1C[C@H](O)C[C@@H]1COCc1ccccc1)c1ccc2ccccc2n1

>  <score_type>  (30) 
oracle

>  <origin>  (30) 
autodockgpu

>  <m_score__min__energy>  (30) 
-9.1699999999999999

>  <m_primary>  (30) 
energy

>  <rmsd>  (30) 
7.965891421668011

>  <m_score__min__rmsd>  (30) 
7.965891421668011

>  <meeko>  (30) 
{"free_energy": -8.09, "intermolecular_energy": -10.78, "internal_energy": -2.56, "cluster_size": 16, "cluster_id": 2, "rank_in_cluster": 6}

>  <energy>  (30) 
-8.09

>  <cluster_rmsd>  (30) 
0.97

>  <cluster>  (30) 
2

$$$$

     RDKit          3D

 56 59  0  0  0  0  0  0  0  0999 V2000
  140.6000   71.1700  221.6460 O   0  0  0  0  0  0  0  0  0  0  0  0
  140.2210   71.7350  222.7030 C   0  0  0  0  0  0  0  0  0  0  0  0
  139.7220   73.0840  222.5250 N   0  0  0  0  0  0  0  0  0  0  0  0
  139.7170   73.6020  221.2050 C   0  0  0  0  0  0  0  0  0  0  0  0
  140.8340   74.4240  220.7390 C   0  0  0  0  0  0  0  0  0  0  0  0
  141.9960   73.8800  221.0180 O   0  0  0  0  0  0  0  0  0  0  0  0
  140.8880   75.6330  220.0830 N   0  0  0  0  0  0  0  0  0  0  0  0
  141.4010   76.0670  218.7720 C   0  0  0  0  0  0  0  0  0  0  0  0
  142.2460   77.2800  219.1440 C   0  0  2  0  0  0  0  0  0  0  0  0
  143.5980   77.0560  219.0650 O   0  0  0  0  0  0  0  0  0  0  0  0
  141.7660   77.6850  220.5300 C   0  0  0  0  0  0  0  0  0  0  0  0
  140.4240   76.9450  220.6110 C   0  0  2  0  0  0  0  0  0  0  0  0
  139.8870   76.9010  221.9850 C   0  0  0  0  0  0  0  0  0  0  0  0
  138.8380   77.8570  222.0380 O   0  0  0  0  0  0  0  0  0  0  0  0
  138.9790   78.7330  223.0940 C   0  0  0  0  0  0  0  0  0  0  0  0
  140.2340   79.4980  222.9240 C   0  0  0  0  0  0  0  0  0  0  0  0
  140.4260   80.4620  221.9590 C   0  0  0  0  0  0  0  0  0  0  0  0
  141.6250   81.1360  221.8590 C   0  0  0  0  0  0  0  0  0  0  0  0
  142.6320   80.8300  222.7450 C   0  0  0  0  0  0  0  0  0  0  0  0
  142.4930   79.8740  223.7290 C   0  0  0  0  0  0  0  0  0  0  0  0
  141.2780   79.2150  223.8040 C   0  0  0  0  0  0  0  0  0  0  0  0
  140.2620   71.1230  224.0160 C   0  0  0  0  0  0  0  0  0  0  0  0
  140.7050   71.9020  225.0650 C   0  0  0  0  0  0  0  0  0  0  0  0
  140.7500   71.3270  226.3350 C   0  0  0  0  0  0  0  0  0  0  0  0
  140.3560   70.0020  226.5320 C   0  0  0  0  0  0  0  0  0  0  0  0
  140.4050   69.4440  227.7930 C   0  0  0  0  0  0  0  0  0  0  0  0
  140.0050   68.1220  227.9450 C   0  0  0  0  0  0  0  0  0  0  0  0
  139.5730   67.4090  226.8430 C   0  0  0  0  0  0  0  0  0  0  0  0
  139.5240   67.9720  225.5740 C   0  0  0  0  0  0  0  0  0  0  0  0
  139.9230   69.2840  225.4280 C   0  0  0  0  0  0  0  0  0  0  0  0
  139.8820   69.8410  224.2110 N   0  0  0  0  0  0  0  0  0  0  0  0
  139.3960   73.5900  223.3870 H   0  0  0  0  0  0  0  0  0  0  0  0
  139.6518   72.7395  220.5254 H   0  0  0  0  0  0  0  0  0  0  0  0
  138.8706   74.3046  221.2116 H   0  0  0  0  0  0  0  0  0  0  0  0
  142.0134   75.2825  218.3035 H   0  0  0  0  0  0  0  0  0  0  0  0
  140.6110   76.2866  218.0388 H   0  0  0  0  0  0  0  0  0  0  0  0
  142.1098   78.0996  218.4231 H   0  0  0  0  0  0  0  0  0  0  0  0
  144.1080   77.8790  219.2820 H   0  0  0  0  0  0  0  0  0  0  0  0
  142.4610   77.3455  221.3121 H   0  0  0  0  0  0  0  0  0  0  0  0
  141.6911   78.7720  220.6812 H   0  0  0  0  0  0  0  0  0  0  0  0
  139.5747   77.3881  220.0704 H   0  0  0  0  0  0  0  0  0  0  0  0
  139.4979   75.8968  222.2091 H   0  0  0  0  0  0  0  0  0  0  0  0
  140.6687   77.1263  222.7254 H   0  0  0  0  0  0  0  0  0  0  0  0
  138.1250   79.4260  223.1143 H   0  0  0  0  0  0  0  0  0  0  0  0
  139.0123   78.1716  224.0394 H   0  0  0  0  0  0  0  0  0  0  0  0
  139.6115   80.6975  221.2582 H   0  0  0  0  0  0  0  0  0  0  0  0
  141.7734   81.9038  221.0854 H   0  0  0  0  0  0  0  0  0  0  0  0
  143.5870   81.3700  222.6652 H   0  0  0  0  0  0  0  0  0  0  0  0
  143.3132   79.6447  224.4252 H   0  0  0  0  0  0  0  0  0  0  0  0
  141.1322   78.4476  224.5785 H   0  0  0  0  0  0  0  0  0  0  0  0
  141.0136   72.9456  224.9046 H   0  0  0  0  0  0  0  0  0  0  0  0
  141.0996   71.9237  227.1904 H   0  0  0  0  0  0  0  0  0  0  0  0
  140.7520   70.0309  228.6562 H   0  0  0  0  0  0  0  0  0  0  0  0
  140.0321   67.6461  228.9363 H   0  0  0  0  0  0  0  0  0  0  0  0
  139.2582   66.3633  226.9747 H   0  0  0  0  0  0  0  0  0  0  0  0
  139.1765   67.3874  224.7094 H   0  0  0  0  0  0  0  0  0  0  0  0
  1  2  2  0
  2  3  1  0
  3  4  1  0
  4  5  1  0
  5  6  2  0
  5  7  1  0
  7  8  1  0
  8  9  1  0
  9 10  1  0
  9 11  1  0
 11 12  1  0
 12 13  1  0
 13 14  1  0
 14 15  1  0
 15 16  1  0
 16 17  2  0
 17 18  1  0
 18 19  2  0
 19 20  1  0
 20 21  2  0
  2 22  1  0
 22 23  2  0
 23 24  1  0
 24 25  2  0
 25 26  1  0
 26 27  2  0
 27 28  1  0
 28 29  2  0
 29 30  1  0
 30 31  2  0
 12  7  1  0
 21 16  1  0
 31 22  1  0
 30 25  1  0
  3 32  1  0
  4 33  1  0
  4 34  1  0
  8 35  1  0
  8 36  1  0
  9 37  1  6
 10 38  1  0
 11 39  1  0
 11 40  1  0
 12 41  1  6
 13 42  1  0
 13 43  1  0
 15 44  1  0
 15 45  1  0
 17 46  1  0
 18 47  1  0
 19 48  1  0
 20 49  1  0
 21 50  1  0
 23 51  1  0
 24 52  1  0
 26 53  1  0
 27 54  1  0
 28 55  1  0
 29 56  1  0
M  END
>  <smiles>  (31) 
O=C(NCC(=O)N1C[C@H](O)C[C@@H]1COCc1ccccc1)c1ccc2ccccc2n1

>  <score_type>  (31) 
oracle

>  <origin>  (31) 
autodockgpu

>  <m_score__min__energy>  (31) 
-9.1699999999999999

>  <m_primary>  (31) 
energy

>  <rmsd>  (31) 
2.8681858396089464

>  <m_score__min__rmsd>  (31) 
2.8681858396089464

>  <meeko>  (31) 
{"free_energy": -8.6, "intermolecular_energy": -11.28, "internal_energy": -1.52, "cluster_size": 24, "cluster_id": 1, "rank_in_cluster": 10}

>  <energy>  (31) 
-8.02

>  <cluster_rmsd>  (31) 
1.39

>  <cluster>  (31) 
2

$$$$

     RDKit          3D

 56 59  0  0  0  0  0  0  0  0999 V2000
  138.4780   71.2220  221.5020 O   0  0  0  0  0  0  0  0  0  0  0  0
  138.1770   71.6020  222.6610 C   0  0  0  0  0  0  0  0  0  0  0  0
  137.2340   72.7020  222.7140 N   0  0  0  0  0  0  0  0  0  0  0  0
  136.7690   73.2130  221.4760 C   0  0  0  0  0  0  0  0  0  0  0  0
  137.6430   74.0520  220.6570 C   0  0  0  0  0  0  0  0  0  0  0  0
  136.9630   74.8270  219.8440 O   0  0  0  0  0  0  0  0  0  0  0  0
  139.0120   74.1720  220.5820 N   0  0  0  0  0  0  0  0  0  0  0  0
  140.1140   73.2230  220.3460 C   0  0  0  0  0  0  0  0  0  0  0  0
  141.0740   73.5580  221.4820 C   0  0  2  0  0  0  0  0  0  0  0  0
  141.1060   72.6120  222.4760 O   0  0  0  0  0  0  0  0  0  0  0  0
  140.6540   74.9410  221.9590 C   0  0  0  0  0  0  0  0  0  0  0  0
  139.8010   75.4190  220.7760 C   0  0  2  0  0  0  0  0  0  0  0  0
  138.9970   76.6120  221.1070 C   0  0  0  0  0  0  0  0  0  0  0  0
  139.3260   76.9600  222.4440 O   0  0  0  0  0  0  0  0  0  0  0  0
  138.9420   78.2460  222.7610 C   0  0  0  0  0  0  0  0  0  0  0  0
  140.1480   79.0590  223.0340 C   0  0  0  0  0  0  0  0  0  0  0  0
  140.1170   80.3780  223.4290 C   0  0  0  0  0  0  0  0  0  0  0  0
  141.2830   81.0750  223.6660 C   0  0  0  0  0  0  0  0  0  0  0  0
  142.4850   80.4270  223.5030 C   0  0  0  0  0  0  0  0  0  0  0  0
  142.5740   79.1080  223.1100 C   0  0  0  0  0  0  0  0  0  0  0  0
  141.3860   78.4360  222.8790 C   0  0  0  0  0  0  0  0  0  0  0  0
  138.7050   71.0150  223.8770 C   0  0  0  0  0  0  0  0  0  0  0  0
  138.2880   69.7410  224.2000 C   0  0  0  0  0  0  0  0  0  0  0  0
  138.7880   69.1630  225.3660 C   0  0  0  0  0  0  0  0  0  0  0  0
  139.6850   69.8590  226.1790 C   0  0  0  0  0  0  0  0  0  0  0  0
  140.1740   69.2780  227.3310 C   0  0  0  0  0  0  0  0  0  0  0  0
  141.0630   70.0050  228.1110 C   0  0  0  0  0  0  0  0  0  0  0  0
  141.4330   71.2780  227.7180 C   0  0  0  0  0  0  0  0  0  0  0  0
  140.9410   71.8620  226.5570 C   0  0  0  0  0  0  0  0  0  0  0  0
  140.0570   71.1360  225.7870 C   0  0  0  0  0  0  0  0  0  0  0  0
  139.5740   71.6860  224.6660 N   0  0  0  0  0  0  0  0  0  0  0  0
  136.9590   73.0490  223.6670 H   0  0  0  0  0  0  0  0  0  0  0  0
  136.4914   72.3459  220.8586 H   0  0  0  0  0  0  0  0  0  0  0  0
  135.9635   73.9008  221.7727 H   0  0  0  0  0  0  0  0  0  0  0  0
  139.7652   72.1819  220.4121 H   0  0  0  0  0  0  0  0  0  0  0  0
  140.5648   73.3086  219.3463 H   0  0  0  0  0  0  0  0  0  0  0  0
  142.1181   73.5584  221.1359 H   0  0  0  0  0  0  0  0  0  0  0  0
  140.2160   72.1880  222.5940 H   0  0  0  0  0  0  0  0  0  0  0  0
  140.0634   74.8856  222.8853 H   0  0  0  0  0  0  0  0  0  0  0  0
  141.4936   75.6067  222.2078 H   0  0  0  0  0  0  0  0  0  0  0  0
  140.3372   75.7715  219.8826 H   0  0  0  0  0  0  0  0  0  0  0  0
  139.2463   77.4394  220.4264 H   0  0  0  0  0  0  0  0  0  0  0  0
  137.9210   76.4092  221.0014 H   0  0  0  0  0  0  0  0  0  0  0  0
  138.3866   78.6828  221.9180 H   0  0  0  0  0  0  0  0  0  0  0  0
  138.2964   78.2307  223.6515 H   0  0  0  0  0  0  0  0  0  0  0  0
  139.1481   80.8828  223.5573 H   0  0  0  0  0  0  0  0  0  0  0  0
  141.2523   82.1290  223.9794 H   0  0  0  0  0  0  0  0  0  0  0  0
  143.4142   80.9839  223.6940 H   0  0  0  0  0  0  0  0  0  0  0  0
  143.5475   78.6112  222.9854 H   0  0  0  0  0  0  0  0  0  0  0  0
  141.4194   77.3824  222.5648 H   0  0  0  0  0  0  0  0  0  0  0  0
  137.5814   69.1965  223.5564 H   0  0  0  0  0  0  0  0  0  0  0  0
  138.4725   68.1478  225.6486 H   0  0  0  0  0  0  0  0  0  0  0  0
  139.8668   68.2633  227.6243 H   0  0  0  0  0  0  0  0  0  0  0  0
  141.4706   69.5710  229.0360 H   0  0  0  0  0  0  0  0  0  0  0  0
  142.1380   71.8455  228.3432 H   0  0  0  0  0  0  0  0  0  0  0  0
  141.2483   72.8757  226.2604 H   0  0  0  0  0  0  0  0  0  0  0  0
  1  2  2  0
  2  3  1  0
  3  4  1  0
  4  5  1  0
  5  6  2  0
  5  7  1  0
  7  8  1  0
  8  9  1  0
  9 10  1  0
  9 11  1  0
 11 12  1  0
 12 13  1  0
 13 14  1  0
 14 15  1  0
 15 16  1  0
 16 17  2  0
 17 18  1  0
 18 19  2  0
 19 20  1  0
 20 21  2  0
  2 22  1  0
 22 23  2  0
 23 24  1  0
 24 25  2  0
 25 26  1  0
 26 27  2  0
 27 28  1  0
 28 29  2  0
 29 30  1  0
 30 31  2  0
 12  7  1  0
 21 16  1  0
 31 22  1  0
 30 25  1  0
  3 32  1  0
  4 33  1  0
  4 34  1  0
  8 35  1  0
  8 36  1  0
  9 37  1  6
 10 38  1  0
 11 39  1  0
 11 40  1  0
 12 41  1  6
 13 42  1  0
 13 43  1  0
 15 44  1  0
 15 45  1  0
 17 46  1  0
 18 47  1  0
 19 48  1  0
 20 49  1  0
 21 50  1  0
 23 51  1  0
 24 52  1  0
 26 53  1  0
 27 54  1  0
 28 55  1  0
 29 56  1  0
M  END
>  <smiles>  (32) 
O=C(NCC(=O)N1C[C@H](O)C[C@@H]1COCc1ccccc1)c1ccc2ccccc2n1

>  <score_type>  (32) 
oracle

>  <origin>  (32) 
autodockgpu

>  <m_score__min__energy>  (32) 
-9.1699999999999999

>  <m_primary>  (32) 
energy

>  <rmsd>  (32) 
2.411434023131635

>  <m_score__min__rmsd>  (32) 
2.411434023131635

>  <meeko>  (32) 
{"free_energy": -7.22, "intermolecular_energy": -9.91, "internal_energy": -2.91, "cluster_size": 24, "cluster_id": 1, "rank_in_cluster": 24}

>  <energy>  (32) 
-7.99

>  <cluster_rmsd>  (32) 
0.98

>  <cluster>  (32) 
2

$$$$

     RDKit          3D

 56 59  0  0  0  0  0  0  0  0999 V2000
  138.7050   71.6760  221.4890 O   0  0  0  0  0  0  0  0  0  0  0  0
  138.4100   71.7760  222.7060 C   0  0  0  0  0  0  0  0  0  0  0  0
  137.2480   72.5980  222.9830 N   0  0  0  0  0  0  0  0  0  0  0  0
  136.5910   73.1820  221.8710 C   0  0  0  0  0  0  0  0  0  0  0  0
  137.0700   74.4520  221.3250 C   0  0  0  0  0  0  0  0  0  0  0  0
  136.0870   75.2920  221.0950 O   0  0  0  0  0  0  0  0  0  0  0  0
  138.3280   74.9140  221.0120 N   0  0  0  0  0  0  0  0  0  0  0  0
  139.4980   74.3260  220.3360 C   0  0  0  0  0  0  0  0  0  0  0  0
  140.6270   74.6550  221.3060 C   0  0  2  0  0  0  0  0  0  0  0  0
  141.0850   73.5690  222.0090 O   0  0  0  0  0  0  0  0  0  0  0  0
  140.0810   75.7730  222.1830 C   0  0  0  0  0  0  0  0  0  0  0  0
  138.8860   76.2520  221.3480 C   0  0  2  0  0  0  0  0  0  0  0  0
  137.9750   77.1240  222.1160 C   0  0  0  0  0  0  0  0  0  0  0  0
  138.7640   77.7440  223.1200 O   0  0  0  0  0  0  0  0  0  0  0  0
  138.7690   79.1190  223.0100 C   0  0  0  0  0  0  0  0  0  0  0  0
  140.1550   79.6130  223.1590 C   0  0  0  0  0  0  0  0  0  0  0  0
  140.4830   80.9270  223.4090 C   0  0  0  0  0  0  0  0  0  0  0  0
  141.8000   81.3170  223.5350 C   0  0  0  0  0  0  0  0  0  0  0  0
  142.7870   80.3670  223.4090 C   0  0  0  0  0  0  0  0  0  0  0  0
  142.5130   79.0380  223.1580 C   0  0  0  0  0  0  0  0  0  0  0  0
  141.1820   78.6780  223.0360 C   0  0  0  0  0  0  0  0  0  0  0  0
  139.1440   71.1370  223.7810 C   0  0  0  0  0  0  0  0  0  0  0  0
  140.2530   71.7940  224.2700 C   0  0  0  0  0  0  0  0  0  0  0  0
  140.9690   71.1930  225.3040 C   0  0  0  0  0  0  0  0  0  0  0  0
  140.5700   69.9600  225.8250 C   0  0  0  0  0  0  0  0  0  0  0  0
  141.2860   69.3730  226.8480 C   0  0  0  0  0  0  0  0  0  0  0  0
  140.8550   68.1470  227.3360 C   0  0  0  0  0  0  0  0  0  0  0  0
  139.7320   67.5520  226.7910 C   0  0  0  0  0  0  0  0  0  0  0  0
  139.0110   68.1440  225.7610 C   0  0  0  0  0  0  0  0  0  0  0  0
  139.4440   69.3610  225.2790 C   0  0  0  0  0  0  0  0  0  0  0  0
  138.7600   69.9440  224.2870 N   0  0  0  0  0  0  0  0  0  0  0  0
  136.9700   72.7060  223.9910 H   0  0  0  0  0  0  0  0  0  0  0  0
  136.6357   72.4474  221.0535 H   0  0  0  0  0  0  0  0  0  0  0  0
  135.5968   73.4352  222.2678 H   0  0  0  0  0  0  0  0  0  0  0  0
  139.3827   73.2392  220.2116 H   0  0  0  0  0  0  0  0  0  0  0  0
  139.6618   74.7124  219.3192 H   0  0  0  0  0  0  0  0  0  0  0  0
  141.5325   74.9776  220.7713 H   0  0  0  0  0  0  0  0  0  0  0  0
  140.5250   72.7690  221.8340 H   0  0  0  0  0  0  0  0  0  0  0  0
  139.7606   75.3948  223.1650 H   0  0  0  0  0  0  0  0  0  0  0  0
  140.8123   76.5607  222.4170 H   0  0  0  0  0  0  0  0  0  0  0  0
  139.1063   76.8932  220.4818 H   0  0  0  0  0  0  0  0  0  0  0  0
  137.5315   77.8849  221.4570 H   0  0  0  0  0  0  0  0  0  0  0  0
  137.1494   76.5469  222.5579 H   0  0  0  0  0  0  0  0  0  0  0  0
  138.3783   79.4108  222.0240 H   0  0  0  0  0  0  0  0  0  0  0  0
  138.1344   79.5552  223.7955 H   0  0  0  0  0  0  0  0  0  0  0  0
  139.6836   81.6759  223.5096 H   0  0  0  0  0  0  0  0  0  0  0  0
  142.0564   82.3683  223.7326 H   0  0  0  0  0  0  0  0  0  0  0  0
  143.8367   80.6793  223.5125 H   0  0  0  0  0  0  0  0  0  0  0  0
  143.3187   78.2957  223.0590 H   0  0  0  0  0  0  0  0  0  0  0  0
  140.9278   77.6265  222.8367 H   0  0  0  0  0  0  0  0  0  0  0  0
  140.5639   72.7646  223.8561 H   0  0  0  0  0  0  0  0  0  0  0  0
  141.8577   71.6951  225.7140 H   0  0  0  0  0  0  0  0  0  0  0  0
  142.1766   69.8645  227.2667 H   0  0  0  0  0  0  0  0  0  0  0  0
  141.4033   67.6520  228.1510 H   0  0  0  0  0  0  0  0  0  0  0  0
  139.3992   66.5803  227.1848 H   0  0  0  0  0  0  0  0  0  0  0  0
  138.1193   67.6550  225.3418 H   0  0  0  0  0  0  0  0  0  0  0  0
  1  2  2  0
  2  3  1  0
  3  4  1  0
  4  5  1  0
  5  6  2  0
  5  7  1  0
  7  8  1  0
  8  9  1  0
  9 10  1  0
  9 11  1  0
 11 12  1  0
 12 13  1  0
 13 14  1  0
 14 15  1  0
 15 16  1  0
 16 17  2  0
 17 18  1  0
 18 19  2  0
 19 20  1  0
 20 21  2  0
  2 22  1  0
 22 23  2  0
 23 24  1  0
 24 25  2  0
 25 26  1  0
 26 27  2  0
 27 28  1  0
 28 29  2  0
 29 30  1  0
 30 31  2  0
 12  7  1  0
 21 16  1  0
 31 22  1  0
 30 25  1  0
  3 32  1  0
  4 33  1  0
  4 34  1  0
  8 35  1  0
  8 36  1  0
  9 37  1  6
 10 38  1  0
 11 39  1  0
 11 40  1  0
 12 41  1  6
 13 42  1  0
 13 43  1  0
 15 44  1  0
 15 45  1  0
 17 46  1  0
 18 47  1  0
 19 48  1  0
 20 49  1  0
 21 50  1  0
 23 51  1  0
 24 52  1  0
 26 53  1  0
 27 54  1  0
 28 55  1  0
 29 56  1  0
M  END
>  <smiles>  (33) 
O=C(NCC(=O)N1C[C@H](O)C[C@@H]1COCc1ccccc1)c1ccc2ccccc2n1

>  <score_type>  (33) 
oracle

>  <origin>  (33) 
autodockgpu

>  <m_score__min__energy>  (33) 
-9.1699999999999999

>  <m_primary>  (33) 
energy

>  <rmsd>  (33) 
3.1524216977490966

>  <m_score__min__rmsd>  (33) 
3.1524216977490966

>  <meeko>  (33) 
{"free_energy": -7.83, "intermolecular_energy": -10.52, "internal_energy": -2.42, "cluster_size": 24, "cluster_id": 1, "rank_in_cluster": 19}

>  <energy>  (33) 
-7.95

>  <cluster_rmsd>  (33) 
1.3

>  <cluster>  (33) 
2

$$$$

     RDKit          3D

 56 59  0  0  0  0  0  0  0  0999 V2000
  136.6770   72.0220  221.7310 O   0  0  0  0  0  0  0  0  0  0  0  0
  136.8440   72.1540  222.9690 C   0  0  0  0  0  0  0  0  0  0  0  0
  136.2040   73.3180  223.5480 N   0  0  0  0  0  0  0  0  0  0  0  0
  135.4750   74.1580  222.6690 C   0  0  0  0  0  0  0  0  0  0  0  0
  136.1470   75.2700  221.9970 C   0  0  0  0  0  0  0  0  0  0  0  0
  135.3230   76.2570  221.7320 O   0  0  0  0  0  0  0  0  0  0  0  0
  137.4500   75.4640  221.5980 N   0  0  0  0  0  0  0  0  0  0  0  0
  138.4250   74.6520  220.8490 C   0  0  0  0  0  0  0  0  0  0  0  0
  139.6600   74.7330  221.7390 C   0  0  2  0  0  0  0  0  0  0  0  0
  139.9290   73.5700  222.4160 O   0  0  0  0  0  0  0  0  0  0  0  0
  139.4180   75.9320  222.6440 C   0  0  0  0  0  0  0  0  0  0  0  0
  138.2940   76.6550  221.8880 C   0  0  2  0  0  0  0  0  0  0  0  0
  137.6370   77.6900  222.7090 C   0  0  0  0  0  0  0  0  0  0  0  0
  138.2080   78.9320  222.3230 O   0  0  0  0  0  0  0  0  0  0  0  0
  138.5410   79.7160  223.4070 C   0  0  0  0  0  0  0  0  0  0  0  0
  140.0010   79.9580  223.4010 C   0  0  0  0  0  0  0  0  0  0  0  0
  140.5760   81.2090  223.3490 C   0  0  0  0  0  0  0  0  0  0  0  0
  141.9460   81.3590  223.3460 C   0  0  0  0  0  0  0  0  0  0  0  0
  142.7350   80.2330  223.3950 C   0  0  0  0  0  0  0  0  0  0  0  0
  142.2120   78.9580  223.4470 C   0  0  0  0  0  0  0  0  0  0  0  0
  140.8320   78.8400  223.4500 C   0  0  0  0  0  0  0  0  0  0  0  0
  137.6090   71.2380  223.7920 C   0  0  0  0  0  0  0  0  0  0  0  0
  136.9950   70.0640  224.1750 C   0  0  0  0  0  0  0  0  0  0  0  0
  137.7180   69.1730  224.9670 C   0  0  0  0  0  0  0  0  0  0  0  0
  139.0260   69.4660  225.3580 C   0  0  0  0  0  0  0  0  0  0  0  0
  139.7320   68.5770  226.1420 C   0  0  0  0  0  0  0  0  0  0  0  0
  141.0310   68.9080  226.5080 C   0  0  0  0  0  0  0  0  0  0  0  0
  141.5750   70.1060  226.0830 C   0  0  0  0  0  0  0  0  0  0  0  0
  140.8630   71.0000  225.2940 C   0  0  0  0  0  0  0  0  0  0  0  0
  139.5750   70.6670  224.9330 C   0  0  0  0  0  0  0  0  0  0  0  0
  138.8760   71.5180  224.1730 N   0  0  0  0  0  0  0  0  0  0  0  0
  136.3220   73.4630  224.5830 H   0  0  0  0  0  0  0  0  0  0  0  0
  135.0636   73.5115  221.8798 H   0  0  0  0  0  0  0  0  0  0  0  0
  134.7579   74.6603  223.3349 H   0  0  0  0  0  0  0  0  0  0  0  0
  138.0793   73.6135  220.7396 H   0  0  0  0  0  0  0  0  0  0  0  0
  138.5968   75.0039  219.8211 H   0  0  0  0  0  0  0  0  0  0  0  0
  140.5746   74.8662  221.1425 H   0  0  0  0  0  0  0  0  0  0  0  0
  139.2160   73.3670  223.0750 H   0  0  0  0  0  0  0  0  0  0  0  0
  139.0930   75.6203  223.6476 H   0  0  0  0  0  0  0  0  0  0  0  0
  140.3106   76.5492  222.8236 H   0  0  0  0  0  0  0  0  0  0  0  0
  138.5838   77.2439  221.0053 H   0  0  0  0  0  0  0  0  0  0  0  0
  136.5534   77.6944  222.5196 H   0  0  0  0  0  0  0  0  0  0  0  0
  137.7848   77.5002  223.7824 H   0  0  0  0  0  0  0  0  0  0  0  0
  138.0084   80.6764  223.3441 H   0  0  0  0  0  0  0  0  0  0  0  0
  138.2548   79.2026  224.3368 H   0  0  0  0  0  0  0  0  0  0  0  0
  139.9327   82.1004  223.3093 H   0  0  0  0  0  0  0  0  0  0  0  0
  142.4000   82.3601  223.3052 H   0  0  0  0  0  0  0  0  0  0  0  0
  143.8282   80.3547  223.3926 H   0  0  0  0  0  0  0  0  0  0  0  0
  142.8632   78.0723  223.4845 H   0  0  0  0  0  0  0  0  0  0  0  0
  140.3801   77.8380  223.4921 H   0  0  0  0  0  0  0  0  0  0  0  0
  135.9644   69.8371  223.8645 H   0  0  0  0  0  0  0  0  0  0  0  0
  137.2530   68.2290  225.2873 H   0  0  0  0  0  0  0  0  0  0  0  0
  139.2780   67.6300  226.4691 H   0  0  0  0  0  0  0  0  0  0  0  0
  141.6225   68.2216  227.1316 H   0  0  0  0  0  0  0  0  0  0  0  0
  142.6038   70.3589  226.3790 H   0  0  0  0  0  0  0  0  0  0  0  0
  141.3145   71.9479  224.9661 H   0  0  0  0  0  0  0  0  0  0  0  0
  1  2  2  0
  2  3  1  0
  3  4  1  0
  4  5  1  0
  5  6  2  0
  5  7  1  0
  7  8  1  0
  8  9  1  0
  9 10  1  0
  9 11  1  0
 11 12  1  0
 12 13  1  0
 13 14  1  0
 14 15  1  0
 15 16  1  0
 16 17  2  0
 17 18  1  0
 18 19  2  0
 19 20  1  0
 20 21  2  0
  2 22  1  0
 22 23  2  0
 23 24  1  0
 24 25  2  0
 25 26  1  0
 26 27  2  0
 27 28  1  0
 28 29  2  0
 29 30  1  0
 30 31  2  0
 12  7  1  0
 21 16  1  0
 31 22  1  0
 30 25  1  0
  3 32  1  0
  4 33  1  0
  4 34  1  0
  8 35  1  0
  8 36  1  0
  9 37  1  6
 10 38  1  0
 11 39  1  0
 11 40  1  0
 12 41  1  6
 13 42  1  0
 13 43  1  0
 15 44  1  0
 15 45  1  0
 17 46  1  0
 18 47  1  0
 19 48  1  0
 20 49  1  0
 21 50  1  0
 23 51  1  0
 24 52  1  0
 26 53  1  0
 27 54  1  0
 28 55  1  0
 29 56  1  0
M  END
>  <smiles>  (34) 
O=C(NCC(=O)N1C[C@H](O)C[C@@H]1COCc1ccccc1)c1ccc2ccccc2n1

>  <score_type>  (34) 
oracle

>  <origin>  (34) 
autodockgpu

>  <m_score__min__energy>  (34) 
-9.1699999999999999

>  <m_primary>  (34) 
energy

>  <rmsd>  (34) 
3.0330570241152253

>  <m_score__min__rmsd>  (34) 
3.0330570241152253

>  <meeko>  (34) 
{"free_energy": -7.7, "intermolecular_energy": -10.38, "internal_energy": -2.5, "cluster_size": 2, "cluster_id": 5, "rank_in_cluster": 1}

>  <energy>  (34) 
-7.71

>  <cluster_rmsd>  (34) 
1.13

>  <cluster>  (34) 
2

$$$$

     RDKit          3D

 56 59  0  0  0  0  0  0  0  0999 V2000
  139.5530   74.6470  222.5050 O   0  0  0  0  0  0  0  0  0  0  0  0
  140.6110   75.0530  221.9610 C   0  0  0  0  0  0  0  0  0  0  0  0
  141.5000   74.0020  221.5050 N   0  0  0  0  0  0  0  0  0  0  0  0
  141.0820   72.6650  221.7200 C   0  0  0  0  0  0  0  0  0  0  0  0
  139.9760   72.1110  220.9400 C   0  0  0  0  0  0  0  0  0  0  0  0
  140.3990   71.3820  219.9320 O   0  0  0  0  0  0  0  0  0  0  0  0
  138.6090   72.2160  221.0620 N   0  0  0  0  0  0  0  0  0  0  0  0
  137.6130   73.2120  220.6280 C   0  0  0  0  0  0  0  0  0  0  0  0
  136.8170   73.4460  221.9070 C   0  0  2  0  0  0  0  0  0  0  0  0
  137.0690   74.6580  222.5000 O   0  0  0  0  0  0  0  0  0  0  0  0
  137.1300   72.2490  222.7930 C   0  0  0  0  0  0  0  0  0  0  0  0
  137.7100   71.2630  221.7690 C   0  0  2  0  0  0  0  0  0  0  0  0
  138.4000   70.1260  222.4090 C   0  0  0  0  0  0  0  0  0  0  0  0
  138.7180   70.5410  223.7300 O   0  0  0  0  0  0  0  0  0  0  0  0
  139.9080   70.0050  224.1750 C   0  0  0  0  0  0  0  0  0  0  0  0
  140.1670   70.4780  225.5530 C   0  0  0  0  0  0  0  0  0  0  0  0
  139.7020   69.8450  226.6860 C   0  0  0  0  0  0  0  0  0  0  0  0
  139.9810   70.3430  227.9400 C   0  0  0  0  0  0  0  0  0  0  0  0
  140.7370   71.4880  228.0450 C   0  0  0  0  0  0  0  0  0  0  0  0
  141.2260   72.1600  226.9450 C   0  0  0  0  0  0  0  0  0  0  0  0
  140.9290   71.6360  225.6990 C   0  0  0  0  0  0  0  0  0  0  0  0
  140.9550   76.4490  221.7830 C   0  0  0  0  0  0  0  0  0  0  0  0
  141.1680   76.8910  220.4930 C   0  0  0  0  0  0  0  0  0  0  0  0
  141.5000   78.2320  220.3060 C   0  0  0  0  0  0  0  0  0  0  0  0
  141.6120   79.0980  221.3960 C   0  0  0  0  0  0  0  0  0  0  0  0
  141.9410   80.4240  221.1980 C   0  0  0  0  0  0  0  0  0  0  0  0
  142.0430   81.2500  222.3100 C   0  0  0  0  0  0  0  0  0  0  0  0
  141.8140   80.7310  223.5700 C   0  0  0  0  0  0  0  0  0  0  0  0
  141.4820   79.3960  223.7670 C   0  0  0  0  0  0  0  0  0  0  0  0
  141.3840   78.5790  222.6610 C   0  0  0  0  0  0  0  0  0  0  0  0
  141.0650   77.2910  222.8350 N   0  0  0  0  0  0  0  0  0  0  0  0
  142.3970   74.3020  221.0460 H   0  0  0  0  0  0  0  0  0  0  0  0
  141.9561   72.0246  221.5310 H   0  0  0  0  0  0  0  0  0  0  0  0
  140.6833   72.6861  222.7450 H   0  0  0  0  0  0  0  0  0  0  0  0
  138.0977   74.1377  220.2844 H   0  0  0  0  0  0  0  0  0  0  0  0
  136.9979   72.8814  219.7781 H   0  0  0  0  0  0  0  0  0  0  0  0
  135.7388   73.5135  221.6996 H   0  0  0  0  0  0  0  0  0  0  0  0
  137.9630   74.6660  222.9310 H   0  0  0  0  0  0  0  0  0  0  0  0
  137.8666   72.5038  223.5692 H   0  0  0  0  0  0  0  0  0  0  0  0
  136.2648   71.8626  223.3517 H   0  0  0  0  0  0  0  0  0  0  0  0
  136.9938   70.7343  221.1229 H   0  0  0  0  0  0  0  0  0  0  0  0
  137.7399   69.2465  222.4352 H   0  0  0  0  0  0  0  0  0  0  0  0
  139.3051   69.8440  221.8511 H   0  0  0  0  0  0  0  0  0  0  0  0
  139.8426   68.9070  224.1687 H   0  0  0  0  0  0  0  0  0  0  0  0
  140.7277   70.3229  223.5139 H   0  0  0  0  0  0  0  0  0  0  0  0
  139.0999   68.9297  226.5875 H   0  0  0  0  0  0  0  0  0  0  0  0
  139.6063   69.8347  228.8407 H   0  0  0  0  0  0  0  0  0  0  0  0
  140.9602   71.8831  229.0471 H   0  0  0  0  0  0  0  0  0  0  0  0
  141.8273   73.0747  227.0532 H   0  0  0  0  0  0  0  0  0  0  0  0
  141.3042   72.1469  224.8000 H   0  0  0  0  0  0  0  0  0  0  0  0
  141.0784   76.2053  219.6375 H   0  0  0  0  0  0  0  0  0  0  0  0
  141.6757   78.6122  219.2889 H   0  0  0  0  0  0  0  0  0  0  0  0
  142.1178   80.8163  220.1857 H   0  0  0  0  0  0  0  0  0  0  0  0
  142.3046   82.3115  222.1883 H   0  0  0  0  0  0  0  0  0  0  0  0
  141.8970   81.3945  224.4434 H   0  0  0  0  0  0  0  0  0  0  0  0
  141.3023   79.0019  224.7781 H   0  0  0  0  0  0  0  0  0  0  0  0
  1  2  2  0
  2  3  1  0
  3  4  1  0
  4  5  1  0
  5  6  2  0
  5  7  1  0
  7  8  1  0
  8  9  1  0
  9 10  1  0
  9 11  1  0
 11 12  1  0
 12 13  1  0
 13 14  1  0
 14 15  1  0
 15 16  1  0
 16 17  2  0
 17 18  1  0
 18 19  2  0
 19 20  1  0
 20 21  2  0
  2 22  1  0
 22 23  2  0
 23 24  1  0
 24 25  2  0
 25 26  1  0
 26 27  2  0
 27 28  1  0
 28 29  2  0
 29 30  1  0
 30 31  2  0
 12  7  1  0
 21 16  1  0
 31 22  1  0
 30 25  1  0
  3 32  1  0
  4 33  1  0
  4 34  1  0
  8 35  1  0
  8 36  1  0
  9 37  1  6
 10 38  1  0
 11 39  1  0
 11 40  1  0
 12 41  1  6
 13 42  1  0
 13 43  1  0
 15 44  1  0
 15 45  1  0
 17 46  1  0
 18 47  1  0
 19 48  1  0
 20 49  1  0
 21 50  1  0
 23 51  1  0
 24 52  1  0
 26 53  1  0
 27 54  1  0
 28 55  1  0
 29 56  1  0
M  END
>  <smiles>  (35) 
O=C(NCC(=O)N1C[C@H](O)C[C@@H]1COCc1ccccc1)c1ccc2ccccc2n1

>  <score_type>  (35) 
oracle

>  <origin>  (35) 
autodockgpu

>  <m_score__min__energy>  (35) 
-9.1699999999999999

>  <m_primary>  (35) 
energy

>  <rmsd>  (35) 
7.91319181670431

>  <m_score__min__rmsd>  (35) 
7.91319181670431

>  <meeko>  (35) 
{"free_energy": -7.68, "intermolecular_energy": -10.37, "internal_energy": -2.49, "cluster_size": 16, "cluster_id": 2, "rank_in_cluster": 11}

>  <energy>  (35) 
-7.68

>  <cluster_rmsd>  (35) 
1.39

>  <cluster>  (35) 
2

$$$$

     RDKit          3D

 56 59  0  0  0  0  0  0  0  0999 V2000
  140.2780   71.1740  223.0140 O   0  0  0  0  0  0  0  0  0  0  0  0
  140.3460   71.8030  221.9280 C   0  0  0  0  0  0  0  0  0  0  0  0
  140.2530   70.9760  220.7400 N   0  0  0  0  0  0  0  0  0  0  0  0
  140.0970   69.5810  220.9360 C   0  0  0  0  0  0  0  0  0  0  0  0
  138.7960   69.0400  221.3280 C   0  0  0  0  0  0  0  0  0  0  0  0
  138.4880   67.9570  220.6510 O   0  0  0  0  0  0  0  0  0  0  0  0
  137.8570   69.4490  222.2480 N   0  0  0  0  0  0  0  0  0  0  0  0
  136.6970   70.3550  222.1960 C   0  0  0  0  0  0  0  0  0  0  0  0
  136.9270   71.2400  223.4150 C   0  0  2  0  0  0  0  0  0  0  0  0
  137.3320   72.5140  223.1040 O   0  0  0  0  0  0  0  0  0  0  0  0
  137.9140   70.4720  224.2810 C   0  0  0  0  0  0  0  0  0  0  0  0
  137.8020   69.0620  223.6840 C   0  0  2  0  0  0  0  0  0  0  0  0
  138.8950   68.1740  224.1250 C   0  0  0  0  0  0  0  0  0  0  0  0
  138.8410   68.1460  225.5440 O   0  0  0  0  0  0  0  0  0  0  0  0
  140.0960   68.1420  226.1170 C   0  0  0  0  0  0  0  0  0  0  0  0
  140.4300   69.5130  226.5630 C   0  0  0  0  0  0  0  0  0  0  0  0
  141.1480   70.4150  225.8100 C   0  0  0  0  0  0  0  0  0  0  0  0
  141.4230   71.6780  226.2900 C   0  0  0  0  0  0  0  0  0  0  0  0
  140.9650   72.0250  227.5400 C   0  0  0  0  0  0  0  0  0  0  0  0
  140.2420   71.1600  228.3350 C   0  0  0  0  0  0  0  0  0  0  0  0
  139.9820   69.9000  227.8250 C   0  0  0  0  0  0  0  0  0  0  0  0
  140.5060   73.2400  221.8250 C   0  0  0  0  0  0  0  0  0  0  0  0
  141.6460   73.7090  221.2070 C   0  0  0  0  0  0  0  0  0  0  0  0
  141.8140   75.0890  221.1010 C   0  0  0  0  0  0  0  0  0  0  0  0
  140.8510   75.9660  221.6060 C   0  0  0  0  0  0  0  0  0  0  0  0
  141.0270   77.3300  221.4950 C   0  0  0  0  0  0  0  0  0  0  0  0
  140.0450   78.1650  222.0110 C   0  0  0  0  0  0  0  0  0  0  0  0
  138.9300   77.6160  222.6160 C   0  0  0  0  0  0  0  0  0  0  0  0
  138.7540   76.2430  222.7260 C   0  0  0  0  0  0  0  0  0  0  0  0
  139.7320   75.4170  222.2130 C   0  0  0  0  0  0  0  0  0  0  0  0
  139.5760   74.0910  222.3120 N   0  0  0  0  0  0  0  0  0  0  0  0
  140.3070   71.4670  219.8130 H   0  0  0  0  0  0  0  0  0  0  0  0
  140.3712   69.0943  219.9884 H   0  0  0  0  0  0  0  0  0  0  0  0
  140.7311   69.3755  221.8110 H   0  0  0  0  0  0  0  0  0  0  0  0
  136.6937   70.9463  221.2684 H   0  0  0  0  0  0  0  0  0  0  0  0
  135.7283   69.8340  222.2043 H   0  0  0  0  0  0  0  0  0  0  0  0
  135.9878   71.4264  223.9565 H   0  0  0  0  0  0  0  0  0  0  0  0
  138.3150   72.6100  223.2040 H   0  0  0  0  0  0  0  0  0  0  0  0
  138.9338   70.8720  224.1812 H   0  0  0  0  0  0  0  0  0  0  0  0
  137.7029   70.5233  225.3593 H   0  0  0  0  0  0  0  0  0  0  0  0
  136.9230   68.4660  223.9705 H   0  0  0  0  0  0  0  0  0  0  0  0
  138.7504   67.1621  223.7187 H   0  0  0  0  0  0  0  0  0  0  0  0
  139.8711   68.5364  223.7701 H   0  0  0  0  0  0  0  0  0  0  0  0
  140.1040   67.4615  226.9812 H   0  0  0  0  0  0  0  0  0  0  0  0
  140.8383   67.8012  225.3802 H   0  0  0  0  0  0  0  0  0  0  0  0
  141.5071   70.1240  224.8118 H   0  0  0  0  0  0  0  0  0  0  0  0
  141.9978   72.3946  225.6849 H   0  0  0  0  0  0  0  0  0  0  0  0
  141.1842   73.0333  227.9211 H   0  0  0  0  0  0  0  0  0  0  0  0
  139.8871   71.4591  229.3323 H   0  0  0  0  0  0  0  0  0  0  0  0
  139.4066   69.1851  228.4315 H   0  0  0  0  0  0  0  0  0  0  0  0
  142.4008   73.0146  220.8093 H   0  0  0  0  0  0  0  0  0  0  0  0
  142.7146   75.4916  220.6144 H   0  0  0  0  0  0  0  0  0  0  0  0
  141.9226   77.7454  221.0100 H   0  0  0  0  0  0  0  0  0  0  0  0
  140.1537   79.2572  221.9388 H   0  0  0  0  0  0  0  0  0  0  0  0
  138.1589   78.2869  223.0225 H   0  0  0  0  0  0  0  0  0  0  0  0
  137.8585   75.8254  223.2094 H   0  0  0  0  0  0  0  0  0  0  0  0
  1  2  2  0
  2  3  1  0
  3  4  1  0
  4  5  1  0
  5  6  2  0
  5  7  1  0
  7  8  1  0
  8  9  1  0
  9 10  1  0
  9 11  1  0
 11 12  1  0
 12 13  1  0
 13 14  1  0
 14 15  1  0
 15 16  1  0
 16 17  2  0
 17 18  1  0
 18 19  2  0
 19 20  1  0
 20 21  2  0
  2 22  1  0
 22 23  2  0
 23 24  1  0
 24 25  2  0
 25 26  1  0
 26 27  2  0
 27 28  1  0
 28 29  2  0
 29 30  1  0
 30 31  2  0
 12  7  1  0
 21 16  1  0
 31 22  1  0
 30 25  1  0
  3 32  1  0
  4 33  1  0
  4 34  1  0
  8 35  1  0
  8 36  1  0
  9 37  1  1
 10 38  1  0
 11 39  1  0
 11 40  1  0
 12 41  1  6
 13 42  1  0
 13 43  1  0
 15 44  1  0
 15 45  1  0
 17 46  1  0
 18 47  1  0
 19 48  1  0
 20 49  1  0
 21 50  1  0
 23 51  1  0
 24 52  1  0
 26 53  1  0
 27 54  1  0
 28 55  1  0
 29 56  1  0
M  END
>  <smiles>  (36) 
O=C(NCC(=O)N1C[C@H](O)C[C@@H]1COCc1ccccc1)c1ccc2ccccc2n1

>  <score_type>  (36) 
oracle

>  <origin>  (36) 
autodockgpu

>  <m_score__min__energy>  (36) 
-9.1699999999999999

>  <m_primary>  (36) 
energy

>  <rmsd>  (36) 
7.508598214658946

>  <m_score__min__rmsd>  (36) 
7.508598214658946

>  <meeko>  (36) 
{"free_energy": -7.56, "intermolecular_energy": -10.25, "internal_energy": -3.34, "cluster_size": 4, "cluster_id": 4, "rank_in_cluster": 2}

>  <energy>  (36) 
-7.55

>  <cluster_rmsd>  (36) 
1.34

>  <cluster>  (36) 
2

$$$$

     RDKit          3D

 56 59  0  0  0  0  0  0  0  0999 V2000
  140.2600   71.0770  221.3600 O   0  0  0  0  0  0  0  0  0  0  0  0
  139.9430   71.5580  222.4770 C   0  0  0  0  0  0  0  0  0  0  0  0
  139.5990   72.9660  222.4560 N   0  0  0  0  0  0  0  0  0  0  0  0
  139.6580   73.6260  221.2020 C   0  0  0  0  0  0  0  0  0  0  0  0
  140.5660   74.7570  221.0140 C   0  0  0  0  0  0  0  0  0  0  0  0
  140.6750   75.4870  222.1000 O   0  0  0  0  0  0  0  0  0  0  0  0
  141.3040   75.1870  219.9340 N   0  0  0  0  0  0  0  0  0  0  0  0
  142.5880   74.7760  219.3400 C   0  0  0  0  0  0  0  0  0  0  0  0
  143.3130   76.1080  219.1920 C   0  0  2  0  0  0  0  0  0  0  0  0
  144.3330   76.2850  220.0940 O   0  0  0  0  0  0  0  0  0  0  0  0
  142.2220   77.1650  219.2790 C   0  0  0  0  0  0  0  0  0  0  0  0
  140.9660   76.3190  219.0290 C   0  0  2  0  0  0  0  0  0  0  0  0
  139.7240   77.0370  219.3780 C   0  0  0  0  0  0  0  0  0  0  0  0
  139.9060   77.5400  220.6930 O   0  0  0  0  0  0  0  0  0  0  0  0
  140.0410   78.9130  220.7160 C   0  0  0  0  0  0  0  0  0  0  0  0
  140.9090   79.2950  221.8520 C   0  0  0  0  0  0  0  0  0  0  0  0
  140.9760   78.6000  223.0390 C   0  0  0  0  0  0  0  0  0  0  0  0
  141.8090   79.0160  224.0570 C   0  0  0  0  0  0  0  0  0  0  0  0
  142.5770   80.1410  223.8660 C   0  0  0  0  0  0  0  0  0  0  0  0
  142.5470   80.8740  222.6970 C   0  0  0  0  0  0  0  0  0  0  0  0
  141.7010   80.4310  221.6950 C   0  0  0  0  0  0  0  0  0  0  0  0
  139.9100   70.8020  223.7130 C   0  0  0  0  0  0  0  0  0  0  0  0
  139.3310   69.5510  223.6760 C   0  0  0  0  0  0  0  0  0  0  0  0
  139.2920   68.8110  224.8580 C   0  0  0  0  0  0  0  0  0  0  0  0
  139.8260   69.3280  226.0410 C   0  0  0  0  0  0  0  0  0  0  0  0
  139.7820   68.5870  227.2040 C   0  0  0  0  0  0  0  0  0  0  0  0
  140.3240   69.1390  228.3570 C   0  0  0  0  0  0  0  0  0  0  0  0
  140.8870   70.4000  228.3120 C   0  0  0  0  0  0  0  0  0  0  0  0
  140.9310   71.1440  227.1400 C   0  0  0  0  0  0  0  0  0  0  0  0
  140.3910   70.5930  225.9970 C   0  0  0  0  0  0  0  0  0  0  0  0
  140.4260   71.2980  224.8600 N   0  0  0  0  0  0  0  0  0  0  0  0
  139.3300   73.4050  223.3720 H   0  0  0  0  0  0  0  0  0  0  0  0
  139.9372   72.8670  220.4563 H   0  0  0  0  0  0  0  0  0  0  0  0
  138.6617   74.0828  221.1091 H   0  0  0  0  0  0  0  0  0  0  0  0
  143.1366   74.0949  220.0072 H   0  0  0  0  0  0  0  0  0  0  0  0
  142.4813   74.2231  218.3950 H   0  0  0  0  0  0  0  0  0  0  0  0
  143.8458   76.1679  218.2315 H   0  0  0  0  0  0  0  0  0  0  0  0
  144.2470   77.1550  220.5630 H   0  0  0  0  0  0  0  0  0  0  0  0
  142.1979   77.6386  220.2715 H   0  0  0  0  0  0  0  0  0  0  0  0
  142.3486   78.0030  218.5778 H   0  0  0  0  0  0  0  0  0  0  0  0
  140.7550   76.0329  217.9880 H   0  0  0  0  0  0  0  0  0  0  0  0
  139.5532   77.8652  218.6745 H   0  0  0  0  0  0  0  0  0  0  0  0
  138.8504   76.3707  219.3240 H   0  0  0  0  0  0  0  0  0  0  0  0
  140.4954   79.2543  219.7742 H   0  0  0  0  0  0  0  0  0  0  0  0
  139.0521   79.3808  220.8314 H   0  0  0  0  0  0  0  0  0  0  0  0
  140.3571   77.7012  223.1773 H   0  0  0  0  0  0  0  0  0  0  0  0
  141.8581   78.4583  225.0039 H   0  0  0  0  0  0  0  0  0  0  0  0
  143.2422   80.4699  224.6780 H   0  0  0  0  0  0  0  0  0  0  0  0
  143.1689   81.7720  222.5671 H   0  0  0  0  0  0  0  0  0  0  0  0
  141.6525   80.9907  220.7493 H   0  0  0  0  0  0  0  0  0  0  0  0
  138.9122   69.1484  222.7419 H   0  0  0  0  0  0  0  0  0  0  0  0
  138.8360   67.8099  224.8586 H   0  0  0  0  0  0  0  0  0  0  0  0
  139.3291   67.5846  227.2174 H   0  0  0  0  0  0  0  0  0  0  0  0
  140.3053   68.5753  229.3014 H   0  0  0  0  0  0  0  0  0  0  0  0
  141.3130   70.8274  229.2317 H   0  0  0  0  0  0  0  0  0  0  0  0
  141.3845   72.1460  227.1240 H   0  0  0  0  0  0  0  0  0  0  0  0
  1  2  2  0
  2  3  1  0
  3  4  1  0
  4  5  1  0
  5  6  2  0
  5  7  1  0
  7  8  1  0
  8  9  1  0
  9 10  1  0
  9 11  1  0
 11 12  1  0
 12 13  1  0
 13 14  1  0
 14 15  1  0
 15 16  1  0
 16 17  2  0
 17 18  1  0
 18 19  2  0
 19 20  1  0
 20 21  2  0
  2 22  1  0
 22 23  2  0
 23 24  1  0
 24 25  2  0
 25 26  1  0
 26 27  2  0
 27 28  1  0
 28 29  2  0
 29 30  1  0
 30 31  2  0
 12  7  1  0
 21 16  1  0
 31 22  1  0
 30 25  1  0
  3 32  1  0
  4 33  1  0
  4 34  1  0
  8 35  1  0
  8 36  1  0
  9 37  1  6
 10 38  1  0
 11 39  1  0
 11 40  1  0
 12 41  1  6
 13 42  1  0
 13 43  1  0
 15 44  1  0
 15 45  1  0
 17 46  1  0
 18 47  1  0
 19 48  1  0
 20 49  1  0
 21 50  1  0
 23 51  1  0
 24 52  1  0
 26 53  1  0
 27 54  1  0
 28 55  1  0
 29 56  1  0
M  END
>  <smiles>  (37) 
O=C(NCC(=O)N1C[C@H](O)C[C@@H]1COCc1ccccc1)c1ccc2ccccc2n1

>  <score_type>  (37) 
oracle

>  <origin>  (37) 
autodockgpu

>  <m_score__min__energy>  (37) 
-9.1699999999999999

>  <m_primary>  (37) 
energy

>  <rmsd>  (37) 
1.8084955014800683

>  <m_score__min__rmsd>  (37) 
1.8084955014800683

>  <meeko>  (37) 
{"free_energy": -8.85, "intermolecular_energy": -11.54, "internal_energy": -1.71, "cluster_size": 24, "cluster_id": 1, "rank_in_cluster": 6}

>  <energy>  (37) 
-6.91

>  <cluster_rmsd>  (37) 
1.97

>  <cluster>  (37) 
2

$$$$

     RDKit          3D

 56 59  0  0  0  0  0  0  0  0999 V2000
  139.9200   71.0440  221.3760 O   0  0  0  0  0  0  0  0  0  0  0  0
  139.8140   71.5670  222.5140 C   0  0  0  0  0  0  0  0  0  0  0  0
  139.6330   73.0060  222.5060 N   0  0  0  0  0  0  0  0  0  0  0  0
  139.5960   73.6440  221.2400 C   0  0  0  0  0  0  0  0  0  0  0  0
  140.3160   74.9000  221.0350 C   0  0  0  0  0  0  0  0  0  0  0  0
  140.5900   75.5030  222.1700 O   0  0  0  0  0  0  0  0  0  0  0  0
  140.7450   75.5520  219.9010 N   0  0  0  0  0  0  0  0  0  0  0  0
  141.6800   75.2130  218.8140 C   0  0  0  0  0  0  0  0  0  0  0  0
  142.5530   76.4600  218.7430 C   0  0  2  0  0  0  0  0  0  0  0  0
  143.8180   76.2790  219.2440 O   0  0  0  0  0  0  0  0  0  0  0  0
  141.7560   77.5430  219.4550 C   0  0  0  0  0  0  0  0  0  0  0  0
  140.3530   76.9210  219.4690 C   0  0  2  0  0  0  0  0  0  0  0  0
  139.4360   77.6190  220.3900 C   0  0  0  0  0  0  0  0  0  0  0  0
  139.6620   79.0090  220.2070 O   0  0  0  0  0  0  0  0  0  0  0  0
  139.2810   79.7530  221.3040 C   0  0  0  0  0  0  0  0  0  0  0  0
  140.4200   79.8450  222.2450 C   0  0  0  0  0  0  0  0  0  0  0  0
  140.8110   78.8250  223.0850 C   0  0  0  0  0  0  0  0  0  0  0  0
  141.8830   78.9820  223.9380 C   0  0  0  0  0  0  0  0  0  0  0  0
  142.5600   80.1790  223.9360 C   0  0  0  0  0  0  0  0  0  0  0  0
  142.2110   81.2310  223.1160 C   0  0  0  0  0  0  0  0  0  0  0  0
  141.1300   81.0440  222.2720 C   0  0  0  0  0  0  0  0  0  0  0  0
  139.8630   70.8300  223.7610 C   0  0  0  0  0  0  0  0  0  0  0  0
  139.3630   69.5440  223.7580 C   0  0  0  0  0  0  0  0  0  0  0  0
  139.4030   68.8220  224.9500 C   0  0  0  0  0  0  0  0  0  0  0  0
  139.9350   69.3900  226.1100 C   0  0  0  0  0  0  0  0  0  0  0  0
  139.9690   68.6660  227.2840 C   0  0  0  0  0  0  0  0  0  0  0  0
  140.5060   69.2680  228.4140 C   0  0  0  0  0  0  0  0  0  0  0  0
  140.9870   70.5620  228.3350 C   0  0  0  0  0  0  0  0  0  0  0  0
  140.9520   71.2890  227.1520 C   0  0  0  0  0  0  0  0  0  0  0  0
  140.4170   70.6870  226.0330 C   0  0  0  0  0  0  0  0  0  0  0  0
  140.3760   71.3760  224.8860 N   0  0  0  0  0  0  0  0  0  0  0  0
  139.5420   73.4800  223.4390 H   0  0  0  0  0  0  0  0  0  0  0  0
  139.9964   72.9252  220.5099 H   0  0  0  0  0  0  0  0  0  0  0  0
  138.5408   73.9362  221.1338 H   0  0  0  0  0  0  0  0  0  0  0  0
  142.2756   74.3223  219.0629 H   0  0  0  0  0  0  0  0  0  0  0  0
  141.1833   74.9659  217.8641 H   0  0  0  0  0  0  0  0  0  0  0  0
  142.7605   76.7426  217.7004 H   0  0  0  0  0  0  0  0  0  0  0  0
  144.4630   76.0700  218.5190 H   0  0  0  0  0  0  0  0  0  0  0  0
  142.1309   77.7147  220.4748 H   0  0  0  0  0  0  0  0  0  0  0  0
  141.8069   78.5308  218.9737 H   0  0  0  0  0  0  0  0  0  0  0  0
  139.7779   76.9640  218.5323 H   0  0  0  0  0  0  0  0  0  0  0  0
  138.3923   77.3687  220.1493 H   0  0  0  0  0  0  0  0  0  0  0  0
  139.6164   77.3205  221.4332 H   0  0  0  0  0  0  0  0  0  0  0  0
  138.9876   80.7626  220.9807 H   0  0  0  0  0  0  0  0  0  0  0  0
  138.4270   79.2700  221.8014 H   0  0  0  0  0  0  0  0  0  0  0  0
  140.2605   77.8727  223.0750 H   0  0  0  0  0  0  0  0  0  0  0  0
  142.1908   78.1652  224.6074 H   0  0  0  0  0  0  0  0  0  0  0  0
  143.4152   80.3022  224.6167 H   0  0  0  0  0  0  0  0  0  0  0  0
  142.7683   82.1792  223.1318 H   0  0  0  0  0  0  0  0  0  0  0  0
  140.8232   81.8632  221.6051 H   0  0  0  0  0  0  0  0  0  0  0  0
  138.9450   69.1013  222.8418 H   0  0  0  0  0  0  0  0  0  0  0  0
  139.0115   67.7944  224.9773 H   0  0  0  0  0  0  0  0  0  0  0  0
  139.5804   67.6377  227.3237 H   0  0  0  0  0  0  0  0  0  0  0  0
  140.5485   68.7190  229.3662 H   0  0  0  0  0  0  0  0  0  0  0  0
  141.4101   71.0297  229.2362 H   0  0  0  0  0  0  0  0  0  0  0  0
  141.3406   72.3172  227.1091 H   0  0  0  0  0  0  0  0  0  0  0  0
  1  2  2  0
  2  3  1  0
  3  4  1  0
  4  5  1  0
  5  6  2  0
  5  7  1  0
  7  8  1  0
  8  9  1  0
  9 10  1  0
  9 11  1  0
 11 12  1  0
 12 13  1  0
 13 14  1  0
 14 15  1  0
 15 16  1  0
 16 17  2  0
 17 18  1  0
 18 19  2  0
 19 20  1  0
 20 21  2  0
  2 22  1  0
 22 23  2  0
 23 24  1  0
 24 25  2  0
 25 26  1  0
 26 27  2  0
 27 28  1  0
 28 29  2  0
 29 30  1  0
 30 31  2  0
 12  7  1  0
 21 16  1  0
 31 22  1  0
 30 25  1  0
  3 32  1  0
  4 33  1  0
  4 34  1  0
  8 35  1  0
  8 36  1  0
  9 37  1  6
 10 38  1  0
 11 39  1  0
 11 40  1  0
 12 41  1  6
 13 42  1  0
 13 43  1  0
 15 44  1  0
 15 45  1  0
 17 46  1  0
 18 47  1  0
 19 48  1  0
 20 49  1  0
 21 50  1  0
 23 51  1  0
 24 52  1  0
 26 53  1  0
 27 54  1  0
 28 55  1  0
 29 56  1  0
M  END
>  <smiles>  (38) 
O=C(NCC(=O)N1C[C@H](O)C[C@@H]1COCc1ccccc1)c1ccc2ccccc2n1

>  <score_type>  (38) 
oracle

>  <origin>  (38) 
autodockgpu

>  <m_score__min__energy>  (38) 
-9.1699999999999999

>  <m_primary>  (38) 
energy

>  <rmsd>  (38) 
1.501819374849597

>  <m_score__min__rmsd>  (38) 
1.501819374849597

>  <meeko>  (38) 
{"free_energy": -8.32, "intermolecular_energy": -11.01, "internal_energy": -1.8, "cluster_size": 24, "cluster_id": 1, "rank_in_cluster": 16}

>  <energy>  (38) 
-6.89

>  <cluster_rmsd>  (38) 
1.97

>  <cluster>  (38) 
2

$$$$

     RDKit          3D

 56 59  0  0  0  0  0  0  0  0999 V2000
  139.4900   70.9580  221.4470 O   0  0  0  0  0  0  0  0  0  0  0  0
  139.6480   71.4570  222.5900 C   0  0  0  0  0  0  0  0  0  0  0  0
  139.7490   72.9030  222.6120 N   0  0  0  0  0  0  0  0  0  0  0  0
  139.6580   73.5760  221.3670 C   0  0  0  0  0  0  0  0  0  0  0  0
  140.4670   74.7690  221.1210 C   0  0  0  0  0  0  0  0  0  0  0  0
  140.5200   75.5540  222.1730 O   0  0  0  0  0  0  0  0  0  0  0  0
  141.1610   75.2110  220.0170 N   0  0  0  0  0  0  0  0  0  0  0  0
  142.4380   74.8320  219.3880 C   0  0  0  0  0  0  0  0  0  0  0  0
  143.1200   76.1840  219.2090 C   0  0  2  0  0  0  0  0  0  0  0  0
  144.1590   76.3980  220.0790 O   0  0  0  0  0  0  0  0  0  0  0  0
  142.0010   77.2090  219.3200 C   0  0  0  0  0  0  0  0  0  0  0  0
  140.7630   76.3250  219.1130 C   0  0  2  0  0  0  0  0  0  0  0  0
  139.5120   77.0100  219.4920 C   0  0  0  0  0  0  0  0  0  0  0  0
  139.8740   78.3290  219.8720 O   0  0  0  0  0  0  0  0  0  0  0  0
  139.4490   78.6440  221.1450 C   0  0  0  0  0  0  0  0  0  0  0  0
  140.5970   79.1580  221.9260 C   0  0  0  0  0  0  0  0  0  0  0  0
  141.4700   80.1210  221.4710 C   0  0  0  0  0  0  0  0  0  0  0  0
  142.5200   80.5520  222.2540 C   0  0  0  0  0  0  0  0  0  0  0  0
  142.6820   80.0030  223.5040 C   0  0  0  0  0  0  0  0  0  0  0  0
  141.8370   79.0350  224.0080 C   0  0  0  0  0  0  0  0  0  0  0  0
  140.7930   78.6230  223.1980 C   0  0  0  0  0  0  0  0  0  0  0  0
  139.7280   70.6860  223.8140 C   0  0  0  0  0  0  0  0  0  0  0  0
  139.1940   69.4150  223.8000 C   0  0  0  0  0  0  0  0  0  0  0  0
  139.2640   68.6610  224.9710 C   0  0  0  0  0  0  0  0  0  0  0  0
  139.8590   69.1830  226.1210 C   0  0  0  0  0  0  0  0  0  0  0  0
  139.9230   68.4280  227.2740 C   0  0  0  0  0  0  0  0  0  0  0  0
  140.5220   68.9870  228.3960 C   0  0  0  0  0  0  0  0  0  0  0  0
  141.0340   70.2690  228.3290 C   0  0  0  0  0  0  0  0  0  0  0  0
  140.9700   71.0280  227.1670 C   0  0  0  0  0  0  0  0  0  0  0  0
  140.3730   70.4700  226.0570 C   0  0  0  0  0  0  0  0  0  0  0  0
  140.3030   71.1890  224.9300 N   0  0  0  0  0  0  0  0  0  0  0  0
  139.8830   73.3580  223.5500 H   0  0  0  0  0  0  0  0  0  0  0  0
  139.9259   72.8447  220.5902 H   0  0  0  0  0  0  0  0  0  0  0  0
  138.6283   73.9629  221.3629 H   0  0  0  0  0  0  0  0  0  0  0  0
  143.0255   74.1722  220.0434 H   0  0  0  0  0  0  0  0  0  0  0  0
  142.3195   74.2687  218.4506 H   0  0  0  0  0  0  0  0  0  0  0  0
  143.6234   76.2515  218.2333 H   0  0  0  0  0  0  0  0  0  0  0  0
  143.9910   77.1940  220.6480 H   0  0  0  0  0  0  0  0  0  0  0  0
  141.9918   77.6898  220.3093 H   0  0  0  0  0  0  0  0  0  0  0  0
  142.0826   78.0443  218.6089 H   0  0  0  0  0  0  0  0  0  0  0  0
  140.5295   76.0236  218.0812 H   0  0  0  0  0  0  0  0  0  0  0  0
  138.8197   77.0371  218.6376 H   0  0  0  0  0  0  0  0  0  0  0  0
  139.0039   76.4845  220.3140 H   0  0  0  0  0  0  0  0  0  0  0  0
  138.6655   79.4142  221.0917 H   0  0  0  0  0  0  0  0  0  0  0  0
  139.0417   77.7459  221.6324 H   0  0  0  0  0  0  0  0  0  0  0  0
  141.3277   80.5523  220.4691 H   0  0  0  0  0  0  0  0  0  0  0  0
  143.2151   81.3208  221.8854 H   0  0  0  0  0  0  0  0  0  0  0  0
  143.5192   80.3493  224.1279 H   0  0  0  0  0  0  0  0  0  0  0  0
  141.9869   78.6090  225.0110 H   0  0  0  0  0  0  0  0  0  0  0  0
  140.0998   77.8531  223.5679 H   0  0  0  0  0  0  0  0  0  0  0  0
  138.7263   69.0075  222.8916 H   0  0  0  0  0  0  0  0  0  0  0  0
  138.8458   67.6437  224.9888 H   0  0  0  0  0  0  0  0  0  0  0  0
  139.5101   67.4089  227.3042 H   0  0  0  0  0  0  0  0  0  0  0  0
  140.5884   68.4128  229.3319 H   0  0  0  0  0  0  0  0  0  0  0  0
  141.5067   70.7017  229.2231 H   0  0  0  0  0  0  0  0  0  0  0  0
  141.3844   72.0464  227.1338 H   0  0  0  0  0  0  0  0  0  0  0  0
  1  2  2  0
  2  3  1  0
  3  4  1  0
  4  5  1  0
  5  6  2  0
  5  7  1  0
  7  8  1  0
  8  9  1  0
  9 10  1  0
  9 11  1  0
 11 12  1  0
 12 13  1  0
 13 14  1  0
 14 15  1  0
 15 16  1  0
 16 17  2  0
 17 18  1  0
 18 19  2  0
 19 20  1  0
 20 21  2  0
  2 22  1  0
 22 23  2  0
 23 24  1  0
 24 25  2  0
 25 26  1  0
 26 27  2  0
 27 28  1  0
 28 29  2  0
 29 30  1  0
 30 31  2  0
 12  7  1  0
 21 16  1  0
 31 22  1  0
 30 25  1  0
  3 32  1  0
  4 33  1  0
  4 34  1  0
  8 35  1  0
  8 36  1  0
  9 37  1  6
 10 38  1  0
 11 39  1  0
 11 40  1  0
 12 41  1  6
 13 42  1  0
 13 43  1  0
 15 44  1  0
 15 45  1  0
 17 46  1  0
 18 47  1  0
 19 48  1  0
 20 49  1  0
 21 50  1  0
 23 51  1  0
 24 52  1  0
 26 53  1  0
 27 54  1  0
 28 55  1  0
 29 56  1  0
M  END
>  <smiles>  (39) 
O=C(NCC(=O)N1C[C@H](O)C[C@@H]1COCc1ccccc1)c1ccc2ccccc2n1

>  <score_type>  (39) 
oracle

>  <origin>  (39) 
autodockgpu

>  <m_score__min__energy>  (39) 
-9.1699999999999999

>  <m_primary>  (39) 
energy

>  <rmsd>  (39) 
1.753819047244016

>  <m_score__min__rmsd>  (39) 
1.753819047244016

>  <meeko>  (39) 
{"free_energy": -8.55, "intermolecular_energy": -11.23, "internal_energy": -2.07, "cluster_size": 24, "cluster_id": 1, "rank_in_cluster": 14}

>  <energy>  (39) 
-6.88

>  <cluster_rmsd>  (39) 
1.73

>  <cluster>  (39) 
2

$$$$

     RDKit          3D

 56 59  0  0  0  0  0  0  0  0999 V2000
  139.1920   75.2700  222.6730 O   0  0  0  0  0  0  0  0  0  0  0  0
  140.2460   75.8670  222.3390 C   0  0  0  0  0  0  0  0  0  0  0  0
  141.3300   74.9980  221.9220 N   0  0  0  0  0  0  0  0  0  0  0  0
  141.0800   73.6020  221.9380 C   0  0  0  0  0  0  0  0  0  0  0  0
  140.1110   73.0230  221.0090 C   0  0  0  0  0  0  0  0  0  0  0  0
  140.6610   72.6990  219.8610 O   0  0  0  0  0  0  0  0  0  0  0  0
  138.7620   72.7660  221.1120 N   0  0  0  0  0  0  0  0  0  0  0  0
  137.5450   73.5130  220.7500 C   0  0  0  0  0  0  0  0  0  0  0  0
  136.7200   73.4200  222.0290 C   0  0  2  0  0  0  0  0  0  0  0  0
  136.6580   74.5950  222.7340 O   0  0  0  0  0  0  0  0  0  0  0  0
  137.3300   72.2630  222.8090 C   0  0  0  0  0  0  0  0  0  0  0  0
  138.1380   71.5560  221.7120 C   0  0  2  0  0  0  0  0  0  0  0  0
  139.0960   70.5770  222.2610 C   0  0  0  0  0  0  0  0  0  0  0  0
  139.0300   70.6980  223.6740 O   0  0  0  0  0  0  0  0  0  0  0  0
  139.9600   69.9050  224.3130 C   0  0  0  0  0  0  0  0  0  0  0  0
  140.3080   70.5190  225.6140 C   0  0  0  0  0  0  0  0  0  0  0  0
  141.0710   71.6580  225.7500 C   0  0  0  0  0  0  0  0  0  0  0  0
  141.3570   72.1740  226.9970 C   0  0  0  0  0  0  0  0  0  0  0  0
  140.8650   71.5310  228.1080 C   0  0  0  0  0  0  0  0  0  0  0  0
  140.0970   70.3880  228.0280 C   0  0  0  0  0  0  0  0  0  0  0  0
  139.8270   69.8940  226.7630 C   0  0  0  0  0  0  0  0  0  0  0  0
  140.4100   77.3070  222.3530 C   0  0  0  0  0  0  0  0  0  0  0  0
  139.5310   78.0530  221.5960 C   0  0  0  0  0  0  0  0  0  0  0  0
  139.6760   79.4390  221.6000 C   0  0  0  0  0  0  0  0  0  0  0  0
  140.6830   80.0500  222.3500 C   0  0  0  0  0  0  0  0  0  0  0  0
  140.8170   81.4230  222.3460 C   0  0  0  0  0  0  0  0  0  0  0  0
  141.8330   81.9880  223.1060 C   0  0  0  0  0  0  0  0  0  0  0  0
  142.6740   81.1710  223.8380 C   0  0  0  0  0  0  0  0  0  0  0  0
  142.5370   79.7880  223.8420 C   0  0  0  0  0  0  0  0  0  0  0  0
  141.5280   79.2320  223.0850 C   0  0  0  0  0  0  0  0  0  0  0  0
  141.3840   77.9010  223.0780 N   0  0  0  0  0  0  0  0  0  0  0  0
  142.2290   75.4610  221.6360 H   0  0  0  0  0  0  0  0  0  0  0  0
  142.0419   73.1047  221.7445 H   0  0  0  0  0  0  0  0  0  0  0  0
  140.6160   73.4391  222.9220 H   0  0  0  0  0  0  0  0  0  0  0  0
  137.7779   74.5587  220.5004 H   0  0  0  0  0  0  0  0  0  0  0  0
  137.0306   73.1169  219.8620 H   0  0  0  0  0  0  0  0  0  0  0  0
  135.6589   73.2331  221.8072 H   0  0  0  0  0  0  0  0  0  0  0  0
  137.5430   74.8280  223.1180 H   0  0  0  0  0  0  0  0  0  0  0  0
  137.9802   72.6223  223.6202 H   0  0  0  0  0  0  0  0  0  0  0  0
  136.5930   71.6197  223.3121 H   0  0  0  0  0  0  0  0  0  0  0  0
  137.5778   70.9253  221.0060 H   0  0  0  0  0  0  0  0  0  0  0  0
  138.8170   69.5585  221.9533 H   0  0  0  0  0  0  0  0  0  0  0  0
  140.1148   70.7673  221.8924 H   0  0  0  0  0  0  0  0  0  0  0  0
  139.5374   68.9032  224.4798 H   0  0  0  0  0  0  0  0  0  0  0  0
  140.8630   69.8182  223.6909 H   0  0  0  0  0  0  0  0  0  0  0  0
  141.4573   72.1627  224.8522 H   0  0  0  0  0  0  0  0  0  0  0  0
  141.9675   73.0832  227.1004 H   0  0  0  0  0  0  0  0  0  0  0  0
  141.0931   71.9449  229.1013 H   0  0  0  0  0  0  0  0  0  0  0  0
  139.7151   69.8898  228.9313 H   0  0  0  0  0  0  0  0  0  0  0  0
  139.2168   68.9843  226.6623 H   0  0  0  0  0  0  0  0  0  0  0  0
  138.7389   77.5683  221.0065 H   0  0  0  0  0  0  0  0  0  0  0  0
  138.9890   80.0590  221.0053 H   0  0  0  0  0  0  0  0  0  0  0  0
  140.1365   82.0543  221.7558 H   0  0  0  0  0  0  0  0  0  0  0  0
  141.9676   83.0796  223.1253 H   0  0  0  0  0  0  0  0  0  0  0  0
  143.4759   81.6293  224.4354 H   0  0  0  0  0  0  0  0  0  0  0  0
  143.2150   79.1546  224.4329 H   0  0  0  0  0  0  0  0  0  0  0  0
  1  2  2  0
  2  3  1  0
  3  4  1  0
  4  5  1  0
  5  6  2  0
  5  7  1  0
  7  8  1  0
  8  9  1  0
  9 10  1  0
  9 11  1  0
 11 12  1  0
 12 13  1  0
 13 14  1  0
 14 15  1  0
 15 16  1  0
 16 17  2  0
 17 18  1  0
 18 19  2  0
 19 20  1  0
 20 21  2  0
  2 22  1  0
 22 23  2  0
 23 24  1  0
 24 25  2  0
 25 26  1  0
 26 27  2  0
 27 28  1  0
 28 29  2  0
 29 30  1  0
 30 31  2  0
 12  7  1  0
 21 16  1  0
 31 22  1  0
 30 25  1  0
  3 32  1  0
  4 33  1  0
  4 34  1  0
  8 35  1  0
  8 36  1  0
  9 37  1  6
 10 38  1  0
 11 39  1  0
 11 40  1  0
 12 41  1  6
 13 42  1  0
 13 43  1  0
 15 44  1  0
 15 45  1  0
 17 46  1  0
 18 47  1  0
 19 48  1  0
 20 49  1  0
 21 50  1  0
 23 51  1  0
 24 52  1  0
 26 53  1  0
 27 54  1  0
 28 55  1  0
 29 56  1  0
M  END
>  <smiles>  (40) 
O=C(NCC(=O)N1C[C@H](O)C[C@@H]1COCc1ccccc1)c1ccc2ccccc2n1

>  <score_type>  (40) 
oracle

>  <origin>  (40) 
autodockgpu

>  <m_score__min__energy>  (40) 
-9.1699999999999999

>  <m_primary>  (40) 
energy

>  <rmsd>  (40) 
8.126232353674128

>  <m_score__min__rmsd>  (40) 
8.126232353674128

>  <meeko>  (40) 
{"free_energy": -7.71, "intermolecular_energy": -10.39, "internal_energy": -2.47, "cluster_size": 16, "cluster_id": 2, "rank_in_cluster": 10}

>  <energy>  (40) 
-6.83

>  <cluster_rmsd>  (40) 
1.62

>  <cluster>  (40) 
2

$$$$

     RDKit          3D

 56 59  0  0  0  0  0  0  0  0999 V2000
  141.3330   72.3300  221.7920 O   0  0  0  0  0  0  0  0  0  0  0  0
  140.3650   72.4180  222.5880 C   0  0  0  0  0  0  0  0  0  0  0  0
  139.4210   73.4740  222.2820 N   0  0  0  0  0  0  0  0  0  0  0  0
  139.6920   74.2710  221.1410 C   0  0  0  0  0  0  0  0  0  0  0  0
  139.6450   75.7300  221.2410 C   0  0  0  0  0  0  0  0  0  0  0  0
  138.4510   76.2040  220.9730 O   0  0  0  0  0  0  0  0  0  0  0  0
  140.6000   76.6710  221.5520 N   0  0  0  0  0  0  0  0  0  0  0  0
  141.0700   77.2790  222.8090 C   0  0  0  0  0  0  0  0  0  0  0  0
  141.0400   78.7660  222.4760 C   0  0  2  0  0  0  0  0  0  0  0  0
  140.0170   79.4480  223.0860 O   0  0  0  0  0  0  0  0  0  0  0  0
  141.0060   78.8310  220.9560 C   0  0  0  0  0  0  0  0  0  0  0  0
  141.4570   77.4110  220.5860 C   0  0  2  0  0  0  0  0  0  0  0  0
  141.2050   77.0910  219.1670 C   0  0  0  0  0  0  0  0  0  0  0  0
  142.3220   76.3390  218.7200 O   0  0  0  0  0  0  0  0  0  0  0  0
  143.3320   76.2900  219.6580 C   0  0  0  0  0  0  0  0  0  0  0  0
  143.7240   74.8790  219.8750 C   0  0  0  0  0  0  0  0  0  0  0  0
  142.9740   73.7990  219.4660 C   0  0  0  0  0  0  0  0  0  0  0  0
  143.4010   72.5090  219.7040 C   0  0  0  0  0  0  0  0  0  0  0  0
  144.5960   72.3180  220.3580 C   0  0  0  0  0  0  0  0  0  0  0  0
  145.3850   73.3640  220.7880 C   0  0  0  0  0  0  0  0  0  0  0  0
  144.9290   74.6460  220.5350 C   0  0  0  0  0  0  0  0  0  0  0  0
  140.1690   71.5530  223.7350 C   0  0  0  0  0  0  0  0  0  0  0  0
  139.4880   70.3710  223.5290 C   0  0  0  0  0  0  0  0  0  0  0  0
  139.2920   69.5280  224.6220 C   0  0  0  0  0  0  0  0  0  0  0  0
  139.7720   69.8760  225.8860 C   0  0  0  0  0  0  0  0  0  0  0  0
  139.5710   69.0340  226.9610 C   0  0  0  0  0  0  0  0  0  0  0  0
  140.0660   69.4200  228.2010 C   0  0  0  0  0  0  0  0  0  0  0  0
  140.7380   70.6210  228.3250 C   0  0  0  0  0  0  0  0  0  0  0  0
  140.9390   71.4670  227.2420 C   0  0  0  0  0  0  0  0  0  0  0  0
  140.4460   71.0810  226.0130 C   0  0  0  0  0  0  0  0  0  0  0  0
  140.6320   71.8860  224.9600 N   0  0  0  0  0  0  0  0  0  0  0  0
  138.5980   73.5800  222.9270 H   0  0  0  0  0  0  0  0  0  0  0  0
  140.7053   74.0081  220.8032 H   0  0  0  0  0  0  0  0  0  0  0  0
  138.8572   74.0365  220.4641 H   0  0  0  0  0  0  0  0  0  0  0  0
  140.3936   77.0432  223.6438 H   0  0  0  0  0  0  0  0  0  0  0  0
  142.0574   76.9181  223.1328 H   0  0  0  0  0  0  0  0  0  0  0  0
  141.9260   79.2825  222.8739 H   0  0  0  0  0  0  0  0  0  0  0  0
  139.1600   78.9550  223.0030 H   0  0  0  0  0  0  0  0  0  0  0  0
  139.9924   79.0416  220.5842 H   0  0  0  0  0  0  0  0  0  0  0  0
  141.6282   79.6289  220.5245 H   0  0  0  0  0  0  0  0  0  0  0  0
  142.5326   77.1928  220.6595 H   0  0  0  0  0  0  0  0  0  0  0  0
  140.2837   76.4981  219.0688 H   0  0  0  0  0  0  0  0  0  0  0  0
  141.0758   78.0055  218.5695 H   0  0  0  0  0  0  0  0  0  0  0  0
  144.1992   76.8616  219.2957 H   0  0  0  0  0  0  0  0  0  0  0  0
  142.9801   76.7265  220.6044 H   0  0  0  0  0  0  0  0  0  0  0  0
  142.0214   73.9672  218.9424 H   0  0  0  0  0  0  0  0  0  0  0  0
  142.7974   71.6495  219.3770 H   0  0  0  0  0  0  0  0  0  0  0  0
  144.9361   71.2889  220.5456 H   0  0  0  0  0  0  0  0  0  0  0  0
  146.3368   73.1869  221.3101 H   0  0  0  0  0  0  0  0  0  0  0  0
  145.5339   75.5039  220.8637 H   0  0  0  0  0  0  0  0  0  0  0  0
  139.1107   70.1016  222.5315 H   0  0  0  0  0  0  0  0  0  0  0  0
  138.7534   68.5784  224.4870 H   0  0  0  0  0  0  0  0  0  0  0  0
  139.0331   68.0822  226.8395 H   0  0  0  0  0  0  0  0  0  0  0  0
  139.9236   68.7729  229.0790 H   0  0  0  0  0  0  0  0  0  0  0  0
  141.1255   70.9160  229.3113 H   0  0  0  0  0  0  0  0  0  0  0  0
  141.4768   72.4191  227.3612 H   0  0  0  0  0  0  0  0  0  0  0  0
  1  2  2  0
  2  3  1  0
  3  4  1  0
  4  5  1  0
  5  6  2  0
  5  7  1  0
  7  8  1  0
  8  9  1  0
  9 10  1  0
  9 11  1  0
 11 12  1  0
 12 13  1  0
 13 14  1  0
 14 15  1  0
 15 16  1  0
 16 17  2  0
 17 18  1  0
 18 19  2  0
 19 20  1  0
 20 21  2  0
  2 22  1  0
 22 23  2  0
 23 24  1  0
 24 25  2  0
 25 26  1  0
 26 27  2  0
 27 28  1  0
 28 29  2  0
 29 30  1  0
 30 31  2  0
 12  7  1  0
 21 16  1  0
 31 22  1  0
 30 25  1  0
  3 32  1  0
  4 33  1  0
  4 34  1  0
  8 35  1  0
  8 36  1  0
  9 37  1  1
 10 38  1  0
 11 39  1  0
 11 40  1  0
 12 41  1  1
 13 42  1  0
 13 43  1  0
 15 44  1  0
 15 45  1  0
 17 46  1  0
 18 47  1  0
 19 48  1  0
 20 49  1  0
 21 50  1  0
 23 51  1  0
 24 52  1  0
 26 53  1  0
 27 54  1  0
 28 55  1  0
 29 56  1  0
M  END
>  <smiles>  (41) 
O=C(NCC(=O)N1C[C@H](O)C[C@@H]1COCc1ccccc1)c1ccc2ccccc2n1

>  <score_type>  (41) 
oracle

>  <origin>  (41) 
autodockgpu

>  <m_score__min__energy>  (41) 
-9.1699999999999999

>  <m_primary>  (41) 
energy

>  <rmsd>  (41) 
2.7605759139300594

>  <m_score__min__rmsd>  (41) 
2.7605759139300594

>  <meeko>  (41) 
{"free_energy": -7.87, "intermolecular_energy": -10.56, "internal_energy": -2.01, "cluster_size": 1, "cluster_id": 3, "rank_in_cluster": 1}

>  <energy>  (41) 
-7.87

>  <cluster_rmsd>  (41) 
0.0

>  <cluster>  (41) 
3

$$$$

     RDKit          3D

 56 59  0  0  0  0  0  0  0  0999 V2000
  139.0610   74.9440  222.3640 O   0  0  0  0  0  0  0  0  0  0  0  0
  140.1290   75.6010  222.2780 C   0  0  0  0  0  0  0  0  0  0  0  0
  141.2860   74.8270  221.8720 N   0  0  0  0  0  0  0  0  0  0  0  0
  141.0840   73.4460  221.6220 C   0  0  0  0  0  0  0  0  0  0  0  0
  140.0440   73.0180  220.6880 C   0  0  0  0  0  0  0  0  0  0  0  0
  140.4210   73.1460  219.4370 O   0  0  0  0  0  0  0  0  0  0  0  0
  138.7730   72.5230  220.8750 N   0  0  0  0  0  0  0  0  0  0  0  0
  137.4200   73.0480  220.6220 C   0  0  0  0  0  0  0  0  0  0  0  0
  136.7200   72.7830  221.9500 C   0  0  2  0  0  0  0  0  0  0  0  0
  136.5030   73.9140  222.6950 O   0  0  0  0  0  0  0  0  0  0  0  0
  137.5790   71.7390  222.6480 C   0  0  0  0  0  0  0  0  0  0  0  0
  138.4180   71.2090  221.4760 C   0  0  2  0  0  0  0  0  0  0  0  0
  139.5710   70.4050  221.9270 C   0  0  0  0  0  0  0  0  0  0  0  0
  139.9220   70.8920  223.2140 O   0  0  0  0  0  0  0  0  0  0  0  0
  139.6930   69.9630  224.2070 C   0  0  0  0  0  0  0  0  0  0  0  0
  140.1680   70.5070  225.4980 C   0  0  0  0  0  0  0  0  0  0  0  0
  140.8900   71.6730  225.6250 C   0  0  0  0  0  0  0  0  0  0  0  0
  141.3000   72.1210  226.8630 C   0  0  0  0  0  0  0  0  0  0  0  0
  140.9750   71.3800  227.9760 C   0  0  0  0  0  0  0  0  0  0  0  0
  140.2560   70.2050  227.9050 C   0  0  0  0  0  0  0  0  0  0  0  0
  139.8580   69.7830  226.6480 C   0  0  0  0  0  0  0  0  0  0  0  0
  140.2400   77.0190  222.5530 C   0  0  0  0  0  0  0  0  0  0  0  0
  139.0690   77.7420  222.6440 C   0  0  0  0  0  0  0  0  0  0  0  0
  139.1600   79.1080  222.9090 C   0  0  0  0  0  0  0  0  0  0  0  0
  140.4040   79.7210  223.0760 C   0  0  0  0  0  0  0  0  0  0  0  0
  140.4820   81.0730  223.3370 C   0  0  0  0  0  0  0  0  0  0  0  0
  141.7390   81.6430  223.4950 C   0  0  0  0  0  0  0  0  0  0  0  0
  142.8660   80.8490  223.3890 C   0  0  0  0  0  0  0  0  0  0  0  0
  142.7860   79.4880  223.1260 C   0  0  0  0  0  0  0  0  0  0  0  0
  141.5360   78.9270  222.9690 C   0  0  0  0  0  0  0  0  0  0  0  0
  141.4420   77.6160  222.7150 N   0  0  0  0  0  0  0  0  0  0  0  0
  142.1990   75.3420  221.7900 H   0  0  0  0  0  0  0  0  0  0  0  0
  142.0365   73.0494  221.2406 H   0  0  0  0  0  0  0  0  0  0  0  0
  140.7289   73.0625  222.5899 H   0  0  0  0  0  0  0  0  0  0  0  0
  137.4457   74.1234  220.3920 H   0  0  0  0  0  0  0  0  0  0  0  0
  136.9202   72.5847  219.7585 H   0  0  0  0  0  0  0  0  0  0  0  0
  135.6956   72.4134  221.7952 H   0  0  0  0  0  0  0  0  0  0  0  0
  137.3400   74.2210  223.1310 H   0  0  0  0  0  0  0  0  0  0  0  0
  138.2126   72.1924  223.4245 H   0  0  0  0  0  0  0  0  0  0  0  0
  137.0055   70.9646  223.1785 H   0  0  0  0  0  0  0  0  0  0  0  0
  137.9289   70.5026  220.7891 H   0  0  0  0  0  0  0  0  0  0  0  0
  139.2938   69.3421  221.9853 H   0  0  0  0  0  0  0  0  0  0  0  0
  140.4142   70.4895  221.2256 H   0  0  0  0  0  0  0  0  0  0  0  0
  138.6157   69.7503  224.2710 H   0  0  0  0  0  0  0  0  0  0  0  0
  140.2328   69.0329  223.9758 H   0  0  0  0  0  0  0  0  0  0  0  0
  141.1431   72.2549  224.7265 H   0  0  0  0  0  0  0  0  0  0  0  0
  141.8760   73.0532  226.9590 H   0  0  0  0  0  0  0  0  0  0  0  0
  141.3020   71.7394  228.9629 H   0  0  0  0  0  0  0  0  0  0  0  0
  140.0094   69.6280  228.8085 H   0  0  0  0  0  0  0  0  0  0  0  0
  139.2814   68.8509  226.5542 H   0  0  0  0  0  0  0  0  0  0  0  0
  138.0916   77.2551  222.5114 H   0  0  0  0  0  0  0  0  0  0  0  0
  138.2423   79.7093  222.9874 H   0  0  0  0  0  0  0  0  0  0  0  0
  139.5715   81.6848  223.4181 H   0  0  0  0  0  0  0  0  0  0  0  0
  141.8371   82.7187  223.7030 H   0  0  0  0  0  0  0  0  0  0  0  0
  143.8566   81.3098  223.5170 H   0  0  0  0  0  0  0  0  0  0  0  0
  143.6950   78.8739  223.0451 H   0  0  0  0  0  0  0  0  0  0  0  0
  1  2  2  0
  2  3  1  0
  3  4  1  0
  4  5  1  0
  5  6  2  0
  5  7  1  0
  7  8  1  0
  8  9  1  0
  9 10  1  0
  9 11  1  0
 11 12  1  0
 12 13  1  0
 13 14  1  0
 14 15  1  0
 15 16  1  0
 16 17  2  0
 17 18  1  0
 18 19  2  0
 19 20  1  0
 20 21  2  0
  2 22  1  0
 22 23  2  0
 23 24  1  0
 24 25  2  0
 25 26  1  0
 26 27  2  0
 27 28  1  0
 28 29  2  0
 29 30  1  0
 30 31  2  0
 12  7  1  0
 21 16  1  0
 31 22  1  0
 30 25  1  0
  3 32  1  0
  4 33  1  0
  4 34  1  0
  8 35  1  0
  8 36  1  0
  9 37  1  6
 10 38  1  0
 11 39  1  0
 11 40  1  0
 12 41  1  6
 13 42  1  0
 13 43  1  0
 15 44  1  0
 15 45  1  0
 17 46  1  0
 18 47  1  0
 19 48  1  0
 20 49  1  0
 21 50  1  0
 23 51  1  0
 24 52  1  0
 26 53  1  0
 27 54  1  0
 28 55  1  0
 29 56  1  0
M  END
>  <smiles>  (42) 
O=C(NCC(=O)N1C[C@H](O)C[C@@H]1COCc1ccccc1)c1ccc2ccccc2n1

>  <score_type>  (42) 
oracle

>  <origin>  (42) 
autodockgpu

>  <m_score__min__energy>  (42) 
-9.1699999999999999

>  <m_primary>  (42) 
energy

>  <rmsd>  (42) 
7.948498758616114

>  <m_score__min__rmsd>  (42) 
7.948498758616114

>  <meeko>  (42) 
{"free_energy": -7.99, "intermolecular_energy": -10.68, "internal_energy": -2.56, "cluster_size": 16, "cluster_id": 2, "rank_in_cluster": 8}

>  <energy>  (42) 
-7.71

>  <cluster_rmsd>  (42) 
0.0

>  <cluster>  (42) 
4

$$$$

     RDKit          3D

 56 59  0  0  0  0  0  0  0  0999 V2000
  139.5470   75.1820  222.4240 O   0  0  0  0  0  0  0  0  0  0  0  0
  140.5910   75.7470  222.0120 C   0  0  0  0  0  0  0  0  0  0  0  0
  141.6360   74.8450  221.5700 N   0  0  0  0  0  0  0  0  0  0  0  0
  141.3660   73.4560  221.6500 C   0  0  0  0  0  0  0  0  0  0  0  0
  140.3890   72.8490  220.7460 C   0  0  0  0  0  0  0  0  0  0  0  0
  140.9480   72.4010  219.6450 O   0  0  0  0  0  0  0  0  0  0  0  0
  139.0260   72.6710  220.8330 N   0  0  0  0  0  0  0  0  0  0  0  0
  137.8610   73.5400  220.5930 C   0  0  0  0  0  0  0  0  0  0  0  0
  137.0380   73.3280  221.8580 C   0  0  2  0  0  0  0  0  0  0  0  0
  137.0600   74.3990  222.7160 O   0  0  0  0  0  0  0  0  0  0  0  0
  137.5720   72.0390  222.4670 C   0  0  0  0  0  0  0  0  0  0  0  0
  138.3250   71.4350  221.2730 C   0  0  2  0  0  0  0  0  0  0  0  0
  139.2170   70.3280  221.6710 C   0  0  0  0  0  0  0  0  0  0  0  0
  139.7340   70.6690  222.9490 O   0  0  0  0  0  0  0  0  0  0  0  0
  139.4300   69.7240  223.9070 C   0  0  0  0  0  0  0  0  0  0  0  0
  139.8730   70.2170  225.2300 C   0  0  0  0  0  0  0  0  0  0  0  0
  139.5710   69.5980  226.4240 C   0  0  0  0  0  0  0  0  0  0  0  0
  140.0180   70.1150  227.6220 C   0  0  0  0  0  0  0  0  0  0  0  0
  140.7740   71.2630  227.6060 C   0  0  0  0  0  0  0  0  0  0  0  0
  141.1040   71.9220  226.4400 C   0  0  0  0  0  0  0  0  0  0  0  0
  140.6410   71.3790  225.2540 C   0  0  0  0  0  0  0  0  0  0  0  0
  140.7780   77.1840  221.9660 C   0  0  0  0  0  0  0  0  0  0  0  0
  140.4030   77.8360  220.8090 C   0  0  0  0  0  0  0  0  0  0  0  0
  140.5770   79.2180  220.7500 C   0  0  0  0  0  0  0  0  0  0  0  0
  141.1150   79.9160  221.8330 C   0  0  0  0  0  0  0  0  0  0  0  0
  141.2830   81.2840  221.7620 C   0  0  0  0  0  0  0  0  0  0  0  0
  141.8220   81.9400  222.8620 C   0  0  0  0  0  0  0  0  0  0  0  0
  142.1720   81.2140  223.9850 C   0  0  0  0  0  0  0  0  0  0  0  0
  142.0020   79.8370  224.0540 C   0  0  0  0  0  0  0  0  0  0  0  0
  141.4680   79.1910  222.9600 C   0  0  0  0  0  0  0  0  0  0  0  0
  141.2980   77.8640  223.0120 N   0  0  0  0  0  0  0  0  0  0  0  0
  142.5250   75.2820  221.2190 H   0  0  0  0  0  0  0  0  0  0  0  0
  142.3208   72.9364  221.4814 H   0  0  0  0  0  0  0  0  0  0  0  0
  140.8988   73.3451  222.6397 H   0  0  0  0  0  0  0  0  0  0  0  0
  138.1633   74.5921  220.4851 H   0  0  0  0  0  0  0  0  0  0  0  0
  137.3168   73.3045  219.6665 H   0  0  0  0  0  0  0  0  0  0  0  0
  135.9659   73.2420  221.6273 H   0  0  0  0  0  0  0  0  0  0  0  0
  137.9700   74.5440  223.0840 H   0  0  0  0  0  0  0  0  0  0  0  0
  138.2491   72.2416  223.3099 H   0  0  0  0  0  0  0  0  0  0  0  0
  136.7960   71.3839  222.8897 H   0  0  0  0  0  0  0  0  0  0  0  0
  137.7202   70.9445  220.4961 H   0  0  0  0  0  0  0  0  0  0  0  0
  138.6519   69.3860  221.7283 H   0  0  0  0  0  0  0  0  0  0  0  0
  140.0256   70.1848  220.9391 H   0  0  0  0  0  0  0  0  0  0  0  0
  138.3437   69.5516  223.9228 H   0  0  0  0  0  0  0  0  0  0  0  0
  139.9429   68.7796  223.6723 H   0  0  0  0  0  0  0  0  0  0  0  0
  138.9655   68.6796  226.4213 H   0  0  0  0  0  0  0  0  0  0  0  0
  139.7741   69.6180  228.5725 H   0  0  0  0  0  0  0  0  0  0  0  0
  141.1305   71.6730  228.5625 H   0  0  0  0  0  0  0  0  0  0  0  0
  141.7095   72.8402  226.4522 H   0  0  0  0  0  0  0  0  0  0  0  0
  140.8860   71.8784  224.3050 H   0  0  0  0  0  0  0  0  0  0  0  0
  139.9794   77.2817  219.9585 H   0  0  0  0  0  0  0  0  0  0  0  0
  140.2873   79.7644  219.8404 H   0  0  0  0  0  0  0  0  0  0  0  0
  140.9974   81.8410  220.8574 H   0  0  0  0  0  0  0  0  0  0  0  0
  141.9692   83.0299  222.8393 H   0  0  0  0  0  0  0  0  0  0  0  0
  142.5981   81.7427  224.8504 H   0  0  0  0  0  0  0  0  0  0  0  0
  142.2859   79.2774  224.9574 H   0  0  0  0  0  0  0  0  0  0  0  0
  1  2  2  0
  2  3  1  0
  3  4  1  0
  4  5  1  0
  5  6  2  0
  5  7  1  0
  7  8  1  0
  8  9  1  0
  9 10  1  0
  9 11  1  0
 11 12  1  0
 12 13  1  0
 13 14  1  0
 14 15  1  0
 15 16  1  0
 16 17  2  0
 17 18  1  0
 18 19  2  0
 19 20  1  0
 20 21  2  0
  2 22  1  0
 22 23  2  0
 23 24  1  0
 24 25  2  0
 25 26  1  0
 26 27  2  0
 27 28  1  0
 28 29  2  0
 29 30  1  0
 30 31  2  0
 12  7  1  0
 21 16  1  0
 31 22  1  0
 30 25  1  0
  3 32  1  0
  4 33  1  0
  4 34  1  0
  8 35  1  0
  8 36  1  0
  9 37  1  6
 10 38  1  0
 11 39  1  0
 11 40  1  0
 12 41  1  6
 13 42  1  0
 13 43  1  0
 15 44  1  0
 15 45  1  0
 17 46  1  0
 18 47  1  0
 19 48  1  0
 20 49  1  0
 21 50  1  0
 23 51  1  0
 24 52  1  0
 26 53  1  0
 27 54  1  0
 28 55  1  0
 29 56  1  0
M  END
>  <smiles>  (43) 
O=C(NCC(=O)N1C[C@H](O)C[C@@H]1COCc1ccccc1)c1ccc2ccccc2n1

>  <score_type>  (43) 
oracle

>  <origin>  (43) 
autodockgpu

>  <m_score__min__energy>  (43) 
-9.1699999999999999

>  <m_primary>  (43) 
energy

>  <rmsd>  (43) 
8.121548017331055

>  <m_score__min__rmsd>  (43) 
8.121548017331055

>  <meeko>  (43) 
{"free_energy": -7.55, "intermolecular_energy": -10.24, "internal_energy": -2.48, "cluster_size": 16, "cluster_id": 2, "rank_in_cluster": 12}

>  <energy>  (43) 
-7.56

>  <cluster_rmsd>  (43) 
1.7

>  <cluster>  (43) 
4

$$$$

     RDKit          3D

 56 59  0  0  0  0  0  0  0  0999 V2000
  138.5740   75.6020  222.0590 O   0  0  0  0  0  0  0  0  0  0  0  0
  139.7300   76.0930  222.0310 C   0  0  0  0  0  0  0  0  0  0  0  0
  140.7520   75.2100  221.5050 N   0  0  0  0  0  0  0  0  0  0  0  0
  140.3380   73.9200  221.0880 C   0  0  0  0  0  0  0  0  0  0  0  0
  139.7150   73.0080  222.0470 C   0  0  0  0  0  0  0  0  0  0  0  0
  140.4770   72.7990  223.0960 O   0  0  0  0  0  0  0  0  0  0  0  0
  138.5100   72.3420  222.0490 N   0  0  0  0  0  0  0  0  0  0  0  0
  137.1030   72.7660  221.9480 C   0  0  0  0  0  0  0  0  0  0  0  0
  136.4610   72.0280  223.1160 C   0  0  2  0  0  0  0  0  0  0  0  0
  136.1330   72.8410  224.1720 O   0  0  0  0  0  0  0  0  0  0  0  0
  137.4420   70.9200  223.4720 C   0  0  0  0  0  0  0  0  0  0  0  0
  138.3130   70.8750  222.2080 C   0  0  2  0  0  0  0  0  0  0  0  0
  139.5550   70.1040  222.4060 C   0  0  0  0  0  0  0  0  0  0  0  0
  140.1000   70.5310  223.6460 O   0  0  0  0  0  0  0  0  0  0  0  0
  139.9450   69.5880  224.6410 C   0  0  0  0  0  0  0  0  0  0  0  0
  140.1700   70.2290  225.9550 C   0  0  0  0  0  0  0  0  0  0  0  0
  139.7220   69.7130  227.1520 C   0  0  0  0  0  0  0  0  0  0  0  0
  139.9690   70.3650  228.3410 C   0  0  0  0  0  0  0  0  0  0  0  0
  140.6740   71.5460  228.3140 C   0  0  0  0  0  0  0  0  0  0  0  0
  141.1440   72.1060  227.1450 C   0  0  0  0  0  0  0  0  0  0  0  0
  140.8810   71.4280  225.9680 C   0  0  0  0  0  0  0  0  0  0  0  0
  140.0610   77.4310  222.4810 C   0  0  0  0  0  0  0  0  0  0  0  0
  139.0150   78.2650  222.8140 C   0  0  0  0  0  0  0  0  0  0  0  0
  139.3170   79.5550  223.2470 C   0  0  0  0  0  0  0  0  0  0  0  0
  140.6430   79.9840  223.3400 C   0  0  0  0  0  0  0  0  0  0  0  0
  140.9310   81.2630  223.7700 C   0  0  0  0  0  0  0  0  0  0  0  0
  142.2630   81.6490  223.8470 C   0  0  0  0  0  0  0  0  0  0  0  0
  143.2540   80.7530  223.4950 C   0  0  0  0  0  0  0  0  0  0  0  0
  142.9630   79.4650  223.0620 C   0  0  0  0  0  0  0  0  0  0  0  0
  141.6400   79.0870  222.9870 C   0  0  0  0  0  0  0  0  0  0  0  0
  141.3430   77.8500  222.5710 N   0  0  0  0  0  0  0  0  0  0  0  0
  141.7340   75.5850  221.4680 H   0  0  0  0  0  0  0  0  0  0  0  0
  139.6145   74.0665  220.2725 H   0  0  0  0  0  0  0  0  0  0  0  0
  141.2846   73.4181  220.8388 H   0  0  0  0  0  0  0  0  0  0  0  0
  137.0054   73.8557  222.0624 H   0  0  0  0  0  0  0  0  0  0  0  0
  136.6420   72.5399  220.9752 H   0  0  0  0  0  0  0  0  0  0  0  0
  135.4810   71.6146  222.8355 H   0  0  0  0  0  0  0  0  0  0  0  0
  136.9140   73.3820  224.4610 H   0  0  0  0  0  0  0  0  0  0  0  0
  138.0356   71.1776  224.3616 H   0  0  0  0  0  0  0  0  0  0  0  0
  136.9669   69.9613  223.7272 H   0  0  0  0  0  0  0  0  0  0  0  0
  137.8920   70.3661  221.3284 H   0  0  0  0  0  0  0  0  0  0  0  0
  139.3329   69.0272  222.4390 H   0  0  0  0  0  0  0  0  0  0  0  0
  140.2632   70.2710  221.5811 H   0  0  0  0  0  0  0  0  0  0  0  0
  138.9260   69.1756  224.6021 H   0  0  0  0  0  0  0  0  0  0  0  0
  140.6710   68.7743  224.4966 H   0  0  0  0  0  0  0  0  0  0  0  0
  139.1595   68.7677  227.1585 H   0  0  0  0  0  0  0  0  0  0  0  0
  139.6092   69.9488  229.2935 H   0  0  0  0  0  0  0  0  0  0  0  0
  140.8708   72.0647  229.2638 H   0  0  0  0  0  0  0  0  0  0  0  0
  141.7047   73.0524  227.1480 H   0  0  0  0  0  0  0  0  0  0  0  0
  141.2426   71.8462  225.0170 H   0  0  0  0  0  0  0  0  0  0  0  0
  137.9723   77.9224  222.7401 H   0  0  0  0  0  0  0  0  0  0  0  0
  138.5024   80.2425  223.5184 H   0  0  0  0  0  0  0  0  0  0  0  0
  140.1255   81.9598  224.0451 H   0  0  0  0  0  0  0  0  0  0  0  0
  142.5272   82.6615  224.1860 H   0  0  0  0  0  0  0  0  0  0  0  0
  144.3057   81.0689  223.5595 H   0  0  0  0  0  0  0  0  0  0  0  0
  143.7668   78.7663  222.7867 H   0  0  0  0  0  0  0  0  0  0  0  0
  1  2  2  0
  2  3  1  0
  3  4  1  0
  4  5  1  0
  5  6  2  0
  5  7  1  0
  7  8  1  0
  8  9  1  0
  9 10  1  0
  9 11  1  0
 11 12  1  0
 12 13  1  0
 13 14  1  0
 14 15  1  0
 15 16  1  0
 16 17  2  0
 17 18  1  0
 18 19  2  0
 19 20  1  0
 20 21  2  0
  2 22  1  0
 22 23  2  0
 23 24  1  0
 24 25  2  0
 25 26  1  0
 26 27  2  0
 27 28  1  0
 28 29  2  0
 29 30  1  0
 30 31  2  0
 12  7  1  0
 21 16  1  0
 31 22  1  0
 30 25  1  0
  3 32  1  0
  4 33  1  0
  4 34  1  0
  8 35  1  0
  8 36  1  0
  9 37  1  6
 10 38  1  0
 11 39  1  0
 11 40  1  0
 12 41  1  6
 13 42  1  0
 13 43  1  0
 15 44  1  0
 15 45  1  0
 17 46  1  0
 18 47  1  0
 19 48  1  0
 20 49  1  0
 21 50  1  0
 23 51  1  0
 24 52  1  0
 26 53  1  0
 27 54  1  0
 28 55  1  0
 29 56  1  0
M  END
>  <smiles>  (44) 
O=C(NCC(=O)N1C[C@H](O)C[C@@H]1COCc1ccccc1)c1ccc2ccccc2n1

>  <score_type>  (44) 
oracle

>  <origin>  (44) 
autodockgpu

>  <m_score__min__energy>  (44) 
-9.1699999999999999

>  <m_primary>  (44) 
energy

>  <rmsd>  (44) 
8.286379566158564

>  <m_score__min__rmsd>  (44) 
8.286379566158564

>  <meeko>  (44) 
{"free_energy": -8.94, "intermolecular_energy": -11.62, "internal_energy": -1.63, "cluster_size": 16, "cluster_id": 2, "rank_in_cluster": 2}

>  <energy>  (44) 
-6.9

>  <cluster_rmsd>  (44) 
1.65

>  <cluster>  (44) 
4

$$$$

     RDKit          3D

 56 59  0  0  0  0  0  0  0  0999 V2000
  140.5240   72.8650  222.7130 O   0  0  0  0  0  0  0  0  0  0  0  0
  140.7430   73.5330  221.6710 C   0  0  0  0  0  0  0  0  0  0  0  0
  140.9460   72.7410  220.4740 N   0  0  0  0  0  0  0  0  0  0  0  0
  140.8760   71.3320  220.6120 C   0  0  0  0  0  0  0  0  0  0  0  0
  139.5800   70.6800  220.8000 C   0  0  0  0  0  0  0  0  0  0  0  0
  139.6200   69.4050  220.4890 O   0  0  0  0  0  0  0  0  0  0  0  0
  138.3580   71.1480  221.2270 N   0  0  0  0  0  0  0  0  0  0  0  0
  137.4800   72.2550  220.8110 C   0  0  0  0  0  0  0  0  0  0  0  0
  137.1660   72.9310  222.1400 C   0  0  2  0  0  0  0  0  0  0  0  0
  137.8050   74.1340  222.3140 O   0  0  0  0  0  0  0  0  0  0  0  0
  137.5040   71.8940  223.2010 C   0  0  0  0  0  0  0  0  0  0  0  0
  137.5550   70.6110  222.3600 C   0  0  2  0  0  0  0  0  0  0  0  0
  138.1830   69.4880  223.0830 C   0  0  0  0  0  0  0  0  0  0  0  0
  139.2150   70.0490  223.8800 O   0  0  0  0  0  0  0  0  0  0  0  0
  139.4890   69.2870  224.9960 C   0  0  0  0  0  0  0  0  0  0  0  0
  140.0110   70.1650  226.0670 C   0  0  0  0  0  0  0  0  0  0  0  0
  139.6910   70.0290  227.4000 C   0  0  0  0  0  0  0  0  0  0  0  0
  140.2150   70.8860  228.3450 C   0  0  0  0  0  0  0  0  0  0  0  0
  141.0680   71.8830  227.9330 C   0  0  0  0  0  0  0  0  0  0  0  0
  141.4210   72.0630  226.6120 C   0  0  0  0  0  0  0  0  0  0  0  0
  140.8780   71.1870  225.6870 C   0  0  0  0  0  0  0  0  0  0  0  0
  140.7950   74.9810  221.6240 C   0  0  0  0  0  0  0  0  0  0  0  0
  141.7560   75.5550  220.8190 C   0  0  0  0  0  0  0  0  0  0  0  0
  141.8190   76.9470  220.7640 C   0  0  0  0  0  0  0  0  0  0  0  0
  140.9310   77.7310  221.5040 C   0  0  0  0  0  0  0  0  0  0  0  0
  141.0030   79.1080  221.4420 C   0  0  0  0  0  0  0  0  0  0  0  0
  140.1010   79.8490  222.1940 C   0  0  0  0  0  0  0  0  0  0  0  0
  139.1660   79.1970  222.9770 C   0  0  0  0  0  0  0  0  0  0  0  0
  139.0950   77.8110  223.0380 C   0  0  0  0  0  0  0  0  0  0  0  0
  139.9930   77.0790  222.2900 C   0  0  0  0  0  0  0  0  0  0  0  0
  139.9370   75.7430  222.3390 N   0  0  0  0  0  0  0  0  0  0  0  0
  141.1330   73.2650  219.5820 H   0  0  0  0  0  0  0  0  0  0  0  0
  141.3195   70.9012  219.7022 H   0  0  0  0  0  0  0  0  0  0  0  0
  141.3944   71.1446  221.5639 H   0  0  0  0  0  0  0  0  0  0  0  0
  138.0002   72.9417  220.1270 H   0  0  0  0  0  0  0  0  0  0  0  0
  136.5865   71.9275  220.2593 H   0  0  0  0  0  0  0  0  0  0  0  0
  136.1078   73.2260  222.1971 H   0  0  0  0  0  0  0  0  0  0  0  0
  138.6850   74.0100  222.7550 H   0  0  0  0  0  0  0  0  0  0  0  0
  138.4742   72.1039  223.6750 H   0  0  0  0  0  0  0  0  0  0  0  0
  136.7915   71.8565  224.0382 H   0  0  0  0  0  0  0  0  0  0  0  0
  136.5928   70.1611  222.0741 H   0  0  0  0  0  0  0  0  0  0  0  0
  137.4415   68.9844  223.7206 H   0  0  0  0  0  0  0  0  0  0  0  0
  138.5828   68.7386  222.3840 H   0  0  0  0  0  0  0  0  0  0  0  0
  138.5679   68.7940  225.3404 H   0  0  0  0  0  0  0  0  0  0  0  0
  140.2387   68.5216  224.7466 H   0  0  0  0  0  0  0  0  0  0  0  0
  139.0083   69.2260  227.7149 H   0  0  0  0  0  0  0  0  0  0  0  0
  139.9556   70.7742  229.4081 H   0  0  0  0  0  0  0  0  0  0  0  0
  141.4859   72.5650  228.6882 H   0  0  0  0  0  0  0  0  0  0  0  0
  142.1050   72.8684  226.3060 H   0  0  0  0  0  0  0  0  0  0  0  0
  141.1381   71.3012  224.6243 H   0  0  0  0  0  0  0  0  0  0  0  0
  142.4525   74.9333  220.2373 H   0  0  0  0  0  0  0  0  0  0  0  0
  142.5762   77.4328  220.1310 H   0  0  0  0  0  0  0  0  0  0  0  0
  141.7557   79.6057  220.8129 H   0  0  0  0  0  0  0  0  0  0  0  0
  140.1300   80.9483  222.1670 H   0  0  0  0  0  0  0  0  0  0  0  0
  138.4570   79.7940  223.5695 H   0  0  0  0  0  0  0  0  0  0  0  0
  138.3429   77.3109  223.6659 H   0  0  0  0  0  0  0  0  0  0  0  0
  1  2  2  0
  2  3  1  0
  3  4  1  0
  4  5  1  0
  5  6  2  0
  5  7  1  0
  7  8  1  0
  8  9  1  0
  9 10  1  0
  9 11  1  0
 11 12  1  0
 12 13  1  0
 13 14  1  0
 14 15  1  0
 15 16  1  0
 16 17  2  0
 17 18  1  0
 18 19  2  0
 19 20  1  0
 20 21  2  0
  2 22  1  0
 22 23  2  0
 23 24  1  0
 24 25  2  0
 25 26  1  0
 26 27  2  0
 27 28  1  0
 28 29  2  0
 29 30  1  0
 30 31  2  0
 12  7  1  0
 21 16  1  0
 31 22  1  0
 30 25  1  0
  3 32  1  0
  4 33  1  0
  4 34  1  0
  8 35  1  0
  8 36  1  0
  9 37  1  6
 10 38  1  0
 11 39  1  0
 11 40  1  0
 12 41  1  6
 13 42  1  0
 13 43  1  0
 15 44  1  0
 15 45  1  0
 17 46  1  0
 18 47  1  0
 19 48  1  0
 20 49  1  0
 21 50  1  0
 23 51  1  0
 24 52  1  0
 26 53  1  0
 27 54  1  0
 28 55  1  0
 29 56  1  0
M  END
>  <smiles>  (45) 
O=C(NCC(=O)N1C[C@H](O)C[C@@H]1COCc1ccccc1)c1ccc2ccccc2n1

>  <score_type>  (45) 
oracle

>  <origin>  (45) 
autodockgpu

>  <m_score__min__energy>  (45) 
-9.1699999999999999

>  <m_primary>  (45) 
energy

>  <rmsd>  (45) 
7.481395688742421

>  <m_score__min__rmsd>  (45) 
7.481395688742421

>  <meeko>  (45) 
{"free_energy": -6.83, "intermolecular_energy": -9.52, "internal_energy": -3.48, "cluster_size": 16, "cluster_id": 2, "rank_in_cluster": 16}

>  <energy>  (45) 
-6.9

>  <cluster_rmsd>  (45) 
1.81

>  <cluster>  (45) 
4

$$$$

     RDKit          3D

 56 59  0  0  0  0  0  0  0  0999 V2000
  138.9670   72.8700  222.0870 O   0  0  0  0  0  0  0  0  0  0  0  0
  140.0090   72.3790  222.5900 C   0  0  0  0  0  0  0  0  0  0  0  0
  141.2380   72.7430  221.9140 N   0  0  0  0  0  0  0  0  0  0  0  0
  141.1270   73.5950  220.7860 C   0  0  0  0  0  0  0  0  0  0  0  0
  141.0620   75.0440  220.9690 C   0  0  0  0  0  0  0  0  0  0  0  0
  142.1530   75.6440  220.5510 O   0  0  0  0  0  0  0  0  0  0  0  0
  140.0940   75.8730  221.4910 N   0  0  0  0  0  0  0  0  0  0  0  0
  139.3000   75.8680  222.7320 C   0  0  0  0  0  0  0  0  0  0  0  0
  137.8840   76.0760  222.2060 C   0  0  2  0  0  0  0  0  0  0  0  0
  137.1020   74.9500  222.2650 O   0  0  0  0  0  0  0  0  0  0  0  0
  138.0620   76.6330  220.8010 C   0  0  0  0  0  0  0  0  0  0  0  0
  139.5280   77.0860  220.8420 C   0  0  2  0  0  0  0  0  0  0  0  0
  140.0660   77.3740  219.4980 C   0  0  0  0  0  0  0  0  0  0  0  0
  140.5280   78.7170  219.5290 O   0  0  0  0  0  0  0  0  0  0  0  0
  141.8250   78.8160  219.9880 C   0  0  0  0  0  0  0  0  0  0  0  0
  141.8150   79.4060  221.3450 C   0  0  0  0  0  0  0  0  0  0  0  0
  141.8160   78.6680  222.5080 C   0  0  0  0  0  0  0  0  0  0  0  0
  141.8060   79.2870  223.7400 C   0  0  0  0  0  0  0  0  0  0  0  0
  141.7960   80.6610  223.7900 C   0  0  0  0  0  0  0  0  0  0  0  0
  141.7950   81.4480  222.6570 C   0  0  0  0  0  0  0  0  0  0  0  0
  141.8040   80.7970  221.4350 C   0  0  0  0  0  0  0  0  0  0  0  0
  140.0250   71.5140  223.7520 C   0  0  0  0  0  0  0  0  0  0  0  0
  139.5030   70.2460  223.6070 C   0  0  0  0  0  0  0  0  0  0  0  0
  139.5120   69.4020  224.7170 C   0  0  0  0  0  0  0  0  0  0  0  0
  140.0370   69.8330  225.9370 C   0  0  0  0  0  0  0  0  0  0  0  0
  140.0400   68.9900  227.0290 C   0  0  0  0  0  0  0  0  0  0  0  0
  140.5710   69.4600  228.2230 C   0  0  0  0  0  0  0  0  0  0  0  0
  141.0760   70.7450  228.2870 C   0  0  0  0  0  0  0  0  0  0  0  0
  141.0720   71.5930  227.1870 C   0  0  0  0  0  0  0  0  0  0  0  0
  140.5430   71.1230  226.0040 C   0  0  0  0  0  0  0  0  0  0  0  0
  140.5320   71.9280  224.9350 N   0  0  0  0  0  0  0  0  0  0  0  0
  142.1310   72.3500  222.3050 H   0  0  0  0  0  0  0  0  0  0  0  0
  142.0009   73.3941  220.1489 H   0  0  0  0  0  0  0  0  0  0  0  0
  140.1363   73.3466  220.3776 H   0  0  0  0  0  0  0  0  0  0  0  0
  139.3924   74.9081  223.2612 H   0  0  0  0  0  0  0  0  0  0  0  0
  139.6165   76.6266  223.4630 H   0  0  0  0  0  0  0  0  0  0  0  0
  137.3204   76.7762  222.8401 H   0  0  0  0  0  0  0  0  0  0  0  0
  137.5390   74.2390  222.8020 H   0  0  0  0  0  0  0  0  0  0  0  0
  137.9009   75.8582  220.0370 H   0  0  0  0  0  0  0  0  0  0  0  0
  137.3509   77.4301  220.5384 H   0  0  0  0  0  0  0  0  0  0  0  0
  139.7451   78.0320  221.3597 H   0  0  0  0  0  0  0  0  0  0  0  0
  140.8969   76.6913  219.2667 H   0  0  0  0  0  0  0  0  0  0  0  0
  139.2976   77.2349  218.7232 H   0  0  0  0  0  0  0  0  0  0  0  0
  142.2800   77.8152  220.0249 H   0  0  0  0  0  0  0  0  0  0  0  0
  142.4100   79.4553  219.3104 H   0  0  0  0  0  0  0  0  0  0  0  0
  141.8249   77.5694  222.4531 H   0  0  0  0  0  0  0  0  0  0  0  0
  141.8060   78.6927  224.6656 H   0  0  0  0  0  0  0  0  0  0  0  0
  141.7885   81.1529  224.7738 H   0  0  0  0  0  0  0  0  0  0  0  0
  141.7874   82.5461  222.7216 H   0  0  0  0  0  0  0  0  0  0  0  0
  141.8024   81.3933  220.5107 H   0  0  0  0  0  0  0  0  0  0  0  0
  139.0915   69.9100  222.6438 H   0  0  0  0  0  0  0  0  0  0  0  0
  139.1009   68.3854  224.6306 H   0  0  0  0  0  0  0  0  0  0  0  0
  139.6320   67.9711  226.9558 H   0  0  0  0  0  0  0  0  0  0  0  0
  140.5896   68.8134  229.1127 H   0  0  0  0  0  0  0  0  0  0  0  0
  141.4938   71.1071  229.2380 H   0  0  0  0  0  0  0  0  0  0  0  0
  141.4799   72.6121  227.2579 H   0  0  0  0  0  0  0  0  0  0  0  0
  1  2  2  0
  2  3  1  0
  3  4  1  0
  4  5  1  0
  5  6  2  0
  5  7  1  0
  7  8  1  0
  8  9  1  0
  9 10  1  0
  9 11  1  0
 11 12  1  0
 12 13  1  0
 13 14  1  0
 14 15  1  0
 15 16  1  0
 16 17  2  0
 17 18  1  0
 18 19  2  0
 19 20  1  0
 20 21  2  0
  2 22  1  0
 22 23  2  0
 23 24  1  0
 24 25  2  0
 25 26  1  0
 26 27  2  0
 27 28  1  0
 28 29  2  0
 29 30  1  0
 30 31  2  0
 12  7  1  0
 21 16  1  0
 31 22  1  0
 30 25  1  0
  3 32  1  0
  4 33  1  0
  4 34  1  0
  8 35  1  0
  8 36  1  0
  9 37  1  1
 10 38  1  0
 11 39  1  0
 11 40  1  0
 12 41  1  1
 13 42  1  0
 13 43  1  0
 15 44  1  0
 15 45  1  0
 17 46  1  0
 18 47  1  0
 19 48  1  0
 20 49  1  0
 21 50  1  0
 23 51  1  0
 24 52  1  0
 26 53  1  0
 27 54  1  0
 28 55  1  0
 29 56  1  0
M  END
>  <smiles>  (46) 
O=C(NCC(=O)N1C[C@H](O)C[C@@H]1COCc1ccccc1)c1ccc2ccccc2n1

>  <score_type>  (46) 
oracle

>  <origin>  (46) 
autodockgpu

>  <m_score__min__energy>  (46) 
-9.1699999999999999

>  <m_primary>  (46) 
energy

>  <rmsd>  (46) 
2.830993071199867

>  <m_score__min__rmsd>  (46) 
2.830993071199867

>  <meeko>  (46) 
{"free_energy": -7.56, "intermolecular_energy": -10.24, "internal_energy": -2.59, "cluster_size": 24, "cluster_id": 1, "rank_in_cluster": 20}

>  <energy>  (46) 
-7.7

>  <cluster_rmsd>  (46) 
0.0

>  <cluster>  (46) 
5

$$$$

     RDKit          3D

 56 59  0  0  0  0  0  0  0  0999 V2000
  138.9710   72.9010  221.7410 O   0  0  0  0  0  0  0  0  0  0  0  0
  139.9670   72.4610  222.3680 C   0  0  0  0  0  0  0  0  0  0  0  0
  141.2500   72.8790  221.8390 N   0  0  0  0  0  0  0  0  0  0  0  0
  141.2350   73.7200  220.6980 C   0  0  0  0  0  0  0  0  0  0  0  0
  141.1600   75.1720  220.8620 C   0  0  0  0  0  0  0  0  0  0  0  0
  142.2140   75.7790  220.3670 O   0  0  0  0  0  0  0  0  0  0  0  0
  140.2130   75.9960  221.4280 N   0  0  0  0  0  0  0  0  0  0  0  0
  139.4980   76.0030  222.7160 C   0  0  0  0  0  0  0  0  0  0  0  0
  138.0500   76.1800  222.2770 C   0  0  2  0  0  0  0  0  0  0  0  0
  137.2900   75.0450  222.4050 O   0  0  0  0  0  0  0  0  0  0  0  0
  138.1300   76.7130  220.8540 C   0  0  0  0  0  0  0  0  0  0  0  0
  139.5890   77.1880  220.7940 C   0  0  2  0  0  0  0  0  0  0  0  0
  140.0370   77.4590  219.4150 C   0  0  0  0  0  0  0  0  0  0  0  0
  140.4870   78.8050  219.3950 O   0  0  0  0  0  0  0  0  0  0  0  0
  141.7880   78.9310  219.8370 C   0  0  0  0  0  0  0  0  0  0  0  0
  141.7880   79.5930  221.1600 C   0  0  0  0  0  0  0  0  0  0  0  0
  142.0920   78.9550  222.3420 C   0  0  0  0  0  0  0  0  0  0  0  0
  142.0720   79.6360  223.5400 C   0  0  0  0  0  0  0  0  0  0  0  0
  141.7430   80.9720  223.5370 C   0  0  0  0  0  0  0  0  0  0  0  0
  141.4300   81.6590  222.3830 C   0  0  0  0  0  0  0  0  0  0  0  0
  141.4590   80.9470  221.1960 C   0  0  0  0  0  0  0  0  0  0  0  0
  139.8850   71.6030  223.5330 C   0  0  0  0  0  0  0  0  0  0  0  0
  139.1240   70.4570  223.4250 C   0  0  0  0  0  0  0  0  0  0  0  0
  139.0360   69.6210  224.5370 C   0  0  0  0  0  0  0  0  0  0  0  0
  139.7010   69.9400  225.7240 C   0  0  0  0  0  0  0  0  0  0  0  0
  139.6060   69.1050  226.8180 C   0  0  0  0  0  0  0  0  0  0  0  0
  140.2820   69.4600  227.9780 C   0  0  0  0  0  0  0  0  0  0  0  0
  141.0240   70.6260  228.0060 C   0  0  0  0  0  0  0  0  0  0  0  0
  141.1190   71.4650  226.9030 C   0  0  0  0  0  0  0  0  0  0  0  0
  140.4450   71.1090  225.7540 C   0  0  0  0  0  0  0  0  0  0  0  0
  140.5260   71.9080  224.6830 N   0  0  0  0  0  0  0  0  0  0  0  0
  142.1070   72.5300  222.3380 H   0  0  0  0  0  0  0  0  0  0  0  0
  142.1576   73.5108  220.1368 H   0  0  0  0  0  0  0  0  0  0  0  0
  140.2806   73.4702  220.2115 H   0  0  0  0  0  0  0  0  0  0  0  0
  139.6384   75.0548  223.2557 H   0  0  0  0  0  0  0  0  0  0  0  0
  139.8474   76.7801  223.4117 H   0  0  0  0  0  0  0  0  0  0  0  0
  137.5173   76.8836  222.9337 H   0  0  0  0  0  0  0  0  0  0  0  0
  137.8190   74.3040  222.8010 H   0  0  0  0  0  0  0  0  0  0  0  0
  137.9332   75.9217  220.1157 H   0  0  0  0  0  0  0  0  0  0  0  0
  137.3913   77.4946  220.6228 H   0  0  0  0  0  0  0  0  0  0  0  0
  139.8237   78.1467  221.2796 H   0  0  0  0  0  0  0  0  0  0  0  0
  140.8579   76.7797  219.1416 H   0  0  0  0  0  0  0  0  0  0  0  0
  139.2218   77.3012  218.6935 H   0  0  0  0  0  0  0  0  0  0  0  0
  142.2456   77.9345  219.9238 H   0  0  0  0  0  0  0  0  0  0  0  0
  142.3658   79.5339  219.1210 H   0  0  0  0  0  0  0  0  0  0  0  0
  142.3545   77.8868  222.3297 H   0  0  0  0  0  0  0  0  0  0  0  0
  142.3146   79.1210  224.4812 H   0  0  0  0  0  0  0  0  0  0  0  0
  141.7291   81.5141  224.4940 H   0  0  0  0  0  0  0  0  0  0  0  0
  141.1684   82.7272  222.4047 H   0  0  0  0  0  0  0  0  0  0  0  0
  141.2158   81.4638  220.2559 H   0  0  0  0  0  0  0  0  0  0  0  0
  138.6020   70.2103  222.4887 H   0  0  0  0  0  0  0  0  0  0  0  0
  138.4367   68.7004  224.4796 H   0  0  0  0  0  0  0  0  0  0  0  0
  139.0100   68.1816  226.7727 H   0  0  0  0  0  0  0  0  0  0  0  0
  140.2273   68.8173  228.8690 H   0  0  0  0  0  0  0  0  0  0  0  0
  141.5555   70.8977  228.9300 H   0  0  0  0  0  0  0  0  0  0  0  0
  141.7156   72.3882  226.9450 H   0  0  0  0  0  0  0  0  0  0  0  0
  1  2  2  0
  2  3  1  0
  3  4  1  0
  4  5  1  0
  5  6  2  0
  5  7  1  0
  7  8  1  0
  8  9  1  0
  9 10  1  0
  9 11  1  0
 11 12  1  0
 12 13  1  0
 13 14  1  0
 14 15  1  0
 15 16  1  0
 16 17  2  0
 17 18  1  0
 18 19  2  0
 19 20  1  0
 20 21  2  0
  2 22  1  0
 22 23  2  0
 23 24  1  0
 24 25  2  0
 25 26  1  0
 26 27  2  0
 27 28  1  0
 28 29  2  0
 29 30  1  0
 30 31  2  0
 12  7  1  0
 21 16  1  0
 31 22  1  0
 30 25  1  0
  3 32  1  0
  4 33  1  0
  4 34  1  0
  8 35  1  0
  8 36  1  0
  9 37  1  1
 10 38  1  0
 11 39  1  0
 11 40  1  0
 12 41  1  1
 13 42  1  0
 13 43  1  0
 15 44  1  0
 15 45  1  0
 17 46  1  0
 18 47  1  0
 19 48  1  0
 20 49  1  0
 21 50  1  0
 23 51  1  0
 24 52  1  0
 26 53  1  0
 27 54  1  0
 28 55  1  0
 29 56  1  0
M  END
>  <smiles>  (47) 
O=C(NCC(=O)N1C[C@H](O)C[C@@H]1COCc1ccccc1)c1ccc2ccccc2n1

>  <score_type>  (47) 
oracle

>  <origin>  (47) 
autodockgpu

>  <m_score__min__energy>  (47) 
-9.1699999999999999

>  <m_primary>  (47) 
energy

>  <rmsd>  (47) 
2.8528553087764745

>  <m_score__min__rmsd>  (47) 
2.8528553087764745

>  <meeko>  (47) 
{"free_energy": -7.39, "intermolecular_energy": -10.08, "internal_energy": -2.69, "cluster_size": 24, "cluster_id": 1, "rank_in_cluster": 22}

>  <energy>  (47) 
-7.34

>  <cluster_rmsd>  (47) 
0.69

>  <cluster>  (47) 
5

$$$$

     RDKit          3D

 56 59  0  0  0  0  0  0  0  0999 V2000
  140.0260   71.8510  222.8850 O   0  0  0  0  0  0  0  0  0  0  0  0
  140.4060   72.3120  221.7800 C   0  0  0  0  0  0  0  0  0  0  0  0
  140.4830   71.3380  220.7090 N   0  0  0  0  0  0  0  0  0  0  0  0
  140.1260   70.0030  221.0250 C   0  0  0  0  0  0  0  0  0  0  0  0
  138.7200   69.6490  221.2200 C   0  0  0  0  0  0  0  0  0  0  0  0
  138.4640   68.4190  220.8370 O   0  0  0  0  0  0  0  0  0  0  0  0
  137.6440   70.3520  221.7130 N   0  0  0  0  0  0  0  0  0  0  0  0
  136.8620   71.5030  221.2300 C   0  0  0  0  0  0  0  0  0  0  0  0
  136.8370   72.4100  222.4540 C   0  0  2  0  0  0  0  0  0  0  0  0
  137.6410   73.5170  222.3380 O   0  0  0  0  0  0  0  0  0  0  0  0
  137.1960   71.5060  223.6240 C   0  0  0  0  0  0  0  0  0  0  0  0
  136.9590   70.1180  223.0130 C   0  0  2  0  0  0  0  0  0  0  0  0
  137.5400   69.0350  223.8310 C   0  0  0  0  0  0  0  0  0  0  0  0
  138.1740   69.6620  224.9360 O   0  0  0  0  0  0  0  0  0  0  0  0
  139.5490   69.5580  224.8810 C   0  0  0  0  0  0  0  0  0  0  0  0
  140.1400   70.3840  225.9570 C   0  0  0  0  0  0  0  0  0  0  0  0
  140.9230   71.4960  225.7340 C   0  0  0  0  0  0  0  0  0  0  0  0
  141.4420   72.2190  226.7860 C   0  0  0  0  0  0  0  0  0  0  0  0
  141.1650   71.8110  228.0700 C   0  0  0  0  0  0  0  0  0  0  0  0
  140.3890   70.7060  228.3490 C   0  0  0  0  0  0  0  0  0  0  0  0
  139.8820   70.0010  227.2720 C   0  0  0  0  0  0  0  0  0  0  0  0
  140.7500   73.7020  221.5490 C   0  0  0  0  0  0  0  0  0  0  0  0
  141.7970   73.9620  220.6910 C   0  0  0  0  0  0  0  0  0  0  0  0
  142.1400   75.2930  220.4590 C   0  0  0  0  0  0  0  0  0  0  0  0
  141.4400   76.3290  221.0810 C   0  0  0  0  0  0  0  0  0  0  0  0
  141.7880   77.6430  220.8440 C   0  0  0  0  0  0  0  0  0  0  0  0
  141.0650   78.6410  221.4840 C   0  0  0  0  0  0  0  0  0  0  0  0
  140.0280   78.2980  222.3310 C   0  0  0  0  0  0  0  0  0  0  0  0
  139.6780   76.9750  222.5680 C   0  0  0  0  0  0  0  0  0  0  0  0
  140.3990   75.9870  221.9310 C   0  0  0  0  0  0  0  0  0  0  0  0
  140.0740   74.7060  222.1500 N   0  0  0  0  0  0  0  0  0  0  0  0
  140.7980   71.6870  219.7690 H   0  0  0  0  0  0  0  0  0  0  0  0
  140.5020   69.3714  220.2066 H   0  0  0  0  0  0  0  0  0  0  0  0
  140.5655   69.8527  222.0221 H   0  0  0  0  0  0  0  0  0  0  0  0
  137.3580   71.9938  220.3797 H   0  0  0  0  0  0  0  0  0  0  0  0
  135.8621   71.2336  220.8590 H   0  0  0  0  0  0  0  0  0  0  0  0
  135.8449   72.8638  222.5947 H   0  0  0  0  0  0  0  0  0  0  0  0
  138.4960   73.3890  222.8260 H   0  0  0  0  0  0  0  0  0  0  0  0
  138.2446   71.6385  223.9286 H   0  0  0  0  0  0  0  0  0  0  0  0
  136.6173   71.7010  224.5389 H   0  0  0  0  0  0  0  0  0  0  0  0
  135.9158   69.7787  222.9318 H   0  0  0  0  0  0  0  0  0  0  0  0
  136.7482   68.3567  224.1816 H   0  0  0  0  0  0  0  0  0  0  0  0
  138.2554   68.4359  223.2486 H   0  0  0  0  0  0  0  0  0  0  0  0
  139.8448   68.5075  225.0183 H   0  0  0  0  0  0  0  0  0  0  0  0
  139.9087   69.9104  223.9030 H   0  0  0  0  0  0  0  0  0  0  0  0
  141.1366   71.8108  224.7019 H   0  0  0  0  0  0  0  0  0  0  0  0
  142.0662   73.1059  226.6023 H   0  0  0  0  0  0  0  0  0  0  0  0
  141.5795   72.3899  228.9085 H   0  0  0  0  0  0  0  0  0  0  0  0
  140.1817   70.3979  229.3844 H   0  0  0  0  0  0  0  0  0  0  0  0
  139.2584   69.1142  227.4586 H   0  0  0  0  0  0  0  0  0  0  0  0
  142.3460   73.1429  220.2035 H   0  0  0  0  0  0  0  0  0  0  0  0
  142.9712   75.5299  219.7785 H   0  0  0  0  0  0  0  0  0  0  0  0
  142.6168   77.8935  220.1655 H   0  0  0  0  0  0  0  0  0  0  0  0
  141.3163   79.6989  221.3178 H   0  0  0  0  0  0  0  0  0  0  0  0
  139.4627   79.0972  222.8327 H   0  0  0  0  0  0  0  0  0  0  0  0
  138.8487   76.7223  223.2450 H   0  0  0  0  0  0  0  0  0  0  0  0
  1  2  2  0
  2  3  1  0
  3  4  1  0
  4  5  1  0
  5  6  2  0
  5  7  1  0
  7  8  1  0
  8  9  1  0
  9 10  1  0
  9 11  1  0
 11 12  1  0
 12 13  1  0
 13 14  1  0
 14 15  1  0
 15 16  1  0
 16 17  2  0
 17 18  1  0
 18 19  2  0
 19 20  1  0
 20 21  2  0
  2 22  1  0
 22 23  2  0
 23 24  1  0
 24 25  2  0
 25 26  1  0
 26 27  2  0
 27 28  1  0
 28 29  2  0
 29 30  1  0
 30 31  2  0
 12  7  1  0
 21 16  1  0
 31 22  1  0
 30 25  1  0
  3 32  1  0
  4 33  1  0
  4 34  1  0
  8 35  1  0
  8 36  1  0
  9 37  1  1
 10 38  1  0
 11 39  1  0
 11 40  1  0
 12 41  1  6
 13 42  1  0
 13 43  1  0
 15 44  1  0
 15 45  1  0
 17 46  1  0
 18 47  1  0
 19 48  1  0
 20 49  1  0
 21 50  1  0
 23 51  1  0
 24 52  1  0
 26 53  1  0
 27 54  1  0
 28 55  1  0
 29 56  1  0
M  END
>  <smiles>  (48) 
O=C(NCC(=O)N1C[C@H](O)C[C@@H]1COCc1ccccc1)c1ccc2ccccc2n1

>  <score_type>  (48) 
oracle

>  <origin>  (48) 
autodockgpu

>  <m_score__min__energy>  (48) 
-9.1699999999999999

>  <m_primary>  (48) 
energy

>  <rmsd>  (48) 
7.353466828787206

>  <m_score__min__rmsd>  (48) 
7.353466828787206

>  <meeko>  (48) 
{"free_energy": -6.9, "intermolecular_energy": -9.59, "internal_energy": -3.62, "cluster_size": 4, "cluster_id": 4, "rank_in_cluster": 3}

>  <energy>  (48) 
-7.21

>  <cluster_rmsd>  (48) 
0.0

>  <cluster>  (48) 
6

$$$$

     RDKit          3D

 56 59  0  0  0  0  0  0  0  0999 V2000
  141.2120   72.0230  221.7350 O   0  0  0  0  0  0  0  0  0  0  0  0
  140.3110   72.1570  222.6010 C   0  0  0  0  0  0  0  0  0  0  0  0
  139.3870   73.2460  222.3530 N   0  0  0  0  0  0  0  0  0  0  0  0
  139.6010   74.0190  221.1830 C   0  0  0  0  0  0  0  0  0  0  0  0
  140.8590   74.7440  221.0070 C   0  0  0  0  0  0  0  0  0  0  0  0
  141.1160   75.5390  222.0190 O   0  0  0  0  0  0  0  0  0  0  0  0
  141.7960   74.7480  219.9980 N   0  0  0  0  0  0  0  0  0  0  0  0
  142.8560   73.8140  219.5790 C   0  0  0  0  0  0  0  0  0  0  0  0
  144.0610   74.7360  219.4450 C   0  0  2  0  0  0  0  0  0  0  0  0
  144.9860   74.5860  220.4480 O   0  0  0  0  0  0  0  0  0  0  0  0
  143.4780   76.1390  219.3490 C   0  0  0  0  0  0  0  0  0  0  0  0
  142.0140   75.8300  219.0010 C   0  0  2  0  0  0  0  0  0  0  0  0
  141.1370   77.0050  219.1650 C   0  0  0  0  0  0  0  0  0  0  0  0
  141.5680   77.6680  220.3440 O   0  0  0  0  0  0  0  0  0  0  0  0
  141.6740   79.0320  220.1710 C   0  0  0  0  0  0  0  0  0  0  0  0
  141.7950   79.6810  221.4950 C   0  0  0  0  0  0  0  0  0  0  0  0
  142.0260   79.0000  222.6700 C   0  0  0  0  0  0  0  0  0  0  0  0
  142.1270   79.6710  223.8700 C   0  0  0  0  0  0  0  0  0  0  0  0
  141.9950   81.0410  223.8750 C   0  0  0  0  0  0  0  0  0  0  0  0
  141.7640   81.7710  222.7280 C   0  0  0  0  0  0  0  0  0  0  0  0
  141.6660   81.0690  221.5400 C   0  0  0  0  0  0  0  0  0  0  0  0
  140.1700   71.3120  223.7710 C   0  0  0  0  0  0  0  0  0  0  0  0
  139.4820   70.1260  223.6180 C   0  0  0  0  0  0  0  0  0  0  0  0
  139.3380   69.3030  224.7340 C   0  0  0  0  0  0  0  0  0  0  0  0
  139.8770   69.6740  225.9680 C   0  0  0  0  0  0  0  0  0  0  0  0
  139.7280   68.8520  227.0660 C   0  0  0  0  0  0  0  0  0  0  0  0
  140.2790   69.2590  228.2740 C   0  0  0  0  0  0  0  0  0  0  0  0
  140.9540   70.4640  228.3450 C   0  0  0  0  0  0  0  0  0  0  0  0
  141.1030   71.2900  227.2390 C   0  0  0  0  0  0  0  0  0  0  0  0
  140.5540   70.8820  226.0420 C   0  0  0  0  0  0  0  0  0  0  0  0
  140.6890   71.6680  224.9660 N   0  0  0  0  0  0  0  0  0  0  0  0
  138.6210   73.3910  223.0570 H   0  0  0  0  0  0  0  0  0  0  0  0
  139.5068   73.3337  220.3277 H   0  0  0  0  0  0  0  0  0  0  0  0
  138.8552   74.8229  221.2704 H   0  0  0  0  0  0  0  0  0  0  0  0
  143.0291   73.0392  220.3404 H   0  0  0  0  0  0  0  0  0  0  0  0
  142.6187   73.2601  218.6587 H   0  0  0  0  0  0  0  0  0  0  0  0
  144.6529   74.4910  218.5508 H   0  0  0  0  0  0  0  0  0  0  0  0
  145.9100   74.6850  220.0990 H   0  0  0  0  0  0  0  0  0  0  0  0
  143.5604   76.6762  220.3054 H   0  0  0  0  0  0  0  0  0  0  0  0
  143.9868   76.7909  218.6236 H   0  0  0  0  0  0  0  0  0  0  0  0
  141.7950   75.5510  217.9598 H   0  0  0  0  0  0  0  0  0  0  0  0
  141.2314   77.6738  218.2968 H   0  0  0  0  0  0  0  0  0  0  0  0
  140.0811   76.7060  219.2401 H   0  0  0  0  0  0  0  0  0  0  0  0
  142.5652   79.2584  219.5672 H   0  0  0  0  0  0  0  0  0  0  0  0
  140.7798   79.4101  219.6538 H   0  0  0  0  0  0  0  0  0  0  0  0
  142.1314   77.9052  222.6504 H   0  0  0  0  0  0  0  0  0  0  0  0
  142.3096   79.1220  224.8056 H   0  0  0  0  0  0  0  0  0  0  0  0
  142.0771   81.5754  224.8329 H   0  0  0  0  0  0  0  0  0  0  0  0
  141.6619   82.8659  222.7566 H   0  0  0  0  0  0  0  0  0  0  0  0
  141.4814   81.6201  220.6061 H   0  0  0  0  0  0  0  0  0  0  0  0
  139.0595   69.8382  222.6440 H   0  0  0  0  0  0  0  0  0  0  0  0
  138.7941   68.3513  224.6418 H   0  0  0  0  0  0  0  0  0  0  0  0
  139.1862   67.8980  226.9865 H   0  0  0  0  0  0  0  0  0  0  0  0
  140.1792   68.6270  229.1687 H   0  0  0  0  0  0  0  0  0  0  0  0
  141.3859   70.7775  229.3069 H   0  0  0  0  0  0  0  0  0  0  0  0
  141.6446   72.2444  227.3158 H   0  0  0  0  0  0  0  0  0  0  0  0
  1  2  2  0
  2  3  1  0
  3  4  1  0
  4  5  1  0
  5  6  2  0
  5  7  1  0
  7  8  1  0
  8  9  1  0
  9 10  1  0
  9 11  1  0
 11 12  1  0
 12 13  1  0
 13 14  1  0
 14 15  1  0
 15 16  1  0
 16 17  2  0
 17 18  1  0
 18 19  2  0
 19 20  1  0
 20 21  2  0
  2 22  1  0
 22 23  2  0
 23 24  1  0
 24 25  2  0
 25 26  1  0
 26 27  2  0
 27 28  1  0
 28 29  2  0
 29 30  1  0
 30 31  2  0
 12  7  1  0
 21 16  1  0
 31 22  1  0
 30 25  1  0
  3 32  1  0
  4 33  1  0
  4 34  1  0
  8 35  1  0
  8 36  1  0
  9 37  1  6
 10 38  1  0
 11 39  1  0
 11 40  1  0
 12 41  1  6
 13 42  1  0
 13 43  1  0
 15 44  1  0
 15 45  1  0
 17 46  1  0
 18 47  1  0
 19 48  1  0
 20 49  1  0
 21 50  1  0
 23 51  1  0
 24 52  1  0
 26 53  1  0
 27 54  1  0
 28 55  1  0
 29 56  1  0
M  END
>  <smiles>  (49) 
O=C(NCC(=O)N1C[C@H](O)C[C@@H]1COCc1ccccc1)c1ccc2ccccc2n1

>  <score_type>  (49) 
oracle

>  <origin>  (49) 
autodockgpu

>  <m_score__min__energy>  (49) 
-9.1699999999999999

>  <m_primary>  (49) 
energy

>  <rmsd>  (49) 
2.243233878673962

>  <m_score__min__rmsd>  (49) 
2.243233878673962

>  <meeko>  (49) 
{"free_energy": -9.15, "intermolecular_energy": -11.84, "internal_energy": -1.47, "cluster_size": 24, "cluster_id": 1, "rank_in_cluster": 2}

>  <energy>  (49) 
-6.91

>  <cluster_rmsd>  (49) 
0.57

>  <cluster>  (49) 
6

$$$$

     RDKit          3D

 56 59  0  0  0  0  0  0  0  0999 V2000
  139.2320   71.2250  221.6160 O   0  0  0  0  0  0  0  0  0  0  0  0
  139.9290   71.4010  222.6470 C   0  0  0  0  0  0  0  0  0  0  0  0
  140.8220   72.5420  222.5880 N   0  0  0  0  0  0  0  0  0  0  0  0
  140.8050   73.3140  221.3990 C   0  0  0  0  0  0  0  0  0  0  0  0
  140.1940   74.6420  221.3990 C   0  0  0  0  0  0  0  0  0  0  0  0
  139.2730   74.7610  222.3290 O   0  0  0  0  0  0  0  0  0  0  0  0
  140.3970   75.7600  220.6220 N   0  0  0  0  0  0  0  0  0  0  0  0
  140.9860   75.9910  219.2910 C   0  0  0  0  0  0  0  0  0  0  0  0
  141.9510   77.1390  219.5630 C   0  0  2  0  0  0  0  0  0  0  0  0
  143.2710   76.7650  219.5570 O   0  0  0  0  0  0  0  0  0  0  0  0
  141.4860   77.7430  220.8810 C   0  0  0  0  0  0  0  0  0  0  0  0
  140.0690   77.1630  220.9910 C   0  0  2  0  0  0  0  0  0  0  0  0
  139.4970   77.3280  222.3420 C   0  0  0  0  0  0  0  0  0  0  0  0
  138.6360   78.4550  222.2800 O   0  0  0  0  0  0  0  0  0  0  0  0
  138.8940   79.3670  223.2830 C   0  0  0  0  0  0  0  0  0  0  0  0
  140.2480   79.9310  223.0890 C   0  0  0  0  0  0  0  0  0  0  0  0
  140.5420   80.9450  222.2040 C   0  0  0  0  0  0  0  0  0  0  0  0
  141.8300   81.4210  222.0760 C   0  0  0  0  0  0  0  0  0  0  0  0
  142.8220   80.8660  222.8500 C   0  0  0  0  0  0  0  0  0  0  0  0
  142.5810   79.8490  223.7510 C   0  0  0  0  0  0  0  0  0  0  0  0
  141.2790   79.3920  223.8570 C   0  0  0  0  0  0  0  0  0  0  0  0
  139.8770   70.5560  223.8230 C   0  0  0  0  0  0  0  0  0  0  0  0
  139.1850   69.3670  223.7200 C   0  0  0  0  0  0  0  0  0  0  0  0
  139.1260   68.5430  224.8430 C   0  0  0  0  0  0  0  0  0  0  0  0
  139.7520   68.9160  226.0350 C   0  0  0  0  0  0  0  0  0  0  0  0
  139.6860   68.0920  227.1400 C   0  0  0  0  0  0  0  0  0  0  0  0
  140.3220   68.5020  228.3050 C   0  0  0  0  0  0  0  0  0  0  0  0
  140.9950   69.7090  228.3280 C   0  0  0  0  0  0  0  0  0  0  0  0
  141.0600   70.5370  227.2140 C   0  0  0  0  0  0  0  0  0  0  0  0
  140.4270   70.1260  226.0600 C   0  0  0  0  0  0  0  0  0  0  0  0
  140.4800   70.9130  224.9780 N   0  0  0  0  0  0  0  0  0  0  0  0
  141.4220   72.7210  223.4320 H   0  0  0  0  0  0  0  0  0  0  0  0
  141.8527   73.4464  221.0912 H   0  0  0  0  0  0  0  0  0  0  0  0
  140.1512   72.7347  220.7305 H   0  0  0  0  0  0  0  0  0  0  0  0
  141.5186   75.0989  218.9299 H   0  0  0  0  0  0  0  0  0  0  0  0
  140.2429   76.2132  218.5110 H   0  0  0  0  0  0  0  0  0  0  0  0
  141.9231   77.8841  218.7543 H   0  0  0  0  0  0  0  0  0  0  0  0
  143.8230   77.3920  220.0930 H   0  0  0  0  0  0  0  0  0  0  0  0
  142.1205   77.4189  221.7191 H   0  0  0  0  0  0  0  0  0  0  0  0
  141.5280   78.8417  220.9140 H   0  0  0  0  0  0  0  0  0  0  0  0
  139.2872   77.6321  220.3755 H   0  0  0  0  0  0  0  0  0  0  0  0
  138.9282   76.4304  222.6261 H   0  0  0  0  0  0  0  0  0  0  0  0
  140.2870   77.4717  223.0938 H   0  0  0  0  0  0  0  0  0  0  0  0
  138.1494   80.1758  223.2457 H   0  0  0  0  0  0  0  0  0  0  0  0
  138.8377   78.8672  224.2613 H   0  0  0  0  0  0  0  0  0  0  0  0
  139.7389   81.3807  221.5914 H   0  0  0  0  0  0  0  0  0  0  0  0
  142.0598   82.2303  221.3673 H   0  0  0  0  0  0  0  0  0  0  0  0
  143.8484   81.2479  222.7468 H   0  0  0  0  0  0  0  0  0  0  0  0
  143.3902   79.4194  224.3598 H   0  0  0  0  0  0  0  0  0  0  0  0
  141.0517   78.5822  224.5659 H   0  0  0  0  0  0  0  0  0  0  0  0
  138.6941   69.0775  222.7792 H   0  0  0  0  0  0  0  0  0  0  0  0
  138.5808   67.5891  224.7900 H   0  0  0  0  0  0  0  0  0  0  0  0
  139.1440   67.1357  227.0994 H   0  0  0  0  0  0  0  0  0  0  0  0
  140.2902   67.8694  229.2043 H   0  0  0  0  0  0  0  0  0  0  0  0
  141.4943   70.0237  229.2563 H   0  0  0  0  0  0  0  0  0  0  0  0
  141.6014   71.4938  227.2517 H   0  0  0  0  0  0  0  0  0  0  0  0
  1  2  2  0
  2  3  1  0
  3  4  1  0
  4  5  1  0
  5  6  2  0
  5  7  1  0
  7  8  1  0
  8  9  1  0
  9 10  1  0
  9 11  1  0
 11 12  1  0
 12 13  1  0
 13 14  1  0
 14 15  1  0
 15 16  1  0
 16 17  2  0
 17 18  1  0
 18 19  2  0
 19 20  1  0
 20 21  2  0
  2 22  1  0
 22 23  2  0
 23 24  1  0
 24 25  2  0
 25 26  1  0
 26 27  2  0
 27 28  1  0
 28 29  2  0
 29 30  1  0
 30 31  2  0
 12  7  1  0
 21 16  1  0
 31 22  1  0
 30 25  1  0
  3 32  1  0
  4 33  1  0
  4 34  1  0
  8 35  1  0
  8 36  1  0
  9 37  1  6
 10 38  1  0
 11 39  1  0
 11 40  1  0
 12 41  1  6
 13 42  1  0
 13 43  1  0
 15 44  1  0
 15 45  1  0
 17 46  1  0
 18 47  1  0
 19 48  1  0
 20 49  1  0
 21 50  1  0
 23 51  1  0
 24 52  1  0
 26 53  1  0
 27 54  1  0
 28 55  1  0
 29 56  1  0
M  END
>  <smiles>  (50) 
O=C(NCC(=O)N1C[C@H](O)C[C@@H]1COCc1ccccc1)c1ccc2ccccc2n1

>  <score_type>  (50) 
oracle

>  <origin>  (50) 
autodockgpu

>  <m_score__min__energy>  (50) 
-9.1699999999999999

>  <m_primary>  (50) 
energy

>  <rmsd>  (50) 
1.9699310604702356

>  <m_score__min__rmsd>  (50) 
1.9699310604702356

>  <meeko>  (50) 
{"free_energy": -8.57, "intermolecular_energy": -11.26, "internal_energy": -1.46, "cluster_size": 24, "cluster_id": 1, "rank_in_cluster": 13}

>  <energy>  (50) 
-5.7

>  <cluster_rmsd>  (50) 
0.0

>  <cluster>  (50) 
7

$$$$
