
     RDKit          3D

 33 34  0  0  0  0  0  0  0  0999 V2000
  140.6660   76.4030  222.3350 C   0  0  0  0  0  0  0  0  0  0  0  0
  140.6060   75.5070  221.0680 C   0  0  0  0  0  0  0  0  0  0  0  0
  141.9790   74.9610  220.8140 C   0  0  0  0  0  0  0  0  0  0  0  0
  139.4830   74.5430  221.2000 C   0  0  0  0  0  0  0  0  0  0  0  0
  139.5290   73.5540  222.2100 N   0  0  0  0  0  0  0  0  0  0  0  0
  140.3790   72.4510  222.3520 C   0  0  0  0  0  0  0  0  0  0  0  0
  141.3000   72.1500  221.5670 O   0  0  0  0  0  0  0  0  0  0  0  0
  140.2060   71.5430  223.5090 C   0  0  0  0  0  0  0  0  0  0  0  0
  139.5490   70.3380  223.3990 C   0  0  0  0  0  0  0  0  0  0  0  0
  139.3870   69.4920  224.4770 C   0  0  0  0  0  0  0  0  0  0  0  0
  139.8890   69.8380  225.7160 C   0  0  0  0  0  0  0  0  0  0  0  0
  139.7410   69.0070  226.8170 C   0  0  0  0  0  0  0  0  0  0  0  0
  140.2490   69.3680  228.0480 C   0  0  0  0  0  0  0  0  0  0  0  0
  140.1080   68.5610  229.1280 F   0  0  0  0  0  0  0  0  0  0  0  0
  140.9140   70.5890  228.1570 C   0  0  0  0  0  0  0  0  0  0  0  0
  141.0580   71.4150  227.0510 C   0  0  0  0  0  0  0  0  0  0  0  0
  140.5440   71.0520  225.8020 C   0  0  0  0  0  0  0  0  0  0  0  0
  140.6870   71.8580  224.7300 N   0  0  0  0  0  0  0  0  0  0  0  0
  140.6236   75.7703  223.2338 H   0  0  0  0  0  0  0  0  0  0  0  0
  141.6046   76.9767  222.3343 H   0  0  0  0  0  0  0  0  0  0  0  0
  139.8123   77.0967  222.3343 H   0  0  0  0  0  0  0  0  0  0  0  0
  140.3570   76.0535  220.1464 H   0  0  0  0  0  0  0  0  0  0  0  0
  142.4781   74.7625  221.7740 H   0  0  0  0  0  0  0  0  0  0  0  0
  141.9013   74.0254  220.2408 H   0  0  0  0  0  0  0  0  0  0  0  0
  142.5651   75.6945  220.2408 H   0  0  0  0  0  0  0  0  0  0  0  0
  138.5720   75.1348  221.3730 H   0  0  0  0  0  0  0  0  0  0  0  0
  139.5305   73.9619  220.2672 H   0  0  0  0  0  0  0  0  0  0  0  0
  138.7960   73.6580  223.0000 H   0  0  0  0  0  0  0  0  0  0  0  0
  139.1407   70.0406  222.4218 H   0  0  0  0  0  0  0  0  0  0  0  0
  138.8555   68.5375  224.3488 H   0  0  0  0  0  0  0  0  0  0  0  0
  139.2122   68.0487  226.7072 H   0  0  0  0  0  0  0  0  0  0  0  0
  141.3278   70.9000  229.1276 H   0  0  0  0  0  0  0  0  0  0  0  0
  141.5866   72.3736  227.1589 H   0  0  0  0  0  0  0  0  0  0  0  0
  1  2  1  0
  2  3  1  0
  2  4  1  0
  4  5  1  0
  5  6  1  0
  6  7  2  0
  6  8  1  0
  8  9  2  0
  9 10  1  0
 10 11  2  0
 11 12  1  0
 12 13  2  0
 13 14  1  0
 13 15  1  0
 15 16  2  0
 16 17  1  0
 17 18  2  0
 18  8  1  0
 17 11  1  0
  1 19  1  0
  1 20  1  0
  1 21  1  0
  2 22  1  0
  3 23  1  0
  3 24  1  0
  3 25  1  0
  4 26  1  0
  4 27  1  0
  5 28  1  0
  9 29  1  0
 10 30  1  0
 12 31  1  0
 15 32  1  0
 16 33  1  0
M  END
>  <smiles>  (1) 
CC(C)CNC(=O)c1ccc2cc(F)ccc2n1

>  <score_type>  (1) 
oracle

>  <origin>  (1) 
autodockgpu

>  <m_score__min__energy>  (1) 
-6.1799999999999997

>  <m_primary>  (1) 
energy

>  <rmsd>  (1) 
1.301976695125848

>  <m_score__min__rmsd>  (1) 
1.301976695125848

>  <meeko>  (1) 
{"free_energy": -6.12, "intermolecular_energy": -7.01, "internal_energy": -0.47, "cluster_size": 47, "cluster_id": 1, "rank_in_cluster": 21}

>  <energy>  (1) 
-6.18

>  <cluster_rmsd>  (1) 
0.0

>  <cluster>  (1) 
1

$$$$

     RDKit          3D

 33 34  0  0  0  0  0  0  0  0999 V2000
  138.2550   76.3530  222.7180 C   0  0  0  0  0  0  0  0  0  0  0  0
  139.4320   76.0920  221.7380 C   0  0  0  0  0  0  0  0  0  0  0  0
  140.6840   76.6410  222.3540 C   0  0  0  0  0  0  0  0  0  0  0  0
  139.4210   74.6650  221.3260 C   0  0  0  0  0  0  0  0  0  0  0  0
  139.5670   73.6550  222.3060 N   0  0  0  0  0  0  0  0  0  0  0  0
  139.7050   72.2700  222.1570 C   0  0  0  0  0  0  0  0  0  0  0  0
  139.7360   71.6650  221.0670 O   0  0  0  0  0  0  0  0  0  0  0  0
  139.8250   71.4180  223.3620 C   0  0  0  0  0  0  0  0  0  0  0  0
  139.4520   70.0920  223.3580 C   0  0  0  0  0  0  0  0  0  0  0  0
  139.5640   69.2980  224.4810 C   0  0  0  0  0  0  0  0  0  0  0  0
  140.0610   69.8200  225.6580 C   0  0  0  0  0  0  0  0  0  0  0  0
  140.1840   69.0450  226.8010 C   0  0  0  0  0  0  0  0  0  0  0  0
  140.6830   69.5830  227.9700 C   0  0  0  0  0  0  0  0  0  0  0  0
  140.8060   68.8310  229.0910 F   0  0  0  0  0  0  0  0  0  0  0  0
  141.0590   70.9260  227.9720 C   0  0  0  0  0  0  0  0  0  0  0  0
  140.9330   71.6950  226.8240 C   0  0  0  0  0  0  0  0  0  0  0  0
  140.4270   71.1530  225.6380 C   0  0  0  0  0  0  0  0  0  0  0  0
  140.3070   71.9050  224.5250 N   0  0  0  0  0  0  0  0  0  0  0  0
  138.6159   76.2730  223.7540 H   0  0  0  0  0  0  0  0  0  0  0  0
  137.8523   77.3622  222.5469 H   0  0  0  0  0  0  0  0  0  0  0  0
  137.4635   75.6086  222.5469 H   0  0  0  0  0  0  0  0  0  0  0  0
  139.3443   76.6265  220.7806 H   0  0  0  0  0  0  0  0  0  0  0  0
  140.6000   76.6041  223.4502 H   0  0  0  0  0  0  0  0  0  0  0  0
  141.5459   76.0383  222.0319 H   0  0  0  0  0  0  0  0  0  0  0  0
  140.8246   77.6833  222.0319 H   0  0  0  0  0  0  0  0  0  0  0  0
  138.4599   74.4851  220.8221 H   0  0  0  0  0  0  0  0  0  0  0  0
  140.3308   74.5657  220.7157 H   0  0  0  0  0  0  0  0  0  0  0  0
  139.5730   73.9980  223.3330 H   0  0  0  0  0  0  0  0  0  0  0  0
  139.0529   69.6529  222.4318 H   0  0  0  0  0  0  0  0  0  0  0  0
  139.2554   68.2430  224.4379 H   0  0  0  0  0  0  0  0  0  0  0  0
  139.8801   67.9881  226.7759 H   0  0  0  0  0  0  0  0  0  0  0  0
  141.4587   71.3793  228.8911 H   0  0  0  0  0  0  0  0  0  0  0  0
  141.2371   72.7519  226.8471 H   0  0  0  0  0  0  0  0  0  0  0  0
  1  2  1  0
  2  3  1  0
  2  4  1  0
  4  5  1  0
  5  6  1  0
  6  7  2  0
  6  8  1  0
  8  9  2  0
  9 10  1  0
 10 11  2  0
 11 12  1  0
 12 13  2  0
 13 14  1  0
 13 15  1  0
 15 16  2  0
 16 17  1  0
 17 18  2  0
 18  8  1  0
 17 11  1  0
  1 19  1  0
  1 20  1  0
  1 21  1  0
  2 22  1  0
  3 23  1  0
  3 24  1  0
  3 25  1  0
  4 26  1  0
  4 27  1  0
  5 28  1  0
  9 29  1  0
 10 30  1  0
 12 31  1  0
 15 32  1  0
 16 33  1  0
M  END
>  <smiles>  (2) 
CC(C)CNC(=O)c1ccc2cc(F)ccc2n1

>  <score_type>  (2) 
oracle

>  <origin>  (2) 
autodockgpu

>  <m_score__min__energy>  (2) 
-6.1799999999999997

>  <m_primary>  (2) 
energy

>  <rmsd>  (2) 
1.131882460405495

>  <m_score__min__rmsd>  (2) 
1.131882460405495

>  <meeko>  (2) 
{"free_energy": -5.87, "intermolecular_energy": -6.77, "internal_energy": -0.69, "cluster_size": 47, "cluster_id": 1, "rank_in_cluster": 44}

>  <energy>  (2) 
-6.18

>  <cluster_rmsd>  (2) 
0.03

>  <cluster>  (2) 
1

$$$$

     RDKit          3D

 33 34  0  0  0  0  0  0  0  0999 V2000
  138.3110   76.2830  222.6950 C   0  0  0  0  0  0  0  0  0  0  0  0
  139.4910   76.0870  221.7040 C   0  0  0  0  0  0  0  0  0  0  0  0
  140.7170   76.7030  222.3090 C   0  0  0  0  0  0  0  0  0  0  0  0
  139.5540   74.6620  221.2910 C   0  0  0  0  0  0  0  0  0  0  0  0
  139.5870   73.6500  222.2780 N   0  0  0  0  0  0  0  0  0  0  0  0
  140.4140   72.5260  222.3880 C   0  0  0  0  0  0  0  0  0  0  0  0
  141.3210   72.2220  221.5870 O   0  0  0  0  0  0  0  0  0  0  0  0
  140.2320   71.5970  223.5260 C   0  0  0  0  0  0  0  0  0  0  0  0
  139.5800   70.3920  223.3880 C   0  0  0  0  0  0  0  0  0  0  0  0
  139.4100   69.5260  224.4490 C   0  0  0  0  0  0  0  0  0  0  0  0
  139.8960   69.8520  225.6990 C   0  0  0  0  0  0  0  0  0  0  0  0
  139.7390   69.0010  226.7830 C   0  0  0  0  0  0  0  0  0  0  0  0
  140.2330   69.3410  228.0260 C   0  0  0  0  0  0  0  0  0  0  0  0
  140.0820   68.5140  229.0890 F   0  0  0  0  0  0  0  0  0  0  0  0
  140.8920   70.5630  228.1640 C   0  0  0  0  0  0  0  0  0  0  0  0
  141.0450   71.4090  227.0750 C   0  0  0  0  0  0  0  0  0  0  0  0
  140.5460   71.0660  225.8140 C   0  0  0  0  0  0  0  0  0  0  0  0
  140.6970   71.8920  224.7580 N   0  0  0  0  0  0  0  0  0  0  0  0
  138.6852   76.2208  223.7275 H   0  0  0  0  0  0  0  0  0  0  0  0
  137.8533   77.2695  222.5296 H   0  0  0  0  0  0  0  0  0  0  0  0
  137.5589   75.4975  222.5296 H   0  0  0  0  0  0  0  0  0  0  0  0
  139.3653   76.6163  220.7480 H   0  0  0  0  0  0  0  0  0  0  0  0
  140.6429   76.6658  223.4059 H   0  0  0  0  0  0  0  0  0  0  0  0
  141.6070   76.1450  221.9825 H   0  0  0  0  0  0  0  0  0  0  0  0
  140.8005   77.7501  221.9825 H   0  0  0  0  0  0  0  0  0  0  0  0
  138.6687   74.4708  220.6667 H   0  0  0  0  0  0  0  0  0  0  0  0
  140.5366   74.5784  220.8037 H   0  0  0  0  0  0  0  0  0  0  0  0
  138.8640   73.7530  223.0770 H   0  0  0  0  0  0  0  0  0  0  0  0
  139.1824   70.1110  222.4016 H   0  0  0  0  0  0  0  0  0  0  0  0
  138.8847   68.5714  224.2978 H   0  0  0  0  0  0  0  0  0  0  0  0
  139.2143   68.0434  226.6503 H   0  0  0  0  0  0  0  0  0  0  0  0
  141.2937   70.8582  229.1446 H   0  0  0  0  0  0  0  0  0  0  0  0
  141.5686   72.3675  227.2057 H   0  0  0  0  0  0  0  0  0  0  0  0
  1  2  1  0
  2  3  1  0
  2  4  1  0
  4  5  1  0
  5  6  1  0
  6  7  2  0
  6  8  1  0
  8  9  2  0
  9 10  1  0
 10 11  2  0
 11 12  1  0
 12 13  2  0
 13 14  1  0
 13 15  1  0
 15 16  2  0
 16 17  1  0
 17 18  2  0
 18  8  1  0
 17 11  1  0
  1 19  1  0
  1 20  1  0
  1 21  1  0
  2 22  1  0
  3 23  1  0
  3 24  1  0
  3 25  1  0
  4 26  1  0
  4 27  1  0
  5 28  1  0
  9 29  1  0
 10 30  1  0
 12 31  1  0
 15 32  1  0
 16 33  1  0
M  END
>  <smiles>  (3) 
CC(C)CNC(=O)c1ccc2cc(F)ccc2n1

>  <score_type>  (3) 
oracle

>  <origin>  (3) 
autodockgpu

>  <m_score__min__energy>  (3) 
-6.1799999999999997

>  <m_primary>  (3) 
energy

>  <rmsd>  (3) 
1.3660210738750926

>  <m_score__min__rmsd>  (3) 
1.3660210738750926

>  <meeko>  (3) 
{"free_energy": -6.18, "intermolecular_energy": -7.07, "internal_energy": -0.45, "cluster_size": 47, "cluster_id": 1, "rank_in_cluster": 11}

>  <energy>  (3) 
-6.18

>  <cluster_rmsd>  (3) 
0.04

>  <cluster>  (3) 
1

$$$$

     RDKit          3D

 33 34  0  0  0  0  0  0  0  0999 V2000
  140.7070   76.5720  222.2800 C   0  0  0  0  0  0  0  0  0  0  0  0
  140.5680   75.5790  221.0940 C   0  0  0  0  0  0  0  0  0  0  0  0
  141.9180   74.9860  220.8190 C   0  0  0  0  0  0  0  0  0  0  0  0
  139.4370   74.6530  221.3570 C   0  0  0  0  0  0  0  0  0  0  0  0
  139.5790   73.6380  222.3310 N   0  0  0  0  0  0  0  0  0  0  0  0
  139.7610   72.2590  222.1740 C   0  0  0  0  0  0  0  0  0  0  0  0
  139.8440   71.6670  221.0800 O   0  0  0  0  0  0  0  0  0  0  0  0
  139.8670   71.3980  223.3740 C   0  0  0  0  0  0  0  0  0  0  0  0
  139.4760   70.0770  223.3610 C   0  0  0  0  0  0  0  0  0  0  0  0
  139.5740   69.2750  224.4790 C   0  0  0  0  0  0  0  0  0  0  0  0
  140.0750   69.7830  225.6610 C   0  0  0  0  0  0  0  0  0  0  0  0
  140.1840   68.9990  226.8000 C   0  0  0  0  0  0  0  0  0  0  0  0
  140.6870   69.5240  227.9730 C   0  0  0  0  0  0  0  0  0  0  0  0
  140.7970   68.7630  229.0900 F   0  0  0  0  0  0  0  0  0  0  0  0
  141.0820   70.8620  227.9840 C   0  0  0  0  0  0  0  0  0  0  0  0
  140.9690   71.6400  226.8410 C   0  0  0  0  0  0  0  0  0  0  0  0
  140.4590   71.1110  225.6500 C   0  0  0  0  0  0  0  0  0  0  0  0
  140.3520   71.8710  224.5410 N   0  0  0  0  0  0  0  0  0  0  0  0
  140.6300   76.0221  223.2296 H   0  0  0  0  0  0  0  0  0  0  0  0
  141.6842   77.0741  222.2252 H   0  0  0  0  0  0  0  0  0  0  0  0
  139.9052   77.3231  222.2252 H   0  0  0  0  0  0  0  0  0  0  0  0
  140.2821   76.0548  220.1443 H   0  0  0  0  0  0  0  0  0  0  0  0
  142.4221   74.7646  221.7713 H   0  0  0  0  0  0  0  0  0  0  0  0
  141.7998   74.0570  220.2420 H   0  0  0  0  0  0  0  0  0  0  0  0
  142.5222   75.7016  220.2420 H   0  0  0  0  0  0  0  0  0  0  0  0
  138.5811   75.2725  221.6632 H   0  0  0  0  0  0  0  0  0  0  0  0
  139.3370   74.0941  220.4149 H   0  0  0  0  0  0  0  0  0  0  0  0
  139.5440   73.9700  223.3610 H   0  0  0  0  0  0  0  0  0  0  0  0
  139.0735   69.6489  222.4311 H   0  0  0  0  0  0  0  0  0  0  0  0
  139.2511   68.2247  224.4285 H   0  0  0  0  0  0  0  0  0  0  0  0
  139.8658   67.9465  226.7680 H   0  0  0  0  0  0  0  0  0  0  0  0
  141.4864   71.3037  228.9067 H   0  0  0  0  0  0  0  0  0  0  0  0
  141.2863   72.6928  226.8714 H   0  0  0  0  0  0  0  0  0  0  0  0
  1  2  1  0
  2  3  1  0
  2  4  1  0
  4  5  1  0
  5  6  1  0
  6  7  2  0
  6  8  1  0
  8  9  2  0
  9 10  1  0
 10 11  2  0
 11 12  1  0
 12 13  2  0
 13 14  1  0
 13 15  1  0
 15 16  2  0
 16 17  1  0
 17 18  2  0
 18  8  1  0
 17 11  1  0
  1 19  1  0
  1 20  1  0
  1 21  1  0
  2 22  1  0
  3 23  1  0
  3 24  1  0
  3 25  1  0
  4 26  1  0
  4 27  1  0
  5 28  1  0
  9 29  1  0
 10 30  1  0
 12 31  1  0
 15 32  1  0
 16 33  1  0
M  END
>  <smiles>  (4) 
CC(C)CNC(=O)c1ccc2cc(F)ccc2n1

>  <score_type>  (4) 
oracle

>  <origin>  (4) 
autodockgpu

>  <m_score__min__energy>  (4) 
-6.1799999999999997

>  <m_primary>  (4) 
energy

>  <rmsd>  (4) 
1.1216462644988472

>  <m_score__min__rmsd>  (4) 
1.1216462644988472

>  <meeko>  (4) 
{"free_energy": -5.89, "intermolecular_energy": -6.79, "internal_energy": -0.72, "cluster_size": 47, "cluster_id": 1, "rank_in_cluster": 36}

>  <energy>  (4) 
-6.18

>  <cluster_rmsd>  (4) 
0.01

>  <cluster>  (4) 
1

$$$$

     RDKit          3D

 33 34  0  0  0  0  0  0  0  0999 V2000
  138.2660   76.3200  222.6320 C   0  0  0  0  0  0  0  0  0  0  0  0
  139.4790   76.0710  221.6950 C   0  0  0  0  0  0  0  0  0  0  0  0
  140.7040   76.6320  222.3540 C   0  0  0  0  0  0  0  0  0  0  0  0
  139.4980   74.6440  221.2830 C   0  0  0  0  0  0  0  0  0  0  0  0
  139.5500   73.6330  222.2710 N   0  0  0  0  0  0  0  0  0  0  0  0
  140.3890   72.5180  222.3750 C   0  0  0  0  0  0  0  0  0  0  0  0
  141.2930   72.2230  221.5680 O   0  0  0  0  0  0  0  0  0  0  0  0
  140.2260   71.5890  223.5150 C   0  0  0  0  0  0  0  0  0  0  0  0
  139.5840   70.3770  223.3840 C   0  0  0  0  0  0  0  0  0  0  0  0
  139.4320   69.5110  224.4470 C   0  0  0  0  0  0  0  0  0  0  0  0
  139.9260   69.8420  225.6920 C   0  0  0  0  0  0  0  0  0  0  0  0
  139.7870   68.9900  226.7780 C   0  0  0  0  0  0  0  0  0  0  0  0
  140.2880   69.3360  228.0170 C   0  0  0  0  0  0  0  0  0  0  0  0
  140.1550   68.5090  229.0820 F   0  0  0  0  0  0  0  0  0  0  0  0
  140.9360   70.5640  228.1480 C   0  0  0  0  0  0  0  0  0  0  0  0
  141.0720   71.4110  227.0570 C   0  0  0  0  0  0  0  0  0  0  0  0
  140.5650   71.0630  225.8010 C   0  0  0  0  0  0  0  0  0  0  0  0
  140.6990   71.8890  224.7430 N   0  0  0  0  0  0  0  0  0  0  0  0
  138.5926   76.2530  223.6803 H   0  0  0  0  0  0  0  0  0  0  0  0
  137.8537   77.3215  222.4397 H   0  0  0  0  0  0  0  0  0  0  0  0
  137.4925   75.5619  222.4397 H   0  0  0  0  0  0  0  0  0  0  0  0
  139.4184   76.6054  220.7355 H   0  0  0  0  0  0  0  0  0  0  0  0
  140.5892   76.5794  223.4467 H   0  0  0  0  0  0  0  0  0  0  0  0
  141.5846   76.0474  222.0493 H   0  0  0  0  0  0  0  0  0  0  0  0
  140.8366   77.6806  222.0493 H   0  0  0  0  0  0  0  0  0  0  0  0
  138.5854   74.4691  220.6944 H   0  0  0  0  0  0  0  0  0  0  0  0
  140.4588   74.5403  220.7575 H   0  0  0  0  0  0  0  0  0  0  0  0
  138.8320   73.7290  223.0750 H   0  0  0  0  0  0  0  0  0  0  0  0
  139.1802   70.0911  222.4016 H   0  0  0  0  0  0  0  0  0  0  0  0
  138.9142   68.5515  224.3013 H   0  0  0  0  0  0  0  0  0  0  0  0
  139.2712   68.0268  226.6503 H   0  0  0  0  0  0  0  0  0  0  0  0
  141.3430   70.8640  229.1249 H   0  0  0  0  0  0  0  0  0  0  0  0
  141.5883   72.3742  227.1826 H   0  0  0  0  0  0  0  0  0  0  0  0
  1  2  1  0
  2  3  1  0
  2  4  1  0
  4  5  1  0
  5  6  1  0
  6  7  2  0
  6  8  1  0
  8  9  2  0
  9 10  1  0
 10 11  2  0
 11 12  1  0
 12 13  2  0
 13 14  1  0
 13 15  1  0
 15 16  2  0
 16 17  1  0
 17 18  2  0
 18  8  1  0
 17 11  1  0
  1 19  1  0
  1 20  1  0
  1 21  1  0
  2 22  1  0
  3 23  1  0
  3 24  1  0
  3 25  1  0
  4 26  1  0
  4 27  1  0
  5 28  1  0
  9 29  1  0
 10 30  1  0
 12 31  1  0
 15 32  1  0
 16 33  1  0
M  END
>  <smiles>  (5) 
CC(C)CNC(=O)c1ccc2cc(F)ccc2n1

>  <score_type>  (5) 
oracle

>  <origin>  (5) 
autodockgpu

>  <m_score__min__energy>  (5) 
-6.1799999999999997

>  <m_primary>  (5) 
energy

>  <rmsd>  (5) 
1.3417439444783514

>  <m_score__min__rmsd>  (5) 
1.3417439444783514

>  <meeko>  (5) 
{"free_energy": -6.17, "intermolecular_energy": -7.07, "internal_energy": -0.45, "cluster_size": 47, "cluster_id": 1, "rank_in_cluster": 12}

>  <energy>  (5) 
-6.18

>  <cluster_rmsd>  (5) 
0.03

>  <cluster>  (5) 
1

$$$$

     RDKit          3D

 33 34  0  0  0  0  0  0  0  0999 V2000
  138.3210   76.2910  222.6750 C   0  0  0  0  0  0  0  0  0  0  0  0
  139.3700   75.9220  221.5900 C   0  0  0  0  0  0  0  0  0  0  0  0
  140.7140   76.3950  222.0570 C   0  0  0  0  0  0  0  0  0  0  0  0
  139.2190   74.4890  221.2290 C   0  0  0  0  0  0  0  0  0  0  0  0
  139.2970   73.5030  222.2400 N   0  0  0  0  0  0  0  0  0  0  0  0
  140.3300   72.6100  222.5480 C   0  0  0  0  0  0  0  0  0  0  0  0
  141.4230   72.5440  221.9520 O   0  0  0  0  0  0  0  0  0  0  0  0
  140.1540   71.6510  223.6620 C   0  0  0  0  0  0  0  0  0  0  0  0
  139.4570   70.4730  223.5080 C   0  0  0  0  0  0  0  0  0  0  0  0
  139.2920   69.5790  224.5450 C   0  0  0  0  0  0  0  0  0  0  0  0
  139.8300   69.8470  225.7880 C   0  0  0  0  0  0  0  0  0  0  0  0
  139.6800   68.9660  226.8490 C   0  0  0  0  0  0  0  0  0  0  0  0
  140.2250   69.2480  228.0850 C   0  0  0  0  0  0  0  0  0  0  0  0
  140.0810   68.3930  229.1260 F   0  0  0  0  0  0  0  0  0  0  0  0
  140.9290   70.4420  228.2400 C   0  0  0  0  0  0  0  0  0  0  0  0
  141.0760   71.3180  227.1740 C   0  0  0  0  0  0  0  0  0  0  0  0
  140.5240   71.0350  225.9200 C   0  0  0  0  0  0  0  0  0  0  0  0
  140.6690   71.8890  224.8860 N   0  0  0  0  0  0  0  0  0  0  0  0
  138.7567   76.1377  223.6734 H   0  0  0  0  0  0  0  0  0  0  0  0
  138.0299   77.3455  222.5599 H   0  0  0  0  0  0  0  0  0  0  0  0
  137.4338   75.6510  222.5599 H   0  0  0  0  0  0  0  0  0  0  0  0
  139.2203   76.4375  220.6299 H   0  0  0  0  0  0  0  0  0  0  0  0
  140.7380   76.4034  223.1567 H   0  0  0  0  0  0  0  0  0  0  0  0
  141.4932   75.7171  221.6785 H   0  0  0  0  0  0  0  0  0  0  0  0
  140.8969   77.4115  221.6785 H   0  0  0  0  0  0  0  0  0  0  0  0
  138.2332   74.3814  220.7529 H   0  0  0  0  0  0  0  0  0  0  0  0
  140.1006   74.2866  220.6030 H   0  0  0  0  0  0  0  0  0  0  0  0
  138.4270   73.4180  222.8780 H   0  0  0  0  0  0  0  0  0  0  0  0
  139.0182   70.2380  222.5271 H   0  0  0  0  0  0  0  0  0  0  0  0
  138.7292   68.6482  224.3811 H   0  0  0  0  0  0  0  0  0  0  0  0
  139.1195   68.0308  226.7032 H   0  0  0  0  0  0  0  0  0  0  0  0
  141.3715   70.6914  229.2157 H   0  0  0  0  0  0  0  0  0  0  0  0
  141.6374   72.2530  227.3176 H   0  0  0  0  0  0  0  0  0  0  0  0
  1  2  1  0
  2  3  1  0
  2  4  1  0
  4  5  1  0
  5  6  1  0
  6  7  2  0
  6  8  1  0
  8  9  2  0
  9 10  1  0
 10 11  2  0
 11 12  1  0
 12 13  2  0
 13 14  1  0
 13 15  1  0
 15 16  2  0
 16 17  1  0
 17 18  2  0
 18  8  1  0
 17 11  1  0
  1 19  1  0
  1 20  1  0
  1 21  1  0
  2 22  1  0
  3 23  1  0
  3 24  1  0
  3 25  1  0
  4 26  1  0
  4 27  1  0
  5 28  1  0
  9 29  1  0
 10 30  1  0
 12 31  1  0
 15 32  1  0
 16 33  1  0
M  END
>  <smiles>  (6) 
CC(C)CNC(=O)c1ccc2cc(F)ccc2n1

>  <score_type>  (6) 
oracle

>  <origin>  (6) 
autodockgpu

>  <m_score__min__energy>  (6) 
-6.1799999999999997

>  <m_primary>  (6) 
energy

>  <rmsd>  (6) 
1.3423498961334843

>  <m_score__min__rmsd>  (6) 
1.3423498961334843

>  <meeko>  (6) 
{"free_energy": -6.07, "intermolecular_energy": -6.97, "internal_energy": -0.45, "cluster_size": 47, "cluster_id": 1, "rank_in_cluster": 26}

>  <energy>  (6) 
-6.18

>  <cluster_rmsd>  (6) 
0.05

>  <cluster>  (6) 
1

$$$$

     RDKit          3D

 33 34  0  0  0  0  0  0  0  0999 V2000
  137.6570   75.5110  222.3350 C   0  0  0  0  0  0  0  0  0  0  0  0
  138.9720   75.7450  221.5430 C   0  0  0  0  0  0  0  0  0  0  0  0
  139.7920   76.7590  222.2840 C   0  0  0  0  0  0  0  0  0  0  0  0
  139.5970   74.4340  221.2290 C   0  0  0  0  0  0  0  0  0  0  0  0
  139.6380   73.4260  222.2200 N   0  0  0  0  0  0  0  0  0  0  0  0
  139.7220   72.0350  222.0860 C   0  0  0  0  0  0  0  0  0  0  0  0
  139.7910   71.4220  221.0020 O   0  0  0  0  0  0  0  0  0  0  0  0
  139.7310   71.1870  223.3000 C   0  0  0  0  0  0  0  0  0  0  0  0
  139.2240   69.9070  223.2990 C   0  0  0  0  0  0  0  0  0  0  0  0
  139.2330   69.1160  224.4300 C   0  0  0  0  0  0  0  0  0  0  0  0
  139.7590   69.5970  225.6120 C   0  0  0  0  0  0  0  0  0  0  0  0
  139.7800   68.8240  226.7640 C   0  0  0  0  0  0  0  0  0  0  0  0
  140.3100   69.3190  227.9380 C   0  0  0  0  0  0  0  0  0  0  0  0
  140.3340   68.5700  229.0670 F   0  0  0  0  0  0  0  0  0  0  0  0
  140.8230   70.6170  227.9360 C   0  0  0  0  0  0  0  0  0  0  0  0
  140.7980   71.3840  226.7810 C   0  0  0  0  0  0  0  0  0  0  0  0
  140.2610   70.8840  225.5890 C   0  0  0  0  0  0  0  0  0  0  0  0
  140.2390   71.6330  224.4680 N   0  0  0  0  0  0  0  0  0  0  0  0
  137.8673   75.5484  223.4141 H   0  0  0  0  0  0  0  0  0  0  0  0
  136.9287   76.2937  222.0760 H   0  0  0  0  0  0  0  0  0  0  0  0
  137.2434   74.5252  222.0760 H   0  0  0  0  0  0  0  0  0  0  0  0
  138.8210   76.1923  220.5495 H   0  0  0  0  0  0  0  0  0  0  0  0
  139.6703   76.6085  223.3668 H   0  0  0  0  0  0  0  0  0  0  0  0
  140.8519   76.6413  222.0143 H   0  0  0  0  0  0  0  0  0  0  0  0
  139.4552   77.7708  222.0143 H   0  0  0  0  0  0  0  0  0  0  0  0
  139.0502   74.0165  220.3707 H   0  0  0  0  0  0  0  0  0  0  0  0
  140.6565   74.6844  221.0719 H   0  0  0  0  0  0  0  0  0  0  0  0
  139.5980   73.7750  223.2440 H   0  0  0  0  0  0  0  0  0  0  0  0
  138.7989   69.5025  222.3686 H   0  0  0  0  0  0  0  0  0  0  0  0
  138.8191   68.0976  224.3892 H   0  0  0  0  0  0  0  0  0  0  0  0
  139.3691   67.8039  226.7412 H   0  0  0  0  0  0  0  0  0  0  0  0
  141.2510   71.0353  228.8589 H   0  0  0  0  0  0  0  0  0  0  0  0
  141.2079   72.4046  226.8020 H   0  0  0  0  0  0  0  0  0  0  0  0
  1  2  1  0
  2  3  1  0
  2  4  1  0
  4  5  1  0
  5  6  1  0
  6  7  2  0
  6  8  1  0
  8  9  2  0
  9 10  1  0
 10 11  2  0
 11 12  1  0
 12 13  2  0
 13 14  1  0
 13 15  1  0
 15 16  2  0
 16 17  1  0
 17 18  2  0
 18  8  1  0
 17 11  1  0
  1 19  1  0
  1 20  1  0
  1 21  1  0
  2 22  1  0
  3 23  1  0
  3 24  1  0
  3 25  1  0
  4 26  1  0
  4 27  1  0
  5 28  1  0
  9 29  1  0
 10 30  1  0
 12 31  1  0
 15 32  1  0
 16 33  1  0
M  END
>  <smiles>  (7) 
CC(C)CNC(=O)c1ccc2cc(F)ccc2n1

>  <score_type>  (7) 
oracle

>  <origin>  (7) 
autodockgpu

>  <m_score__min__energy>  (7) 
-6.1799999999999997

>  <m_primary>  (7) 
energy

>  <rmsd>  (7) 
1.019574134503207

>  <m_score__min__rmsd>  (7) 
1.019574134503207

>  <meeko>  (7) 
{"free_energy": -5.67, "intermolecular_energy": -6.57, "internal_energy": -0.66, "cluster_size": 47, "cluster_id": 1, "rank_in_cluster": 47}

>  <energy>  (7) 
-6.18

>  <cluster_rmsd>  (7) 
0.04

>  <cluster>  (7) 
1

$$$$

     RDKit          3D

 33 34  0  0  0  0  0  0  0  0999 V2000
  138.3100   76.2250  222.4960 C   0  0  0  0  0  0  0  0  0  0  0  0
  139.5970   76.1130  221.6330 C   0  0  0  0  0  0  0  0  0  0  0  0
  140.7080   76.8150  222.3560 C   0  0  0  0  0  0  0  0  0  0  0  0
  139.8040   74.6950  221.2400 C   0  0  0  0  0  0  0  0  0  0  0  0
  139.7930   73.6880  222.2330 N   0  0  0  0  0  0  0  0  0  0  0  0
  140.3980   72.4250  222.2410 C   0  0  0  0  0  0  0  0  0  0  0  0
  141.0980   71.9600  221.3190 O   0  0  0  0  0  0  0  0  0  0  0  0
  140.2170   71.5400  223.4130 C   0  0  0  0  0  0  0  0  0  0  0  0
  139.5740   70.3250  223.3180 C   0  0  0  0  0  0  0  0  0  0  0  0
  139.4050   69.5000  224.4110 C   0  0  0  0  0  0  0  0  0  0  0  0
  139.8850   69.8760  225.6490 C   0  0  0  0  0  0  0  0  0  0  0  0
  139.7290   69.0660  226.7650 C   0  0  0  0  0  0  0  0  0  0  0  0
  140.2150   69.4570  227.9960 C   0  0  0  0  0  0  0  0  0  0  0  0
  140.0660   68.6710  229.0890 F   0  0  0  0  0  0  0  0  0  0  0  0
  140.8650   70.6880  228.0890 C   0  0  0  0  0  0  0  0  0  0  0  0
  141.0170   71.4920  226.9700 C   0  0  0  0  0  0  0  0  0  0  0  0
  140.5260   71.0990  225.7210 C   0  0  0  0  0  0  0  0  0  0  0  0
  140.6760   71.8850  224.6340 N   0  0  0  0  0  0  0  0  0  0  0  0
  138.5802   76.2015  223.5620 H   0  0  0  0  0  0  0  0  0  0  0  0
  137.7972   77.1712  222.2685 H   0  0  0  0  0  0  0  0  0  0  0  0
  137.6414   75.3816  222.2685 H   0  0  0  0  0  0  0  0  0  0  0  0
  139.5324   76.6316  220.6651 H   0  0  0  0  0  0  0  0  0  0  0  0
  140.5570   76.7196  223.4414 H   0  0  0  0  0  0  0  0  0  0  0  0
  141.6706   76.3609  222.0784 H   0  0  0  0  0  0  0  0  0  0  0  0
  140.7111   77.8794  222.0784 H   0  0  0  0  0  0  0  0  0  0  0  0
  139.0109   74.4434  220.5205 H   0  0  0  0  0  0  0  0  0  0  0  0
  140.8389   74.6788  220.8674 H   0  0  0  0  0  0  0  0  0  0  0  0
  139.2330   73.9210  223.1290 H   0  0  0  0  0  0  0  0  0  0  0  0
  139.1836   70.0030  222.3413 H   0  0  0  0  0  0  0  0  0  0  0  0
  138.8850   68.5376  224.2950 H   0  0  0  0  0  0  0  0  0  0  0  0
  139.2115   68.1003  226.6671 H   0  0  0  0  0  0  0  0  0  0  0  0
  141.2605   71.0236  229.0590 H   0  0  0  0  0  0  0  0  0  0  0  0
  141.5340   72.4581  227.0664 H   0  0  0  0  0  0  0  0  0  0  0  0
  1  2  1  0
  2  3  1  0
  2  4  1  0
  4  5  1  0
  5  6  1  0
  6  7  2  0
  6  8  1  0
  8  9  2  0
  9 10  1  0
 10 11  2  0
 11 12  1  0
 12 13  2  0
 13 14  1  0
 13 15  1  0
 15 16  2  0
 16 17  1  0
 17 18  2  0
 18  8  1  0
 17 11  1  0
  1 19  1  0
  1 20  1  0
  1 21  1  0
  2 22  1  0
  3 23  1  0
  3 24  1  0
  3 25  1  0
  4 26  1  0
  4 27  1  0
  5 28  1  0
  9 29  1  0
 10 30  1  0
 12 31  1  0
 15 32  1  0
 16 33  1  0
M  END
>  <smiles>  (8) 
CC(C)CNC(=O)c1ccc2cc(F)ccc2n1

>  <score_type>  (8) 
oracle

>  <origin>  (8) 
autodockgpu

>  <m_score__min__energy>  (8) 
-6.1799999999999997

>  <m_primary>  (8) 
energy

>  <rmsd>  (8) 
1.3729742464648464

>  <m_score__min__rmsd>  (8) 
1.3729742464648464

>  <meeko>  (8) 
{"free_energy": -6.1, "intermolecular_energy": -6.99, "internal_energy": -0.48, "cluster_size": 47, "cluster_id": 1, "rank_in_cluster": 23}

>  <energy>  (8) 
-6.18

>  <cluster_rmsd>  (8) 
0.03

>  <cluster>  (8) 
1

$$$$

     RDKit          3D

 33 34  0  0  0  0  0  0  0  0999 V2000
  138.2390   76.3490  222.7120 C   0  0  0  0  0  0  0  0  0  0  0  0
  139.3590   75.9550  221.7110 C   0  0  0  0  0  0  0  0  0  0  0  0
  140.6750   76.3820  222.2880 C   0  0  0  0  0  0  0  0  0  0  0  0
  139.1940   74.5300  221.3240 C   0  0  0  0  0  0  0  0  0  0  0  0
  139.3120   73.5220  222.3100 N   0  0  0  0  0  0  0  0  0  0  0  0
  140.3210   72.5730  222.5110 C   0  0  0  0  0  0  0  0  0  0  0  0
  141.3510   72.4640  221.8160 O   0  0  0  0  0  0  0  0  0  0  0  0
  140.1960   71.6030  223.6220 C   0  0  0  0  0  0  0  0  0  0  0  0
  139.6010   70.3730  223.4530 C   0  0  0  0  0  0  0  0  0  0  0  0
  139.4840   69.4680  224.4880 C   0  0  0  0  0  0  0  0  0  0  0  0
  139.9690   69.7790  225.7430 C   0  0  0  0  0  0  0  0  0  0  0  0
  139.8650   68.8880  226.8020 C   0  0  0  0  0  0  0  0  0  0  0  0
  140.3560   69.2140  228.0500 C   0  0  0  0  0  0  0  0  0  0  0  0
  140.2580   68.3490  229.0890 F   0  0  0  0  0  0  0  0  0  0  0  0
  140.9580   70.4610  228.2180 C   0  0  0  0  0  0  0  0  0  0  0  0
  141.0590   71.3460  227.1550 C   0  0  0  0  0  0  0  0  0  0  0  0
  140.5620   71.0190  225.8890 C   0  0  0  0  0  0  0  0  0  0  0  0
  140.6620   71.8820  224.8570 N   0  0  0  0  0  0  0  0  0  0  0  0
  138.6052   76.2202  223.7412 H   0  0  0  0  0  0  0  0  0  0  0  0
  137.9573   77.4002  222.5519 H   0  0  0  0  0  0  0  0  0  0  0  0
  137.3612   75.7057  222.5519 H   0  0  0  0  0  0  0  0  0  0  0  0
  139.3018   76.4820  220.7472 H   0  0  0  0  0  0  0  0  0  0  0  0
  140.6172   76.3632  223.3863 H   0  0  0  0  0  0  0  0  0  0  0  0
  141.4639   75.6937  221.9505 H   0  0  0  0  0  0  0  0  0  0  0  0
  140.9096   77.4023  221.9505 H   0  0  0  0  0  0  0  0  0  0  0  0
  138.1903   74.4319  220.8847 H   0  0  0  0  0  0  0  0  0  0  0  0
  140.0498   74.3422  220.6590 H   0  0  0  0  0  0  0  0  0  0  0  0
  138.4990   73.4690  223.0230 H   0  0  0  0  0  0  0  0  0  0  0  0
  139.2067   70.1034  222.4622 H   0  0  0  0  0  0  0  0  0  0  0  0
  139.0024   68.4947  224.3127 H   0  0  0  0  0  0  0  0  0  0  0  0
  139.3856   67.9105  226.6448 H   0  0  0  0  0  0  0  0  0  0  0  0
  141.3565   70.7452  229.2031 H   0  0  0  0  0  0  0  0  0  0  0  0
  141.5390   72.3235  227.3103 H   0  0  0  0  0  0  0  0  0  0  0  0
  1  2  1  0
  2  3  1  0
  2  4  1  0
  4  5  1  0
  5  6  1  0
  6  7  2  0
  6  8  1  0
  8  9  2  0
  9 10  1  0
 10 11  2  0
 11 12  1  0
 12 13  2  0
 13 14  1  0
 13 15  1  0
 15 16  2  0
 16 17  1  0
 17 18  2  0
 18  8  1  0
 17 11  1  0
  1 19  1  0
  1 20  1  0
  1 21  1  0
  2 22  1  0
  3 23  1  0
  3 24  1  0
  3 25  1  0
  4 26  1  0
  4 27  1  0
  5 28  1  0
  9 29  1  0
 10 30  1  0
 12 31  1  0
 15 32  1  0
 16 33  1  0
M  END
>  <smiles>  (9) 
CC(C)CNC(=O)c1ccc2cc(F)ccc2n1

>  <score_type>  (9) 
oracle

>  <origin>  (9) 
autodockgpu

>  <m_score__min__energy>  (9) 
-6.1799999999999997

>  <m_primary>  (9) 
energy

>  <rmsd>  (9) 
1.3006425726431305

>  <m_score__min__rmsd>  (9) 
1.3006425726431305

>  <meeko>  (9) 
{"free_energy": -6.13, "intermolecular_energy": -7.02, "internal_energy": -0.46, "cluster_size": 47, "cluster_id": 1, "rank_in_cluster": 20}

>  <energy>  (9) 
-6.18

>  <cluster_rmsd>  (9) 
0.04

>  <cluster>  (9) 
1

$$$$

     RDKit          3D

 33 34  0  0  0  0  0  0  0  0999 V2000
  144.5540   73.2580  220.5370 C   0  0  0  0  0  0  0  0  0  0  0  0
  143.2290   74.0630  220.6260 C   0  0  0  0  0  0  0  0  0  0  0  0
  143.3230   75.2270  219.6860 C   0  0  0  0  0  0  0  0  0  0  0  0
  142.0790   73.1340  220.4760 C   0  0  0  0  0  0  0  0  0  0  0  0
  141.6440   72.3760  221.5890 N   0  0  0  0  0  0  0  0  0  0  0  0
  140.5670   72.5880  222.4560 C   0  0  0  0  0  0  0  0  0  0  0  0
  139.7560   73.5330  222.3760 O   0  0  0  0  0  0  0  0  0  0  0  0
  140.3340   71.6430  223.5710 C   0  0  0  0  0  0  0  0  0  0  0  0
  139.6430   70.4640  223.3960 C   0  0  0  0  0  0  0  0  0  0  0  0
  139.4250   69.5830  224.4350 C   0  0  0  0  0  0  0  0  0  0  0  0
  139.9020   69.8640  225.6990 C   0  0  0  0  0  0  0  0  0  0  0  0
  139.6980   68.9960  226.7620 C   0  0  0  0  0  0  0  0  0  0  0  0
  140.1820   69.2920  228.0200 C   0  0  0  0  0  0  0  0  0  0  0  0
  139.9860   68.4490  229.0630 F   0  0  0  0  0  0  0  0  0  0  0  0
  140.8810   70.4870  228.1950 C   0  0  0  0  0  0  0  0  0  0  0  0
  141.0810   71.3500  227.1280 C   0  0  0  0  0  0  0  0  0  0  0  0
  140.5920   71.0520  225.8520 C   0  0  0  0  0  0  0  0  0  0  0  0
  140.7890   71.8950  224.8160 N   0  0  0  0  0  0  0  0  0  0  0  0
  144.9176   73.0371  221.5514 H   0  0  0  0  0  0  0  0  0  0  0  0
  144.3751   72.3158  219.9983 H   0  0  0  0  0  0  0  0  0  0  0  0
  145.3078   73.8509  219.9983 H   0  0  0  0  0  0  0  0  0  0  0  0
  143.0512   74.5227  221.6094 H   0  0  0  0  0  0  0  0  0  0  0  0
  143.3983   76.1599  220.2640 H   0  0  0  0  0  0  0  0  0  0  0  0
  144.2150   75.1153  219.0521 H   0  0  0  0  0  0  0  0  0  0  0  0
  142.4246   75.2599  219.0521 H   0  0  0  0  0  0  0  0  0  0  0  0
  141.2211   73.7381  220.1457 H   0  0  0  0  0  0  0  0  0  0  0  0
  142.4527   72.3724  219.7758 H   0  0  0  0  0  0  0  0  0  0  0  0
  142.2310   71.4940  221.8110 H   0  0  0  0  0  0  0  0  0  0  0  0
  139.2532   70.2176  222.3973 H   0  0  0  0  0  0  0  0  0  0  0  0
  138.8680   68.6517  224.2549 H   0  0  0  0  0  0  0  0  0  0  0  0
  139.1434   68.0600  226.6000 H   0  0  0  0  0  0  0  0  0  0  0  0
  141.2768   70.7467  229.1879 H   0  0  0  0  0  0  0  0  0  0  0  0
  141.6348   72.2868  227.2883 H   0  0  0  0  0  0  0  0  0  0  0  0
  1  2  1  0
  2  3  1  0
  2  4  1  0
  4  5  1  0
  5  6  1  0
  6  7  2  0
  6  8  1  0
  8  9  2  0
  9 10  1  0
 10 11  2  0
 11 12  1  0
 12 13  2  0
 13 14  1  0
 13 15  1  0
 15 16  2  0
 16 17  1  0
 17 18  2  0
 18  8  1  0
 17 11  1  0
  1 19  1  0
  1 20  1  0
  1 21  1  0
  2 22  1  0
  3 23  1  0
  3 24  1  0
  3 25  1  0
  4 26  1  0
  4 27  1  0
  5 28  1  0
  9 29  1  0
 10 30  1  0
 12 31  1  0
 15 32  1  0
 16 33  1  0
M  END
>  <smiles>  (10) 
CC(C)CNC(=O)c1ccc2cc(F)ccc2n1

>  <score_type>  (10) 
oracle

>  <origin>  (10) 
autodockgpu

>  <m_score__min__energy>  (10) 
-6.1799999999999997

>  <m_primary>  (10) 
energy

>  <rmsd>  (10) 
2.275812542389321

>  <m_score__min__rmsd>  (10) 
2.275812542389321

>  <meeko>  (10) 
{"free_energy": -6.09, "intermolecular_energy": -6.98, "internal_energy": -0.39, "cluster_size": 3, "cluster_id": 2, "rank_in_cluster": 2}

>  <energy>  (10) 
-6.18

>  <cluster_rmsd>  (10) 
0.03

>  <cluster>  (10) 
1

$$$$

     RDKit          3D

 33 34  0  0  0  0  0  0  0  0999 V2000
  138.2420   76.3550  222.7230 C   0  0  0  0  0  0  0  0  0  0  0  0
  139.3780   75.9750  221.7350 C   0  0  0  0  0  0  0  0  0  0  0  0
  140.6830   76.4100  222.3310 C   0  0  0  0  0  0  0  0  0  0  0  0
  139.2290   74.5500  221.3400 C   0  0  0  0  0  0  0  0  0  0  0  0
  139.3480   73.5380  222.3210 N   0  0  0  0  0  0  0  0  0  0  0  0
  140.3390   72.5650  222.4950 C   0  0  0  0  0  0  0  0  0  0  0  0
  141.3480   72.4320  221.7750 O   0  0  0  0  0  0  0  0  0  0  0  0
  140.2190   71.5970  223.6090 C   0  0  0  0  0  0  0  0  0  0  0  0
  139.6300   70.3630  223.4430 C   0  0  0  0  0  0  0  0  0  0  0  0
  139.5180   69.4600  224.4800 C   0  0  0  0  0  0  0  0  0  0  0  0
  140.0010   69.7760  225.7340 C   0  0  0  0  0  0  0  0  0  0  0  0
  139.9020   68.8880  226.7950 C   0  0  0  0  0  0  0  0  0  0  0  0
  140.3910   69.2190  228.0430 C   0  0  0  0  0  0  0  0  0  0  0  0
  140.2970   68.3570  229.0830 F   0  0  0  0  0  0  0  0  0  0  0  0
  140.9860   70.4700  228.2080 C   0  0  0  0  0  0  0  0  0  0  0  0
  141.0820   71.3530  227.1430 C   0  0  0  0  0  0  0  0  0  0  0  0
  140.5870   71.0200  225.8770 C   0  0  0  0  0  0  0  0  0  0  0  0
  140.6820   71.8820  224.8440 N   0  0  0  0  0  0  0  0  0  0  0  0
  138.5996   76.2354  223.7564 H   0  0  0  0  0  0  0  0  0  0  0  0
  137.9458   77.4012  222.5563 H   0  0  0  0  0  0  0  0  0  0  0  0
  137.3759   75.6977  222.5563 H   0  0  0  0  0  0  0  0  0  0  0  0
  139.3296   76.5060  220.7729 H   0  0  0  0  0  0  0  0  0  0  0  0
  140.6110   76.3860  223.4284 H   0  0  0  0  0  0  0  0  0  0  0  0
  141.4818   75.7295  222.0010 H   0  0  0  0  0  0  0  0  0  0  0  0
  140.9137   77.4336  222.0010 H   0  0  0  0  0  0  0  0  0  0  0  0
  138.2298   74.4452  220.8922 H   0  0  0  0  0  0  0  0  0  0  0  0
  140.0923   74.3735  220.6815 H   0  0  0  0  0  0  0  0  0  0  0  0
  138.5530   73.5040  223.0550 H   0  0  0  0  0  0  0  0  0  0  0  0
  139.2367   70.0890  222.4529 H   0  0  0  0  0  0  0  0  0  0  0  0
  139.0416   68.4837  224.3068 H   0  0  0  0  0  0  0  0  0  0  0  0
  139.4278   67.9076  226.6401 H   0  0  0  0  0  0  0  0  0  0  0  0
  141.3828   70.7588  229.1924 H   0  0  0  0  0  0  0  0  0  0  0  0
  141.5562   72.3337  227.2962 H   0  0  0  0  0  0  0  0  0  0  0  0
  1  2  1  0
  2  3  1  0
  2  4  1  0
  4  5  1  0
  5  6  1  0
  6  7  2  0
  6  8  1  0
  8  9  2  0
  9 10  1  0
 10 11  2  0
 11 12  1  0
 12 13  2  0
 13 14  1  0
 13 15  1  0
 15 16  2  0
 16 17  1  0
 17 18  2  0
 18  8  1  0
 17 11  1  0
  1 19  1  0
  1 20  1  0
  1 21  1  0
  2 22  1  0
  3 23  1  0
  3 24  1  0
  3 25  1  0
  4 26  1  0
  4 27  1  0
  5 28  1  0
  9 29  1  0
 10 30  1  0
 12 31  1  0
 15 32  1  0
 16 33  1  0
M  END
>  <smiles>  (11) 
CC(C)CNC(=O)c1ccc2cc(F)ccc2n1

>  <score_type>  (11) 
oracle

>  <origin>  (11) 
autodockgpu

>  <m_score__min__energy>  (11) 
-6.1799999999999997

>  <m_primary>  (11) 
energy

>  <rmsd>  (11) 
1.3056250634323374

>  <m_score__min__rmsd>  (11) 
1.3056250634323374

>  <meeko>  (11) 
{"free_energy": -6.14, "intermolecular_energy": -7.03, "internal_energy": -0.46, "cluster_size": 47, "cluster_id": 1, "rank_in_cluster": 18}

>  <energy>  (11) 
-6.18

>  <cluster_rmsd>  (11) 
0.02

>  <cluster>  (11) 
1

$$$$

     RDKit          3D

 33 34  0  0  0  0  0  0  0  0999 V2000
  138.3190   76.2210  222.7000 C   0  0  0  0  0  0  0  0  0  0  0  0
  139.5180   76.0900  221.7220 C   0  0  0  0  0  0  0  0  0  0  0  0
  140.7070   76.7560  222.3460 C   0  0  0  0  0  0  0  0  0  0  0  0
  139.6520   74.6720  221.2980 C   0  0  0  0  0  0  0  0  0  0  0  0
  139.7180   73.6540  222.2780 N   0  0  0  0  0  0  0  0  0  0  0  0
  139.9610   72.2830  222.1360 C   0  0  0  0  0  0  0  0  0  0  0  0
  140.1870   71.7030  221.0560 O   0  0  0  0  0  0  0  0  0  0  0  0
  139.9600   71.4170  223.3370 C   0  0  0  0  0  0  0  0  0  0  0  0
  139.5260   70.1100  223.2930 C   0  0  0  0  0  0  0  0  0  0  0  0
  139.5240   69.3020  224.4110 C   0  0  0  0  0  0  0  0  0  0  0  0
  139.9640   69.7910  225.6250 C   0  0  0  0  0  0  0  0  0  0  0  0
  139.9720   69.0020  226.7660 C   0  0  0  0  0  0  0  0  0  0  0  0
  140.4160   69.5060  227.9710 C   0  0  0  0  0  0  0  0  0  0  0  0
  140.4270   68.7400  229.0890 F   0  0  0  0  0  0  0  0  0  0  0  0
  140.8540   70.8300  228.0130 C   0  0  0  0  0  0  0  0  0  0  0  0
  140.8420   71.6130  226.8690 C   0  0  0  0  0  0  0  0  0  0  0  0
  140.3930   71.1050  225.6450 C   0  0  0  0  0  0  0  0  0  0  0  0
  140.3840   71.8710  224.5350 N   0  0  0  0  0  0  0  0  0  0  0  0
  138.6852   76.1810  223.7365 H   0  0  0  0  0  0  0  0  0  0  0  0
  137.8088   77.1802  222.5282 H   0  0  0  0  0  0  0  0  0  0  0  0
  137.6137   75.3946  222.5282 H   0  0  0  0  0  0  0  0  0  0  0  0
  139.3787   76.6226  220.7697 H   0  0  0  0  0  0  0  0  0  0  0  0
  140.6212   76.7079  223.4416 H   0  0  0  0  0  0  0  0  0  0  0  0
  141.6251   76.2408  222.0272 H   0  0  0  0  0  0  0  0  0  0  0  0
  140.7473   77.8080  222.0272 H   0  0  0  0  0  0  0  0  0  0  0  0
  138.7849   74.4458  220.6600 H   0  0  0  0  0  0  0  0  0  0  0  0
  140.6437   74.6375  220.8234 H   0  0  0  0  0  0  0  0  0  0  0  0
  139.5550   73.9770  223.2980 H   0  0  0  0  0  0  0  0  0  0  0  0
  139.1702   69.6983  222.3370 H   0  0  0  0  0  0  0  0  0  0  0  0
  139.1702   68.2632  224.3350 H   0  0  0  0  0  0  0  0  0  0  0  0
  139.6199   67.9614  226.7092 H   0  0  0  0  0  0  0  0  0  0  0  0
  141.2119   71.2562  228.9618 H   0  0  0  0  0  0  0  0  0  0  0  0
  141.1924   72.6542  226.9246 H   0  0  0  0  0  0  0  0  0  0  0  0
  1  2  1  0
  2  3  1  0
  2  4  1  0
  4  5  1  0
  5  6  1  0
  6  7  2  0
  6  8  1  0
  8  9  2  0
  9 10  1  0
 10 11  2  0
 11 12  1  0
 12 13  2  0
 13 14  1  0
 13 15  1  0
 15 16  2  0
 16 17  1  0
 17 18  2  0
 18  8  1  0
 17 11  1  0
  1 19  1  0
  1 20  1  0
  1 21  1  0
  2 22  1  0
  3 23  1  0
  3 24  1  0
  3 25  1  0
  4 26  1  0
  4 27  1  0
  5 28  1  0
  9 29  1  0
 10 30  1  0
 12 31  1  0
 15 32  1  0
 16 33  1  0
M  END
>  <smiles>  (12) 
CC(C)CNC(=O)c1ccc2cc(F)ccc2n1

>  <score_type>  (12) 
oracle

>  <origin>  (12) 
autodockgpu

>  <m_score__min__energy>  (12) 
-6.1799999999999997

>  <m_primary>  (12) 
energy

>  <rmsd>  (12) 
1.1962974439713776

>  <m_score__min__rmsd>  (12) 
1.1962974439713776

>  <meeko>  (12) 
{"free_energy": -5.92, "intermolecular_energy": -6.82, "internal_energy": -0.64, "cluster_size": 47, "cluster_id": 1, "rank_in_cluster": 30}

>  <energy>  (12) 
-6.17

>  <cluster_rmsd>  (12) 
0.04

>  <cluster>  (12) 
1

$$$$

     RDKit          3D

 33 34  0  0  0  0  0  0  0  0999 V2000
  138.3300   76.2110  222.4930 C   0  0  0  0  0  0  0  0  0  0  0  0
  139.6080   76.1210  221.6150 C   0  0  0  0  0  0  0  0  0  0  0  0
  140.7110   76.8550  222.3170 C   0  0  0  0  0  0  0  0  0  0  0  0
  139.8420   74.7050  221.2320 C   0  0  0  0  0  0  0  0  0  0  0  0
  139.8210   73.7000  222.2280 N   0  0  0  0  0  0  0  0  0  0  0  0
  140.4300   72.4410  222.2490 C   0  0  0  0  0  0  0  0  0  0  0  0
  141.1470   71.9760  221.3400 O   0  0  0  0  0  0  0  0  0  0  0  0
  140.2350   71.5580  223.4210 C   0  0  0  0  0  0  0  0  0  0  0  0
  139.5820   70.3490  223.3240 C   0  0  0  0  0  0  0  0  0  0  0  0
  139.4000   69.5260  224.4160 C   0  0  0  0  0  0  0  0  0  0  0  0
  139.8760   69.9000  225.6570 C   0  0  0  0  0  0  0  0  0  0  0  0
  139.7060   69.0920  226.7720 C   0  0  0  0  0  0  0  0  0  0  0  0
  140.1890   69.4800  228.0060 C   0  0  0  0  0  0  0  0  0  0  0  0
  140.0270   68.6960  229.0990 F   0  0  0  0  0  0  0  0  0  0  0  0
  140.8490   70.7050  228.1020 C   0  0  0  0  0  0  0  0  0  0  0  0
  141.0140   71.5070  226.9820 C   0  0  0  0  0  0  0  0  0  0  0  0
  140.5270   71.1170  225.7310 C   0  0  0  0  0  0  0  0  0  0  0  0
  140.6900   71.9000  224.6450 N   0  0  0  0  0  0  0  0  0  0  0  0
  138.6131   76.1911  223.5558 H   0  0  0  0  0  0  0  0  0  0  0  0
  137.7990   77.1488  222.2725 H   0  0  0  0  0  0  0  0  0  0  0  0
  137.6728   75.3569  222.2725 H   0  0  0  0  0  0  0  0  0  0  0  0
  139.5199   76.6293  220.6435 H   0  0  0  0  0  0  0  0  0  0  0  0
  140.5765   76.7655  223.4051 H   0  0  0  0  0  0  0  0  0  0  0  0
  141.6804   76.4213  222.0305 H   0  0  0  0  0  0  0  0  0  0  0  0
  140.6853   77.9167  222.0305 H   0  0  0  0  0  0  0  0  0  0  0  0
  139.0690   74.4412  220.4953 H   0  0  0  0  0  0  0  0  0  0  0  0
  140.8855   74.7012  220.8839 H   0  0  0  0  0  0  0  0  0  0  0  0
  139.2450   73.9340  223.1150 H   0  0  0  0  0  0  0  0  0  0  0  0
  139.1937   70.0300  222.3455 H   0  0  0  0  0  0  0  0  0  0  0  0
  138.8733   68.5676  224.2976 H   0  0  0  0  0  0  0  0  0  0  0  0
  139.1802   68.1310  226.6718 H   0  0  0  0  0  0  0  0  0  0  0  0
  141.2420   71.0380  229.0739 H   0  0  0  0  0  0  0  0  0  0  0  0
  141.5385   72.4689  227.0803 H   0  0  0  0  0  0  0  0  0  0  0  0
  1  2  1  0
  2  3  1  0
  2  4  1  0
  4  5  1  0
  5  6  1  0
  6  7  2  0
  6  8  1  0
  8  9  2  0
  9 10  1  0
 10 11  2  0
 11 12  1  0
 12 13  2  0
 13 14  1  0
 13 15  1  0
 15 16  2  0
 16 17  1  0
 17 18  2  0
 18  8  1  0
 17 11  1  0
  1 19  1  0
  1 20  1  0
  1 21  1  0
  2 22  1  0
  3 23  1  0
  3 24  1  0
  3 25  1  0
  4 26  1  0
  4 27  1  0
  5 28  1  0
  9 29  1  0
 10 30  1  0
 12 31  1  0
 15 32  1  0
 16 33  1  0
M  END
>  <smiles>  (13) 
CC(C)CNC(=O)c1ccc2cc(F)ccc2n1

>  <score_type>  (13) 
oracle

>  <origin>  (13) 
autodockgpu

>  <m_score__min__energy>  (13) 
-6.1799999999999997

>  <m_primary>  (13) 
energy

>  <rmsd>  (13) 
1.3996194010550655

>  <m_score__min__rmsd>  (13) 
1.3996194010550655

>  <meeko>  (13) 
{"free_energy": -6.1, "intermolecular_energy": -7.0, "internal_energy": -0.47, "cluster_size": 47, "cluster_id": 1, "rank_in_cluster": 22}

>  <energy>  (13) 
-6.17

>  <cluster_rmsd>  (13) 
0.03

>  <cluster>  (13) 
1

$$$$

     RDKit          3D

 33 34  0  0  0  0  0  0  0  0999 V2000
  138.2700   76.3150  222.7010 C   0  0  0  0  0  0  0  0  0  0  0  0
  139.4520   76.0630  221.7250 C   0  0  0  0  0  0  0  0  0  0  0  0
  140.6990   76.6200  222.3440 C   0  0  0  0  0  0  0  0  0  0  0  0
  139.4530   74.6350  221.3130 C   0  0  0  0  0  0  0  0  0  0  0  0
  139.5110   73.6240  222.3000 N   0  0  0  0  0  0  0  0  0  0  0  0
  140.3940   72.5470  222.4340 C   0  0  0  0  0  0  0  0  0  0  0  0
  141.3410   72.2950  221.6620 O   0  0  0  0  0  0  0  0  0  0  0  0
  140.2290   71.6070  223.5660 C   0  0  0  0  0  0  0  0  0  0  0  0
  139.5860   70.3970  223.4220 C   0  0  0  0  0  0  0  0  0  0  0  0
  139.4310   69.5210  224.4760 C   0  0  0  0  0  0  0  0  0  0  0  0
  139.9240   69.8400  225.7250 C   0  0  0  0  0  0  0  0  0  0  0  0
  139.7820   68.9780  226.8030 C   0  0  0  0  0  0  0  0  0  0  0  0
  140.2820   69.3120  228.0460 C   0  0  0  0  0  0  0  0  0  0  0  0
  140.1470   68.4750  229.1030 F   0  0  0  0  0  0  0  0  0  0  0  0
  140.9320   70.5380  228.1890 C   0  0  0  0  0  0  0  0  0  0  0  0
  141.0700   71.3950  227.1070 C   0  0  0  0  0  0  0  0  0  0  0  0
  140.5650   71.0590  225.8470 C   0  0  0  0  0  0  0  0  0  0  0  0
  140.7010   71.8950  224.7970 N   0  0  0  0  0  0  0  0  0  0  0  0
  138.6283   76.2386  223.7382 H   0  0  0  0  0  0  0  0  0  0  0  0
  137.8597   77.3208  222.5280 H   0  0  0  0  0  0  0  0  0  0  0  0
  137.4851   75.5640  222.5280 H   0  0  0  0  0  0  0  0  0  0  0  0
  139.3625   76.5981  220.7681 H   0  0  0  0  0  0  0  0  0  0  0  0
  140.6130   76.5816  223.4400 H   0  0  0  0  0  0  0  0  0  0  0  0
  141.5657   76.0234  222.0231 H   0  0  0  0  0  0  0  0  0  0  0  0
  140.8331   77.6636  222.0231 H   0  0  0  0  0  0  0  0  0  0  0  0
  138.5304   74.4676  220.7379 H   0  0  0  0  0  0  0  0  0  0  0  0
  140.4051   74.5232  220.7736 H   0  0  0  0  0  0  0  0  0  0  0  0
  138.7600   73.6860  223.0770 H   0  0  0  0  0  0  0  0  0  0  0  0
  139.1838   70.1211  222.4360 H   0  0  0  0  0  0  0  0  0  0  0  0
  138.9120   68.5637  224.3204 H   0  0  0  0  0  0  0  0  0  0  0  0
  139.2648   68.0169  226.6657 H   0  0  0  0  0  0  0  0  0  0  0  0
  141.3390   70.8279  229.1690 H   0  0  0  0  0  0  0  0  0  0  0  0
  141.5863   72.3568  227.2426 H   0  0  0  0  0  0  0  0  0  0  0  0
  1  2  1  0
  2  3  1  0
  2  4  1  0
  4  5  1  0
  5  6  1  0
  6  7  2  0
  6  8  1  0
  8  9  2  0
  9 10  1  0
 10 11  2  0
 11 12  1  0
 12 13  2  0
 13 14  1  0
 13 15  1  0
 15 16  2  0
 16 17  1  0
 17 18  2  0
 18  8  1  0
 17 11  1  0
  1 19  1  0
  1 20  1  0
  1 21  1  0
  2 22  1  0
  3 23  1  0
  3 24  1  0
  3 25  1  0
  4 26  1  0
  4 27  1  0
  5 28  1  0
  9 29  1  0
 10 30  1  0
 12 31  1  0
 15 32  1  0
 16 33  1  0
M  END
>  <smiles>  (14) 
CC(C)CNC(=O)c1ccc2cc(F)ccc2n1

>  <score_type>  (14) 
oracle

>  <origin>  (14) 
autodockgpu

>  <m_score__min__energy>  (14) 
-6.1799999999999997

>  <m_primary>  (14) 
energy

>  <rmsd>  (14) 
1.3534294063957202

>  <m_score__min__rmsd>  (14) 
1.3534294063957202

>  <meeko>  (14) 
{"free_energy": -6.17, "intermolecular_energy": -7.07, "internal_energy": -0.45, "cluster_size": 47, "cluster_id": 1, "rank_in_cluster": 14}

>  <energy>  (14) 
-6.17

>  <cluster_rmsd>  (14) 
0.06

>  <cluster>  (14) 
1

$$$$

     RDKit          3D

 33 34  0  0  0  0  0  0  0  0999 V2000
  138.2860   76.2880  222.6900 C   0  0  0  0  0  0  0  0  0  0  0  0
  139.4710   76.0730  221.7090 C   0  0  0  0  0  0  0  0  0  0  0  0
  140.7040   76.6640  222.3260 C   0  0  0  0  0  0  0  0  0  0  0  0
  139.5120   74.6470  221.2930 C   0  0  0  0  0  0  0  0  0  0  0  0
  139.6290   73.6370  222.2760 N   0  0  0  0  0  0  0  0  0  0  0  0
  139.8090   72.2560  222.1310 C   0  0  0  0  0  0  0  0  0  0  0  0
  139.9140   71.6570  221.0420 O   0  0  0  0  0  0  0  0  0  0  0  0
  139.8850   71.4020  223.3380 C   0  0  0  0  0  0  0  0  0  0  0  0
  139.4670   70.0900  223.3310 C   0  0  0  0  0  0  0  0  0  0  0  0
  139.5370   69.2930  224.4550 C   0  0  0  0  0  0  0  0  0  0  0  0
  140.0360   69.8000  225.6380 C   0  0  0  0  0  0  0  0  0  0  0  0
  140.1180   69.0220  226.7840 C   0  0  0  0  0  0  0  0  0  0  0  0
  140.6210   69.5440  227.9580 C   0  0  0  0  0  0  0  0  0  0  0  0
  140.7040   68.7900  229.0810 F   0  0  0  0  0  0  0  0  0  0  0  0
  141.0430   70.8740  227.9630 C   0  0  0  0  0  0  0  0  0  0  0  0
  140.9580   71.6460  226.8140 C   0  0  0  0  0  0  0  0  0  0  0  0
  140.4490   71.1190  225.6220 C   0  0  0  0  0  0  0  0  0  0  0  0
  140.3680   71.8730  224.5060 N   0  0  0  0  0  0  0  0  0  0  0  0
  138.6507   76.2218  223.7257 H   0  0  0  0  0  0  0  0  0  0  0  0
  137.8444   77.2809  222.5195 H   0  0  0  0  0  0  0  0  0  0  0  0
  137.5237   75.5135  222.5195 H   0  0  0  0  0  0  0  0  0  0  0  0
  139.3625   76.6078  220.7539 H   0  0  0  0  0  0  0  0  0  0  0  0
  140.6207   76.6241  223.4221 H   0  0  0  0  0  0  0  0  0  0  0  0
  141.5859   76.0907  222.0042 H   0  0  0  0  0  0  0  0  0  0  0  0
  140.8095   77.7106  222.0042 H   0  0  0  0  0  0  0  0  0  0  0  0
  138.5823   74.4485  220.7397 H   0  0  0  0  0  0  0  0  0  0  0  0
  140.4540   74.5695  220.7303 H   0  0  0  0  0  0  0  0  0  0  0  0
  139.5710   73.9750  223.3030 H   0  0  0  0  0  0  0  0  0  0  0  0
  139.0647   69.6640  222.4001 H   0  0  0  0  0  0  0  0  0  0  0  0
  139.1937   68.2490  224.4083 H   0  0  0  0  0  0  0  0  0  0  0  0
  139.7778   67.9763  226.7562 H   0  0  0  0  0  0  0  0  0  0  0  0
  141.4468   71.3142  228.8867 H   0  0  0  0  0  0  0  0  0  0  0  0
  141.2970   72.6921  226.8403 H   0  0  0  0  0  0  0  0  0  0  0  0
  1  2  1  0
  2  3  1  0
  2  4  1  0
  4  5  1  0
  5  6  1  0
  6  7  2  0
  6  8  1  0
  8  9  2  0
  9 10  1  0
 10 11  2  0
 11 12  1  0
 12 13  2  0
 13 14  1  0
 13 15  1  0
 15 16  2  0
 16 17  1  0
 17 18  2  0
 18  8  1  0
 17 11  1  0
  1 19  1  0
  1 20  1  0
  1 21  1  0
  2 22  1  0
  3 23  1  0
  3 24  1  0
  3 25  1  0
  4 26  1  0
  4 27  1  0
  5 28  1  0
  9 29  1  0
 10 30  1  0
 12 31  1  0
 15 32  1  0
 16 33  1  0
M  END
>  <smiles>  (15) 
CC(C)CNC(=O)c1ccc2cc(F)ccc2n1

>  <score_type>  (15) 
oracle

>  <origin>  (15) 
autodockgpu

>  <m_score__min__energy>  (15) 
-6.1799999999999997

>  <m_primary>  (15) 
energy

>  <rmsd>  (15) 
1.1425746017349345

>  <m_score__min__rmsd>  (15) 
1.1425746017349345

>  <meeko>  (15) 
{"free_energy": -5.9, "intermolecular_energy": -6.79, "internal_energy": -0.66, "cluster_size": 47, "cluster_id": 1, "rank_in_cluster": 35}

>  <energy>  (15) 
-6.16

>  <cluster_rmsd>  (15) 
0.03

>  <cluster>  (15) 
1

$$$$

     RDKit          3D

 33 34  0  0  0  0  0  0  0  0999 V2000
  140.7250   76.5800  222.3190 C   0  0  0  0  0  0  0  0  0  0  0  0
  140.6020   75.6140  221.1090 C   0  0  0  0  0  0  0  0  0  0  0  0
  141.9580   75.0370  220.8300 C   0  0  0  0  0  0  0  0  0  0  0  0
  139.4760   74.6740  221.3440 C   0  0  0  0  0  0  0  0  0  0  0  0
  139.6070   73.6580  222.3200 N   0  0  0  0  0  0  0  0  0  0  0  0
  139.7910   72.2790  222.1650 C   0  0  0  0  0  0  0  0  0  0  0  0
  139.8870   71.6870  221.0720 O   0  0  0  0  0  0  0  0  0  0  0  0
  139.8830   71.4190  223.3660 C   0  0  0  0  0  0  0  0  0  0  0  0
  139.4870   70.1000  223.3510 C   0  0  0  0  0  0  0  0  0  0  0  0
  139.5720   69.2970  224.4700 C   0  0  0  0  0  0  0  0  0  0  0  0
  140.0650   69.8040  225.6550 C   0  0  0  0  0  0  0  0  0  0  0  0
  140.1620   69.0200  226.7960 C   0  0  0  0  0  0  0  0  0  0  0  0
  140.6580   69.5430  227.9730 C   0  0  0  0  0  0  0  0  0  0  0  0
  140.7550   68.7830  229.0910 F   0  0  0  0  0  0  0  0  0  0  0  0
  141.0580   70.8790  227.9860 C   0  0  0  0  0  0  0  0  0  0  0  0
  140.9580   71.6570  226.8420 C   0  0  0  0  0  0  0  0  0  0  0  0
  140.4560   71.1300  225.6470 C   0  0  0  0  0  0  0  0  0  0  0  0
  140.3610   71.8900  224.5370 N   0  0  0  0  0  0  0  0  0  0  0  0
  140.6520   76.0066  223.2549 H   0  0  0  0  0  0  0  0  0  0  0  0
  141.6960   77.0953  222.2795 H   0  0  0  0  0  0  0  0  0  0  0  0
  139.9141   77.3222  222.2795 H   0  0  0  0  0  0  0  0  0  0  0  0
  140.3199   76.1093  220.1682 H   0  0  0  0  0  0  0  0  0  0  0  0
  142.4670   74.8204  221.7808 H   0  0  0  0  0  0  0  0  0  0  0  0
  141.8491   74.1073  220.2523 H   0  0  0  0  0  0  0  0  0  0  0  0
  142.5524   75.7601  220.2523 H   0  0  0  0  0  0  0  0  0  0  0  0
  138.6060   75.2828  221.6311 H   0  0  0  0  0  0  0  0  0  0  0  0
  139.4049   74.1157  220.3989 H   0  0  0  0  0  0  0  0  0  0  0  0
  139.5590   73.9900  223.3490 H   0  0  0  0  0  0  0  0  0  0  0  0
  139.0906   69.6733  222.4179 H   0  0  0  0  0  0  0  0  0  0  0  0
  139.2453   68.2480  224.4172 H   0  0  0  0  0  0  0  0  0  0  0  0
  139.8396   67.9689  226.7619 H   0  0  0  0  0  0  0  0  0  0  0  0
  141.4564   71.3197  228.9118 H   0  0  0  0  0  0  0  0  0  0  0  0
  141.2795   72.7084  226.8749 H   0  0  0  0  0  0  0  0  0  0  0  0
  1  2  1  0
  2  3  1  0
  2  4  1  0
  4  5  1  0
  5  6  1  0
  6  7  2  0
  6  8  1  0
  8  9  2  0
  9 10  1  0
 10 11  2  0
 11 12  1  0
 12 13  2  0
 13 14  1  0
 13 15  1  0
 15 16  2  0
 16 17  1  0
 17 18  2  0
 18  8  1  0
 17 11  1  0
  1 19  1  0
  1 20  1  0
  1 21  1  0
  2 22  1  0
  3 23  1  0
  3 24  1  0
  3 25  1  0
  4 26  1  0
  4 27  1  0
  5 28  1  0
  9 29  1  0
 10 30  1  0
 12 31  1  0
 15 32  1  0
 16 33  1  0
M  END
>  <smiles>  (16) 
CC(C)CNC(=O)c1ccc2cc(F)ccc2n1

>  <score_type>  (16) 
oracle

>  <origin>  (16) 
autodockgpu

>  <m_score__min__energy>  (16) 
-6.1799999999999997

>  <m_primary>  (16) 
energy

>  <rmsd>  (16) 
1.143210763700446

>  <m_score__min__rmsd>  (16) 
1.143210763700446

>  <meeko>  (16) 
{"free_energy": -5.89, "intermolecular_energy": -6.79, "internal_energy": -0.71, "cluster_size": 47, "cluster_id": 1, "rank_in_cluster": 40}

>  <energy>  (16) 
-6.16

>  <cluster_rmsd>  (16) 
0.09

>  <cluster>  (16) 
1

$$$$

     RDKit          3D

 33 34  0  0  0  0  0  0  0  0999 V2000
  138.2810   76.2860  222.7020 C   0  0  0  0  0  0  0  0  0  0  0  0
  139.4660   76.0710  221.7220 C   0  0  0  0  0  0  0  0  0  0  0  0
  140.6980   76.6630  222.3390 C   0  0  0  0  0  0  0  0  0  0  0  0
  139.5080   74.6450  221.3070 C   0  0  0  0  0  0  0  0  0  0  0  0
  139.5520   73.6320  222.2940 N   0  0  0  0  0  0  0  0  0  0  0  0
  140.4100   72.5340  222.4190 C   0  0  0  0  0  0  0  0  0  0  0  0
  141.3430   72.2600  221.6380 O   0  0  0  0  0  0  0  0  0  0  0  0
  140.2320   71.5980  223.5520 C   0  0  0  0  0  0  0  0  0  0  0  0
  139.5800   70.3930  223.4090 C   0  0  0  0  0  0  0  0  0  0  0  0
  139.4140   69.5210  224.4640 C   0  0  0  0  0  0  0  0  0  0  0  0
  139.9060   69.8380  225.7150 C   0  0  0  0  0  0  0  0  0  0  0  0
  139.7530   68.9800  226.7940 C   0  0  0  0  0  0  0  0  0  0  0  0
  140.2510   69.3120  228.0370 C   0  0  0  0  0  0  0  0  0  0  0  0
  140.1050   68.4780  229.0960 F   0  0  0  0  0  0  0  0  0  0  0  0
  140.9110   70.5320  228.1810 C   0  0  0  0  0  0  0  0  0  0  0  0
  141.0600   71.3860  227.0970 C   0  0  0  0  0  0  0  0  0  0  0  0
  140.5560   71.0520  225.8350 C   0  0  0  0  0  0  0  0  0  0  0  0
  140.7030   71.8840  224.7840 N   0  0  0  0  0  0  0  0  0  0  0  0
  138.6452   76.2199  223.7378 H   0  0  0  0  0  0  0  0  0  0  0  0
  137.8395   77.2789  222.5312 H   0  0  0  0  0  0  0  0  0  0  0  0
  137.5188   75.5115  222.5312 H   0  0  0  0  0  0  0  0  0  0  0  0
  139.3576   76.6050  220.7664 H   0  0  0  0  0  0  0  0  0  0  0  0
  140.6146   76.6229  223.4351 H   0  0  0  0  0  0  0  0  0  0  0  0
  141.5805   76.0906  222.0172 H   0  0  0  0  0  0  0  0  0  0  0  0
  140.8025   77.7097  222.0172 H   0  0  0  0  0  0  0  0  0  0  0  0
  138.6086   74.4618  220.7008 H   0  0  0  0  0  0  0  0  0  0  0  0
  140.4795   74.5527  220.7994 H   0  0  0  0  0  0  0  0  0  0  0  0
  138.8090   73.7110  223.0780 H   0  0  0  0  0  0  0  0  0  0  0  0
  139.1793   70.1179  222.4222 H   0  0  0  0  0  0  0  0  0  0  0  0
  138.8870   68.5680  224.3086 H   0  0  0  0  0  0  0  0  0  0  0  0
  139.2281   68.0231  226.6570 H   0  0  0  0  0  0  0  0  0  0  0  0
  141.3169   70.8200  229.1620 H   0  0  0  0  0  0  0  0  0  0  0  0
  141.5842   72.3435  227.2325 H   0  0  0  0  0  0  0  0  0  0  0  0
  1  2  1  0
  2  3  1  0
  2  4  1  0
  4  5  1  0
  5  6  1  0
  6  7  2  0
  6  8  1  0
  8  9  2  0
  9 10  1  0
 10 11  2  0
 11 12  1  0
 12 13  2  0
 13 14  1  0
 13 15  1  0
 15 16  2  0
 16 17  1  0
 17 18  2  0
 18  8  1  0
 17 11  1  0
  1 19  1  0
  1 20  1  0
  1 21  1  0
  2 22  1  0
  3 23  1  0
  3 24  1  0
  3 25  1  0
  4 26  1  0
  4 27  1  0
  5 28  1  0
  9 29  1  0
 10 30  1  0
 12 31  1  0
 15 32  1  0
 16 33  1  0
M  END
>  <smiles>  (17) 
CC(C)CNC(=O)c1ccc2cc(F)ccc2n1

>  <score_type>  (17) 
oracle

>  <origin>  (17) 
autodockgpu

>  <m_score__min__energy>  (17) 
-6.1799999999999997

>  <m_primary>  (17) 
energy

>  <rmsd>  (17) 
1.3612619263545527

>  <m_score__min__rmsd>  (17) 
1.3612619263545527

>  <meeko>  (17) 
{"free_energy": -6.18, "intermolecular_energy": -7.07, "internal_energy": -0.45, "cluster_size": 47, "cluster_id": 1, "rank_in_cluster": 8}

>  <energy>  (17) 
-6.15

>  <cluster_rmsd>  (17) 
0.08

>  <cluster>  (17) 
1

$$$$

     RDKit          3D

 33 34  0  0  0  0  0  0  0  0999 V2000
  138.2880   76.2830  222.6690 C   0  0  0  0  0  0  0  0  0  0  0  0
  139.4880   76.0790  221.7040 C   0  0  0  0  0  0  0  0  0  0  0  0
  140.7050   76.6850  222.3360 C   0  0  0  0  0  0  0  0  0  0  0  0
  139.5490   74.6530  221.2910 C   0  0  0  0  0  0  0  0  0  0  0  0
  139.5890   73.6420  222.2800 N   0  0  0  0  0  0  0  0  0  0  0  0
  140.4010   72.5060  222.3730 C   0  0  0  0  0  0  0  0  0  0  0  0
  141.2870   72.1890  221.5540 O   0  0  0  0  0  0  0  0  0  0  0  0
  140.2300   71.5820  223.5160 C   0  0  0  0  0  0  0  0  0  0  0  0
  139.5770   70.3760  223.3890 C   0  0  0  0  0  0  0  0  0  0  0  0
  139.4170   69.5140  224.4540 C   0  0  0  0  0  0  0  0  0  0  0  0
  139.9160   69.8430  225.6980 C   0  0  0  0  0  0  0  0  0  0  0  0
  139.7690   68.9960  226.7870 C   0  0  0  0  0  0  0  0  0  0  0  0
  140.2750   69.3410  228.0240 C   0  0  0  0  0  0  0  0  0  0  0  0
  140.1350   68.5180  229.0910 F   0  0  0  0  0  0  0  0  0  0  0  0
  140.9350   70.5620  228.1510 C   0  0  0  0  0  0  0  0  0  0  0  0
  141.0780   71.4050  227.0580 C   0  0  0  0  0  0  0  0  0  0  0  0
  140.5670   71.0580  225.8030 C   0  0  0  0  0  0  0  0  0  0  0  0
  140.7080   71.8800  224.7430 N   0  0  0  0  0  0  0  0  0  0  0  0
  138.6399   76.2232  223.7095 H   0  0  0  0  0  0  0  0  0  0  0  0
  137.8377   77.2706  222.4905 H   0  0  0  0  0  0  0  0  0  0  0  0
  137.5366   75.4997  222.4905 H   0  0  0  0  0  0  0  0  0  0  0  0
  139.3875   76.6103  220.7461 H   0  0  0  0  0  0  0  0  0  0  0  0
  140.6113   76.6383  223.4310 H   0  0  0  0  0  0  0  0  0  0  0  0
  141.5987   76.1267  222.0203 H   0  0  0  0  0  0  0  0  0  0  0  0
  140.7980   77.7346  222.0203 H   0  0  0  0  0  0  0  0  0  0  0  0
  138.6597   74.4607  220.6728 H   0  0  0  0  0  0  0  0  0  0  0  0
  140.5279   74.5691  220.7964 H   0  0  0  0  0  0  0  0  0  0  0  0
  138.8840   73.7560  223.0940 H   0  0  0  0  0  0  0  0  0  0  0  0
  139.1703   70.0912  222.4074 H   0  0  0  0  0  0  0  0  0  0  0  0
  138.8891   68.5596  224.3110 H   0  0  0  0  0  0  0  0  0  0  0  0
  139.2429   68.0380  226.6631 H   0  0  0  0  0  0  0  0  0  0  0  0
  141.3463   70.8602  229.1266 H   0  0  0  0  0  0  0  0  0  0  0  0
  141.6029   72.3638  227.1808 H   0  0  0  0  0  0  0  0  0  0  0  0
  1  2  1  0
  2  3  1  0
  2  4  1  0
  4  5  1  0
  5  6  1  0
  6  7  2  0
  6  8  1  0
  8  9  2  0
  9 10  1  0
 10 11  2  0
 11 12  1  0
 12 13  2  0
 13 14  1  0
 13 15  1  0
 15 16  2  0
 16 17  1  0
 17 18  2  0
 18  8  1  0
 17 11  1  0
  1 19  1  0
  1 20  1  0
  1 21  1  0
  2 22  1  0
  3 23  1  0
  3 24  1  0
  3 25  1  0
  4 26  1  0
  4 27  1  0
  5 28  1  0
  9 29  1  0
 10 30  1  0
 12 31  1  0
 15 32  1  0
 16 33  1  0
M  END
>  <smiles>  (18) 
CC(C)CNC(=O)c1ccc2cc(F)ccc2n1

>  <score_type>  (18) 
oracle

>  <origin>  (18) 
autodockgpu

>  <m_score__min__energy>  (18) 
-6.1799999999999997

>  <m_primary>  (18) 
energy

>  <rmsd>  (18) 
1.3525895769880545

>  <m_score__min__rmsd>  (18) 
1.3525895769880545

>  <meeko>  (18) 
{"free_energy": -6.18, "intermolecular_energy": -7.07, "internal_energy": -0.45, "cluster_size": 47, "cluster_id": 1, "rank_in_cluster": 5}

>  <energy>  (18) 
-6.14

>  <cluster_rmsd>  (18) 
0.2

>  <cluster>  (18) 
1

$$$$

     RDKit          3D

 33 34  0  0  0  0  0  0  0  0999 V2000
  140.6580   76.4940  222.2840 C   0  0  0  0  0  0  0  0  0  0  0  0
  140.6380   75.5940  221.0180 C   0  0  0  0  0  0  0  0  0  0  0  0
  142.0310   75.0940  220.7760 C   0  0  0  0  0  0  0  0  0  0  0  0
  139.5470   74.5930  221.1440 C   0  0  0  0  0  0  0  0  0  0  0  0
  139.6200   73.6060  222.1540 N   0  0  0  0  0  0  0  0  0  0  0  0
  140.1920   72.3290  222.1250 C   0  0  0  0  0  0  0  0  0  0  0  0
  140.7790   71.8280  221.1450 O   0  0  0  0  0  0  0  0  0  0  0  0
  140.1170   71.4710  223.3290 C   0  0  0  0  0  0  0  0  0  0  0  0
  139.5570   70.2130  223.2960 C   0  0  0  0  0  0  0  0  0  0  0  0
  139.4870   69.4140  224.4180 C   0  0  0  0  0  0  0  0  0  0  0  0
  139.9850   69.8610  225.6250 C   0  0  0  0  0  0  0  0  0  0  0  0
  139.9280   69.0790  226.7690 C   0  0  0  0  0  0  0  0  0  0  0  0
  140.4310   69.5410  227.9680 C   0  0  0  0  0  0  0  0  0  0  0  0
  140.3780   68.7820  229.0890 F   0  0  0  0  0  0  0  0  0  0  0  0
  140.9980   70.8160  227.9990 C   0  0  0  0  0  0  0  0  0  0  0  0
  141.0510   71.5930  226.8510 C   0  0  0  0  0  0  0  0  0  0  0  0
  140.5420   71.1260  225.6350 C   0  0  0  0  0  0  0  0  0  0  0  0
  140.5960   71.8850  224.5210 N   0  0  0  0  0  0  0  0  0  0  0  0
  140.6439   75.8614  223.1838 H   0  0  0  0  0  0  0  0  0  0  0  0
  141.5700   77.1090  222.2823 H   0  0  0  0  0  0  0  0  0  0  0  0
  139.7742   77.1489  222.2823 H   0  0  0  0  0  0  0  0  0  0  0  0
  140.3780   76.1297  220.0931 H   0  0  0  0  0  0  0  0  0  0  0  0
  142.5291   74.9152  221.7403 H   0  0  0  0  0  0  0  0  0  0  0  0
  141.9894   74.1547  220.2051 H   0  0  0  0  0  0  0  0  0  0  0  0
  142.5963   75.8454  220.2051 H   0  0  0  0  0  0  0  0  0  0  0  0
  138.6159   75.1542  221.3119 H   0  0  0  0  0  0  0  0  0  0  0  0
  139.6193   74.0139  220.2116 H   0  0  0  0  0  0  0  0  0  0  0  0
  139.1640   73.8700  223.0990 H   0  0  0  0  0  0  0  0  0  0  0  0
  139.1532   69.8340  222.3456 H   0  0  0  0  0  0  0  0  0  0  0  0
  139.0317   68.4149  224.3505 H   0  0  0  0  0  0  0  0  0  0  0  0
  139.4759   68.0774  226.7199 H   0  0  0  0  0  0  0  0  0  0  0  0
  141.4065   71.2082  228.9420 H   0  0  0  0  0  0  0  0  0  0  0  0
  141.5018   72.5953  226.8980 H   0  0  0  0  0  0  0  0  0  0  0  0
  1  2  1  0
  2  3  1  0
  2  4  1  0
  4  5  1  0
  5  6  1  0
  6  7  2  0
  6  8  1  0
  8  9  2  0
  9 10  1  0
 10 11  2  0
 11 12  1  0
 12 13  2  0
 13 14  1  0
 13 15  1  0
 15 16  2  0
 16 17  1  0
 17 18  2  0
 18  8  1  0
 17 11  1  0
  1 19  1  0
  1 20  1  0
  1 21  1  0
  2 22  1  0
  3 23  1  0
  3 24  1  0
  3 25  1  0
  4 26  1  0
  4 27  1  0
  5 28  1  0
  9 29  1  0
 10 30  1  0
 12 31  1  0
 15 32  1  0
 16 33  1  0
M  END
>  <smiles>  (19) 
CC(C)CNC(=O)c1ccc2cc(F)ccc2n1

>  <score_type>  (19) 
oracle

>  <origin>  (19) 
autodockgpu

>  <m_score__min__energy>  (19) 
-6.1799999999999997

>  <m_primary>  (19) 
energy

>  <rmsd>  (19) 
1.2207635215123254

>  <m_score__min__rmsd>  (19) 
1.2207635215123254

>  <meeko>  (19) 
{"free_energy": -6.02, "intermolecular_energy": -6.91, "internal_energy": -0.56, "cluster_size": 47, "cluster_id": 1, "rank_in_cluster": 28}

>  <energy>  (19) 
-6.14

>  <cluster_rmsd>  (19) 
0.18

>  <cluster>  (19) 
1

$$$$

     RDKit          3D

 33 34  0  0  0  0  0  0  0  0999 V2000
  138.2790   76.3040  222.6890 C   0  0  0  0  0  0  0  0  0  0  0  0
  139.4580   76.0690  221.7060 C   0  0  0  0  0  0  0  0  0  0  0  0
  140.7000   76.6460  222.3170 C   0  0  0  0  0  0  0  0  0  0  0  0
  139.4780   74.6420  221.2940 C   0  0  0  0  0  0  0  0  0  0  0  0
  139.5370   73.6320  222.2820 N   0  0  0  0  0  0  0  0  0  0  0  0
  140.3850   72.5230  222.3870 C   0  0  0  0  0  0  0  0  0  0  0  0
  141.2920   72.2360  221.5810 O   0  0  0  0  0  0  0  0  0  0  0  0
  140.2270   71.5930  223.5270 C   0  0  0  0  0  0  0  0  0  0  0  0
  139.5890   70.3790  223.3960 C   0  0  0  0  0  0  0  0  0  0  0  0
  139.4410   69.5120  224.4590 C   0  0  0  0  0  0  0  0  0  0  0  0
  139.9380   69.8430  225.7030 C   0  0  0  0  0  0  0  0  0  0  0  0
  139.8040   68.9900  226.7890 C   0  0  0  0  0  0  0  0  0  0  0  0
  140.3080   69.3360  228.0260 C   0  0  0  0  0  0  0  0  0  0  0  0
  140.1800   68.5080  229.0910 F   0  0  0  0  0  0  0  0  0  0  0  0
  140.9540   70.5660  228.1570 C   0  0  0  0  0  0  0  0  0  0  0  0
  141.0840   71.4140  227.0660 C   0  0  0  0  0  0  0  0  0  0  0  0
  140.5740   71.0650  225.8110 C   0  0  0  0  0  0  0  0  0  0  0  0
  140.7030   71.8930  224.7540 N   0  0  0  0  0  0  0  0  0  0  0  0
  138.6445   76.2312  223.7240 H   0  0  0  0  0  0  0  0  0  0  0  0
  137.8543   77.3045  222.5197 H   0  0  0  0  0  0  0  0  0  0  0  0
  137.5031   75.5428  222.5197 H   0  0  0  0  0  0  0  0  0  0  0  0
  139.3546   76.6014  220.7490 H   0  0  0  0  0  0  0  0  0  0  0  0
  140.6205   76.6090  223.4135 H   0  0  0  0  0  0  0  0  0  0  0  0
  141.5737   76.0616  221.9928 H   0  0  0  0  0  0  0  0  0  0  0  0
  140.8169   77.6906  221.9928 H   0  0  0  0  0  0  0  0  0  0  0  0
  138.5628   74.4649  220.7099 H   0  0  0  0  0  0  0  0  0  0  0  0
  140.4362   74.5401  220.7634 H   0  0  0  0  0  0  0  0  0  0  0  0
  138.8170   73.7220  223.0860 H   0  0  0  0  0  0  0  0  0  0  0  0
  139.1852   70.0921  222.4138 H   0  0  0  0  0  0  0  0  0  0  0  0
  138.9241   68.5519  224.3141 H   0  0  0  0  0  0  0  0  0  0  0  0
  139.2896   68.0260  226.6623 H   0  0  0  0  0  0  0  0  0  0  0  0
  141.3635   70.8659  229.1329 H   0  0  0  0  0  0  0  0  0  0  0  0
  141.5977   72.3787  227.1905 H   0  0  0  0  0  0  0  0  0  0  0  0
  1  2  1  0
  2  3  1  0
  2  4  1  0
  4  5  1  0
  5  6  1  0
  6  7  2  0
  6  8  1  0
  8  9  2  0
  9 10  1  0
 10 11  2  0
 11 12  1  0
 12 13  2  0
 13 14  1  0
 13 15  1  0
 15 16  2  0
 16 17  1  0
 17 18  2  0
 18  8  1  0
 17 11  1  0
  1 19  1  0
  1 20  1  0
  1 21  1  0
  2 22  1  0
  3 23  1  0
  3 24  1  0
  3 25  1  0
  4 26  1  0
  4 27  1  0
  5 28  1  0
  9 29  1  0
 10 30  1  0
 12 31  1  0
 15 32  1  0
 16 33  1  0
M  END
>  <smiles>  (20) 
CC(C)CNC(=O)c1ccc2cc(F)ccc2n1

>  <score_type>  (20) 
oracle

>  <origin>  (20) 
autodockgpu

>  <m_score__min__energy>  (20) 
-6.1799999999999997

>  <m_primary>  (20) 
energy

>  <rmsd>  (20) 
1.3412299256599642

>  <m_score__min__rmsd>  (20) 
1.3412299256599642

>  <meeko>  (20) 
{"free_energy": -6.18, "intermolecular_energy": -7.07, "internal_energy": -0.45, "cluster_size": 47, "cluster_id": 1, "rank_in_cluster": 6}

>  <energy>  (20) 
-6.13

>  <cluster_rmsd>  (20) 
0.21

>  <cluster>  (20) 
1

$$$$

     RDKit          3D

 33 34  0  0  0  0  0  0  0  0999 V2000
  141.4580   76.3660  220.1170 C   0  0  0  0  0  0  0  0  0  0  0  0
  141.0130   75.8840  221.5250 C   0  0  0  0  0  0  0  0  0  0  0  0
  140.6380   77.0880  222.3350 C   0  0  0  0  0  0  0  0  0  0  0  0
  140.0100   74.7980  221.3780 C   0  0  0  0  0  0  0  0  0  0  0  0
  139.9520   73.7670  222.3440 N   0  0  0  0  0  0  0  0  0  0  0  0
  140.3980   72.4420  222.2750 C   0  0  0  0  0  0  0  0  0  0  0  0
  140.9660   71.9270  221.2900 O   0  0  0  0  0  0  0  0  0  0  0  0
  140.2000   71.5460  223.4360 C   0  0  0  0  0  0  0  0  0  0  0  0
  139.5590   70.3320  223.3210 C   0  0  0  0  0  0  0  0  0  0  0  0
  139.3730   69.4970  224.4030 C   0  0  0  0  0  0  0  0  0  0  0  0
  139.8340   69.8620  225.6520 C   0  0  0  0  0  0  0  0  0  0  0  0
  139.6610   69.0420  226.7570 C   0  0  0  0  0  0  0  0  0  0  0  0
  140.1280   69.4220  227.9990 C   0  0  0  0  0  0  0  0  0  0  0  0
  139.9620   68.6260  229.0840 F   0  0  0  0  0  0  0  0  0  0  0  0
  140.7760   70.6520  228.1140 C   0  0  0  0  0  0  0  0  0  0  0  0
  140.9450   71.4670  227.0040 C   0  0  0  0  0  0  0  0  0  0  0  0
  140.4730   71.0840  225.7440 C   0  0  0  0  0  0  0  0  0  0  0  0
  140.6390   71.8800  224.6670 N   0  0  0  0  0  0  0  0  0  0  0  0
  142.2007   77.1705  220.2226 H   0  0  0  0  0  0  0  0  0  0  0  0
  141.9041   75.5252  219.5656 H   0  0  0  0  0  0  0  0  0  0  0  0
  140.5843   76.7437  219.5656 H   0  0  0  0  0  0  0  0  0  0  0  0
  141.8135   75.4046  222.1076 H   0  0  0  0  0  0  0  0  0  0  0  0
  140.7129   76.8474  223.4058 H   0  0  0  0  0  0  0  0  0  0  0  0
  141.3204   77.9172  222.0969 H   0  0  0  0  0  0  0  0  0  0  0  0
  139.6054   77.3830  222.0969 H   0  0  0  0  0  0  0  0  0  0  0  0
  139.0200   75.2772  221.3620 H   0  0  0  0  0  0  0  0  0  0  0  0
  140.3270   74.2764  220.4629 H   0  0  0  0  0  0  0  0  0  0  0  0
  139.4920   74.0350  223.2870 H   0  0  0  0  0  0  0  0  0  0  0  0
  139.1838   70.0188  222.3355 H   0  0  0  0  0  0  0  0  0  0  0  0
  138.8549   68.5358  224.2700 H   0  0  0  0  0  0  0  0  0  0  0  0
  139.1454   68.0771  226.6422 H   0  0  0  0  0  0  0  0  0  0  0  0
  141.1562   70.9785  229.0932 H   0  0  0  0  0  0  0  0  0  0  0  0
  141.4598   72.4325  227.1168 H   0  0  0  0  0  0  0  0  0  0  0  0
  1  2  1  0
  2  3  1  0
  2  4  1  0
  4  5  1  0
  5  6  1  0
  6  7  2  0
  6  8  1  0
  8  9  2  0
  9 10  1  0
 10 11  2  0
 11 12  1  0
 12 13  2  0
 13 14  1  0
 13 15  1  0
 15 16  2  0
 16 17  1  0
 17 18  2  0
 18  8  1  0
 17 11  1  0
  1 19  1  0
  1 20  1  0
  1 21  1  0
  2 22  1  0
  3 23  1  0
  3 24  1  0
  3 25  1  0
  4 26  1  0
  4 27  1  0
  5 28  1  0
  9 29  1  0
 10 30  1  0
 12 31  1  0
 15 32  1  0
 16 33  1  0
M  END
>  <smiles>  (21) 
CC(C)CNC(=O)c1ccc2cc(F)ccc2n1

>  <score_type>  (21) 
oracle

>  <origin>  (21) 
autodockgpu

>  <m_score__min__energy>  (21) 
-6.1799999999999997

>  <m_primary>  (21) 
energy

>  <rmsd>  (21) 
1.4383078552669433

>  <m_score__min__rmsd>  (21) 
1.4383078552669433

>  <meeko>  (21) 
{"free_energy": -6.03, "intermolecular_energy": -6.92, "internal_energy": -0.49, "cluster_size": 47, "cluster_id": 1, "rank_in_cluster": 27}

>  <energy>  (21) 
-6.12

>  <cluster_rmsd>  (21) 
0.66

>  <cluster>  (21) 
1

$$$$

     RDKit          3D

 33 34  0  0  0  0  0  0  0  0999 V2000
  140.6210   76.5970  222.3320 C   0  0  0  0  0  0  0  0  0  0  0  0
  140.5150   75.6230  221.1270 C   0  0  0  0  0  0  0  0  0  0  0  0
  141.8800   75.0680  220.8500 C   0  0  0  0  0  0  0  0  0  0  0  0
  139.4050   74.6640  221.3660 C   0  0  0  0  0  0  0  0  0  0  0  0
  139.5580   73.6500  222.3400 N   0  0  0  0  0  0  0  0  0  0  0  0
  139.6950   72.2660  222.1840 C   0  0  0  0  0  0  0  0  0  0  0  0
  139.7190   71.6660  221.0900 O   0  0  0  0  0  0  0  0  0  0  0  0
  139.8250   71.4080  223.3830 C   0  0  0  0  0  0  0  0  0  0  0  0
  139.4570   70.0800  223.3740 C   0  0  0  0  0  0  0  0  0  0  0  0
  139.5770   69.2810  224.4920 C   0  0  0  0  0  0  0  0  0  0  0  0
  140.0770   69.7990  225.6690 C   0  0  0  0  0  0  0  0  0  0  0  0
  140.2080   69.0180  226.8080 C   0  0  0  0  0  0  0  0  0  0  0  0
  140.7110   69.5520  227.9780 C   0  0  0  0  0  0  0  0  0  0  0  0
  140.8420   68.7940  229.0940 F   0  0  0  0  0  0  0  0  0  0  0  0
  141.0830   70.8960  227.9840 C   0  0  0  0  0  0  0  0  0  0  0  0
  140.9480   71.6710  226.8410 C   0  0  0  0  0  0  0  0  0  0  0  0
  140.4390   71.1330  225.6550 C   0  0  0  0  0  0  0  0  0  0  0  0
  140.3100   71.8900  224.5460 N   0  0  0  0  0  0  0  0  0  0  0  0
  140.5590   76.0270  223.2708 H   0  0  0  0  0  0  0  0  0  0  0  0
  141.5824   77.1298  222.2894 H   0  0  0  0  0  0  0  0  0  0  0  0
  139.7967   77.3241  222.2894 H   0  0  0  0  0  0  0  0  0  0  0  0
  140.2244   76.1097  220.1843 H   0  0  0  0  0  0  0  0  0  0  0  0
  142.3913   74.8601  221.8015 H   0  0  0  0  0  0  0  0  0  0  0  0
  141.7868   74.1364  220.2726 H   0  0  0  0  0  0  0  0  0  0  0  0
  142.4634   75.8004  220.2726 H   0  0  0  0  0  0  0  0  0  0  0  0
  138.5264   75.2580  221.6579 H   0  0  0  0  0  0  0  0  0  0  0  0
  139.3379   74.1058  220.4205 H   0  0  0  0  0  0  0  0  0  0  0  0
  139.5720   73.9870  223.3680 H   0  0  0  0  0  0  0  0  0  0  0  0
  139.0555   69.6440  222.4473 H   0  0  0  0  0  0  0  0  0  0  0  0
  139.2724   68.2251  224.4449 H   0  0  0  0  0  0  0  0  0  0  0  0
  139.9075   67.9602  226.7788 H   0  0  0  0  0  0  0  0  0  0  0  0
  141.4870   71.3457  228.9030 H   0  0  0  0  0  0  0  0  0  0  0  0
  141.2472   72.7292  226.8684 H   0  0  0  0  0  0  0  0  0  0  0  0
  1  2  1  0
  2  3  1  0
  2  4  1  0
  4  5  1  0
  5  6  1  0
  6  7  2  0
  6  8  1  0
  8  9  2  0
  9 10  1  0
 10 11  2  0
 11 12  1  0
 12 13  2  0
 13 14  1  0
 13 15  1  0
 15 16  2  0
 16 17  1  0
 17 18  2  0
 18  8  1  0
 17 11  1  0
  1 19  1  0
  1 20  1  0
  1 21  1  0
  2 22  1  0
  3 23  1  0
  3 24  1  0
  3 25  1  0
  4 26  1  0
  4 27  1  0
  5 28  1  0
  9 29  1  0
 10 30  1  0
 12 31  1  0
 15 32  1  0
 16 33  1  0
M  END
>  <smiles>  (22) 
CC(C)CNC(=O)c1ccc2cc(F)ccc2n1

>  <score_type>  (22) 
oracle

>  <origin>  (22) 
autodockgpu

>  <m_score__min__energy>  (22) 
-6.1799999999999997

>  <m_primary>  (22) 
energy

>  <rmsd>  (22) 
1.118371424478899

>  <m_score__min__rmsd>  (22) 
1.118371424478899

>  <meeko>  (22) 
{"free_energy": -5.88, "intermolecular_energy": -6.77, "internal_energy": -0.73, "cluster_size": 47, "cluster_id": 1, "rank_in_cluster": 43}

>  <energy>  (22) 
-6.1

>  <cluster_rmsd>  (22) 
0.21

>  <cluster>  (22) 
1

$$$$

     RDKit          3D

 33 34  0  0  0  0  0  0  0  0999 V2000
  138.3040   76.2620  222.6930 C   0  0  0  0  0  0  0  0  0  0  0  0
  139.4850   76.0950  221.6990 C   0  0  0  0  0  0  0  0  0  0  0  0
  140.7000   76.7340  222.3020 C   0  0  0  0  0  0  0  0  0  0  0  0
  139.5770   74.6720  221.2810 C   0  0  0  0  0  0  0  0  0  0  0  0
  139.6600   73.6600  222.2650 N   0  0  0  0  0  0  0  0  0  0  0  0
  139.8430   72.2790  222.1230 C   0  0  0  0  0  0  0  0  0  0  0  0
  139.9830   71.6820  221.0370 O   0  0  0  0  0  0  0  0  0  0  0  0
  139.8780   71.4230  223.3300 C   0  0  0  0  0  0  0  0  0  0  0  0
  139.4160   70.1250  223.3180 C   0  0  0  0  0  0  0  0  0  0  0  0
  139.4480   69.3270  224.4420 C   0  0  0  0  0  0  0  0  0  0  0  0
  139.9530   69.8160  225.6300 C   0  0  0  0  0  0  0  0  0  0  0  0
  139.9970   69.0350  226.7760 C   0  0  0  0  0  0  0  0  0  0  0  0
  140.5060   69.5400  227.9560 C   0  0  0  0  0  0  0  0  0  0  0  0
  140.5520   68.7830  229.0790 F   0  0  0  0  0  0  0  0  0  0  0  0
  140.9730   70.8540  227.9660 C   0  0  0  0  0  0  0  0  0  0  0  0
  140.9250   71.6290  226.8160 C   0  0  0  0  0  0  0  0  0  0  0  0
  140.4100   71.1200  225.6190 C   0  0  0  0  0  0  0  0  0  0  0  0
  140.3660   71.8770  224.5030 N   0  0  0  0  0  0  0  0  0  0  0  0
  138.6825   76.2085  223.7244 H   0  0  0  0  0  0  0  0  0  0  0  0
  137.8221   77.2372  222.5294 H   0  0  0  0  0  0  0  0  0  0  0  0
  137.5706   75.4586  222.5294 H   0  0  0  0  0  0  0  0  0  0  0  0
  139.3452   76.6259  220.7458 H   0  0  0  0  0  0  0  0  0  0  0  0
  140.6280   76.6961  223.3990 H   0  0  0  0  0  0  0  0  0  0  0  0
  141.5998   76.1924  221.9747 H   0  0  0  0  0  0  0  0  0  0  0  0
  140.7636   77.7822  221.9747 H   0  0  0  0  0  0  0  0  0  0  0  0
  138.6831   74.4579  220.6768 H   0  0  0  0  0  0  0  0  0  0  0  0
  140.5498   74.6157  220.7707 H   0  0  0  0  0  0  0  0  0  0  0  0
  139.5690   73.9960  223.2900 H   0  0  0  0  0  0  0  0  0  0  0  0
  139.0091   69.7126  222.3829 H   0  0  0  0  0  0  0  0  0  0  0  0
  139.0692   68.2955  224.3918 H   0  0  0  0  0  0  0  0  0  0  0  0
  139.6220   68.0014  226.7441 H   0  0  0  0  0  0  0  0  0  0  0  0
  141.3830   71.2798  228.8937 H   0  0  0  0  0  0  0  0  0  0  0  0
  141.2989   72.6631  226.8461 H   0  0  0  0  0  0  0  0  0  0  0  0
  1  2  1  0
  2  3  1  0
  2  4  1  0
  4  5  1  0
  5  6  1  0
  6  7  2  0
  6  8  1  0
  8  9  2  0
  9 10  1  0
 10 11  2  0
 11 12  1  0
 12 13  2  0
 13 14  1  0
 13 15  1  0
 15 16  2  0
 16 17  1  0
 17 18  2  0
 18  8  1  0
 17 11  1  0
  1 19  1  0
  1 20  1  0
  1 21  1  0
  2 22  1  0
  3 23  1  0
  3 24  1  0
  3 25  1  0
  4 26  1  0
  4 27  1  0
  5 28  1  0
  9 29  1  0
 10 30  1  0
 12 31  1  0
 15 32  1  0
 16 33  1  0
M  END
>  <smiles>  (23) 
CC(C)CNC(=O)c1ccc2cc(F)ccc2n1

>  <score_type>  (23) 
oracle

>  <origin>  (23) 
autodockgpu

>  <m_score__min__energy>  (23) 
-6.1799999999999997

>  <m_primary>  (23) 
energy

>  <rmsd>  (23) 
1.1635617784973287

>  <m_score__min__rmsd>  (23) 
1.1635617784973287

>  <meeko>  (23) 
{"free_energy": -5.91, "intermolecular_energy": -6.8, "internal_energy": -0.64, "cluster_size": 47, "cluster_id": 1, "rank_in_cluster": 33}

>  <energy>  (23) 
-6.1

>  <cluster_rmsd>  (23) 
0.2

>  <cluster>  (23) 
1

$$$$

     RDKit          3D

 33 34  0  0  0  0  0  0  0  0999 V2000
  138.3240   76.1510  222.3580 C   0  0  0  0  0  0  0  0  0  0  0  0
  139.6470   76.0840  221.5490 C   0  0  0  0  0  0  0  0  0  0  0  0
  140.6990   76.8390  222.3050 C   0  0  0  0  0  0  0  0  0  0  0  0
  139.9270   74.6720  221.1820 C   0  0  0  0  0  0  0  0  0  0  0  0
  139.9040   73.6730  222.1830 N   0  0  0  0  0  0  0  0  0  0  0  0
  140.2960   72.3310  222.1250 C   0  0  0  0  0  0  0  0  0  0  0  0
  140.7710   71.7650  221.1200 O   0  0  0  0  0  0  0  0  0  0  0  0
  140.1520   71.4780  223.3270 C   0  0  0  0  0  0  0  0  0  0  0  0
  139.5740   70.2290  223.2710 C   0  0  0  0  0  0  0  0  0  0  0  0
  139.4390   69.4350  224.3910 C   0  0  0  0  0  0  0  0  0  0  0  0
  139.8870   69.8790  225.6190 C   0  0  0  0  0  0  0  0  0  0  0  0
  139.7640   69.1010  226.7610 C   0  0  0  0  0  0  0  0  0  0  0  0
  140.2180   69.5600  227.9810 C   0  0  0  0  0  0  0  0  0  0  0  0
  140.1010   68.8060  229.1000 F   0  0  0  0  0  0  0  0  0  0  0  0
  140.8030   70.8260  228.0350 C   0  0  0  0  0  0  0  0  0  0  0  0
  140.9220   71.5980  226.8890 C   0  0  0  0  0  0  0  0  0  0  0  0
  140.4630   71.1350  225.6510 C   0  0  0  0  0  0  0  0  0  0  0  0
  140.5810   71.8890  224.5390 N   0  0  0  0  0  0  0  0  0  0  0  0
  138.5513   76.1395  223.4342 H   0  0  0  0  0  0  0  0  0  0  0  0
  137.7870   77.0775  222.1066 H   0  0  0  0  0  0  0  0  0  0  0  0
  137.6961   75.2835  222.1066 H   0  0  0  0  0  0  0  0  0  0  0  0
  139.5997   76.5901  220.5735 H   0  0  0  0  0  0  0  0  0  0  0  0
  140.5314   76.7187  223.3855 H   0  0  0  0  0  0  0  0  0  0  0  0
  141.6923   76.4464  222.0421 H   0  0  0  0  0  0  0  0  0  0  0  0
  140.6450   77.9057  222.0421 H   0  0  0  0  0  0  0  0  0  0  0  0
  139.1814   74.3843  220.4262 H   0  0  0  0  0  0  0  0  0  0  0  0
  140.9795   74.6927  220.8629 H   0  0  0  0  0  0  0  0  0  0  0  0
  139.5250   73.9870  223.1470 H   0  0  0  0  0  0  0  0  0  0  0  0
  139.2090   69.8532  222.3038 H   0  0  0  0  0  0  0  0  0  0  0  0
  138.9719   68.4428  224.3051 H   0  0  0  0  0  0  0  0  0  0  0  0
  139.2991   68.1064  226.6934 H   0  0  0  0  0  0  0  0  0  0  0  0
  141.1730   71.2150  228.9951 H   0  0  0  0  0  0  0  0  0  0  0  0
  141.3860   72.5932  226.9546 H   0  0  0  0  0  0  0  0  0  0  0  0
  1  2  1  0
  2  3  1  0
  2  4  1  0
  4  5  1  0
  5  6  1  0
  6  7  2  0
  6  8  1  0
  8  9  2  0
  9 10  1  0
 10 11  2  0
 11 12  1  0
 12 13  2  0
 13 14  1  0
 13 15  1  0
 15 16  2  0
 16 17  1  0
 17 18  2  0
 18  8  1  0
 17 11  1  0
  1 19  1  0
  1 20  1  0
  1 21  1  0
  2 22  1  0
  3 23  1  0
  3 24  1  0
  3 25  1  0
  4 26  1  0
  4 27  1  0
  5 28  1  0
  9 29  1  0
 10 30  1  0
 12 31  1  0
 15 32  1  0
 16 33  1  0
M  END
>  <smiles>  (24) 
CC(C)CNC(=O)c1ccc2cc(F)ccc2n1

>  <score_type>  (24) 
oracle

>  <origin>  (24) 
autodockgpu

>  <m_score__min__energy>  (24) 
-6.1799999999999997

>  <m_primary>  (24) 
energy

>  <rmsd>  (24) 
1.3449481040028546

>  <m_score__min__rmsd>  (24) 
1.3449481040028546

>  <meeko>  (24) 
{"free_energy": -6.01, "intermolecular_energy": -6.9, "internal_energy": -0.54, "cluster_size": 47, "cluster_id": 1, "rank_in_cluster": 29}

>  <energy>  (24) 
-6.09

>  <cluster_rmsd>  (24) 
0.69

>  <cluster>  (24) 
1

$$$$

     RDKit          3D

 33 34  0  0  0  0  0  0  0  0999 V2000
  140.6830   76.5810  222.3110 C   0  0  0  0  0  0  0  0  0  0  0  0
  140.5560   75.6050  221.1100 C   0  0  0  0  0  0  0  0  0  0  0  0
  141.9110   75.0280  220.8300 C   0  0  0  0  0  0  0  0  0  0  0  0
  139.4330   74.6640  221.3580 C   0  0  0  0  0  0  0  0  0  0  0  0
  139.5760   73.6480  222.3320 N   0  0  0  0  0  0  0  0  0  0  0  0
  139.7230   72.2650  222.1760 C   0  0  0  0  0  0  0  0  0  0  0  0
  139.7660   71.6680  221.0820 O   0  0  0  0  0  0  0  0  0  0  0  0
  139.8380   71.4060  223.3750 C   0  0  0  0  0  0  0  0  0  0  0  0
  139.4610   70.0810  223.3630 C   0  0  0  0  0  0  0  0  0  0  0  0
  139.5680   69.2800  224.4810 C   0  0  0  0  0  0  0  0  0  0  0  0
  140.0640   69.7940  225.6620 C   0  0  0  0  0  0  0  0  0  0  0  0
  140.1820   69.0110  226.8020 C   0  0  0  0  0  0  0  0  0  0  0  0
  140.6800   69.5410  227.9750 C   0  0  0  0  0  0  0  0  0  0  0  0
  140.7980   68.7820  229.0910 F   0  0  0  0  0  0  0  0  0  0  0  0
  141.0600   70.8830  227.9850 C   0  0  0  0  0  0  0  0  0  0  0  0
  140.9390   71.6590  226.8420 C   0  0  0  0  0  0  0  0  0  0  0  0
  140.4350   71.1250  225.6510 C   0  0  0  0  0  0  0  0  0  0  0  0
  140.3180   71.8840  224.5420 N   0  0  0  0  0  0  0  0  0  0  0  0
  140.6095   76.0160  223.2520 H   0  0  0  0  0  0  0  0  0  0  0  0
  141.6554   77.0933  222.2659 H   0  0  0  0  0  0  0  0  0  0  0  0
  139.8741   77.3251  222.2659 H   0  0  0  0  0  0  0  0  0  0  0  0
  140.2683   76.0926  220.1669 H   0  0  0  0  0  0  0  0  0  0  0  0
  142.4206   74.8110  221.7804 H   0  0  0  0  0  0  0  0  0  0  0  0
  141.8014   74.0985  220.2521 H   0  0  0  0  0  0  0  0  0  0  0  0
  142.5052   75.7512  220.2521 H   0  0  0  0  0  0  0  0  0  0  0  0
  138.5660   75.2722  221.6554 H   0  0  0  0  0  0  0  0  0  0  0  0
  139.3511   74.1059  220.4136 H   0  0  0  0  0  0  0  0  0  0  0  0
  139.5720   73.9840  223.3610 H   0  0  0  0  0  0  0  0  0  0  0  0
  139.0624   69.6485  222.4334 H   0  0  0  0  0  0  0  0  0  0  0  0
  139.2564   68.2262  224.4310 H   0  0  0  0  0  0  0  0  0  0  0  0
  139.8749   67.9552  226.7702 H   0  0  0  0  0  0  0  0  0  0  0  0
  141.4591   71.3298  228.9075 H   0  0  0  0  0  0  0  0  0  0  0  0
  141.2453   72.7151  226.8723 H   0  0  0  0  0  0  0  0  0  0  0  0
  1  2  1  0
  2  3  1  0
  2  4  1  0
  4  5  1  0
  5  6  1  0
  6  7  2  0
  6  8  1  0
  8  9  2  0
  9 10  1  0
 10 11  2  0
 11 12  1  0
 12 13  2  0
 13 14  1  0
 13 15  1  0
 15 16  2  0
 16 17  1  0
 17 18  2  0
 18  8  1  0
 17 11  1  0
  1 19  1  0
  1 20  1  0
  1 21  1  0
  2 22  1  0
  3 23  1  0
  3 24  1  0
  3 25  1  0
  4 26  1  0
  4 27  1  0
  5 28  1  0
  9 29  1  0
 10 30  1  0
 12 31  1  0
 15 32  1  0
 16 33  1  0
M  END
>  <smiles>  (25) 
CC(C)CNC(=O)c1ccc2cc(F)ccc2n1

>  <score_type>  (25) 
oracle

>  <origin>  (25) 
autodockgpu

>  <m_score__min__energy>  (25) 
-6.1799999999999997

>  <m_primary>  (25) 
energy

>  <rmsd>  (25) 
1.1216019596331501

>  <m_score__min__rmsd>  (25) 
1.1216019596331501

>  <meeko>  (25) 
{"free_energy": -5.89, "intermolecular_energy": -6.78, "internal_energy": -0.73, "cluster_size": 47, "cluster_id": 1, "rank_in_cluster": 41}

>  <energy>  (25) 
-6.09

>  <cluster_rmsd>  (25) 
0.69

>  <cluster>  (25) 
1

$$$$

     RDKit          3D

 33 34  0  0  0  0  0  0  0  0999 V2000
  138.2770   76.2830  222.6760 C   0  0  0  0  0  0  0  0  0  0  0  0
  139.4770   76.0820  221.7110 C   0  0  0  0  0  0  0  0  0  0  0  0
  140.6940   76.6900  222.3440 C   0  0  0  0  0  0  0  0  0  0  0  0
  139.5420   74.6570  221.2970 C   0  0  0  0  0  0  0  0  0  0  0  0
  139.5770   73.6450  222.2840 N   0  0  0  0  0  0  0  0  0  0  0  0
  140.4100   72.5250  222.3960 C   0  0  0  0  0  0  0  0  0  0  0  0
  141.3210   72.2270  221.5990 O   0  0  0  0  0  0  0  0  0  0  0  0
  140.2290   71.5950  223.5330 C   0  0  0  0  0  0  0  0  0  0  0  0
  139.5750   70.3900  223.3940 C   0  0  0  0  0  0  0  0  0  0  0  0
  139.4060   69.5230  224.4530 C   0  0  0  0  0  0  0  0  0  0  0  0
  139.8960   69.8460  225.7030 C   0  0  0  0  0  0  0  0  0  0  0  0
  139.7390   68.9930  226.7860 C   0  0  0  0  0  0  0  0  0  0  0  0
  140.2350   69.3310  228.0290 C   0  0  0  0  0  0  0  0  0  0  0  0
  140.0860   68.5020  229.0910 F   0  0  0  0  0  0  0  0  0  0  0  0
  140.8960   70.5510  228.1680 C   0  0  0  0  0  0  0  0  0  0  0  0
  141.0480   71.3990  227.0800 C   0  0  0  0  0  0  0  0  0  0  0  0
  140.5470   71.0600  225.8190 C   0  0  0  0  0  0  0  0  0  0  0  0
  140.6970   71.8870  224.7640 N   0  0  0  0  0  0  0  0  0  0  0  0
  138.6293   76.2240  223.7164 H   0  0  0  0  0  0  0  0  0  0  0  0
  137.8242   77.2695  222.4976 H   0  0  0  0  0  0  0  0  0  0  0  0
  137.5275   75.4979  222.4976 H   0  0  0  0  0  0  0  0  0  0  0  0
  139.3742   76.6139  220.7536 H   0  0  0  0  0  0  0  0  0  0  0  0
  140.6000   76.6430  223.4390 H   0  0  0  0  0  0  0  0  0  0  0  0
  141.5885   76.1329  222.0285 H   0  0  0  0  0  0  0  0  0  0  0  0
  140.7857   77.7398  222.0285 H   0  0  0  0  0  0  0  0  0  0  0  0
  138.6567   74.4646  220.6731 H   0  0  0  0  0  0  0  0  0  0  0  0
  140.5243   74.5750  220.8087 H   0  0  0  0  0  0  0  0  0  0  0  0
  138.8510   73.7430  223.0810 H   0  0  0  0  0  0  0  0  0  0  0  0
  139.1754   70.1111  222.4078 H   0  0  0  0  0  0  0  0  0  0  0  0
  138.8785   68.5698  224.3013 H   0  0  0  0  0  0  0  0  0  0  0  0
  139.2131   68.0361  226.6525 H   0  0  0  0  0  0  0  0  0  0  0  0
  141.3003   70.8437  229.1482 H   0  0  0  0  0  0  0  0  0  0  0  0
  141.5729   72.3566  227.2120 H   0  0  0  0  0  0  0  0  0  0  0  0
  1  2  1  0
  2  3  1  0
  2  4  1  0
  4  5  1  0
  5  6  1  0
  6  7  2  0
  6  8  1  0
  8  9  2  0
  9 10  1  0
 10 11  2  0
 11 12  1  0
 12 13  2  0
 13 14  1  0
 13 15  1  0
 15 16  2  0
 16 17  1  0
 17 18  2  0
 18  8  1  0
 17 11  1  0
  1 19  1  0
  1 20  1  0
  1 21  1  0
  2 22  1  0
  3 23  1  0
  3 24  1  0
  3 25  1  0
  4 26  1  0
  4 27  1  0
  5 28  1  0
  9 29  1  0
 10 30  1  0
 12 31  1  0
 15 32  1  0
 16 33  1  0
M  END
>  <smiles>  (26) 
CC(C)CNC(=O)c1ccc2cc(F)ccc2n1

>  <score_type>  (26) 
oracle

>  <origin>  (26) 
autodockgpu

>  <m_score__min__energy>  (26) 
-6.1799999999999997

>  <m_primary>  (26) 
energy

>  <rmsd>  (26) 
1.3629819262545018

>  <m_score__min__rmsd>  (26) 
1.3629819262545018

>  <meeko>  (26) 
{"free_energy": -6.18, "intermolecular_energy": -7.08, "internal_energy": -0.45, "cluster_size": 47, "cluster_id": 1, "rank_in_cluster": 1}

>  <energy>  (26) 
-6.07

>  <cluster_rmsd>  (26) 
0.26

>  <cluster>  (26) 
1

$$$$

     RDKit          3D

 33 34  0  0  0  0  0  0  0  0999 V2000
  144.5710   73.2560  220.4670 C   0  0  0  0  0  0  0  0  0  0  0  0
  143.2040   73.9910  220.5140 C   0  0  0  0  0  0  0  0  0  0  0  0
  143.2560   75.1390  219.5500 C   0  0  0  0  0  0  0  0  0  0  0  0
  142.1080   73.0000  220.3630 C   0  0  0  0  0  0  0  0  0  0  0  0
  141.6690   72.2690  221.4920 N   0  0  0  0  0  0  0  0  0  0  0  0
  140.6420   72.5470  222.4010 C   0  0  0  0  0  0  0  0  0  0  0  0
  139.8920   73.5420  222.3530 O   0  0  0  0  0  0  0  0  0  0  0  0
  140.3930   71.6150  223.5240 C   0  0  0  0  0  0  0  0  0  0  0  0
  139.7140   70.4290  223.3500 C   0  0  0  0  0  0  0  0  0  0  0  0
  139.4810   69.5600  224.3960 C   0  0  0  0  0  0  0  0  0  0  0  0
  139.9290   69.8620  225.6660 C   0  0  0  0  0  0  0  0  0  0  0  0
  139.7080   69.0070  226.7360 C   0  0  0  0  0  0  0  0  0  0  0  0
  140.1630   69.3240  228.0000 C   0  0  0  0  0  0  0  0  0  0  0  0
  139.9510   68.4930  229.0500 F   0  0  0  0  0  0  0  0  0  0  0  0
  140.8490   70.5260  228.1740 C   0  0  0  0  0  0  0  0  0  0  0  0
  141.0660   71.3760  227.0990 C   0  0  0  0  0  0  0  0  0  0  0  0
  140.6060   71.0570  225.8170 C   0  0  0  0  0  0  0  0  0  0  0  0
  140.8190   71.8870  224.7750 N   0  0  0  0  0  0  0  0  0  0  0  0
  144.9214   73.0676  221.4925 H   0  0  0  0  0  0  0  0  0  0  0  0
  144.4546   72.2988  219.9376 H   0  0  0  0  0  0  0  0  0  0  0  0
  145.3053   73.8809  219.9376 H   0  0  0  0  0  0  0  0  0  0  0  0
  142.9823   74.4607  221.4837 H   0  0  0  0  0  0  0  0  0  0  0  0
  143.2989   76.0855  220.1089 H   0  0  0  0  0  0  0  0  0  0  0  0
  144.1509   75.0461  218.9171 H   0  0  0  0  0  0  0  0  0  0  0  0
  142.3564   75.1274  218.9171 H   0  0  0  0  0  0  0  0  0  0  0  0
  141.2347   73.5453  219.9757 H   0  0  0  0  0  0  0  0  0  0  0  0
  142.5446   72.2296  219.7104 H   0  0  0  0  0  0  0  0  0  0  0  0
  142.2060   71.3500  221.6900 H   0  0  0  0  0  0  0  0  0  0  0  0
  139.3465   70.1670  222.3469 H   0  0  0  0  0  0  0  0  0  0  0  0
  138.9354   68.6218  224.2168 H   0  0  0  0  0  0  0  0  0  0  0  0
  139.1635   68.0649  226.5751 H   0  0  0  0  0  0  0  0  0  0  0  0
  141.2210   70.8023  229.1716 H   0  0  0  0  0  0  0  0  0  0  0  0
  141.6101   72.3187  227.2579 H   0  0  0  0  0  0  0  0  0  0  0  0
  1  2  1  0
  2  3  1  0
  2  4  1  0
  4  5  1  0
  5  6  1  0
  6  7  2  0
  6  8  1  0
  8  9  2  0
  9 10  1  0
 10 11  2  0
 11 12  1  0
 12 13  2  0
 13 14  1  0
 13 15  1  0
 15 16  2  0
 16 17  1  0
 17 18  2  0
 18  8  1  0
 17 11  1  0
  1 19  1  0
  1 20  1  0
  1 21  1  0
  2 22  1  0
  3 23  1  0
  3 24  1  0
  3 25  1  0
  4 26  1  0
  4 27  1  0
  5 28  1  0
  9 29  1  0
 10 30  1  0
 12 31  1  0
 15 32  1  0
 16 33  1  0
M  END
>  <smiles>  (27) 
CC(C)CNC(=O)c1ccc2cc(F)ccc2n1

>  <score_type>  (27) 
oracle

>  <origin>  (27) 
autodockgpu

>  <m_score__min__energy>  (27) 
-6.1799999999999997

>  <m_primary>  (27) 
energy

>  <rmsd>  (27) 
2.3047002204732174

>  <m_score__min__rmsd>  (27) 
2.3047002204732174

>  <meeko>  (27) 
{"free_energy": -6.09, "intermolecular_energy": -6.99, "internal_energy": -0.39, "cluster_size": 3, "cluster_id": 2, "rank_in_cluster": 1}

>  <energy>  (27) 
-6.03

>  <cluster_rmsd>  (27) 
0.68

>  <cluster>  (27) 
1

$$$$

     RDKit          3D

 33 34  0  0  0  0  0  0  0  0999 V2000
  140.6210   76.5420  222.3060 C   0  0  0  0  0  0  0  0  0  0  0  0
  140.5030   75.5600  221.1090 C   0  0  0  0  0  0  0  0  0  0  0  0
  141.8630   74.9940  220.8310 C   0  0  0  0  0  0  0  0  0  0  0  0
  139.3870   74.6110  221.3600 C   0  0  0  0  0  0  0  0  0  0  0  0
  139.5400   73.5970  222.3350 N   0  0  0  0  0  0  0  0  0  0  0  0
  139.6620   72.2110  222.1800 C   0  0  0  0  0  0  0  0  0  0  0  0
  139.6670   71.6090  221.0880 O   0  0  0  0  0  0  0  0  0  0  0  0
  139.7950   71.3550  223.3800 C   0  0  0  0  0  0  0  0  0  0  0  0
  139.4270   70.0280  223.3750 C   0  0  0  0  0  0  0  0  0  0  0  0
  139.5510   69.2290  224.4930 C   0  0  0  0  0  0  0  0  0  0  0  0
  140.0560   69.7490  225.6680 C   0  0  0  0  0  0  0  0  0  0  0  0
  140.1910   68.9690  226.8070 C   0  0  0  0  0  0  0  0  0  0  0  0
  140.6990   69.5050  227.9740 C   0  0  0  0  0  0  0  0  0  0  0  0
  140.8330   68.7490  229.0910 F   0  0  0  0  0  0  0  0  0  0  0  0
  141.0700   70.8490  227.9780 C   0  0  0  0  0  0  0  0  0  0  0  0
  140.9310   71.6230  226.8340 C   0  0  0  0  0  0  0  0  0  0  0  0
  140.4180   71.0830  225.6510 C   0  0  0  0  0  0  0  0  0  0  0  0
  140.2850   71.8390  224.5410 N   0  0  0  0  0  0  0  0  0  0  0  0
  140.5535   75.9801  223.2493 H   0  0  0  0  0  0  0  0  0  0  0  0
  141.5883   77.0636  222.2584 H   0  0  0  0  0  0  0  0  0  0  0  0
  139.8048   77.2779  222.2584 H   0  0  0  0  0  0  0  0  0  0  0  0
  140.2118   76.0409  220.1635 H   0  0  0  0  0  0  0  0  0  0  0  0
  142.3732   74.7817  221.7821 H   0  0  0  0  0  0  0  0  0  0  0  0
  141.7618   74.0633  220.2534 H   0  0  0  0  0  0  0  0  0  0  0  0
  142.4520   75.7217  220.2534 H   0  0  0  0  0  0  0  0  0  0  0  0
  138.5162   75.2131  221.6586 H   0  0  0  0  0  0  0  0  0  0  0  0
  139.3067   74.0516  220.4163 H   0  0  0  0  0  0  0  0  0  0  0  0
  139.5690   73.9370  223.3620 H   0  0  0  0  0  0  0  0  0  0  0  0
  139.0214   69.5912  222.4505 H   0  0  0  0  0  0  0  0  0  0  0  0
  139.2461   68.1730  224.4479 H   0  0  0  0  0  0  0  0  0  0  0  0
  139.8899   67.9113  226.7805 H   0  0  0  0  0  0  0  0  0  0  0  0
  141.4763   71.2999  228.8954 H   0  0  0  0  0  0  0  0  0  0  0  0
  141.2302   72.6812  226.8588 H   0  0  0  0  0  0  0  0  0  0  0  0
  1  2  1  0
  2  3  1  0
  2  4  1  0
  4  5  1  0
  5  6  1  0
  6  7  2  0
  6  8  1  0
  8  9  2  0
  9 10  1  0
 10 11  2  0
 11 12  1  0
 12 13  2  0
 13 14  1  0
 13 15  1  0
 15 16  2  0
 16 17  1  0
 17 18  2  0
 18  8  1  0
 17 11  1  0
  1 19  1  0
  1 20  1  0
  1 21  1  0
  2 22  1  0
  3 23  1  0
  3 24  1  0
  3 25  1  0
  4 26  1  0
  4 27  1  0
  5 28  1  0
  9 29  1  0
 10 30  1  0
 12 31  1  0
 15 32  1  0
 16 33  1  0
M  END
>  <smiles>  (28) 
CC(C)CNC(=O)c1ccc2cc(F)ccc2n1

>  <score_type>  (28) 
oracle

>  <origin>  (28) 
autodockgpu

>  <m_score__min__energy>  (28) 
-6.1799999999999997

>  <m_primary>  (28) 
energy

>  <rmsd>  (28) 
1.0752373300279214

>  <m_score__min__rmsd>  (28) 
1.0752373300279214

>  <meeko>  (28) 
{"free_energy": -5.86, "intermolecular_energy": -6.76, "internal_energy": -0.74, "cluster_size": 47, "cluster_id": 1, "rank_in_cluster": 46}

>  <energy>  (28) 
-6.02

>  <cluster_rmsd>  (28) 
0.74

>  <cluster>  (28) 
1

$$$$

     RDKit          3D

 33 34  0  0  0  0  0  0  0  0999 V2000
  138.2850   76.2940  222.6990 C   0  0  0  0  0  0  0  0  0  0  0  0
  139.4640   76.0690  221.7140 C   0  0  0  0  0  0  0  0  0  0  0  0
  140.7030   76.6530  222.3240 C   0  0  0  0  0  0  0  0  0  0  0  0
  139.4930   74.6420  221.3000 C   0  0  0  0  0  0  0  0  0  0  0  0
  139.5420   73.6300  222.2870 N   0  0  0  0  0  0  0  0  0  0  0  0
  140.4030   72.5340  222.4120 C   0  0  0  0  0  0  0  0  0  0  0  0
  141.3350   72.2620  221.6290 O   0  0  0  0  0  0  0  0  0  0  0  0
  140.2310   71.5990  223.5460 C   0  0  0  0  0  0  0  0  0  0  0  0
  139.5810   70.3930  223.4050 C   0  0  0  0  0  0  0  0  0  0  0  0
  139.4190   69.5210  224.4620 C   0  0  0  0  0  0  0  0  0  0  0  0
  139.9140   69.8400  225.7100 C   0  0  0  0  0  0  0  0  0  0  0  0
  139.7650   68.9820  226.7910 C   0  0  0  0  0  0  0  0  0  0  0  0
  140.2660   69.3160  228.0330 C   0  0  0  0  0  0  0  0  0  0  0  0
  140.1250   68.4830  229.0920 F   0  0  0  0  0  0  0  0  0  0  0  0
  140.9240   70.5380  228.1730 C   0  0  0  0  0  0  0  0  0  0  0  0
  141.0680   71.3910  227.0880 C   0  0  0  0  0  0  0  0  0  0  0  0
  140.5610   71.0550  225.8290 C   0  0  0  0  0  0  0  0  0  0  0  0
  140.7040   71.8870  224.7760 N   0  0  0  0  0  0  0  0  0  0  0  0
  138.6528   76.2238  223.7333 H   0  0  0  0  0  0  0  0  0  0  0  0
  137.8518   77.2910  222.5308 H   0  0  0  0  0  0  0  0  0  0  0  0
  137.5151   75.5266  222.5308 H   0  0  0  0  0  0  0  0  0  0  0  0
  139.3556   76.6027  220.7583 H   0  0  0  0  0  0  0  0  0  0  0  0
  140.6243   76.6159  223.4206 H   0  0  0  0  0  0  0  0  0  0  0  0
  141.5797   76.0733  221.9995 H   0  0  0  0  0  0  0  0  0  0  0  0
  140.8139   77.6982  221.9995 H   0  0  0  0  0  0  0  0  0  0  0  0
  138.5858   74.4636  220.7040 H   0  0  0  0  0  0  0  0  0  0  0  0
  140.4583   74.5436  220.7819 H   0  0  0  0  0  0  0  0  0  0  0  0
  138.8010   73.7080  223.0730 H   0  0  0  0  0  0  0  0  0  0  0  0
  139.1786   70.1164  222.4193 H   0  0  0  0  0  0  0  0  0  0  0  0
  138.8929   68.5672  224.3091 H   0  0  0  0  0  0  0  0  0  0  0  0
  139.2412   68.0242  226.6561 H   0  0  0  0  0  0  0  0  0  0  0  0
  141.3324   70.8281  229.1523 H   0  0  0  0  0  0  0  0  0  0  0  0
  141.5909   72.3496  227.2209 H   0  0  0  0  0  0  0  0  0  0  0  0
  1  2  1  0
  2  3  1  0
  2  4  1  0
  4  5  1  0
  5  6  1  0
  6  7  2  0
  6  8  1  0
  8  9  2  0
  9 10  1  0
 10 11  2  0
 11 12  1  0
 12 13  2  0
 13 14  1  0
 13 15  1  0
 15 16  2  0
 16 17  1  0
 17 18  2  0
 18  8  1  0
 17 11  1  0
  1 19  1  0
  1 20  1  0
  1 21  1  0
  2 22  1  0
  3 23  1  0
  3 24  1  0
  3 25  1  0
  4 26  1  0
  4 27  1  0
  5 28  1  0
  9 29  1  0
 10 30  1  0
 12 31  1  0
 15 32  1  0
 16 33  1  0
M  END
>  <smiles>  (29) 
CC(C)CNC(=O)c1ccc2cc(F)ccc2n1

>  <score_type>  (29) 
oracle

>  <origin>  (29) 
autodockgpu

>  <m_score__min__energy>  (29) 
-6.1799999999999997

>  <m_primary>  (29) 
energy

>  <rmsd>  (29) 
1.3556095718514656

>  <m_score__min__rmsd>  (29) 
1.3556095718514656

>  <meeko>  (29) 
{"free_energy": -6.18, "intermolecular_energy": -7.07, "internal_energy": -0.45, "cluster_size": 47, "cluster_id": 1, "rank_in_cluster": 10}

>  <energy>  (29) 
-6.01

>  <cluster_rmsd>  (29) 
0.36

>  <cluster>  (29) 
1

$$$$

     RDKit          3D

 33 34  0  0  0  0  0  0  0  0999 V2000
  138.2940   76.3070  222.7090 C   0  0  0  0  0  0  0  0  0  0  0  0
  139.4800   76.0800  221.7320 C   0  0  0  0  0  0  0  0  0  0  0  0
  140.7170   76.6570  222.3530 C   0  0  0  0  0  0  0  0  0  0  0  0
  139.5060   74.6550  221.3140 C   0  0  0  0  0  0  0  0  0  0  0  0
  139.5490   73.6400  222.2980 N   0  0  0  0  0  0  0  0  0  0  0  0
  140.3980   72.5330  222.4140 C   0  0  0  0  0  0  0  0  0  0  0  0
  141.3210   72.2520  221.6240 O   0  0  0  0  0  0  0  0  0  0  0  0
  140.2230   71.5970  223.5470 C   0  0  0  0  0  0  0  0  0  0  0  0
  139.5750   70.3900  223.4030 C   0  0  0  0  0  0  0  0  0  0  0  0
  139.4110   69.5170  224.4590 C   0  0  0  0  0  0  0  0  0  0  0  0
  139.9000   69.8370  225.7090 C   0  0  0  0  0  0  0  0  0  0  0  0
  139.7480   68.9780  226.7890 C   0  0  0  0  0  0  0  0  0  0  0  0
  140.2440   69.3130  228.0330 C   0  0  0  0  0  0  0  0  0  0  0  0
  140.1000   68.4790  229.0910 F   0  0  0  0  0  0  0  0  0  0  0  0
  140.8990   70.5360  228.1770 C   0  0  0  0  0  0  0  0  0  0  0  0
  141.0460   71.3890  227.0930 C   0  0  0  0  0  0  0  0  0  0  0  0
  140.5450   71.0530  225.8310 C   0  0  0  0  0  0  0  0  0  0  0  0
  140.6900   71.8860  224.7790 N   0  0  0  0  0  0  0  0  0  0  0  0
  138.6547   76.2380  223.7459 H   0  0  0  0  0  0  0  0  0  0  0  0
  137.8625   77.3040  222.5365 H   0  0  0  0  0  0  0  0  0  0  0  0
  137.5248   75.5398  222.5365 H   0  0  0  0  0  0  0  0  0  0  0  0
  139.3811   76.6172  220.7772 H   0  0  0  0  0  0  0  0  0  0  0  0
  140.6302   76.6165  223.4488 H   0  0  0  0  0  0  0  0  0  0  0  0
  141.5937   76.0749  222.0328 H   0  0  0  0  0  0  0  0  0  0  0  0
  140.8344   77.7028  222.0328 H   0  0  0  0  0  0  0  0  0  0  0  0
  138.6001   74.4811  220.7147 H   0  0  0  0  0  0  0  0  0  0  0  0
  140.4726   74.5553  220.7985 H   0  0  0  0  0  0  0  0  0  0  0  0
  138.8150   73.7250  223.0890 H   0  0  0  0  0  0  0  0  0  0  0  0
  139.1760   70.1136  222.4159 H   0  0  0  0  0  0  0  0  0  0  0  0
  138.8881   68.5618  224.3036 H   0  0  0  0  0  0  0  0  0  0  0  0
  139.2263   68.0193  226.6519 H   0  0  0  0  0  0  0  0  0  0  0  0
  141.3023   70.8265  229.1583 H   0  0  0  0  0  0  0  0  0  0  0  0
  141.5668   72.3484  227.2285 H   0  0  0  0  0  0  0  0  0  0  0  0
  1  2  1  0
  2  3  1  0
  2  4  1  0
  4  5  1  0
  5  6  1  0
  6  7  2  0
  6  8  1  0
  8  9  2  0
  9 10  1  0
 10 11  2  0
 11 12  1  0
 12 13  2  0
 13 14  1  0
 13 15  1  0
 15 16  2  0
 16 17  1  0
 17 18  2  0
 18  8  1  0
 17 11  1  0
  1 19  1  0
  1 20  1  0
  1 21  1  0
  2 22  1  0
  3 23  1  0
  3 24  1  0
  3 25  1  0
  4 26  1  0
  4 27  1  0
  5 28  1  0
  9 29  1  0
 10 30  1  0
 12 31  1  0
 15 32  1  0
 16 33  1  0
M  END
>  <smiles>  (30) 
CC(C)CNC(=O)c1ccc2cc(F)ccc2n1

>  <score_type>  (30) 
oracle

>  <origin>  (30) 
autodockgpu

>  <m_score__min__energy>  (30) 
-6.1799999999999997

>  <m_primary>  (30) 
energy

>  <rmsd>  (30) 
1.357517521936497

>  <m_score__min__rmsd>  (30) 
1.357517521936497

>  <meeko>  (30) 
{"free_energy": -6.17, "intermolecular_energy": -7.07, "internal_energy": -0.45, "cluster_size": 47, "cluster_id": 1, "rank_in_cluster": 13}

>  <energy>  (30) 
-5.92

>  <cluster_rmsd>  (30) 
0.45

>  <cluster>  (30) 
1

$$$$

     RDKit          3D

 33 34  0  0  0  0  0  0  0  0999 V2000
  140.6950   76.4840  222.3370 C   0  0  0  0  0  0  0  0  0  0  0  0
  140.6530   75.5750  221.0790 C   0  0  0  0  0  0  0  0  0  0  0  0
  142.0330   75.0380  220.8420 C   0  0  0  0  0  0  0  0  0  0  0  0
  139.5370   74.6040  221.2110 C   0  0  0  0  0  0  0  0  0  0  0  0
  139.5960   73.6060  222.2120 N   0  0  0  0  0  0  0  0  0  0  0  0
  140.3060   72.4000  222.2390 C   0  0  0  0  0  0  0  0  0  0  0  0
  141.0590   71.9900  221.3330 O   0  0  0  0  0  0  0  0  0  0  0  0
  140.1830   71.5100  223.4150 C   0  0  0  0  0  0  0  0  0  0  0  0
  139.5790   70.2740  223.3350 C   0  0  0  0  0  0  0  0  0  0  0  0
  139.4630   69.4440  224.4310 C   0  0  0  0  0  0  0  0  0  0  0  0
  139.9580   69.8370  225.6580 C   0  0  0  0  0  0  0  0  0  0  0  0
  139.8540   69.0230  226.7770 C   0  0  0  0  0  0  0  0  0  0  0  0
  140.3550   69.4310  227.9970 C   0  0  0  0  0  0  0  0  0  0  0  0
  140.2580   68.6410  229.0940 F   0  0  0  0  0  0  0  0  0  0  0  0
  140.9660   70.6830  228.0760 C   0  0  0  0  0  0  0  0  0  0  0  0
  141.0650   71.4920  226.9530 C   0  0  0  0  0  0  0  0  0  0  0  0
  140.5580   71.0810  225.7150 C   0  0  0  0  0  0  0  0  0  0  0  0
  140.6570   71.8700  224.6260 N   0  0  0  0  0  0  0  0  0  0  0  0
  140.6661   75.8593  223.2419 H   0  0  0  0  0  0  0  0  0  0  0  0
  141.6215   77.0769  222.3302 H   0  0  0  0  0  0  0  0  0  0  0  0
  139.8271   77.1598  222.3302 H   0  0  0  0  0  0  0  0  0  0  0  0
  140.4074   76.1097  220.1496 H   0  0  0  0  0  0  0  0  0  0  0  0
  142.5232   74.8473  221.8081 H   0  0  0  0  0  0  0  0  0  0  0  0
  141.9683   74.0994  220.2720 H   0  0  0  0  0  0  0  0  0  0  0  0
  142.6198   75.7734  220.2720 H   0  0  0  0  0  0  0  0  0  0  0  0
  138.6241   75.1891  221.3962 H   0  0  0  0  0  0  0  0  0  0  0  0
  139.5808   74.0314  220.2728 H   0  0  0  0  0  0  0  0  0  0  0  0
  139.0030   73.7950  223.0970 H   0  0  0  0  0  0  0  0  0  0  0  0
  139.1769   69.9388  222.3675 H   0  0  0  0  0  0  0  0  0  0  0  0
  138.9737   68.4644  224.3264 H   0  0  0  0  0  0  0  0  0  0  0  0
  139.3665   68.0407  226.6909 H   0  0  0  0  0  0  0  0  0  0  0  0
  141.3727   71.0316  229.0368 H   0  0  0  0  0  0  0  0  0  0  0  0
  141.5512   72.4751  227.0374 H   0  0  0  0  0  0  0  0  0  0  0  0
  1  2  1  0
  2  3  1  0
  2  4  1  0
  4  5  1  0
  5  6  1  0
  6  7  2  0
  6  8  1  0
  8  9  2  0
  9 10  1  0
 10 11  2  0
 11 12  1  0
 12 13  2  0
 13 14  1  0
 13 15  1  0
 15 16  2  0
 16 17  1  0
 17 18  2  0
 18  8  1  0
 17 11  1  0
  1 19  1  0
  1 20  1  0
  1 21  1  0
  2 22  1  0
  3 23  1  0
  3 24  1  0
  3 25  1  0
  4 26  1  0
  4 27  1  0
  5 28  1  0
  9 29  1  0
 10 30  1  0
 12 31  1  0
 15 32  1  0
 16 33  1  0
M  END
>  <smiles>  (31) 
CC(C)CNC(=O)c1ccc2cc(F)ccc2n1

>  <score_type>  (31) 
oracle

>  <origin>  (31) 
autodockgpu

>  <m_score__min__energy>  (31) 
-6.1799999999999997

>  <m_primary>  (31) 
energy

>  <rmsd>  (31) 
1.2673226102321207

>  <m_score__min__rmsd>  (31) 
1.2673226102321207

>  <meeko>  (31) 
{"free_energy": -6.09, "intermolecular_energy": -6.99, "internal_energy": -0.52, "cluster_size": 47, "cluster_id": 1, "rank_in_cluster": 24}

>  <energy>  (31) 
-5.91

>  <cluster_rmsd>  (31) 
0.79

>  <cluster>  (31) 
1

$$$$

     RDKit          3D

 33 34  0  0  0  0  0  0  0  0999 V2000
  138.2780   76.2820  222.6750 C   0  0  0  0  0  0  0  0  0  0  0  0
  139.4680   76.0800  221.6990 C   0  0  0  0  0  0  0  0  0  0  0  0
  140.6910   76.6890  222.3180 C   0  0  0  0  0  0  0  0  0  0  0  0
  139.5290   74.6540  221.2870 C   0  0  0  0  0  0  0  0  0  0  0  0
  139.5670   73.6430  222.2760 N   0  0  0  0  0  0  0  0  0  0  0  0
  140.3960   72.5210  222.3850 C   0  0  0  0  0  0  0  0  0  0  0  0
  141.3020   72.2180  221.5830 O   0  0  0  0  0  0  0  0  0  0  0  0
  140.2190   71.5940  223.5250 C   0  0  0  0  0  0  0  0  0  0  0  0
  139.5660   70.3880  223.3920 C   0  0  0  0  0  0  0  0  0  0  0  0
  139.4010   69.5240  224.4540 C   0  0  0  0  0  0  0  0  0  0  0  0
  139.8930   69.8510  225.7010 C   0  0  0  0  0  0  0  0  0  0  0  0
  139.7410   69.0010  226.7870 C   0  0  0  0  0  0  0  0  0  0  0  0
  140.2410   69.3420  228.0280 C   0  0  0  0  0  0  0  0  0  0  0  0
  140.0950   68.5170  229.0930 F   0  0  0  0  0  0  0  0  0  0  0  0
  140.9010   70.5640  228.1610 C   0  0  0  0  0  0  0  0  0  0  0  0
  141.0490   71.4080  227.0710 C   0  0  0  0  0  0  0  0  0  0  0  0
  140.5440   71.0650  225.8120 C   0  0  0  0  0  0  0  0  0  0  0  0
  140.6910   71.8900  224.7550 N   0  0  0  0  0  0  0  0  0  0  0  0
  138.6398   76.2206  223.7120 H   0  0  0  0  0  0  0  0  0  0  0  0
  137.8258   77.2698  222.5023 H   0  0  0  0  0  0  0  0  0  0  0  0
  137.5252   75.4988  222.5023 H   0  0  0  0  0  0  0  0  0  0  0  0
  139.3555   76.6107  220.7421 H   0  0  0  0  0  0  0  0  0  0  0  0
  140.6068   76.6471  223.4140 H   0  0  0  0  0  0  0  0  0  0  0  0
  141.5819   76.1293  221.9970 H   0  0  0  0  0  0  0  0  0  0  0  0
  140.7812   77.7372  221.9970 H   0  0  0  0  0  0  0  0  0  0  0  0
  138.6406   74.4619  220.6674 H   0  0  0  0  0  0  0  0  0  0  0  0
  140.5089   74.5697  220.7944 H   0  0  0  0  0  0  0  0  0  0  0  0
  138.8460   73.7460  223.0770 H   0  0  0  0  0  0  0  0  0  0  0  0
  139.1637   70.1056  222.4079 H   0  0  0  0  0  0  0  0  0  0  0  0
  138.8746   68.5695  224.3063 H   0  0  0  0  0  0  0  0  0  0  0  0
  139.2155   68.0433  226.6577 H   0  0  0  0  0  0  0  0  0  0  0  0
  141.3075   70.8604  229.1392 H   0  0  0  0  0  0  0  0  0  0  0  0
  141.5738   72.3663  227.1985 H   0  0  0  0  0  0  0  0  0  0  0  0
  1  2  1  0
  2  3  1  0
  2  4  1  0
  4  5  1  0
  5  6  1  0
  6  7  2  0
  6  8  1  0
  8  9  2  0
  9 10  1  0
 10 11  2  0
 11 12  1  0
 12 13  2  0
 13 14  1  0
 13 15  1  0
 15 16  2  0
 16 17  1  0
 17 18  2  0
 18  8  1  0
 17 11  1  0
  1 19  1  0
  1 20  1  0
  1 21  1  0
  2 22  1  0
  3 23  1  0
  3 24  1  0
  3 25  1  0
  4 26  1  0
  4 27  1  0
  5 28  1  0
  9 29  1  0
 10 30  1  0
 12 31  1  0
 15 32  1  0
 16 33  1  0
M  END
>  <smiles>  (32) 
CC(C)CNC(=O)c1ccc2cc(F)ccc2n1

>  <score_type>  (32) 
oracle

>  <origin>  (32) 
autodockgpu

>  <m_score__min__energy>  (32) 
-6.1799999999999997

>  <m_primary>  (32) 
energy

>  <rmsd>  (32) 
1.3551051231244364

>  <m_score__min__rmsd>  (32) 
1.3551051231244364

>  <meeko>  (32) 
{"free_energy": -6.18, "intermolecular_energy": -7.07, "internal_energy": -0.45, "cluster_size": 47, "cluster_id": 1, "rank_in_cluster": 4}

>  <energy>  (32) 
-5.91

>  <cluster_rmsd>  (32) 
0.8

>  <cluster>  (32) 
1

$$$$

     RDKit          3D

 33 34  0  0  0  0  0  0  0  0999 V2000
  138.2490   76.3430  222.7160 C   0  0  0  0  0  0  0  0  0  0  0  0
  139.3930   75.9720  221.7330 C   0  0  0  0  0  0  0  0  0  0  0  0
  140.6920   76.4180  222.3360 C   0  0  0  0  0  0  0  0  0  0  0  0
  139.2570   74.5470  221.3360 C   0  0  0  0  0  0  0  0  0  0  0  0
  139.3600   73.5360  222.3200 N   0  0  0  0  0  0  0  0  0  0  0  0
  140.3400   72.5540  222.5030 C   0  0  0  0  0  0  0  0  0  0  0  0
  141.3520   72.4090  221.7890 O   0  0  0  0  0  0  0  0  0  0  0  0
  140.2040   71.5890  223.6170 C   0  0  0  0  0  0  0  0  0  0  0  0
  139.5890   70.3670  223.4550 C   0  0  0  0  0  0  0  0  0  0  0  0
  139.4620   69.4680  224.4930 C   0  0  0  0  0  0  0  0  0  0  0  0
  139.9550   69.7750  225.7450 C   0  0  0  0  0  0  0  0  0  0  0  0
  139.8410   68.8900  226.8070 C   0  0  0  0  0  0  0  0  0  0  0  0
  140.3410   69.2130  228.0530 C   0  0  0  0  0  0  0  0  0  0  0  0
  140.2320   68.3530  229.0950 F   0  0  0  0  0  0  0  0  0  0  0  0
  140.9620   70.4510  228.2160 C   0  0  0  0  0  0  0  0  0  0  0  0
  141.0720   71.3310  227.1490 C   0  0  0  0  0  0  0  0  0  0  0  0
  140.5670   71.0070  225.8860 C   0  0  0  0  0  0  0  0  0  0  0  0
  140.6770   71.8650  224.8510 N   0  0  0  0  0  0  0  0  0  0  0  0
  138.6033   76.2281  223.7510 H   0  0  0  0  0  0  0  0  0  0  0  0
  137.9438   77.3862  222.5466 H   0  0  0  0  0  0  0  0  0  0  0  0
  137.3897   75.6775  222.5466 H   0  0  0  0  0  0  0  0  0  0  0  0
  139.3454   76.5025  220.7705 H   0  0  0  0  0  0  0  0  0  0  0  0
  140.6152   76.3916  223.4330 H   0  0  0  0  0  0  0  0  0  0  0  0
  141.4984   75.7452  222.0086 H   0  0  0  0  0  0  0  0  0  0  0  0
  140.9150   77.4442  222.0086 H   0  0  0  0  0  0  0  0  0  0  0  0
  138.2673   74.4384  220.8684 H   0  0  0  0  0  0  0  0  0  0  0  0
  140.1338   74.3731  220.6949 H   0  0  0  0  0  0  0  0  0  0  0  0
  138.5600   73.5110  223.0490 H   0  0  0  0  0  0  0  0  0  0  0  0
  139.1866   70.0999  222.4667 H   0  0  0  0  0  0  0  0  0  0  0  0
  138.9653   68.5015  224.3223 H   0  0  0  0  0  0  0  0  0  0  0  0
  139.3464   67.9193  226.6548 H   0  0  0  0  0  0  0  0  0  0  0  0
  141.3681   70.7322  229.1989 H   0  0  0  0  0  0  0  0  0  0  0  0
  141.5660   72.3022  227.2995 H   0  0  0  0  0  0  0  0  0  0  0  0
  1  2  1  0
  2  3  1  0
  2  4  1  0
  4  5  1  0
  5  6  1  0
  6  7  2  0
  6  8  1  0
  8  9  2  0
  9 10  1  0
 10 11  2  0
 11 12  1  0
 12 13  2  0
 13 14  1  0
 13 15  1  0
 15 16  2  0
 16 17  1  0
 17 18  2  0
 18  8  1  0
 17 11  1  0
  1 19  1  0
  1 20  1  0
  1 21  1  0
  2 22  1  0
  3 23  1  0
  3 24  1  0
  3 25  1  0
  4 26  1  0
  4 27  1  0
  5 28  1  0
  9 29  1  0
 10 30  1  0
 12 31  1  0
 15 32  1  0
 16 33  1  0
M  END
>  <smiles>  (33) 
CC(C)CNC(=O)c1ccc2cc(F)ccc2n1

>  <score_type>  (33) 
oracle

>  <origin>  (33) 
autodockgpu

>  <m_score__min__energy>  (33) 
-6.1799999999999997

>  <m_primary>  (33) 
energy

>  <rmsd>  (33) 
1.3081499217470767

>  <m_score__min__rmsd>  (33) 
1.3081499217470767

>  <meeko>  (33) 
{"free_energy": -6.14, "intermolecular_energy": -7.03, "internal_energy": -0.46, "cluster_size": 47, "cluster_id": 1, "rank_in_cluster": 19}

>  <energy>  (33) 
-5.91

>  <cluster_rmsd>  (33) 
0.51

>  <cluster>  (33) 
1

$$$$

     RDKit          3D

 33 34  0  0  0  0  0  0  0  0999 V2000
  140.7150   76.5300  222.3030 C   0  0  0  0  0  0  0  0  0  0  0  0
  140.6060   75.5790  221.0790 C   0  0  0  0  0  0  0  0  0  0  0  0
  141.9680   75.0160  220.8010 C   0  0  0  0  0  0  0  0  0  0  0  0
  139.4860   74.6270  221.2950 C   0  0  0  0  0  0  0  0  0  0  0  0
  139.6070   73.6190  222.2790 N   0  0  0  0  0  0  0  0  0  0  0  0
  139.9310   72.2640  222.1450 C   0  0  0  0  0  0  0  0  0  0  0  0
  140.1940   71.6930  221.0680 O   0  0  0  0  0  0  0  0  0  0  0  0
  139.9750   71.4040  223.3490 C   0  0  0  0  0  0  0  0  0  0  0  0
  139.5330   70.1000  223.3320 C   0  0  0  0  0  0  0  0  0  0  0  0
  139.5740   69.2980  224.4540 C   0  0  0  0  0  0  0  0  0  0  0  0
  140.0680   69.7910  225.6450 C   0  0  0  0  0  0  0  0  0  0  0  0
  140.1200   69.0080  226.7880 C   0  0  0  0  0  0  0  0  0  0  0  0
  140.6180   69.5160  227.9710 C   0  0  0  0  0  0  0  0  0  0  0  0
  140.6720   68.7560  229.0920 F   0  0  0  0  0  0  0  0  0  0  0  0
  141.0640   70.8380  227.9870 C   0  0  0  0  0  0  0  0  0  0  0  0
  141.0080   71.6150  226.8390 C   0  0  0  0  0  0  0  0  0  0  0  0
  140.5050   71.1030  225.6390 C   0  0  0  0  0  0  0  0  0  0  0  0
  140.4520   71.8620  224.5260 N   0  0  0  0  0  0  0  0  0  0  0  0
  140.6477   75.9428  223.2307 H   0  0  0  0  0  0  0  0  0  0  0  0
  141.6795   77.0580  222.2724 H   0  0  0  0  0  0  0  0  0  0  0  0
  139.8949   77.2625  222.2724 H   0  0  0  0  0  0  0  0  0  0  0  0
  140.3252   76.0847  220.1434 H   0  0  0  0  0  0  0  0  0  0  0  0
  142.4786   74.8049  221.7521 H   0  0  0  0  0  0  0  0  0  0  0  0
  141.8691   74.0850  220.2235 H   0  0  0  0  0  0  0  0  0  0  0  0
  142.5553   75.7451  220.2235 H   0  0  0  0  0  0  0  0  0  0  0  0
  138.6028   75.2272  221.5592 H   0  0  0  0  0  0  0  0  0  0  0  0
  139.4424   74.0624  220.3520 H   0  0  0  0  0  0  0  0  0  0  0  0
  139.4220   73.9360  223.2980 H   0  0  0  0  0  0  0  0  0  0  0  0
  139.1347   69.6847  222.3945 H   0  0  0  0  0  0  0  0  0  0  0  0
  139.2114   68.2609  224.3992 H   0  0  0  0  0  0  0  0  0  0  0  0
  139.7600   67.9692  226.7517 H   0  0  0  0  0  0  0  0  0  0  0  0
  141.4633   71.2677  228.9175 H   0  0  0  0  0  0  0  0  0  0  0  0
  141.3664   72.6544  226.8735 H   0  0  0  0  0  0  0  0  0  0  0  0
  1  2  1  0
  2  3  1  0
  2  4  1  0
  4  5  1  0
  5  6  1  0
  6  7  2  0
  6  8  1  0
  8  9  2  0
  9 10  1  0
 10 11  2  0
 11 12  1  0
 12 13  2  0
 13 14  1  0
 13 15  1  0
 15 16  2  0
 16 17  1  0
 17 18  2  0
 18  8  1  0
 17 11  1  0
  1 19  1  0
  1 20  1  0
  1 21  1  0
  2 22  1  0
  3 23  1  0
  3 24  1  0
  3 25  1  0
  4 26  1  0
  4 27  1  0
  5 28  1  0
  9 29  1  0
 10 30  1  0
 12 31  1  0
 15 32  1  0
 16 33  1  0
M  END
>  <smiles>  (34) 
CC(C)CNC(=O)c1ccc2cc(F)ccc2n1

>  <score_type>  (34) 
oracle

>  <origin>  (34) 
autodockgpu

>  <m_score__min__energy>  (34) 
-6.1799999999999997

>  <m_primary>  (34) 
energy

>  <rmsd>  (34) 
1.1459290303583063

>  <m_score__min__rmsd>  (34) 
1.1459290303583063

>  <meeko>  (34) 
{"free_energy": -5.91, "intermolecular_energy": -6.81, "internal_energy": -0.66, "cluster_size": 47, "cluster_id": 1, "rank_in_cluster": 32}

>  <energy>  (34) 
-5.91

>  <cluster_rmsd>  (34) 
0.81

>  <cluster>  (34) 
1

$$$$

     RDKit          3D

 33 34  0  0  0  0  0  0  0  0999 V2000
  138.2800   76.2690  222.7170 C   0  0  0  0  0  0  0  0  0  0  0  0
  139.4670   76.0780  221.7340 C   0  0  0  0  0  0  0  0  0  0  0  0
  140.6870   76.6980  222.3460 C   0  0  0  0  0  0  0  0  0  0  0  0
  139.5380   74.6530  221.3200 C   0  0  0  0  0  0  0  0  0  0  0  0
  139.5690   73.6410  222.3070 N   0  0  0  0  0  0  0  0  0  0  0  0
  140.4230   72.5400  222.4420 C   0  0  0  0  0  0  0  0  0  0  0  0
  141.3630   72.2630  221.6700 O   0  0  0  0  0  0  0  0  0  0  0  0
  140.2320   71.6050  223.5730 C   0  0  0  0  0  0  0  0  0  0  0  0
  139.5670   70.4080  223.4260 C   0  0  0  0  0  0  0  0  0  0  0  0
  139.3880   69.5360  224.4810 C   0  0  0  0  0  0  0  0  0  0  0  0
  139.8790   69.8470  225.7320 C   0  0  0  0  0  0  0  0  0  0  0  0
  139.7130   68.9890  226.8100 C   0  0  0  0  0  0  0  0  0  0  0  0
  140.2110   69.3150  228.0560 C   0  0  0  0  0  0  0  0  0  0  0  0
  140.0530   68.4820  229.1130 F   0  0  0  0  0  0  0  0  0  0  0  0
  140.8840   70.5280  228.2020 C   0  0  0  0  0  0  0  0  0  0  0  0
  141.0460   71.3800  227.1200 C   0  0  0  0  0  0  0  0  0  0  0  0
  140.5420   71.0530  225.8570 C   0  0  0  0  0  0  0  0  0  0  0  0
  140.7020   71.8850  224.8070 N   0  0  0  0  0  0  0  0  0  0  0  0
  138.6479   76.2098  223.7520 H   0  0  0  0  0  0  0  0  0  0  0  0
  137.8184   77.2530  222.5476 H   0  0  0  0  0  0  0  0  0  0  0  0
  137.5330   75.4795  222.5476 H   0  0  0  0  0  0  0  0  0  0  0  0
  139.3450   76.6080  220.7778 H   0  0  0  0  0  0  0  0  0  0  0  0
  140.6080   76.6578  223.4424 H   0  0  0  0  0  0  0  0  0  0  0  0
  141.5810   76.1449  222.0223 H   0  0  0  0  0  0  0  0  0  0  0  0
  140.7672   77.7462  222.0223 H   0  0  0  0  0  0  0  0  0  0  0  0
  138.6572   74.4587  220.6904 H   0  0  0  0  0  0  0  0  0  0  0  0
  140.5235   74.5733  220.8379 H   0  0  0  0  0  0  0  0  0  0  0  0
  138.8190   73.7220  223.0830 H   0  0  0  0  0  0  0  0  0  0  0  0
  139.1662   70.1386  222.4377 H   0  0  0  0  0  0  0  0  0  0  0  0
  138.8514   68.5888  224.3234 H   0  0  0  0  0  0  0  0  0  0  0  0
  139.1783   68.0379  226.6703 H   0  0  0  0  0  0  0  0  0  0  0  0
  141.2899   70.8113  229.1843 H   0  0  0  0  0  0  0  0  0  0  0  0
  141.5811   72.3312  227.2577 H   0  0  0  0  0  0  0  0  0  0  0  0
  1  2  1  0
  2  3  1  0
  2  4  1  0
  4  5  1  0
  5  6  1  0
  6  7  2  0
  6  8  1  0
  8  9  2  0
  9 10  1  0
 10 11  2  0
 11 12  1  0
 12 13  2  0
 13 14  1  0
 13 15  1  0
 15 16  2  0
 16 17  1  0
 17 18  2  0
 18  8  1  0
 17 11  1  0
  1 19  1  0
  1 20  1  0
  1 21  1  0
  2 22  1  0
  3 23  1  0
  3 24  1  0
  3 25  1  0
  4 26  1  0
  4 27  1  0
  5 28  1  0
  9 29  1  0
 10 30  1  0
 12 31  1  0
 15 32  1  0
 16 33  1  0
M  END
>  <smiles>  (35) 
CC(C)CNC(=O)c1ccc2cc(F)ccc2n1

>  <score_type>  (35) 
oracle

>  <origin>  (35) 
autodockgpu

>  <m_score__min__energy>  (35) 
-6.1799999999999997

>  <m_primary>  (35) 
energy

>  <rmsd>  (35) 
1.3793621956087883

>  <m_score__min__rmsd>  (35) 
1.3793621956087883

>  <meeko>  (35) 
{"free_energy": -6.18, "intermolecular_energy": -7.07, "internal_energy": -0.45, "cluster_size": 47, "cluster_id": 1, "rank_in_cluster": 9}

>  <energy>  (35) 
-5.9

>  <cluster_rmsd>  (35) 
0.54

>  <cluster>  (35) 
1

$$$$

     RDKit          3D

 33 34  0  0  0  0  0  0  0  0999 V2000
  138.2800   76.3340  222.7000 C   0  0  0  0  0  0  0  0  0  0  0  0
  139.4550   76.0440  221.7280 C   0  0  0  0  0  0  0  0  0  0  0  0
  140.7180   76.5610  222.3510 C   0  0  0  0  0  0  0  0  0  0  0  0
  139.4110   74.6180  221.3150 C   0  0  0  0  0  0  0  0  0  0  0  0
  139.4900   73.6050  222.2980 N   0  0  0  0  0  0  0  0  0  0  0  0
  140.3810   72.5320  222.4170 C   0  0  0  0  0  0  0  0  0  0  0  0
  141.3180   72.2880  221.6310 O   0  0  0  0  0  0  0  0  0  0  0  0
  140.2370   71.5880  223.5480 C   0  0  0  0  0  0  0  0  0  0  0  0
  139.6300   70.3600  223.4010 C   0  0  0  0  0  0  0  0  0  0  0  0
  139.4950   69.4800  224.4550 C   0  0  0  0  0  0  0  0  0  0  0  0
  139.9720   69.8130  225.7060 C   0  0  0  0  0  0  0  0  0  0  0  0
  139.8490   68.9480  226.7840 C   0  0  0  0  0  0  0  0  0  0  0  0
  140.3330   69.2960  228.0290 C   0  0  0  0  0  0  0  0  0  0  0  0
  140.2160   68.4560  229.0860 F   0  0  0  0  0  0  0  0  0  0  0  0
  140.9460   70.5400  228.1750 C   0  0  0  0  0  0  0  0  0  0  0  0
  141.0650   71.4010  227.0930 C   0  0  0  0  0  0  0  0  0  0  0  0
  140.5760   71.0500  225.8310 C   0  0  0  0  0  0  0  0  0  0  0  0
  140.6940   71.8900  224.7810 N   0  0  0  0  0  0  0  0  0  0  0  0
  138.6329   76.2469  223.7382 H   0  0  0  0  0  0  0  0  0  0  0  0
  137.9024   77.3523  222.5253 H   0  0  0  0  0  0  0  0  0  0  0  0
  137.4720   75.6083  222.5253 H   0  0  0  0  0  0  0  0  0  0  0  0
  139.3857   76.5815  220.7708 H   0  0  0  0  0  0  0  0  0  0  0  0
  140.6281   76.5242  223.4467 H   0  0  0  0  0  0  0  0  0  0  0  0
  141.5662   75.9377  222.0316 H   0  0  0  0  0  0  0  0  0  0  0  0
  140.8857   77.6001  222.0316 H   0  0  0  0  0  0  0  0  0  0  0  0
  138.4623   74.4696  220.7784 H   0  0  0  0  0  0  0  0  0  0  0  0
  140.3373   74.4884  220.7361 H   0  0  0  0  0  0  0  0  0  0  0  0
  138.7480   73.6590  223.0850 H   0  0  0  0  0  0  0  0  0  0  0  0
  139.2411   70.0723  222.4131 H   0  0  0  0  0  0  0  0  0  0  0  0
  139.0046   68.5081  224.2971 H   0  0  0  0  0  0  0  0  0  0  0  0
  139.3597   67.9727  226.6447 H   0  0  0  0  0  0  0  0  0  0  0  0
  141.3390   70.8418  229.1571 H   0  0  0  0  0  0  0  0  0  0  0  0
  141.5529   72.3772  227.2308 H   0  0  0  0  0  0  0  0  0  0  0  0
  1  2  1  0
  2  3  1  0
  2  4  1  0
  4  5  1  0
  5  6  1  0
  6  7  2  0
  6  8  1  0
  8  9  2  0
  9 10  1  0
 10 11  2  0
 11 12  1  0
 12 13  2  0
 13 14  1  0
 13 15  1  0
 15 16  2  0
 16 17  1  0
 17 18  2  0
 18  8  1  0
 17 11  1  0
  1 19  1  0
  1 20  1  0
  1 21  1  0
  2 22  1  0
  3 23  1  0
  3 24  1  0
  3 25  1  0
  4 26  1  0
  4 27  1  0
  5 28  1  0
  9 29  1  0
 10 30  1  0
 12 31  1  0
 15 32  1  0
 16 33  1  0
M  END
>  <smiles>  (36) 
CC(C)CNC(=O)c1ccc2cc(F)ccc2n1

>  <score_type>  (36) 
oracle

>  <origin>  (36) 
autodockgpu

>  <m_score__min__energy>  (36) 
-6.1799999999999997

>  <m_primary>  (36) 
energy

>  <rmsd>  (36) 
1.3282954243618759

>  <m_score__min__rmsd>  (36) 
1.3282954243618759

>  <meeko>  (36) 
{"free_energy": -6.16, "intermolecular_energy": -7.06, "internal_energy": -0.46, "cluster_size": 47, "cluster_id": 1, "rank_in_cluster": 16}

>  <energy>  (36) 
-5.89

>  <cluster_rmsd>  (36) 
0.85

>  <cluster>  (36) 
1

$$$$

     RDKit          3D

 33 34  0  0  0  0  0  0  0  0999 V2000
  144.5400   73.2450  220.5260 C   0  0  0  0  0  0  0  0  0  0  0  0
  143.2220   74.0590  220.6290 C   0  0  0  0  0  0  0  0  0  0  0  0
  143.3170   75.2260  219.6910 C   0  0  0  0  0  0  0  0  0  0  0  0
  142.0640   73.1400  220.4860 C   0  0  0  0  0  0  0  0  0  0  0  0
  141.6300   72.3860  221.6010 N   0  0  0  0  0  0  0  0  0  0  0  0
  140.5500   72.5970  222.4660 C   0  0  0  0  0  0  0  0  0  0  0  0
  139.7370   73.5390  222.3800 O   0  0  0  0  0  0  0  0  0  0  0  0
  140.3190   71.6560  223.5840 C   0  0  0  0  0  0  0  0  0  0  0  0
  139.6300   70.4750  223.4140 C   0  0  0  0  0  0  0  0  0  0  0  0
  139.4140   69.5970  224.4560 C   0  0  0  0  0  0  0  0  0  0  0  0
  139.8900   69.8850  225.7190 C   0  0  0  0  0  0  0  0  0  0  0  0
  139.6860   69.0200  226.7850 C   0  0  0  0  0  0  0  0  0  0  0  0
  140.1700   69.3220  228.0420 C   0  0  0  0  0  0  0  0  0  0  0  0
  139.9740   68.4830  229.0880 F   0  0  0  0  0  0  0  0  0  0  0  0
  140.8660   70.5190  228.2130 C   0  0  0  0  0  0  0  0  0  0  0  0
  141.0650   71.3780  227.1420 C   0  0  0  0  0  0  0  0  0  0  0  0
  140.5770   71.0750  225.8670 C   0  0  0  0  0  0  0  0  0  0  0  0
  140.7730   71.9130  224.8290 N   0  0  0  0  0  0  0  0  0  0  0  0
  144.9098   73.0166  221.5365 H   0  0  0  0  0  0  0  0  0  0  0  0
  144.3501   72.3067  219.9843 H   0  0  0  0  0  0  0  0  0  0  0  0
  145.2939   73.8350  219.9843 H   0  0  0  0  0  0  0  0  0  0  0  0
  143.0560   74.5163  221.6156 H   0  0  0  0  0  0  0  0  0  0  0  0
  143.3928   76.1575  220.2711 H   0  0  0  0  0  0  0  0  0  0  0  0
  144.2091   75.1152  219.0570 H   0  0  0  0  0  0  0  0  0  0  0  0
  142.4187   75.2610  219.0570 H   0  0  0  0  0  0  0  0  0  0  0  0
  141.2091   73.7512  220.1610 H   0  0  0  0  0  0  0  0  0  0  0  0
  142.4270   72.3754  219.7834 H   0  0  0  0  0  0  0  0  0  0  0  0
  142.2190   71.5060  221.8280 H   0  0  0  0  0  0  0  0  0  0  0  0
  139.2400   70.2244  222.4164 H   0  0  0  0  0  0  0  0  0  0  0  0
  138.8599   68.6633  224.2794 H   0  0  0  0  0  0  0  0  0  0  0  0
  139.1322   68.0829  226.6264 H   0  0  0  0  0  0  0  0  0  0  0  0
  141.2602   70.7838  229.2052 H   0  0  0  0  0  0  0  0  0  0  0  0
  141.6176   72.3161  227.2988 H   0  0  0  0  0  0  0  0  0  0  0  0
  1  2  1  0
  2  3  1  0
  2  4  1  0
  4  5  1  0
  5  6  1  0
  6  7  2  0
  6  8  1  0
  8  9  2  0
  9 10  1  0
 10 11  2  0
 11 12  1  0
 12 13  2  0
 13 14  1  0
 13 15  1  0
 15 16  2  0
 16 17  1  0
 17 18  2  0
 18  8  1  0
 17 11  1  0
  1 19  1  0
  1 20  1  0
  1 21  1  0
  2 22  1  0
  3 23  1  0
  3 24  1  0
  3 25  1  0
  4 26  1  0
  4 27  1  0
  5 28  1  0
  9 29  1  0
 10 30  1  0
 12 31  1  0
 15 32  1  0
 16 33  1  0
M  END
>  <smiles>  (37) 
CC(C)CNC(=O)c1ccc2cc(F)ccc2n1

>  <score_type>  (37) 
oracle

>  <origin>  (37) 
autodockgpu

>  <m_score__min__energy>  (37) 
-6.1799999999999997

>  <m_primary>  (37) 
energy

>  <rmsd>  (37) 
2.271259835739372

>  <m_score__min__rmsd>  (37) 
2.271259835739372

>  <meeko>  (37) 
{"free_energy": -6.08, "intermolecular_energy": -6.98, "internal_energy": -0.39, "cluster_size": 3, "cluster_id": 2, "rank_in_cluster": 3}

>  <energy>  (37) 
-5.89

>  <cluster_rmsd>  (37) 
0.84

>  <cluster>  (37) 
1

$$$$

     RDKit          3D

 33 34  0  0  0  0  0  0  0  0999 V2000
  138.2760   76.2780  222.6600 C   0  0  0  0  0  0  0  0  0  0  0  0
  139.4780   76.0830  221.6960 C   0  0  0  0  0  0  0  0  0  0  0  0
  140.6910   76.7000  222.3270 C   0  0  0  0  0  0  0  0  0  0  0  0
  139.5520   74.6570  221.2850 C   0  0  0  0  0  0  0  0  0  0  0  0
  139.5890   73.6470  222.2750 N   0  0  0  0  0  0  0  0  0  0  0  0
  140.4040   72.5140  222.3760 C   0  0  0  0  0  0  0  0  0  0  0  0
  141.2960   72.1990  221.5630 O   0  0  0  0  0  0  0  0  0  0  0  0
  140.2290   71.5910  223.5190 C   0  0  0  0  0  0  0  0  0  0  0  0
  139.5710   70.3870  223.3910 C   0  0  0  0  0  0  0  0  0  0  0  0
  139.4070   69.5270  224.4570 C   0  0  0  0  0  0  0  0  0  0  0  0
  139.9060   69.8550  225.7010 C   0  0  0  0  0  0  0  0  0  0  0  0
  139.7540   69.0090  226.7900 C   0  0  0  0  0  0  0  0  0  0  0  0
  140.2600   69.3520  228.0280 C   0  0  0  0  0  0  0  0  0  0  0  0
  140.1160   68.5300  229.0960 F   0  0  0  0  0  0  0  0  0  0  0  0
  140.9240   70.5720  228.1550 C   0  0  0  0  0  0  0  0  0  0  0  0
  141.0710   71.4130  227.0620 C   0  0  0  0  0  0  0  0  0  0  0  0
  140.5610   71.0680  225.8070 C   0  0  0  0  0  0  0  0  0  0  0  0
  140.7060   71.8890  224.7460 N   0  0  0  0  0  0  0  0  0  0  0  0
  138.6276   76.2210  223.7007 H   0  0  0  0  0  0  0  0  0  0  0  0
  137.8183   77.2621  222.4810 H   0  0  0  0  0  0  0  0  0  0  0  0
  137.5307   75.4890  222.4810 H   0  0  0  0  0  0  0  0  0  0  0  0
  139.3721   76.6128  220.7378 H   0  0  0  0  0  0  0  0  0  0  0  0
  140.5987   76.6530  223.4221 H   0  0  0  0  0  0  0  0  0  0  0  0
  141.5891   76.1492  222.0108 H   0  0  0  0  0  0  0  0  0  0  0  0
  140.7747   77.7502  222.0108 H   0  0  0  0  0  0  0  0  0  0  0  0
  138.6699   74.4586  220.6585 H   0  0  0  0  0  0  0  0  0  0  0  0
  140.5362   74.5790  220.8000 H   0  0  0  0  0  0  0  0  0  0  0  0
  138.8780   73.7600  223.0840 H   0  0  0  0  0  0  0  0  0  0  0  0
  139.1643   70.1031  222.4092 H   0  0  0  0  0  0  0  0  0  0  0  0
  138.8755   68.5745  224.3146 H   0  0  0  0  0  0  0  0  0  0  0  0
  139.2239   68.0532  226.6656 H   0  0  0  0  0  0  0  0  0  0  0  0
  141.3348   70.8699  229.1310 H   0  0  0  0  0  0  0  0  0  0  0  0
  141.5991   72.3700  227.1850 H   0  0  0  0  0  0  0  0  0  0  0  0
  1  2  1  0
  2  3  1  0
  2  4  1  0
  4  5  1  0
  5  6  1  0
  6  7  2  0
  6  8  1  0
  8  9  2  0
  9 10  1  0
 10 11  2  0
 11 12  1  0
 12 13  2  0
 13 14  1  0
 13 15  1  0
 15 16  2  0
 16 17  1  0
 17 18  2  0
 18  8  1  0
 17 11  1  0
  1 19  1  0
  1 20  1  0
  1 21  1  0
  2 22  1  0
  3 23  1  0
  3 24  1  0
  3 25  1  0
  4 26  1  0
  4 27  1  0
  5 28  1  0
  9 29  1  0
 10 30  1  0
 12 31  1  0
 15 32  1  0
 16 33  1  0
M  END
>  <smiles>  (38) 
CC(C)CNC(=O)c1ccc2cc(F)ccc2n1

>  <score_type>  (38) 
oracle

>  <origin>  (38) 
autodockgpu

>  <m_score__min__energy>  (38) 
-6.1799999999999997

>  <m_primary>  (38) 
energy

>  <rmsd>  (38) 
1.3591349052657764

>  <m_score__min__rmsd>  (38) 
1.3591349052657764

>  <meeko>  (38) 
{"free_energy": -6.18, "intermolecular_energy": -7.08, "internal_energy": -0.45, "cluster_size": 47, "cluster_id": 1, "rank_in_cluster": 2}

>  <energy>  (38) 
-5.89

>  <cluster_rmsd>  (38) 
0.86

>  <cluster>  (38) 
1

$$$$

     RDKit          3D

 33 34  0  0  0  0  0  0  0  0999 V2000
  140.6760   76.5860  222.3050 C   0  0  0  0  0  0  0  0  0  0  0  0
  140.5440   75.6010  221.1120 C   0  0  0  0  0  0  0  0  0  0  0  0
  141.8980   75.0200  220.8310 C   0  0  0  0  0  0  0  0  0  0  0  0
  139.4210   74.6640  221.3700 C   0  0  0  0  0  0  0  0  0  0  0  0
  139.5700   73.6460  222.3400 N   0  0  0  0  0  0  0  0  0  0  0  0
  139.7090   72.2620  222.1790 C   0  0  0  0  0  0  0  0  0  0  0  0
  139.7370   71.6670  221.0840 O   0  0  0  0  0  0  0  0  0  0  0  0
  139.8340   71.4000  223.3760 C   0  0  0  0  0  0  0  0  0  0  0  0
  139.4620   70.0740  223.3620 C   0  0  0  0  0  0  0  0  0  0  0  0
  139.5780   69.2700  224.4770 C   0  0  0  0  0  0  0  0  0  0  0  0
  140.0790   69.7820  225.6570 C   0  0  0  0  0  0  0  0  0  0  0  0
  140.2070   68.9970  226.7930 C   0  0  0  0  0  0  0  0  0  0  0  0
  140.7100   69.5250  227.9650 C   0  0  0  0  0  0  0  0  0  0  0  0
  140.8380   68.7630  229.0790 F   0  0  0  0  0  0  0  0  0  0  0  0
  141.0860   70.8680  227.9760 C   0  0  0  0  0  0  0  0  0  0  0  0
  140.9550   71.6470  226.8360 C   0  0  0  0  0  0  0  0  0  0  0  0
  140.4450   71.1150  225.6480 C   0  0  0  0  0  0  0  0  0  0  0  0
  140.3200   71.8770  224.5410 N   0  0  0  0  0  0  0  0  0  0  0  0
  140.6013   76.0288  223.2505 H   0  0  0  0  0  0  0  0  0  0  0  0
  141.6503   77.0942  222.2548 H   0  0  0  0  0  0  0  0  0  0  0  0
  139.8699   77.3328  222.2548 H   0  0  0  0  0  0  0  0  0  0  0  0
  140.2539   76.0820  220.1663 H   0  0  0  0  0  0  0  0  0  0  0  0
  142.4075   74.8014  221.7810 H   0  0  0  0  0  0  0  0  0  0  0  0
  141.7855   74.0909  220.2529 H   0  0  0  0  0  0  0  0  0  0  0  0
  142.4939   75.7416  220.2529 H   0  0  0  0  0  0  0  0  0  0  0  0
  138.5594   75.2748  221.6776 H   0  0  0  0  0  0  0  0  0  0  0  0
  139.3276   74.1079  220.4255 H   0  0  0  0  0  0  0  0  0  0  0  0
  139.5800   73.9790  223.3700 H   0  0  0  0  0  0  0  0  0  0  0  0
  139.0601   69.6428  222.4333 H   0  0  0  0  0  0  0  0  0  0  0  0
  139.2696   68.2154  224.4255 H   0  0  0  0  0  0  0  0  0  0  0  0
  139.9038   67.9401  226.7597 H   0  0  0  0  0  0  0  0  0  0  0  0
  141.4901   71.3134  228.8971 H   0  0  0  0  0  0  0  0  0  0  0  0
  141.2583   72.7039  226.8672 H   0  0  0  0  0  0  0  0  0  0  0  0
  1  2  1  0
  2  3  1  0
  2  4  1  0
  4  5  1  0
  5  6  1  0
  6  7  2  0
  6  8  1  0
  8  9  2  0
  9 10  1  0
 10 11  2  0
 11 12  1  0
 12 13  2  0
 13 14  1  0
 13 15  1  0
 15 16  2  0
 16 17  1  0
 17 18  2  0
 18  8  1  0
 17 11  1  0
  1 19  1  0
  1 20  1  0
  1 21  1  0
  2 22  1  0
  3 23  1  0
  3 24  1  0
  3 25  1  0
  4 26  1  0
  4 27  1  0
  5 28  1  0
  9 29  1  0
 10 30  1  0
 12 31  1  0
 15 32  1  0
 16 33  1  0
M  END
>  <smiles>  (39) 
CC(C)CNC(=O)c1ccc2cc(F)ccc2n1

>  <score_type>  (39) 
oracle

>  <origin>  (39) 
autodockgpu

>  <m_score__min__energy>  (39) 
-6.1799999999999997

>  <m_primary>  (39) 
energy

>  <rmsd>  (39) 
1.1166924348329603

>  <m_score__min__rmsd>  (39) 
1.1166924348329603

>  <meeko>  (39) 
{"free_energy": -5.87, "intermolecular_energy": -6.77, "internal_energy": -0.73, "cluster_size": 47, "cluster_id": 1, "rank_in_cluster": 45}

>  <energy>  (39) 
-5.89

>  <cluster_rmsd>  (39) 
0.85

>  <cluster>  (39) 
1

$$$$

     RDKit          3D

 33 34  0  0  0  0  0  0  0  0999 V2000
  140.6950   76.6140  222.2650 C   0  0  0  0  0  0  0  0  0  0  0  0
  140.5740   75.6020  221.0930 C   0  0  0  0  0  0  0  0  0  0  0  0
  141.9250   74.9970  220.8530 C   0  0  0  0  0  0  0  0  0  0  0  0
  139.4330   74.6860  221.3510 C   0  0  0  0  0  0  0  0  0  0  0  0
  139.5640   73.6650  222.3210 N   0  0  0  0  0  0  0  0  0  0  0  0
  139.9110   72.3180  222.1690 C   0  0  0  0  0  0  0  0  0  0  0  0
  140.1910   71.7670  221.0860 O   0  0  0  0  0  0  0  0  0  0  0  0
  139.9620   71.4410  223.3610 C   0  0  0  0  0  0  0  0  0  0  0  0
  139.5320   70.1330  223.3240 C   0  0  0  0  0  0  0  0  0  0  0  0
  139.5780   69.3150  224.4340 C   0  0  0  0  0  0  0  0  0  0  0  0
  140.0650   69.7960  225.6330 C   0  0  0  0  0  0  0  0  0  0  0  0
  140.1230   68.9960  226.7650 C   0  0  0  0  0  0  0  0  0  0  0  0
  140.6130   69.4920  227.9560 C   0  0  0  0  0  0  0  0  0  0  0  0
  140.6720   68.7160  229.0660 F   0  0  0  0  0  0  0  0  0  0  0  0
  141.0470   70.8170  227.9920 C   0  0  0  0  0  0  0  0  0  0  0  0
  140.9860   71.6100  226.8560 C   0  0  0  0  0  0  0  0  0  0  0  0
  140.4900   71.1110  225.6470 C   0  0  0  0  0  0  0  0  0  0  0  0
  140.4320   71.8860  224.5450 N   0  0  0  0  0  0  0  0  0  0  0  0
  140.6307   76.0759  223.2222 H   0  0  0  0  0  0  0  0  0  0  0  0
  141.6618   77.1348  222.2014 H   0  0  0  0  0  0  0  0  0  0  0  0
  139.8782   77.3481  222.2014 H   0  0  0  0  0  0  0  0  0  0  0  0
  140.3097   76.0637  220.1302 H   0  0  0  0  0  0  0  0  0  0  0  0
  142.4068   74.7812  221.8180 H   0  0  0  0  0  0  0  0  0  0  0  0
  141.8125   74.0633  220.2825 H   0  0  0  0  0  0  0  0  0  0  0  0
  142.5467   75.7027  220.2825 H   0  0  0  0  0  0  0  0  0  0  0  0
  138.5832   75.3127  221.6592 H   0  0  0  0  0  0  0  0  0  0  0  0
  139.3281   74.1323  220.4063 H   0  0  0  0  0  0  0  0  0  0  0  0
  139.3670   73.9640  223.3430 H   0  0  0  0  0  0  0  0  0  0  0  0
  139.1395   69.7278  222.3797 H   0  0  0  0  0  0  0  0  0  0  0  0
  139.2253   68.2755  224.3635 H   0  0  0  0  0  0  0  0  0  0  0  0
  139.7743   67.9541  226.7126 H   0  0  0  0  0  0  0  0  0  0  0  0
  141.4410   71.2365  228.9294 H   0  0  0  0  0  0  0  0  0  0  0  0
  141.3345   72.6521  226.9066 H   0  0  0  0  0  0  0  0  0  0  0  0
  1  2  1  0
  2  3  1  0
  2  4  1  0
  4  5  1  0
  5  6  1  0
  6  7  2  0
  6  8  1  0
  8  9  2  0
  9 10  1  0
 10 11  2  0
 11 12  1  0
 12 13  2  0
 13 14  1  0
 13 15  1  0
 15 16  2  0
 16 17  1  0
 17 18  2  0
 18  8  1  0
 17 11  1  0
  1 19  1  0
  1 20  1  0
  1 21  1  0
  2 22  1  0
  3 23  1  0
  3 24  1  0
  3 25  1  0
  4 26  1  0
  4 27  1  0
  5 28  1  0
  9 29  1  0
 10 30  1  0
 12 31  1  0
 15 32  1  0
 16 33  1  0
M  END
>  <smiles>  (40) 
CC(C)CNC(=O)c1ccc2cc(F)ccc2n1

>  <score_type>  (40) 
oracle

>  <origin>  (40) 
autodockgpu

>  <m_score__min__energy>  (40) 
-6.1799999999999997

>  <m_primary>  (40) 
energy

>  <rmsd>  (40) 
1.154616363315764

>  <m_score__min__rmsd>  (40) 
1.154616363315764

>  <meeko>  (40) 
{"free_energy": -5.91, "intermolecular_energy": -6.81, "internal_energy": -0.65, "cluster_size": 47, "cluster_id": 1, "rank_in_cluster": 31}

>  <energy>  (40) 
-5.89

>  <cluster_rmsd>  (40) 
0.85

>  <cluster>  (40) 
1

$$$$

     RDKit          3D

 33 34  0  0  0  0  0  0  0  0999 V2000
  140.6750   76.5650  222.3330 C   0  0  0  0  0  0  0  0  0  0  0  0
  140.5480   75.5960  221.1260 C   0  0  0  0  0  0  0  0  0  0  0  0
  141.9040   75.0220  220.8410 C   0  0  0  0  0  0  0  0  0  0  0  0
  139.4260   74.6530  221.3690 C   0  0  0  0  0  0  0  0  0  0  0  0
  139.5680   73.6350  222.3410 N   0  0  0  0  0  0  0  0  0  0  0  0
  139.7350   72.2550  222.1820 C   0  0  0  0  0  0  0  0  0  0  0  0
  139.8010   71.6620  221.0860 O   0  0  0  0  0  0  0  0  0  0  0  0
  139.8440   71.3920  223.3790 C   0  0  0  0  0  0  0  0  0  0  0  0
  139.4620   70.0690  223.3630 C   0  0  0  0  0  0  0  0  0  0  0  0
  139.5630   69.2640  224.4800 C   0  0  0  0  0  0  0  0  0  0  0  0
  140.0590   69.7730  225.6630 C   0  0  0  0  0  0  0  0  0  0  0  0
  140.1720   68.9870  226.8000 C   0  0  0  0  0  0  0  0  0  0  0  0
  140.6710   69.5120  227.9760 C   0  0  0  0  0  0  0  0  0  0  0  0
  140.7830   68.7500  229.0900 F   0  0  0  0  0  0  0  0  0  0  0  0
  141.0570   70.8520  227.9900 C   0  0  0  0  0  0  0  0  0  0  0  0
  140.9410   71.6320  226.8480 C   0  0  0  0  0  0  0  0  0  0  0  0
  140.4360   71.1030  225.6560 C   0  0  0  0  0  0  0  0  0  0  0  0
  140.3250   71.8650  224.5480 N   0  0  0  0  0  0  0  0  0  0  0  0
  140.6002   75.9946  223.2706 H   0  0  0  0  0  0  0  0  0  0  0  0
  141.6479   77.0767  222.2917 H   0  0  0  0  0  0  0  0  0  0  0  0
  139.8668   77.3101  222.2917 H   0  0  0  0  0  0  0  0  0  0  0  0
  140.2592   76.0888  220.1859 H   0  0  0  0  0  0  0  0  0  0  0  0
  142.4170   74.8049  221.7895 H   0  0  0  0  0  0  0  0  0  0  0  0
  141.7947   74.0930  220.2622 H   0  0  0  0  0  0  0  0  0  0  0  0
  142.4949   75.7472  220.2622 H   0  0  0  0  0  0  0  0  0  0  0  0
  138.5574   75.2593  221.6656 H   0  0  0  0  0  0  0  0  0  0  0  0
  139.3473   74.0970  220.4232 H   0  0  0  0  0  0  0  0  0  0  0  0
  139.5460   73.9670  223.3720 H   0  0  0  0  0  0  0  0  0  0  0  0
  139.0641   69.6404  222.4314 H   0  0  0  0  0  0  0  0  0  0  0  0
  139.2466   68.2118  224.4268 H   0  0  0  0  0  0  0  0  0  0  0  0
  139.8604   67.9326  226.7648 H   0  0  0  0  0  0  0  0  0  0  0  0
  141.4569   71.2946  228.9142 H   0  0  0  0  0  0  0  0  0  0  0  0
  141.2522   72.6865  226.8811 H   0  0  0  0  0  0  0  0  0  0  0  0
  1  2  1  0
  2  3  1  0
  2  4  1  0
  4  5  1  0
  5  6  1  0
  6  7  2  0
  6  8  1  0
  8  9  2  0
  9 10  1  0
 10 11  2  0
 11 12  1  0
 12 13  2  0
 13 14  1  0
 13 15  1  0
 15 16  2  0
 16 17  1  0
 17 18  2  0
 18  8  1  0
 17 11  1  0
  1 19  1  0
  1 20  1  0
  1 21  1  0
  2 22  1  0
  3 23  1  0
  3 24  1  0
  3 25  1  0
  4 26  1  0
  4 27  1  0
  5 28  1  0
  9 29  1  0
 10 30  1  0
 12 31  1  0
 15 32  1  0
 16 33  1  0
M  END
>  <smiles>  (41) 
CC(C)CNC(=O)c1ccc2cc(F)ccc2n1

>  <score_type>  (41) 
oracle

>  <origin>  (41) 
autodockgpu

>  <m_score__min__energy>  (41) 
-6.1799999999999997

>  <m_primary>  (41) 
energy

>  <rmsd>  (41) 
1.1119584719535758

>  <m_score__min__rmsd>  (41) 
1.1119584719535758

>  <meeko>  (41) 
{"free_energy": -5.89, "intermolecular_energy": -6.79, "internal_energy": -0.72, "cluster_size": 47, "cluster_id": 1, "rank_in_cluster": 39}

>  <energy>  (41) 
-5.89

>  <cluster_rmsd>  (41) 
0.86

>  <cluster>  (41) 
1

$$$$

     RDKit          3D

 33 34  0  0  0  0  0  0  0  0999 V2000
  138.2970   76.2750  222.6840 C   0  0  0  0  0  0  0  0  0  0  0  0
  139.4770   76.0620  221.6980 C   0  0  0  0  0  0  0  0  0  0  0  0
  140.7100   76.6640  222.3060 C   0  0  0  0  0  0  0  0  0  0  0  0
  139.5240   74.6350  221.2880 C   0  0  0  0  0  0  0  0  0  0  0  0
  139.5630   73.6260  222.2780 N   0  0  0  0  0  0  0  0  0  0  0  0
  140.4250   72.5320  222.4150 C   0  0  0  0  0  0  0  0  0  0  0  0
  141.3660   72.2590  221.6430 O   0  0  0  0  0  0  0  0  0  0  0  0
  140.2410   71.5980  223.5490 C   0  0  0  0  0  0  0  0  0  0  0  0
  139.5790   70.3980  223.4070 C   0  0  0  0  0  0  0  0  0  0  0  0
  139.4070   69.5280  224.4640 C   0  0  0  0  0  0  0  0  0  0  0  0
  139.9020   69.8430  225.7130 C   0  0  0  0  0  0  0  0  0  0  0  0
  139.7430   68.9870  226.7940 C   0  0  0  0  0  0  0  0  0  0  0  0
  140.2450   69.3170  228.0360 C   0  0  0  0  0  0  0  0  0  0  0  0
  140.0930   68.4860  229.0960 F   0  0  0  0  0  0  0  0  0  0  0  0
  140.9140   70.5330  228.1780 C   0  0  0  0  0  0  0  0  0  0  0  0
  141.0680   71.3840  227.0930 C   0  0  0  0  0  0  0  0  0  0  0  0
  140.5610   71.0520  225.8320 C   0  0  0  0  0  0  0  0  0  0  0  0
  140.7140   71.8830  224.7800 N   0  0  0  0  0  0  0  0  0  0  0  0
  138.6665   76.2083  223.7179 H   0  0  0  0  0  0  0  0  0  0  0  0
  137.8537   77.2677  222.5164 H   0  0  0  0  0  0  0  0  0  0  0  0
  137.5346   75.5000  222.5164 H   0  0  0  0  0  0  0  0  0  0  0  0
  139.3604   76.5910  220.7406 H   0  0  0  0  0  0  0  0  0  0  0  0
  140.6337   76.6267  223.4027 H   0  0  0  0  0  0  0  0  0  0  0  0
  141.5941   76.0962  221.9805 H   0  0  0  0  0  0  0  0  0  0  0  0
  140.8060   77.7103  221.9805 H   0  0  0  0  0  0  0  0  0  0  0  0
  138.6290   74.4484  220.6764 H   0  0  0  0  0  0  0  0  0  0  0  0
  140.4990   74.5426  220.7871 H   0  0  0  0  0  0  0  0  0  0  0  0
  138.8130   73.7040  223.0550 H   0  0  0  0  0  0  0  0  0  0  0  0
  139.1753   70.1252  222.4208 H   0  0  0  0  0  0  0  0  0  0  0  0
  138.8728   68.5788  224.3103 H   0  0  0  0  0  0  0  0  0  0  0  0
  139.2104   68.0341  226.6588 H   0  0  0  0  0  0  0  0  0  0  0  0
  141.3228   70.8194  229.1582 H   0  0  0  0  0  0  0  0  0  0  0  0
  141.5989   72.3381  227.2268 H   0  0  0  0  0  0  0  0  0  0  0  0
  1  2  1  0
  2  3  1  0
  2  4  1  0
  4  5  1  0
  5  6  1  0
  6  7  2  0
  6  8  1  0
  8  9  2  0
  9 10  1  0
 10 11  2  0
 11 12  1  0
 12 13  2  0
 13 14  1  0
 13 15  1  0
 15 16  2  0
 16 17  1  0
 17 18  2  0
 18  8  1  0
 17 11  1  0
  1 19  1  0
  1 20  1  0
  1 21  1  0
  2 22  1  0
  3 23  1  0
  3 24  1  0
  3 25  1  0
  4 26  1  0
  4 27  1  0
  5 28  1  0
  9 29  1  0
 10 30  1  0
 12 31  1  0
 15 32  1  0
 16 33  1  0
M  END
>  <smiles>  (42) 
CC(C)CNC(=O)c1ccc2cc(F)ccc2n1

>  <score_type>  (42) 
oracle

>  <origin>  (42) 
autodockgpu

>  <m_score__min__energy>  (42) 
-6.1799999999999997

>  <m_primary>  (42) 
energy

>  <rmsd>  (42) 
1.3661348969657776

>  <m_score__min__rmsd>  (42) 
1.3661348969657776

>  <meeko>  (42) 
{"free_energy": -6.16, "intermolecular_energy": -7.06, "internal_energy": -0.45, "cluster_size": 47, "cluster_id": 1, "rank_in_cluster": 15}

>  <energy>  (42) 
-5.88

>  <cluster_rmsd>  (42) 
0.86

>  <cluster>  (42) 
1

$$$$

     RDKit          3D

 33 34  0  0  0  0  0  0  0  0999 V2000
  140.6800   76.5900  222.3100 C   0  0  0  0  0  0  0  0  0  0  0  0
  140.5530   75.6110  221.1100 C   0  0  0  0  0  0  0  0  0  0  0  0
  141.9080   75.0350  220.8290 C   0  0  0  0  0  0  0  0  0  0  0  0
  139.4300   74.6710  221.3610 C   0  0  0  0  0  0  0  0  0  0  0  0
  139.5760   73.6540  222.3330 N   0  0  0  0  0  0  0  0  0  0  0  0
  139.7310   72.2720  222.1740 C   0  0  0  0  0  0  0  0  0  0  0  0
  139.7810   71.6770  221.0790 O   0  0  0  0  0  0  0  0  0  0  0  0
  139.8480   71.4100  223.3720 C   0  0  0  0  0  0  0  0  0  0  0  0
  139.4730   70.0850  223.3580 C   0  0  0  0  0  0  0  0  0  0  0  0
  139.5810   69.2820  224.4740 C   0  0  0  0  0  0  0  0  0  0  0  0
  140.0770   69.7950  225.6560 C   0  0  0  0  0  0  0  0  0  0  0  0
  140.1960   69.0100  226.7940 C   0  0  0  0  0  0  0  0  0  0  0  0
  140.6950   69.5380  227.9680 C   0  0  0  0  0  0  0  0  0  0  0  0
  140.8140   68.7780  229.0830 F   0  0  0  0  0  0  0  0  0  0  0  0
  141.0730   70.8810  227.9800 C   0  0  0  0  0  0  0  0  0  0  0  0
  140.9510   71.6590  226.8380 C   0  0  0  0  0  0  0  0  0  0  0  0
  140.4460   71.1270  225.6470 C   0  0  0  0  0  0  0  0  0  0  0  0
  140.3290   71.8870  224.5390 N   0  0  0  0  0  0  0  0  0  0  0  0
  140.6069   76.0268  223.2520 H   0  0  0  0  0  0  0  0  0  0  0  0
  141.6522   77.1026  222.2637 H   0  0  0  0  0  0  0  0  0  0  0  0
  139.8708   77.3337  222.2637 H   0  0  0  0  0  0  0  0  0  0  0  0
  140.2649   76.0958  220.1656 H   0  0  0  0  0  0  0  0  0  0  0  0
  142.4184   74.8180  221.7790 H   0  0  0  0  0  0  0  0  0  0  0  0
  141.7986   74.1056  220.2509 H   0  0  0  0  0  0  0  0  0  0  0  0
  142.5014   75.7587  220.2509 H   0  0  0  0  0  0  0  0  0  0  0  0
  138.5648   75.2797  221.6625 H   0  0  0  0  0  0  0  0  0  0  0  0
  139.3436   74.1143  220.4162 H   0  0  0  0  0  0  0  0  0  0  0  0
  139.5680   73.9870  223.3630 H   0  0  0  0  0  0  0  0  0  0  0  0
  139.0749   69.6537  222.4277 H   0  0  0  0  0  0  0  0  0  0  0  0
  139.2705   68.2280  224.4222 H   0  0  0  0  0  0  0  0  0  0  0  0
  139.8890   67.9542  226.7603 H   0  0  0  0  0  0  0  0  0  0  0  0
  141.4713   71.3269  228.9033 H   0  0  0  0  0  0  0  0  0  0  0  0
  141.2574   72.7150  226.8697 H   0  0  0  0  0  0  0  0  0  0  0  0
  1  2  1  0
  2  3  1  0
  2  4  1  0
  4  5  1  0
  5  6  1  0
  6  7  2  0
  6  8  1  0
  8  9  2  0
  9 10  1  0
 10 11  2  0
 11 12  1  0
 12 13  2  0
 13 14  1  0
 13 15  1  0
 15 16  2  0
 16 17  1  0
 17 18  2  0
 18  8  1  0
 17 11  1  0
  1 19  1  0
  1 20  1  0
  1 21  1  0
  2 22  1  0
  3 23  1  0
  3 24  1  0
  3 25  1  0
  4 26  1  0
  4 27  1  0
  5 28  1  0
  9 29  1  0
 10 30  1  0
 12 31  1  0
 15 32  1  0
 16 33  1  0
M  END
>  <smiles>  (43) 
CC(C)CNC(=O)c1ccc2cc(F)ccc2n1

>  <score_type>  (43) 
oracle

>  <origin>  (43) 
autodockgpu

>  <m_score__min__energy>  (43) 
-6.1799999999999997

>  <m_primary>  (43) 
energy

>  <rmsd>  (43) 
1.1258969662444902

>  <m_score__min__rmsd>  (43) 
1.1258969662444902

>  <meeko>  (43) 
{"free_energy": -5.89, "intermolecular_energy": -6.79, "internal_energy": -0.73, "cluster_size": 47, "cluster_id": 1, "rank_in_cluster": 38}

>  <energy>  (43) 
-5.88

>  <cluster_rmsd>  (43) 
0.86

>  <cluster>  (43) 
1

$$$$

     RDKit          3D

 33 34  0  0  0  0  0  0  0  0999 V2000
  138.2760   76.3040  222.7210 C   0  0  0  0  0  0  0  0  0  0  0  0
  139.4540   76.0800  221.7340 C   0  0  0  0  0  0  0  0  0  0  0  0
  140.6940   76.6630  222.3440 C   0  0  0  0  0  0  0  0  0  0  0  0
  139.4830   74.6540  221.3180 C   0  0  0  0  0  0  0  0  0  0  0  0
  139.5330   73.6410  222.3040 N   0  0  0  0  0  0  0  0  0  0  0  0
  140.3960   72.5460  222.4260 C   0  0  0  0  0  0  0  0  0  0  0  0
  141.3270   72.2760  221.6420 O   0  0  0  0  0  0  0  0  0  0  0  0
  140.2250   71.6080  223.5590 C   0  0  0  0  0  0  0  0  0  0  0  0
  139.5800   70.4000  223.4160 C   0  0  0  0  0  0  0  0  0  0  0  0
  139.4200   69.5260  224.4710 C   0  0  0  0  0  0  0  0  0  0  0  0
  139.9110   69.8460  225.7210 C   0  0  0  0  0  0  0  0  0  0  0  0
  139.7640   68.9860  226.8000 C   0  0  0  0  0  0  0  0  0  0  0  0
  140.2620   69.3210  228.0430 C   0  0  0  0  0  0  0  0  0  0  0  0
  140.1220   68.4860  229.1020 F   0  0  0  0  0  0  0  0  0  0  0  0
  140.9140   70.5460  228.1860 C   0  0  0  0  0  0  0  0  0  0  0  0
  141.0560   71.4000  227.1030 C   0  0  0  0  0  0  0  0  0  0  0  0
  140.5540   71.0630  225.8420 C   0  0  0  0  0  0  0  0  0  0  0  0
  140.6950   71.8970  224.7910 N   0  0  0  0  0  0  0  0  0  0  0  0
  138.6454   76.2338  223.7547 H   0  0  0  0  0  0  0  0  0  0  0  0
  137.8419   77.3008  222.5537 H   0  0  0  0  0  0  0  0  0  0  0  0
  137.5064   75.5361  222.5537 H   0  0  0  0  0  0  0  0  0  0  0  0
  139.3440   76.6148  220.7791 H   0  0  0  0  0  0  0  0  0  0  0  0
  140.6154   76.6261  223.4406 H   0  0  0  0  0  0  0  0  0  0  0  0
  141.5701   76.0825  222.0194 H   0  0  0  0  0  0  0  0  0  0  0  0
  140.8059   77.7081  222.0194 H   0  0  0  0  0  0  0  0  0  0  0  0
  138.5754   74.4761  220.7224 H   0  0  0  0  0  0  0  0  0  0  0  0
  140.4477   74.5563  220.7986 H   0  0  0  0  0  0  0  0  0  0  0  0
  138.7930   73.7170  223.0900 H   0  0  0  0  0  0  0  0  0  0  0  0
  139.1798   70.1233  222.4295 H   0  0  0  0  0  0  0  0  0  0  0  0
  138.8989   68.5698  224.3157 H   0  0  0  0  0  0  0  0  0  0  0  0
  139.2446   68.0261  226.6632 H   0  0  0  0  0  0  0  0  0  0  0  0
  141.3190   70.8369  229.1665 H   0  0  0  0  0  0  0  0  0  0  0  0
  141.5735   72.3612  227.2383 H   0  0  0  0  0  0  0  0  0  0  0  0
  1  2  1  0
  2  3  1  0
  2  4  1  0
  4  5  1  0
  5  6  1  0
  6  7  2  0
  6  8  1  0
  8  9  2  0
  9 10  1  0
 10 11  2  0
 11 12  1  0
 12 13  2  0
 13 14  1  0
 13 15  1  0
 15 16  2  0
 16 17  1  0
 17 18  2  0
 18  8  1  0
 17 11  1  0
  1 19  1  0
  1 20  1  0
  1 21  1  0
  2 22  1  0
  3 23  1  0
  3 24  1  0
  3 25  1  0
  4 26  1  0
  4 27  1  0
  5 28  1  0
  9 29  1  0
 10 30  1  0
 12 31  1  0
 15 32  1  0
 16 33  1  0
M  END
>  <smiles>  (44) 
CC(C)CNC(=O)c1ccc2cc(F)ccc2n1

>  <score_type>  (44) 
oracle

>  <origin>  (44) 
autodockgpu

>  <m_score__min__energy>  (44) 
-6.1799999999999997

>  <m_primary>  (44) 
energy

>  <rmsd>  (44) 
1.3600292433032215

>  <m_score__min__rmsd>  (44) 
1.3600292433032215

>  <meeko>  (44) 
{"free_energy": -6.18, "intermolecular_energy": -7.07, "internal_energy": -0.45, "cluster_size": 47, "cluster_id": 1, "rank_in_cluster": 7}

>  <energy>  (44) 
-5.87

>  <cluster_rmsd>  (44) 
0.59

>  <cluster>  (44) 
1

$$$$

     RDKit          3D

 33 34  0  0  0  0  0  0  0  0999 V2000
  140.6990   76.6050  222.3260 C   0  0  0  0  0  0  0  0  0  0  0  0
  140.5860   75.6340  221.1190 C   0  0  0  0  0  0  0  0  0  0  0  0
  141.9450   75.0600  220.8490 C   0  0  0  0  0  0  0  0  0  0  0  0
  139.4620   74.6900  221.3510 C   0  0  0  0  0  0  0  0  0  0  0  0
  139.5970   73.6700  222.3210 N   0  0  0  0  0  0  0  0  0  0  0  0
  139.7840   72.2920  222.1580 C   0  0  0  0  0  0  0  0  0  0  0  0
  139.8810   71.7060  221.0620 O   0  0  0  0  0  0  0  0  0  0  0  0
  139.8800   71.4250  223.3540 C   0  0  0  0  0  0  0  0  0  0  0  0
  139.4850   70.1060  223.3330 C   0  0  0  0  0  0  0  0  0  0  0  0
  139.5730   69.2970  224.4470 C   0  0  0  0  0  0  0  0  0  0  0  0
  140.0680   69.7990  225.6340 C   0  0  0  0  0  0  0  0  0  0  0  0
  140.1680   69.0080  226.7700 C   0  0  0  0  0  0  0  0  0  0  0  0
  140.6650   69.5250  227.9490 C   0  0  0  0  0  0  0  0  0  0  0  0
  140.7650   68.7590  229.0630 F   0  0  0  0  0  0  0  0  0  0  0  0
  141.0640   70.8620  227.9690 C   0  0  0  0  0  0  0  0  0  0  0  0
  140.9610   71.6460  226.8290 C   0  0  0  0  0  0  0  0  0  0  0  0
  140.4570   71.1250  225.6330 C   0  0  0  0  0  0  0  0  0  0  0  0
  140.3590   71.8910  224.5270 N   0  0  0  0  0  0  0  0  0  0  0  0
  140.6325   76.0337  223.2637 H   0  0  0  0  0  0  0  0  0  0  0  0
  141.6644   77.1307  222.2846 H   0  0  0  0  0  0  0  0  0  0  0  0
  139.8801   77.3383  222.2846 H   0  0  0  0  0  0  0  0  0  0  0  0
  140.3072   76.1261  220.1755 H   0  0  0  0  0  0  0  0  0  0  0  0
  142.4493   74.8470  221.8031 H   0  0  0  0  0  0  0  0  0  0  0  0
  141.8418   74.1286  220.2729 H   0  0  0  0  0  0  0  0  0  0  0  0
  142.5407   75.7834  220.2729 H   0  0  0  0  0  0  0  0  0  0  0  0
  138.5911   75.2953  221.6427 H   0  0  0  0  0  0  0  0  0  0  0  0
  139.3904   74.1365  220.4031 H   0  0  0  0  0  0  0  0  0  0  0  0
  139.5490   73.9960  223.3520 H   0  0  0  0  0  0  0  0  0  0  0  0
  139.0867   69.6841  222.3985 H   0  0  0  0  0  0  0  0  0  0  0  0
  139.2475   68.2478  224.3893 H   0  0  0  0  0  0  0  0  0  0  0  0
  139.8473   67.9565  226.7301 H   0  0  0  0  0  0  0  0  0  0  0  0
  141.4636   71.2981  228.8965 H   0  0  0  0  0  0  0  0  0  0  0  0
  141.2819   72.6975  226.8666 H   0  0  0  0  0  0  0  0  0  0  0  0
  1  2  1  0
  2  3  1  0
  2  4  1  0
  4  5  1  0
  5  6  1  0
  6  7  2  0
  6  8  1  0
  8  9  2  0
  9 10  1  0
 10 11  2  0
 11 12  1  0
 12 13  2  0
 13 14  1  0
 13 15  1  0
 15 16  2  0
 16 17  1  0
 17 18  2  0
 18  8  1  0
 17 11  1  0
  1 19  1  0
  1 20  1  0
  1 21  1  0
  2 22  1  0
  3 23  1  0
  3 24  1  0
  3 25  1  0
  4 26  1  0
  4 27  1  0
  5 28  1  0
  9 29  1  0
 10 30  1  0
 12 31  1  0
 15 32  1  0
 16 33  1  0
M  END
>  <smiles>  (45) 
CC(C)CNC(=O)c1ccc2cc(F)ccc2n1

>  <score_type>  (45) 
oracle

>  <origin>  (45) 
autodockgpu

>  <m_score__min__energy>  (45) 
-6.1799999999999997

>  <m_primary>  (45) 
energy

>  <rmsd>  (45) 
1.1414275719286247

>  <m_score__min__rmsd>  (45) 
1.1414275719286247

>  <meeko>  (45) 
{"free_energy": -5.89, "intermolecular_energy": -6.79, "internal_energy": -0.71, "cluster_size": 47, "cluster_id": 1, "rank_in_cluster": 37}

>  <energy>  (45) 
-5.87

>  <cluster_rmsd>  (45) 
0.86

>  <cluster>  (45) 
1

$$$$

     RDKit          3D

 33 34  0  0  0  0  0  0  0  0999 V2000
  140.6940   76.3890  222.3440 C   0  0  0  0  0  0  0  0  0  0  0  0
  140.6490   75.5490  221.0390 C   0  0  0  0  0  0  0  0  0  0  0  0
  142.0320   75.0390  220.7620 C   0  0  0  0  0  0  0  0  0  0  0  0
  139.5430   74.5610  221.1280 C   0  0  0  0  0  0  0  0  0  0  0  0
  139.5610   73.5850  222.1510 N   0  0  0  0  0  0  0  0  0  0  0  0
  140.3700   72.4520  222.3010 C   0  0  0  0  0  0  0  0  0  0  0  0
  141.2710   72.1050  221.5110 O   0  0  0  0  0  0  0  0  0  0  0  0
  140.1740   71.5680  223.4720 C   0  0  0  0  0  0  0  0  0  0  0  0
  139.4740   70.3850  223.3840 C   0  0  0  0  0  0  0  0  0  0  0  0
  139.2910   69.5610  224.4750 C   0  0  0  0  0  0  0  0  0  0  0  0
  139.8130   69.9070  225.7050 C   0  0  0  0  0  0  0  0  0  0  0  0
  139.6440   69.0970  226.8190 C   0  0  0  0  0  0  0  0  0  0  0  0
  140.1740   69.4570  228.0420 C   0  0  0  0  0  0  0  0  0  0  0  0
  140.0120   68.6710  229.1340 F   0  0  0  0  0  0  0  0  0  0  0  0
  140.8820   70.6560  228.1280 C   0  0  0  0  0  0  0  0  0  0  0  0
  141.0460   71.4610  227.0100 C   0  0  0  0  0  0  0  0  0  0  0  0
  140.5110   71.0980  225.7700 C   0  0  0  0  0  0  0  0  0  0  0  0
  140.6740   71.8830  224.6850 N   0  0  0  0  0  0  0  0  0  0  0  0
  140.6580   75.7169  223.2141 H   0  0  0  0  0  0  0  0  0  0  0  0
  141.6248   76.9745  222.3712 H   0  0  0  0  0  0  0  0  0  0  0  0
  139.8311   77.0706  222.3712 H   0  0  0  0  0  0  0  0  0  0  0  0
  140.3900   76.1306  220.1420 H   0  0  0  0  0  0  0  0  0  0  0  0
  142.5498   74.8481  221.7135 H   0  0  0  0  0  0  0  0  0  0  0  0
  141.9695   74.1048  220.1846 H   0  0  0  0  0  0  0  0  0  0  0  0
  142.5910   75.7901  220.1846 H   0  0  0  0  0  0  0  0  0  0  0  0
  138.6116   75.1336  221.2487 H   0  0  0  0  0  0  0  0  0  0  0  0
  139.6498   73.9705  220.2061 H   0  0  0  0  0  0  0  0  0  0  0  0
  138.8410   73.7280  222.9460 H   0  0  0  0  0  0  0  0  0  0  0  0
  139.0480   70.0883  222.4142 H   0  0  0  0  0  0  0  0  0  0  0  0
  138.7263   68.6235  224.3642 H   0  0  0  0  0  0  0  0  0  0  0  0
  139.0809   68.1566  226.7265 H   0  0  0  0  0  0  0  0  0  0  0  0
  141.3141   70.9659  229.0909 H   0  0  0  0  0  0  0  0  0  0  0  0
  141.6075   72.4026  227.1007 H   0  0  0  0  0  0  0  0  0  0  0  0
  1  2  1  0
  2  3  1  0
  2  4  1  0
  4  5  1  0
  5  6  1  0
  6  7  2  0
  6  8  1  0
  8  9  2  0
  9 10  1  0
 10 11  2  0
 11 12  1  0
 12 13  2  0
 13 14  1  0
 13 15  1  0
 15 16  2  0
 16 17  1  0
 17 18  2  0
 18  8  1  0
 17 11  1  0
  1 19  1  0
  1 20  1  0
  1 21  1  0
  2 22  1  0
  3 23  1  0
  3 24  1  0
  3 25  1  0
  4 26  1  0
  4 27  1  0
  5 28  1  0
  9 29  1  0
 10 30  1  0
 12 31  1  0
 15 32  1  0
 16 33  1  0
M  END
>  <smiles>  (46) 
CC(C)CNC(=O)c1ccc2cc(F)ccc2n1

>  <score_type>  (46) 
oracle

>  <origin>  (46) 
autodockgpu

>  <m_score__min__energy>  (46) 
-6.1799999999999997

>  <m_primary>  (46) 
energy

>  <rmsd>  (46) 
1.3244881417647838

>  <m_score__min__rmsd>  (46) 
1.3244881417647838

>  <meeko>  (46) 
{"free_energy": -6.09, "intermolecular_energy": -6.98, "internal_energy": -0.49, "cluster_size": 47, "cluster_id": 1, "rank_in_cluster": 25}

>  <energy>  (46) 
-5.86

>  <cluster_rmsd>  (46) 
0.87

>  <cluster>  (46) 
1

$$$$

     RDKit          3D

 33 34  0  0  0  0  0  0  0  0999 V2000
  138.2800   76.2700  222.5760 C   0  0  0  0  0  0  0  0  0  0  0  0
  139.5120   76.0870  221.6480 C   0  0  0  0  0  0  0  0  0  0  0  0
  140.6970   76.7230  222.3120 C   0  0  0  0  0  0  0  0  0  0  0  0
  139.6180   74.6600  221.2470 C   0  0  0  0  0  0  0  0  0  0  0  0
  139.6410   73.6560  222.2430 N   0  0  0  0  0  0  0  0  0  0  0  0
  140.4020   72.4840  222.3220 C   0  0  0  0  0  0  0  0  0  0  0  0
  141.2460   72.1190  221.4790 O   0  0  0  0  0  0  0  0  0  0  0  0
  140.2230   71.5770  223.4780 C   0  0  0  0  0  0  0  0  0  0  0  0
  139.5740   70.3680  223.3640 C   0  0  0  0  0  0  0  0  0  0  0  0
  139.4070   69.5220  224.4410 C   0  0  0  0  0  0  0  0  0  0  0  0
  139.8950   69.8730  225.6840 C   0  0  0  0  0  0  0  0  0  0  0  0
  139.7410   69.0430  226.7850 C   0  0  0  0  0  0  0  0  0  0  0  0
  140.2350   69.4080  228.0210 C   0  0  0  0  0  0  0  0  0  0  0  0
  140.0880   68.6020  229.1000 F   0  0  0  0  0  0  0  0  0  0  0  0
  140.8910   70.6340  228.1340 C   0  0  0  0  0  0  0  0  0  0  0  0
  141.0410   71.4590  227.0290 C   0  0  0  0  0  0  0  0  0  0  0  0
  140.5420   71.0910  225.7750 C   0  0  0  0  0  0  0  0  0  0  0  0
  140.6900   71.8970  224.7030 N   0  0  0  0  0  0  0  0  0  0  0  0
  138.6021   76.2222  223.6267 H   0  0  0  0  0  0  0  0  0  0  0  0
  137.8147   77.2471  222.3793 H   0  0  0  0  0  0  0  0  0  0  0  0
  137.5507   75.4703  222.3793 H   0  0  0  0  0  0  0  0  0  0  0  0
  139.4267   76.6104  220.6843 H   0  0  0  0  0  0  0  0  0  0  0  0
  140.5822   76.6614  223.4042 H   0  0  0  0  0  0  0  0  0  0  0  0
  141.6137   76.1957  222.0094 H   0  0  0  0  0  0  0  0  0  0  0  0
  140.7642   77.7784  222.0094 H   0  0  0  0  0  0  0  0  0  0  0  0
  138.7571   74.4457  220.5967 H   0  0  0  0  0  0  0  0  0  0  0  0
  140.6167   74.5937  220.7906 H   0  0  0  0  0  0  0  0  0  0  0  0
  138.9680   73.8090  223.0770 H   0  0  0  0  0  0  0  0  0  0  0  0
  139.1762   70.0672  222.3835 H   0  0  0  0  0  0  0  0  0  0  0  0
  138.8829   68.5639  224.3088 H   0  0  0  0  0  0  0  0  0  0  0  0
  139.2185   68.0817  226.6714 H   0  0  0  0  0  0  0  0  0  0  0  0
  141.2929   70.9493  229.1082 H   0  0  0  0  0  0  0  0  0  0  0  0
  141.5624   72.4211  227.1410 H   0  0  0  0  0  0  0  0  0  0  0  0
  1  2  1  0
  2  3  1  0
  2  4  1  0
  4  5  1  0
  5  6  1  0
  6  7  2  0
  6  8  1  0
  8  9  2  0
  9 10  1  0
 10 11  2  0
 11 12  1  0
 12 13  2  0
 13 14  1  0
 13 15  1  0
 15 16  2  0
 16 17  1  0
 17 18  2  0
 18  8  1  0
 17 11  1  0
  1 19  1  0
  1 20  1  0
  1 21  1  0
  2 22  1  0
  3 23  1  0
  3 24  1  0
  3 25  1  0
  4 26  1  0
  4 27  1  0
  5 28  1  0
  9 29  1  0
 10 30  1  0
 12 31  1  0
 15 32  1  0
 16 33  1  0
M  END
>  <smiles>  (47) 
CC(C)CNC(=O)c1ccc2cc(F)ccc2n1

>  <score_type>  (47) 
oracle

>  <origin>  (47) 
autodockgpu

>  <m_score__min__energy>  (47) 
-6.1799999999999997

>  <m_primary>  (47) 
energy

>  <rmsd>  (47) 
1.3571740361263827

>  <m_score__min__rmsd>  (47) 
1.3571740361263827

>  <meeko>  (47) 
{"free_energy": -6.15, "intermolecular_energy": -7.05, "internal_energy": -0.46, "cluster_size": 47, "cluster_id": 1, "rank_in_cluster": 17}

>  <energy>  (47) 
-5.67

>  <cluster_rmsd>  (47) 
0.69

>  <cluster>  (47) 
1

$$$$

     RDKit          3D

 33 34  0  0  0  0  0  0  0  0999 V2000
  140.6840   76.5760  222.3300 C   0  0  0  0  0  0  0  0  0  0  0  0
  140.5830   75.6190  221.1100 C   0  0  0  0  0  0  0  0  0  0  0  0
  141.9470   75.0560  220.8420 C   0  0  0  0  0  0  0  0  0  0  0  0
  139.4620   74.6670  221.3240 C   0  0  0  0  0  0  0  0  0  0  0  0
  139.5860   73.6520  222.3010 N   0  0  0  0  0  0  0  0  0  0  0  0
  139.8780   72.2910  222.1540 C   0  0  0  0  0  0  0  0  0  0  0  0
  140.1030   71.7200  221.0690 O   0  0  0  0  0  0  0  0  0  0  0  0
  139.9340   71.4260  223.3530 C   0  0  0  0  0  0  0  0  0  0  0  0
  139.5130   70.1150  223.3280 C   0  0  0  0  0  0  0  0  0  0  0  0
  139.5640   69.3070  224.4450 C   0  0  0  0  0  0  0  0  0  0  0  0
  140.0470   69.8010  225.6400 C   0  0  0  0  0  0  0  0  0  0  0  0
  140.1100   69.0120  226.7790 C   0  0  0  0  0  0  0  0  0  0  0  0
  140.5970   69.5220  227.9660 C   0  0  0  0  0  0  0  0  0  0  0  0
  140.6610   68.7570  229.0830 F   0  0  0  0  0  0  0  0  0  0  0  0
  141.0230   70.8500  227.9900 C   0  0  0  0  0  0  0  0  0  0  0  0
  140.9570   71.6330  226.8470 C   0  0  0  0  0  0  0  0  0  0  0  0
  140.4640   71.1190  225.6430 C   0  0  0  0  0  0  0  0  0  0  0  0
  140.4010   71.8840  224.5330 N   0  0  0  0  0  0  0  0  0  0  0  0
  140.6224   75.9920  223.2602 H   0  0  0  0  0  0  0  0  0  0  0  0
  141.6438   77.1124  222.2968 H   0  0  0  0  0  0  0  0  0  0  0  0
  139.8574   77.3010  222.2968 H   0  0  0  0  0  0  0  0  0  0  0  0
  140.3073   76.1200  220.1703 H   0  0  0  0  0  0  0  0  0  0  0  0
  142.4518   74.8477  221.7969 H   0  0  0  0  0  0  0  0  0  0  0  0
  141.8522   74.1235  220.2663 H   0  0  0  0  0  0  0  0  0  0  0  0
  142.5375   75.7839  220.2663 H   0  0  0  0  0  0  0  0  0  0  0  0
  138.5808   75.2666  221.5959 H   0  0  0  0  0  0  0  0  0  0  0  0
  139.4133   74.1090  220.3773 H   0  0  0  0  0  0  0  0  0  0  0  0
  139.4330   73.9690  223.3250 H   0  0  0  0  0  0  0  0  0  0  0  0
  139.1236   69.6988  222.3872 H   0  0  0  0  0  0  0  0  0  0  0  0
  139.2183   68.2646  224.3831 H   0  0  0  0  0  0  0  0  0  0  0  0
  139.7679   67.9674  226.7361 H   0  0  0  0  0  0  0  0  0  0  0  0
  141.4147   71.2801  228.9236 H   0  0  0  0  0  0  0  0  0  0  0  0
  141.2987   72.6778  226.8881 H   0  0  0  0  0  0  0  0  0  0  0  0
  1  2  1  0
  2  3  1  0
  2  4  1  0
  4  5  1  0
  5  6  1  0
  6  7  2  0
  6  8  1  0
  8  9  2  0
  9 10  1  0
 10 11  2  0
 11 12  1  0
 12 13  2  0
 13 14  1  0
 13 15  1  0
 15 16  2  0
 16 17  1  0
 17 18  2  0
 18  8  1  0
 17 11  1  0
  1 19  1  0
  1 20  1  0
  1 21  1  0
  2 22  1  0
  3 23  1  0
  3 24  1  0
  3 25  1  0
  4 26  1  0
  4 27  1  0
  5 28  1  0
  9 29  1  0
 10 30  1  0
 12 31  1  0
 15 32  1  0
 16 33  1  0
M  END
>  <smiles>  (48) 
CC(C)CNC(=O)c1ccc2cc(F)ccc2n1

>  <score_type>  (48) 
oracle

>  <origin>  (48) 
autodockgpu

>  <m_score__min__energy>  (48) 
-6.1799999999999997

>  <m_primary>  (48) 
energy

>  <rmsd>  (48) 
1.1460056299794263

>  <m_score__min__rmsd>  (48) 
1.1460056299794263

>  <meeko>  (48) 
{"free_energy": -5.91, "intermolecular_energy": -6.8, "internal_energy": -0.67, "cluster_size": 47, "cluster_id": 1, "rank_in_cluster": 34}

>  <energy>  (48) 
-6.09

>  <cluster_rmsd>  (48) 
0.0

>  <cluster>  (48) 
2

$$$$

     RDKit          3D

 33 34  0  0  0  0  0  0  0  0999 V2000
  138.2930   76.3010  222.7220 C   0  0  0  0  0  0  0  0  0  0  0  0
  139.4710   76.0740  221.7350 C   0  0  0  0  0  0  0  0  0  0  0  0
  140.7110   76.6560  222.3440 C   0  0  0  0  0  0  0  0  0  0  0  0
  139.4970   74.6480  221.3200 C   0  0  0  0  0  0  0  0  0  0  0  0
  139.5440   73.6360  222.3060 N   0  0  0  0  0  0  0  0  0  0  0  0
  140.4010   72.5360  222.4270 C   0  0  0  0  0  0  0  0  0  0  0  0
  141.3290   72.2600  221.6400 O   0  0  0  0  0  0  0  0  0  0  0  0
  140.2280   71.6000  223.5610 C   0  0  0  0  0  0  0  0  0  0  0  0
  139.5770   70.3950  223.4200 C   0  0  0  0  0  0  0  0  0  0  0  0
  139.4150   69.5230  224.4770 C   0  0  0  0  0  0  0  0  0  0  0  0
  139.9110   69.8410  225.7250 C   0  0  0  0  0  0  0  0  0  0  0  0
  139.7630   68.9830  226.8050 C   0  0  0  0  0  0  0  0  0  0  0  0
  140.2650   69.3160  228.0470 C   0  0  0  0  0  0  0  0  0  0  0  0
  140.1240   68.4820  229.1060 F   0  0  0  0  0  0  0  0  0  0  0  0
  140.9250   70.5370  228.1870 C   0  0  0  0  0  0  0  0  0  0  0  0
  141.0690   71.3900  227.1020 C   0  0  0  0  0  0  0  0  0  0  0  0
  140.5610   71.0550  225.8430 C   0  0  0  0  0  0  0  0  0  0  0  0
  140.7030   71.8870  224.7910 N   0  0  0  0  0  0  0  0  0  0  0  0
  138.6620   76.2299  223.7558 H   0  0  0  0  0  0  0  0  0  0  0  0
  137.8614   77.2988  222.5545 H   0  0  0  0  0  0  0  0  0  0  0  0
  137.5215   75.5350  222.5545 H   0  0  0  0  0  0  0  0  0  0  0  0
  139.3627   76.6077  220.7793 H   0  0  0  0  0  0  0  0  0  0  0  0
  140.6329   76.6193  223.4406 H   0  0  0  0  0  0  0  0  0  0  0  0
  141.5866   76.0748  222.0191 H   0  0  0  0  0  0  0  0  0  0  0  0
  140.8234   77.7009  222.0191 H   0  0  0  0  0  0  0  0  0  0  0  0
  138.5894   74.4718  220.7240 H   0  0  0  0  0  0  0  0  0  0  0  0
  140.4619   74.5479  220.8014 H   0  0  0  0  0  0  0  0  0  0  0  0
  138.8060   73.7160  223.0940 H   0  0  0  0  0  0  0  0  0  0  0  0
  139.1737   70.1190  222.4345 H   0  0  0  0  0  0  0  0  0  0  0  0
  138.8879   68.5697  224.3242 H   0  0  0  0  0  0  0  0  0  0  0  0
  139.2390   68.0253  226.6699 H   0  0  0  0  0  0  0  0  0  0  0  0
  141.3348   70.8261  229.1660 H   0  0  0  0  0  0  0  0  0  0  0  0
  141.5928   72.3481  227.2349 H   0  0  0  0  0  0  0  0  0  0  0  0
  1  2  1  0
  2  3  1  0
  2  4  1  0
  4  5  1  0
  5  6  1  0
  6  7  2  0
  6  8  1  0
  8  9  2  0
  9 10  1  0
 10 11  2  0
 11 12  1  0
 12 13  2  0
 13 14  1  0
 13 15  1  0
 15 16  2  0
 16 17  1  0
 17 18  2  0
 18  8  1  0
 17 11  1  0
  1 19  1  0
  1 20  1  0
  1 21  1  0
  2 22  1  0
  3 23  1  0
  3 24  1  0
  3 25  1  0
  4 26  1  0
  4 27  1  0
  5 28  1  0
  9 29  1  0
 10 30  1  0
 12 31  1  0
 15 32  1  0
 16 33  1  0
M  END
>  <smiles>  (49) 
CC(C)CNC(=O)c1ccc2cc(F)ccc2n1

>  <score_type>  (49) 
oracle

>  <origin>  (49) 
autodockgpu

>  <m_score__min__energy>  (49) 
-6.1799999999999997

>  <m_primary>  (49) 
energy

>  <rmsd>  (49) 
1.3602724131816226

>  <m_score__min__rmsd>  (49) 
1.3602724131816226

>  <meeko>  (49) 
{"free_energy": -6.18, "intermolecular_energy": -7.07, "internal_energy": -0.45, "cluster_size": 47, "cluster_id": 1, "rank_in_cluster": 3}

>  <energy>  (49) 
-6.09

>  <cluster_rmsd>  (49) 
0.11

>  <cluster>  (49) 
2

$$$$

     RDKit          3D

 33 34  0  0  0  0  0  0  0  0999 V2000
  140.7670   76.6190  222.1370 C   0  0  0  0  0  0  0  0  0  0  0  0
  140.6110   75.5370  221.0340 C   0  0  0  0  0  0  0  0  0  0  0  0
  141.9460   74.8850  220.8250 C   0  0  0  0  0  0  0  0  0  0  0  0
  139.4510   74.6680  221.3580 C   0  0  0  0  0  0  0  0  0  0  0  0
  139.5910   73.6520  222.3320 N   0  0  0  0  0  0  0  0  0  0  0  0
  139.7640   72.2720  222.1750 C   0  0  0  0  0  0  0  0  0  0  0  0
  139.8410   71.6790  221.0800 O   0  0  0  0  0  0  0  0  0  0  0  0
  139.8690   71.4110  223.3740 C   0  0  0  0  0  0  0  0  0  0  0  0
  139.4850   70.0880  223.3590 C   0  0  0  0  0  0  0  0  0  0  0  0
  139.5820   69.2850  224.4760 C   0  0  0  0  0  0  0  0  0  0  0  0
  140.0750   69.7950  225.6600 C   0  0  0  0  0  0  0  0  0  0  0  0
  140.1840   69.0110  226.7990 C   0  0  0  0  0  0  0  0  0  0  0  0
  140.6800   69.5360  227.9750 C   0  0  0  0  0  0  0  0  0  0  0  0
  140.7890   68.7760  229.0910 F   0  0  0  0  0  0  0  0  0  0  0  0
  141.0680   70.8760  227.9880 C   0  0  0  0  0  0  0  0  0  0  0  0
  140.9560   71.6550  226.8450 C   0  0  0  0  0  0  0  0  0  0  0  0
  140.4540   71.1250  225.6520 C   0  0  0  0  0  0  0  0  0  0  0  0
  140.3470   71.8850  224.5430 N   0  0  0  0  0  0  0  0  0  0  0  0
  140.6987   76.1454  223.1275 H   0  0  0  0  0  0  0  0  0  0  0  0
  141.7453   77.1108  222.0324 H   0  0  0  0  0  0  0  0  0  0  0  0
  139.9674   77.3672  222.0324 H   0  0  0  0  0  0  0  0  0  0  0  0
  140.3489   75.9416  220.0453 H   0  0  0  0  0  0  0  0  0  0  0  0
  142.4021   74.6623  221.8009 H   0  0  0  0  0  0  0  0  0  0  0  0
  141.8132   73.9503  220.2604 H   0  0  0  0  0  0  0  0  0  0  0  0
  142.6015   75.5644  220.2604 H   0  0  0  0  0  0  0  0  0  0  0  0
  138.6416   75.3296  221.7003 H   0  0  0  0  0  0  0  0  0  0  0  0
  139.2790   74.1096  220.4260 H   0  0  0  0  0  0  0  0  0  0  0  0
  139.5600   73.9840  223.3620 H   0  0  0  0  0  0  0  0  0  0  0  0
  139.0887   69.6587  222.4270 H   0  0  0  0  0  0  0  0  0  0  0  0
  139.2649   68.2330  224.4231 H   0  0  0  0  0  0  0  0  0  0  0  0
  139.8710   67.9570  226.7645 H   0  0  0  0  0  0  0  0  0  0  0  0
  141.4663   71.3191  228.9127 H   0  0  0  0  0  0  0  0  0  0  0  0
  141.2680   72.7093  226.8779 H   0  0  0  0  0  0  0  0  0  0  0  0
  1  2  1  0
  2  3  1  0
  2  4  1  0
  4  5  1  0
  5  6  1  0
  6  7  2  0
  6  8  1  0
  8  9  2  0
  9 10  1  0
 10 11  2  0
 11 12  1  0
 12 13  2  0
 13 14  1  0
 13 15  1  0
 15 16  2  0
 16 17  1  0
 17 18  2  0
 18  8  1  0
 17 11  1  0
  1 19  1  0
  1 20  1  0
  1 21  1  0
  2 22  1  0
  3 23  1  0
  3 24  1  0
  3 25  1  0
  4 26  1  0
  4 27  1  0
  5 28  1  0
  9 29  1  0
 10 30  1  0
 12 31  1  0
 15 32  1  0
 16 33  1  0
M  END
>  <smiles>  (50) 
CC(C)CNC(=O)c1ccc2cc(F)ccc2n1

>  <score_type>  (50) 
oracle

>  <origin>  (50) 
autodockgpu

>  <m_score__min__energy>  (50) 
-6.1799999999999997

>  <m_primary>  (50) 
energy

>  <rmsd>  (50) 
1.1332406123741277

>  <m_score__min__rmsd>  (50) 
1.1332406123741277

>  <meeko>  (50) 
{"free_energy": -5.88, "intermolecular_energy": -6.78, "internal_energy": -0.72, "cluster_size": 47, "cluster_id": 1, "rank_in_cluster": 42}

>  <energy>  (50) 
-6.08

>  <cluster_rmsd>  (50) 
0.12

>  <cluster>  (50) 
2

$$$$
