
     RDKit          3D

 56 59  0  0  0  0  0  0  0  0999 V2000
  138.6310   75.1780  222.0570 O   0  0  0  0  0  0  0  0  0  0  0  0
  139.7860   75.6980  221.9200 C   0  0  0  0  0  0  0  0  0  0  0  0
  140.8400   74.9580  221.3070 N   0  0  0  0  0  0  0  0  0  0  0  0
  140.6520   73.5950  220.8170 C   0  0  0  0  0  0  0  0  0  0  0  0
  141.8640   72.8100  221.1430 C   0  0  0  0  0  0  0  0  0  0  0  0
  141.7620   71.8800  221.9830 O   0  0  0  0  0  0  0  0  0  0  0  0
  143.1400   73.0300  220.5740 N   0  0  0  0  0  0  0  0  0  0  0  0
  143.8560   71.8820  220.0710 C   0  0  0  0  0  0  0  0  0  0  0  0
  145.1090   72.1960  219.3200 C   0  0  0  0  0  0  0  0  0  0  0  0
  145.9440   73.3000  219.8610 C   0  0  0  0  0  0  0  0  0  0  0  0
  145.1800   74.1500  220.8080 C   0  0  0  0  0  0  0  0  0  0  0  0
  143.7440   74.3780  220.4960 C   0  0  1  0  0  0  0  0  0  0  0  0
  143.3730   74.9950  219.2120 C   0  0  0  0  0  0  0  0  0  0  0  0
  142.1420   75.6950  219.1040 N   0  0  0  0  0  0  0  0  0  0  0  0
  141.9080   75.8280  217.6390 C   0  0  0  0  0  0  0  0  0  0  0  0
  142.8940   76.8900  217.2330 C   0  0  0  0  0  0  0  0  0  0  0  0
  142.9750   77.8270  218.4150 C   0  0  0  0  0  0  0  0  0  0  0  0
  142.1530   77.0930  219.4410 C   0  0  0  0  0  0  0  0  0  0  0  0
  140.0380   77.0730  222.3970 C   0  0  0  0  0  0  0  0  0  0  0  0
  138.9610   77.8450  222.7790 C   0  0  0  0  0  0  0  0  0  0  0  0
  139.2440   79.1310  223.2210 C   0  0  0  0  0  0  0  0  0  0  0  0
  140.5380   79.6130  223.2760 C   0  0  0  0  0  0  0  0  0  0  0  0
  140.7820   80.8880  223.7180 C   0  0  0  0  0  0  0  0  0  0  0  0
  142.0940   81.3290  223.7560 C   0  0  0  0  0  0  0  0  0  0  0  0
  143.1250   80.4990  223.3570 C   0  0  0  0  0  0  0  0  0  0  0  0
  142.8510   79.2240  222.9160 C   0  0  0  0  0  0  0  0  0  0  0  0
  141.5380   78.7610  222.8720 C   0  0  0  0  0  0  0  0  0  0  0  0
  141.2990   77.5310  222.4450 N   0  0  0  0  0  0  0  0  0  0  0  0
  141.7660   75.4580  221.2310 H   0  0  0  0  0  0  0  0  0  0  0  0
  139.7748   73.1431  221.3031 H   0  0  0  0  0  0  0  0  0  0  0  0
  140.4885   73.6036  219.7293 H   0  0  0  0  0  0  0  0  0  0  0  0
  144.1223   71.2445  220.9270 H   0  0  0  0  0  0  0  0  0  0  0  0
  143.1828   71.3916  219.3525 H   0  0  0  0  0  0  0  0  0  0  0  0
  145.7267   71.2860  219.3041 H   0  0  0  0  0  0  0  0  0  0  0  0
  144.7777   72.5387  218.3287 H   0  0  0  0  0  0  0  0  0  0  0  0
  146.8089   72.8688  220.3864 H   0  0  0  0  0  0  0  0  0  0  0  0
  146.2691   73.9294  219.0194 H   0  0  0  0  0  0  0  0  0  0  0  0
  145.2339   73.6755  221.7989 H   0  0  0  0  0  0  0  0  0  0  0  0
  145.6491   75.1430  220.7461 H   0  0  0  0  0  0  0  0  0  0  0  0
  143.3863   75.1342  221.2103 H   0  0  0  0  0  0  0  0  0  0  0  0
  144.1705   75.7084  218.9572 H   0  0  0  0  0  0  0  0  0  0  0  0
  143.2416   74.1345  218.5395 H   0  0  0  0  0  0  0  0  0  0  0  0
  142.1112   74.8804  217.1187 H   0  0  0  0  0  0  0  0  0  0  0  0
  140.8680   76.0837  217.3879 H   0  0  0  0  0  0  0  0  0  0  0  0
  143.8780   76.4440  217.0260 H   0  0  0  0  0  0  0  0  0  0  0  0
  142.5829   77.4111  216.3156 H   0  0  0  0  0  0  0  0  0  0  0  0
  144.0137   77.9585  218.7524 H   0  0  0  0  0  0  0  0  0  0  0  0
  142.6195   78.8462  218.2030 H   0  0  0  0  0  0  0  0  0  0  0  0
  142.5960   77.2305  220.4384 H   0  0  0  0  0  0  0  0  0  0  0  0
  141.1255   77.4857  219.4508 H   0  0  0  0  0  0  0  0  0  0  0  0
  137.9307   77.4620  222.7359 H   0  0  0  0  0  0  0  0  0  0  0  0
  138.4160   79.7832  223.5357 H   0  0  0  0  0  0  0  0  0  0  0  0
  139.9570   81.5433  224.0341 H   0  0  0  0  0  0  0  0  0  0  0  0
  142.3176   82.3475  224.1063 H   0  0  0  0  0  0  0  0  0  0  0  0
  144.1644   80.8574  223.3919 H   0  0  0  0  0  0  0  0  0  0  0  0
  143.6735   78.5672  222.5966 H   0  0  0  0  0  0  0  0  0  0  0  0
  1  2  2  0
  2  3  1  0
  3  4  1  0
  4  5  1  0
  5  6  2  0
  5  7  1  0
  7  8  1  0
  8  9  1  0
  9 10  1  0
 10 11  1  0
 11 12  1  0
 12 13  1  0
 13 14  1  0
 14 15  1  0
 15 16  1  0
 16 17  1  0
 17 18  1  0
  2 19  1  0
 19 20  2  0
 20 21  1  0
 21 22  2  0
 22 23  1  0
 23 24  2  0
 24 25  1  0
 25 26  2  0
 26 27  1  0
 27 28  2  0
 12  7  1  0
 18 14  1  0
 28 19  1  0
 27 22  1  0
  3 29  1  0
  4 30  1  0
  4 31  1  0
  8 32  1  0
  8 33  1  0
  9 34  1  0
  9 35  1  0
 10 36  1  0
 10 37  1  0
 11 38  1  0
 11 39  1  0
 12 40  1  1
 13 41  1  0
 13 42  1  0
 15 43  1  0
 15 44  1  0
 16 45  1  0
 16 46  1  0
 17 47  1  0
 17 48  1  0
 18 49  1  0
 18 50  1  0
 20 51  1  0
 21 52  1  0
 23 53  1  0
 24 54  1  0
 25 55  1  0
 26 56  1  0
M  END
>  <smiles>  (1) 
O=C(NCC(=O)N1CCCC[C@H]1CN1CCCC1)c1ccc2ccccc2n1

>  <score_type>  (1) 
oracle

>  <origin>  (1) 
autodockgpu

>  <m_score__min__energy>  (1) 
-8.5199999999999996

>  <m_primary>  (1) 
energy

>  <rmsd>  (1) 
7.308409088443541

>  <m_score__min__rmsd>  (1) 
7.308409088443541

>  <meeko>  (1) 
{"free_energy": -6.85, "intermolecular_energy": -8.64, "internal_energy": -2.97, "cluster_size": 1, "cluster_id": 4, "rank_in_cluster": 1}

>  <energy>  (1) 
-8.52

>  <cluster_rmsd>  (1) 
0.0

>  <cluster>  (1) 
1

$$$$

     RDKit          3D

 56 59  0  0  0  0  0  0  0  0999 V2000
  140.6590   71.1790  221.2750 O   0  0  0  0  0  0  0  0  0  0  0  0
  140.3520   71.8310  222.3260 C   0  0  0  0  0  0  0  0  0  0  0  0
  140.1930   73.2480  222.2740 N   0  0  0  0  0  0  0  0  0  0  0  0
  140.3700   74.0050  221.0380 C   0  0  0  0  0  0  0  0  0  0  0  0
  140.2330   75.4460  221.3500 C   0  0  0  0  0  0  0  0  0  0  0  0
  139.9240   75.7740  222.5250 O   0  0  0  0  0  0  0  0  0  0  0  0
  140.4250   76.4920  220.4180 N   0  0  0  0  0  0  0  0  0  0  0  0
  139.5710   76.5180  219.2540 C   0  0  0  0  0  0  0  0  0  0  0  0
  139.6960   77.7410  218.4050 C   0  0  0  0  0  0  0  0  0  0  0  0
  141.0690   78.2800  218.2190 C   0  0  0  0  0  0  0  0  0  0  0  0
  142.0080   77.7450  219.2360 C   0  0  0  0  0  0  0  0  0  0  0  0
  141.4650   77.5280  220.6040 C   0  0  1  0  0  0  0  0  0  0  0  0
  140.8830   78.6650  221.3370 C   0  0  0  0  0  0  0  0  0  0  0  0
  141.6840   79.8070  221.6010 N   0  0  0  0  0  0  0  0  0  0  0  0
  142.6440   79.3640  222.6520 C   0  0  0  0  0  0  0  0  0  0  0  0
  141.7880   79.3050  223.8880 C   0  0  0  0  0  0  0  0  0  0  0  0
  140.7830   80.4210  223.7290 C   0  0  0  0  0  0  0  0  0  0  0  0
  141.0660   80.8860  222.3250 C   0  0  0  0  0  0  0  0  0  0  0  0
  140.1610   71.1190  223.6070 C   0  0  0  0  0  0  0  0  0  0  0  0
  139.5940   69.8630  223.5820 C   0  0  0  0  0  0  0  0  0  0  0  0
  139.4330   69.2310  224.8090 C   0  0  0  0  0  0  0  0  0  0  0  0
  139.8210   69.8290  225.9920 C   0  0  0  0  0  0  0  0  0  0  0  0
  139.6480   69.1760  227.1860 C   0  0  0  0  0  0  0  0  0  0  0  0
  140.0510   69.8140  228.3470 C   0  0  0  0  0  0  0  0  0  0  0  0
  140.6130   71.0760  228.2950 C   0  0  0  0  0  0  0  0  0  0  0  0
  140.7750   71.7090  227.0830 C   0  0  0  0  0  0  0  0  0  0  0  0
  140.3760   71.0830  225.9040 C   0  0  0  0  0  0  0  0  0  0  0  0
  140.5410   71.7110  224.7500 N   0  0  0  0  0  0  0  0  0  0  0  0
  139.9390   73.7130  223.1860 H   0  0  0  0  0  0  0  0  0  0  0  0
  141.3689   73.8082  220.6214 H   0  0  0  0  0  0  0  0  0  0  0  0
  139.6132   73.7043  220.2985 H   0  0  0  0  0  0  0  0  0  0  0  0
  139.8158   75.6445  218.6319 H   0  0  0  0  0  0  0  0  0  0  0  0
  138.5377   76.5105  219.6312 H   0  0  0  0  0  0  0  0  0  0  0  0
  139.2936   77.5001  217.4100 H   0  0  0  0  0  0  0  0  0  0  0  0
  139.1443   78.5267  218.9420 H   0  0  0  0  0  0  0  0  0  0  0  0
  141.4297   78.0006  217.2181 H   0  0  0  0  0  0  0  0  0  0  0  0
  141.0275   79.3736  218.3304 H   0  0  0  0  0  0  0  0  0  0  0  0
  142.3800   76.7772  218.8686 H   0  0  0  0  0  0  0  0  0  0  0  0
  142.7781   78.5217  219.3526 H   0  0  0  0  0  0  0  0  0  0  0  0
  142.3224   77.2733  221.2443 H   0  0  0  0  0  0  0  0  0  0  0  0
  140.0146   79.0099  220.7565 H   0  0  0  0  0  0  0  0  0  0  0  0
  140.6806   78.2531  222.3367 H   0  0  0  0  0  0  0  0  0  0  0  0
  143.0630   78.3753  222.4135 H   0  0  0  0  0  0  0  0  0  0  0  0
  143.5115   80.0322  222.7566 H   0  0  0  0  0  0  0  0  0  0  0  0
  141.2772   78.3332  223.9572 H   0  0  0  0  0  0  0  0  0  0  0  0
  142.3839   79.4168  224.8058 H   0  0  0  0  0  0  0  0  0  0  0  0
  139.7522   80.0501  223.8289 H   0  0  0  0  0  0  0  0  0  0  0  0
  140.8693   81.2122  224.4883 H   0  0  0  0  0  0  0  0  0  0  0  0
  140.1250   81.1720  221.8324 H   0  0  0  0  0  0  0  0  0  0  0  0
  141.7362   81.7580  222.3453 H   0  0  0  0  0  0  0  0  0  0  0  0
  139.2851   69.3859  222.6402 H   0  0  0  0  0  0  0  0  0  0  0  0
  138.9843   68.2271  224.8390 H   0  0  0  0  0  0  0  0  0  0  0  0
  139.2007   68.1716  227.2202 H   0  0  0  0  0  0  0  0  0  0  0  0
  139.9230   69.3130  229.3179 H   0  0  0  0  0  0  0  0  0  0  0  0
  140.9310   71.5747  229.2224 H   0  0  0  0  0  0  0  0  0  0  0  0
  141.2215   72.7136  227.0454 H   0  0  0  0  0  0  0  0  0  0  0  0
  1  2  2  0
  2  3  1  0
  3  4  1  0
  4  5  1  0
  5  6  2  0
  5  7  1  0
  7  8  1  0
  8  9  1  0
  9 10  1  0
 10 11  1  0
 11 12  1  0
 12 13  1  0
 13 14  1  0
 14 15  1  0
 15 16  1  0
 16 17  1  0
 17 18  1  0
  2 19  1  0
 19 20  2  0
 20 21  1  0
 21 22  2  0
 22 23  1  0
 23 24  2  0
 24 25  1  0
 25 26  2  0
 26 27  1  0
 27 28  2  0
 12  7  1  0
 18 14  1  0
 28 19  1  0
 27 22  1  0
  3 29  1  0
  4 30  1  0
  4 31  1  0
  8 32  1  0
  8 33  1  0
  9 34  1  0
  9 35  1  0
 10 36  1  0
 10 37  1  0
 11 38  1  0
 11 39  1  0
 12 40  1  1
 13 41  1  0
 13 42  1  0
 15 43  1  0
 15 44  1  0
 16 45  1  0
 16 46  1  0
 17 47  1  0
 17 48  1  0
 18 49  1  0
 18 50  1  0
 20 51  1  0
 21 52  1  0
 23 53  1  0
 24 54  1  0
 25 55  1  0
 26 56  1  0
M  END
>  <smiles>  (2) 
O=C(NCC(=O)N1CCCC[C@H]1CN1CCCC1)c1ccc2ccccc2n1

>  <score_type>  (2) 
oracle

>  <origin>  (2) 
autodockgpu

>  <m_score__min__energy>  (2) 
-8.5199999999999996

>  <m_primary>  (2) 
energy

>  <rmsd>  (2) 
1.9002994587175803

>  <m_score__min__rmsd>  (2) 
1.9002994587175803

>  <meeko>  (2) 
{"free_energy": -7.86, "intermolecular_energy": -9.65, "internal_energy": -2.15, "cluster_size": 41, "cluster_id": 1, "rank_in_cluster": 37}

>  <energy>  (2) 
-8.51

>  <cluster_rmsd>  (2) 
0.46

>  <cluster>  (2) 
1

$$$$

     RDKit          3D

 56 59  0  0  0  0  0  0  0  0999 V2000
  138.5490   70.7330  221.7260 O   0  0  0  0  0  0  0  0  0  0  0  0
  139.0990   71.2640  222.7450 C   0  0  0  0  0  0  0  0  0  0  0  0
  139.4420   72.6490  222.7380 N   0  0  0  0  0  0  0  0  0  0  0  0
  139.1870   73.5080  221.5850 C   0  0  0  0  0  0  0  0  0  0  0  0
  139.8140   74.8260  221.8370 C   0  0  0  0  0  0  0  0  0  0  0  0
  141.0630   74.8750  221.9690 O   0  0  0  0  0  0  0  0  0  0  0  0
  139.1050   76.0460  221.9410 N   0  0  0  0  0  0  0  0  0  0  0  0
  137.7490   75.9930  222.4310 C   0  0  0  0  0  0  0  0  0  0  0  0
  137.1190   77.3230  222.6930 C   0  0  0  0  0  0  0  0  0  0  0  0
  137.4170   78.4000  221.7130 C   0  0  0  0  0  0  0  0  0  0  0  0
  138.6040   78.0720  220.8840 C   0  0  0  0  0  0  0  0  0  0  0  0
  139.7110   77.3400  221.5570 C   0  0  1  0  0  0  0  0  0  0  0  0
  140.3560   77.9360  222.7380 C   0  0  0  0  0  0  0  0  0  0  0  0
  141.6760   78.4480  222.6280 N   0  0  0  0  0  0  0  0  0  0  0  0
  141.8620   79.2850  223.8460 C   0  0  0  0  0  0  0  0  0  0  0  0
  141.0410   80.5100  223.5440 C   0  0  0  0  0  0  0  0  0  0  0  0
  141.1620   80.7110  222.0520 C   0  0  0  0  0  0  0  0  0  0  0  0
  141.9030   79.4660  221.6380 C   0  0  0  0  0  0  0  0  0  0  0  0
  139.3830   70.4450  223.9410 C   0  0  0  0  0  0  0  0  0  0  0  0
  139.0450   69.1090  223.9190 C   0  0  0  0  0  0  0  0  0  0  0  0
  139.3310   68.3770  225.0640 C   0  0  0  0  0  0  0  0  0  0  0  0
  139.9230   68.9570  226.1690 C   0  0  0  0  0  0  0  0  0  0  0  0
  140.1910   68.2050  227.2850 C   0  0  0  0  0  0  0  0  0  0  0  0
  140.7860   68.8290  228.3690 C   0  0  0  0  0  0  0  0  0  0  0  0
  141.0970   70.1740  228.3200 C   0  0  0  0  0  0  0  0  0  0  0  0
  140.8150   70.9060  227.1880 C   0  0  0  0  0  0  0  0  0  0  0  0
  140.2190   70.2970  226.0870 C   0  0  0  0  0  0  0  0  0  0  0  0
  139.9580   71.0210  225.0090 N   0  0  0  0  0  0  0  0  0  0  0  0
  139.8940   73.0120  223.6190 H   0  0  0  0  0  0  0  0  0  0  0  0
  139.6222   73.0561  220.6814 H   0  0  0  0  0  0  0  0  0  0  0  0
  138.1039   73.6270  221.4342 H   0  0  0  0  0  0  0  0  0  0  0  0
  137.1366   75.4667  221.6840 H   0  0  0  0  0  0  0  0  0  0  0  0
  137.7931   75.4774  223.4017 H   0  0  0  0  0  0  0  0  0  0  0  0
  136.0286   77.1791  222.7108 H   0  0  0  0  0  0  0  0  0  0  0  0
  137.5487   77.6673  223.6452 H   0  0  0  0  0  0  0  0  0  0  0  0
  136.5468   78.5331  221.0534 H   0  0  0  0  0  0  0  0  0  0  0  0
  137.6320   79.3231  222.2713 H   0  0  0  0  0  0  0  0  0  0  0  0
  138.2607   77.4543  220.0410 H   0  0  0  0  0  0  0  0  0  0  0  0
  139.0332   79.0438  220.5987 H   0  0  0  0  0  0  0  0  0  0  0  0
  140.5479   77.3139  220.8436 H   0  0  0  0  0  0  0  0  0  0  0  0
  139.7160   78.7681  223.0668 H   0  0  0  0  0  0  0  0  0  0  0  0
  140.4638   77.0879  223.4301 H   0  0  0  0  0  0  0  0  0  0  0  0
  141.4866   78.7685  224.7417 H   0  0  0  0  0  0  0  0  0  0  0  0
  142.9171   79.5121  224.0588 H   0  0  0  0  0  0  0  0  0  0  0  0
  139.9903   80.3495  223.8275 H   0  0  0  0  0  0  0  0  0  0  0  0
  141.3911   81.3881  224.1065 H   0  0  0  0  0  0  0  0  0  0  0  0
  140.1734   80.7677  221.5731 H   0  0  0  0  0  0  0  0  0  0  0  0
  141.6642   81.6469  221.7657 H   0  0  0  0  0  0  0  0  0  0  0  0
  141.5331   79.1220  220.6608 H   0  0  0  0  0  0  0  0  0  0  0  0
  142.9792   79.6782  221.5563 H   0  0  0  0  0  0  0  0  0  0  0  0
  138.5730   68.6463  223.0397 H   0  0  0  0  0  0  0  0  0  0  0  0
  139.0793   67.3065  225.0917 H   0  0  0  0  0  0  0  0  0  0  0  0
  139.9399   67.1346  227.3179 H   0  0  0  0  0  0  0  0  0  0  0  0
  141.0126   68.2491  229.2758 H   0  0  0  0  0  0  0  0  0  0  0  0
  141.5702   70.6607  229.1856 H   0  0  0  0  0  0  0  0  0  0  0  0
  141.0620   71.9774  227.1536 H   0  0  0  0  0  0  0  0  0  0  0  0
  1  2  2  0
  2  3  1  0
  3  4  1  0
  4  5  1  0
  5  6  2  0
  5  7  1  0
  7  8  1  0
  8  9  1  0
  9 10  1  0
 10 11  1  0
 11 12  1  0
 12 13  1  0
 13 14  1  0
 14 15  1  0
 15 16  1  0
 16 17  1  0
 17 18  1  0
  2 19  1  0
 19 20  2  0
 20 21  1  0
 21 22  2  0
 22 23  1  0
 23 24  2  0
 24 25  1  0
 25 26  2  0
 26 27  1  0
 27 28  2  0
 12  7  1  0
 18 14  1  0
 28 19  1  0
 27 22  1  0
  3 29  1  0
  4 30  1  0
  4 31  1  0
  8 32  1  0
  8 33  1  0
  9 34  1  0
  9 35  1  0
 10 36  1  0
 10 37  1  0
 11 38  1  0
 11 39  1  0
 12 40  1  6
 13 41  1  0
 13 42  1  0
 15 43  1  0
 15 44  1  0
 16 45  1  0
 16 46  1  0
 17 47  1  0
 17 48  1  0
 18 49  1  0
 18 50  1  0
 20 51  1  0
 21 52  1  0
 23 53  1  0
 24 54  1  0
 25 55  1  0
 26 56  1  0
M  END
>  <smiles>  (3) 
O=C(NCC(=O)N1CCCC[C@H]1CN1CCCC1)c1ccc2ccccc2n1

>  <score_type>  (3) 
oracle

>  <origin>  (3) 
autodockgpu

>  <m_score__min__energy>  (3) 
-8.5199999999999996

>  <m_primary>  (3) 
energy

>  <rmsd>  (3) 
2.663642156407178

>  <m_score__min__rmsd>  (3) 
2.663642156407178

>  <meeko>  (3) 
{"free_energy": -8.1, "intermolecular_energy": -9.89, "internal_energy": -1.84, "cluster_size": 41, "cluster_id": 1, "rank_in_cluster": 31}

>  <energy>  (3) 
-8.51

>  <cluster_rmsd>  (3) 
0.57

>  <cluster>  (3) 
1

$$$$

     RDKit          3D

 56 59  0  0  0  0  0  0  0  0999 V2000
  140.1060   71.3150  221.2860 O   0  0  0  0  0  0  0  0  0  0  0  0
  139.9300   71.9300  222.3870 C   0  0  0  0  0  0  0  0  0  0  0  0
  139.6960   73.3380  222.3960 N   0  0  0  0  0  0  0  0  0  0  0  0
  139.6490   74.1260  221.1680 C   0  0  0  0  0  0  0  0  0  0  0  0
  140.0010   75.5260  221.4980 C   0  0  0  0  0  0  0  0  0  0  0  0
  139.9140   75.8940  222.6970 O   0  0  0  0  0  0  0  0  0  0  0  0
  140.4330   76.4890  220.5560 N   0  0  0  0  0  0  0  0  0  0  0  0
  139.8040   76.4850  219.2570 C   0  0  0  0  0  0  0  0  0  0  0  0
  140.1670   77.6340  218.3740 C   0  0  0  0  0  0  0  0  0  0  0  0
  141.5870   78.0730  218.4110 C   0  0  0  0  0  0  0  0  0  0  0  0
  142.2880   77.5560  219.6130 C   0  0  0  0  0  0  0  0  0  0  0  0
  141.4950   77.4700  220.8680 C   0  0  1  0  0  0  0  0  0  0  0  0
  140.8770   78.6890  221.4140 C   0  0  0  0  0  0  0  0  0  0  0  0
  140.6570   78.7930  222.8140 N   0  0  0  0  0  0  0  0  0  0  0  0
  140.2940   80.2210  223.0370 C   0  0  0  0  0  0  0  0  0  0  0  0
  141.6110   80.9330  222.8860 C   0  0  0  0  0  0  0  0  0  0  0  0
  142.6450   79.9720  223.4250 C   0  0  0  0  0  0  0  0  0  0  0  0
  141.8160   78.7370  223.6630 C   0  0  0  0  0  0  0  0  0  0  0  0
  139.9680   71.1860  223.6630 C   0  0  0  0  0  0  0  0  0  0  0  0
  139.5200   69.8820  223.6770 C   0  0  0  0  0  0  0  0  0  0  0  0
  139.5750   69.2210  224.8980 C   0  0  0  0  0  0  0  0  0  0  0  0
  140.0520   69.8370  226.0380 C   0  0  0  0  0  0  0  0  0  0  0  0
  140.0920   69.1540  227.2270 C   0  0  0  0  0  0  0  0  0  0  0  0
  140.5790   69.8110  228.3450 C   0  0  0  0  0  0  0  0  0  0  0  0
  141.0120   71.1200  228.2550 C   0  0  0  0  0  0  0  0  0  0  0  0
  140.9600   71.7830  227.0490 C   0  0  0  0  0  0  0  0  0  0  0  0
  140.4740   71.1390  225.9140 C   0  0  0  0  0  0  0  0  0  0  0  0
  140.4340   71.7950  224.7640 N   0  0  0  0  0  0  0  0  0  0  0  0
  139.5610   73.7720  223.3470 H   0  0  0  0  0  0  0  0  0  0  0  0
  140.3690   73.7234  220.4403 H   0  0  0  0  0  0  0  0  0  0  0  0
  138.6412   74.0828  220.7292 H   0  0  0  0  0  0  0  0  0  0  0  0
  140.0905   75.5559  218.7425 H   0  0  0  0  0  0  0  0  0  0  0  0
  138.7225   76.5687  219.4399 H   0  0  0  0  0  0  0  0  0  0  0  0
  139.9321   77.3474  217.3383 H   0  0  0  0  0  0  0  0  0  0  0  0
  139.5869   78.4884  218.7528 H   0  0  0  0  0  0  0  0  0  0  0  0
  142.0992   77.7008  217.5115 H   0  0  0  0  0  0  0  0  0  0  0  0
  141.6063   79.1722  218.4478 H   0  0  0  0  0  0  0  0  0  0  0  0
  142.6490   76.5439  219.3778 H   0  0  0  0  0  0  0  0  0  0  0  0
  143.0789   78.2912  219.8228 H   0  0  0  0  0  0  0  0  0  0  0  0
  142.2028   77.2091  221.6686 H   0  0  0  0  0  0  0  0  0  0  0  0
  141.5235   79.5317  221.1279 H   0  0  0  0  0  0  0  0  0  0  0  0
  139.8612   78.6759  220.9922 H   0  0  0  0  0  0  0  0  0  0  0  0
  139.5693   80.5667  222.2852 H   0  0  0  0  0  0  0  0  0  0  0  0
  139.8142   80.3992  224.0107 H   0  0  0  0  0  0  0  0  0  0  0  0
  141.8085   81.1584  221.8276 H   0  0  0  0  0  0  0  0  0  0  0  0
  141.6231   81.8933  223.4224 H   0  0  0  0  0  0  0  0  0  0  0  0
  143.4414   79.7853  222.6895 H   0  0  0  0  0  0  0  0  0  0  0  0
  143.1716   80.3366  224.3193 H   0  0  0  0  0  0  0  0  0  0  0  0
  142.4080   77.8413  223.4237 H   0  0  0  0  0  0  0  0  0  0  0  0
  141.5077   78.6884  224.7178 H   0  0  0  0  0  0  0  0  0  0  0  0
  139.1391   69.3909  222.7694 H   0  0  0  0  0  0  0  0  0  0  0  0
  139.2291   68.1785  224.9580 H   0  0  0  0  0  0  0  0  0  0  0  0
  139.7463   68.1117  227.2909 H   0  0  0  0  0  0  0  0  0  0  0  0
  140.6213   69.2869  229.3112 H   0  0  0  0  0  0  0  0  0  0  0  0
  141.3987   71.6332  229.1478 H   0  0  0  0  0  0  0  0  0  0  0  0
  141.3039   72.8257  226.9820 H   0  0  0  0  0  0  0  0  0  0  0  0
  1  2  2  0
  2  3  1  0
  3  4  1  0
  4  5  1  0
  5  6  2  0
  5  7  1  0
  7  8  1  0
  8  9  1  0
  9 10  1  0
 10 11  1  0
 11 12  1  0
 12 13  1  0
 13 14  1  0
 14 15  1  0
 15 16  1  0
 16 17  1  0
 17 18  1  0
  2 19  1  0
 19 20  2  0
 20 21  1  0
 21 22  2  0
 22 23  1  0
 23 24  2  0
 24 25  1  0
 25 26  2  0
 26 27  1  0
 27 28  2  0
 12  7  1  0
 18 14  1  0
 28 19  1  0
 27 22  1  0
  3 29  1  0
  4 30  1  0
  4 31  1  0
  8 32  1  0
  8 33  1  0
  9 34  1  0
  9 35  1  0
 10 36  1  0
 10 37  1  0
 11 38  1  0
 11 39  1  0
 12 40  1  1
 13 41  1  0
 13 42  1  0
 15 43  1  0
 15 44  1  0
 16 45  1  0
 16 46  1  0
 17 47  1  0
 17 48  1  0
 18 49  1  0
 18 50  1  0
 20 51  1  0
 21 52  1  0
 23 53  1  0
 24 54  1  0
 25 55  1  0
 26 56  1  0
M  END
>  <smiles>  (4) 
O=C(NCC(=O)N1CCCC[C@H]1CN1CCCC1)c1ccc2ccccc2n1

>  <score_type>  (4) 
oracle

>  <origin>  (4) 
autodockgpu

>  <m_score__min__energy>  (4) 
-8.5199999999999996

>  <m_primary>  (4) 
energy

>  <rmsd>  (4) 
2.0799125978746504

>  <m_score__min__rmsd>  (4) 
2.0799125978746504

>  <meeko>  (4) 
{"free_energy": -8.39, "intermolecular_energy": -10.18, "internal_energy": -2.14, "cluster_size": 41, "cluster_id": 1, "rank_in_cluster": 17}

>  <energy>  (4) 
-8.5

>  <cluster_rmsd>  (4) 
0.5

>  <cluster>  (4) 
1

$$$$

     RDKit          3D

 56 59  0  0  0  0  0  0  0  0999 V2000
  139.8460   71.2470  221.2360 O   0  0  0  0  0  0  0  0  0  0  0  0
  139.7910   71.8750  222.3430 C   0  0  0  0  0  0  0  0  0  0  0  0
  139.6150   73.2910  222.3600 N   0  0  0  0  0  0  0  0  0  0  0  0
  139.4920   74.0740  221.1340 C   0  0  0  0  0  0  0  0  0  0  0  0
  139.9250   75.4610  221.4210 C   0  0  0  0  0  0  0  0  0  0  0  0
  139.7280   75.9190  222.5750 O   0  0  0  0  0  0  0  0  0  0  0  0
  140.5520   76.3170  220.4850 N   0  0  0  0  0  0  0  0  0  0  0  0
  139.9630   76.4180  219.1710 C   0  0  0  0  0  0  0  0  0  0  0  0
  140.5550   77.4700  218.2910 C   0  0  0  0  0  0  0  0  0  0  0  0
  142.0310   77.6340  218.3590 C   0  0  0  0  0  0  0  0  0  0  0  0
  142.5950   77.0060  219.5800 C   0  0  0  0  0  0  0  0  0  0  0  0
  141.7730   77.0830  220.8170 C   0  0  1  0  0  0  0  0  0  0  0  0
  141.3830   78.4020  221.3410 C   0  0  0  0  0  0  0  0  0  0  0  0
  140.8920   78.5070  222.6700 N   0  0  0  0  0  0  0  0  0  0  0  0
  140.2440   79.8470  222.7320 C   0  0  0  0  0  0  0  0  0  0  0  0
  141.4170   80.7890  222.7700 C   0  0  0  0  0  0  0  0  0  0  0  0
  142.4880   80.0570  223.5450 C   0  0  0  0  0  0  0  0  0  0  0  0
  141.8650   78.6970  223.7130 C   0  0  0  0  0  0  0  0  0  0  0  0
  139.9110   71.1360  223.6170 C   0  0  0  0  0  0  0  0  0  0  0  0
  139.5320   69.8110  223.6470 C   0  0  0  0  0  0  0  0  0  0  0  0
  139.6620   69.1560  224.8650 C   0  0  0  0  0  0  0  0  0  0  0  0
  140.1460   69.7970  225.9880 C   0  0  0  0  0  0  0  0  0  0  0  0
  140.2620   69.1190  227.1750 C   0  0  0  0  0  0  0  0  0  0  0  0
  140.7530   69.8030  228.2750 C   0  0  0  0  0  0  0  0  0  0  0  0
  141.1140   71.1330  228.1700 C   0  0  0  0  0  0  0  0  0  0  0  0
  140.9870   71.7890  226.9670 C   0  0  0  0  0  0  0  0  0  0  0  0
  140.4960   71.1190  225.8490 C   0  0  0  0  0  0  0  0  0  0  0  0
  140.3830   71.7710  224.7010 N   0  0  0  0  0  0  0  0  0  0  0  0
  139.5810   73.7350  223.3160 H   0  0  0  0  0  0  0  0  0  0  0  0
  140.1302   73.6400  220.3502 H   0  0  0  0  0  0  0  0  0  0  0  0
  138.4492   74.0679  220.7841 H   0  0  0  0  0  0  0  0  0  0  0  0
  140.0819   75.4467  218.6686 H   0  0  0  0  0  0  0  0  0  0  0  0
  138.9125   76.7044  219.3271 H   0  0  0  0  0  0  0  0  0  0  0  0
  140.2931   77.2233  217.2515 H   0  0  0  0  0  0  0  0  0  0  0  0
  140.1380   78.4218  218.6518 H   0  0  0  0  0  0  0  0  0  0  0  0
  142.4836   77.1632  217.4738 H   0  0  0  0  0  0  0  0  0  0  0  0
  142.2565   78.7102  218.3902 H   0  0  0  0  0  0  0  0  0  0  0  0
  142.7637   75.9418  219.3588 H   0  0  0  0  0  0  0  0  0  0  0  0
  143.5053   77.5814  219.8042 H   0  0  0  0  0  0  0  0  0  0  0  0
  142.4014   76.7015  221.6353 H   0  0  0  0  0  0  0  0  0  0  0  0
  142.2708   79.0481  221.2754 H   0  0  0  0  0  0  0  0  0  0  0  0
  140.5178   78.6817  220.7219 H   0  0  0  0  0  0  0  0  0  0  0  0
  139.6214   80.0266  221.8431 H   0  0  0  0  0  0  0  0  0  0  0  0
  139.5677   79.9620  223.5919 H   0  0  0  0  0  0  0  0  0  0  0  0
  141.7641   81.0141  221.7508 H   0  0  0  0  0  0  0  0  0  0  0  0
  141.1570   81.7508  223.2362 H   0  0  0  0  0  0  0  0  0  0  0  0
  143.4275   80.0004  222.9757 H   0  0  0  0  0  0  0  0  0  0  0  0
  142.7649   80.5422  224.4926 H   0  0  0  0  0  0  0  0  0  0  0  0
  142.6420   77.9217  223.6409 H   0  0  0  0  0  0  0  0  0  0  0  0
  141.3802   78.6242  224.6977 H   0  0  0  0  0  0  0  0  0  0  0  0
  139.1467   69.2990  222.7529 H   0  0  0  0  0  0  0  0  0  0  0  0
  139.3714   68.0975  224.9368 H   0  0  0  0  0  0  0  0  0  0  0  0
  139.9728   68.0604  227.2512 H   0  0  0  0  0  0  0  0  0  0  0  0
  140.8564   69.2838  229.2392 H   0  0  0  0  0  0  0  0  0  0  0  0
  141.5032   71.6677  229.0490 H   0  0  0  0  0  0  0  0  0  0  0  0
  141.2747   72.8478  226.8879 H   0  0  0  0  0  0  0  0  0  0  0  0
  1  2  2  0
  2  3  1  0
  3  4  1  0
  4  5  1  0
  5  6  2  0
  5  7  1  0
  7  8  1  0
  8  9  1  0
  9 10  1  0
 10 11  1  0
 11 12  1  0
 12 13  1  0
 13 14  1  0
 14 15  1  0
 15 16  1  0
 16 17  1  0
 17 18  1  0
  2 19  1  0
 19 20  2  0
 20 21  1  0
 21 22  2  0
 22 23  1  0
 23 24  2  0
 24 25  1  0
 25 26  2  0
 26 27  1  0
 27 28  2  0
 12  7  1  0
 18 14  1  0
 28 19  1  0
 27 22  1  0
  3 29  1  0
  4 30  1  0
  4 31  1  0
  8 32  1  0
  8 33  1  0
  9 34  1  0
  9 35  1  0
 10 36  1  0
 10 37  1  0
 11 38  1  0
 11 39  1  0
 12 40  1  1
 13 41  1  0
 13 42  1  0
 15 43  1  0
 15 44  1  0
 16 45  1  0
 16 46  1  0
 17 47  1  0
 17 48  1  0
 18 49  1  0
 18 50  1  0
 20 51  1  0
 21 52  1  0
 23 53  1  0
 24 54  1  0
 25 55  1  0
 26 56  1  0
M  END
>  <smiles>  (5) 
O=C(NCC(=O)N1CCCC[C@H]1CN1CCCC1)c1ccc2ccccc2n1

>  <score_type>  (5) 
oracle

>  <origin>  (5) 
autodockgpu

>  <m_score__min__energy>  (5) 
-8.5199999999999996

>  <m_primary>  (5) 
energy

>  <rmsd>  (5) 
2.059767543912977

>  <m_score__min__rmsd>  (5) 
2.059767543912977

>  <meeko>  (5) 
{"free_energy": -8.31, "intermolecular_energy": -10.1, "internal_energy": -2.1, "cluster_size": 41, "cluster_id": 1, "rank_in_cluster": 25}

>  <energy>  (5) 
-8.49

>  <cluster_rmsd>  (5) 
0.44

>  <cluster>  (5) 
1

$$$$

     RDKit          3D

 56 59  0  0  0  0  0  0  0  0999 V2000
  140.6690   71.3340  221.3530 O   0  0  0  0  0  0  0  0  0  0  0  0
  140.2610   71.9050  222.4170 C   0  0  0  0  0  0  0  0  0  0  0  0
  139.9000   73.2850  222.4000 N   0  0  0  0  0  0  0  0  0  0  0  0
  139.9810   74.0960  221.1880 C   0  0  0  0  0  0  0  0  0  0  0  0
  139.9150   75.5230  221.5770 C   0  0  0  0  0  0  0  0  0  0  0  0
  139.4380   75.8120  222.7040 O   0  0  0  0  0  0  0  0  0  0  0  0
  140.3530   76.5970  220.7670 N   0  0  0  0  0  0  0  0  0  0  0  0
  139.8680   76.6530  219.4080 C   0  0  0  0  0  0  0  0  0  0  0  0
  140.2150   77.9010  218.6630 C   0  0  0  0  0  0  0  0  0  0  0  0
  141.5760   78.4520  218.8930 C   0  0  0  0  0  0  0  0  0  0  0  0
  142.1910   77.8920  220.1230 C   0  0  0  0  0  0  0  0  0  0  0  0
  141.2810   77.6330  221.2710 C   0  0  1  0  0  0  0  0  0  0  0  0
  140.4990   78.7440  221.8360 C   0  0  0  0  0  0  0  0  0  0  0  0
  140.5550   78.9970  223.2320 N   0  0  0  0  0  0  0  0  0  0  0  0
  140.3020   80.4590  223.3640 C   0  0  0  0  0  0  0  0  0  0  0  0
  141.5950   81.0700  222.8970 C   0  0  0  0  0  0  0  0  0  0  0  0
  142.6710   80.1040  223.3360 C   0  0  0  0  0  0  0  0  0  0  0  0
  141.8510   78.9520  223.8540 C   0  0  0  0  0  0  0  0  0  0  0  0
  140.1590   71.1360  223.6740 C   0  0  0  0  0  0  0  0  0  0  0  0
  139.5850   69.8830  223.6340 C   0  0  0  0  0  0  0  0  0  0  0  0
  139.5110   69.1960  224.8400 C   0  0  0  0  0  0  0  0  0  0  0  0
  139.9860   69.7390  226.0170 C   0  0  0  0  0  0  0  0  0  0  0  0
  139.8970   69.0330  227.1900 C   0  0  0  0  0  0  0  0  0  0  0  0
  140.3870   69.6170  228.3460 C   0  0  0  0  0  0  0  0  0  0  0  0
  140.9500   70.8790  228.3100 C   0  0  0  0  0  0  0  0  0  0  0  0
  141.0260   71.5660  227.1190 C   0  0  0  0  0  0  0  0  0  0  0  0
  140.5400   70.9960  225.9460 C   0  0  0  0  0  0  0  0  0  0  0  0
  140.6250   71.6750  224.8120 N   0  0  0  0  0  0  0  0  0  0  0  0
  139.5720   73.6830  223.3210 H   0  0  0  0  0  0  0  0  0  0  0  0
  140.9301   73.8956  220.6693 H   0  0  0  0  0  0  0  0  0  0  0  0
  139.1497   73.8493  220.5112 H   0  0  0  0  0  0  0  0  0  0  0  0
  140.2921   75.7992  218.8592 H   0  0  0  0  0  0  0  0  0  0  0  0
  138.7702   76.6297  219.4729 H   0  0  0  0  0  0  0  0  0  0  0  0
  140.1179   77.6870  217.5884 H   0  0  0  0  0  0  0  0  0  0  0  0
  139.5222   78.6679  219.0396 H   0  0  0  0  0  0  0  0  0  0  0  0
  142.2122   78.2036  218.0307 H   0  0  0  0  0  0  0  0  0  0  0  0
  141.4900   79.5417  219.0164 H   0  0  0  0  0  0  0  0  0  0  0  0
  142.6653   76.9371  219.8526 H   0  0  0  0  0  0  0  0  0  0  0  0
  142.8854   78.6685  220.4763 H   0  0  0  0  0  0  0  0  0  0  0  0
  141.9217   77.3650  222.1240 H   0  0  0  0  0  0  0  0  0  0  0  0
  140.8345   79.6615  221.3304 H   0  0  0  0  0  0  0  0  0  0  0  0
  139.4557   78.4376  221.6697 H   0  0  0  0  0  0  0  0  0  0  0  0
  139.4629   80.7741  222.7264 H   0  0  0  0  0  0  0  0  0  0  0  0
  140.0241   80.7603  224.3848 H   0  0  0  0  0  0  0  0  0  0  0  0
  141.5972   81.1784  221.8024 H   0  0  0  0  0  0  0  0  0  0  0  0
  141.7494   82.0754  223.3156 H   0  0  0  0  0  0  0  0  0  0  0  0
  143.3045   79.7976  222.4906 H   0  0  0  0  0  0  0  0  0  0  0  0
  143.3728   80.5209  224.0733 H   0  0  0  0  0  0  0  0  0  0  0  0
  142.3481   78.0023  223.6071 H   0  0  0  0  0  0  0  0  0  0  0  0
  141.7469   79.0252  224.9466 H   0  0  0  0  0  0  0  0  0  0  0  0
  139.2055   69.4498  222.6968 H   0  0  0  0  0  0  0  0  0  0  0  0
  139.0616   68.1921  224.8571 H   0  0  0  0  0  0  0  0  0  0  0  0
  139.4480   68.0290  227.2116 H   0  0  0  0  0  0  0  0  0  0  0  0
  140.3278   69.0726  229.3000 H   0  0  0  0  0  0  0  0  0  0  0  0
  141.3375   71.3346  229.2332 H   0  0  0  0  0  0  0  0  0  0  0  0
  141.4732   72.5707  227.0946 H   0  0  0  0  0  0  0  0  0  0  0  0
  1  2  2  0
  2  3  1  0
  3  4  1  0
  4  5  1  0
  5  6  2  0
  5  7  1  0
  7  8  1  0
  8  9  1  0
  9 10  1  0
 10 11  1  0
 11 12  1  0
 12 13  1  0
 13 14  1  0
 14 15  1  0
 15 16  1  0
 16 17  1  0
 17 18  1  0
  2 19  1  0
 19 20  2  0
 20 21  1  0
 21 22  2  0
 22 23  1  0
 23 24  2  0
 24 25  1  0
 25 26  2  0
 26 27  1  0
 27 28  2  0
 12  7  1  0
 18 14  1  0
 28 19  1  0
 27 22  1  0
  3 29  1  0
  4 30  1  0
  4 31  1  0
  8 32  1  0
  8 33  1  0
  9 34  1  0
  9 35  1  0
 10 36  1  0
 10 37  1  0
 11 38  1  0
 11 39  1  0
 12 40  1  1
 13 41  1  0
 13 42  1  0
 15 43  1  0
 15 44  1  0
 16 45  1  0
 16 46  1  0
 17 47  1  0
 17 48  1  0
 18 49  1  0
 18 50  1  0
 20 51  1  0
 21 52  1  0
 23 53  1  0
 24 54  1  0
 25 55  1  0
 26 56  1  0
M  END
>  <smiles>  (6) 
O=C(NCC(=O)N1CCCC[C@H]1CN1CCCC1)c1ccc2ccccc2n1

>  <score_type>  (6) 
oracle

>  <origin>  (6) 
autodockgpu

>  <m_score__min__energy>  (6) 
-8.5199999999999996

>  <m_primary>  (6) 
energy

>  <rmsd>  (6) 
2.220263552589038

>  <m_score__min__rmsd>  (6) 
2.220263552589038

>  <meeko>  (6) 
{"free_energy": -8.5, "intermolecular_energy": -10.29, "internal_energy": -2.09, "cluster_size": 41, "cluster_id": 1, "rank_in_cluster": 4}

>  <energy>  (6) 
-8.49

>  <cluster_rmsd>  (6) 
0.51

>  <cluster>  (6) 
1

$$$$

     RDKit          3D

 56 59  0  0  0  0  0  0  0  0999 V2000
  139.8020   71.5130  221.1290 O   0  0  0  0  0  0  0  0  0  0  0  0
  139.7490   72.0930  222.2620 C   0  0  0  0  0  0  0  0  0  0  0  0
  139.6040   73.5110  222.3380 N   0  0  0  0  0  0  0  0  0  0  0  0
  139.5120   74.3490  221.1460 C   0  0  0  0  0  0  0  0  0  0  0  0
  140.5010   75.4450  221.2690 C   0  0  0  0  0  0  0  0  0  0  0  0
  141.4060   75.3350  222.1350 O   0  0  0  0  0  0  0  0  0  0  0  0
  140.5030   76.6170  220.4780 N   0  0  0  0  0  0  0  0  0  0  0  0
  139.7550   76.5940  219.2440 C   0  0  0  0  0  0  0  0  0  0  0  0
  139.6430   77.9110  218.5470 C   0  0  0  0  0  0  0  0  0  0  0  0
  140.8560   78.7700  218.5580 C   0  0  0  0  0  0  0  0  0  0  0  0
  141.8200   78.3410  219.6030 C   0  0  0  0  0  0  0  0  0  0  0  0
  141.2470   77.8320  220.8770 C   0  0  1  0  0  0  0  0  0  0  0  0
  140.3570   78.7010  221.6650 C   0  0  0  0  0  0  0  0  0  0  0  0
  140.4910   78.7390  223.0780 N   0  0  0  0  0  0  0  0  0  0  0  0
  140.2040   80.1530  223.4500 C   0  0  0  0  0  0  0  0  0  0  0  0
  141.4480   80.8770  223.0110 C   0  0  0  0  0  0  0  0  0  0  0  0
  142.5760   79.8970  223.2330 C   0  0  0  0  0  0  0  0  0  0  0  0
  141.8240   78.6490  223.6110 C   0  0  0  0  0  0  0  0  0  0  0  0
  139.8370   71.2980  223.5030 C   0  0  0  0  0  0  0  0  0  0  0  0
  139.4020   69.9900  223.4790 C   0  0  0  0  0  0  0  0  0  0  0  0
  139.5050   69.2790  224.6680 C   0  0  0  0  0  0  0  0  0  0  0  0
  140.0150   69.8530  225.8170 C   0  0  0  0  0  0  0  0  0  0  0  0
  140.1020   69.1220  226.9740 C   0  0  0  0  0  0  0  0  0  0  0  0
  140.6210   69.7380  228.1010 C   0  0  0  0  0  0  0  0  0  0  0  0
  141.0380   71.0550  228.0510 C   0  0  0  0  0  0  0  0  0  0  0  0
  140.9390   71.7650  226.8760 C   0  0  0  0  0  0  0  0  0  0  0  0
  140.4210   71.1640  225.7320 C   0  0  0  0  0  0  0  0  0  0  0  0
  140.3350   71.8660  224.6130 N   0  0  0  0  0  0  0  0  0  0  0  0
  139.5690   73.9140  223.3120 H   0  0  0  0  0  0  0  0  0  0  0  0
  139.7323   73.7482  220.2513 H   0  0  0  0  0  0  0  0  0  0  0  0
  138.4974   74.7635  221.0521 H   0  0  0  0  0  0  0  0  0  0  0  0
  140.2473   75.8871  218.5600 H   0  0  0  0  0  0  0  0  0  0  0  0
  138.7293   76.3009  219.5125 H   0  0  0  0  0  0  0  0  0  0  0  0
  139.3829   77.7127  217.4967 H   0  0  0  0  0  0  0  0  0  0  0  0
  138.8814   78.4738  219.1066 H   0  0  0  0  0  0  0  0  0  0  0  0
  141.3452   78.7096  217.5746 H   0  0  0  0  0  0  0  0  0  0  0  0
  140.5451   79.8017  218.7793 H   0  0  0  0  0  0  0  0  0  0  0  0
  142.4408   77.5405  219.1743 H   0  0  0  0  0  0  0  0  0  0  0  0
  142.3691   79.2533  219.8792 H   0  0  0  0  0  0  0  0  0  0  0  0
  142.0919   77.7017  221.5692 H   0  0  0  0  0  0  0  0  0  0  0  0
  140.5079   79.7281  221.3012 H   0  0  0  0  0  0  0  0  0  0  0  0
  139.3612   78.2599  221.5109 H   0  0  0  0  0  0  0  0  0  0  0  0
  139.3183   80.5300  222.9176 H   0  0  0  0  0  0  0  0  0  0  0  0
  139.9807   80.2835  224.5192 H   0  0  0  0  0  0  0  0  0  0  0  0
  141.3795   81.1519  221.9481 H   0  0  0  0  0  0  0  0  0  0  0  0
  141.5991   81.8115  223.5713 H   0  0  0  0  0  0  0  0  0  0  0  0
  143.1648   79.7484  222.3158 H   0  0  0  0  0  0  0  0  0  0  0  0
  143.3093   80.2224  223.9856 H   0  0  0  0  0  0  0  0  0  0  0  0
  142.3324   77.7683  223.1916 H   0  0  0  0  0  0  0  0  0  0  0  0
  141.7857   78.5496  224.7058 H   0  0  0  0  0  0  0  0  0  0  0  0
  138.9943   69.5329  222.5653 H   0  0  0  0  0  0  0  0  0  0  0  0
  139.1717   68.2311  224.6956 H   0  0  0  0  0  0  0  0  0  0  0  0
  139.7685   68.0743  227.0063 H   0  0  0  0  0  0  0  0  0  0  0  0
  140.7019   69.1750  229.0426 H   0  0  0  0  0  0  0  0  0  0  0  0
  141.4492   71.5359  228.9508 H   0  0  0  0  0  0  0  0  0  0  0  0
  141.2710   72.8131  226.8407 H   0  0  0  0  0  0  0  0  0  0  0  0
  1  2  2  0
  2  3  1  0
  3  4  1  0
  4  5  1  0
  5  6  2  0
  5  7  1  0
  7  8  1  0
  8  9  1  0
  9 10  1  0
 10 11  1  0
 11 12  1  0
 12 13  1  0
 13 14  1  0
 14 15  1  0
 15 16  1  0
 16 17  1  0
 17 18  1  0
  2 19  1  0
 19 20  2  0
 20 21  1  0
 21 22  2  0
 22 23  1  0
 23 24  2  0
 24 25  1  0
 25 26  2  0
 26 27  1  0
 27 28  2  0
 12  7  1  0
 18 14  1  0
 28 19  1  0
 27 22  1  0
  3 29  1  0
  4 30  1  0
  4 31  1  0
  8 32  1  0
  8 33  1  0
  9 34  1  0
  9 35  1  0
 10 36  1  0
 10 37  1  0
 11 38  1  0
 11 39  1  0
 12 40  1  1
 13 41  1  0
 13 42  1  0
 15 43  1  0
 15 44  1  0
 16 45  1  0
 16 46  1  0
 17 47  1  0
 17 48  1  0
 18 49  1  0
 18 50  1  0
 20 51  1  0
 21 52  1  0
 23 53  1  0
 24 54  1  0
 25 55  1  0
 26 56  1  0
M  END
>  <smiles>  (7) 
O=C(NCC(=O)N1CCCC[C@H]1CN1CCCC1)c1ccc2ccccc2n1

>  <score_type>  (7) 
oracle

>  <origin>  (7) 
autodockgpu

>  <m_score__min__energy>  (7) 
-8.5199999999999996

>  <m_primary>  (7) 
energy

>  <rmsd>  (7) 
2.087424387173143

>  <m_score__min__rmsd>  (7) 
2.087424387173143

>  <meeko>  (7) 
{"free_energy": -8.11, "intermolecular_energy": -9.9, "internal_energy": -1.87, "cluster_size": 41, "cluster_id": 1, "rank_in_cluster": 30}

>  <energy>  (7) 
-8.46

>  <cluster_rmsd>  (7) 
0.45

>  <cluster>  (7) 
1

$$$$

     RDKit          3D

 56 59  0  0  0  0  0  0  0  0999 V2000
  140.3610   71.3900  221.2570 O   0  0  0  0  0  0  0  0  0  0  0  0
  140.0910   71.9910  222.3480 C   0  0  0  0  0  0  0  0  0  0  0  0
  139.8130   73.3900  222.3490 N   0  0  0  0  0  0  0  0  0  0  0  0
  139.8230   74.1860  221.1250 C   0  0  0  0  0  0  0  0  0  0  0  0
  139.9150   75.6160  221.4990 C   0  0  0  0  0  0  0  0  0  0  0  0
  139.5930   75.9470  222.6690 O   0  0  0  0  0  0  0  0  0  0  0  0
  140.3420   76.6480  220.6310 N   0  0  0  0  0  0  0  0  0  0  0  0
  139.5430   76.9100  219.4580 C   0  0  0  0  0  0  0  0  0  0  0  0
  139.9370   78.1250  218.6820 C   0  0  0  0  0  0  0  0  0  0  0  0
  141.3960   78.3790  218.5480 C   0  0  0  0  0  0  0  0  0  0  0  0
  142.1780   77.6090  219.5480 C   0  0  0  0  0  0  0  0  0  0  0  0
  141.5660   77.4370  220.8920 C   0  0  1  0  0  0  0  0  0  0  0  0
  141.2100   78.6280  221.6800 C   0  0  0  0  0  0  0  0  0  0  0  0
  141.9860   79.8100  221.5470 N   0  0  0  0  0  0  0  0  0  0  0  0
  142.9440   79.7650  222.6870 C   0  0  0  0  0  0  0  0  0  0  0  0
  142.0790   80.1070  223.8700 C   0  0  0  0  0  0  0  0  0  0  0  0
  141.0540   81.0830  223.3430 C   0  0  0  0  0  0  0  0  0  0  0  0
  141.3410   81.0560  221.8650 C   0  0  0  0  0  0  0  0  0  0  0  0
  140.0670   71.2380  223.6190 C   0  0  0  0  0  0  0  0  0  0  0  0
  139.5790   69.9480  223.6100 C   0  0  0  0  0  0  0  0  0  0  0  0
  139.5760   69.2780  224.8270 C   0  0  0  0  0  0  0  0  0  0  0  0
  140.0360   69.8720  225.9860 C   0  0  0  0  0  0  0  0  0  0  0  0
  140.0180   69.1810  227.1710 C   0  0  0  0  0  0  0  0  0  0  0  0
  140.4910   69.8160  228.3080 C   0  0  0  0  0  0  0  0  0  0  0  0
  140.9660   71.1120  228.2410 C   0  0  0  0  0  0  0  0  0  0  0  0
  140.9720   71.7830  227.0380 C   0  0  0  0  0  0  0  0  0  0  0  0
  140.5020   71.1620  225.8840 C   0  0  0  0  0  0  0  0  0  0  0  0
  140.5180   71.8260  224.7390 N   0  0  0  0  0  0  0  0  0  0  0  0
  139.6000   73.8130  223.2920 H   0  0  0  0  0  0  0  0  0  0  0  0
  140.6893   73.9069  220.5073 H   0  0  0  0  0  0  0  0  0  0  0  0
  138.9042   74.0042  220.5481 H   0  0  0  0  0  0  0  0  0  0  0  0
  139.6213   76.0391  218.7907 H   0  0  0  0  0  0  0  0  0  0  0  0
  138.5203   77.0946  219.8185 H   0  0  0  0  0  0  0  0  0  0  0  0
  139.5202   78.0249  217.6690 H   0  0  0  0  0  0  0  0  0  0  0  0
  139.5430   78.9779  219.2542 H   0  0  0  0  0  0  0  0  0  0  0  0
  141.7186   78.0843  217.5385 H   0  0  0  0  0  0  0  0  0  0  0  0
  141.5764   79.4503  218.7204 H   0  0  0  0  0  0  0  0  0  0  0  0
  142.3537   76.6060  219.1319 H   0  0  0  0  0  0  0  0  0  0  0  0
  143.0874   78.2033  219.7207 H   0  0  0  0  0  0  0  0  0  0  0  0
  142.3358   76.9785  221.5301 H   0  0  0  0  0  0  0  0  0  0  0  0
  140.1761   78.8918  221.4125 H   0  0  0  0  0  0  0  0  0  0  0  0
  141.3906   78.3149  222.7189 H   0  0  0  0  0  0  0  0  0  0  0  0
  143.3831   78.7622  222.7951 H   0  0  0  0  0  0  0  0  0  0  0  0
  143.7979   80.4472  222.5628 H   0  0  0  0  0  0  0  0  0  0  0  0
  141.5866   79.2046  224.2614 H   0  0  0  0  0  0  0  0  0  0  0  0
  142.6648   80.5334  224.6977 H   0  0  0  0  0  0  0  0  0  0  0  0
  140.0298   80.7450  223.5591 H   0  0  0  0  0  0  0  0  0  0  0  0
  141.1178   82.0848  223.7927 H   0  0  0  0  0  0  0  0  0  0  0  0
  140.3993   81.1403  221.3027 H   0  0  0  0  0  0  0  0  0  0  0  0
  141.9941   81.8982  221.5929 H   0  0  0  0  0  0  0  0  0  0  0  0
  139.2115   69.4745  222.6876 H   0  0  0  0  0  0  0  0  0  0  0  0
  139.1969   68.2462  224.8687 H   0  0  0  0  0  0  0  0  0  0  0  0
  139.6380   68.1498  227.2173 H   0  0  0  0  0  0  0  0  0  0  0  0
  140.4884   69.2846  229.2711 H   0  0  0  0  0  0  0  0  0  0  0  0
  141.3396   71.6081  229.1489 H   0  0  0  0  0  0  0  0  0  0  0  0
  141.3501   72.8148  226.9889 H   0  0  0  0  0  0  0  0  0  0  0  0
  1  2  2  0
  2  3  1  0
  3  4  1  0
  4  5  1  0
  5  6  2  0
  5  7  1  0
  7  8  1  0
  8  9  1  0
  9 10  1  0
 10 11  1  0
 11 12  1  0
 12 13  1  0
 13 14  1  0
 14 15  1  0
 15 16  1  0
 16 17  1  0
 17 18  1  0
  2 19  1  0
 19 20  2  0
 20 21  1  0
 21 22  2  0
 22 23  1  0
 23 24  2  0
 24 25  1  0
 25 26  2  0
 26 27  1  0
 27 28  2  0
 12  7  1  0
 18 14  1  0
 28 19  1  0
 27 22  1  0
  3 29  1  0
  4 30  1  0
  4 31  1  0
  8 32  1  0
  8 33  1  0
  9 34  1  0
  9 35  1  0
 10 36  1  0
 10 37  1  0
 11 38  1  0
 11 39  1  0
 12 40  1  1
 13 41  1  0
 13 42  1  0
 15 43  1  0
 15 44  1  0
 16 45  1  0
 16 46  1  0
 17 47  1  0
 17 48  1  0
 18 49  1  0
 18 50  1  0
 20 51  1  0
 21 52  1  0
 23 53  1  0
 24 54  1  0
 25 55  1  0
 26 56  1  0
M  END
>  <smiles>  (8) 
O=C(NCC(=O)N1CCCC[C@H]1CN1CCCC1)c1ccc2ccccc2n1

>  <score_type>  (8) 
oracle

>  <origin>  (8) 
autodockgpu

>  <m_score__min__energy>  (8) 
-8.5199999999999996

>  <m_primary>  (8) 
energy

>  <rmsd>  (8) 
1.878103540892172

>  <m_score__min__rmsd>  (8) 
1.878103540892172

>  <meeko>  (8) 
{"free_energy": -8.28, "intermolecular_energy": -10.07, "internal_energy": -2.09, "cluster_size": 41, "cluster_id": 1, "rank_in_cluster": 26}

>  <energy>  (8) 
-8.46

>  <cluster_rmsd>  (8) 
0.47

>  <cluster>  (8) 
1

$$$$

     RDKit          3D

 56 59  0  0  0  0  0  0  0  0999 V2000
  140.4430   71.3230  221.3160 O   0  0  0  0  0  0  0  0  0  0  0  0
  140.1370   71.9100  222.4040 C   0  0  0  0  0  0  0  0  0  0  0  0
  139.8440   73.3070  222.4110 N   0  0  0  0  0  0  0  0  0  0  0  0
  139.8790   74.1150  221.1950 C   0  0  0  0  0  0  0  0  0  0  0  0
  139.8390   75.5430  221.5830 C   0  0  0  0  0  0  0  0  0  0  0  0
  139.3500   75.8420  222.7020 O   0  0  0  0  0  0  0  0  0  0  0  0
  140.3150   76.6070  220.7810 N   0  0  0  0  0  0  0  0  0  0  0  0
  139.8740   76.6600  219.4080 C   0  0  0  0  0  0  0  0  0  0  0  0
  140.2590   77.9000  218.6670 C   0  0  0  0  0  0  0  0  0  0  0  0
  141.6190   78.4350  218.9370 C   0  0  0  0  0  0  0  0  0  0  0  0
  142.1880   77.8760  220.1880 C   0  0  0  0  0  0  0  0  0  0  0  0
  141.2400   77.6340  221.3080 C   0  0  1  0  0  0  0  0  0  0  0  0
  140.4540   78.7580  221.8420 C   0  0  0  0  0  0  0  0  0  0  0  0
  140.5480   79.0810  223.2220 N   0  0  0  0  0  0  0  0  0  0  0  0
  140.3720   80.5600  223.2790 C   0  0  0  0  0  0  0  0  0  0  0  0
  141.6870   81.0770  222.7600 C   0  0  0  0  0  0  0  0  0  0  0  0
  142.7190   80.0810  223.2330 C   0  0  0  0  0  0  0  0  0  0  0  0
  141.8510   79.0020  223.8260 C   0  0  0  0  0  0  0  0  0  0  0  0
  140.0860   71.1450  223.6670 C   0  0  0  0  0  0  0  0  0  0  0  0
  139.5780   69.8630  223.6390 C   0  0  0  0  0  0  0  0  0  0  0  0
  139.5500   69.1810  224.8490 C   0  0  0  0  0  0  0  0  0  0  0  0
  140.0060   69.7560  226.0190 C   0  0  0  0  0  0  0  0  0  0  0  0
  139.9630   69.0530  227.1970 C   0  0  0  0  0  0  0  0  0  0  0  0
  140.4320   69.6690  228.3450 C   0  0  0  0  0  0  0  0  0  0  0  0
  140.9280   70.9580  228.2970 C   0  0  0  0  0  0  0  0  0  0  0  0
  140.9580   71.6410  227.1020 C   0  0  0  0  0  0  0  0  0  0  0  0
  140.4920   71.0390  225.9360 C   0  0  0  0  0  0  0  0  0  0  0  0
  140.5320   71.7150  224.7980 N   0  0  0  0  0  0  0  0  0  0  0  0
  139.6010   73.7180  223.3510 H   0  0  0  0  0  0  0  0  0  0  0  0
  140.8040   73.9072  220.6371 H   0  0  0  0  0  0  0  0  0  0  0  0
  139.0181   73.8726  220.5546 H   0  0  0  0  0  0  0  0  0  0  0  0
  140.3053   75.7981  218.8778 H   0  0  0  0  0  0  0  0  0  0  0  0
  138.7745   76.6494  219.4382 H   0  0  0  0  0  0  0  0  0  0  0  0
  140.1928   77.6812  217.5910 H   0  0  0  0  0  0  0  0  0  0  0  0
  139.5640   78.6775  219.0170 H   0  0  0  0  0  0  0  0  0  0  0  0
  142.2788   78.1732  218.0967 H   0  0  0  0  0  0  0  0  0  0  0  0
  141.5426   79.5263  219.0516 H   0  0  0  0  0  0  0  0  0  0  0  0
  142.6597   76.9142  219.9380 H   0  0  0  0  0  0  0  0  0  0  0  0
  142.8795   78.6471  220.5586 H   0  0  0  0  0  0  0  0  0  0  0  0
  141.8507   77.3624  222.1816 H   0  0  0  0  0  0  0  0  0  0  0  0
  140.7560   79.6551  221.2816 H   0  0  0  0  0  0  0  0  0  0  0  0
  139.4122   78.4254  221.7237 H   0  0  0  0  0  0  0  0  0  0  0  0
  139.5389   80.8841  222.6380 H   0  0  0  0  0  0  0  0  0  0  0  0
  140.1277   80.9293  224.2860 H   0  0  0  0  0  0  0  0  0  0  0  0
  141.6750   81.1275  221.6612 H   0  0  0  0  0  0  0  0  0  0  0  0
  141.9007   82.0935  223.1221 H   0  0  0  0  0  0  0  0  0  0  0  0
  143.3198   79.6974  222.3952 H   0  0  0  0  0  0  0  0  0  0  0  0
  143.4548   80.4993  223.9356 H   0  0  0  0  0  0  0  0  0  0  0  0
  142.2946   78.0159  223.6237 H   0  0  0  0  0  0  0  0  0  0  0  0
  141.7707   79.1386  224.9145 H   0  0  0  0  0  0  0  0  0  0  0  0
  139.2142   69.4047  222.7076 H   0  0  0  0  0  0  0  0  0  0  0  0
  139.1539   68.1552  224.8759 H   0  0  0  0  0  0  0  0  0  0  0  0
  139.5665   68.0274  227.2283 H   0  0  0  0  0  0  0  0  0  0  0  0
  140.4096   69.1282  229.3026 H   0  0  0  0  0  0  0  0  0  0  0  0
  141.2991   71.4386  229.2142 H   0  0  0  0  0  0  0  0  0  0  0  0
  141.3521   72.6674  227.0681 H   0  0  0  0  0  0  0  0  0  0  0  0
  1  2  2  0
  2  3  1  0
  3  4  1  0
  4  5  1  0
  5  6  2  0
  5  7  1  0
  7  8  1  0
  8  9  1  0
  9 10  1  0
 10 11  1  0
 11 12  1  0
 12 13  1  0
 13 14  1  0
 14 15  1  0
 15 16  1  0
 16 17  1  0
 17 18  1  0
  2 19  1  0
 19 20  2  0
 20 21  1  0
 21 22  2  0
 22 23  1  0
 23 24  2  0
 24 25  1  0
 25 26  2  0
 26 27  1  0
 27 28  2  0
 12  7  1  0
 18 14  1  0
 28 19  1  0
 27 22  1  0
  3 29  1  0
  4 30  1  0
  4 31  1  0
  8 32  1  0
  8 33  1  0
  9 34  1  0
  9 35  1  0
 10 36  1  0
 10 37  1  0
 11 38  1  0
 11 39  1  0
 12 40  1  1
 13 41  1  0
 13 42  1  0
 15 43  1  0
 15 44  1  0
 16 45  1  0
 16 46  1  0
 17 47  1  0
 17 48  1  0
 18 49  1  0
 18 50  1  0
 20 51  1  0
 21 52  1  0
 23 53  1  0
 24 54  1  0
 25 55  1  0
 26 56  1  0
M  END
>  <smiles>  (9) 
O=C(NCC(=O)N1CCCC[C@H]1CN1CCCC1)c1ccc2ccccc2n1

>  <score_type>  (9) 
oracle

>  <origin>  (9) 
autodockgpu

>  <m_score__min__energy>  (9) 
-8.5199999999999996

>  <m_primary>  (9) 
energy

>  <rmsd>  (9) 
2.2097340169674156

>  <m_score__min__rmsd>  (9) 
2.2097340169674156

>  <meeko>  (9) 
{"free_energy": -8.44, "intermolecular_energy": -10.23, "internal_energy": -2.11, "cluster_size": 41, "cluster_id": 1, "rank_in_cluster": 12}

>  <energy>  (9) 
-8.46

>  <cluster_rmsd>  (9) 
0.5

>  <cluster>  (9) 
1

$$$$

     RDKit          3D

 56 59  0  0  0  0  0  0  0  0999 V2000
  140.1320   71.3800  221.2620 O   0  0  0  0  0  0  0  0  0  0  0  0
  139.9460   72.0030  222.3570 C   0  0  0  0  0  0  0  0  0  0  0  0
  139.7110   73.4100  222.3540 N   0  0  0  0  0  0  0  0  0  0  0  0
  139.6740   74.1900  221.1200 C   0  0  0  0  0  0  0  0  0  0  0  0
  140.1230   75.5680  221.4250 C   0  0  0  0  0  0  0  0  0  0  0  0
  140.0750   75.9580  222.6200 O   0  0  0  0  0  0  0  0  0  0  0  0
  140.6060   76.4860  220.4650 N   0  0  0  0  0  0  0  0  0  0  0  0
  139.9070   76.5690  219.2050 C   0  0  0  0  0  0  0  0  0  0  0  0
  140.3460   77.6800  218.3080 C   0  0  0  0  0  0  0  0  0  0  0  0
  141.8070   77.9530  218.2620 C   0  0  0  0  0  0  0  0  0  0  0  0
  142.5130   77.3450  219.4180 C   0  0  0  0  0  0  0  0  0  0  0  0
  141.7910   77.3360  220.7170 C   0  0  1  0  0  0  0  0  0  0  0  0
  141.3490   78.6110  221.3050 C   0  0  0  0  0  0  0  0  0  0  0  0
  141.0490   78.6730  222.6920 N   0  0  0  0  0  0  0  0  0  0  0  0
  140.2470   79.9190  222.8530 C   0  0  0  0  0  0  0  0  0  0  0  0
  141.2800   81.0060  222.7200 C   0  0  0  0  0  0  0  0  0  0  0  0
  142.5390   80.4320  223.3260 C   0  0  0  0  0  0  0  0  0  0  0  0
  142.1310   79.0050  223.5810 C   0  0  0  0  0  0  0  0  0  0  0  0
  139.9730   71.2670  223.6380 C   0  0  0  0  0  0  0  0  0  0  0  0
  139.5040   69.9710  223.6630 C   0  0  0  0  0  0  0  0  0  0  0  0
  139.5490   69.3180  224.8880 C   0  0  0  0  0  0  0  0  0  0  0  0
  140.0370   69.9340  226.0240 C   0  0  0  0  0  0  0  0  0  0  0  0
  140.0670   69.2600  227.2180 C   0  0  0  0  0  0  0  0  0  0  0  0
  140.5650   69.9170  228.3300 C   0  0  0  0  0  0  0  0  0  0  0  0
  141.0190   71.2190  228.2300 C   0  0  0  0  0  0  0  0  0  0  0  0
  140.9770   71.8730  227.0200 C   0  0  0  0  0  0  0  0  0  0  0  0
  140.4800   71.2290  225.8890 C   0  0  0  0  0  0  0  0  0  0  0  0
  140.4500   71.8770  224.7350 N   0  0  0  0  0  0  0  0  0  0  0  0
  139.5670   73.8510  223.3020 H   0  0  0  0  0  0  0  0  0  0  0  0
  140.3439   73.7374  220.3741 H   0  0  0  0  0  0  0  0  0  0  0  0
  138.6520   74.2065  220.7135 H   0  0  0  0  0  0  0  0  0  0  0  0
  140.0561   75.6198  218.6696 H   0  0  0  0  0  0  0  0  0  0  0  0
  138.8545   76.7726  219.4517 H   0  0  0  0  0  0  0  0  0  0  0  0
  140.0187   77.4351  217.2868 H   0  0  0  0  0  0  0  0  0  0  0  0
  139.8911   78.5904  218.7254 H   0  0  0  0  0  0  0  0  0  0  0  0
  142.2192   77.5349  217.3318 H   0  0  0  0  0  0  0  0  0  0  0  0
  141.9551   79.0422  218.3024 H   0  0  0  0  0  0  0  0  0  0  0  0
  142.7405   76.3009  219.1569 H   0  0  0  0  0  0  0  0  0  0  0  0
  143.3941   77.9823  219.5837 H   0  0  0  0  0  0  0  0  0  0  0  0
  142.5111   76.9873  221.4719 H   0  0  0  0  0  0  0  0  0  0  0  0
  142.1471   79.3442  221.1168 H   0  0  0  0  0  0  0  0  0  0  0  0
  140.3786   78.7968  220.8214 H   0  0  0  0  0  0  0  0  0  0  0  0
  139.4826   80.0016  222.0663 H   0  0  0  0  0  0  0  0  0  0  0  0
  139.6950   79.9595  223.8036 H   0  0  0  0  0  0  0  0  0  0  0  0
  141.4413   81.2574  221.6613 H   0  0  0  0  0  0  0  0  0  0  0  0
  140.9678   81.9336  223.2222 H   0  0  0  0  0  0  0  0  0  0  0  0
  143.3839   80.4883  222.6239 H   0  0  0  0  0  0  0  0  0  0  0  0
  142.8860   80.9648  224.2237 H   0  0  0  0  0  0  0  0  0  0  0  0
  142.9839   78.3361  223.3933 H   0  0  0  0  0  0  0  0  0  0  0  0
  141.8096   78.8862  224.6263 H   0  0  0  0  0  0  0  0  0  0  0  0
  139.1142   69.4794  222.7594 H   0  0  0  0  0  0  0  0  0  0  0  0
  139.1860   68.2818  224.9554 H   0  0  0  0  0  0  0  0  0  0  0  0
  139.7046   68.2239  227.2902 H   0  0  0  0  0  0  0  0  0  0  0  0
  140.5998   69.3995  229.3000 H   0  0  0  0  0  0  0  0  0  0  0  0
  141.4143   71.7328  229.1187 H   0  0  0  0  0  0  0  0  0  0  0  0
  141.3377   72.9095  226.9454 H   0  0  0  0  0  0  0  0  0  0  0  0
  1  2  2  0
  2  3  1  0
  3  4  1  0
  4  5  1  0
  5  6  2  0
  5  7  1  0
  7  8  1  0
  8  9  1  0
  9 10  1  0
 10 11  1  0
 11 12  1  0
 12 13  1  0
 13 14  1  0
 14 15  1  0
 15 16  1  0
 16 17  1  0
 17 18  1  0
  2 19  1  0
 19 20  2  0
 20 21  1  0
 21 22  2  0
 22 23  1  0
 23 24  2  0
 24 25  1  0
 25 26  2  0
 26 27  1  0
 27 28  2  0
 12  7  1  0
 18 14  1  0
 28 19  1  0
 27 22  1  0
  3 29  1  0
  4 30  1  0
  4 31  1  0
  8 32  1  0
  8 33  1  0
  9 34  1  0
  9 35  1  0
 10 36  1  0
 10 37  1  0
 11 38  1  0
 11 39  1  0
 12 40  1  1
 13 41  1  0
 13 42  1  0
 15 43  1  0
 15 44  1  0
 16 45  1  0
 16 46  1  0
 17 47  1  0
 17 48  1  0
 18 49  1  0
 18 50  1  0
 20 51  1  0
 21 52  1  0
 23 53  1  0
 24 54  1  0
 25 55  1  0
 26 56  1  0
M  END
>  <smiles>  (10) 
O=C(NCC(=O)N1CCCC[C@H]1CN1CCCC1)c1ccc2ccccc2n1

>  <score_type>  (10) 
oracle

>  <origin>  (10) 
autodockgpu

>  <m_score__min__energy>  (10) 
-8.5199999999999996

>  <m_primary>  (10) 
energy

>  <rmsd>  (10) 
2.039510358474168

>  <m_score__min__rmsd>  (10) 
2.039510358474168

>  <meeko>  (10) 
{"free_energy": -8.38, "intermolecular_energy": -10.17, "internal_energy": -2.1, "cluster_size": 41, "cluster_id": 1, "rank_in_cluster": 19}

>  <energy>  (10) 
-8.45

>  <cluster_rmsd>  (10) 
0.61

>  <cluster>  (10) 
1

$$$$

     RDKit          3D

 56 59  0  0  0  0  0  0  0  0999 V2000
  141.3420   71.8680  221.5840 O   0  0  0  0  0  0  0  0  0  0  0  0
  140.5140   72.2520  222.4730 C   0  0  0  0  0  0  0  0  0  0  0  0
  139.8060   73.4800  222.3150 N   0  0  0  0  0  0  0  0  0  0  0  0
  139.9920   74.3410  221.1510 C   0  0  0  0  0  0  0  0  0  0  0  0
  139.8340   75.7490  221.5820 C   0  0  0  0  0  0  0  0  0  0  0  0
  139.3880   75.9720  222.7360 O   0  0  0  0  0  0  0  0  0  0  0  0
  140.1520   76.8740  220.7850 N   0  0  0  0  0  0  0  0  0  0  0  0
  139.5470   76.9610  219.4770 C   0  0  0  0  0  0  0  0  0  0  0  0
  139.7720   78.2520  218.7600 C   0  0  0  0  0  0  0  0  0  0  0  0
  141.1240   78.8560  218.8950 C   0  0  0  0  0  0  0  0  0  0  0  0
  141.8690   78.2770  220.0410 C   0  0  0  0  0  0  0  0  0  0  0  0
  141.0770   77.9300  221.2510 C   0  0  1  0  0  0  0  0  0  0  0  0
  140.3010   78.9810  221.9300 C   0  0  0  0  0  0  0  0  0  0  0  0
  140.5170   79.2240  223.3120 N   0  0  0  0  0  0  0  0  0  0  0  0
  140.4530   80.7060  223.4520 C   0  0  0  0  0  0  0  0  0  0  0  0
  141.7610   81.1590  222.8600 C   0  0  0  0  0  0  0  0  0  0  0  0
  142.7500   80.0710  223.2060 C   0  0  0  0  0  0  0  0  0  0  0  0
  141.8510   79.0250  223.8110 C   0  0  0  0  0  0  0  0  0  0  0  0
  140.2840   71.4230  223.6740 C   0  0  0  0  0  0  0  0  0  0  0  0
  139.6170   70.2250  223.5290 C   0  0  0  0  0  0  0  0  0  0  0  0
  139.4240   69.4780  224.6850 C   0  0  0  0  0  0  0  0  0  0  0  0
  139.8760   69.9130  225.9160 C   0  0  0  0  0  0  0  0  0  0  0  0
  139.6680   69.1500  227.0370 C   0  0  0  0  0  0  0  0  0  0  0  0
  140.1390   69.6250  228.2490 C   0  0  0  0  0  0  0  0  0  0  0  0
  140.8000   70.8370  228.3190 C   0  0  0  0  0  0  0  0  0  0  0  0
  140.9940   71.5830  227.1780 C   0  0  0  0  0  0  0  0  0  0  0  0
  140.5290   71.1220  225.9490 C   0  0  0  0  0  0  0  0  0  0  0  0
  140.7280   71.8560  224.8650 N   0  0  0  0  0  0  0  0  0  0  0  0
  139.1400   73.7270  223.0950 H   0  0  0  0  0  0  0  0  0  0  0  0
  140.9990   74.1906  220.7346 H   0  0  0  0  0  0  0  0  0  0  0  0
  139.2494   74.0967  220.3772 H   0  0  0  0  0  0  0  0  0  0  0  0
  139.9577   76.1506  218.8569 H   0  0  0  0  0  0  0  0  0  0  0  0
  138.4613   76.8836  219.6356 H   0  0  0  0  0  0  0  0  0  0  0  0
  139.5891   78.0767  217.6896 H   0  0  0  0  0  0  0  0  0  0  0  0
  139.0829   78.9703  219.2281 H   0  0  0  0  0  0  0  0  0  0  0  0
  141.6912   78.6718  217.9707 H   0  0  0  0  0  0  0  0  0  0  0  0
  141.0028   79.9347  219.0730 H   0  0  0  0  0  0  0  0  0  0  0  0
  142.3583   77.3569  219.6887 H   0  0  0  0  0  0  0  0  0  0  0  0
  142.5576   79.0707  220.3664 H   0  0  0  0  0  0  0  0  0  0  0  0
  141.8021   77.6572  222.0319 H   0  0  0  0  0  0  0  0  0  0  0  0
  140.5085   79.9238  221.4026 H   0  0  0  0  0  0  0  0  0  0  0  0
  139.2674   78.6066  221.8909 H   0  0  0  0  0  0  0  0  0  0  0  0
  139.6013   81.1196  222.8920 H   0  0  0  0  0  0  0  0  0  0  0  0
  140.3096   81.0374  224.4910 H   0  0  0  0  0  0  0  0  0  0  0  0
  141.6734   81.2680  221.7689 H   0  0  0  0  0  0  0  0  0  0  0  0
  142.0728   82.1381  223.2525 H   0  0  0  0  0  0  0  0  0  0  0  0
  143.2596   79.6915  222.3080 H   0  0  0  0  0  0  0  0  0  0  0  0
  143.5630   80.4002  223.8698 H   0  0  0  0  0  0  0  0  0  0  0  0
  142.2065   78.0228  223.5296 H   0  0  0  0  0  0  0  0  0  0  0  0
  141.8592   79.1104  224.9077 H   0  0  0  0  0  0  0  0  0  0  0  0
  139.2564   69.8785  222.5493 H   0  0  0  0  0  0  0  0  0  0  0  0
  138.8973   68.5146  224.6181 H   0  0  0  0  0  0  0  0  0  0  0  0
  139.1410   68.1865  226.9745 H   0  0  0  0  0  0  0  0  0  0  0  0
  139.9861   69.0333  229.1636 H   0  0  0  0  0  0  0  0  0  0  0  0
  141.1712   71.2057  229.2866 H   0  0  0  0  0  0  0  0  0  0  0  0
  141.5189   72.5479  227.2376 H   0  0  0  0  0  0  0  0  0  0  0  0
  1  2  2  0
  2  3  1  0
  3  4  1  0
  4  5  1  0
  5  6  2  0
  5  7  1  0
  7  8  1  0
  8  9  1  0
  9 10  1  0
 10 11  1  0
 11 12  1  0
 12 13  1  0
 13 14  1  0
 14 15  1  0
 15 16  1  0
 16 17  1  0
 17 18  1  0
  2 19  1  0
 19 20  2  0
 20 21  1  0
 21 22  2  0
 22 23  1  0
 23 24  2  0
 24 25  1  0
 25 26  2  0
 26 27  1  0
 27 28  2  0
 12  7  1  0
 18 14  1  0
 28 19  1  0
 27 22  1  0
  3 29  1  0
  4 30  1  0
  4 31  1  0
  8 32  1  0
  8 33  1  0
  9 34  1  0
  9 35  1  0
 10 36  1  0
 10 37  1  0
 11 38  1  0
 11 39  1  0
 12 40  1  1
 13 41  1  0
 13 42  1  0
 15 43  1  0
 15 44  1  0
 16 45  1  0
 16 46  1  0
 17 47  1  0
 17 48  1  0
 18 49  1  0
 18 50  1  0
 20 51  1  0
 21 52  1  0
 23 53  1  0
 24 54  1  0
 25 55  1  0
 26 56  1  0
M  END
>  <smiles>  (11) 
O=C(NCC(=O)N1CCCC[C@H]1CN1CCCC1)c1ccc2ccccc2n1

>  <score_type>  (11) 
oracle

>  <origin>  (11) 
autodockgpu

>  <m_score__min__energy>  (11) 
-8.5199999999999996

>  <m_primary>  (11) 
energy

>  <rmsd>  (11) 
2.31424526544116

>  <m_score__min__rmsd>  (11) 
2.31424526544116

>  <meeko>  (11) 
{"free_energy": -8.51, "intermolecular_energy": -10.3, "internal_energy": -1.92, "cluster_size": 41, "cluster_id": 1, "rank_in_cluster": 3}

>  <energy>  (11) 
-8.44

>  <cluster_rmsd>  (11) 
0.34

>  <cluster>  (11) 
1

$$$$

     RDKit          3D

 56 59  0  0  0  0  0  0  0  0999 V2000
  141.3080   72.1960  221.7330 O   0  0  0  0  0  0  0  0  0  0  0  0
  140.3460   72.3730  222.5500 C   0  0  0  0  0  0  0  0  0  0  0  0
  139.4060   73.4250  222.3380 N   0  0  0  0  0  0  0  0  0  0  0  0
  139.4980   74.3330  221.1990 C   0  0  0  0  0  0  0  0  0  0  0  0
  140.5830   75.3060  221.4640 C   0  0  0  0  0  0  0  0  0  0  0  0
  141.7600   74.8740  221.5560 O   0  0  0  0  0  0  0  0  0  0  0  0
  140.3920   76.6990  221.6220 N   0  0  0  0  0  0  0  0  0  0  0  0
  141.0540   77.3440  222.7310 C   0  0  0  0  0  0  0  0  0  0  0  0
  140.9670   78.8350  222.7390 C   0  0  0  0  0  0  0  0  0  0  0  0
  139.6660   79.4230  222.3240 C   0  0  0  0  0  0  0  0  0  0  0  0
  138.8300   78.4390  221.5920 C   0  0  0  0  0  0  0  0  0  0  0  0
  139.5420   77.4840  220.7010 C   0  0  1  0  0  0  0  0  0  0  0  0
  140.3750   78.0050  219.6060 C   0  0  0  0  0  0  0  0  0  0  0  0
  141.7670   78.1930  219.8180 N   0  0  0  0  0  0  0  0  0  0  0  0
  142.1580   79.2600  218.8540 C   0  0  0  0  0  0  0  0  0  0  0  0
  142.1500   78.5410  217.5320 C   0  0  0  0  0  0  0  0  0  0  0  0
  142.6000   77.1340  217.8430 C   0  0  0  0  0  0  0  0  0  0  0  0
  142.6460   77.1560  219.3490 C   0  0  0  0  0  0  0  0  0  0  0  0
  140.2010   71.4860  223.7230 C   0  0  0  0  0  0  0  0  0  0  0  0
  139.5670   70.2730  223.5560 C   0  0  0  0  0  0  0  0  0  0  0  0
  139.4530   69.4720  224.6850 C   0  0  0  0  0  0  0  0  0  0  0  0
  139.9490   69.8690  225.9120 C   0  0  0  0  0  0  0  0  0  0  0  0
  139.8200   69.0520  227.0060 C   0  0  0  0  0  0  0  0  0  0  0  0
  140.3330   69.4900  228.2150 C   0  0  0  0  0  0  0  0  0  0  0  0
  140.9580   70.7200  228.3080 C   0  0  0  0  0  0  0  0  0  0  0  0
  141.0730   71.5200  227.1940 C   0  0  0  0  0  0  0  0  0  0  0  0
  140.5640   71.0970  225.9680 C   0  0  0  0  0  0  0  0  0  0  0  0
  140.6870   71.8830  224.9100 N   0  0  0  0  0  0  0  0  0  0  0  0
  138.6400   73.5060  223.0600 H   0  0  0  0  0  0  0  0  0  0  0  0
  139.7252   73.7625  220.2864 H   0  0  0  0  0  0  0  0  0  0  0  0
  138.5431   74.8605  221.0577 H   0  0  0  0  0  0  0  0  0  0  0  0
  140.6017   76.9710  223.6618 H   0  0  0  0  0  0  0  0  0  0  0  0
  142.1222   77.0995  222.6351 H   0  0  0  0  0  0  0  0  0  0  0  0
  141.1776   79.1771  223.7630 H   0  0  0  0  0  0  0  0  0  0  0  0
  141.6945   79.1744  221.9870 H   0  0  0  0  0  0  0  0  0  0  0  0
  139.1226   79.7560  223.2206 H   0  0  0  0  0  0  0  0  0  0  0  0
  139.8700   80.2690  221.6512 H   0  0  0  0  0  0  0  0  0  0  0  0
  138.2793   77.8491  222.3395 H   0  0  0  0  0  0  0  0  0  0  0  0
  138.1981   79.0406  220.9221 H   0  0  0  0  0  0  0  0  0  0  0  0
  138.7667   76.9394  220.1422 H   0  0  0  0  0  0  0  0  0  0  0  0
  140.2707   77.3057  218.7633 H   0  0  0  0  0  0  0  0  0  0  0  0
  139.9953   79.0262  219.4542 H   0  0  0  0  0  0  0  0  0  0  0  0
  141.4299   80.0845  218.8601 H   0  0  0  0  0  0  0  0  0  0  0  0
  143.1274   79.7233  219.0897 H   0  0  0  0  0  0  0  0  0  0  0  0
  141.1375   78.5358  217.1020 H   0  0  0  0  0  0  0  0  0  0  0  0
  142.8054   79.0285  216.7953 H   0  0  0  0  0  0  0  0  0  0  0  0
  141.8776   76.3909  217.4744 H   0  0  0  0  0  0  0  0  0  0  0  0
  143.5532   76.8545  217.3704 H   0  0  0  0  0  0  0  0  0  0  0  0
  142.3167   76.1837  219.7444 H   0  0  0  0  0  0  0  0  0  0  0  0
  143.6732   77.3496  219.6916 H   0  0  0  0  0  0  0  0  0  0  0  0
  139.1720   69.9562  222.5795 H   0  0  0  0  0  0  0  0  0  0  0  0
  138.9544   68.4952  224.6000 H   0  0  0  0  0  0  0  0  0  0  0  0
  139.3221   68.0745  226.9250 H   0  0  0  0  0  0  0  0  0  0  0  0
  140.2427   68.8547  229.1084 H   0  0  0  0  0  0  0  0  0  0  0  0
  141.3634   71.0592  229.2727 H   0  0  0  0  0  0  0  0  0  0  0  0
  141.5694   72.4985  227.2720 H   0  0  0  0  0  0  0  0  0  0  0  0
  1  2  2  0
  2  3  1  0
  3  4  1  0
  4  5  1  0
  5  6  2  0
  5  7  1  0
  7  8  1  0
  8  9  1  0
  9 10  1  0
 10 11  1  0
 11 12  1  0
 12 13  1  0
 13 14  1  0
 14 15  1  0
 15 16  1  0
 16 17  1  0
 17 18  1  0
  2 19  1  0
 19 20  2  0
 20 21  1  0
 21 22  2  0
 22 23  1  0
 23 24  2  0
 24 25  1  0
 25 26  2  0
 26 27  1  0
 27 28  2  0
 12  7  1  0
 18 14  1  0
 28 19  1  0
 27 22  1  0
  3 29  1  0
  4 30  1  0
  4 31  1  0
  8 32  1  0
  8 33  1  0
  9 34  1  0
  9 35  1  0
 10 36  1  0
 10 37  1  0
 11 38  1  0
 11 39  1  0
 12 40  1  6
 13 41  1  0
 13 42  1  0
 15 43  1  0
 15 44  1  0
 16 45  1  0
 16 46  1  0
 17 47  1  0
 17 48  1  0
 18 49  1  0
 18 50  1  0
 20 51  1  0
 21 52  1  0
 23 53  1  0
 24 54  1  0
 25 55  1  0
 26 56  1  0
M  END
>  <smiles>  (12) 
O=C(NCC(=O)N1CCCC[C@H]1CN1CCCC1)c1ccc2ccccc2n1

>  <score_type>  (12) 
oracle

>  <origin>  (12) 
autodockgpu

>  <m_score__min__energy>  (12) 
-8.5199999999999996

>  <m_primary>  (12) 
energy

>  <rmsd>  (12) 
3.5131687099076556

>  <m_score__min__rmsd>  (12) 
3.5131687099076556

>  <meeko>  (12) 
{"free_energy": -7.73, "intermolecular_energy": -9.52, "internal_energy": -1.59, "cluster_size": 41, "cluster_id": 1, "rank_in_cluster": 39}

>  <energy>  (12) 
-8.44

>  <cluster_rmsd>  (12) 
0.51

>  <cluster>  (12) 
1

$$$$

     RDKit          3D

 56 59  0  0  0  0  0  0  0  0999 V2000
  137.2730   76.5620  222.0380 O   0  0  0  0  0  0  0  0  0  0  0  0
  138.5100   76.5440  222.3420 C   0  0  0  0  0  0  0  0  0  0  0  0
  139.2410   75.3190  222.3140 N   0  0  0  0  0  0  0  0  0  0  0  0
  138.6200   74.0510  221.9420 C   0  0  0  0  0  0  0  0  0  0  0  0
  139.5610   72.9570  222.2720 C   0  0  0  0  0  0  0  0  0  0  0  0
  140.7700   73.2480  222.4600 O   0  0  0  0  0  0  0  0  0  0  0  0
  139.1990   71.5950  222.3940 N   0  0  0  0  0  0  0  0  0  0  0  0
  139.8690   70.6440  221.5390 C   0  0  0  0  0  0  0  0  0  0  0  0
  139.5810   69.2090  221.8390 C   0  0  0  0  0  0  0  0  0  0  0  0
  138.1790   68.8800  222.2080 C   0  0  0  0  0  0  0  0  0  0  0  0
  137.4190   70.0920  222.6030 C   0  0  0  0  0  0  0  0  0  0  0  0
  138.1660   71.1400  223.3500 C   0  0  1  0  0  0  0  0  0  0  0  0
  138.8130   70.7930  224.6250 C   0  0  0  0  0  0  0  0  0  0  0  0
  140.2080   70.5260  224.6500 N   0  0  0  0  0  0  0  0  0  0  0  0
  140.3540   69.3450  225.5450 C   0  0  0  0  0  0  0  0  0  0  0  0
  140.1360   69.9290  226.9150 C   0  0  0  0  0  0  0  0  0  0  0  0
  140.7110   71.3250  226.8460 C   0  0  0  0  0  0  0  0  0  0  0  0
  141.0370   71.4470  225.3810 C   0  0  0  0  0  0  0  0  0  0  0  0
  139.1930   77.7960  222.7280 C   0  0  0  0  0  0  0  0  0  0  0  0
  138.4230   78.8740  223.1110 C   0  0  0  0  0  0  0  0  0  0  0  0
  139.1070   80.0300  223.4650 C   0  0  0  0  0  0  0  0  0  0  0  0
  140.4870   80.0980  223.4350 C   0  0  0  0  0  0  0  0  0  0  0  0
  141.1300   81.2560  223.7920 C   0  0  0  0  0  0  0  0  0  0  0  0
  142.5140   81.2770  223.7470 C   0  0  0  0  0  0  0  0  0  0  0  0
  143.2200   80.1570  223.3530 C   0  0  0  0  0  0  0  0  0  0  0  0
  142.5490   79.0080  222.9990 C   0  0  0  0  0  0  0  0  0  0  0  0
  141.1580   78.9660  223.0380 C   0  0  0  0  0  0  0  0  0  0  0  0
  140.5340   77.8500  222.6940 N   0  0  0  0  0  0  0  0  0  0  0  0
  140.2600   75.3890  222.5800 H   0  0  0  0  0  0  0  0  0  0  0  0
  137.6831   73.9173  222.5027 H   0  0  0  0  0  0  0  0  0  0  0  0
  138.3919   74.0425  220.8659 H   0  0  0  0  0  0  0  0  0  0  0  0
  139.5624   70.8434  220.5016 H   0  0  0  0  0  0  0  0  0  0  0  0
  140.9464   70.7827  221.7118 H   0  0  0  0  0  0  0  0  0  0  0  0
  139.8385   68.6219  220.9452 H   0  0  0  0  0  0  0  0  0  0  0  0
  140.1815   68.9700  222.7291 H   0  0  0  0  0  0  0  0  0  0  0  0
  137.6828   68.4132  221.3443 H   0  0  0  0  0  0  0  0  0  0  0  0
  138.2015   68.1931  223.0668 H   0  0  0  0  0  0  0  0  0  0  0  0
  137.0280   70.5535  221.6842 H   0  0  0  0  0  0  0  0  0  0  0  0
  136.6499   69.7334  223.3029 H   0  0  0  0  0  0  0  0  0  0  0  0
  137.4218   71.8800  223.6796 H   0  0  0  0  0  0  0  0  0  0  0  0
  138.6352   71.6325  225.3132 H   0  0  0  0  0  0  0  0  0  0  0  0
  138.3595   69.8268  224.8911 H   0  0  0  0  0  0  0  0  0  0  0  0
  139.5974   68.5799  225.3165 H   0  0  0  0  0  0  0  0  0  0  0  0
  141.3247   68.8385  225.4393 H   0  0  0  0  0  0  0  0  0  0  0  0
  139.0626   69.9651  227.1527 H   0  0  0  0  0  0  0  0  0  0  0  0
  140.6143   69.3254  227.7004 H   0  0  0  0  0  0  0  0  0  0  0  0
  139.9727   72.0789  227.1569 H   0  0  0  0  0  0  0  0  0  0  0  0
  141.5722   71.4872  227.5108 H   0  0  0  0  0  0  0  0  0  0  0  0
  140.8390   72.4743  225.0412 H   0  0  0  0  0  0  0  0  0  0  0  0
  142.0987   71.2148  225.2108 H   0  0  0  0  0  0  0  0  0  0  0  0
  137.3245   78.8212  223.1349 H   0  0  0  0  0  0  0  0  0  0  0  0
  138.5345   80.9157  223.7778 H   0  0  0  0  0  0  0  0  0  0  0  0
  140.5616   82.1440  224.1056 H   0  0  0  0  0  0  0  0  0  0  0  0
  143.0553   82.1927  224.0272 H   0  0  0  0  0  0  0  0  0  0  0  0
  144.3193   80.1831  223.3220 H   0  0  0  0  0  0  0  0  0  0  0  0
  143.1148   78.1189  222.6838 H   0  0  0  0  0  0  0  0  0  0  0  0
  1  2  2  0
  2  3  1  0
  3  4  1  0
  4  5  1  0
  5  6  2  0
  5  7  1  0
  7  8  1  0
  8  9  1  0
  9 10  1  0
 10 11  1  0
 11 12  1  0
 12 13  1  0
 13 14  1  0
 14 15  1  0
 15 16  1  0
 16 17  1  0
 17 18  1  0
  2 19  1  0
 19 20  2  0
 20 21  1  0
 21 22  2  0
 22 23  1  0
 23 24  2  0
 24 25  1  0
 25 26  2  0
 26 27  1  0
 27 28  2  0
 12  7  1  0
 18 14  1  0
 28 19  1  0
 27 22  1  0
  3 29  1  0
  4 30  1  0
  4 31  1  0
  8 32  1  0
  8 33  1  0
  9 34  1  0
  9 35  1  0
 10 36  1  0
 10 37  1  0
 11 38  1  0
 11 39  1  0
 12 40  1  1
 13 41  1  0
 13 42  1  0
 15 43  1  0
 15 44  1  0
 16 45  1  0
 16 46  1  0
 17 47  1  0
 17 48  1  0
 18 49  1  0
 18 50  1  0
 20 51  1  0
 21 52  1  0
 23 53  1  0
 24 54  1  0
 25 55  1  0
 26 56  1  0
M  END
>  <smiles>  (13) 
O=C(NCC(=O)N1CCCC[C@H]1CN1CCCC1)c1ccc2ccccc2n1

>  <score_type>  (13) 
oracle

>  <origin>  (13) 
autodockgpu

>  <m_score__min__energy>  (13) 
-8.5199999999999996

>  <m_primary>  (13) 
energy

>  <rmsd>  (13) 
8.915410467400157

>  <m_score__min__rmsd>  (13) 
8.915410467400157

>  <meeko>  (13) 
{"free_energy": -7.38, "intermolecular_energy": -9.17, "internal_energy": -2.43, "cluster_size": 2, "cluster_id": 3, "rank_in_cluster": 2}

>  <energy>  (13) 
-8.44

>  <cluster_rmsd>  (13) 
0.45

>  <cluster>  (13) 
1

$$$$

     RDKit          3D

 56 59  0  0  0  0  0  0  0  0999 V2000
  139.5090   71.2330  221.2770 O   0  0  0  0  0  0  0  0  0  0  0  0
  139.6730   71.8850  222.3600 C   0  0  0  0  0  0  0  0  0  0  0  0
  139.7660   73.3080  222.3350 N   0  0  0  0  0  0  0  0  0  0  0  0
  139.6820   74.0720  221.0930 C   0  0  0  0  0  0  0  0  0  0  0  0
  140.5350   75.2750  221.2270 C   0  0  0  0  0  0  0  0  0  0  0  0
  141.0790   75.4990  222.3390 O   0  0  0  0  0  0  0  0  0  0  0  0
  140.7870   76.2010  220.1880 N   0  0  0  0  0  0  0  0  0  0  0  0
  139.7790   76.3510  219.1660 C   0  0  0  0  0  0  0  0  0  0  0  0
  140.0150   77.4690  218.2030 C   0  0  0  0  0  0  0  0  0  0  0  0
  141.4210   77.6810  217.7690 C   0  0  0  0  0  0  0  0  0  0  0  0
  142.3810   77.0090  218.6790 C   0  0  0  0  0  0  0  0  0  0  0  0
  142.0360   76.9910  220.1260 C   0  0  1  0  0  0  0  0  0  0  0  0
  141.8320   78.2660  220.8330 C   0  0  0  0  0  0  0  0  0  0  0  0
  140.9110   78.3250  221.9130 N   0  0  0  0  0  0  0  0  0  0  0  0
  140.3870   79.7200  221.8900 C   0  0  0  0  0  0  0  0  0  0  0  0
  141.5380   80.5220  222.4350 C   0  0  0  0  0  0  0  0  0  0  0  0
  142.2040   79.6220  223.4490 C   0  0  0  0  0  0  0  0  0  0  0  0
  141.4600   78.3290  223.2420 C   0  0  0  0  0  0  0  0  0  0  0  0
  139.7660   71.1670  223.6470 C   0  0  0  0  0  0  0  0  0  0  0  0
  139.3140   69.8650  223.7090 C   0  0  0  0  0  0  0  0  0  0  0  0
  139.4220   69.2290  224.9390 C   0  0  0  0  0  0  0  0  0  0  0  0
  139.9540   69.8650  226.0430 C   0  0  0  0  0  0  0  0  0  0  0  0
  140.0450   69.2070  227.2430 C   0  0  0  0  0  0  0  0  0  0  0  0
  140.5850   69.8840  228.3230 C   0  0  0  0  0  0  0  0  0  0  0  0
  141.0180   71.1900  228.1870 C   0  0  0  0  0  0  0  0  0  0  0  0
  140.9140   71.8270  226.9720 C   0  0  0  0  0  0  0  0  0  0  0  0
  140.3740   71.1630  225.8730 C   0  0  0  0  0  0  0  0  0  0  0  0
  140.2840   71.7960  224.7140 N   0  0  0  0  0  0  0  0  0  0  0  0
  139.9020   73.7730  223.2720 H   0  0  0  0  0  0  0  0  0  0  0  0
  140.0368   73.4564  220.2532 H   0  0  0  0  0  0  0  0  0  0  0  0
  138.6400   74.3666  220.8996 H   0  0  0  0  0  0  0  0  0  0  0  0
  139.7313   75.4127  218.5939 H   0  0  0  0  0  0  0  0  0  0  0  0
  138.8430   76.5914  219.6915 H   0  0  0  0  0  0  0  0  0  0  0  0
  139.4136   77.2690  217.3039 H   0  0  0  0  0  0  0  0  0  0  0  0
  139.7345   78.3849  218.7437 H   0  0  0  0  0  0  0  0  0  0  0  0
  141.5465   77.2746  216.7546 H   0  0  0  0  0  0  0  0  0  0  0  0
  141.6276   78.7612  217.7880 H   0  0  0  0  0  0  0  0  0  0  0  0
  142.4781   75.9647  218.3474 H   0  0  0  0  0  0  0  0  0  0  0  0
  143.3044   77.6029  218.6114 H   0  0  0  0  0  0  0  0  0  0  0  0
  142.9140   76.5887  220.6526 H   0  0  0  0  0  0  0  0  0  0  0  0
  142.8111   78.5726  221.2297 H   0  0  0  0  0  0  0  0  0  0  0  0
  141.3790   78.9161  220.0700 H   0  0  0  0  0  0  0  0  0  0  0  0
  140.1377   80.0320  220.8651 H   0  0  0  0  0  0  0  0  0  0  0  0
  139.4593   79.8446  222.4678 H   0  0  0  0  0  0  0  0  0  0  0  0
  142.2412   80.7831  221.6304 H   0  0  0  0  0  0  0  0  0  0  0  0
  141.2029   81.4689  222.8835 H   0  0  0  0  0  0  0  0  0  0  0  0
  143.2774   79.5055  223.2385 H   0  0  0  0  0  0  0  0  0  0  0  0
  142.1618   80.0021  224.4804 H   0  0  0  0  0  0  0  0  0  0  0  0
  142.1503   77.4808  223.3606 H   0  0  0  0  0  0  0  0  0  0  0  0
  140.6525   78.2366  223.9832 H   0  0  0  0  0  0  0  0  0  0  0  0
  138.8902   69.3571  222.8301 H   0  0  0  0  0  0  0  0  0  0  0  0
  139.0741   68.1900  225.0363 H   0  0  0  0  0  0  0  0  0  0  0  0
  139.6979   68.1682  227.3446 H   0  0  0  0  0  0  0  0  0  0  0  0
  140.6702   69.3792  229.2966 H   0  0  0  0  0  0  0  0  0  0  0  0
  141.4459   71.7200  229.0507 H   0  0  0  0  0  0  0  0  0  0  0  0
  141.2591   72.8663  226.8679 H   0  0  0  0  0  0  0  0  0  0  0  0
  1  2  2  0
  2  3  1  0
  3  4  1  0
  4  5  1  0
  5  6  2  0
  5  7  1  0
  7  8  1  0
  8  9  1  0
  9 10  1  0
 10 11  1  0
 11 12  1  0
 12 13  1  0
 13 14  1  0
 14 15  1  0
 15 16  1  0
 16 17  1  0
 17 18  1  0
  2 19  1  0
 19 20  2  0
 20 21  1  0
 21 22  2  0
 22 23  1  0
 23 24  2  0
 24 25  1  0
 25 26  2  0
 26 27  1  0
 27 28  2  0
 12  7  1  0
 18 14  1  0
 28 19  1  0
 27 22  1  0
  3 29  1  0
  4 30  1  0
  4 31  1  0
  8 32  1  0
  8 33  1  0
  9 34  1  0
  9 35  1  0
 10 36  1  0
 10 37  1  0
 11 38  1  0
 11 39  1  0
 12 40  1  1
 13 41  1  0
 13 42  1  0
 15 43  1  0
 15 44  1  0
 16 45  1  0
 16 46  1  0
 17 47  1  0
 17 48  1  0
 18 49  1  0
 18 50  1  0
 20 51  1  0
 21 52  1  0
 23 53  1  0
 24 54  1  0
 25 55  1  0
 26 56  1  0
M  END
>  <smiles>  (14) 
O=C(NCC(=O)N1CCCC[C@H]1CN1CCCC1)c1ccc2ccccc2n1

>  <score_type>  (14) 
oracle

>  <origin>  (14) 
autodockgpu

>  <m_score__min__energy>  (14) 
-8.5199999999999996

>  <m_primary>  (14) 
energy

>  <rmsd>  (14) 
2.011580304236258

>  <m_score__min__rmsd>  (14) 
2.011580304236258

>  <meeko>  (14) 
{"free_energy": -7.8, "intermolecular_energy": -9.59, "internal_energy": -2.27, "cluster_size": 41, "cluster_id": 1, "rank_in_cluster": 38}

>  <energy>  (14) 
-8.43

>  <cluster_rmsd>  (14) 
0.27

>  <cluster>  (14) 
1

$$$$

     RDKit          3D

 56 59  0  0  0  0  0  0  0  0999 V2000
  140.0490   71.3030  221.2480 O   0  0  0  0  0  0  0  0  0  0  0  0
  139.9070   71.9300  222.3480 C   0  0  0  0  0  0  0  0  0  0  0  0
  139.6910   73.3400  222.3500 N   0  0  0  0  0  0  0  0  0  0  0  0
  139.6240   74.1190  221.1160 C   0  0  0  0  0  0  0  0  0  0  0  0
  139.9260   75.5320  221.4400 C   0  0  0  0  0  0  0  0  0  0  0  0
  139.7180   75.9310  222.6140 O   0  0  0  0  0  0  0  0  0  0  0  0
  140.4360   76.4760  220.5180 N   0  0  0  0  0  0  0  0  0  0  0  0
  139.7970   76.5640  219.2260 C   0  0  0  0  0  0  0  0  0  0  0  0
  140.2560   77.6980  218.3690 C   0  0  0  0  0  0  0  0  0  0  0  0
  141.7100   78.0020  218.3990 C   0  0  0  0  0  0  0  0  0  0  0  0
  142.3720   77.3900  219.5780 C   0  0  0  0  0  0  0  0  0  0  0  0
  141.5880   77.3460  220.8410 C   0  0  1  0  0  0  0  0  0  0  0  0
  141.0910   78.6020  221.4250 C   0  0  0  0  0  0  0  0  0  0  0  0
  141.9600   79.7220  221.5140 N   0  0  0  0  0  0  0  0  0  0  0  0
  142.8060   79.4530  222.7100 C   0  0  0  0  0  0  0  0  0  0  0  0
  141.8650   79.7130  223.8560 C   0  0  0  0  0  0  0  0  0  0  0  0
  140.9640   80.8300  223.3840 C   0  0  0  0  0  0  0  0  0  0  0  0
  141.3810   80.9670  221.9430 C   0  0  0  0  0  0  0  0  0  0  0  0
  139.9670   71.1960  223.6280 C   0  0  0  0  0  0  0  0  0  0  0  0
  139.5410   69.8850  223.6550 C   0  0  0  0  0  0  0  0  0  0  0  0
  139.6150   69.2330  224.8800 C   0  0  0  0  0  0  0  0  0  0  0  0
  140.0900   69.8660  226.0130 C   0  0  0  0  0  0  0  0  0  0  0  0
  140.1500   69.1920  227.2060 C   0  0  0  0  0  0  0  0  0  0  0  0
  140.6330   69.8660  228.3160 C   0  0  0  0  0  0  0  0  0  0  0  0
  141.0420   71.1820  228.2140 C   0  0  0  0  0  0  0  0  0  0  0  0
  140.9710   71.8340  227.0030 C   0  0  0  0  0  0  0  0  0  0  0  0
  140.4890   71.1740  225.8760 C   0  0  0  0  0  0  0  0  0  0  0  0
  140.4300   71.8210  224.7220 N   0  0  0  0  0  0  0  0  0  0  0  0
  139.5840   73.7840  223.3010 H   0  0  0  0  0  0  0  0  0  0  0  0
  140.3616   73.7371  220.3948 H   0  0  0  0  0  0  0  0  0  0  0  0
  138.6210   74.0386  220.6715 H   0  0  0  0  0  0  0  0  0  0  0  0
  139.9923   75.6266  218.6845 H   0  0  0  0  0  0  0  0  0  0  0  0
  138.7294   76.7412  219.4232 H   0  0  0  0  0  0  0  0  0  0  0  0
  139.9846   77.4630  217.3293 H   0  0  0  0  0  0  0  0  0  0  0  0
  139.7620   78.5918  218.7777 H   0  0  0  0  0  0  0  0  0  0  0  0
  142.1760   77.6083  217.4836 H   0  0  0  0  0  0  0  0  0  0  0  0
  141.8320   79.0933  218.4639 H   0  0  0  0  0  0  0  0  0  0  0  0
  142.6333   76.3550  219.3126 H   0  0  0  0  0  0  0  0  0  0  0  0
  143.2310   78.0418  219.7957 H   0  0  0  0  0  0  0  0  0  0  0  0
  142.2774   77.0009  221.6257 H   0  0  0  0  0  0  0  0  0  0  0  0
  140.2257   78.9151  220.8224 H   0  0  0  0  0  0  0  0  0  0  0  0
  140.8970   78.3404  222.4757 H   0  0  0  0  0  0  0  0  0  0  0  0
  143.1600   78.4116  222.7177 H   0  0  0  0  0  0  0  0  0  0  0  0
  143.7146   80.0720  222.7463 H   0  0  0  0  0  0  0  0  0  0  0  0
  141.2759   78.8123  224.0832 H   0  0  0  0  0  0  0  0  0  0  0  0
  142.4034   79.9808  224.7771 H   0  0  0  0  0  0  0  0  0  0  0  0
  139.9029   80.5534  223.4702 H   0  0  0  0  0  0  0  0  0  0  0  0
  141.0583   81.7578  223.9673 H   0  0  0  0  0  0  0  0  0  0  0  0
  140.5027   81.2005  221.3233 H   0  0  0  0  0  0  0  0  0  0  0  0
  142.1154   81.7793  221.8392 H   0  0  0  0  0  0  0  0  0  0  0  0
  139.1621   69.3812  222.7535 H   0  0  0  0  0  0  0  0  0  0  0  0
  139.2869   68.1854  224.9497 H   0  0  0  0  0  0  0  0  0  0  0  0
  139.8233   68.1442  227.2796 H   0  0  0  0  0  0  0  0  0  0  0  0
  140.6913   69.3497  229.2856 H   0  0  0  0  0  0  0  0  0  0  0  0
  141.4245   71.7091  229.1005 H   0  0  0  0  0  0  0  0  0  0  0  0
  141.2968   72.8818  226.9258 H   0  0  0  0  0  0  0  0  0  0  0  0
  1  2  2  0
  2  3  1  0
  3  4  1  0
  4  5  1  0
  5  6  2  0
  5  7  1  0
  7  8  1  0
  8  9  1  0
  9 10  1  0
 10 11  1  0
 11 12  1  0
 12 13  1  0
 13 14  1  0
 14 15  1  0
 15 16  1  0
 16 17  1  0
 17 18  1  0
  2 19  1  0
 19 20  2  0
 20 21  1  0
 21 22  2  0
 22 23  1  0
 23 24  2  0
 24 25  1  0
 25 26  2  0
 26 27  1  0
 27 28  2  0
 12  7  1  0
 18 14  1  0
 28 19  1  0
 27 22  1  0
  3 29  1  0
  4 30  1  0
  4 31  1  0
  8 32  1  0
  8 33  1  0
  9 34  1  0
  9 35  1  0
 10 36  1  0
 10 37  1  0
 11 38  1  0
 11 39  1  0
 12 40  1  1
 13 41  1  0
 13 42  1  0
 15 43  1  0
 15 44  1  0
 16 45  1  0
 16 46  1  0
 17 47  1  0
 17 48  1  0
 18 49  1  0
 18 50  1  0
 20 51  1  0
 21 52  1  0
 23 53  1  0
 24 54  1  0
 25 55  1  0
 26 56  1  0
M  END
>  <smiles>  (15) 
O=C(NCC(=O)N1CCCC[C@H]1CN1CCCC1)c1ccc2ccccc2n1

>  <score_type>  (15) 
oracle

>  <origin>  (15) 
autodockgpu

>  <m_score__min__energy>  (15) 
-8.5199999999999996

>  <m_primary>  (15) 
energy

>  <rmsd>  (15) 
1.77702213606577

>  <m_score__min__rmsd>  (15) 
1.77702213606577

>  <meeko>  (15) 
{"free_energy": -8.24, "intermolecular_energy": -10.03, "internal_energy": -2.09, "cluster_size": 41, "cluster_id": 1, "rank_in_cluster": 27}

>  <energy>  (15) 
-8.41

>  <cluster_rmsd>  (15) 
0.56

>  <cluster>  (15) 
1

$$$$

     RDKit          3D

 56 59  0  0  0  0  0  0  0  0999 V2000
  138.9610   71.0430  221.5730 O   0  0  0  0  0  0  0  0  0  0  0  0
  139.3680   71.5980  222.6450 C   0  0  0  0  0  0  0  0  0  0  0  0
  139.6200   73.0020  222.6780 N   0  0  0  0  0  0  0  0  0  0  0  0
  139.4290   73.8550  221.5080 C   0  0  0  0  0  0  0  0  0  0  0  0
  139.8420   75.2320  221.8610 C   0  0  0  0  0  0  0  0  0  0  0  0
  141.0500   75.4360  222.1440 O   0  0  0  0  0  0  0  0  0  0  0  0
  138.9710   76.3460  221.9050 N   0  0  0  0  0  0  0  0  0  0  0  0
  137.7180   76.1890  222.6030 C   0  0  0  0  0  0  0  0  0  0  0  0
  136.9270   77.4460  222.7730 C   0  0  0  0  0  0  0  0  0  0  0  0
  136.9190   78.3830  221.6200 C   0  0  0  0  0  0  0  0  0  0  0  0
  138.0220   78.0910  220.6700 C   0  0  0  0  0  0  0  0  0  0  0  0
  139.3100   77.6320  221.2570 C   0  0  1  0  0  0  0  0  0  0  0  0
  140.0050   78.4910  222.2300 C   0  0  0  0  0  0  0  0  0  0  0  0
  141.4160   78.3970  222.3590 N   0  0  0  0  0  0  0  0  0  0  0  0
  141.6920   78.7560  223.7780 C   0  0  0  0  0  0  0  0  0  0  0  0
  141.4880   80.2470  223.7960 C   0  0  0  0  0  0  0  0  0  0  0  0
  141.9470   80.7260  222.4390 C   0  0  0  0  0  0  0  0  0  0  0  0
  142.2000   79.4240  221.7270 C   0  0  0  0  0  0  0  0  0  0  0  0
  139.5810   70.7870  223.8610 C   0  0  0  0  0  0  0  0  0  0  0  0
  139.2240   69.4560  223.8350 C   0  0  0  0  0  0  0  0  0  0  0  0
  139.4430   68.7310  225.0000 C   0  0  0  0  0  0  0  0  0  0  0  0
  139.9890   69.3140  226.1270 C   0  0  0  0  0  0  0  0  0  0  0  0
  140.1910   68.5690  227.2610 C   0  0  0  0  0  0  0  0  0  0  0  0
  140.7420   69.1940  228.3670 C   0  0  0  0  0  0  0  0  0  0  0  0
  141.0770   70.5340  228.3200 C   0  0  0  0  0  0  0  0  0  0  0  0
  140.8620   71.2590  227.1700 C   0  0  0  0  0  0  0  0  0  0  0  0
  140.3100   70.6480  226.0470 C   0  0  0  0  0  0  0  0  0  0  0  0
  140.1130   71.3640  224.9500 N   0  0  0  0  0  0  0  0  0  0  0  0
  139.9560   73.3840  223.6020 H   0  0  0  0  0  0  0  0  0  0  0  0
  140.0438   73.4850  220.6742 H   0  0  0  0  0  0  0  0  0  0  0  0
  138.3728   73.8443  221.2009 H   0  0  0  0  0  0  0  0  0  0  0  0
  137.1020   75.4717  222.0409 H   0  0  0  0  0  0  0  0  0  0  0  0
  137.9721   75.8465  223.6170 H   0  0  0  0  0  0  0  0  0  0  0  0
  135.8850   77.1603  222.9792 H   0  0  0  0  0  0  0  0  0  0  0  0
  137.4199   77.9929  223.5903 H   0  0  0  0  0  0  0  0  0  0  0  0
  135.9588   78.2902  221.0914 H   0  0  0  0  0  0  0  0  0  0  0  0
  137.0585   79.4037  222.0055 H   0  0  0  0  0  0  0  0  0  0  0  0
  137.6709   77.3064  219.9836 H   0  0  0  0  0  0  0  0  0  0  0  0
  138.2514   79.0542  220.1909 H   0  0  0  0  0  0  0  0  0  0  0  0
  140.0383   77.6055  220.4331 H   0  0  0  0  0  0  0  0  0  0  0  0
  139.7766   79.5323  221.9589 H   0  0  0  0  0  0  0  0  0  0  0  0
  139.6312   78.1373  223.2022 H   0  0  0  0  0  0  0  0  0  0  0  0
  140.9883   78.2525  224.4572 H   0  0  0  0  0  0  0  0  0  0  0  0
  142.6938   78.4515  224.1151 H   0  0  0  0  0  0  0  0  0  0  0  0
  140.4264   80.4892  223.9518 H   0  0  0  0  0  0  0  0  0  0  0  0
  142.0463   80.7285  224.6124 H   0  0  0  0  0  0  0  0  0  0  0  0
  141.1652   81.3134  221.9353 H   0  0  0  0  0  0  0  0  0  0  0  0
  142.8201   81.3943  222.4725 H   0  0  0  0  0  0  0  0  0  0  0  0
  141.9079   79.5162  220.6705 H   0  0  0  0  0  0  0  0  0  0  0  0
  143.2684   79.1678  221.7795 H   0  0  0  0  0  0  0  0  0  0  0  0
  138.7881   68.9916  222.9382 H   0  0  0  0  0  0  0  0  0  0  0  0
  139.1745   67.6646  225.0255 H   0  0  0  0  0  0  0  0  0  0  0  0
  139.9222   67.5028  227.2910 H   0  0  0  0  0  0  0  0  0  0  0  0
  140.9143   68.6200  229.2894 H   0  0  0  0  0  0  0  0  0  0  0  0
  141.5160   71.0217  229.2028 H   0  0  0  0  0  0  0  0  0  0  0  0
  141.1274   72.3260  227.1378 H   0  0  0  0  0  0  0  0  0  0  0  0
  1  2  2  0
  2  3  1  0
  3  4  1  0
  4  5  1  0
  5  6  2  0
  5  7  1  0
  7  8  1  0
  8  9  1  0
  9 10  1  0
 10 11  1  0
 11 12  1  0
 12 13  1  0
 13 14  1  0
 14 15  1  0
 15 16  1  0
 16 17  1  0
 17 18  1  0
  2 19  1  0
 19 20  2  0
 20 21  1  0
 21 22  2  0
 22 23  1  0
 23 24  2  0
 24 25  1  0
 25 26  2  0
 26 27  1  0
 27 28  2  0
 12  7  1  0
 18 14  1  0
 28 19  1  0
 27 22  1  0
  3 29  1  0
  4 30  1  0
  4 31  1  0
  8 32  1  0
  8 33  1  0
  9 34  1  0
  9 35  1  0
 10 36  1  0
 10 37  1  0
 11 38  1  0
 11 39  1  0
 12 40  1  6
 13 41  1  0
 13 42  1  0
 15 43  1  0
 15 44  1  0
 16 45  1  0
 16 46  1  0
 17 47  1  0
 17 48  1  0
 18 49  1  0
 18 50  1  0
 20 51  1  0
 21 52  1  0
 23 53  1  0
 24 54  1  0
 25 55  1  0
 26 56  1  0
M  END
>  <smiles>  (16) 
O=C(NCC(=O)N1CCCC[C@H]1CN1CCCC1)c1ccc2ccccc2n1

>  <score_type>  (16) 
oracle

>  <origin>  (16) 
autodockgpu

>  <m_score__min__energy>  (16) 
-8.5199999999999996

>  <m_primary>  (16) 
energy

>  <rmsd>  (16) 
2.7854764031434973

>  <m_score__min__rmsd>  (16) 
2.7854764031434973

>  <meeko>  (16) 
{"free_energy": -7.95, "intermolecular_energy": -9.74, "internal_energy": -1.84, "cluster_size": 41, "cluster_id": 1, "rank_in_cluster": 36}

>  <energy>  (16) 
-8.4

>  <cluster_rmsd>  (16) 
0.6

>  <cluster>  (16) 
1

$$$$

     RDKit          3D

 56 59  0  0  0  0  0  0  0  0999 V2000
  137.1340   76.3800  222.1650 O   0  0  0  0  0  0  0  0  0  0  0  0
  138.3900   76.4220  222.3690 C   0  0  0  0  0  0  0  0  0  0  0  0
  139.1800   75.2410  222.2430 N   0  0  0  0  0  0  0  0  0  0  0  0
  138.5990   73.9510  221.8820 C   0  0  0  0  0  0  0  0  0  0  0  0
  139.5130   72.8810  222.3430 C   0  0  0  0  0  0  0  0  0  0  0  0
  140.7010   73.1910  222.6180 O   0  0  0  0  0  0  0  0  0  0  0  0
  139.1470   71.5240  222.5000 N   0  0  0  0  0  0  0  0  0  0  0  0
  139.7870   70.5540  221.6430 C   0  0  0  0  0  0  0  0  0  0  0  0
  139.5000   69.1270  221.9780 C   0  0  0  0  0  0  0  0  0  0  0  0
  138.1080   68.8120  222.3950 C   0  0  0  0  0  0  0  0  0  0  0  0
  137.3670   70.0360  222.7910 C   0  0  0  0  0  0  0  0  0  0  0  0
  138.1410   71.0920  223.4950 C   0  0  1  0  0  0  0  0  0  0  0  0
  138.8250   70.7640  224.7570 C   0  0  0  0  0  0  0  0  0  0  0  0
  140.2310   70.5630  224.7560 N   0  0  0  0  0  0  0  0  0  0  0  0
  140.4490   69.3980  225.6590 C   0  0  0  0  0  0  0  0  0  0  0  0
  140.2310   69.9860  227.0280 C   0  0  0  0  0  0  0  0  0  0  0  0
  140.7380   71.4050  226.9350 C   0  0  0  0  0  0  0  0  0  0  0  0
  141.0300   71.5280  225.4630 C   0  0  0  0  0  0  0  0  0  0  0  0
  139.0360   77.6990  222.7380 C   0  0  0  0  0  0  0  0  0  0  0  0
  138.2330   78.7650  223.0870 C   0  0  0  0  0  0  0  0  0  0  0  0
  138.8830   79.9450  223.4270 C   0  0  0  0  0  0  0  0  0  0  0  0
  140.2600   80.0460  223.4160 C   0  0  0  0  0  0  0  0  0  0  0  0
  140.8690   81.2270  223.7580 C   0  0  0  0  0  0  0  0  0  0  0  0
  142.2520   81.2830  223.7330 C   0  0  0  0  0  0  0  0  0  0  0  0
  142.9930   80.1730  223.3730 C   0  0  0  0  0  0  0  0  0  0  0  0
  142.3560   79.0010  223.0330 C   0  0  0  0  0  0  0  0  0  0  0  0
  140.9660   78.9240  223.0530 C   0  0  0  0  0  0  0  0  0  0  0  0
  140.3750   77.7850  222.7230 N   0  0  0  0  0  0  0  0  0  0  0  0
  140.2120   75.3590  222.4290 H   0  0  0  0  0  0  0  0  0  0  0  0
  137.6184   73.8364  222.3671 H   0  0  0  0  0  0  0  0  0  0  0  0
  138.4641   73.8891  220.7921 H   0  0  0  0  0  0  0  0  0  0  0  0
  139.4512   70.7363  220.6115 H   0  0  0  0  0  0  0  0  0  0  0  0
  140.8698   70.6898  221.7811 H   0  0  0  0  0  0  0  0  0  0  0  0
  139.7275   68.5222  221.0878 H   0  0  0  0  0  0  0  0  0  0  0  0
  140.1253   68.9016  222.8545 H   0  0  0  0  0  0  0  0  0  0  0  0
  137.5834   68.3328  221.5553 H   0  0  0  0  0  0  0  0  0  0  0  0
  138.1526   68.1398  223.2646 H   0  0  0  0  0  0  0  0  0  0  0  0
  136.9507   70.4831  221.8762 H   0  0  0  0  0  0  0  0  0  0  0  0
  136.6180   69.6946  223.5207 H   0  0  0  0  0  0  0  0  0  0  0  0
  137.4110   71.8422  223.8332 H   0  0  0  0  0  0  0  0  0  0  0  0
  138.6195   71.5878  225.4564 H   0  0  0  0  0  0  0  0  0  0  0  0
  138.4217   69.7753  225.0214 H   0  0  0  0  0  0  0  0  0  0  0  0
  139.7242   68.5967  225.4527 H   0  0  0  0  0  0  0  0  0  0  0  0
  141.4396   68.9352  225.5384 H   0  0  0  0  0  0  0  0  0  0  0  0
  139.1620   69.9746  227.2869 H   0  0  0  0  0  0  0  0  0  0  0  0
  140.7527   69.4135  227.8090 H   0  0  0  0  0  0  0  0  0  0  0  0
  139.9713   72.1266  227.2535 H   0  0  0  0  0  0  0  0  0  0  0  0
  141.6034   71.6136  227.5812 H   0  0  0  0  0  0  0  0  0  0  0  0
  140.7782   72.5418  225.1184 H   0  0  0  0  0  0  0  0  0  0  0  0
  142.0978   71.3433  225.2743 H   0  0  0  0  0  0  0  0  0  0  0  0
  137.1359   78.6850  223.0957 H   0  0  0  0  0  0  0  0  0  0  0  0
  138.2844   80.8225  223.7127 H   0  0  0  0  0  0  0  0  0  0  0  0
  140.2738   82.1065  224.0446 H   0  0  0  0  0  0  0  0  0  0  0  0
  142.7652   82.2181  224.0017 H   0  0  0  0  0  0  0  0  0  0  0  0
  144.0916   80.2262  223.3582 H   0  0  0  0  0  0  0  0  0  0  0  0
  142.9485   78.1204  222.7439 H   0  0  0  0  0  0  0  0  0  0  0  0
  1  2  2  0
  2  3  1  0
  3  4  1  0
  4  5  1  0
  5  6  2  0
  5  7  1  0
  7  8  1  0
  8  9  1  0
  9 10  1  0
 10 11  1  0
 11 12  1  0
 12 13  1  0
 13 14  1  0
 14 15  1  0
 15 16  1  0
 16 17  1  0
 17 18  1  0
  2 19  1  0
 19 20  2  0
 20 21  1  0
 21 22  2  0
 22 23  1  0
 23 24  2  0
 24 25  1  0
 25 26  2  0
 26 27  1  0
 27 28  2  0
 12  7  1  0
 18 14  1  0
 28 19  1  0
 27 22  1  0
  3 29  1  0
  4 30  1  0
  4 31  1  0
  8 32  1  0
  8 33  1  0
  9 34  1  0
  9 35  1  0
 10 36  1  0
 10 37  1  0
 11 38  1  0
 11 39  1  0
 12 40  1  1
 13 41  1  0
 13 42  1  0
 15 43  1  0
 15 44  1  0
 16 45  1  0
 16 46  1  0
 17 47  1  0
 17 48  1  0
 18 49  1  0
 18 50  1  0
 20 51  1  0
 21 52  1  0
 23 53  1  0
 24 54  1  0
 25 55  1  0
 26 56  1  0
M  END
>  <smiles>  (17) 
O=C(NCC(=O)N1CCCC[C@H]1CN1CCCC1)c1ccc2ccccc2n1

>  <score_type>  (17) 
oracle

>  <origin>  (17) 
autodockgpu

>  <m_score__min__energy>  (17) 
-8.5199999999999996

>  <m_primary>  (17) 
energy

>  <rmsd>  (17) 
8.917635318322725

>  <m_score__min__rmsd>  (17) 
8.917635318322725

>  <meeko>  (17) 
{"free_energy": -7.39, "intermolecular_energy": -9.18, "internal_energy": -2.45, "cluster_size": 2, "cluster_id": 3, "rank_in_cluster": 1}

>  <energy>  (17) 
-8.39

>  <cluster_rmsd>  (17) 
0.48

>  <cluster>  (17) 
1

$$$$

     RDKit          3D

 56 59  0  0  0  0  0  0  0  0999 V2000
  141.2600   71.6630  221.5060 O   0  0  0  0  0  0  0  0  0  0  0  0
  140.5880   72.1870  222.4540 C   0  0  0  0  0  0  0  0  0  0  0  0
  140.1010   73.5230  222.3380 N   0  0  0  0  0  0  0  0  0  0  0  0
  140.3450   74.3400  221.1530 C   0  0  0  0  0  0  0  0  0  0  0  0
  139.9110   75.7260  221.4440 C   0  0  0  0  0  0  0  0  0  0  0  0
  139.2530   75.9340  222.4950 O   0  0  0  0  0  0  0  0  0  0  0  0
  140.1850   76.8430  220.6210 N   0  0  0  0  0  0  0  0  0  0  0  0
  139.0690   77.4820  219.9660 C   0  0  0  0  0  0  0  0  0  0  0  0
  139.3950   78.7600  219.2630 C   0  0  0  0  0  0  0  0  0  0  0  0
  140.6910   78.8020  218.5350 C   0  0  0  0  0  0  0  0  0  0  0  0
  141.6010   77.7160  218.9770 C   0  0  0  0  0  0  0  0  0  0  0  0
  141.5600   77.3500  220.4180 C   0  0  1  0  0  0  0  0  0  0  0  0
  141.8470   78.3780  221.4320 C   0  0  0  0  0  0  0  0  0  0  0  0
  141.0910   78.4010  222.6340 N   0  0  0  0  0  0  0  0  0  0  0  0
  140.2920   79.6560  222.5570 C   0  0  0  0  0  0  0  0  0  0  0  0
  141.3150   80.7260  222.8260 C   0  0  0  0  0  0  0  0  0  0  0  0
  142.2870   80.1090  223.8040 C   0  0  0  0  0  0  0  0  0  0  0  0
  141.8060   78.6830  223.8500 C   0  0  0  0  0  0  0  0  0  0  0  0
  140.3110   71.4090  223.6790 C   0  0  0  0  0  0  0  0  0  0  0  0
  139.6180   70.2230  223.5620 C   0  0  0  0  0  0  0  0  0  0  0  0
  139.3800   69.5250  224.7390 C   0  0  0  0  0  0  0  0  0  0  0  0
  139.8140   69.9940  225.9640 C   0  0  0  0  0  0  0  0  0  0  0  0
  139.5620   69.2790  227.1070 C   0  0  0  0  0  0  0  0  0  0  0  0
  140.0160   69.7880  228.3120 C   0  0  0  0  0  0  0  0  0  0  0  0
  140.7050   70.9850  228.3530 C   0  0  0  0  0  0  0  0  0  0  0  0
  140.9430   71.6830  227.1900 C   0  0  0  0  0  0  0  0  0  0  0  0
  140.4950   71.1880  225.9680 C   0  0  0  0  0  0  0  0  0  0  0  0
  140.7370   71.8760  224.8630 N   0  0  0  0  0  0  0  0  0  0  0  0
  139.5550   73.8830  223.1660 H   0  0  0  0  0  0  0  0  0  0  0  0
  141.4176   74.3299  220.9091 H   0  0  0  0  0  0  0  0  0  0  0  0
  139.7837   73.9400  220.2957 H   0  0  0  0  0  0  0  0  0  0  0  0
  138.6609   76.7794  219.2245 H   0  0  0  0  0  0  0  0  0  0  0  0
  138.3548   77.7426  220.7610 H   0  0  0  0  0  0  0  0  0  0  0  0
  138.5949   78.9543  218.5335 H   0  0  0  0  0  0  0  0  0  0  0  0
  139.4811   79.5165  220.0569 H   0  0  0  0  0  0  0  0  0  0  0  0
  140.4991   78.6906  217.4576 H   0  0  0  0  0  0  0  0  0  0  0  0
  141.1755   79.7659  218.7500 H   0  0  0  0  0  0  0  0  0  0  0  0
  141.3497   76.8152  218.3978 H   0  0  0  0  0  0  0  0  0  0  0  0
  142.6159   78.1052  218.8082 H   0  0  0  0  0  0  0  0  0  0  0  0
  142.3879   76.6453  220.5853 H   0  0  0  0  0  0  0  0  0  0  0  0
  142.9022   78.2592  221.7192 H   0  0  0  0  0  0  0  0  0  0  0  0
  141.5708   79.3188  220.9334 H   0  0  0  0  0  0  0  0  0  0  0  0
  139.8442   79.7790  221.5598 H   0  0  0  0  0  0  0  0  0  0  0  0
  139.4480   79.6763  223.2622 H   0  0  0  0  0  0  0  0  0  0  0  0
  141.8306   81.0089  221.8964 H   0  0  0  0  0  0  0  0  0  0  0  0
  140.8558   81.6421  223.2259 H   0  0  0  0  0  0  0  0  0  0  0  0
  143.3215   80.1720  223.4355 H   0  0  0  0  0  0  0  0  0  0  0  0
  142.3101   80.6054  224.7854 H   0  0  0  0  0  0  0  0  0  0  0  0
  142.6669   78.0041  223.9398 H   0  0  0  0  0  0  0  0  0  0  0  0
  141.1453   78.5368  224.7173 H   0  0  0  0  0  0  0  0  0  0  0  0
  139.2716   69.8490  222.5873 H   0  0  0  0  0  0  0  0  0  0  0  0
  138.8310   68.5728  224.6946 H   0  0  0  0  0  0  0  0  0  0  0  0
  139.0136   68.3262  227.0674 H   0  0  0  0  0  0  0  0  0  0  0  0
  139.8267   69.2351  229.2439 H   0  0  0  0  0  0  0  0  0  0  0  0
  141.0635   71.3805  229.3148 H   0  0  0  0  0  0  0  0  0  0  0  0
  141.4899   72.6367  227.2265 H   0  0  0  0  0  0  0  0  0  0  0  0
  1  2  2  0
  2  3  1  0
  3  4  1  0
  4  5  1  0
  5  6  2  0
  5  7  1  0
  7  8  1  0
  8  9  1  0
  9 10  1  0
 10 11  1  0
 11 12  1  0
 12 13  1  0
 13 14  1  0
 14 15  1  0
 15 16  1  0
 16 17  1  0
 17 18  1  0
  2 19  1  0
 19 20  2  0
 20 21  1  0
 21 22  2  0
 22 23  1  0
 23 24  2  0
 24 25  1  0
 25 26  2  0
 26 27  1  0
 27 28  2  0
 12  7  1  0
 18 14  1  0
 28 19  1  0
 27 22  1  0
  3 29  1  0
  4 30  1  0
  4 31  1  0
  8 32  1  0
  8 33  1  0
  9 34  1  0
  9 35  1  0
 10 36  1  0
 10 37  1  0
 11 38  1  0
 11 39  1  0
 12 40  1  6
 13 41  1  0
 13 42  1  0
 15 43  1  0
 15 44  1  0
 16 45  1  0
 16 46  1  0
 17 47  1  0
 17 48  1  0
 18 49  1  0
 18 50  1  0
 20 51  1  0
 21 52  1  0
 23 53  1  0
 24 54  1  0
 25 55  1  0
 26 56  1  0
M  END
>  <smiles>  (18) 
O=C(NCC(=O)N1CCCC[C@H]1CN1CCCC1)c1ccc2ccccc2n1

>  <score_type>  (18) 
oracle

>  <origin>  (18) 
autodockgpu

>  <m_score__min__energy>  (18) 
-8.5199999999999996

>  <m_primary>  (18) 
energy

>  <rmsd>  (18) 
2.403849575443955

>  <m_score__min__rmsd>  (18) 
2.403849575443955

>  <meeko>  (18) 
{"free_energy": -8.07, "intermolecular_energy": -9.86, "internal_energy": -2.22, "cluster_size": 41, "cluster_id": 1, "rank_in_cluster": 33}

>  <energy>  (18) 
-8.39

>  <cluster_rmsd>  (18) 
0.6

>  <cluster>  (18) 
1

$$$$

     RDKit          3D

 56 59  0  0  0  0  0  0  0  0999 V2000
  140.5980   71.3670  221.2720 O   0  0  0  0  0  0  0  0  0  0  0  0
  140.2150   71.9910  222.3150 C   0  0  0  0  0  0  0  0  0  0  0  0
  139.8810   73.3760  222.2440 N   0  0  0  0  0  0  0  0  0  0  0  0
  139.9610   74.1320  220.9970 C   0  0  0  0  0  0  0  0  0  0  0  0
  140.1480   75.5630  221.3300 C   0  0  0  0  0  0  0  0  0  0  0  0
  139.8970   75.9380  222.5040 O   0  0  0  0  0  0  0  0  0  0  0  0
  140.5940   76.5480  220.4180 N   0  0  0  0  0  0  0  0  0  0  0  0
  139.8170   76.7510  219.2190 C   0  0  0  0  0  0  0  0  0  0  0  0
  140.2280   77.9230  218.3890 C   0  0  0  0  0  0  0  0  0  0  0  0
  141.6900   78.1690  218.2700 C   0  0  0  0  0  0  0  0  0  0  0  0
  142.4520   77.4510  219.3220 C   0  0  0  0  0  0  0  0  0  0  0  0
  141.8140   77.3480  220.6620 C   0  0  1  0  0  0  0  0  0  0  0  0
  141.4450   78.5790  221.3800 C   0  0  0  0  0  0  0  0  0  0  0  0
  142.3270   79.1040  222.3610 N   0  0  0  0  0  0  0  0  0  0  0  0
  141.7570   78.6580  223.6640 C   0  0  0  0  0  0  0  0  0  0  0  0
  140.5560   79.5500  223.8310 C   0  0  0  0  0  0  0  0  0  0  0  0
  140.9510   80.8680  223.2060 C   0  0  0  0  0  0  0  0  0  0  0  0
  142.2810   80.5240  222.5890 C   0  0  0  0  0  0  0  0  0  0  0  0
  140.1150   71.2790  223.6060 C   0  0  0  0  0  0  0  0  0  0  0  0
  139.5240   70.0330  223.6260 C   0  0  0  0  0  0  0  0  0  0  0  0
  139.4530   69.4010  224.8610 C   0  0  0  0  0  0  0  0  0  0  0  0
  139.9470   69.9880  226.0090 C   0  0  0  0  0  0  0  0  0  0  0  0
  139.8600   69.3350  227.2130 C   0  0  0  0  0  0  0  0  0  0  0  0
  140.3690   69.9620  228.3370 C   0  0  0  0  0  0  0  0  0  0  0  0
  140.9480   71.2130  228.2410 C   0  0  0  0  0  0  0  0  0  0  0  0
  141.0220   71.8470  227.0210 C   0  0  0  0  0  0  0  0  0  0  0  0
  140.5160   71.2330  225.8780 C   0  0  0  0  0  0  0  0  0  0  0  0
  140.5990   71.8610  224.7150 N   0  0  0  0  0  0  0  0  0  0  0  0
  139.5740   73.8190  223.1500 H   0  0  0  0  0  0  0  0  0  0  0  0
  140.8131   73.7749  220.3999 H   0  0  0  0  0  0  0  0  0  0  0  0
  139.0387   73.9969  220.4129 H   0  0  0  0  0  0  0  0  0  0  0  0
  139.9046   75.8467  218.5989 H   0  0  0  0  0  0  0  0  0  0  0  0
  138.7886   76.9562  219.5512 H   0  0  0  0  0  0  0  0  0  0  0  0
  139.8306   77.7705  217.3747 H   0  0  0  0  0  0  0  0  0  0  0  0
  139.8247   78.8047  218.9085 H   0  0  0  0  0  0  0  0  0  0  0  0
  142.0311   77.8230  217.2831 H   0  0  0  0  0  0  0  0  0  0  0  0
  141.8685   79.2476  218.3913 H   0  0  0  0  0  0  0  0  0  0  0  0
  142.6342   76.4280  218.9610 H   0  0  0  0  0  0  0  0  0  0  0  0
  143.3589   78.0529  219.4812 H   0  0  0  0  0  0  0  0  0  0  0  0
  142.5700   76.9217  221.3378 H   0  0  0  0  0  0  0  0  0  0  0  0
  141.3061   79.3632  220.6213 H   0  0  0  0  0  0  0  0  0  0  0  0
  140.5572   78.2855  221.9594 H   0  0  0  0  0  0  0  0  0  0  0  0
  141.4608   77.5994  223.6244 H   0  0  0  0  0  0  0  0  0  0  0  0
  142.4710   78.7316  224.4975 H   0  0  0  0  0  0  0  0  0  0  0  0
  139.6840   79.1237  223.3134 H   0  0  0  0  0  0  0  0  0  0  0  0
  140.2730   79.6647  224.8878 H   0  0  0  0  0  0  0  0  0  0  0  0
  140.2244   81.1842  222.4431 H   0  0  0  0  0  0  0  0  0  0  0  0
  140.9910   81.7063  223.9171 H   0  0  0  0  0  0  0  0  0  0  0  0
  142.3953   81.0568  221.6334 H   0  0  0  0  0  0  0  0  0  0  0  0
  143.0970   80.8233  223.2632 H   0  0  0  0  0  0  0  0  0  0  0  0
  139.1297   69.5644  222.7123 H   0  0  0  0  0  0  0  0  0  0  0  0
  138.9903   68.4052  224.9262 H   0  0  0  0  0  0  0  0  0  0  0  0
  139.3978   68.3393  227.2828 H   0  0  0  0  0  0  0  0  0  0  0  0
  140.3122   69.4605  229.3144 H   0  0  0  0  0  0  0  0  0  0  0  0
  141.3502   71.7028  229.1401 H   0  0  0  0  0  0  0  0  0  0  0  0
  141.4830   72.8431  226.9488 H   0  0  0  0  0  0  0  0  0  0  0  0
  1  2  2  0
  2  3  1  0
  3  4  1  0
  4  5  1  0
  5  6  2  0
  5  7  1  0
  7  8  1  0
  8  9  1  0
  9 10  1  0
 10 11  1  0
 11 12  1  0
 12 13  1  0
 13 14  1  0
 14 15  1  0
 15 16  1  0
 16 17  1  0
 17 18  1  0
  2 19  1  0
 19 20  2  0
 20 21  1  0
 21 22  2  0
 22 23  1  0
 23 24  2  0
 24 25  1  0
 25 26  2  0
 26 27  1  0
 27 28  2  0
 12  7  1  0
 18 14  1  0
 28 19  1  0
 27 22  1  0
  3 29  1  0
  4 30  1  0
  4 31  1  0
  8 32  1  0
  8 33  1  0
  9 34  1  0
  9 35  1  0
 10 36  1  0
 10 37  1  0
 11 38  1  0
 11 39  1  0
 12 40  1  1
 13 41  1  0
 13 42  1  0
 15 43  1  0
 15 44  1  0
 16 45  1  0
 16 46  1  0
 17 47  1  0
 17 48  1  0
 18 49  1  0
 18 50  1  0
 20 51  1  0
 21 52  1  0
 23 53  1  0
 24 54  1  0
 25 55  1  0
 26 56  1  0
M  END
>  <smiles>  (19) 
O=C(NCC(=O)N1CCCC[C@H]1CN1CCCC1)c1ccc2ccccc2n1

>  <score_type>  (19) 
oracle

>  <origin>  (19) 
autodockgpu

>  <m_score__min__energy>  (19) 
-8.5199999999999996

>  <m_primary>  (19) 
energy

>  <rmsd>  (19) 
1.8467598657377606

>  <m_score__min__rmsd>  (19) 
1.8467598657377606

>  <meeko>  (19) 
{"free_energy": -8.44, "intermolecular_energy": -10.23, "internal_energy": -2.07, "cluster_size": 41, "cluster_id": 1, "rank_in_cluster": 11}

>  <energy>  (19) 
-8.38

>  <cluster_rmsd>  (19) 
0.49

>  <cluster>  (19) 
1

$$$$

     RDKit          3D

 56 59  0  0  0  0  0  0  0  0999 V2000
  141.0940   72.3000  221.7770 O   0  0  0  0  0  0  0  0  0  0  0  0
  140.1020   72.3340  222.5760 C   0  0  0  0  0  0  0  0  0  0  0  0
  139.0070   73.2130  222.3280 N   0  0  0  0  0  0  0  0  0  0  0  0
  138.9690   74.1010  221.1690 C   0  0  0  0  0  0  0  0  0  0  0  0
  139.8100   75.2840  221.4600 C   0  0  0  0  0  0  0  0  0  0  0  0
  139.8710   75.6940  222.6470 O   0  0  0  0  0  0  0  0  0  0  0  0
  140.5590   75.9950  220.4930 N   0  0  0  0  0  0  0  0  0  0  0  0
  140.0790   75.9820  219.1320 C   0  0  0  0  0  0  0  0  0  0  0  0
  140.8020   76.8960  218.1970 C   0  0  0  0  0  0  0  0  0  0  0  0
  142.2760   76.9850  218.3670 C   0  0  0  0  0  0  0  0  0  0  0  0
  142.7050   76.4660  219.6900 C   0  0  0  0  0  0  0  0  0  0  0  0
  141.7980   76.7250  220.8400 C   0  0  1  0  0  0  0  0  0  0  0  0
  141.4540   78.1140  221.1880 C   0  0  0  0  0  0  0  0  0  0  0  0
  140.9050   78.3970  222.4670 N   0  0  0  0  0  0  0  0  0  0  0  0
  140.3540   79.7760  222.3480 C   0  0  0  0  0  0  0  0  0  0  0  0
  141.5890   80.6360  222.3550 C   0  0  0  0  0  0  0  0  0  0  0  0
  142.5620   79.9230  223.2650 C   0  0  0  0  0  0  0  0  0  0  0  0
  141.8330   78.6350  223.5400 C   0  0  0  0  0  0  0  0  0  0  0  0
  140.0840   71.4590  223.7660 C   0  0  0  0  0  0  0  0  0  0  0  0
  139.5690   70.1870  223.6400 C   0  0  0  0  0  0  0  0  0  0  0  0
  139.5730   69.3990  224.7850 C   0  0  0  0  0  0  0  0  0  0  0  0
  140.0660   69.8660  225.9880 C   0  0  0  0  0  0  0  0  0  0  0  0
  140.0540   69.0620  227.0990 C   0  0  0  0  0  0  0  0  0  0  0  0
  140.5590   69.5720  228.2830 C   0  0  0  0  0  0  0  0  0  0  0  0
  141.0600   70.8590  228.3350 C   0  0  0  0  0  0  0  0  0  0  0  0
  141.0590   71.6450  227.2050 C   0  0  0  0  0  0  0  0  0  0  0  0
  140.5560   71.1510  226.0040 C   0  0  0  0  0  0  0  0  0  0  0  0
  140.5660   71.9250  224.9300 N   0  0  0  0  0  0  0  0  0  0  0  0
  138.2260   73.1820  223.0360 H   0  0  0  0  0  0  0  0  0  0  0  0
  139.3598   73.5755  220.2852 H   0  0  0  0  0  0  0  0  0  0  0  0
  137.9341   74.4134  220.9656 H   0  0  0  0  0  0  0  0  0  0  0  0
  140.1736   74.9560  218.7469 H   0  0  0  0  0  0  0  0  0  0  0  0
  139.0400   76.3412  219.1698 H   0  0  0  0  0  0  0  0  0  0  0  0
  140.6037   76.5508  217.1716 H   0  0  0  0  0  0  0  0  0  0  0  0
  140.4209   77.9034  218.4205 H   0  0  0  0  0  0  0  0  0  0  0  0
  142.7629   76.3947  217.5768 H   0  0  0  0  0  0  0  0  0  0  0  0
  142.5669   78.0438  218.3016 H   0  0  0  0  0  0  0  0  0  0  0  0
  142.8218   75.3761  219.5976 H   0  0  0  0  0  0  0  0  0  0  0  0
  143.6307   77.0114  219.9259 H   0  0  0  0  0  0  0  0  0  0  0  0
  142.3378   76.4026  221.7426 H   0  0  0  0  0  0  0  0  0  0  0  0
  142.3774   78.7050  221.0978 H   0  0  0  0  0  0  0  0  0  0  0  0
  140.6363   78.3602  220.4946 H   0  0  0  0  0  0  0  0  0  0  0  0
  139.7927   79.8979  221.4099 H   0  0  0  0  0  0  0  0  0  0  0  0
  139.6445   80.0299  223.1494 H   0  0  0  0  0  0  0  0  0  0  0  0
  142.0036   80.7241  221.3399 H   0  0  0  0  0  0  0  0  0  0  0  0
  141.3764   81.6586  222.7002 H   0  0  0  0  0  0  0  0  0  0  0  0
  143.5226   79.7406  222.7611 H   0  0  0  0  0  0  0  0  0  0  0  0
  142.8249   80.4899  224.1703 H   0  0  0  0  0  0  0  0  0  0  0  0
  142.5536   77.8060  223.5979 H   0  0  0  0  0  0  0  0  0  0  0  0
  141.2935   78.7043  224.4961 H   0  0  0  0  0  0  0  0  0  0  0  0
  139.1751   69.8146  222.6828 H   0  0  0  0  0  0  0  0  0  0  0  0
  139.1727   68.3758  224.7318 H   0  0  0  0  0  0  0  0  0  0  0  0
  139.6536   68.0386  227.0507 H   0  0  0  0  0  0  0  0  0  0  0  0
  140.5615   68.9482  229.1890 H   0  0  0  0  0  0  0  0  0  0  0  0
  141.4598   71.2555  229.2800 H   0  0  0  0  0  0  0  0  0  0  0  0
  141.4578   72.6691  227.2509 H   0  0  0  0  0  0  0  0  0  0  0  0
  1  2  2  0
  2  3  1  0
  3  4  1  0
  4  5  1  0
  5  6  2  0
  5  7  1  0
  7  8  1  0
  8  9  1  0
  9 10  1  0
 10 11  1  0
 11 12  1  0
 12 13  1  0
 13 14  1  0
 14 15  1  0
 15 16  1  0
 16 17  1  0
 17 18  1  0
  2 19  1  0
 19 20  2  0
 20 21  1  0
 21 22  2  0
 22 23  1  0
 23 24  2  0
 24 25  1  0
 25 26  2  0
 26 27  1  0
 27 28  2  0
 12  7  1  0
 18 14  1  0
 28 19  1  0
 27 22  1  0
  3 29  1  0
  4 30  1  0
  4 31  1  0
  8 32  1  0
  8 33  1  0
  9 34  1  0
  9 35  1  0
 10 36  1  0
 10 37  1  0
 11 38  1  0
 11 39  1  0
 12 40  1  1
 13 41  1  0
 13 42  1  0
 15 43  1  0
 15 44  1  0
 16 45  1  0
 16 46  1  0
 17 47  1  0
 17 48  1  0
 18 49  1  0
 18 50  1  0
 20 51  1  0
 21 52  1  0
 23 53  1  0
 24 54  1  0
 25 55  1  0
 26 56  1  0
M  END
>  <smiles>  (20) 
O=C(NCC(=O)N1CCCC[C@H]1CN1CCCC1)c1ccc2ccccc2n1

>  <score_type>  (20) 
oracle

>  <origin>  (20) 
autodockgpu

>  <m_score__min__energy>  (20) 
-8.5199999999999996

>  <m_primary>  (20) 
energy

>  <rmsd>  (20) 
2.0484226578151166

>  <m_score__min__rmsd>  (20) 
2.0484226578151166

>  <meeko>  (20) 
{"free_energy": -8.37, "intermolecular_energy": -10.16, "internal_energy": -1.56, "cluster_size": 41, "cluster_id": 1, "rank_in_cluster": 20}

>  <energy>  (20) 
-8.37

>  <cluster_rmsd>  (20) 
0.86

>  <cluster>  (20) 
1

$$$$

     RDKit          3D

 56 59  0  0  0  0  0  0  0  0999 V2000
  140.8640   71.4970  221.3620 O   0  0  0  0  0  0  0  0  0  0  0  0
  140.3770   72.0770  222.3870 C   0  0  0  0  0  0  0  0  0  0  0  0
  140.0100   73.4540  222.3280 N   0  0  0  0  0  0  0  0  0  0  0  0
  140.1700   74.2510  221.1150 C   0  0  0  0  0  0  0  0  0  0  0  0
  140.1940   75.6820  221.4960 C   0  0  0  0  0  0  0  0  0  0  0  0
  139.9600   75.9820  222.6940 O   0  0  0  0  0  0  0  0  0  0  0  0
  140.4640   76.7460  220.6040 N   0  0  0  0  0  0  0  0  0  0  0  0
  139.3930   77.1860  219.7430 C   0  0  0  0  0  0  0  0  0  0  0  0
  139.6790   78.4260  218.9600 C   0  0  0  0  0  0  0  0  0  0  0  0
  141.0540   78.5580  218.4110 C   0  0  0  0  0  0  0  0  0  0  0  0
  142.0010   77.6330  219.0810 C   0  0  0  0  0  0  0  0  0  0  0  0
  141.7920   77.3940  220.5340 C   0  0  1  0  0  0  0  0  0  0  0  0
  141.8190   78.5350  221.4630 C   0  0  0  0  0  0  0  0  0  0  0  0
  141.1690   78.4250  222.7210 N   0  0  0  0  0  0  0  0  0  0  0  0
  140.0710   79.4310  222.6720 C   0  0  0  0  0  0  0  0  0  0  0  0
  140.8030   80.7380  222.8250 C   0  0  0  0  0  0  0  0  0  0  0  0
  141.9670   80.4350  223.7400 C   0  0  0  0  0  0  0  0  0  0  0  0
  141.8710   78.9380  223.8670 C   0  0  0  0  0  0  0  0  0  0  0  0
  140.1930   71.3230  223.6440 C   0  0  0  0  0  0  0  0  0  0  0  0
  139.5990   70.0800  223.5840 C   0  0  0  0  0  0  0  0  0  0  0  0
  139.4470   69.4060  224.7900 C   0  0  0  0  0  0  0  0  0  0  0  0
  139.8670   69.9530  225.9870 C   0  0  0  0  0  0  0  0  0  0  0  0
  139.7000   69.2600  227.1590 C   0  0  0  0  0  0  0  0  0  0  0  0
  140.1370   69.8470  228.3350 C   0  0  0  0  0  0  0  0  0  0  0  0
  140.7240   71.0980  228.3180 C   0  0  0  0  0  0  0  0  0  0  0  0
  140.8780   71.7720  227.1280 C   0  0  0  0  0  0  0  0  0  0  0  0
  140.4460   71.1980  225.9340 C   0  0  0  0  0  0  0  0  0  0  0  0
  140.6050   71.8650  224.8010 N   0  0  0  0  0  0  0  0  0  0  0  0
  139.6160   73.8600  223.2180 H   0  0  0  0  0  0  0  0  0  0  0  0
  141.1132   73.9834  220.6163 H   0  0  0  0  0  0  0  0  0  0  0  0
  139.3369   74.0579  220.4231 H   0  0  0  0  0  0  0  0  0  0  0  0
  139.1733   76.3765  219.0313 H   0  0  0  0  0  0  0  0  0  0  0  0
  138.5481   77.4288  220.4042 H   0  0  0  0  0  0  0  0  0  0  0  0
  138.9764   78.4574  218.1142 H   0  0  0  0  0  0  0  0  0  0  0  0
  139.5686   79.2550  219.6745 H   0  0  0  0  0  0  0  0  0  0  0  0
  141.0323   78.3291  217.3353 H   0  0  0  0  0  0  0  0  0  0  0  0
  141.3971   79.5882  218.5867 H   0  0  0  0  0  0  0  0  0  0  0  0
  141.9332   76.6608  218.5709 H   0  0  0  0  0  0  0  0  0  0  0  0
  142.9823   78.1247  219.0090 H   0  0  0  0  0  0  0  0  0  0  0  0
  142.6570   76.8110  220.8833 H   0  0  0  0  0  0  0  0  0  0  0  0
  142.8768   78.7571  221.6672 H   0  0  0  0  0  0  0  0  0  0  0  0
  141.2406   79.3101  220.9389 H   0  0  0  0  0  0  0  0  0  0  0  0
  139.5369   79.3870  221.7114 H   0  0  0  0  0  0  0  0  0  0  0  0
  139.3021   79.2717  223.4423 H   0  0  0  0  0  0  0  0  0  0  0  0
  141.1625   81.0954  221.8488 H   0  0  0  0  0  0  0  0  0  0  0  0
  140.1543   81.5275  223.2323 H   0  0  0  0  0  0  0  0  0  0  0  0
  142.9226   80.7390  223.2879 H   0  0  0  0  0  0  0  0  0  0  0  0
  141.9312   80.9687  224.7012 H   0  0  0  0  0  0  0  0  0  0  0  0
  142.8809   78.5039  223.9080 H   0  0  0  0  0  0  0  0  0  0  0  0
  141.3318   78.6725  224.7883 H   0  0  0  0  0  0  0  0  0  0  0  0
  139.2630   69.6446  222.6314 H   0  0  0  0  0  0  0  0  0  0  0  0
  138.9797   68.4102  224.7914 H   0  0  0  0  0  0  0  0  0  0  0  0
  139.2316   68.2647  227.1647 H   0  0  0  0  0  0  0  0  0  0  0  0
  140.0159   69.3136  229.2894 H   0  0  0  0  0  0  0  0  0  0  0  0
  141.0687   71.5557  229.2570 H   0  0  0  0  0  0  0  0  0  0  0  0
  141.3442   72.7683  227.1194 H   0  0  0  0  0  0  0  0  0  0  0  0
  1  2  2  0
  2  3  1  0
  3  4  1  0
  4  5  1  0
  5  6  2  0
  5  7  1  0
  7  8  1  0
  8  9  1  0
  9 10  1  0
 10 11  1  0
 11 12  1  0
 12 13  1  0
 13 14  1  0
 14 15  1  0
 15 16  1  0
 16 17  1  0
 17 18  1  0
  2 19  1  0
 19 20  2  0
 20 21  1  0
 21 22  2  0
 22 23  1  0
 23 24  2  0
 24 25  1  0
 25 26  2  0
 26 27  1  0
 27 28  2  0
 12  7  1  0
 18 14  1  0
 28 19  1  0
 27 22  1  0
  3 29  1  0
  4 30  1  0
  4 31  1  0
  8 32  1  0
  8 33  1  0
  9 34  1  0
  9 35  1  0
 10 36  1  0
 10 37  1  0
 11 38  1  0
 11 39  1  0
 12 40  1  1
 13 41  1  0
 13 42  1  0
 15 43  1  0
 15 44  1  0
 16 45  1  0
 16 46  1  0
 17 47  1  0
 17 48  1  0
 18 49  1  0
 18 50  1  0
 20 51  1  0
 21 52  1  0
 23 53  1  0
 24 54  1  0
 25 55  1  0
 26 56  1  0
M  END
>  <smiles>  (21) 
O=C(NCC(=O)N1CCCC[C@H]1CN1CCCC1)c1ccc2ccccc2n1

>  <score_type>  (21) 
oracle

>  <origin>  (21) 
autodockgpu

>  <m_score__min__energy>  (21) 
-8.5199999999999996

>  <m_primary>  (21) 
energy

>  <rmsd>  (21) 
2.2402135961005887

>  <m_score__min__rmsd>  (21) 
2.2402135961005887

>  <meeko>  (21) 
{"free_energy": -8.23, "intermolecular_energy": -10.02, "internal_energy": -2.18, "cluster_size": 41, "cluster_id": 1, "rank_in_cluster": 28}

>  <energy>  (21) 
-8.37

>  <cluster_rmsd>  (21) 
0.51

>  <cluster>  (21) 
1

$$$$

     RDKit          3D

 56 59  0  0  0  0  0  0  0  0999 V2000
  140.5680   71.3250  221.3280 O   0  0  0  0  0  0  0  0  0  0  0  0
  140.2040   71.8990  222.4060 C   0  0  0  0  0  0  0  0  0  0  0  0
  139.8620   73.2840  222.4030 N   0  0  0  0  0  0  0  0  0  0  0  0
  139.9120   74.0950  221.1900 C   0  0  0  0  0  0  0  0  0  0  0  0
  139.9050   75.5230  221.5820 C   0  0  0  0  0  0  0  0  0  0  0  0
  139.4850   75.8220  222.7290 O   0  0  0  0  0  0  0  0  0  0  0  0
  140.3410   76.5860  220.7560 N   0  0  0  0  0  0  0  0  0  0  0  0
  139.8720   76.6080  219.3910 C   0  0  0  0  0  0  0  0  0  0  0  0
  140.2130   77.8450  218.6260 C   0  0  0  0  0  0  0  0  0  0  0  0
  141.5650   78.4170  218.8610 C   0  0  0  0  0  0  0  0  0  0  0  0
  142.1720   77.8890  220.1090 C   0  0  0  0  0  0  0  0  0  0  0  0
  141.2510   77.6420  221.2510 C   0  0  1  0  0  0  0  0  0  0  0  0
  140.4490   78.7550  221.7840 C   0  0  0  0  0  0  0  0  0  0  0  0
  140.5610   79.1010  223.1570 N   0  0  0  0  0  0  0  0  0  0  0  0
  140.4880   80.5890  223.1810 C   0  0  0  0  0  0  0  0  0  0  0  0
  141.8370   81.0020  222.6570 C   0  0  0  0  0  0  0  0  0  0  0  0
  142.7970   79.9480  223.1550 C   0  0  0  0  0  0  0  0  0  0  0  0
  141.8540   78.9450  223.7670 C   0  0  0  0  0  0  0  0  0  0  0  0
  140.1340   71.1300  223.6650 C   0  0  0  0  0  0  0  0  0  0  0  0
  139.5810   69.8670  223.6350 C   0  0  0  0  0  0  0  0  0  0  0  0
  139.5370   69.1810  224.8420 C   0  0  0  0  0  0  0  0  0  0  0  0
  140.0210   69.7330  226.0120 C   0  0  0  0  0  0  0  0  0  0  0  0
  139.9620   69.0270  227.1860 C   0  0  0  0  0  0  0  0  0  0  0  0
  140.4600   69.6200  228.3340 C   0  0  0  0  0  0  0  0  0  0  0  0
  141.0010   70.8910  228.2880 C   0  0  0  0  0  0  0  0  0  0  0  0
  141.0480   71.5780  227.0960 C   0  0  0  0  0  0  0  0  0  0  0  0
  140.5530   70.9980  225.9310 C   0  0  0  0  0  0  0  0  0  0  0  0
  140.6080   71.6780  224.7950 N   0  0  0  0  0  0  0  0  0  0  0  0
  139.5710   73.6850  223.3340 H   0  0  0  0  0  0  0  0  0  0  0  0
  140.8307   73.8682  220.6291 H   0  0  0  0  0  0  0  0  0  0  0  0
  139.0439   73.8740  220.5515 H   0  0  0  0  0  0  0  0  0  0  0  0
  140.3133   75.7488  218.8647 H   0  0  0  0  0  0  0  0  0  0  0  0
  138.7738   76.5715  219.4427 H   0  0  0  0  0  0  0  0  0  0  0  0
  140.1312   77.6090  217.5547 H   0  0  0  0  0  0  0  0  0  0  0  0
  139.5068   78.6107  218.9795 H   0  0  0  0  0  0  0  0  0  0  0  0
  142.2143   78.1593  218.0113 H   0  0  0  0  0  0  0  0  0  0  0  0
  141.4646   79.5078  218.9617 H   0  0  0  0  0  0  0  0  0  0  0  0
  142.6608   76.9347  219.8633 H   0  0  0  0  0  0  0  0  0  0  0  0
  142.8532   78.6805  220.4548 H   0  0  0  0  0  0  0  0  0  0  0  0
  141.8840   77.3982  222.1169 H   0  0  0  0  0  0  0  0  0  0  0  0
  140.7191   79.6504  221.2050 H   0  0  0  0  0  0  0  0  0  0  0  0
  139.4134   78.3960  221.6909 H   0  0  0  0  0  0  0  0  0  0  0  0
  139.6814   80.9559  222.5293 H   0  0  0  0  0  0  0  0  0  0  0  0
  140.2669   80.9964  224.1786 H   0  0  0  0  0  0  0  0  0  0  0  0
  141.8314   81.0295  221.5574 H   0  0  0  0  0  0  0  0  0  0  0  0
  142.1194   82.0087  222.9989 H   0  0  0  0  0  0  0  0  0  0  0  0
  143.3721   79.5058  222.3281 H   0  0  0  0  0  0  0  0  0  0  0  0
  143.5586   80.3292  223.8511 H   0  0  0  0  0  0  0  0  0  0  0  0
  142.2283   77.9264  223.5872 H   0  0  0  0  0  0  0  0  0  0  0  0
  141.7807   79.1107  224.8520 H   0  0  0  0  0  0  0  0  0  0  0  0
  139.1950   69.4260  222.7041 H   0  0  0  0  0  0  0  0  0  0  0  0
  139.1046   68.1698  224.8668 H   0  0  0  0  0  0  0  0  0  0  0  0
  139.5302   68.0157  227.2151 H   0  0  0  0  0  0  0  0  0  0  0  0
  140.4248   69.0757  229.2892 H   0  0  0  0  0  0  0  0  0  0  0  0
  141.3945   71.3541  229.2049 H   0  0  0  0  0  0  0  0  0  0  0  0
  141.4786   72.5897  227.0637 H   0  0  0  0  0  0  0  0  0  0  0  0
  1  2  2  0
  2  3  1  0
  3  4  1  0
  4  5  1  0
  5  6  2  0
  5  7  1  0
  7  8  1  0
  8  9  1  0
  9 10  1  0
 10 11  1  0
 11 12  1  0
 12 13  1  0
 13 14  1  0
 14 15  1  0
 15 16  1  0
 16 17  1  0
 17 18  1  0
  2 19  1  0
 19 20  2  0
 20 21  1  0
 21 22  2  0
 22 23  1  0
 23 24  2  0
 24 25  1  0
 25 26  2  0
 26 27  1  0
 27 28  2  0
 12  7  1  0
 18 14  1  0
 28 19  1  0
 27 22  1  0
  3 29  1  0
  4 30  1  0
  4 31  1  0
  8 32  1  0
  8 33  1  0
  9 34  1  0
  9 35  1  0
 10 36  1  0
 10 37  1  0
 11 38  1  0
 11 39  1  0
 12 40  1  1
 13 41  1  0
 13 42  1  0
 15 43  1  0
 15 44  1  0
 16 45  1  0
 16 46  1  0
 17 47  1  0
 17 48  1  0
 18 49  1  0
 18 50  1  0
 20 51  1  0
 21 52  1  0
 23 53  1  0
 24 54  1  0
 25 55  1  0
 26 56  1  0
M  END
>  <smiles>  (22) 
O=C(NCC(=O)N1CCCC[C@H]1CN1CCCC1)c1ccc2ccccc2n1

>  <score_type>  (22) 
oracle

>  <origin>  (22) 
autodockgpu

>  <m_score__min__energy>  (22) 
-8.5199999999999996

>  <m_primary>  (22) 
energy

>  <rmsd>  (22) 
2.198272562707405

>  <m_score__min__rmsd>  (22) 
2.198272562707405

>  <meeko>  (22) 
{"free_energy": -8.46, "intermolecular_energy": -10.25, "internal_energy": -2.11, "cluster_size": 41, "cluster_id": 1, "rank_in_cluster": 9}

>  <energy>  (22) 
-8.35

>  <cluster_rmsd>  (22) 
0.73

>  <cluster>  (22) 
1

$$$$

     RDKit          3D

 56 59  0  0  0  0  0  0  0  0999 V2000
  140.8580   71.4500  221.3670 O   0  0  0  0  0  0  0  0  0  0  0  0
  140.3730   72.0240  222.3960 C   0  0  0  0  0  0  0  0  0  0  0  0
  139.9680   73.3910  222.3340 N   0  0  0  0  0  0  0  0  0  0  0  0
  140.0890   74.1840  221.1140 C   0  0  0  0  0  0  0  0  0  0  0  0
  140.0330   75.6170  221.4820 C   0  0  0  0  0  0  0  0  0  0  0  0
  139.6500   75.9190  222.6410 O   0  0  0  0  0  0  0  0  0  0  0  0
  140.3810   76.6820  220.6190 N   0  0  0  0  0  0  0  0  0  0  0  0
  139.6680   76.7930  219.3690 C   0  0  0  0  0  0  0  0  0  0  0  0
  139.9480   78.0360  218.5880 C   0  0  0  0  0  0  0  0  0  0  0  0
  141.3580   78.5060  218.5780 C   0  0  0  0  0  0  0  0  0  0  0  0
  142.1480   77.8880  219.6730 C   0  0  0  0  0  0  0  0  0  0  0  0
  141.4420   77.6550  220.9610 C   0  0  1  0  0  0  0  0  0  0  0  0
  140.8380   78.7950  221.6690 C   0  0  0  0  0  0  0  0  0  0  0  0
  140.7070   78.7490  223.0820 N   0  0  0  0  0  0  0  0  0  0  0  0
  140.1710   80.0870  223.4580 C   0  0  0  0  0  0  0  0  0  0  0  0
  141.3650   80.9880  223.2970 C   0  0  0  0  0  0  0  0  0  0  0  0
  142.5560   80.1420  223.6820 C   0  0  0  0  0  0  0  0  0  0  0  0
  141.9210   78.7860  223.8530 C   0  0  0  0  0  0  0  0  0  0  0  0
  140.2270   71.2730  223.6590 C   0  0  0  0  0  0  0  0  0  0  0  0
  139.5980   70.0460  223.6270 C   0  0  0  0  0  0  0  0  0  0  0  0
  139.4840   69.3750  224.8380 C   0  0  0  0  0  0  0  0  0  0  0  0
  139.9740   69.9080  226.0140 C   0  0  0  0  0  0  0  0  0  0  0  0
  139.8440   69.2180  227.1920 C   0  0  0  0  0  0  0  0  0  0  0  0
  140.3510   69.7900  228.3470 C   0  0  0  0  0  0  0  0  0  0  0  0
  140.9710   71.0250  228.3030 C   0  0  0  0  0  0  0  0  0  0  0  0
  141.0870   71.6960  227.1070 C   0  0  0  0  0  0  0  0  0  0  0  0
  140.5840   71.1370  225.9350 C   0  0  0  0  0  0  0  0  0  0  0  0
  140.7080   71.8010  224.7960 N   0  0  0  0  0  0  0  0  0  0  0  0
  139.5780   73.7920  223.2280 H   0  0  0  0  0  0  0  0  0  0  0  0
  141.0475   73.9640  220.6212 H   0  0  0  0  0  0  0  0  0  0  0  0
  139.2709   73.9391  220.4207 H   0  0  0  0  0  0  0  0  0  0  0  0
  139.9393   75.9294  218.7440 H   0  0  0  0  0  0  0  0  0  0  0  0
  138.5994   76.8278  219.6277 H   0  0  0  0  0  0  0  0  0  0  0  0
  139.6495   77.8508  217.5456 H   0  0  0  0  0  0  0  0  0  0  0  0
  139.3781   78.8316  219.0903 H   0  0  0  0  0  0  0  0  0  0  0  0
  141.8159   78.2405  217.6137 H   0  0  0  0  0  0  0  0  0  0  0  0
  141.3584   79.5960  218.7263 H   0  0  0  0  0  0  0  0  0  0  0  0
  142.5118   76.9146  219.3123 H   0  0  0  0  0  0  0  0  0  0  0  0
  142.9372   78.6181  219.9057 H   0  0  0  0  0  0  0  0  0  0  0  0
  142.2072   77.3341  221.6832 H   0  0  0  0  0  0  0  0  0  0  0  0
  141.4488   79.6788  221.4327 H   0  0  0  0  0  0  0  0  0  0  0  0
  139.7974   78.7993  221.3125 H   0  0  0  0  0  0  0  0  0  0  0  0
  139.3545   80.3889  222.7856 H   0  0  0  0  0  0  0  0  0  0  0  0
  139.7421   80.1129  224.4706 H   0  0  0  0  0  0  0  0  0  0  0  0
  141.4541   81.3274  222.2545 H   0  0  0  0  0  0  0  0  0  0  0  0
  141.2846   81.8914  223.9194 H   0  0  0  0  0  0  0  0  0  0  0  0
  143.3156   80.1322  222.8864 H   0  0  0  0  0  0  0  0  0  0  0  0
  143.0912   80.5014  224.5733 H   0  0  0  0  0  0  0  0  0  0  0  0
  142.6103   78.0061  223.4971 H   0  0  0  0  0  0  0  0  0  0  0  0
  141.6982   78.6058  224.9150 H   0  0  0  0  0  0  0  0  0  0  0  0
  139.2069   69.6207  222.6910 H   0  0  0  0  0  0  0  0  0  0  0  0
  138.9900   68.3924  224.8608 H   0  0  0  0  0  0  0  0  0  0  0  0
  139.3498   68.2356  227.2189 H   0  0  0  0  0  0  0  0  0  0  0  0
  140.2598   69.2582  229.3056 H   0  0  0  0  0  0  0  0  0  0  0  0
  141.3719   71.4717  229.2248 H   0  0  0  0  0  0  0  0  0  0  0  0
  141.5797   72.6790  227.0767 H   0  0  0  0  0  0  0  0  0  0  0  0
  1  2  2  0
  2  3  1  0
  3  4  1  0
  4  5  1  0
  5  6  2  0
  5  7  1  0
  7  8  1  0
  8  9  1  0
  9 10  1  0
 10 11  1  0
 11 12  1  0
 12 13  1  0
 13 14  1  0
 14 15  1  0
 15 16  1  0
 16 17  1  0
 17 18  1  0
  2 19  1  0
 19 20  2  0
 20 21  1  0
 21 22  2  0
 22 23  1  0
 23 24  2  0
 24 25  1  0
 25 26  2  0
 26 27  1  0
 27 28  2  0
 12  7  1  0
 18 14  1  0
 28 19  1  0
 27 22  1  0
  3 29  1  0
  4 30  1  0
  4 31  1  0
  8 32  1  0
  8 33  1  0
  9 34  1  0
  9 35  1  0
 10 36  1  0
 10 37  1  0
 11 38  1  0
 11 39  1  0
 12 40  1  1
 13 41  1  0
 13 42  1  0
 15 43  1  0
 15 44  1  0
 16 45  1  0
 16 46  1  0
 17 47  1  0
 17 48  1  0
 18 49  1  0
 18 50  1  0
 20 51  1  0
 21 52  1  0
 23 53  1  0
 24 54  1  0
 25 55  1  0
 26 56  1  0
M  END
>  <smiles>  (23) 
O=C(NCC(=O)N1CCCC[C@H]1CN1CCCC1)c1ccc2ccccc2n1

>  <score_type>  (23) 
oracle

>  <origin>  (23) 
autodockgpu

>  <m_score__min__energy>  (23) 
-8.5199999999999996

>  <m_primary>  (23) 
energy

>  <rmsd>  (23) 
2.2326304376561805

>  <m_score__min__rmsd>  (23) 
2.2326304376561805

>  <meeko>  (23) 
{"free_energy": -8.49, "intermolecular_energy": -10.28, "internal_energy": -2.06, "cluster_size": 41, "cluster_id": 1, "rank_in_cluster": 5}

>  <energy>  (23) 
-8.35

>  <cluster_rmsd>  (23) 
0.58

>  <cluster>  (23) 
1

$$$$

     RDKit          3D

 56 59  0  0  0  0  0  0  0  0999 V2000
  140.4560   71.3490  221.2980 O   0  0  0  0  0  0  0  0  0  0  0  0
  140.1480   71.9400  222.3830 C   0  0  0  0  0  0  0  0  0  0  0  0
  139.8430   73.3340  222.3830 N   0  0  0  0  0  0  0  0  0  0  0  0
  139.8700   74.1360  221.1630 C   0  0  0  0  0  0  0  0  0  0  0  0
  139.9100   75.5660  221.5460 C   0  0  0  0  0  0  0  0  0  0  0  0
  139.5430   75.8820  222.7060 O   0  0  0  0  0  0  0  0  0  0  0  0
  140.3350   76.6130  220.6960 N   0  0  0  0  0  0  0  0  0  0  0  0
  139.8080   76.6420  219.3520 C   0  0  0  0  0  0  0  0  0  0  0  0
  140.1460   77.8660  218.5660 C   0  0  0  0  0  0  0  0  0  0  0  0
  141.5210   78.4040  218.7380 C   0  0  0  0  0  0  0  0  0  0  0  0
  142.1680   77.8670  219.9620 C   0  0  0  0  0  0  0  0  0  0  0  0
  141.2920   77.6480  221.1440 C   0  0  1  0  0  0  0  0  0  0  0  0
  140.5420   78.7840  221.7050 C   0  0  0  0  0  0  0  0  0  0  0  0
  140.5570   79.0040  223.1080 N   0  0  0  0  0  0  0  0  0  0  0  0
  140.3200   80.4660  223.2660 C   0  0  0  0  0  0  0  0  0  0  0  0
  141.6370   81.0690  222.8550 C   0  0  0  0  0  0  0  0  0  0  0  0
  142.6840   80.0770  223.3050 C   0  0  0  0  0  0  0  0  0  0  0  0
  141.8320   78.9260  223.7700 C   0  0  0  0  0  0  0  0  0  0  0  0
  140.1050   71.1810  223.6500 C   0  0  0  0  0  0  0  0  0  0  0  0
  139.5840   69.9040  223.6350 C   0  0  0  0  0  0  0  0  0  0  0  0
  139.5640   69.2280  224.8480 C   0  0  0  0  0  0  0  0  0  0  0  0
  140.0410   69.8030  226.0100 C   0  0  0  0  0  0  0  0  0  0  0  0
  140.0060   69.1060  227.1910 C   0  0  0  0  0  0  0  0  0  0  0  0
  140.4950   69.7220  228.3300 C   0  0  0  0  0  0  0  0  0  0  0  0
  141.0040   71.0060  228.2700 C   0  0  0  0  0  0  0  0  0  0  0  0
  141.0260   71.6830  227.0720 C   0  0  0  0  0  0  0  0  0  0  0  0
  140.5390   71.0800  225.9140 C   0  0  0  0  0  0  0  0  0  0  0  0
  140.5710   71.7510  224.7730 N   0  0  0  0  0  0  0  0  0  0  0  0
  139.5990   73.7480  223.3220 H   0  0  0  0  0  0  0  0  0  0  0  0
  140.7631   73.8842  220.5723 H   0  0  0  0  0  0  0  0  0  0  0  0
  138.9758   73.9317  220.5558 H   0  0  0  0  0  0  0  0  0  0  0  0
  140.2042   75.7696  218.8116 H   0  0  0  0  0  0  0  0  0  0  0  0
  138.7126   76.6345  219.4519 H   0  0  0  0  0  0  0  0  0  0  0  0
  140.0110   77.6273  217.5007 H   0  0  0  0  0  0  0  0  0  0  0  0
  139.4757   78.6511  218.9459 H   0  0  0  0  0  0  0  0  0  0  0  0
  142.1258   78.1250  217.8626 H   0  0  0  0  0  0  0  0  0  0  0  0
  141.4533   79.4976  218.8357 H   0  0  0  0  0  0  0  0  0  0  0  0
  142.6223   76.8998  219.7010 H   0  0  0  0  0  0  0  0  0  0  0  0
  142.8822   78.6434  220.2736 H   0  0  0  0  0  0  0  0  0  0  0  0
  141.9562   77.3916  221.9826 H   0  0  0  0  0  0  0  0  0  0  0  0
  140.9396   79.6948  221.2335 H   0  0  0  0  0  0  0  0  0  0  0  0
  139.4924   78.5323  221.4928 H   0  0  0  0  0  0  0  0  0  0  0  0
  139.5065   80.8079  222.6092 H   0  0  0  0  0  0  0  0  0  0  0  0
  140.0131   80.7479  224.2840 H   0  0  0  0  0  0  0  0  0  0  0  0
  141.6762   81.2030  221.7639 H   0  0  0  0  0  0  0  0  0  0  0  0
  141.7921   82.0620  223.3021 H   0  0  0  0  0  0  0  0  0  0  0  0
  143.3396   79.7804  222.4730 H   0  0  0  0  0  0  0  0  0  0  0  0
  143.3677   80.4664  224.0738 H   0  0  0  0  0  0  0  0  0  0  0  0
  142.3235   77.9749  223.5173 H   0  0  0  0  0  0  0  0  0  0  0  0
  141.6939   78.9762  224.8601 H   0  0  0  0  0  0  0  0  0  0  0  0
  139.2041   69.4449  222.7104 H   0  0  0  0  0  0  0  0  0  0  0  0
  139.1571   68.2067  224.8845 H   0  0  0  0  0  0  0  0  0  0  0  0
  139.6000   68.0845  227.2318 H   0  0  0  0  0  0  0  0  0  0  0  0
  140.4785   69.1858  229.2903 H   0  0  0  0  0  0  0  0  0  0  0  0
  141.3916   71.4868  229.1803 H   0  0  0  0  0  0  0  0  0  0  0  0
  141.4300   72.7052  227.0284 H   0  0  0  0  0  0  0  0  0  0  0  0
  1  2  2  0
  2  3  1  0
  3  4  1  0
  4  5  1  0
  5  6  2  0
  5  7  1  0
  7  8  1  0
  8  9  1  0
  9 10  1  0
 10 11  1  0
 11 12  1  0
 12 13  1  0
 13 14  1  0
 14 15  1  0
 15 16  1  0
 16 17  1  0
 17 18  1  0
  2 19  1  0
 19 20  2  0
 20 21  1  0
 21 22  2  0
 22 23  1  0
 23 24  2  0
 24 25  1  0
 25 26  2  0
 26 27  1  0
 27 28  2  0
 12  7  1  0
 18 14  1  0
 28 19  1  0
 27 22  1  0
  3 29  1  0
  4 30  1  0
  4 31  1  0
  8 32  1  0
  8 33  1  0
  9 34  1  0
  9 35  1  0
 10 36  1  0
 10 37  1  0
 11 38  1  0
 11 39  1  0
 12 40  1  1
 13 41  1  0
 13 42  1  0
 15 43  1  0
 15 44  1  0
 16 45  1  0
 16 46  1  0
 17 47  1  0
 17 48  1  0
 18 49  1  0
 18 50  1  0
 20 51  1  0
 21 52  1  0
 23 53  1  0
 24 54  1  0
 25 55  1  0
 26 56  1  0
M  END
>  <smiles>  (24) 
O=C(NCC(=O)N1CCCC[C@H]1CN1CCCC1)c1ccc2ccccc2n1

>  <score_type>  (24) 
oracle

>  <origin>  (24) 
autodockgpu

>  <m_score__min__energy>  (24) 
-8.5199999999999996

>  <m_primary>  (24) 
energy

>  <rmsd>  (24) 
2.1736010972253825

>  <m_score__min__rmsd>  (24) 
2.1736010972253825

>  <meeko>  (24) 
{"free_energy": -8.46, "intermolecular_energy": -10.25, "internal_energy": -2.12, "cluster_size": 41, "cluster_id": 1, "rank_in_cluster": 8}

>  <energy>  (24) 
-8.35

>  <cluster_rmsd>  (24) 
0.49

>  <cluster>  (24) 
1

$$$$

     RDKit          3D

 56 59  0  0  0  0  0  0  0  0999 V2000
  140.6170   71.3960  221.2850 O   0  0  0  0  0  0  0  0  0  0  0  0
  140.1550   71.9920  222.3120 C   0  0  0  0  0  0  0  0  0  0  0  0
  139.6840   73.3350  222.2130 N   0  0  0  0  0  0  0  0  0  0  0  0
  139.7100   74.0780  220.9560 C   0  0  0  0  0  0  0  0  0  0  0  0
  139.8780   75.5160  221.2670 C   0  0  0  0  0  0  0  0  0  0  0  0
  139.4230   75.9460  222.3570 O   0  0  0  0  0  0  0  0  0  0  0  0
  140.5190   76.4510  220.4210 N   0  0  0  0  0  0  0  0  0  0  0  0
  139.9130   76.7210  219.1390 C   0  0  0  0  0  0  0  0  0  0  0  0
  140.5280   77.8460  218.3720 C   0  0  0  0  0  0  0  0  0  0  0  0
  142.0100   77.9510  218.4280 C   0  0  0  0  0  0  0  0  0  0  0  0
  142.5710   77.1690  219.5570 C   0  0  0  0  0  0  0  0  0  0  0  0
  141.7730   77.1330  220.8120 C   0  0  1  0  0  0  0  0  0  0  0  0
  141.4400   78.3960  221.4900 C   0  0  0  0  0  0  0  0  0  0  0  0
  140.9240   78.3620  222.8130 N   0  0  0  0  0  0  0  0  0  0  0  0
  140.0270   79.5480  222.9030 C   0  0  0  0  0  0  0  0  0  0  0  0
  140.9940   80.6980  222.9880 C   0  0  0  0  0  0  0  0  0  0  0  0
  142.1780   80.1640  223.7590 C   0  0  0  0  0  0  0  0  0  0  0  0
  141.8290   78.7030  223.8770 C   0  0  0  0  0  0  0  0  0  0  0  0
  140.1050   71.2920  223.6120 C   0  0  0  0  0  0  0  0  0  0  0  0
  139.5530   70.0290  223.6580 C   0  0  0  0  0  0  0  0  0  0  0  0
  139.5280   69.4090  224.9010 C   0  0  0  0  0  0  0  0  0  0  0  0
  140.0280   70.0240  226.0320 C   0  0  0  0  0  0  0  0  0  0  0  0
  139.9870   69.3820  227.2430 C   0  0  0  0  0  0  0  0  0  0  0  0
  140.5000   70.0370  228.3500 C   0  0  0  0  0  0  0  0  0  0  0  0
  141.0390   71.3040  228.2280 C   0  0  0  0  0  0  0  0  0  0  0  0
  141.0670   71.9260  227.0000 C   0  0  0  0  0  0  0  0  0  0  0  0
  140.5560   71.2840  225.8750 C   0  0  0  0  0  0  0  0  0  0  0  0
  140.5940   71.9010  224.7040 N   0  0  0  0  0  0  0  0  0  0  0  0
  139.3180   73.7580  223.1070 H   0  0  0  0  0  0  0  0  0  0  0  0
  140.5503   73.7311  220.3366 H   0  0  0  0  0  0  0  0  0  0  0  0
  138.7730   73.9178  220.4025 H   0  0  0  0  0  0  0  0  0  0  0  0
  139.9890   75.8099  218.5274 H   0  0  0  0  0  0  0  0  0  0  0  0
  138.8761   77.0231  219.3477 H   0  0  0  0  0  0  0  0  0  0  0  0
  140.2403   77.7285  217.3168 H   0  0  0  0  0  0  0  0  0  0  0  0
  140.1515   78.7640  218.8469 H   0  0  0  0  0  0  0  0  0  0  0  0
  142.4307   77.5697  217.4859 H   0  0  0  0  0  0  0  0  0  0  0  0
  142.2744   79.0083  218.5770 H   0  0  0  0  0  0  0  0  0  0  0  0
  142.6966   76.1317  219.2130 H   0  0  0  0  0  0  0  0  0  0  0  0
  143.5057   77.6829  219.8258 H   0  0  0  0  0  0  0  0  0  0  0  0
  142.4011   76.6400  221.5686 H   0  0  0  0  0  0  0  0  0  0  0  0
  142.3615   78.9959  221.5208 H   0  0  0  0  0  0  0  0  0  0  0  0
  140.6055   78.7971  220.8962 H   0  0  0  0  0  0  0  0  0  0  0  0
  139.3910   79.6314  222.0094 H   0  0  0  0  0  0  0  0  0  0  0  0
  139.3319   79.5022  223.7543 H   0  0  0  0  0  0  0  0  0  0  0  0
  141.3017   81.0183  221.9817 H   0  0  0  0  0  0  0  0  0  0  0  0
  140.5468   81.5757  223.4775 H   0  0  0  0  0  0  0  0  0  0  0  0
  143.1167   80.3089  223.2041 H   0  0  0  0  0  0  0  0  0  0  0  0
  142.3452   80.6635  224.7247 H   0  0  0  0  0  0  0  0  0  0  0  0
  142.7426   78.0957  223.7958 H   0  0  0  0  0  0  0  0  0  0  0  0
  141.3567   78.5061  224.8507 H   0  0  0  0  0  0  0  0  0  0  0  0
  139.1536   69.5385  222.7581 H   0  0  0  0  0  0  0  0  0  0  0  0
  139.0980   68.4002  224.9868 H   0  0  0  0  0  0  0  0  0  0  0  0
  139.5579   68.3732  227.3327 H   0  0  0  0  0  0  0  0  0  0  0  0
  140.4784   69.5454  229.3338 H   0  0  0  0  0  0  0  0  0  0  0  0
  141.4459   71.8157  229.1127 H   0  0  0  0  0  0  0  0  0  0  0  0
  141.4951   72.9350  226.9072 H   0  0  0  0  0  0  0  0  0  0  0  0
  1  2  2  0
  2  3  1  0
  3  4  1  0
  4  5  1  0
  5  6  2  0
  5  7  1  0
  7  8  1  0
  8  9  1  0
  9 10  1  0
 10 11  1  0
 11 12  1  0
 12 13  1  0
 13 14  1  0
 14 15  1  0
 15 16  1  0
 16 17  1  0
 17 18  1  0
  2 19  1  0
 19 20  2  0
 20 21  1  0
 21 22  2  0
 22 23  1  0
 23 24  2  0
 24 25  1  0
 25 26  2  0
 26 27  1  0
 27 28  2  0
 12  7  1  0
 18 14  1  0
 28 19  1  0
 27 22  1  0
  3 29  1  0
  4 30  1  0
  4 31  1  0
  8 32  1  0
  8 33  1  0
  9 34  1  0
  9 35  1  0
 10 36  1  0
 10 37  1  0
 11 38  1  0
 11 39  1  0
 12 40  1  1
 13 41  1  0
 13 42  1  0
 15 43  1  0
 15 44  1  0
 16 45  1  0
 16 46  1  0
 17 47  1  0
 17 48  1  0
 18 49  1  0
 18 50  1  0
 20 51  1  0
 21 52  1  0
 23 53  1  0
 24 54  1  0
 25 55  1  0
 26 56  1  0
M  END
>  <smiles>  (25) 
O=C(NCC(=O)N1CCCC[C@H]1CN1CCCC1)c1ccc2ccccc2n1

>  <score_type>  (25) 
oracle

>  <origin>  (25) 
autodockgpu

>  <m_score__min__energy>  (25) 
-8.5199999999999996

>  <m_primary>  (25) 
energy

>  <rmsd>  (25) 
2.163142370777294

>  <m_score__min__rmsd>  (25) 
2.163142370777294

>  <meeko>  (25) 
{"free_energy": -8.41, "intermolecular_energy": -10.2, "internal_energy": -1.97, "cluster_size": 41, "cluster_id": 1, "rank_in_cluster": 15}

>  <energy>  (25) 
-8.31

>  <cluster_rmsd>  (25) 
0.62

>  <cluster>  (25) 
1

$$$$

     RDKit          3D

 56 59  0  0  0  0  0  0  0  0999 V2000
  140.6100   71.3970  221.3230 O   0  0  0  0  0  0  0  0  0  0  0  0
  140.2160   71.9820  222.3840 C   0  0  0  0  0  0  0  0  0  0  0  0
  139.8900   73.3710  222.3610 N   0  0  0  0  0  0  0  0  0  0  0  0
  139.9920   74.1750  221.1460 C   0  0  0  0  0  0  0  0  0  0  0  0
  140.0060   75.6040  221.5310 C   0  0  0  0  0  0  0  0  0  0  0  0
  139.6720   75.9070  222.7050 O   0  0  0  0  0  0  0  0  0  0  0  0
  140.3720   76.6650  220.6700 N   0  0  0  0  0  0  0  0  0  0  0  0
  139.7640   76.7050  219.3610 C   0  0  0  0  0  0  0  0  0  0  0  0
  140.0450   77.9410  218.5700 C   0  0  0  0  0  0  0  0  0  0  0  0
  141.4230   78.4880  218.6660 C   0  0  0  0  0  0  0  0  0  0  0  0
  142.1470   77.9420  219.8420 C   0  0  0  0  0  0  0  0  0  0  0  0
  141.3460   77.7030  221.0720 C   0  0  1  0  0  0  0  0  0  0  0  0
  140.6230   78.8250  221.6910 C   0  0  0  0  0  0  0  0  0  0  0  0
  140.5670   78.9220  223.1070 N   0  0  0  0  0  0  0  0  0  0  0  0
  140.1900   80.3380  223.3760 C   0  0  0  0  0  0  0  0  0  0  0  0
  141.4580   81.0900  223.0750 C   0  0  0  0  0  0  0  0  0  0  0  0
  142.5760   80.1600  223.4850 C   0  0  0  0  0  0  0  0  0  0  0  0
  141.8190   78.9010  223.8140 C   0  0  0  0  0  0  0  0  0  0  0  0
  140.0940   71.2220  223.6440 C   0  0  0  0  0  0  0  0  0  0  0  0
  139.5650   69.9490  223.5970 C   0  0  0  0  0  0  0  0  0  0  0  0
  139.4700   69.2710  224.8050 C   0  0  0  0  0  0  0  0  0  0  0  0
  139.8830   69.8410  225.9940 C   0  0  0  0  0  0  0  0  0  0  0  0
  139.7740   69.1430  227.1700 C   0  0  0  0  0  0  0  0  0  0  0  0
  140.2010   69.7540  228.3370 C   0  0  0  0  0  0  0  0  0  0  0  0
  140.7210   71.0340  228.3090 C   0  0  0  0  0  0  0  0  0  0  0  0
  140.8180   71.7130  227.1150 C   0  0  0  0  0  0  0  0  0  0  0  0
  140.3950   71.1150  225.9300 C   0  0  0  0  0  0  0  0  0  0  0  0
  140.4980   71.7870  224.7930 N   0  0  0  0  0  0  0  0  0  0  0  0
  139.5730   73.7810  223.2800 H   0  0  0  0  0  0  0  0  0  0  0  0
  140.9207   73.9250  220.6120 H   0  0  0  0  0  0  0  0  0  0  0  0
  139.1373   73.9702  220.4845 H   0  0  0  0  0  0  0  0  0  0  0  0
  140.1328   75.8419  218.7873 H   0  0  0  0  0  0  0  0  0  0  0  0
  138.6768   76.6878  219.5272 H   0  0  0  0  0  0  0  0  0  0  0  0
  139.8484   77.7131  217.5120 H   0  0  0  0  0  0  0  0  0  0  0  0
  139.3925   78.7163  218.9980 H   0  0  0  0  0  0  0  0  0  0  0  0
  141.9761   78.2246  217.7524 H   0  0  0  0  0  0  0  0  0  0  0  0
  141.3527   79.5796  218.7816 H   0  0  0  0  0  0  0  0  0  0  0  0
  142.5912   76.9813  219.5425 H   0  0  0  0  0  0  0  0  0  0  0  0
  142.8736   78.7201  220.1189 H   0  0  0  0  0  0  0  0  0  0  0  0
  142.0617   77.4436  221.8660 H   0  0  0  0  0  0  0  0  0  0  0  0
  141.0926   79.7498  221.3248 H   0  0  0  0  0  0  0  0  0  0  0  0
  139.5763   78.6506  221.4013 H   0  0  0  0  0  0  0  0  0  0  0  0
  139.3723   80.6616  222.7152 H   0  0  0  0  0  0  0  0  0  0  0  0
  139.8223   80.5012  224.3998 H   0  0  0  0  0  0  0  0  0  0  0  0
  141.5233   81.3223  222.0018 H   0  0  0  0  0  0  0  0  0  0  0  0
  141.5041   82.0498  223.6103 H   0  0  0  0  0  0  0  0  0  0  0  0
  143.2855   79.9976  222.6602 H   0  0  0  0  0  0  0  0  0  0  0  0
  143.1926   80.5401  224.3129 H   0  0  0  0  0  0  0  0  0  0  0  0
  142.4055   78.0238  223.5035 H   0  0  0  0  0  0  0  0  0  0  0  0
  141.6384   78.8427  224.8975 H   0  0  0  0  0  0  0  0  0  0  0  0
  139.2354   69.4943  222.6512 H   0  0  0  0  0  0  0  0  0  0  0  0
  139.0547   68.2525  224.8157 H   0  0  0  0  0  0  0  0  0  0  0  0
  139.3583   68.1247  227.1855 H   0  0  0  0  0  0  0  0  0  0  0  0
  140.1257   69.2163  229.2937 H   0  0  0  0  0  0  0  0  0  0  0  0
  141.0577   71.5109  229.2413 H   0  0  0  0  0  0  0  0  0  0  0  0
  141.2313   72.7322  227.0968 H   0  0  0  0  0  0  0  0  0  0  0  0
  1  2  2  0
  2  3  1  0
  3  4  1  0
  4  5  1  0
  5  6  2  0
  5  7  1  0
  7  8  1  0
  8  9  1  0
  9 10  1  0
 10 11  1  0
 11 12  1  0
 12 13  1  0
 13 14  1  0
 14 15  1  0
 15 16  1  0
 16 17  1  0
 17 18  1  0
  2 19  1  0
 19 20  2  0
 20 21  1  0
 21 22  2  0
 22 23  1  0
 23 24  2  0
 24 25  1  0
 25 26  2  0
 26 27  1  0
 27 28  2  0
 12  7  1  0
 18 14  1  0
 28 19  1  0
 27 22  1  0
  3 29  1  0
  4 30  1  0
  4 31  1  0
  8 32  1  0
  8 33  1  0
  9 34  1  0
  9 35  1  0
 10 36  1  0
 10 37  1  0
 11 38  1  0
 11 39  1  0
 12 40  1  1
 13 41  1  0
 13 42  1  0
 15 43  1  0
 15 44  1  0
 16 45  1  0
 16 46  1  0
 17 47  1  0
 17 48  1  0
 18 49  1  0
 18 50  1  0
 20 51  1  0
 21 52  1  0
 23 53  1  0
 24 54  1  0
 25 55  1  0
 26 56  1  0
M  END
>  <smiles>  (26) 
O=C(NCC(=O)N1CCCC[C@H]1CN1CCCC1)c1ccc2ccccc2n1

>  <score_type>  (26) 
oracle

>  <origin>  (26) 
autodockgpu

>  <m_score__min__energy>  (26) 
-8.5199999999999996

>  <m_primary>  (26) 
energy

>  <rmsd>  (26) 
2.1938742745694833

>  <m_score__min__rmsd>  (26) 
2.1938742745694833

>  <meeko>  (26) 
{"free_energy": -8.46, "intermolecular_energy": -10.25, "internal_energy": -2.12, "cluster_size": 41, "cluster_id": 1, "rank_in_cluster": 7}

>  <energy>  (26) 
-8.28

>  <cluster_rmsd>  (26) 
0.48

>  <cluster>  (26) 
1

$$$$

     RDKit          3D

 56 59  0  0  0  0  0  0  0  0999 V2000
  140.4220   71.1040  221.2280 O   0  0  0  0  0  0  0  0  0  0  0  0
  140.1710   71.7870  222.2730 C   0  0  0  0  0  0  0  0  0  0  0  0
  139.9970   73.2010  222.1840 N   0  0  0  0  0  0  0  0  0  0  0  0
  140.0970   73.9190  220.9170 C   0  0  0  0  0  0  0  0  0  0  0  0
  140.8950   75.1460  221.1380 C   0  0  0  0  0  0  0  0  0  0  0  0
  140.9420   75.6240  222.3000 O   0  0  0  0  0  0  0  0  0  0  0  0
  141.6150   75.8290  220.1290 N   0  0  0  0  0  0  0  0  0  0  0  0
  141.4620   77.2620  220.0500 C   0  0  0  0  0  0  0  0  0  0  0  0
  142.3830   77.9450  219.0930 C   0  0  0  0  0  0  0  0  0  0  0  0
  142.6370   77.2440  217.8070 C   0  0  0  0  0  0  0  0  0  0  0  0
  142.2540   75.8120  217.8800 C   0  0  0  0  0  0  0  0  0  0  0  0
  142.4920   75.1180  219.1740 C   0  0  1  0  0  0  0  0  0  0  0  0
  143.8570   75.0660  219.7230 C   0  0  0  0  0  0  0  0  0  0  0  0
  144.1260   74.2370  220.8440 N   0  0  0  0  0  0  0  0  0  0  0  0
  145.5990   74.0170  220.8090 C   0  0  0  0  0  0  0  0  0  0  0  0
  145.7700   73.0470  219.6710 C   0  0  0  0  0  0  0  0  0  0  0  0
  144.5360   72.1760  219.7050 C   0  0  0  0  0  0  0  0  0  0  0  0
  143.7070   72.8640  220.7580 C   0  0  0  0  0  0  0  0  0  0  0  0
  140.0590   71.1160  223.5840 C   0  0  0  0  0  0  0  0  0  0  0  0
  139.4850   69.8630  223.6350 C   0  0  0  0  0  0  0  0  0  0  0  0
  139.4010   69.2700  224.8890 C   0  0  0  0  0  0  0  0  0  0  0  0
  139.8670   69.9020  226.0250 C   0  0  0  0  0  0  0  0  0  0  0  0
  139.7680   69.2870  227.2480 C   0  0  0  0  0  0  0  0  0  0  0  0
  140.2490   69.9570  228.3600 C   0  0  0  0  0  0  0  0  0  0  0  0
  140.8130   71.2130  228.2320 C   0  0  0  0  0  0  0  0  0  0  0  0
  140.8990   71.8070  226.9940 C   0  0  0  0  0  0  0  0  0  0  0  0
  140.4210   71.1490  225.8630 C   0  0  0  0  0  0  0  0  0  0  0  0
  140.5150   71.7400  224.6820 N   0  0  0  0  0  0  0  0  0  0  0  0
  139.7930   73.6940  223.0940 H   0  0  0  0  0  0  0  0  0  0  0  0
  140.5920   73.2836  220.1678 H   0  0  0  0  0  0  0  0  0  0  0  0
  139.0935   74.1812  220.5506 H   0  0  0  0  0  0  0  0  0  0  0  0
  140.4285   77.4780  219.7415 H   0  0  0  0  0  0  0  0  0  0  0  0
  141.7117   77.6525  221.0476 H   0  0  0  0  0  0  0  0  0  0  0  0
  141.9520   78.9295  218.8583 H   0  0  0  0  0  0  0  0  0  0  0  0
  143.3573   77.9845  219.6021 H   0  0  0  0  0  0  0  0  0  0  0  0
  142.0505   77.7303  217.0135 H   0  0  0  0  0  0  0  0  0  0  0  0
  143.7140   77.3013  217.5910 H   0  0  0  0  0  0  0  0  0  0  0  0
  141.1786   75.7437  217.6589 H   0  0  0  0  0  0  0  0  0  0  0  0
  142.9074   75.3026  217.1564 H   0  0  0  0  0  0  0  0  0  0  0  0
  142.2883   74.0511  218.9999 H   0  0  0  0  0  0  0  0  0  0  0  0
  144.5169   74.7295  218.9098 H   0  0  0  0  0  0  0  0  0  0  0  0
  144.0211   76.0835  220.1073 H   0  0  0  0  0  0  0  0  0  0  0  0
  146.1345   74.9572  220.6108 H   0  0  0  0  0  0  0  0  0  0  0  0
  146.0041   73.6437  221.7611 H   0  0  0  0  0  0  0  0  0  0  0  0
  145.8371   73.5838  218.7132 H   0  0  0  0  0  0  0  0  0  0  0  0
  146.6930   72.4567  219.7688 H   0  0  0  0  0  0  0  0  0  0  0  0
  144.0231   72.1688  218.7319 H   0  0  0  0  0  0  0  0  0  0  0  0
  144.7421   71.1170  219.9197 H   0  0  0  0  0  0  0  0  0  0  0  0
  142.6433   72.8173  220.4818 H   0  0  0  0  0  0  0  0  0  0  0  0
  143.8438   72.3668  221.7296 H   0  0  0  0  0  0  0  0  0  0  0  0
  139.1132   69.3594  222.7305 H   0  0  0  0  0  0  0  0  0  0  0  0
  138.9512   68.2702  224.9792 H   0  0  0  0  0  0  0  0  0  0  0  0
  139.3181   68.2876  227.3422 H   0  0  0  0  0  0  0  0  0  0  0  0
  140.1820   69.4869  229.3522 H   0  0  0  0  0  0  0  0  0  0  0  0
  141.1933   71.7377  229.1208 H   0  0  0  0  0  0  0  0  0  0  0  0
  141.3475   72.8067  226.8968 H   0  0  0  0  0  0  0  0  0  0  0  0
  1  2  2  0
  2  3  1  0
  3  4  1  0
  4  5  1  0
  5  6  2  0
  5  7  1  0
  7  8  1  0
  8  9  1  0
  9 10  1  0
 10 11  1  0
 11 12  1  0
 12 13  1  0
 13 14  1  0
 14 15  1  0
 15 16  1  0
 16 17  1  0
 17 18  1  0
  2 19  1  0
 19 20  2  0
 20 21  1  0
 21 22  2  0
 22 23  1  0
 23 24  2  0
 24 25  1  0
 25 26  2  0
 26 27  1  0
 27 28  2  0
 12  7  1  0
 18 14  1  0
 28 19  1  0
 27 22  1  0
  3 29  1  0
  4 30  1  0
  4 31  1  0
  8 32  1  0
  8 33  1  0
  9 34  1  0
  9 35  1  0
 10 36  1  0
 10 37  1  0
 11 38  1  0
 11 39  1  0
 12 40  1  6
 13 41  1  0
 13 42  1  0
 15 43  1  0
 15 44  1  0
 16 45  1  0
 16 46  1  0
 17 47  1  0
 17 48  1  0
 18 49  1  0
 18 50  1  0
 20 51  1  0
 21 52  1  0
 23 53  1  0
 24 54  1  0
 25 55  1  0
 26 56  1  0
M  END
>  <smiles>  (27) 
O=C(NCC(=O)N1CCCC[C@H]1CN1CCCC1)c1ccc2ccccc2n1

>  <score_type>  (27) 
oracle

>  <origin>  (27) 
autodockgpu

>  <m_score__min__energy>  (27) 
-8.5199999999999996

>  <m_primary>  (27) 
energy

>  <rmsd>  (27) 
4.1612648425730825

>  <m_score__min__rmsd>  (27) 
4.1612648425730825

>  <meeko>  (27) 
{"free_energy": -8.05, "intermolecular_energy": -9.84, "internal_energy": -2.29, "cluster_size": 6, "cluster_id": 2, "rank_in_cluster": 6}

>  <energy>  (27) 
-8.24

>  <cluster_rmsd>  (27) 
0.52

>  <cluster>  (27) 
1

$$$$

     RDKit          3D

 56 59  0  0  0  0  0  0  0  0999 V2000
  141.0860   71.6960  221.4140 O   0  0  0  0  0  0  0  0  0  0  0  0
  140.4890   72.2080  222.4160 C   0  0  0  0  0  0  0  0  0  0  0  0
  140.0140   73.5520  222.3610 N   0  0  0  0  0  0  0  0  0  0  0  0
  140.1870   74.3910  221.1780 C   0  0  0  0  0  0  0  0  0  0  0  0
  139.8730   75.7900  221.5480 C   0  0  0  0  0  0  0  0  0  0  0  0
  139.3690   76.0070  222.6800 O   0  0  0  0  0  0  0  0  0  0  0  0
  140.1010   76.9110  220.7170 N   0  0  0  0  0  0  0  0  0  0  0  0
  138.9490   77.5630  220.1410 C   0  0  0  0  0  0  0  0  0  0  0  0
  139.2370   78.8430  219.4270 C   0  0  0  0  0  0  0  0  0  0  0  0
  140.4820   78.8820  218.6150 C   0  0  0  0  0  0  0  0  0  0  0  0
  141.4120   77.7860  218.9890 C   0  0  0  0  0  0  0  0  0  0  0  0
  141.4630   77.4100  220.4270 C   0  0  1  0  0  0  0  0  0  0  0  0
  141.8230   78.4290  221.4260 C   0  0  0  0  0  0  0  0  0  0  0  0
  141.0720   78.5230  222.6280 N   0  0  0  0  0  0  0  0  0  0  0  0
  140.3730   79.8350  222.5370 C   0  0  0  0  0  0  0  0  0  0  0  0
  141.4760   80.8260  222.7950 C   0  0  0  0  0  0  0  0  0  0  0  0
  142.3980   80.1450  223.7800 C   0  0  0  0  0  0  0  0  0  0  0  0
  141.8070   78.7610  223.8410 C   0  0  0  0  0  0  0  0  0  0  0  0
  140.2850   71.4080  223.6410 C   0  0  0  0  0  0  0  0  0  0  0  0
  139.6470   70.1910  223.5340 C   0  0  0  0  0  0  0  0  0  0  0  0
  139.4780   69.4730  224.7110 C   0  0  0  0  0  0  0  0  0  0  0  0
  139.9250   69.9540  225.9270 C   0  0  0  0  0  0  0  0  0  0  0  0
  139.7410   69.2180  227.0710 C   0  0  0  0  0  0  0  0  0  0  0  0
  140.2060   69.7390  228.2660 C   0  0  0  0  0  0  0  0  0  0  0  0
  140.8380   70.9680  228.2980 C   0  0  0  0  0  0  0  0  0  0  0  0
  141.0080   71.6860  227.1350 C   0  0  0  0  0  0  0  0  0  0  0  0
  140.5480   71.1790  225.9220 C   0  0  0  0  0  0  0  0  0  0  0  0
  140.7240   71.8860  224.8170 N   0  0  0  0  0  0  0  0  0  0  0  0
  139.5320   73.9020  223.2320 H   0  0  0  0  0  0  0  0  0  0  0  0
  141.2264   74.3246  220.8240 H   0  0  0  0  0  0  0  0  0  0  0  0
  139.5172   74.0531  220.3735 H   0  0  0  0  0  0  0  0  0  0  0  0
  138.4878   76.8687  219.4233 H   0  0  0  0  0  0  0  0  0  0  0  0
  138.2910   77.8231  220.9832 H   0  0  0  0  0  0  0  0  0  0  0  0
  138.3918   79.0479  218.7535 H   0  0  0  0  0  0  0  0  0  0  0  0
  139.3812   79.5929  220.2187 H   0  0  0  0  0  0  0  0  0  0  0  0
  140.2184   78.7796  217.5520 H   0  0  0  0  0  0  0  0  0  0  0  0
  140.9864   79.8412  218.8036 H   0  0  0  0  0  0  0  0  0  0  0  0
  141.1168   76.8911  218.4215 H   0  0  0  0  0  0  0  0  0  0  0  0
  142.4164   78.1695  218.7564 H   0  0  0  0  0  0  0  0  0  0  0  0
  142.2948   76.6983  220.5348 H   0  0  0  0  0  0  0  0  0  0  0  0
  142.8674   78.2398  221.7147 H   0  0  0  0  0  0  0  0  0  0  0  0
  141.6132   79.3797  220.9140 H   0  0  0  0  0  0  0  0  0  0  0  0
  139.9358   79.9814  221.5383 H   0  0  0  0  0  0  0  0  0  0  0  0
  139.5335   79.9282  223.2416 H   0  0  0  0  0  0  0  0  0  0  0  0
  142.0115   81.0586  221.8627 H   0  0  0  0  0  0  0  0  0  0  0  0
  141.0895   81.7792  223.1849 H   0  0  0  0  0  0  0  0  0  0  0  0
  143.4340   80.1231  223.4110 H   0  0  0  0  0  0  0  0  0  0  0  0
  142.4605   80.6483  224.7561 H   0  0  0  0  0  0  0  0  0  0  0  0
  142.6123   78.0180  223.9384 H   0  0  0  0  0  0  0  0  0  0  0  0
  141.1373   78.6759  224.7095 H   0  0  0  0  0  0  0  0  0  0  0  0
  139.2901   69.8081  222.5665 H   0  0  0  0  0  0  0  0  0  0  0  0
  138.9749   68.4955  224.6742 H   0  0  0  0  0  0  0  0  0  0  0  0
  139.2376   68.2405  227.0389 H   0  0  0  0  0  0  0  0  0  0  0  0
  140.0715   69.1704  229.1980 H   0  0  0  0  0  0  0  0  0  0  0  0
  141.2053   71.3727  229.2526 H   0  0  0  0  0  0  0  0  0  0  0  0
  141.5095   72.6646  227.1643 H   0  0  0  0  0  0  0  0  0  0  0  0
  1  2  2  0
  2  3  1  0
  3  4  1  0
  4  5  1  0
  5  6  2  0
  5  7  1  0
  7  8  1  0
  8  9  1  0
  9 10  1  0
 10 11  1  0
 11 12  1  0
 12 13  1  0
 13 14  1  0
 14 15  1  0
 15 16  1  0
 16 17  1  0
 17 18  1  0
  2 19  1  0
 19 20  2  0
 20 21  1  0
 21 22  2  0
 22 23  1  0
 23 24  2  0
 24 25  1  0
 25 26  2  0
 26 27  1  0
 27 28  2  0
 12  7  1  0
 18 14  1  0
 28 19  1  0
 27 22  1  0
  3 29  1  0
  4 30  1  0
  4 31  1  0
  8 32  1  0
  8 33  1  0
  9 34  1  0
  9 35  1  0
 10 36  1  0
 10 37  1  0
 11 38  1  0
 11 39  1  0
 12 40  1  6
 13 41  1  0
 13 42  1  0
 15 43  1  0
 15 44  1  0
 16 45  1  0
 16 46  1  0
 17 47  1  0
 17 48  1  0
 18 49  1  0
 18 50  1  0
 20 51  1  0
 21 52  1  0
 23 53  1  0
 24 54  1  0
 25 55  1  0
 26 56  1  0
M  END
>  <smiles>  (28) 
O=C(NCC(=O)N1CCCC[C@H]1CN1CCCC1)c1ccc2ccccc2n1

>  <score_type>  (28) 
oracle

>  <origin>  (28) 
autodockgpu

>  <m_score__min__energy>  (28) 
-8.5199999999999996

>  <m_primary>  (28) 
energy

>  <rmsd>  (28) 
2.409846771900802

>  <m_score__min__rmsd>  (28) 
2.409846771900802

>  <meeko>  (28) 
{"free_energy": -8.11, "intermolecular_energy": -9.9, "internal_energy": -2.23, "cluster_size": 41, "cluster_id": 1, "rank_in_cluster": 29}

>  <energy>  (28) 
-8.23

>  <cluster_rmsd>  (28) 
0.5

>  <cluster>  (28) 
1

$$$$

     RDKit          3D

 56 59  0  0  0  0  0  0  0  0999 V2000
  141.5140   72.1140  221.7040 O   0  0  0  0  0  0  0  0  0  0  0  0
  140.6000   72.4410  222.5280 C   0  0  0  0  0  0  0  0  0  0  0  0
  139.8500   73.6390  222.3340 N   0  0  0  0  0  0  0  0  0  0  0  0
  140.0900   74.5330  221.2040 C   0  0  0  0  0  0  0  0  0  0  0  0
  139.7040   75.9050  221.6040 C   0  0  0  0  0  0  0  0  0  0  0  0
  139.1120   76.0600  222.7030 O   0  0  0  0  0  0  0  0  0  0  0  0
  139.9540   77.0660  220.8360 N   0  0  0  0  0  0  0  0  0  0  0  0
  138.8170   77.8450  220.4090 C   0  0  0  0  0  0  0  0  0  0  0  0
  139.1500   79.1510  219.7640 C   0  0  0  0  0  0  0  0  0  0  0  0
  140.3240   79.1570  218.8530 C   0  0  0  0  0  0  0  0  0  0  0  0
  141.1880   77.9690  219.0670 C   0  0  0  0  0  0  0  0  0  0  0  0
  141.3250   77.4810  220.4650 C   0  0  1  0  0  0  0  0  0  0  0  0
  141.8460   78.3910  221.4980 C   0  0  0  0  0  0  0  0  0  0  0  0
  141.0960   78.6000  222.6870 N   0  0  0  0  0  0  0  0  0  0  0  0
  140.5190   79.9650  222.5370 C   0  0  0  0  0  0  0  0  0  0  0  0
  141.7060   80.8620  222.7700 C   0  0  0  0  0  0  0  0  0  0  0  0
  142.5530   80.1400  223.7910 C   0  0  0  0  0  0  0  0  0  0  0  0
  141.8390   78.8190  223.8990 C   0  0  0  0  0  0  0  0  0  0  0  0
  140.3130   71.5770  223.6920 C   0  0  0  0  0  0  0  0  0  0  0  0
  139.5140   70.4680  223.5060 C   0  0  0  0  0  0  0  0  0  0  0  0
  139.2710   69.6850  224.6280 C   0  0  0  0  0  0  0  0  0  0  0  0
  139.8000   69.9990  225.8640 C   0  0  0  0  0  0  0  0  0  0  0  0
  139.5390   69.2030  226.9500 C   0  0  0  0  0  0  0  0  0  0  0  0
  140.0910   69.5570  228.1700 C   0  0  0  0  0  0  0  0  0  0  0  0
  140.8820   70.6850  228.2810 C   0  0  0  0  0  0  0  0  0  0  0  0
  141.1270   71.4670  227.1750 C   0  0  0  0  0  0  0  0  0  0  0  0
  140.5820   71.1270  225.9390 C   0  0  0  0  0  0  0  0  0  0  0  0
  140.8320   71.8940  224.8890 N   0  0  0  0  0  0  0  0  0  0  0  0
  139.1130   73.8390  223.0610 H   0  0  0  0  0  0  0  0  0  0  0  0
  141.1558   74.5110  220.9326 H   0  0  0  0  0  0  0  0  0  0  0  0
  139.4971   74.2116  220.3350 H   0  0  0  0  0  0  0  0  0  0  0  0
  138.2443   77.2445  219.6869 H   0  0  0  0  0  0  0  0  0  0  0  0
  138.2526   78.0888  221.3211 H   0  0  0  0  0  0  0  0  0  0  0  0
  138.2729   79.4702  219.1819 H   0  0  0  0  0  0  0  0  0  0  0  0
  139.4178   79.8256  220.5906 H   0  0  0  0  0  0  0  0  0  0  0  0
  139.9681   79.1567  217.8122 H   0  0  0  0  0  0  0  0  0  0  0  0
  140.9190   80.0577  219.0646 H   0  0  0  0  0  0  0  0  0  0  0  0
  140.7753   77.1452  218.4662 H   0  0  0  0  0  0  0  0  0  0  0  0
  142.1982   78.2923  218.7754 H   0  0  0  0  0  0  0  0  0  0  0  0
  142.1020   76.7025  220.4505 H   0  0  0  0  0  0  0  0  0  0  0  0
  142.8280   78.0004  221.8032 H   0  0  0  0  0  0  0  0  0  0  0  0
  141.8328   79.3752  221.0069 H   0  0  0  0  0  0  0  0  0  0  0  0
  140.1053   80.1107  221.5282 H   0  0  0  0  0  0  0  0  0  0  0  0
  139.6852   80.1614  223.2271 H   0  0  0  0  0  0  0  0  0  0  0  0
  142.2684   81.0081  221.8360 H   0  0  0  0  0  0  0  0  0  0  0  0
  141.4046   81.8610  223.1181 H   0  0  0  0  0  0  0  0  0  0  0  0
  143.5858   80.0099  223.4356 H   0  0  0  0  0  0  0  0  0  0  0  0
  142.6521   80.6740  224.7476 H   0  0  0  0  0  0  0  0  0  0  0  0
  142.5728   78.0109  224.0353 H   0  0  0  0  0  0  0  0  0  0  0  0
  141.1569   78.8293  224.7620 H   0  0  0  0  0  0  0  0  0  0  0  0
  139.0917   70.2168  222.5218 H   0  0  0  0  0  0  0  0  0  0  0  0
  138.6394   68.7899  224.5286 H   0  0  0  0  0  0  0  0  0  0  0  0
  138.9079   68.3071  226.8546 H   0  0  0  0  0  0  0  0  0  0  0  0
  139.8984   68.9358  229.0571 H   0  0  0  0  0  0  0  0  0  0  0  0
  141.3162   70.9581  229.2541 H   0  0  0  0  0  0  0  0  0  0  0  0
  141.7561   72.3646  227.2677 H   0  0  0  0  0  0  0  0  0  0  0  0
  1  2  2  0
  2  3  1  0
  3  4  1  0
  4  5  1  0
  5  6  2  0
  5  7  1  0
  7  8  1  0
  8  9  1  0
  9 10  1  0
 10 11  1  0
 11 12  1  0
 12 13  1  0
 13 14  1  0
 14 15  1  0
 15 16  1  0
 16 17  1  0
 17 18  1  0
  2 19  1  0
 19 20  2  0
 20 21  1  0
 21 22  2  0
 22 23  1  0
 23 24  2  0
 24 25  1  0
 25 26  2  0
 26 27  1  0
 27 28  2  0
 12  7  1  0
 18 14  1  0
 28 19  1  0
 27 22  1  0
  3 29  1  0
  4 30  1  0
  4 31  1  0
  8 32  1  0
  8 33  1  0
  9 34  1  0
  9 35  1  0
 10 36  1  0
 10 37  1  0
 11 38  1  0
 11 39  1  0
 12 40  1  6
 13 41  1  0
 13 42  1  0
 15 43  1  0
 15 44  1  0
 16 45  1  0
 16 46  1  0
 17 47  1  0
 17 48  1  0
 18 49  1  0
 18 50  1  0
 20 51  1  0
 21 52  1  0
 23 53  1  0
 24 54  1  0
 25 55  1  0
 26 56  1  0
M  END
>  <smiles>  (29) 
O=C(NCC(=O)N1CCCC[C@H]1CN1CCCC1)c1ccc2ccccc2n1

>  <score_type>  (29) 
oracle

>  <origin>  (29) 
autodockgpu

>  <m_score__min__energy>  (29) 
-8.5199999999999996

>  <m_primary>  (29) 
energy

>  <rmsd>  (29) 
2.549570963647507

>  <m_score__min__rmsd>  (29) 
2.549570963647507

>  <meeko>  (29) 
{"free_energy": -8.06, "intermolecular_energy": -9.85, "internal_energy": -2.07, "cluster_size": 41, "cluster_id": 1, "rank_in_cluster": 34}

>  <energy>  (29) 
-8.11

>  <cluster_rmsd>  (29) 
0.61

>  <cluster>  (29) 
1

$$$$

     RDKit          3D

 56 59  0  0  0  0  0  0  0  0999 V2000
  140.0320   71.2580  221.2800 O   0  0  0  0  0  0  0  0  0  0  0  0
  139.8940   71.8740  222.3870 C   0  0  0  0  0  0  0  0  0  0  0  0
  139.6830   73.2860  222.4020 N   0  0  0  0  0  0  0  0  0  0  0  0
  139.6160   74.0760  221.1760 C   0  0  0  0  0  0  0  0  0  0  0  0
  139.9190   75.4860  221.5130 C   0  0  0  0  0  0  0  0  0  0  0  0
  139.7300   75.8690  222.6960 O   0  0  0  0  0  0  0  0  0  0  0  0
  140.4100   76.4430  220.5950 N   0  0  0  0  0  0  0  0  0  0  0  0
  139.8800   76.4170  219.2520 C   0  0  0  0  0  0  0  0  0  0  0  0
  140.2960   77.5610  218.3860 C   0  0  0  0  0  0  0  0  0  0  0  0
  141.7050   78.0160  218.5230 C   0  0  0  0  0  0  0  0  0  0  0  0
  142.3200   77.5190  219.7800 C   0  0  0  0  0  0  0  0  0  0  0  0
  141.4360   77.4390  220.9730 C   0  0  1  0  0  0  0  0  0  0  0  0
  140.7660   78.6570  221.4570 C   0  0  0  0  0  0  0  0  0  0  0  0
  140.6470   78.8800  222.8550 N   0  0  0  0  0  0  0  0  0  0  0  0
  140.4320   80.3480  222.9890 C   0  0  0  0  0  0  0  0  0  0  0  0
  141.7970   80.9170  222.7100 C   0  0  0  0  0  0  0  0  0  0  0  0
  142.7700   79.9010  223.2610 C   0  0  0  0  0  0  0  0  0  0  0  0
  141.8480   78.7720  223.6390 C   0  0  0  0  0  0  0  0  0  0  0  0
  139.9540   71.1280  223.6600 C   0  0  0  0  0  0  0  0  0  0  0  0
  139.5330   69.8150  223.6740 C   0  0  0  0  0  0  0  0  0  0  0  0
  139.6070   69.1530  224.8920 C   0  0  0  0  0  0  0  0  0  0  0  0
  140.0770   69.7760  226.0320 C   0  0  0  0  0  0  0  0  0  0  0  0
  140.1370   69.0910  227.2190 C   0  0  0  0  0  0  0  0  0  0  0  0
  140.6160   69.7550  228.3360 C   0  0  0  0  0  0  0  0  0  0  0  0
  141.0210   71.0740  228.2470 C   0  0  0  0  0  0  0  0  0  0  0  0
  140.9490   71.7380  227.0430 C   0  0  0  0  0  0  0  0  0  0  0  0
  140.4720   71.0870  225.9090 C   0  0  0  0  0  0  0  0  0  0  0  0
  140.4130   71.7450  224.7610 N   0  0  0  0  0  0  0  0  0  0  0  0
  139.5790   73.7210  223.3580 H   0  0  0  0  0  0  0  0  0  0  0  0
  140.3531   73.7004  220.4510 H   0  0  0  0  0  0  0  0  0  0  0  0
  138.6128   74.0003  220.7312 H   0  0  0  0  0  0  0  0  0  0  0  0
  140.2147   75.4860  218.7712 H   0  0  0  0  0  0  0  0  0  0  0  0
  138.7869   76.4891  219.3518 H   0  0  0  0  0  0  0  0  0  0  0  0
  140.1414   77.2615  217.3389 H   0  0  0  0  0  0  0  0  0  0  0  0
  139.6810   78.4128  218.7119 H   0  0  0  0  0  0  0  0  0  0  0  0
  142.2863   77.6400  217.6682 H   0  0  0  0  0  0  0  0  0  0  0  0
  141.7106   79.1157  218.5485 H   0  0  0  0  0  0  0  0  0  0  0  0
  142.7069   76.5081  219.5841 H   0  0  0  0  0  0  0  0  0  0  0  0
  143.0868   78.2638  220.0394 H   0  0  0  0  0  0  0  0  0  0  0  0
  142.0853   77.1956  221.8269 H   0  0  0  0  0  0  0  0  0  0  0  0
  141.3187   79.5128  221.0421 H   0  0  0  0  0  0  0  0  0  0  0  0
  139.7249   78.5289  221.1257 H   0  0  0  0  0  0  0  0  0  0  0  0
  139.6960   80.7084  222.2553 H   0  0  0  0  0  0  0  0  0  0  0  0
  140.0334   80.6398  223.9718 H   0  0  0  0  0  0  0  0  0  0  0  0
  141.9468   81.0473  221.6281 H   0  0  0  0  0  0  0  0  0  0  0  0
  141.9317   81.9069  223.1704 H   0  0  0  0  0  0  0  0  0  0  0  0
  143.4973   79.5868  222.4978 H   0  0  0  0  0  0  0  0  0  0  0  0
  143.3837   80.2752  224.0937 H   0  0  0  0  0  0  0  0  0  0  0  0
  142.3384   77.8087  223.4353 H   0  0  0  0  0  0  0  0  0  0  0  0
  141.6044   78.8276  224.7103 H   0  0  0  0  0  0  0  0  0  0  0  0
  139.1580   69.3180  222.7672 H   0  0  0  0  0  0  0  0  0  0  0  0
  139.2825   68.1036  224.9510 H   0  0  0  0  0  0  0  0  0  0  0  0
  139.8131   68.0417  227.2820 H   0  0  0  0  0  0  0  0  0  0  0  0
  140.6746   69.2295  229.3006 H   0  0  0  0  0  0  0  0  0  0  0  0
  141.4011   71.5934  229.1390 H   0  0  0  0  0  0  0  0  0  0  0  0
  141.2700   72.7880  226.9770 H   0  0  0  0  0  0  0  0  0  0  0  0
  1  2  2  0
  2  3  1  0
  3  4  1  0
  4  5  1  0
  5  6  2  0
  5  7  1  0
  7  8  1  0
  8  9  1  0
  9 10  1  0
 10 11  1  0
 11 12  1  0
 12 13  1  0
 13 14  1  0
 14 15  1  0
 15 16  1  0
 16 17  1  0
 17 18  1  0
  2 19  1  0
 19 20  2  0
 20 21  1  0
 21 22  2  0
 22 23  1  0
 23 24  2  0
 24 25  1  0
 25 26  2  0
 26 27  1  0
 27 28  2  0
 12  7  1  0
 18 14  1  0
 28 19  1  0
 27 22  1  0
  3 29  1  0
  4 30  1  0
  4 31  1  0
  8 32  1  0
  8 33  1  0
  9 34  1  0
  9 35  1  0
 10 36  1  0
 10 37  1  0
 11 38  1  0
 11 39  1  0
 12 40  1  1
 13 41  1  0
 13 42  1  0
 15 43  1  0
 15 44  1  0
 16 45  1  0
 16 46  1  0
 17 47  1  0
 17 48  1  0
 18 49  1  0
 18 50  1  0
 20 51  1  0
 21 52  1  0
 23 53  1  0
 24 54  1  0
 25 55  1  0
 26 56  1  0
M  END
>  <smiles>  (30) 
O=C(NCC(=O)N1CCCC[C@H]1CN1CCCC1)c1ccc2ccccc2n1

>  <score_type>  (30) 
oracle

>  <origin>  (30) 
autodockgpu

>  <m_score__min__energy>  (30) 
-8.5199999999999996

>  <m_primary>  (30) 
energy

>  <rmsd>  (30) 
2.0783994241482566

>  <m_score__min__rmsd>  (30) 
2.0783994241482566

>  <meeko>  (30) 
{"free_energy": -8.37, "intermolecular_energy": -10.16, "internal_energy": -2.16, "cluster_size": 41, "cluster_id": 1, "rank_in_cluster": 21}

>  <energy>  (30) 
-8.11

>  <cluster_rmsd>  (30) 
0.69

>  <cluster>  (30) 
1

$$$$

     RDKit          3D

 56 59  0  0  0  0  0  0  0  0999 V2000
  140.7140   71.3640  221.3700 O   0  0  0  0  0  0  0  0  0  0  0  0
  140.2670   71.9180  222.4260 C   0  0  0  0  0  0  0  0  0  0  0  0
  139.8550   73.2840  222.4030 N   0  0  0  0  0  0  0  0  0  0  0  0
  139.9250   74.0980  221.1930 C   0  0  0  0  0  0  0  0  0  0  0  0
  139.8850   75.5240  221.5870 C   0  0  0  0  0  0  0  0  0  0  0  0
  139.4140   75.8170  222.7150 O   0  0  0  0  0  0  0  0  0  0  0  0
  140.3430   76.5930  220.7810 N   0  0  0  0  0  0  0  0  0  0  0  0
  139.8920   76.6400  219.4110 C   0  0  0  0  0  0  0  0  0  0  0  0
  140.2560   77.8830  218.6660 C   0  0  0  0  0  0  0  0  0  0  0  0
  141.6110   78.4360  218.9270 C   0  0  0  0  0  0  0  0  0  0  0  0
  142.1960   77.8850  220.1750 C   0  0  0  0  0  0  0  0  0  0  0  0
  141.2580   77.6330  221.3020 C   0  0  1  0  0  0  0  0  0  0  0  0
  140.4610   78.7470  221.8390 C   0  0  0  0  0  0  0  0  0  0  0  0
  140.5870   79.0960  223.2100 N   0  0  0  0  0  0  0  0  0  0  0  0
  140.4760   80.5820  223.2360 C   0  0  0  0  0  0  0  0  0  0  0  0
  141.8040   81.0300  222.6890 C   0  0  0  0  0  0  0  0  0  0  0  0
  142.7990   80.0010  223.1720 C   0  0  0  0  0  0  0  0  0  0  0  0
  141.8930   78.9740  223.7990 C   0  0  0  0  0  0  0  0  0  0  0  0
  140.1740   71.1450  223.6820 C   0  0  0  0  0  0  0  0  0  0  0  0
  139.5900   69.8970  223.6440 C   0  0  0  0  0  0  0  0  0  0  0  0
  139.5240   69.2060  224.8480 C   0  0  0  0  0  0  0  0  0  0  0  0
  140.0170   69.7420  226.0220 C   0  0  0  0  0  0  0  0  0  0  0  0
  139.9350   69.0320  227.1930 C   0  0  0  0  0  0  0  0  0  0  0  0
  140.4430   69.6080  228.3450 C   0  0  0  0  0  0  0  0  0  0  0  0
  141.0150   70.8650  228.3070 C   0  0  0  0  0  0  0  0  0  0  0  0
  141.0830   71.5560  227.1190 C   0  0  0  0  0  0  0  0  0  0  0  0
  140.5790   70.9940  225.9490 C   0  0  0  0  0  0  0  0  0  0  0  0
  140.6560   71.6770  224.8160 N   0  0  0  0  0  0  0  0  0  0  0  0
  139.4980   73.6680  223.3180 H   0  0  0  0  0  0  0  0  0  0  0  0
  140.8619   73.8868  220.6567 H   0  0  0  0  0  0  0  0  0  0  0  0
  139.0782   73.8647  220.5308 H   0  0  0  0  0  0  0  0  0  0  0  0
  140.3301   75.7830  218.8785 H   0  0  0  0  0  0  0  0  0  0  0  0
  138.7929   76.6167  219.4494 H   0  0  0  0  0  0  0  0  0  0  0  0
  140.1861   77.6616  217.5908 H   0  0  0  0  0  0  0  0  0  0  0  0
  139.5531   78.6521  219.0188 H   0  0  0  0  0  0  0  0  0  0  0  0
  142.2686   78.1825  218.0824 H   0  0  0  0  0  0  0  0  0  0  0  0
  141.5209   79.5263  219.0419 H   0  0  0  0  0  0  0  0  0  0  0  0
  142.6775   76.9287  219.9228 H   0  0  0  0  0  0  0  0  0  0  0  0
  142.8812   78.6644  220.5399 H   0  0  0  0  0  0  0  0  0  0  0  0
  141.8772   77.3713  222.1727 H   0  0  0  0  0  0  0  0  0  0  0  0
  140.7252   79.6410  221.2550 H   0  0  0  0  0  0  0  0  0  0  0  0
  139.4244   78.3884  221.7564 H   0  0  0  0  0  0  0  0  0  0  0  0
  139.6489   80.9279  222.5987 H   0  0  0  0  0  0  0  0  0  0  0  0
  140.2620   80.9833  224.2376 H   0  0  0  0  0  0  0  0  0  0  0  0
  141.7793   81.0563  221.5896 H   0  0  0  0  0  0  0  0  0  0  0  0
  142.0658   82.0443  223.0248 H   0  0  0  0  0  0  0  0  0  0  0  0
  143.3721   79.5736  222.3360 H   0  0  0  0  0  0  0  0  0  0  0  0
  143.5612   80.4024  223.8561 H   0  0  0  0  0  0  0  0  0  0  0  0
  142.2910   77.9655  223.6131 H   0  0  0  0  0  0  0  0  0  0  0  0
  141.8330   79.1379  224.8851 H   0  0  0  0  0  0  0  0  0  0  0  0
  139.1967   69.4703  222.7095 H   0  0  0  0  0  0  0  0  0  0  0  0
  139.0670   68.2056  224.8667 H   0  0  0  0  0  0  0  0  0  0  0  0
  139.4778   68.0318  227.2161 H   0  0  0  0  0  0  0  0  0  0  0  0
  140.3908   69.0607  229.2977 H   0  0  0  0  0  0  0  0  0  0  0  0
  141.4165   71.3139  229.2275 H   0  0  0  0  0  0  0  0  0  0  0  0
  141.5377   72.5573  227.0935 H   0  0  0  0  0  0  0  0  0  0  0  0
  1  2  2  0
  2  3  1  0
  3  4  1  0
  4  5  1  0
  5  6  2  0
  5  7  1  0
  7  8  1  0
  8  9  1  0
  9 10  1  0
 10 11  1  0
 11 12  1  0
 12 13  1  0
 13 14  1  0
 14 15  1  0
 15 16  1  0
 16 17  1  0
 17 18  1  0
  2 19  1  0
 19 20  2  0
 20 21  1  0
 21 22  2  0
 22 23  1  0
 23 24  2  0
 24 25  1  0
 25 26  2  0
 26 27  1  0
 27 28  2  0
 12  7  1  0
 18 14  1  0
 28 19  1  0
 27 22  1  0
  3 29  1  0
  4 30  1  0
  4 31  1  0
  8 32  1  0
  8 33  1  0
  9 34  1  0
  9 35  1  0
 10 36  1  0
 10 37  1  0
 11 38  1  0
 11 39  1  0
 12 40  1  1
 13 41  1  0
 13 42  1  0
 15 43  1  0
 15 44  1  0
 16 45  1  0
 16 46  1  0
 17 47  1  0
 17 48  1  0
 18 49  1  0
 18 50  1  0
 20 51  1  0
 21 52  1  0
 23 53  1  0
 24 54  1  0
 25 55  1  0
 26 56  1  0
M  END
>  <smiles>  (31) 
O=C(NCC(=O)N1CCCC[C@H]1CN1CCCC1)c1ccc2ccccc2n1

>  <score_type>  (31) 
oracle

>  <origin>  (31) 
autodockgpu

>  <m_score__min__energy>  (31) 
-8.5199999999999996

>  <m_primary>  (31) 
energy

>  <rmsd>  (31) 
2.221643838880839

>  <m_score__min__rmsd>  (31) 
2.221643838880839

>  <meeko>  (31) 
{"free_energy": -8.49, "intermolecular_energy": -10.28, "internal_energy": -2.07, "cluster_size": 41, "cluster_id": 1, "rank_in_cluster": 6}

>  <energy>  (31) 
-8.1

>  <cluster_rmsd>  (31) 
1.59

>  <cluster>  (31) 
1

$$$$

     RDKit          3D

 56 59  0  0  0  0  0  0  0  0999 V2000
  140.7910   71.4310  221.3430 O   0  0  0  0  0  0  0  0  0  0  0  0
  140.3350   72.0000  222.3880 C   0  0  0  0  0  0  0  0  0  0  0  0
  139.9430   73.3710  222.3480 N   0  0  0  0  0  0  0  0  0  0  0  0
  140.0450   74.1750  221.1330 C   0  0  0  0  0  0  0  0  0  0  0  0
  139.9780   75.6050  221.5120 C   0  0  0  0  0  0  0  0  0  0  0  0
  139.5560   75.8970  222.6600 O   0  0  0  0  0  0  0  0  0  0  0  0
  140.3570   76.6770  220.6710 N   0  0  0  0  0  0  0  0  0  0  0  0
  139.7750   76.7310  219.3510 C   0  0  0  0  0  0  0  0  0  0  0  0
  140.0680   77.9780  218.5820 C   0  0  0  0  0  0  0  0  0  0  0  0
  141.4430   78.5280  218.7120 C   0  0  0  0  0  0  0  0  0  0  0  0
  142.1450   77.9700  219.8950 C   0  0  0  0  0  0  0  0  0  0  0  0
  141.3200   77.7120  221.1060 C   0  0  1  0  0  0  0  0  0  0  0  0
  140.5810   78.8250  221.7240 C   0  0  0  0  0  0  0  0  0  0  0  0
  140.5610   78.9470  223.1390 N   0  0  0  0  0  0  0  0  0  0  0  0
  140.2230   80.3760  223.3930 C   0  0  0  0  0  0  0  0  0  0  0  0
  141.5010   81.0930  223.0480 C   0  0  0  0  0  0  0  0  0  0  0  0
  142.6070   80.1450  223.4490 C   0  0  0  0  0  0  0  0  0  0  0  0
  141.8290   78.9090  223.8180 C   0  0  0  0  0  0  0  0  0  0  0  0
  140.2100   71.2390  223.6480 C   0  0  0  0  0  0  0  0  0  0  0  0
  139.5940   70.0060  223.6130 C   0  0  0  0  0  0  0  0  0  0  0  0
  139.4990   69.3250  224.8200 C   0  0  0  0  0  0  0  0  0  0  0  0
  139.9960   69.8550  225.9950 C   0  0  0  0  0  0  0  0  0  0  0  0
  139.8860   69.1560  227.1700 C   0  0  0  0  0  0  0  0  0  0  0  0
  140.3990   69.7250  228.3230 C   0  0  0  0  0  0  0  0  0  0  0  0
  141.0050   70.9670  228.2820 C   0  0  0  0  0  0  0  0  0  0  0  0
  141.1010   71.6480  227.0900 C   0  0  0  0  0  0  0  0  0  0  0  0
  140.5920   71.0910  225.9190 C   0  0  0  0  0  0  0  0  0  0  0  0
  140.6970   71.7640  224.7830 N   0  0  0  0  0  0  0  0  0  0  0  0
  139.5770   73.7680  223.2550 H   0  0  0  0  0  0  0  0  0  0  0  0
  141.0012   73.9684  220.6299 H   0  0  0  0  0  0  0  0  0  0  0  0
  139.2228   73.9272  220.4456 H   0  0  0  0  0  0  0  0  0  0  0  0
  140.1581   75.8764  218.7740 H   0  0  0  0  0  0  0  0  0  0  0  0
  138.6847   76.7076  219.4947 H   0  0  0  0  0  0  0  0  0  0  0  0
  139.8928   77.7634  217.5174 H   0  0  0  0  0  0  0  0  0  0  0  0
  139.4051   78.7458  219.0075 H   0  0  0  0  0  0  0  0  0  0  0  0
  142.0149   78.2773  217.8064 H   0  0  0  0  0  0  0  0  0  0  0  0
  141.3670   79.6180  218.8394 H   0  0  0  0  0  0  0  0  0  0  0  0
  142.5992   77.0149  219.5923 H   0  0  0  0  0  0  0  0  0  0  0  0
  142.8625   78.7474  220.1964 H   0  0  0  0  0  0  0  0  0  0  0  0
  142.0201   77.4433  221.9108 H   0  0  0  0  0  0  0  0  0  0  0  0
  141.0131   79.7558  221.3280 H   0  0  0  0  0  0  0  0  0  0  0  0
  139.5323   78.6154  221.4664 H   0  0  0  0  0  0  0  0  0  0  0  0
  139.3968   80.7077  222.7469 H   0  0  0  0  0  0  0  0  0  0  0  0
  139.8844   80.5649  224.4224 H   0  0  0  0  0  0  0  0  0  0  0  0
  141.5459   81.3041  221.9694 H   0  0  0  0  0  0  0  0  0  0  0  0
  141.5818   82.0611  223.5640 H   0  0  0  0  0  0  0  0  0  0  0  0
  143.2933   79.9519  222.6113 H   0  0  0  0  0  0  0  0  0  0  0  0
  143.2512   80.5252  224.2555 H   0  0  0  0  0  0  0  0  0  0  0  0
  142.3880   78.0131  223.5099 H   0  0  0  0  0  0  0  0  0  0  0  0
  141.6725   78.8735  224.9062 H   0  0  0  0  0  0  0  0  0  0  0  0
  139.1982   69.5834  222.6777 H   0  0  0  0  0  0  0  0  0  0  0  0
  139.0151   68.3374  224.8408 H   0  0  0  0  0  0  0  0  0  0  0  0
  139.4024   68.1683  227.1955 H   0  0  0  0  0  0  0  0  0  0  0  0
  140.3240   69.1852  229.2785 H   0  0  0  0  0  0  0  0  0  0  0  0
  141.4107   71.4112  229.2029 H   0  0  0  0  0  0  0  0  0  0  0  0
  141.5820   72.6369  227.0617 H   0  0  0  0  0  0  0  0  0  0  0  0
  1  2  2  0
  2  3  1  0
  3  4  1  0
  4  5  1  0
  5  6  2  0
  5  7  1  0
  7  8  1  0
  8  9  1  0
  9 10  1  0
 10 11  1  0
 11 12  1  0
 12 13  1  0
 13 14  1  0
 14 15  1  0
 15 16  1  0
 16 17  1  0
 17 18  1  0
  2 19  1  0
 19 20  2  0
 20 21  1  0
 21 22  2  0
 22 23  1  0
 23 24  2  0
 24 25  1  0
 25 26  2  0
 26 27  1  0
 27 28  2  0
 12  7  1  0
 18 14  1  0
 28 19  1  0
 27 22  1  0
  3 29  1  0
  4 30  1  0
  4 31  1  0
  8 32  1  0
  8 33  1  0
  9 34  1  0
  9 35  1  0
 10 36  1  0
 10 37  1  0
 11 38  1  0
 11 39  1  0
 12 40  1  1
 13 41  1  0
 13 42  1  0
 15 43  1  0
 15 44  1  0
 16 45  1  0
 16 46  1  0
 17 47  1  0
 17 48  1  0
 18 49  1  0
 18 50  1  0
 20 51  1  0
 21 52  1  0
 23 53  1  0
 24 54  1  0
 25 55  1  0
 26 56  1  0
M  END
>  <smiles>  (32) 
O=C(NCC(=O)N1CCCC[C@H]1CN1CCCC1)c1ccc2ccccc2n1

>  <score_type>  (32) 
oracle

>  <origin>  (32) 
autodockgpu

>  <m_score__min__energy>  (32) 
-8.5199999999999996

>  <m_primary>  (32) 
energy

>  <rmsd>  (32) 
2.221347889504048

>  <m_score__min__rmsd>  (32) 
2.221347889504048

>  <meeko>  (32) 
{"free_energy": -8.51, "intermolecular_energy": -10.3, "internal_energy": -2.07, "cluster_size": 41, "cluster_id": 1, "rank_in_cluster": 2}

>  <energy>  (32) 
-8.09

>  <cluster_rmsd>  (32) 
1.57

>  <cluster>  (32) 
1

$$$$

     RDKit          3D

 56 59  0  0  0  0  0  0  0  0999 V2000
  140.5100   71.2990  221.2580 O   0  0  0  0  0  0  0  0  0  0  0  0
  140.1780   71.9330  222.3120 C   0  0  0  0  0  0  0  0  0  0  0  0
  139.8640   73.3230  222.2460 N   0  0  0  0  0  0  0  0  0  0  0  0
  139.9080   74.0730  220.9940 C   0  0  0  0  0  0  0  0  0  0  0  0
  140.8040   75.2380  221.1790 C   0  0  0  0  0  0  0  0  0  0  0  0
  140.8610   75.7690  222.3170 O   0  0  0  0  0  0  0  0  0  0  0  0
  141.6080   75.8020  220.1620 N   0  0  0  0  0  0  0  0  0  0  0  0
  141.5320   77.2300  219.9620 C   0  0  0  0  0  0  0  0  0  0  0  0
  142.5340   77.7890  219.0060 C   0  0  0  0  0  0  0  0  0  0  0  0
  142.8180   76.9760  217.7950 C   0  0  0  0  0  0  0  0  0  0  0  0
  142.3600   75.5730  217.9590 C   0  0  0  0  0  0  0  0  0  0  0  0
  142.4970   74.9760  219.3140 C   0  0  1  0  0  0  0  0  0  0  0  0
  143.8270   74.9070  219.9410 C   0  0  0  0  0  0  0  0  0  0  0  0
  144.8070   74.0310  219.4010 N   0  0  0  0  0  0  0  0  0  0  0  0
  144.1800   72.6810  219.4520 C   0  0  0  0  0  0  0  0  0  0  0  0
  144.2420   72.3340  220.9150 C   0  0  0  0  0  0  0  0  0  0  0  0
  145.5190   72.9650  221.4180 C   0  0  0  0  0  0  0  0  0  0  0  0
  145.9600   73.7580  220.2160 C   0  0  0  0  0  0  0  0  0  0  0  0
  140.1160   71.2280  223.6080 C   0  0  0  0  0  0  0  0  0  0  0  0
  139.5600   69.9670  223.6460 C   0  0  0  0  0  0  0  0  0  0  0  0
  139.5240   69.3410  224.8860 C   0  0  0  0  0  0  0  0  0  0  0  0
  140.0180   69.9510  226.0230 C   0  0  0  0  0  0  0  0  0  0  0  0
  139.9660   69.3040  227.2320 C   0  0  0  0  0  0  0  0  0  0  0  0
  140.4740   69.9530  228.3440 C   0  0  0  0  0  0  0  0  0  0  0  0
  141.0170   71.2180  228.2310 C   0  0  0  0  0  0  0  0  0  0  0  0
  141.0560   71.8450  227.0060 C   0  0  0  0  0  0  0  0  0  0  0  0
  140.5510   71.2090  225.8750 C   0  0  0  0  0  0  0  0  0  0  0  0
  140.6000   71.8300  224.7060 N   0  0  0  0  0  0  0  0  0  0  0  0
  139.6000   73.7750  223.1620 H   0  0  0  0  0  0  0  0  0  0  0  0
  140.2950   73.4306  220.1893 H   0  0  0  0  0  0  0  0  0  0  0  0
  138.8980   74.4122  220.7206 H   0  0  0  0  0  0  0  0  0  0  0  0
  140.5278   77.4680  219.5813 H   0  0  0  0  0  0  0  0  0  0  0  0
  141.7500   77.6885  220.9378 H   0  0  0  0  0  0  0  0  0  0  0  0
  142.1660   78.7702  218.6715 H   0  0  0  0  0  0  0  0  0  0  0  0
  143.4817   77.8233  219.5634 H   0  0  0  0  0  0  0  0  0  0  0  0
  142.2981   77.4230  216.9349 H   0  0  0  0  0  0  0  0  0  0  0  0
  143.9062   76.9663  217.6344 H   0  0  0  0  0  0  0  0  0  0  0  0
  141.2951   75.5367  217.6857 H   0  0  0  0  0  0  0  0  0  0  0  0
  143.0226   74.9772  217.3141 H   0  0  0  0  0  0  0  0  0  0  0  0
  142.2504   73.9089  219.2116 H   0  0  0  0  0  0  0  0  0  0  0  0
  144.2504   75.9217  219.9073 H   0  0  0  0  0  0  0  0  0  0  0  0
  143.6234   74.4869  220.9370 H   0  0  0  0  0  0  0  0  0  0  0  0
  143.1392   72.7148  219.0975 H   0  0  0  0  0  0  0  0  0  0  0  0
  144.6847   71.9441  218.8099 H   0  0  0  0  0  0  0  0  0  0  0  0
  143.3721   72.7472  221.4466 H   0  0  0  0  0  0  0  0  0  0  0  0
  144.2278   71.2466  221.0805 H   0  0  0  0  0  0  0  0  0  0  0  0
  145.3302   73.6184  222.2825 H   0  0  0  0  0  0  0  0  0  0  0  0
  146.2659   72.2401  221.7740 H   0  0  0  0  0  0  0  0  0  0  0  0
  146.4159   74.7043  220.5427 H   0  0  0  0  0  0  0  0  0  0  0  0
  146.7023   73.1866  219.6393 H   0  0  0  0  0  0  0  0  0  0  0  0
  139.1652   69.4815  222.7413 H   0  0  0  0  0  0  0  0  0  0  0  0
  139.0907   68.3330  224.9645 H   0  0  0  0  0  0  0  0  0  0  0  0
  139.5322   68.2966  227.3152 H   0  0  0  0  0  0  0  0  0  0  0  0
  140.4450   69.4574  229.3256 H   0  0  0  0  0  0  0  0  0  0  0  0
  141.4187   71.7250  229.1207 H   0  0  0  0  0  0  0  0  0  0  0  0
  141.4881   72.8530  226.9203 H   0  0  0  0  0  0  0  0  0  0  0  0
  1  2  2  0
  2  3  1  0
  3  4  1  0
  4  5  1  0
  5  6  2  0
  5  7  1  0
  7  8  1  0
  8  9  1  0
  9 10  1  0
 10 11  1  0
 11 12  1  0
 12 13  1  0
 13 14  1  0
 14 15  1  0
 15 16  1  0
 16 17  1  0
 17 18  1  0
  2 19  1  0
 19 20  2  0
 20 21  1  0
 21 22  2  0
 22 23  1  0
 23 24  2  0
 24 25  1  0
 25 26  2  0
 26 27  1  0
 27 28  2  0
 12  7  1  0
 18 14  1  0
 28 19  1  0
 27 22  1  0
  3 29  1  0
  4 30  1  0
  4 31  1  0
  8 32  1  0
  8 33  1  0
  9 34  1  0
  9 35  1  0
 10 36  1  0
 10 37  1  0
 11 38  1  0
 11 39  1  0
 12 40  1  6
 13 41  1  0
 13 42  1  0
 15 43  1  0
 15 44  1  0
 16 45  1  0
 16 46  1  0
 17 47  1  0
 17 48  1  0
 18 49  1  0
 18 50  1  0
 20 51  1  0
 21 52  1  0
 23 53  1  0
 24 54  1  0
 25 55  1  0
 26 56  1  0
M  END
>  <smiles>  (33) 
O=C(NCC(=O)N1CCCC[C@H]1CN1CCCC1)c1ccc2ccccc2n1

>  <score_type>  (33) 
oracle

>  <origin>  (33) 
autodockgpu

>  <m_score__min__energy>  (33) 
-8.5199999999999996

>  <m_primary>  (33) 
energy

>  <rmsd>  (33) 
4.180522307267884

>  <m_score__min__rmsd>  (33) 
4.180522307267884

>  <meeko>  (33) 
{"free_energy": -8.15, "intermolecular_energy": -9.94, "internal_energy": -2.07, "cluster_size": 6, "cluster_id": 2, "rank_in_cluster": 5}

>  <energy>  (33) 
-8.07

>  <cluster_rmsd>  (33) 
0.61

>  <cluster>  (33) 
1

$$$$

     RDKit          3D

 56 59  0  0  0  0  0  0  0  0999 V2000
  140.2460   71.4280  221.2710 O   0  0  0  0  0  0  0  0  0  0  0  0
  140.0140   72.0370  222.3660 C   0  0  0  0  0  0  0  0  0  0  0  0
  139.7470   73.4380  222.3670 N   0  0  0  0  0  0  0  0  0  0  0  0
  139.7270   74.2280  221.1380 C   0  0  0  0  0  0  0  0  0  0  0  0
  140.0820   75.6250  221.4760 C   0  0  0  0  0  0  0  0  0  0  0  0
  139.9430   76.0030  222.6670 O   0  0  0  0  0  0  0  0  0  0  0  0
  140.5720   76.5760  220.5500 N   0  0  0  0  0  0  0  0  0  0  0  0
  139.8120   76.7860  219.3410 C   0  0  0  0  0  0  0  0  0  0  0  0
  140.2740   77.9260  218.4930 C   0  0  0  0  0  0  0  0  0  0  0  0
  141.7450   78.1120  218.3800 C   0  0  0  0  0  0  0  0  0  0  0  0
  142.4710   77.3850  219.4520 C   0  0  0  0  0  0  0  0  0  0  0  0
  141.8200   77.3320  220.7880 C   0  0  1  0  0  0  0  0  0  0  0  0
  141.4940   78.5890  221.4810 C   0  0  0  0  0  0  0  0  0  0  0  0
  142.3210   79.0320  222.5480 N   0  0  0  0  0  0  0  0  0  0  0  0
  141.4340   79.0230  223.7450 C   0  0  0  0  0  0  0  0  0  0  0  0
  140.5570   80.2270  223.5250 C   0  0  0  0  0  0  0  0  0  0  0  0
  141.4370   81.2360  222.8260 C   0  0  0  0  0  0  0  0  0  0  0  0
  142.6790   80.4250  222.5630 C   0  0  0  0  0  0  0  0  0  0  0  0
  140.0210   71.2920  223.6410 C   0  0  0  0  0  0  0  0  0  0  0  0
  139.5430   69.9980  223.6500 C   0  0  0  0  0  0  0  0  0  0  0  0
  139.5700   69.3360  224.8710 C   0  0  0  0  0  0  0  0  0  0  0  0
  140.0490   69.9400  226.0170 C   0  0  0  0  0  0  0  0  0  0  0  0
  140.0600   69.2560  227.2060 C   0  0  0  0  0  0  0  0  0  0  0  0
  140.5500   69.9010  228.3290 C   0  0  0  0  0  0  0  0  0  0  0  0
  141.0140   71.2000  228.2450 C   0  0  0  0  0  0  0  0  0  0  0  0
  140.9900   71.8640  227.0390 C   0  0  0  0  0  0  0  0  0  0  0  0
  140.5020   71.2320  225.8980 C   0  0  0  0  0  0  0  0  0  0  0  0
  140.4900   71.8900  224.7480 N   0  0  0  0  0  0  0  0  0  0  0  0
  139.5650   73.8680  223.3130 H   0  0  0  0  0  0  0  0  0  0  0  0
  140.4573   73.8215  220.4229 H   0  0  0  0  0  0  0  0  0  0  0  0
  138.7271   74.1916  220.6810 H   0  0  0  0  0  0  0  0  0  0  0  0
  139.8694   75.8676  218.7383 H   0  0  0  0  0  0  0  0  0  0  0  0
  138.7897   77.0363  219.6609 H   0  0  0  0  0  0  0  0  0  0  0  0
  139.8773   77.7710  217.4788 H   0  0  0  0  0  0  0  0  0  0  0  0
  139.9024   78.8322  218.9937 H   0  0  0  0  0  0  0  0  0  0  0  0
  142.0788   77.7335  217.4026 H   0  0  0  0  0  0  0  0  0  0  0  0
  141.9653   79.1849  218.4814 H   0  0  0  0  0  0  0  0  0  0  0  0
  142.6162   76.3491  219.1116 H   0  0  0  0  0  0  0  0  0  0  0  0
  143.3991   77.9546  219.6073 H   0  0  0  0  0  0  0  0  0  0  0  0
  142.5547   76.8894  221.4767 H   0  0  0  0  0  0  0  0  0  0  0  0
  141.4981   79.3842  220.7210 H   0  0  0  0  0  0  0  0  0  0  0  0
  140.5326   78.3737  221.9702 H   0  0  0  0  0  0  0  0  0  0  0  0
  140.8361   78.1007  223.7872 H   0  0  0  0  0  0  0  0  0  0  0  0
  141.9873   79.0572  224.6951 H   0  0  0  0  0  0  0  0  0  0  0  0
  139.6942   79.9656  222.8948 H   0  0  0  0  0  0  0  0  0  0  0  0
  140.1527   80.6191  224.4699 H   0  0  0  0  0  0  0  0  0  0  0  0
  140.9801   81.5857  221.8885 H   0  0  0  0  0  0  0  0  0  0  0  0
  141.6160   82.1523  223.4077 H   0  0  0  0  0  0  0  0  0  0  0  0
  143.1078   80.7082  221.5904 H   0  0  0  0  0  0  0  0  0  0  0  0
  143.4251   80.6135  223.3490 H   0  0  0  0  0  0  0  0  0  0  0  0
  139.1606   69.5157  222.7383 H   0  0  0  0  0  0  0  0  0  0  0  0
  139.1995   68.3018  224.9267 H   0  0  0  0  0  0  0  0  0  0  0  0
  139.6892   68.2221  227.2657 H   0  0  0  0  0  0  0  0  0  0  0  0
  140.5701   69.3755  229.2952 H   0  0  0  0  0  0  0  0  0  0  0  0
  141.4028   71.7039  229.1422 H   0  0  0  0  0  0  0  0  0  0  0  0
  141.3581   72.8987  226.9765 H   0  0  0  0  0  0  0  0  0  0  0  0
  1  2  2  0
  2  3  1  0
  3  4  1  0
  4  5  1  0
  5  6  2  0
  5  7  1  0
  7  8  1  0
  8  9  1  0
  9 10  1  0
 10 11  1  0
 11 12  1  0
 12 13  1  0
 13 14  1  0
 14 15  1  0
 15 16  1  0
 16 17  1  0
 17 18  1  0
  2 19  1  0
 19 20  2  0
 20 21  1  0
 21 22  2  0
 22 23  1  0
 23 24  2  0
 24 25  1  0
 25 26  2  0
 26 27  1  0
 27 28  2  0
 12  7  1  0
 18 14  1  0
 28 19  1  0
 27 22  1  0
  3 29  1  0
  4 30  1  0
  4 31  1  0
  8 32  1  0
  8 33  1  0
  9 34  1  0
  9 35  1  0
 10 36  1  0
 10 37  1  0
 11 38  1  0
 11 39  1  0
 12 40  1  1
 13 41  1  0
 13 42  1  0
 15 43  1  0
 15 44  1  0
 16 45  1  0
 16 46  1  0
 17 47  1  0
 17 48  1  0
 18 49  1  0
 18 50  1  0
 20 51  1  0
 21 52  1  0
 23 53  1  0
 24 54  1  0
 25 55  1  0
 26 56  1  0
M  END
>  <smiles>  (34) 
O=C(NCC(=O)N1CCCC[C@H]1CN1CCCC1)c1ccc2ccccc2n1

>  <score_type>  (34) 
oracle

>  <origin>  (34) 
autodockgpu

>  <m_score__min__energy>  (34) 
-8.5199999999999996

>  <m_primary>  (34) 
energy

>  <rmsd>  (34) 
1.815011113213551

>  <m_score__min__rmsd>  (34) 
1.815011113213551

>  <meeko>  (34) 
{"free_energy": -8.43, "intermolecular_energy": -10.22, "internal_energy": -2.09, "cluster_size": 41, "cluster_id": 1, "rank_in_cluster": 14}

>  <energy>  (34) 
-8.06

>  <cluster_rmsd>  (34) 
0.74

>  <cluster>  (34) 
1

$$$$

     RDKit          3D

 56 59  0  0  0  0  0  0  0  0999 V2000
  141.1420   71.6540  221.4220 O   0  0  0  0  0  0  0  0  0  0  0  0
  140.5050   72.1810  222.3920 C   0  0  0  0  0  0  0  0  0  0  0  0
  140.0380   73.5260  222.3000 N   0  0  0  0  0  0  0  0  0  0  0  0
  140.2620   74.3480  221.1140 C   0  0  0  0  0  0  0  0  0  0  0  0
  139.6980   75.6940  221.3660 C   0  0  0  0  0  0  0  0  0  0  0  0
  138.8210   75.8130  222.2590 O   0  0  0  0  0  0  0  0  0  0  0  0
  140.0750   76.8660  220.6700 N   0  0  0  0  0  0  0  0  0  0  0  0
  139.0650   77.5310  219.8810 C   0  0  0  0  0  0  0  0  0  0  0  0
  139.4700   78.8560  219.3220 C   0  0  0  0  0  0  0  0  0  0  0  0
  140.8650   78.9640  218.8220 C   0  0  0  0  0  0  0  0  0  0  0  0
  141.7180   77.8650  219.3390 C   0  0  0  0  0  0  0  0  0  0  0  0
  141.4510   77.4050  220.7280 C   0  0  1  0  0  0  0  0  0  0  0  0
  141.5420   78.3690  221.8370 C   0  0  0  0  0  0  0  0  0  0  0  0
  142.0540   79.6700  221.5890 N   0  0  0  0  0  0  0  0  0  0  0  0
  142.9620   79.9470  222.7380 C   0  0  0  0  0  0  0  0  0  0  0  0
  142.0040   80.2120  223.8690 C   0  0  0  0  0  0  0  0  0  0  0  0
  140.8140   80.8880  223.2300 C   0  0  0  0  0  0  0  0  0  0  0  0
  141.1490   80.7740  221.7660 C   0  0  0  0  0  0  0  0  0  0  0  0
  140.2490   71.3990  223.6180 C   0  0  0  0  0  0  0  0  0  0  0  0
  139.5770   70.2000  223.5060 C   0  0  0  0  0  0  0  0  0  0  0  0
  139.3590   69.4980  224.6840 C   0  0  0  0  0  0  0  0  0  0  0  0
  139.7910   69.9750  225.9060 C   0  0  0  0  0  0  0  0  0  0  0  0
  139.5580   69.2560  227.0510 C   0  0  0  0  0  0  0  0  0  0  0  0
  140.0090   69.7730  228.2530 C   0  0  0  0  0  0  0  0  0  0  0  0
  140.6760   70.9830  228.2900 C   0  0  0  0  0  0  0  0  0  0  0  0
  140.8960   71.6850  227.1270 C   0  0  0  0  0  0  0  0  0  0  0  0
  140.4500   71.1810  225.9070 C   0  0  0  0  0  0  0  0  0  0  0  0
  140.6740   71.8730  224.8000 N   0  0  0  0  0  0  0  0  0  0  0  0
  139.5210   73.8890  223.1450 H   0  0  0  0  0  0  0  0  0  0  0  0
  141.3410   74.4283  220.9158 H   0  0  0  0  0  0  0  0  0  0  0  0
  139.7751   73.8914  220.2397 H   0  0  0  0  0  0  0  0  0  0  0  0
  138.8007   76.8726  219.0404 H   0  0  0  0  0  0  0  0  0  0  0  0
  138.2245   77.7292  220.5623 H   0  0  0  0  0  0  0  0  0  0  0  0
  138.7955   79.0859  218.4841 H   0  0  0  0  0  0  0  0  0  0  0  0
  139.4065   79.5602  220.1647 H   0  0  0  0  0  0  0  0  0  0  0  0
  140.8545   78.9207  217.7229 H   0  0  0  0  0  0  0  0  0  0  0  0
  141.2834   79.9185  219.1739 H   0  0  0  0  0  0  0  0  0  0  0  0
  141.5877   77.0005  218.6714 H   0  0  0  0  0  0  0  0  0  0  0  0
  142.7368   78.2790  219.3640 H   0  0  0  0  0  0  0  0  0  0  0  0
  142.2578   76.7030  220.9854 H   0  0  0  0  0  0  0  0  0  0  0  0
  140.5247   78.4956  222.2359 H   0  0  0  0  0  0  0  0  0  0  0  0
  142.2875   77.9206  222.5102 H   0  0  0  0  0  0  0  0  0  0  0  0
  143.6006   79.0783  222.9559 H   0  0  0  0  0  0  0  0  0  0  0  0
  143.6552   80.7806  222.5521 H   0  0  0  0  0  0  0  0  0  0  0  0
  141.7011   79.2687  224.3469 H   0  0  0  0  0  0  0  0  0  0  0  0
  142.4575   80.8343  224.6546 H   0  0  0  0  0  0  0  0  0  0  0  0
  139.8778   80.3625  223.4694 H   0  0  0  0  0  0  0  0  0  0  0  0
  140.6498   81.9206  223.5718 H   0  0  0  0  0  0  0  0  0  0  0  0
  140.2301   80.5968  221.1879 H   0  0  0  0  0  0  0  0  0  0  0  0
  141.6168   81.7049  221.4130 H   0  0  0  0  0  0  0  0  0  0  0  0
  139.2315   69.8193  222.5335 H   0  0  0  0  0  0  0  0  0  0  0  0
  138.8277   68.5357  224.6428 H   0  0  0  0  0  0  0  0  0  0  0  0
  139.0265   68.2936  227.0146 H   0  0  0  0  0  0  0  0  0  0  0  0
  139.8353   69.2167  229.1859 H   0  0  0  0  0  0  0  0  0  0  0  0
  141.0314   71.3853  229.2501 H   0  0  0  0  0  0  0  0  0  0  0  0
  141.4262   72.6482  227.1607 H   0  0  0  0  0  0  0  0  0  0  0  0
  1  2  2  0
  2  3  1  0
  3  4  1  0
  4  5  1  0
  5  6  2  0
  5  7  1  0
  7  8  1  0
  8  9  1  0
  9 10  1  0
 10 11  1  0
 11 12  1  0
 12 13  1  0
 13 14  1  0
 14 15  1  0
 15 16  1  0
 16 17  1  0
 17 18  1  0
  2 19  1  0
 19 20  2  0
 20 21  1  0
 21 22  2  0
 22 23  1  0
 23 24  2  0
 24 25  1  0
 25 26  2  0
 26 27  1  0
 27 28  2  0
 12  7  1  0
 18 14  1  0
 28 19  1  0
 27 22  1  0
  3 29  1  0
  4 30  1  0
  4 31  1  0
  8 32  1  0
  8 33  1  0
  9 34  1  0
  9 35  1  0
 10 36  1  0
 10 37  1  0
 11 38  1  0
 11 39  1  0
 12 40  1  1
 13 41  1  0
 13 42  1  0
 15 43  1  0
 15 44  1  0
 16 45  1  0
 16 46  1  0
 17 47  1  0
 17 48  1  0
 18 49  1  0
 18 50  1  0
 20 51  1  0
 21 52  1  0
 23 53  1  0
 24 54  1  0
 25 55  1  0
 26 56  1  0
M  END
>  <smiles>  (35) 
O=C(NCC(=O)N1CCCC[C@H]1CN1CCCC1)c1ccc2ccccc2n1

>  <score_type>  (35) 
oracle

>  <origin>  (35) 
autodockgpu

>  <m_score__min__energy>  (35) 
-8.5199999999999996

>  <m_primary>  (35) 
energy

>  <rmsd>  (35) 
2.13999164347728

>  <m_score__min__rmsd>  (35) 
2.13999164347728

>  <meeko>  (35) 
{"free_energy": -8.04, "intermolecular_energy": -9.83, "internal_energy": -2.01, "cluster_size": 41, "cluster_id": 1, "rank_in_cluster": 35}

>  <energy>  (35) 
-8.04

>  <cluster_rmsd>  (35) 
0.63

>  <cluster>  (35) 
1

$$$$

     RDKit          3D

 56 59  0  0  0  0  0  0  0  0999 V2000
  140.2940   71.3930  221.2560 O   0  0  0  0  0  0  0  0  0  0  0  0
  140.0470   71.9900  222.3540 C   0  0  0  0  0  0  0  0  0  0  0  0
  139.7610   73.3880  222.3660 N   0  0  0  0  0  0  0  0  0  0  0  0
  139.7410   74.1880  221.1440 C   0  0  0  0  0  0  0  0  0  0  0  0
  139.9680   75.6040  221.5100 C   0  0  0  0  0  0  0  0  0  0  0  0
  139.7990   75.9430  222.7090 O   0  0  0  0  0  0  0  0  0  0  0  0
  140.3650   76.6150  220.6030 N   0  0  0  0  0  0  0  0  0  0  0  0
  139.7420   76.6290  219.3010 C   0  0  0  0  0  0  0  0  0  0  0  0
  140.0620   77.8210  218.4590 C   0  0  0  0  0  0  0  0  0  0  0  0
  141.4640   78.3130  218.5170 C   0  0  0  0  0  0  0  0  0  0  0  0
  142.1800   77.7840  219.7040 C   0  0  0  0  0  0  0  0  0  0  0  0
  141.3870   77.6260  220.9530 C   0  0  1  0  0  0  0  0  0  0  0  0
  140.7190   78.8010  221.5360 C   0  0  0  0  0  0  0  0  0  0  0  0
  140.5960   78.9040  222.9470 N   0  0  0  0  0  0  0  0  0  0  0  0
  140.2790   80.3380  223.1970 C   0  0  0  0  0  0  0  0  0  0  0  0
  141.5980   81.0220  222.9610 C   0  0  0  0  0  0  0  0  0  0  0  0
  142.6450   80.0380  223.4280 C   0  0  0  0  0  0  0  0  0  0  0  0
  141.8080   78.8200  223.7170 C   0  0  0  0  0  0  0  0  0  0  0  0
  140.0540   71.2330  223.6230 C   0  0  0  0  0  0  0  0  0  0  0  0
  139.5690   69.9430  223.6220 C   0  0  0  0  0  0  0  0  0  0  0  0
  139.5960   69.2690  224.8370 C   0  0  0  0  0  0  0  0  0  0  0  0
  140.0820   69.8610  225.9860 C   0  0  0  0  0  0  0  0  0  0  0  0
  140.0940   69.1660  227.1690 C   0  0  0  0  0  0  0  0  0  0  0  0
  140.5910   69.7990  228.2960 C   0  0  0  0  0  0  0  0  0  0  0  0
  141.0620   71.0960  228.2220 C   0  0  0  0  0  0  0  0  0  0  0  0
  141.0380   71.7700  227.0220 C   0  0  0  0  0  0  0  0  0  0  0  0
  140.5420   71.1510  225.8770 C   0  0  0  0  0  0  0  0  0  0  0  0
  140.5290   71.8190  224.7330 N   0  0  0  0  0  0  0  0  0  0  0  0
  139.5680   73.8070  223.3140 H   0  0  0  0  0  0  0  0  0  0  0  0
  140.5359   73.8478  220.4640 H   0  0  0  0  0  0  0  0  0  0  0  0
  138.7712   74.0792  220.6364 H   0  0  0  0  0  0  0  0  0  0  0  0
  140.0681   75.7301  218.7573 H   0  0  0  0  0  0  0  0  0  0  0  0
  138.6572   76.6625  219.4804 H   0  0  0  0  0  0  0  0  0  0  0  0
  139.8413   77.5612  217.4132 H   0  0  0  0  0  0  0  0  0  0  0  0
  139.4478   78.6388  218.8640 H   0  0  0  0  0  0  0  0  0  0  0  0
  141.9932   77.9909  217.6081 H   0  0  0  0  0  0  0  0  0  0  0  0
  141.4407   79.4103  218.5901 H   0  0  0  0  0  0  0  0  0  0  0  0
  142.5803   76.7948  219.4371 H   0  0  0  0  0  0  0  0  0  0  0  0
  142.9410   78.5419  219.9413 H   0  0  0  0  0  0  0  0  0  0  0  0
  142.1020   77.3675  221.7479 H   0  0  0  0  0  0  0  0  0  0  0  0
  141.2759   79.6871  221.1973 H   0  0  0  0  0  0  0  0  0  0  0  0
  139.6788   78.7059  221.1911 H   0  0  0  0  0  0  0  0  0  0  0  0
  139.5138   80.7019  222.4956 H   0  0  0  0  0  0  0  0  0  0  0  0
  139.8683   80.5227  224.2006 H   0  0  0  0  0  0  0  0  0  0  0  0
  141.7298   81.2470  221.8924 H   0  0  0  0  0  0  0  0  0  0  0  0
  141.6659   81.9796  223.4980 H   0  0  0  0  0  0  0  0  0  0  0  0
  143.3870   79.8377  222.6410 H   0  0  0  0  0  0  0  0  0  0  0  0
  143.2371   80.3882  224.2864 H   0  0  0  0  0  0  0  0  0  0  0  0
  142.3636   77.9131  223.4361 H   0  0  0  0  0  0  0  0  0  0  0  0
  141.5696   78.7732  224.7898 H   0  0  0  0  0  0  0  0  0  0  0  0
  139.1808   69.4715  222.7072 H   0  0  0  0  0  0  0  0  0  0  0  0
  139.2202   68.2363  224.8847 H   0  0  0  0  0  0  0  0  0  0  0  0
  139.7187   68.1333  227.2209 H   0  0  0  0  0  0  0  0  0  0  0  0
  140.6110   69.2652  229.2576 H   0  0  0  0  0  0  0  0  0  0  0  0
  141.4562   71.5900  229.1223 H   0  0  0  0  0  0  0  0  0  0  0  0
  141.4125   72.8028  226.9670 H   0  0  0  0  0  0  0  0  0  0  0  0
  1  2  2  0
  2  3  1  0
  3  4  1  0
  4  5  1  0
  5  6  2  0
  5  7  1  0
  7  8  1  0
  8  9  1  0
  9 10  1  0
 10 11  1  0
 11 12  1  0
 12 13  1  0
 13 14  1  0
 14 15  1  0
 15 16  1  0
 16 17  1  0
 17 18  1  0
  2 19  1  0
 19 20  2  0
 20 21  1  0
 21 22  2  0
 22 23  1  0
 23 24  2  0
 24 25  1  0
 25 26  2  0
 26 27  1  0
 27 28  2  0
 12  7  1  0
 18 14  1  0
 28 19  1  0
 27 22  1  0
  3 29  1  0
  4 30  1  0
  4 31  1  0
  8 32  1  0
  8 33  1  0
  9 34  1  0
  9 35  1  0
 10 36  1  0
 10 37  1  0
 11 38  1  0
 11 39  1  0
 12 40  1  1
 13 41  1  0
 13 42  1  0
 15 43  1  0
 15 44  1  0
 16 45  1  0
 16 46  1  0
 17 47  1  0
 17 48  1  0
 18 49  1  0
 18 50  1  0
 20 51  1  0
 21 52  1  0
 23 53  1  0
 24 54  1  0
 25 55  1  0
 26 56  1  0
M  END
>  <smiles>  (36) 
O=C(NCC(=O)N1CCCC[C@H]1CN1CCCC1)c1ccc2ccccc2n1

>  <score_type>  (36) 
oracle

>  <origin>  (36) 
autodockgpu

>  <m_score__min__energy>  (36) 
-8.5199999999999996

>  <m_primary>  (36) 
energy

>  <rmsd>  (36) 
2.1288304305750425

>  <m_score__min__rmsd>  (36) 
2.1288304305750425

>  <meeko>  (36) 
{"free_energy": -8.44, "intermolecular_energy": -10.23, "internal_energy": -2.13, "cluster_size": 41, "cluster_id": 1, "rank_in_cluster": 13}

>  <energy>  (36) 
-7.95

>  <cluster_rmsd>  (36) 
1.54

>  <cluster>  (36) 
1

$$$$

     RDKit          3D

 56 59  0  0  0  0  0  0  0  0999 V2000
  140.6860   71.4860  221.3380 O   0  0  0  0  0  0  0  0  0  0  0  0
  140.2640   72.0760  222.3850 C   0  0  0  0  0  0  0  0  0  0  0  0
  139.9020   73.4550  222.3380 N   0  0  0  0  0  0  0  0  0  0  0  0
  139.9950   74.2420  221.1120 C   0  0  0  0  0  0  0  0  0  0  0  0
  140.0860   75.6730  221.4820 C   0  0  0  0  0  0  0  0  0  0  0  0
  139.8100   76.0000  222.6640 O   0  0  0  0  0  0  0  0  0  0  0  0
  140.4640   76.7100  220.5960 N   0  0  0  0  0  0  0  0  0  0  0  0
  139.5940   76.9860  219.4780 C   0  0  0  0  0  0  0  0  0  0  0  0
  139.9460   78.2040  218.6880 C   0  0  0  0  0  0  0  0  0  0  0  0
  141.3950   78.4510  218.4650 C   0  0  0  0  0  0  0  0  0  0  0  0
  142.2340   77.6700  219.4070 C   0  0  0  0  0  0  0  0  0  0  0  0
  141.7060   77.4900  220.7860 C   0  0  1  0  0  0  0  0  0  0  0  0
  141.4070   78.6770  221.6030 C   0  0  0  0  0  0  0  0  0  0  0  0
  142.1580   78.9170  222.7850 N   0  0  0  0  0  0  0  0  0  0  0  0
  141.1370   79.1830  223.8370 C   0  0  0  0  0  0  0  0  0  0  0  0
  140.6570   80.5690  223.5000 C   0  0  0  0  0  0  0  0  0  0  0  0
  141.8670   81.2840  222.9470 C   0  0  0  0  0  0  0  0  0  0  0  0
  142.8700   80.1640  222.8650 C   0  0  0  0  0  0  0  0  0  0  0  0
  140.1490   71.3310  223.6560 C   0  0  0  0  0  0  0  0  0  0  0  0
  139.5710   70.0790  223.6350 C   0  0  0  0  0  0  0  0  0  0  0  0
  139.4840   69.4160  224.8520 C   0  0  0  0  0  0  0  0  0  0  0  0
  139.9510   69.9800  226.0230 C   0  0  0  0  0  0  0  0  0  0  0  0
  139.8490   69.2960  227.2080 C   0  0  0  0  0  0  0  0  0  0  0  0
  140.3310   69.9000  228.3570 C   0  0  0  0  0  0  0  0  0  0  0  0
  140.8980   71.1590  228.3030 C   0  0  0  0  0  0  0  0  0  0  0  0
  140.9870   71.8240  227.1000 C   0  0  0  0  0  0  0  0  0  0  0  0
  140.5090   71.2330  225.9330 C   0  0  0  0  0  0  0  0  0  0  0  0
  140.6060   71.8900  224.7880 N   0  0  0  0  0  0  0  0  0  0  0  0
  139.5630   73.8700  223.2470 H   0  0  0  0  0  0  0  0  0  0  0  0
  140.8917   73.9463  220.5476 H   0  0  0  0  0  0  0  0  0  0  0  0
  139.1089   74.0693  220.4835 H   0  0  0  0  0  0  0  0  0  0  0  0
  139.6240   76.1198  218.8006 H   0  0  0  0  0  0  0  0  0  0  0  0
  138.5974   77.1740  219.9039 H   0  0  0  0  0  0  0  0  0  0  0  0
  139.4662   78.1138  217.7023 H   0  0  0  0  0  0  0  0  0  0  0  0
  139.5937   79.0547  219.2898 H   0  0  0  0  0  0  0  0  0  0  0  0
  141.6518   78.1625  217.4350 H   0  0  0  0  0  0  0  0  0  0  0  0
  141.5917   79.5199  218.6345 H   0  0  0  0  0  0  0  0  0  0  0  0
  142.3783   76.6696  218.9729 H   0  0  0  0  0  0  0  0  0  0  0  0
  143.1556   78.2585  219.5267 H   0  0  0  0  0  0  0  0  0  0  0  0
  142.5110   77.0218  221.3714 H   0  0  0  0  0  0  0  0  0  0  0  0
  141.5415   79.5549  220.9540 H   0  0  0  0  0  0  0  0  0  0  0  0
  140.3900   78.4859  221.9760 H   0  0  0  0  0  0  0  0  0  0  0  0
  140.3139   78.4553  223.7821 H   0  0  0  0  0  0  0  0  0  0  0  0
  141.5353   79.0987  224.8589 H   0  0  0  0  0  0  0  0  0  0  0  0
  139.8561   80.5274  222.7471 H   0  0  0  0  0  0  0  0  0  0  0  0
  140.2406   81.0845  224.3780 H   0  0  0  0  0  0  0  0  0  0  0  0
  141.6615   81.7121  221.9548 H   0  0  0  0  0  0  0  0  0  0  0  0
  142.1989   82.1379  223.5558 H   0  0  0  0  0  0  0  0  0  0  0  0
  143.4960   80.2917  221.9696 H   0  0  0  0  0  0  0  0  0  0  0  0
  143.5164   80.1718  223.7550 H   0  0  0  0  0  0  0  0  0  0  0  0
  139.1984   69.6291  222.7029 H   0  0  0  0  0  0  0  0  0  0  0  0
  139.0307   68.4142  224.8843 H   0  0  0  0  0  0  0  0  0  0  0  0
  139.3962   68.2942  227.2443 H   0  0  0  0  0  0  0  0  0  0  0  0
  140.2620   69.3735  229.3203 H   0  0  0  0  0  0  0  0  0  0  0  0
  141.2785   71.6304  229.2212 H   0  0  0  0  0  0  0  0  0  0  0  0
  141.4378   72.8266  227.0609 H   0  0  0  0  0  0  0  0  0  0  0  0
  1  2  2  0
  2  3  1  0
  3  4  1  0
  4  5  1  0
  5  6  2  0
  5  7  1  0
  7  8  1  0
  8  9  1  0
  9 10  1  0
 10 11  1  0
 11 12  1  0
 12 13  1  0
 13 14  1  0
 14 15  1  0
 15 16  1  0
 16 17  1  0
 17 18  1  0
  2 19  1  0
 19 20  2  0
 20 21  1  0
 21 22  2  0
 22 23  1  0
 23 24  2  0
 24 25  1  0
 25 26  2  0
 26 27  1  0
 27 28  2  0
 12  7  1  0
 18 14  1  0
 28 19  1  0
 27 22  1  0
  3 29  1  0
  4 30  1  0
  4 31  1  0
  8 32  1  0
  8 33  1  0
  9 34  1  0
  9 35  1  0
 10 36  1  0
 10 37  1  0
 11 38  1  0
 11 39  1  0
 12 40  1  1
 13 41  1  0
 13 42  1  0
 15 43  1  0
 15 44  1  0
 16 45  1  0
 16 46  1  0
 17 47  1  0
 17 48  1  0
 18 49  1  0
 18 50  1  0
 20 51  1  0
 21 52  1  0
 23 53  1  0
 24 54  1  0
 25 55  1  0
 26 56  1  0
M  END
>  <smiles>  (37) 
O=C(NCC(=O)N1CCCC[C@H]1CN1CCCC1)c1ccc2ccccc2n1

>  <score_type>  (37) 
oracle

>  <origin>  (37) 
autodockgpu

>  <m_score__min__energy>  (37) 
-8.5199999999999996

>  <m_primary>  (37) 
energy

>  <rmsd>  (37) 
1.9591371537231947

>  <m_score__min__rmsd>  (37) 
1.9591371537231947

>  <meeko>  (37) 
{"free_energy": -8.52, "intermolecular_energy": -10.31, "internal_energy": -2.05, "cluster_size": 41, "cluster_id": 1, "rank_in_cluster": 1}

>  <energy>  (37) 
-7.86

>  <cluster_rmsd>  (37) 
0.52

>  <cluster>  (37) 
1

$$$$

     RDKit          3D

 56 59  0  0  0  0  0  0  0  0999 V2000
  140.4830   71.4320  221.3120 O   0  0  0  0  0  0  0  0  0  0  0  0
  140.1090   72.0160  222.3810 C   0  0  0  0  0  0  0  0  0  0  0  0
  139.6970   73.3810  222.3490 N   0  0  0  0  0  0  0  0  0  0  0  0
  139.6840   74.1620  221.1150 C   0  0  0  0  0  0  0  0  0  0  0  0
  140.6860   75.2450  221.2380 C   0  0  0  0  0  0  0  0  0  0  0  0
  140.6680   75.9570  222.2740 O   0  0  0  0  0  0  0  0  0  0  0  0
  141.6720   75.5410  220.2670 N   0  0  0  0  0  0  0  0  0  0  0  0
  141.7850   76.9100  219.8240 C   0  0  0  0  0  0  0  0  0  0  0  0
  142.9570   77.1950  218.9430 C   0  0  0  0  0  0  0  0  0  0  0  0
  143.2970   76.1530  217.9380 C   0  0  0  0  0  0  0  0  0  0  0  0
  142.6650   74.8510  218.2660 C   0  0  0  0  0  0  0  0  0  0  0  0
  142.5590   74.4990  219.7070 C   0  0  1  0  0  0  0  0  0  0  0  0
  143.7830   74.4230  220.5210 C   0  0  0  0  0  0  0  0  0  0  0  0
  144.2260   73.1610  220.9980 N   0  0  0  0  0  0  0  0  0  0  0  0
  145.6670   73.3610  221.3220 C   0  0  0  0  0  0  0  0  0  0  0  0
  146.3150   73.4140  219.9650 C   0  0  0  0  0  0  0  0  0  0  0  0
  145.5110   72.4680  219.1040 C   0  0  0  0  0  0  0  0  0  0  0  0
  144.3750   72.1100  220.0260 C   0  0  0  0  0  0  0  0  0  0  0  0
  140.1020   71.2780  223.6610 C   0  0  0  0  0  0  0  0  0  0  0  0
  139.6000   69.9930  223.6770 C   0  0  0  0  0  0  0  0  0  0  0  0
  139.6130   69.3370  224.9010 C   0  0  0  0  0  0  0  0  0  0  0  0
  140.1020   69.9390  226.0440 C   0  0  0  0  0  0  0  0  0  0  0  0
  140.1000   69.2620  227.2370 C   0  0  0  0  0  0  0  0  0  0  0  0
  140.6010   69.9050  228.3560 C   0  0  0  0  0  0  0  0  0  0  0  0
  141.0890   71.1950  228.2650 C   0  0  0  0  0  0  0  0  0  0  0  0
  141.0780   71.8520  227.0560 C   0  0  0  0  0  0  0  0  0  0  0  0
  140.5790   71.2220  225.9180 C   0  0  0  0  0  0  0  0  0  0  0  0
  140.5800   71.8740  224.7650 N   0  0  0  0  0  0  0  0  0  0  0  0
  139.4030   73.7910  223.2760 H   0  0  0  0  0  0  0  0  0  0  0  0
  139.9389   73.5148  220.2628 H   0  0  0  0  0  0  0  0  0  0  0  0
  138.6841   74.5889  220.9479 H   0  0  0  0  0  0  0  0  0  0  0  0
  140.8706   77.1652  219.2683 H   0  0  0  0  0  0  0  0  0  0  0  0
  141.9288   77.5152  220.7312 H   0  0  0  0  0  0  0  0  0  0  0  0
  142.7483   78.1285  218.3998 H   0  0  0  0  0  0  0  0  0  0  0  0
  143.8245   77.2449  219.6175 H   0  0  0  0  0  0  0  0  0  0  0  0
  142.9444   76.4820  216.9494 H   0  0  0  0  0  0  0  0  0  0  0  0
  144.3884   76.0160  217.9402 H   0  0  0  0  0  0  0  0  0  0  0  0
  141.6464   74.8620  217.8507 H   0  0  0  0  0  0  0  0  0  0  0  0
  143.3323   74.0911  217.8334 H   0  0  0  0  0  0  0  0  0  0  0  0
  142.2048   73.4585  219.7505 H   0  0  0  0  0  0  0  0  0  0  0  0
  144.5989   74.8398  219.9123 H   0  0  0  0  0  0  0  0  0  0  0  0
  143.5184   74.9687  221.4387 H   0  0  0  0  0  0  0  0  0  0  0  0
  145.8219   74.3015  221.8711 H   0  0  0  0  0  0  0  0  0  0  0  0
  146.0793   72.5725  221.9687 H   0  0  0  0  0  0  0  0  0  0  0  0
  146.2742   74.4351  219.5578 H   0  0  0  0  0  0  0  0  0  0  0  0
  147.3771   73.1305  220.0056 H   0  0  0  0  0  0  0  0  0  0  0  0
  145.1470   72.9656  218.1930 H   0  0  0  0  0  0  0  0  0  0  0  0
  146.0812   71.6010  218.7391 H   0  0  0  0  0  0  0  0  0  0  0  0
  143.4457   72.0062  219.4466 H   0  0  0  0  0  0  0  0  0  0  0  0
  144.5869   71.1565  220.5319 H   0  0  0  0  0  0  0  0  0  0  0  0
  139.2097   69.5130  222.7675 H   0  0  0  0  0  0  0  0  0  0  0  0
  139.2233   68.3101  224.9619 H   0  0  0  0  0  0  0  0  0  0  0  0
  139.7106   68.2353  227.3028 H   0  0  0  0  0  0  0  0  0  0  0  0
  140.6108   69.3851  229.3253 H   0  0  0  0  0  0  0  0  0  0  0  0
  141.4864   71.6967  229.1596 H   0  0  0  0  0  0  0  0  0  0  0  0
  141.4650   72.8794  226.9877 H   0  0  0  0  0  0  0  0  0  0  0  0
  1  2  2  0
  2  3  1  0
  3  4  1  0
  4  5  1  0
  5  6  2  0
  5  7  1  0
  7  8  1  0
  8  9  1  0
  9 10  1  0
 10 11  1  0
 11 12  1  0
 12 13  1  0
 13 14  1  0
 14 15  1  0
 15 16  1  0
 16 17  1  0
 17 18  1  0
  2 19  1  0
 19 20  2  0
 20 21  1  0
 21 22  2  0
 22 23  1  0
 23 24  2  0
 24 25  1  0
 25 26  2  0
 26 27  1  0
 27 28  2  0
 12  7  1  0
 18 14  1  0
 28 19  1  0
 27 22  1  0
  3 29  1  0
  4 30  1  0
  4 31  1  0
  8 32  1  0
  8 33  1  0
  9 34  1  0
  9 35  1  0
 10 36  1  0
 10 37  1  0
 11 38  1  0
 11 39  1  0
 12 40  1  6
 13 41  1  0
 13 42  1  0
 15 43  1  0
 15 44  1  0
 16 45  1  0
 16 46  1  0
 17 47  1  0
 17 48  1  0
 18 49  1  0
 18 50  1  0
 20 51  1  0
 21 52  1  0
 23 53  1  0
 24 54  1  0
 25 55  1  0
 26 56  1  0
M  END
>  <smiles>  (38) 
O=C(NCC(=O)N1CCCC[C@H]1CN1CCCC1)c1ccc2ccccc2n1

>  <score_type>  (38) 
oracle

>  <origin>  (38) 
autodockgpu

>  <m_score__min__energy>  (38) 
-8.5199999999999996

>  <m_primary>  (38) 
energy

>  <rmsd>  (38) 
4.331622040990143

>  <m_score__min__rmsd>  (38) 
4.331622040990143

>  <meeko>  (38) 
{"free_energy": -8.33, "intermolecular_energy": -10.12, "internal_energy": -1.96, "cluster_size": 6, "cluster_id": 2, "rank_in_cluster": 3}

>  <energy>  (38) 
-7.8

>  <cluster_rmsd>  (38) 
0.8

>  <cluster>  (38) 
1

$$$$

     RDKit          3D

 56 59  0  0  0  0  0  0  0  0999 V2000
  140.7900   71.4220  221.3100 O   0  0  0  0  0  0  0  0  0  0  0  0
  140.2930   72.0100  222.3240 C   0  0  0  0  0  0  0  0  0  0  0  0
  139.8400   73.3590  222.2240 N   0  0  0  0  0  0  0  0  0  0  0  0
  139.9240   74.1180  220.9790 C   0  0  0  0  0  0  0  0  0  0  0  0
  140.8990   75.2160  221.1670 C   0  0  0  0  0  0  0  0  0  0  0  0
  141.0260   75.7080  222.3170 O   0  0  0  0  0  0  0  0  0  0  0  0
  141.7060   75.7590  220.1390 N   0  0  0  0  0  0  0  0  0  0  0  0
  141.6080   77.1770  219.8890 C   0  0  0  0  0  0  0  0  0  0  0  0
  142.6130   77.7200  218.9250 C   0  0  0  0  0  0  0  0  0  0  0  0
  142.9250   76.8690  217.7470 C   0  0  0  0  0  0  0  0  0  0  0  0
  142.4880   75.4660  217.9550 C   0  0  0  0  0  0  0  0  0  0  0  0
  142.6170   74.9190  219.3320 C   0  0  1  0  0  0  0  0  0  0  0  0
  143.9410   74.8930  219.9750 C   0  0  0  0  0  0  0  0  0  0  0  0
  144.2110   73.9220  220.9760 N   0  0  0  0  0  0  0  0  0  0  0  0
  145.6950   73.7880  220.9850 C   0  0  0  0  0  0  0  0  0  0  0  0
  145.9720   73.0080  219.7280 C   0  0  0  0  0  0  0  0  0  0  0  0
  144.7920   72.0770  219.5710 C   0  0  0  0  0  0  0  0  0  0  0  0
  143.8800   72.5570  220.6690 C   0  0  0  0  0  0  0  0  0  0  0  0
  140.1830   71.2940  223.6120 C   0  0  0  0  0  0  0  0  0  0  0  0
  139.5800   70.0540  223.6260 C   0  0  0  0  0  0  0  0  0  0  0  0
  139.4990   69.4170  224.8580 C   0  0  0  0  0  0  0  0  0  0  0  0
  139.9950   69.9950  226.0100 C   0  0  0  0  0  0  0  0  0  0  0  0
  139.8980   69.3380  227.2100 C   0  0  0  0  0  0  0  0  0  0  0  0
  140.4100   69.9560  228.3390 C   0  0  0  0  0  0  0  0  0  0  0  0
  141.0010   71.2020  228.2490 C   0  0  0  0  0  0  0  0  0  0  0  0
  141.0850   71.8400  227.0320 C   0  0  0  0  0  0  0  0  0  0  0  0
  140.5770   71.2350  225.8850 C   0  0  0  0  0  0  0  0  0  0  0  0
  140.6690   71.8670  224.7250 N   0  0  0  0  0  0  0  0  0  0  0  0
  139.4420   73.7740  223.1080 H   0  0  0  0  0  0  0  0  0  0  0  0
  140.2586   73.4593  220.1640 H   0  0  0  0  0  0  0  0  0  0  0  0
  138.9372   74.5287  220.7190 H   0  0  0  0  0  0  0  0  0  0  0  0
  140.6046   77.3843  219.4886 H   0  0  0  0  0  0  0  0  0  0  0  0
  141.8058   77.6728  220.8508 H   0  0  0  0  0  0  0  0  0  0  0  0
  142.2328   78.6823  218.5515 H   0  0  0  0  0  0  0  0  0  0  0  0
  143.5531   77.7910  219.4917 H   0  0  0  0  0  0  0  0  0  0  0  0
  142.4087   77.2767  216.8654 H   0  0  0  0  0  0  0  0  0  0  0  0
  144.0151   76.8714  217.6000 H   0  0  0  0  0  0  0  0  0  0  0  0
  141.4275   75.4024  217.6700 H   0  0  0  0  0  0  0  0  0  0  0  0
  143.1688   74.8591  217.3400 H   0  0  0  0  0  0  0  0  0  0  0  0
  142.3871   73.8453  219.2657 H   0  0  0  0  0  0  0  0  0  0  0  0
  144.6824   74.7443  219.1761 H   0  0  0  0  0  0  0  0  0  0  0  0
  143.9831   75.8470  220.5209 H   0  0  0  0  0  0  0  0  0  0  0  0
  146.1812   74.7742  220.9536 H   0  0  0  0  0  0  0  0  0  0  0  0
  146.0807   73.2997  221.8921 H   0  0  0  0  0  0  0  0  0  0  0  0
  146.0477   73.6839  218.8635 H   0  0  0  0  0  0  0  0  0  0  0  0
  146.9236   72.4593  219.7860 H   0  0  0  0  0  0  0  0  0  0  0  0
  144.3225   72.1871  218.5823 H   0  0  0  0  0  0  0  0  0  0  0  0
  145.0514   71.0102  219.6388 H   0  0  0  0  0  0  0  0  0  0  0  0
  142.8337   72.4954  220.3352 H   0  0  0  0  0  0  0  0  0  0  0  0
  144.0060   71.9294  221.5635 H   0  0  0  0  0  0  0  0  0  0  0  0
  139.1837   69.5931  222.7092 H   0  0  0  0  0  0  0  0  0  0  0  0
  139.0269   68.4252  224.9175 H   0  0  0  0  0  0  0  0  0  0  0  0
  139.4261   68.3465  227.2742 H   0  0  0  0  0  0  0  0  0  0  0  0
  140.3457   69.4513  229.3143 H   0  0  0  0  0  0  0  0  0  0  0  0
  141.4049   71.6847  229.1511 H   0  0  0  0  0  0  0  0  0  0  0  0
  141.5555   72.8321  226.9652 H   0  0  0  0  0  0  0  0  0  0  0  0
  1  2  2  0
  2  3  1  0
  3  4  1  0
  4  5  1  0
  5  6  2  0
  5  7  1  0
  7  8  1  0
  8  9  1  0
  9 10  1  0
 10 11  1  0
 11 12  1  0
 12 13  1  0
 13 14  1  0
 14 15  1  0
 15 16  1  0
 16 17  1  0
 17 18  1  0
  2 19  1  0
 19 20  2  0
 20 21  1  0
 21 22  2  0
 22 23  1  0
 23 24  2  0
 24 25  1  0
 25 26  2  0
 26 27  1  0
 27 28  2  0
 12  7  1  0
 18 14  1  0
 28 19  1  0
 27 22  1  0
  3 29  1  0
  4 30  1  0
  4 31  1  0
  8 32  1  0
  8 33  1  0
  9 34  1  0
  9 35  1  0
 10 36  1  0
 10 37  1  0
 11 38  1  0
 11 39  1  0
 12 40  1  6
 13 41  1  0
 13 42  1  0
 15 43  1  0
 15 44  1  0
 16 45  1  0
 16 46  1  0
 17 47  1  0
 17 48  1  0
 18 49  1  0
 18 50  1  0
 20 51  1  0
 21 52  1  0
 23 53  1  0
 24 54  1  0
 25 55  1  0
 26 56  1  0
M  END
>  <smiles>  (39) 
O=C(NCC(=O)N1CCCC[C@H]1CN1CCCC1)c1ccc2ccccc2n1

>  <score_type>  (39) 
oracle

>  <origin>  (39) 
autodockgpu

>  <m_score__min__energy>  (39) 
-8.5199999999999996

>  <m_primary>  (39) 
energy

>  <rmsd>  (39) 
4.255660070233087

>  <m_score__min__rmsd>  (39) 
4.255660070233087

>  <meeko>  (39) 
{"free_energy": -8.39, "intermolecular_energy": -10.18, "internal_energy": -2.02, "cluster_size": 6, "cluster_id": 2, "rank_in_cluster": 2}

>  <energy>  (39) 
-7.73

>  <cluster_rmsd>  (39) 
1.24

>  <cluster>  (39) 
1

$$$$

     RDKit          3D

 56 59  0  0  0  0  0  0  0  0999 V2000
  140.0080   71.3410  221.2530 O   0  0  0  0  0  0  0  0  0  0  0  0
  139.8750   71.9760  222.3500 C   0  0  0  0  0  0  0  0  0  0  0  0
  139.6780   73.3890  222.3450 N   0  0  0  0  0  0  0  0  0  0  0  0
  139.6220   74.1620  221.1070 C   0  0  0  0  0  0  0  0  0  0  0  0
  140.2010   75.5000  221.3660 C   0  0  0  0  0  0  0  0  0  0  0  0
  140.2880   75.8900  222.5580 O   0  0  0  0  0  0  0  0  0  0  0  0
  140.6700   76.3800  220.3620 N   0  0  0  0  0  0  0  0  0  0  0  0
  140.0070   76.3490  219.0810 C   0  0  0  0  0  0  0  0  0  0  0  0
  140.4210   77.4220  218.1270 C   0  0  0  0  0  0  0  0  0  0  0  0
  141.8670   77.7650  218.1060 C   0  0  0  0  0  0  0  0  0  0  0  0
  142.5650   77.2670  219.3170 C   0  0  0  0  0  0  0  0  0  0  0  0
  141.8030   77.3020  220.5940 C   0  0  1  0  0  0  0  0  0  0  0  0
  141.2820   78.5880  221.0860 C   0  0  0  0  0  0  0  0  0  0  0  0
  140.7940   78.6790  222.4170 N   0  0  0  0  0  0  0  0  0  0  0  0
  140.3190   80.0840  222.5530 C   0  0  0  0  0  0  0  0  0  0  0  0
  141.6010   80.8670  222.6500 C   0  0  0  0  0  0  0  0  0  0  0  0
  142.5620   79.9630  223.3860 C   0  0  0  0  0  0  0  0  0  0  0  0
  141.7700   78.6850  223.4730 C   0  0  0  0  0  0  0  0  0  0  0  0
  139.9250   71.2480  223.6340 C   0  0  0  0  0  0  0  0  0  0  0  0
  139.4810   69.9430  223.6680 C   0  0  0  0  0  0  0  0  0  0  0  0
  139.5460   69.2970  224.8970 C   0  0  0  0  0  0  0  0  0  0  0  0
  140.0300   69.9290  226.0260 C   0  0  0  0  0  0  0  0  0  0  0  0
  140.0810   69.2610  227.2230 C   0  0  0  0  0  0  0  0  0  0  0  0
  140.5740   69.9330  228.3280 C   0  0  0  0  0  0  0  0  0  0  0  0
  141.0030   71.2430  228.2190 C   0  0  0  0  0  0  0  0  0  0  0  0
  140.9400   71.8900  227.0060 C   0  0  0  0  0  0  0  0  0  0  0  0
  140.4480   71.2300  225.8820 C   0  0  0  0  0  0  0  0  0  0  0  0
  140.3980   71.8720  224.7250 N   0  0  0  0  0  0  0  0  0  0  0  0
  139.5780   73.8400  223.2930 H   0  0  0  0  0  0  0  0  0  0  0  0
  140.2014   73.6516  220.3236 H   0  0  0  0  0  0  0  0  0  0  0  0
  138.5799   74.2597  220.7688 H   0  0  0  0  0  0  0  0  0  0  0  0
  140.2170   75.3764  218.6120 H   0  0  0  0  0  0  0  0  0  0  0  0
  138.9389   76.5155  219.2847 H   0  0  0  0  0  0  0  0  0  0  0  0
  140.1394   77.0968  217.1146 H   0  0  0  0  0  0  0  0  0  0  0  0
  139.9094   78.3328  218.4714 H   0  0  0  0  0  0  0  0  0  0  0  0
  142.3284   77.3115  217.2164 H   0  0  0  0  0  0  0  0  0  0  0  0
  141.9600   78.8608  218.0819 H   0  0  0  0  0  0  0  0  0  0  0  0
  142.8516   76.2217  219.1294 H   0  0  0  0  0  0  0  0  0  0  0  0
  143.4083   77.9573  219.4667 H   0  0  0  0  0  0  0  0  0  0  0  0
  142.5137   77.0369  221.3907 H   0  0  0  0  0  0  0  0  0  0  0  0
  142.0970   79.3208  220.9927 H   0  0  0  0  0  0  0  0  0  0  0  0
  140.3873   78.7586  220.4693 H   0  0  0  0  0  0  0  0  0  0  0  0
  139.7341   80.3905  221.6732 H   0  0  0  0  0  0  0  0  0  0  0  0
  139.6527   80.2348  223.4151 H   0  0  0  0  0  0  0  0  0  0  0  0
  141.9854   81.1037  221.6469 H   0  0  0  0  0  0  0  0  0  0  0  0
  141.4588   81.8262  223.1694 H   0  0  0  0  0  0  0  0  0  0  0  0
  143.4933   79.8201  222.8183 H   0  0  0  0  0  0  0  0  0  0  0  0
  142.8872   80.3550  224.3610 H   0  0  0  0  0  0  0  0  0  0  0  0
  142.4437   77.8228  223.3602 H   0  0  0  0  0  0  0  0  0  0  0  0
  141.2683   78.6188  224.4497 H   0  0  0  0  0  0  0  0  0  0  0  0
  139.0954   69.4394  222.7693 H   0  0  0  0  0  0  0  0  0  0  0  0
  139.2029   68.2546  224.9726 H   0  0  0  0  0  0  0  0  0  0  0  0
  139.7390   68.2185  227.3026 H   0  0  0  0  0  0  0  0  0  0  0  0
  140.6249   69.4211  229.3003 H   0  0  0  0  0  0  0  0  0  0  0  0
  141.3949   71.7683  229.1024 H   0  0  0  0  0  0  0  0  0  0  0  0
  141.2797   72.9330  226.9235 H   0  0  0  0  0  0  0  0  0  0  0  0
  1  2  2  0
  2  3  1  0
  3  4  1  0
  4  5  1  0
  5  6  2  0
  5  7  1  0
  7  8  1  0
  8  9  1  0
  9 10  1  0
 10 11  1  0
 11 12  1  0
 12 13  1  0
 13 14  1  0
 14 15  1  0
 15 16  1  0
 16 17  1  0
 17 18  1  0
  2 19  1  0
 19 20  2  0
 20 21  1  0
 21 22  2  0
 22 23  1  0
 23 24  2  0
 24 25  1  0
 25 26  2  0
 26 27  1  0
 27 28  2  0
 12  7  1  0
 18 14  1  0
 28 19  1  0
 27 22  1  0
  3 29  1  0
  4 30  1  0
  4 31  1  0
  8 32  1  0
  8 33  1  0
  9 34  1  0
  9 35  1  0
 10 36  1  0
 10 37  1  0
 11 38  1  0
 11 39  1  0
 12 40  1  1
 13 41  1  0
 13 42  1  0
 15 43  1  0
 15 44  1  0
 16 45  1  0
 16 46  1  0
 17 47  1  0
 17 48  1  0
 18 49  1  0
 18 50  1  0
 20 51  1  0
 21 52  1  0
 23 53  1  0
 24 54  1  0
 25 55  1  0
 26 56  1  0
M  END
>  <smiles>  (40) 
O=C(NCC(=O)N1CCCC[C@H]1CN1CCCC1)c1ccc2ccccc2n1

>  <score_type>  (40) 
oracle

>  <origin>  (40) 
autodockgpu

>  <m_score__min__energy>  (40) 
-8.5199999999999996

>  <m_primary>  (40) 
energy

>  <rmsd>  (40) 
2.035425946178164

>  <m_score__min__rmsd>  (40) 
2.035425946178164

>  <meeko>  (40) 
{"free_energy": -8.35, "intermolecular_energy": -10.14, "internal_energy": -2.11, "cluster_size": 41, "cluster_id": 1, "rank_in_cluster": 23}

>  <energy>  (40) 
-7.62

>  <cluster_rmsd>  (40) 
1.74

>  <cluster>  (40) 
1

$$$$

     RDKit          3D

 56 59  0  0  0  0  0  0  0  0999 V2000
  140.1900   71.1080  221.2840 O   0  0  0  0  0  0  0  0  0  0  0  0
  139.9670   71.7110  222.3840 C   0  0  0  0  0  0  0  0  0  0  0  0
  139.7380   73.1190  222.4000 N   0  0  0  0  0  0  0  0  0  0  0  0
  139.7490   73.9230  221.1810 C   0  0  0  0  0  0  0  0  0  0  0  0
  139.8030   75.3520  221.5640 C   0  0  0  0  0  0  0  0  0  0  0  0
  139.3880   75.6770  222.7060 O   0  0  0  0  0  0  0  0  0  0  0  0
  140.2910   76.3890  220.7350 N   0  0  0  0  0  0  0  0  0  0  0  0
  139.8520   76.4100  219.3610 C   0  0  0  0  0  0  0  0  0  0  0  0
  140.2500   77.6250  218.5870 C   0  0  0  0  0  0  0  0  0  0  0  0
  141.6160   78.1530  218.8440 C   0  0  0  0  0  0  0  0  0  0  0  0
  142.1790   77.6210  220.1110 C   0  0  0  0  0  0  0  0  0  0  0  0
  141.2270   77.4200  221.2360 C   0  0  1  0  0  0  0  0  0  0  0  0
  140.4530   78.5660  221.7390 C   0  0  0  0  0  0  0  0  0  0  0  0
  140.5340   78.9130  223.1140 N   0  0  0  0  0  0  0  0  0  0  0  0
  140.4270   80.3980  223.1380 C   0  0  0  0  0  0  0  0  0  0  0  0
  141.7750   80.8430  222.6370 C   0  0  0  0  0  0  0  0  0  0  0  0
  142.7500   79.8100  223.1510 C   0  0  0  0  0  0  0  0  0  0  0  0
  141.8200   78.7850  223.7460 C   0  0  0  0  0  0  0  0  0  0  0  0
  139.9440   70.9510  223.6510 C   0  0  0  0  0  0  0  0  0  0  0  0
  139.4700   69.6560  223.6320 C   0  0  0  0  0  0  0  0  0  0  0  0
  139.4670   68.9800  224.8460 C   0  0  0  0  0  0  0  0  0  0  0  0
  139.9160   69.5720  226.0100 C   0  0  0  0  0  0  0  0  0  0  0  0
  139.8990   68.8740  227.1910 C   0  0  0  0  0  0  0  0  0  0  0  0
  140.3590   69.5070  228.3330 C   0  0  0  0  0  0  0  0  0  0  0  0
  140.8210   70.8090  228.2760 C   0  0  0  0  0  0  0  0  0  0  0  0
  140.8260   71.4860  227.0780 C   0  0  0  0  0  0  0  0  0  0  0  0
  140.3680   70.8660  225.9170 C   0  0  0  0  0  0  0  0  0  0  0  0
  140.3830   71.5370  224.7760 N   0  0  0  0  0  0  0  0  0  0  0  0
  139.5620   73.5430  223.3500 H   0  0  0  0  0  0  0  0  0  0  0  0
  140.6308   73.6672  220.5752 H   0  0  0  0  0  0  0  0  0  0  0  0
  138.8433   73.7244  220.5892 H   0  0  0  0  0  0  0  0  0  0  0  0
  140.2748   75.5297  218.8546 H   0  0  0  0  0  0  0  0  0  0  0  0
  138.7524   76.4121  219.3906 H   0  0  0  0  0  0  0  0  0  0  0  0
  140.1823   77.3777  217.5173 H   0  0  0  0  0  0  0  0  0  0  0  0
  139.5628   78.4190  218.9147 H   0  0  0  0  0  0  0  0  0  0  0  0
  142.2735   77.8621  218.0115 H   0  0  0  0  0  0  0  0  0  0  0  0
  141.5509   79.2477  218.9297 H   0  0  0  0  0  0  0  0  0  0  0  0
  142.6401   76.6477  219.8874 H   0  0  0  0  0  0  0  0  0  0  0  0
  142.8794   78.3935  220.4613 H   0  0  0  0  0  0  0  0  0  0  0  0
  141.8339   77.1657  222.1175 H   0  0  0  0  0  0  0  0  0  0  0  0
  140.7772   79.4476  221.1665 H   0  0  0  0  0  0  0  0  0  0  0  0
  139.4075   78.2480  221.6130 H   0  0  0  0  0  0  0  0  0  0  0  0
  139.6232   80.7472  222.4732 H   0  0  0  0  0  0  0  0  0  0  0  0
  140.1803   80.7987  224.1323 H   0  0  0  0  0  0  0  0  0  0  0  0
  141.7875   80.8716  221.5374 H   0  0  0  0  0  0  0  0  0  0  0  0
  142.0285   81.8557  222.9838 H   0  0  0  0  0  0  0  0  0  0  0  0
  143.3491   79.3819  222.3338 H   0  0  0  0  0  0  0  0  0  0  0  0
  143.4904   80.2077  223.8606 H   0  0  0  0  0  0  0  0  0  0  0  0
  142.2202   77.7754  223.5714 H   0  0  0  0  0  0  0  0  0  0  0  0
  141.7248   78.9471  224.8298 H   0  0  0  0  0  0  0  0  0  0  0  0
  139.1133   69.1833  222.7050 H   0  0  0  0  0  0  0  0  0  0  0  0
  139.0968   67.9448  224.8808 H   0  0  0  0  0  0  0  0  0  0  0  0
  139.5296   67.8386  227.2295 H   0  0  0  0  0  0  0  0  0  0  0  0
  140.3569   68.9701  229.2931 H   0  0  0  0  0  0  0  0  0  0  0  0
  141.1847   71.3038  229.1886 H   0  0  0  0  0  0  0  0  0  0  0  0
  141.1934   72.5220  227.0365 H   0  0  0  0  0  0  0  0  0  0  0  0
  1  2  2  0
  2  3  1  0
  3  4  1  0
  4  5  1  0
  5  6  2  0
  5  7  1  0
  7  8  1  0
  8  9  1  0
  9 10  1  0
 10 11  1  0
 11 12  1  0
 12 13  1  0
 13 14  1  0
 14 15  1  0
 15 16  1  0
 16 17  1  0
 17 18  1  0
  2 19  1  0
 19 20  2  0
 20 21  1  0
 21 22  2  0
 22 23  1  0
 23 24  2  0
 24 25  1  0
 25 26  2  0
 26 27  1  0
 27 28  2  0
 12  7  1  0
 18 14  1  0
 28 19  1  0
 27 22  1  0
  3 29  1  0
  4 30  1  0
  4 31  1  0
  8 32  1  0
  8 33  1  0
  9 34  1  0
  9 35  1  0
 10 36  1  0
 10 37  1  0
 11 38  1  0
 11 39  1  0
 12 40  1  1
 13 41  1  0
 13 42  1  0
 15 43  1  0
 15 44  1  0
 16 45  1  0
 16 46  1  0
 17 47  1  0
 17 48  1  0
 18 49  1  0
 18 50  1  0
 20 51  1  0
 21 52  1  0
 23 53  1  0
 24 54  1  0
 25 55  1  0
 26 56  1  0
M  END
>  <smiles>  (41) 
O=C(NCC(=O)N1CCCC[C@H]1CN1CCCC1)c1ccc2ccccc2n1

>  <score_type>  (41) 
oracle

>  <origin>  (41) 
autodockgpu

>  <m_score__min__energy>  (41) 
-8.5199999999999996

>  <m_primary>  (41) 
energy

>  <rmsd>  (41) 
2.1175705227654515

>  <m_score__min__rmsd>  (41) 
2.1175705227654515

>  <meeko>  (41) 
{"free_energy": -8.4, "intermolecular_energy": -10.19, "internal_energy": -2.14, "cluster_size": 41, "cluster_id": 1, "rank_in_cluster": 16}

>  <energy>  (41) 
-7.58

>  <cluster_rmsd>  (41) 
1.93

>  <cluster>  (41) 
1

$$$$

     RDKit          3D

 56 59  0  0  0  0  0  0  0  0999 V2000
  140.7950   72.0820  221.3810 O   0  0  0  0  0  0  0  0  0  0  0  0
  139.9660   72.3380  222.3140 C   0  0  0  0  0  0  0  0  0  0  0  0
  139.1050   73.4720  222.2210 N   0  0  0  0  0  0  0  0  0  0  0  0
  139.1300   74.3760  221.0740 C   0  0  0  0  0  0  0  0  0  0  0  0
  140.2840   75.2910  221.2270 C   0  0  0  0  0  0  0  0  0  0  0  0
  141.1330   75.0330  222.1180 O   0  0  0  0  0  0  0  0  0  0  0  0
  140.5060   76.4430  220.4370 N   0  0  0  0  0  0  0  0  0  0  0  0
  139.8420   76.5160  219.1570 C   0  0  0  0  0  0  0  0  0  0  0  0
  139.9660   77.8280  218.4540 C   0  0  0  0  0  0  0  0  0  0  0  0
  141.2870   78.5040  218.5430 C   0  0  0  0  0  0  0  0  0  0  0  0
  142.1110   77.9500  219.6470 C   0  0  0  0  0  0  0  0  0  0  0  0
  141.3910   77.5420  220.8820 C   0  0  1  0  0  0  0  0  0  0  0  0
  140.5880   78.5370  221.6110 C   0  0  0  0  0  0  0  0  0  0  0  0
  140.5700   78.5140  223.0310 N   0  0  0  0  0  0  0  0  0  0  0  0
  139.9630   79.8170  223.4250 C   0  0  0  0  0  0  0  0  0  0  0  0
  141.0700   80.8010  223.1550 C   0  0  0  0  0  0  0  0  0  0  0  0
  142.3470   80.0550  223.4600 C   0  0  0  0  0  0  0  0  0  0  0  0
  141.8330   78.6600  223.7040 C   0  0  0  0  0  0  0  0  0  0  0  0
  139.8960   71.4600  223.5000 C   0  0  0  0  0  0  0  0  0  0  0  0
  139.2670   70.2390  223.3770 C   0  0  0  0  0  0  0  0  0  0  0  0
  139.2250   69.4460  224.5170 C   0  0  0  0  0  0  0  0  0  0  0  0
  139.7820   69.8580  225.7110 C   0  0  0  0  0  0  0  0  0  0  0  0
  139.7220   69.0500  226.8180 C   0  0  0  0  0  0  0  0  0  0  0  0
  140.2950   69.5040  227.9940 C   0  0  0  0  0  0  0  0  0  0  0  0
  140.9090   70.7410  228.0430 C   0  0  0  0  0  0  0  0  0  0  0  0
  140.9540   71.5330  226.9180 C   0  0  0  0  0  0  0  0  0  0  0  0
  140.3850   71.0940  225.7250 C   0  0  0  0  0  0  0  0  0  0  0  0
  140.4410   71.8720  224.6550 N   0  0  0  0  0  0  0  0  0  0  0  0
  138.4490   73.6150  223.0340 H   0  0  0  0  0  0  0  0  0  0  0  0
  139.2362   73.7957  220.1456 H   0  0  0  0  0  0  0  0  0  0  0  0
  138.1941   74.9519  221.0254 H   0  0  0  0  0  0  0  0  0  0  0  0
  140.2694   75.7388  218.5064 H   0  0  0  0  0  0  0  0  0  0  0  0
  138.7698   76.3764  219.3592 H   0  0  0  0  0  0  0  0  0  0  0  0
  139.7478   77.6589  217.3892 H   0  0  0  0  0  0  0  0  0  0  0  0
  139.2594   78.4999  218.9631 H   0  0  0  0  0  0  0  0  0  0  0  0
  141.8236   78.3655  217.5928 H   0  0  0  0  0  0  0  0  0  0  0  0
  141.1144   79.5715  218.7446 H   0  0  0  0  0  0  0  0  0  0  0  0
  142.6345   77.0638  219.2590 H   0  0  0  0  0  0  0  0  0  0  0  0
  142.7687   78.7754  219.9570 H   0  0  0  0  0  0  0  0  0  0  0  0
  142.1631   77.2989  221.6269 H   0  0  0  0  0  0  0  0  0  0  0  0
  140.9577   79.5287  221.3113 H   0  0  0  0  0  0  0  0  0  0  0  0
  139.5529   78.2876  221.3346 H   0  0  0  0  0  0  0  0  0  0  0  0
  139.0766   80.0413  222.8135 H   0  0  0  0  0  0  0  0  0  0  0  0
  139.6119   79.8344  224.4673 H   0  0  0  0  0  0  0  0  0  0  0  0
  141.0527   81.1218  222.1030 H   0  0  0  0  0  0  0  0  0  0  0  0
  140.9695   81.7103  223.7659 H   0  0  0  0  0  0  0  0  0  0  0  0
  143.0416   80.0833  222.6075 H   0  0  0  0  0  0  0  0  0  0  0  0
  142.9197   80.4739  224.3005 H   0  0  0  0  0  0  0  0  0  0  0  0
  142.5507   77.9259  223.3091 H   0  0  0  0  0  0  0  0  0  0  0  0
  141.7067   78.4886  224.7832 H   0  0  0  0  0  0  0  0  0  0  0  0
  138.8219   69.9102  222.4263 H   0  0  0  0  0  0  0  0  0  0  0  0
  138.7344   68.4627  224.4668 H   0  0  0  0  0  0  0  0  0  0  0  0
  139.2312   68.0666  226.7726 H   0  0  0  0  0  0  0  0  0  0  0  0
  140.2612   68.8753  228.8960 H   0  0  0  0  0  0  0  0  0  0  0  0
  141.3621   71.0930  228.9815 H   0  0  0  0  0  0  0  0  0  0  0  0
  141.4420   72.5179  226.9615 H   0  0  0  0  0  0  0  0  0  0  0  0
  1  2  2  0
  2  3  1  0
  3  4  1  0
  4  5  1  0
  5  6  2  0
  5  7  1  0
  7  8  1  0
  8  9  1  0
  9 10  1  0
 10 11  1  0
 11 12  1  0
 12 13  1  0
 13 14  1  0
 14 15  1  0
 15 16  1  0
 16 17  1  0
 17 18  1  0
  2 19  1  0
 19 20  2  0
 20 21  1  0
 21 22  2  0
 22 23  1  0
 23 24  2  0
 24 25  1  0
 25 26  2  0
 26 27  1  0
 27 28  2  0
 12  7  1  0
 18 14  1  0
 28 19  1  0
 27 22  1  0
  3 29  1  0
  4 30  1  0
  4 31  1  0
  8 32  1  0
  8 33  1  0
  9 34  1  0
  9 35  1  0
 10 36  1  0
 10 37  1  0
 11 38  1  0
 11 39  1  0
 12 40  1  1
 13 41  1  0
 13 42  1  0
 15 43  1  0
 15 44  1  0
 16 45  1  0
 16 46  1  0
 17 47  1  0
 17 48  1  0
 18 49  1  0
 18 50  1  0
 20 51  1  0
 21 52  1  0
 23 53  1  0
 24 54  1  0
 25 55  1  0
 26 56  1  0
M  END
>  <smiles>  (42) 
O=C(NCC(=O)N1CCCC[C@H]1CN1CCCC1)c1ccc2ccccc2n1

>  <score_type>  (42) 
oracle

>  <origin>  (42) 
autodockgpu

>  <m_score__min__energy>  (42) 
-8.5199999999999996

>  <m_primary>  (42) 
energy

>  <rmsd>  (42) 
2.054984690777622

>  <m_score__min__rmsd>  (42) 
2.054984690777622

>  <meeko>  (42) 
{"free_energy": -8.35, "intermolecular_energy": -10.14, "internal_energy": -1.48, "cluster_size": 41, "cluster_id": 1, "rank_in_cluster": 22}

>  <energy>  (42) 
-8.46

>  <cluster_rmsd>  (42) 
0.0

>  <cluster>  (42) 
2

$$$$

     RDKit          3D

 56 59  0  0  0  0  0  0  0  0999 V2000
  138.2960   70.7840  221.8100 O   0  0  0  0  0  0  0  0  0  0  0  0
  138.9420   71.2780  222.7910 C   0  0  0  0  0  0  0  0  0  0  0  0
  139.3700   72.6380  222.7590 N   0  0  0  0  0  0  0  0  0  0  0  0
  139.0950   73.5140  221.6230 C   0  0  0  0  0  0  0  0  0  0  0  0
  139.8660   74.7650  221.8000 C   0  0  0  0  0  0  0  0  0  0  0  0
  141.1110   74.6800  221.9520 O   0  0  0  0  0  0  0  0  0  0  0  0
  139.3010   76.0620  221.8120 N   0  0  0  0  0  0  0  0  0  0  0  0
  138.0840   76.2560  222.5630 C   0  0  0  0  0  0  0  0  0  0  0  0
  137.6380   77.6760  222.6910 C   0  0  0  0  0  0  0  0  0  0  0  0
  137.8060   78.5320  221.4870 C   0  0  0  0  0  0  0  0  0  0  0  0
  138.7530   77.9300  220.5160 C   0  0  0  0  0  0  0  0  0  0  0  0
  139.9150   77.1920  221.0800 C   0  0  1  0  0  0  0  0  0  0  0  0
  140.8480   77.8930  221.9770 C   0  0  0  0  0  0  0  0  0  0  0  0
  140.4120   79.0560  222.6660 N   0  0  0  0  0  0  0  0  0  0  0  0
  140.8080   80.1910  221.7860 C   0  0  0  0  0  0  0  0  0  0  0  0
  142.2990   80.2670  221.9830 C   0  0  0  0  0  0  0  0  0  0  0  0
  142.5290   79.8690  223.4210 C   0  0  0  0  0  0  0  0  0  0  0  0
  141.1490   79.4350  223.8410 C   0  0  0  0  0  0  0  0  0  0  0  0
  139.2510   70.4400  223.9680 C   0  0  0  0  0  0  0  0  0  0  0  0
  138.9060   69.1060  223.9350 C   0  0  0  0  0  0  0  0  0  0  0  0
  139.2160   68.3570  225.0630 C   0  0  0  0  0  0  0  0  0  0  0  0
  139.8360   68.9180  226.1620 C   0  0  0  0  0  0  0  0  0  0  0  0
  140.1280   68.1490  227.2590 C   0  0  0  0  0  0  0  0  0  0  0  0
  140.7510   68.7540  228.3370 C   0  0  0  0  0  0  0  0  0  0  0  0
  141.0670   70.0990  228.3000 C   0  0  0  0  0  0  0  0  0  0  0  0
  140.7630   70.8480  227.1860 C   0  0  0  0  0  0  0  0  0  0  0  0
  140.1370   70.2580  226.0910 C   0  0  0  0  0  0  0  0  0  0  0  0
  139.8540   70.9980  225.0300 N   0  0  0  0  0  0  0  0  0  0  0  0
  139.8990   72.9710  223.6080 H   0  0  0  0  0  0  0  0  0  0  0  0
  139.4001   73.0186  220.6895 H   0  0  0  0  0  0  0  0  0  0  0  0
  138.0192   73.7375  221.5699 H   0  0  0  0  0  0  0  0  0  0  0  0
  137.2825   75.6906  222.0651 H   0  0  0  0  0  0  0  0  0  0  0  0
  138.2958   75.9081  223.5848 H   0  0  0  0  0  0  0  0  0  0  0  0
  136.5690   77.6691  222.9504 H   0  0  0  0  0  0  0  0  0  0  0  0
  138.2897   78.1193  223.4583 H   0  0  0  0  0  0  0  0  0  0  0  0
  136.8279   78.6587  220.9999 H   0  0  0  0  0  0  0  0  0  0  0  0
  138.2135   79.5018  221.8087 H   0  0  0  0  0  0  0  0  0  0  0  0
  138.1847   77.2267  219.8895 H   0  0  0  0  0  0  0  0  0  0  0  0
  139.1894   78.7821  219.9743 H   0  0  0  0  0  0  0  0  0  0  0  0
  140.5723   76.9480  220.2324 H   0  0  0  0  0  0  0  0  0  0  0  0
  141.1639   77.1675  222.7411 H   0  0  0  0  0  0  0  0  0  0  0  0
  141.6265   78.2705  221.2978 H   0  0  0  0  0  0  0  0  0  0  0  0
  140.5580   79.9827  220.7352 H   0  0  0  0  0  0  0  0  0  0  0  0
  140.2898   81.1302  222.0297 H   0  0  0  0  0  0  0  0  0  0  0  0
  142.8138   79.5720  221.3033 H   0  0  0  0  0  0  0  0  0  0  0  0
  142.6916   81.2715  221.7666 H   0  0  0  0  0  0  0  0  0  0  0  0
  143.2504   79.0421  223.4979 H   0  0  0  0  0  0  0  0  0  0  0  0
  142.9547   80.6696  224.0438 H   0  0  0  0  0  0  0  0  0  0  0  0
  141.2222   78.5772  224.5257 H   0  0  0  0  0  0  0  0  0  0  0  0
  140.6359   80.2594  224.3579 H   0  0  0  0  0  0  0  0  0  0  0  0
  138.4110   68.6578  223.0609 H   0  0  0  0  0  0  0  0  0  0  0  0
  138.9605   67.2872  225.0813 H   0  0  0  0  0  0  0  0  0  0  0  0
  139.8738   67.0790  227.2819 H   0  0  0  0  0  0  0  0  0  0  0  0
  140.9964   68.1599  229.2297 H   0  0  0  0  0  0  0  0  0  0  0  0
  141.5618   70.5712  229.1615 H   0  0  0  0  0  0  0  0  0  0  0  0
  141.0159   71.9182  227.1606 H   0  0  0  0  0  0  0  0  0  0  0  0
  1  2  2  0
  2  3  1  0
  3  4  1  0
  4  5  1  0
  5  6  2  0
  5  7  1  0
  7  8  1  0
  8  9  1  0
  9 10  1  0
 10 11  1  0
 11 12  1  0
 12 13  1  0
 13 14  1  0
 14 15  1  0
 15 16  1  0
 16 17  1  0
 17 18  1  0
  2 19  1  0
 19 20  2  0
 20 21  1  0
 21 22  2  0
 22 23  1  0
 23 24  2  0
 24 25  1  0
 25 26  2  0
 26 27  1  0
 27 28  2  0
 12  7  1  0
 18 14  1  0
 28 19  1  0
 27 22  1  0
  3 29  1  0
  4 30  1  0
  4 31  1  0
  8 32  1  0
  8 33  1  0
  9 34  1  0
  9 35  1  0
 10 36  1  0
 10 37  1  0
 11 38  1  0
 11 39  1  0
 12 40  1  6
 13 41  1  0
 13 42  1  0
 15 43  1  0
 15 44  1  0
 16 45  1  0
 16 46  1  0
 17 47  1  0
 17 48  1  0
 18 49  1  0
 18 50  1  0
 20 51  1  0
 21 52  1  0
 23 53  1  0
 24 54  1  0
 25 55  1  0
 26 56  1  0
M  END
>  <smiles>  (43) 
O=C(NCC(=O)N1CCCC[C@H]1CN1CCCC1)c1ccc2ccccc2n1

>  <score_type>  (43) 
oracle

>  <origin>  (43) 
autodockgpu

>  <m_score__min__energy>  (43) 
-8.5199999999999996

>  <m_primary>  (43) 
energy

>  <rmsd>  (43) 
2.8785364824775574

>  <m_score__min__rmsd>  (43) 
2.8785364824775574

>  <meeko>  (43) 
{"free_energy": -8.09, "intermolecular_energy": -9.88, "internal_energy": -1.79, "cluster_size": 41, "cluster_id": 1, "rank_in_cluster": 32}

>  <energy>  (43) 
-8.39

>  <cluster_rmsd>  (43) 
0.35

>  <cluster>  (43) 
2

$$$$

     RDKit          3D

 56 59  0  0  0  0  0  0  0  0999 V2000
  140.5770   71.2100  221.2410 O   0  0  0  0  0  0  0  0  0  0  0  0
  140.2260   71.8610  222.2780 C   0  0  0  0  0  0  0  0  0  0  0  0
  139.9220   73.2520  222.1850 N   0  0  0  0  0  0  0  0  0  0  0  0
  139.9970   73.9830  220.9230 C   0  0  0  0  0  0  0  0  0  0  0  0
  140.8720   75.1620  221.1180 C   0  0  0  0  0  0  0  0  0  0  0  0
  140.9210   75.6830  222.2610 O   0  0  0  0  0  0  0  0  0  0  0  0
  141.6640   75.7510  220.1050 N   0  0  0  0  0  0  0  0  0  0  0  0
  141.5490   77.1760  219.9090 C   0  0  0  0  0  0  0  0  0  0  0  0
  142.5380   77.7660  218.9570 C   0  0  0  0  0  0  0  0  0  0  0  0
  142.8490   76.9640  217.7450 C   0  0  0  0  0  0  0  0  0  0  0  0
  142.4290   75.5490  217.9040 C   0  0  0  0  0  0  0  0  0  0  0  0
  142.5770   74.9520  219.2580 C   0  0  1  0  0  0  0  0  0  0  0  0
  143.9060   74.9170  219.8890 C   0  0  0  0  0  0  0  0  0  0  0  0
  144.1900   73.9230  220.8630 N   0  0  0  0  0  0  0  0  0  0  0  0
  145.6720   73.7690  220.8290 C   0  0  0  0  0  0  0  0  0  0  0  0
  145.9050   73.0110  219.5500 C   0  0  0  0  0  0  0  0  0  0  0  0
  144.7090   72.0990  219.4060 C   0  0  0  0  0  0  0  0  0  0  0  0
  143.8330   72.5680  220.5380 C   0  0  0  0  0  0  0  0  0  0  0  0
  140.1320   71.1760  223.5830 C   0  0  0  0  0  0  0  0  0  0  0  0
  139.5420   69.9310  223.6320 C   0  0  0  0  0  0  0  0  0  0  0  0
  139.4770   69.3240  224.8800 C   0  0  0  0  0  0  0  0  0  0  0  0
  139.9750   69.9350  226.0140 C   0  0  0  0  0  0  0  0  0  0  0  0
  139.8940   69.3070  227.2300 C   0  0  0  0  0  0  0  0  0  0  0  0
  140.4070   69.9580  228.3400 C   0  0  0  0  0  0  0  0  0  0  0  0
  140.9850   71.2070  228.2150 C   0  0  0  0  0  0  0  0  0  0  0  0
  141.0530   71.8150  226.9820 C   0  0  0  0  0  0  0  0  0  0  0  0
  140.5430   71.1770  225.8540 C   0  0  0  0  0  0  0  0  0  0  0  0
  140.6200   71.7810  224.6780 N   0  0  0  0  0  0  0  0  0  0  0  0
  139.6400   73.7190  223.0880 H   0  0  0  0  0  0  0  0  0  0  0  0
  140.4177   73.3332  220.1415 H   0  0  0  0  0  0  0  0  0  0  0  0
  138.9922   74.3049  220.6120 H   0  0  0  0  0  0  0  0  0  0  0  0
  140.5396   77.3871  219.5262 H   0  0  0  0  0  0  0  0  0  0  0  0
  141.7517   77.6374  220.8868 H   0  0  0  0  0  0  0  0  0  0  0  0
  142.1431   78.7370  218.6234 H   0  0  0  0  0  0  0  0  0  0  0  0
  143.4826   77.8263  219.5175 H   0  0  0  0  0  0  0  0  0  0  0  0
  142.3204   77.3987  216.8838 H   0  0  0  0  0  0  0  0  0  0  0  0
  143.9376   76.9845  217.5886 H   0  0  0  0  0  0  0  0  0  0  0  0
  141.3665   75.4844  217.6265 H   0  0  0  0  0  0  0  0  0  0  0  0
  143.1104   74.9733  217.2604 H   0  0  0  0  0  0  0  0  0  0  0  0
  142.3589   73.8791  219.1519 H   0  0  0  0  0  0  0  0  0  0  0  0
  144.6413   74.7925  219.0804 H   0  0  0  0  0  0  0  0  0  0  0  0
  143.9473   75.8572  220.4585 H   0  0  0  0  0  0  0  0  0  0  0  0
  146.1707   74.7491  220.8040 H   0  0  0  0  0  0  0  0  0  0  0  0
  146.0748   73.2572  221.7154 H   0  0  0  0  0  0  0  0  0  0  0  0
  145.9671   73.7032  218.6973 H   0  0  0  0  0  0  0  0  0  0  0  0
  146.8502   72.4488  219.5719 H   0  0  0  0  0  0  0  0  0  0  0  0
  144.2148   72.2356  218.4328 H   0  0  0  0  0  0  0  0  0  0  0  0
  144.9557   71.0277  219.4451 H   0  0  0  0  0  0  0  0  0  0  0  0
  142.7774   72.5262  220.2316 H   0  0  0  0  0  0  0  0  0  0  0  0
  143.9748   71.9209  221.4161 H   0  0  0  0  0  0  0  0  0  0  0  0
  139.1435   69.4436  222.7300 H   0  0  0  0  0  0  0  0  0  0  0  0
  139.0161   68.3291  224.9673 H   0  0  0  0  0  0  0  0  0  0  0  0
  139.4337   68.3122  227.3218 H   0  0  0  0  0  0  0  0  0  0  0  0
  140.3539   69.4773  229.3280 H   0  0  0  0  0  0  0  0  0  0  0  0
  141.3911   71.7158  229.1017 H   0  0  0  0  0  0  0  0  0  0  0  0
  141.5125   72.8099  226.8871 H   0  0  0  0  0  0  0  0  0  0  0  0
  1  2  2  0
  2  3  1  0
  3  4  1  0
  4  5  1  0
  5  6  2  0
  5  7  1  0
  7  8  1  0
  8  9  1  0
  9 10  1  0
 10 11  1  0
 11 12  1  0
 12 13  1  0
 13 14  1  0
 14 15  1  0
 15 16  1  0
 16 17  1  0
 17 18  1  0
  2 19  1  0
 19 20  2  0
 20 21  1  0
 21 22  2  0
 22 23  1  0
 23 24  2  0
 24 25  1  0
 25 26  2  0
 26 27  1  0
 27 28  2  0
 12  7  1  0
 18 14  1  0
 28 19  1  0
 27 22  1  0
  3 29  1  0
  4 30  1  0
  4 31  1  0
  8 32  1  0
  8 33  1  0
  9 34  1  0
  9 35  1  0
 10 36  1  0
 10 37  1  0
 11 38  1  0
 11 39  1  0
 12 40  1  6
 13 41  1  0
 13 42  1  0
 15 43  1  0
 15 44  1  0
 16 45  1  0
 16 46  1  0
 17 47  1  0
 17 48  1  0
 18 49  1  0
 18 50  1  0
 20 51  1  0
 21 52  1  0
 23 53  1  0
 24 54  1  0
 25 55  1  0
 26 56  1  0
M  END
>  <smiles>  (44) 
O=C(NCC(=O)N1CCCC[C@H]1CN1CCCC1)c1ccc2ccccc2n1

>  <score_type>  (44) 
oracle

>  <origin>  (44) 
autodockgpu

>  <m_score__min__energy>  (44) 
-8.5199999999999996

>  <m_primary>  (44) 
energy

>  <rmsd>  (44) 
4.237303505259083

>  <m_score__min__rmsd>  (44) 
4.237303505259083

>  <meeko>  (44) 
{"free_energy": -8.3, "intermolecular_energy": -10.09, "internal_energy": -2.12, "cluster_size": 6, "cluster_id": 2, "rank_in_cluster": 4}

>  <energy>  (44) 
-8.33

>  <cluster_rmsd>  (44) 
0.43

>  <cluster>  (44) 
2

$$$$

     RDKit          3D

 56 59  0  0  0  0  0  0  0  0999 V2000
  140.2130   71.0890  221.3080 O   0  0  0  0  0  0  0  0  0  0  0  0
  140.0020   71.6950  222.4080 C   0  0  0  0  0  0  0  0  0  0  0  0
  139.7780   73.1040  222.4230 N   0  0  0  0  0  0  0  0  0  0  0  0
  139.7800   73.9050  221.2010 C   0  0  0  0  0  0  0  0  0  0  0  0
  139.8410   75.3340  221.5810 C   0  0  0  0  0  0  0  0  0  0  0  0
  139.4430   75.6630  222.7280 O   0  0  0  0  0  0  0  0  0  0  0  0
  140.3170   76.3690  220.7420 N   0  0  0  0  0  0  0  0  0  0  0  0
  139.8660   76.3800  219.3710 C   0  0  0  0  0  0  0  0  0  0  0  0
  140.2520   77.5930  218.5880 C   0  0  0  0  0  0  0  0  0  0  0  0
  141.6170   78.1300  218.8310 C   0  0  0  0  0  0  0  0  0  0  0  0
  142.1920   77.6080  220.0960 C   0  0  0  0  0  0  0  0  0  0  0  0
  141.2510   77.4080  221.2300 C   0  0  1  0  0  0  0  0  0  0  0  0
  140.4740   78.5530  221.7320 C   0  0  0  0  0  0  0  0  0  0  0  0
  140.5350   78.8850  223.1120 N   0  0  0  0  0  0  0  0  0  0  0  0
  140.4090   80.3690  223.1510 C   0  0  0  0  0  0  0  0  0  0  0  0
  141.7560   80.8370  222.6710 C   0  0  0  0  0  0  0  0  0  0  0  0
  142.7390   79.8100  223.1840 C   0  0  0  0  0  0  0  0  0  0  0  0
  141.8160   78.7670  223.7570 C   0  0  0  0  0  0  0  0  0  0  0  0
  139.9890   70.9380  223.6770 C   0  0  0  0  0  0  0  0  0  0  0  0
  139.5580   69.6280  223.6570 C   0  0  0  0  0  0  0  0  0  0  0  0
  139.5630   68.9550  224.8720 C   0  0  0  0  0  0  0  0  0  0  0  0
  139.9770   69.5650  226.0400 C   0  0  0  0  0  0  0  0  0  0  0  0
  139.9690   68.8710  227.2230 C   0  0  0  0  0  0  0  0  0  0  0  0
  140.3930   69.5220  228.3690 C   0  0  0  0  0  0  0  0  0  0  0  0
  140.8110   70.8380  228.3130 C   0  0  0  0  0  0  0  0  0  0  0  0
  140.8090   71.5120  227.1130 C   0  0  0  0  0  0  0  0  0  0  0  0
  140.3870   70.8740  225.9490 C   0  0  0  0  0  0  0  0  0  0  0  0
  140.3930   71.5420  224.8060 N   0  0  0  0  0  0  0  0  0  0  0  0
  139.6120   73.5300  223.3730 H   0  0  0  0  0  0  0  0  0  0  0  0
  140.6557   73.6456  220.5879 H   0  0  0  0  0  0  0  0  0  0  0  0
  138.8690   73.7071  220.6171 H   0  0  0  0  0  0  0  0  0  0  0  0
  140.2888   75.4991  218.8658 H   0  0  0  0  0  0  0  0  0  0  0  0
  138.7667   76.3763  219.4094 H   0  0  0  0  0  0  0  0  0  0  0  0
  140.1772   77.3398  217.5201 H   0  0  0  0  0  0  0  0  0  0  0  0
  139.5635   78.3850  218.9178 H   0  0  0  0  0  0  0  0  0  0  0  0
  142.2696   77.8381  217.9950 H   0  0  0  0  0  0  0  0  0  0  0  0
  141.5470   79.2249  218.9107 H   0  0  0  0  0  0  0  0  0  0  0  0
  142.6563   76.6358  219.8739 H   0  0  0  0  0  0  0  0  0  0  0  0
  142.8905   78.3865  220.4365 H   0  0  0  0  0  0  0  0  0  0  0  0
  141.8661   77.1622  222.1082 H   0  0  0  0  0  0  0  0  0  0  0  0
  140.8115   79.4388  221.1739 H   0  0  0  0  0  0  0  0  0  0  0  0
  139.4291   78.2421  221.5855 H   0  0  0  0  0  0  0  0  0  0  0  0
  139.6085   80.7153  222.4808 H   0  0  0  0  0  0  0  0  0  0  0  0
  140.1460   80.7552  224.1468 H   0  0  0  0  0  0  0  0  0  0  0  0
  141.7805   80.8790  221.5721 H   0  0  0  0  0  0  0  0  0  0  0  0
  141.9924   81.8486  223.0328 H   0  0  0  0  0  0  0  0  0  0  0  0
  143.3522   79.3989  222.3685 H   0  0  0  0  0  0  0  0  0  0  0  0
  143.4668   80.2088  223.9061 H   0  0  0  0  0  0  0  0  0  0  0  0
  142.2313   77.7646  223.5760 H   0  0  0  0  0  0  0  0  0  0  0  0
  141.7065   78.9162  224.8413 H   0  0  0  0  0  0  0  0  0  0  0  0
  139.2276   69.1416  222.7274 H   0  0  0  0  0  0  0  0  0  0  0  0
  139.2281   67.9077  224.9049 H   0  0  0  0  0  0  0  0  0  0  0  0
  139.6342   67.8238  227.2603 H   0  0  0  0  0  0  0  0  0  0  0  0
  140.3972   68.9880  229.3307 H   0  0  0  0  0  0  0  0  0  0  0  0
  141.1457   71.3475  229.2286 H   0  0  0  0  0  0  0  0  0  0  0  0
  141.1423   72.5595  227.0730 H   0  0  0  0  0  0  0  0  0  0  0  0
  1  2  2  0
  2  3  1  0
  3  4  1  0
  4  5  1  0
  5  6  2  0
  5  7  1  0
  7  8  1  0
  8  9  1  0
  9 10  1  0
 10 11  1  0
 11 12  1  0
 12 13  1  0
 13 14  1  0
 14 15  1  0
 15 16  1  0
 16 17  1  0
 17 18  1  0
  2 19  1  0
 19 20  2  0
 20 21  1  0
 21 22  2  0
 22 23  1  0
 23 24  2  0
 24 25  1  0
 25 26  2  0
 26 27  1  0
 27 28  2  0
 12  7  1  0
 18 14  1  0
 28 19  1  0
 27 22  1  0
  3 29  1  0
  4 30  1  0
  4 31  1  0
  8 32  1  0
  8 33  1  0
  9 34  1  0
  9 35  1  0
 10 36  1  0
 10 37  1  0
 11 38  1  0
 11 39  1  0
 12 40  1  1
 13 41  1  0
 13 42  1  0
 15 43  1  0
 15 44  1  0
 16 45  1  0
 16 46  1  0
 17 47  1  0
 17 48  1  0
 18 49  1  0
 18 50  1  0
 20 51  1  0
 21 52  1  0
 23 53  1  0
 24 54  1  0
 25 55  1  0
 26 56  1  0
M  END
>  <smiles>  (45) 
O=C(NCC(=O)N1CCCC[C@H]1CN1CCCC1)c1ccc2ccccc2n1

>  <score_type>  (45) 
oracle

>  <origin>  (45) 
autodockgpu

>  <m_score__min__energy>  (45) 
-8.5199999999999996

>  <m_primary>  (45) 
energy

>  <rmsd>  (45) 
2.123744025396562

>  <m_score__min__rmsd>  (45) 
2.123744025396562

>  <meeko>  (45) 
{"free_energy": -8.39, "intermolecular_energy": -10.18, "internal_energy": -2.17, "cluster_size": 41, "cluster_id": 1, "rank_in_cluster": 18}

>  <energy>  (45) 
-8.3

>  <cluster_rmsd>  (45) 
0.43

>  <cluster>  (45) 
2

$$$$

     RDKit          3D

 56 59  0  0  0  0  0  0  0  0999 V2000
  137.2320   71.1660  222.7120 O   0  0  0  0  0  0  0  0  0  0  0  0
  138.3850   71.3450  223.2230 C   0  0  0  0  0  0  0  0  0  0  0  0
  139.1880   72.4520  222.8170 N   0  0  0  0  0  0  0  0  0  0  0  0
  138.7380   73.4140  221.8150 C   0  0  0  0  0  0  0  0  0  0  0  0
  139.5500   74.6450  221.9520 C   0  0  0  0  0  0  0  0  0  0  0  0
  140.7800   74.5230  222.1830 O   0  0  0  0  0  0  0  0  0  0  0  0
  139.0400   75.9600  221.8400 N   0  0  0  0  0  0  0  0  0  0  0  0
  137.6390   76.1620  222.1220 C   0  0  0  0  0  0  0  0  0  0  0  0
  137.2020   77.5890  222.1680 C   0  0  0  0  0  0  0  0  0  0  0  0
  137.8010   78.4970  221.1550 C   0  0  0  0  0  0  0  0  0  0  0  0
  139.0220   77.9090  220.5490 C   0  0  0  0  0  0  0  0  0  0  0  0
  139.8940   77.1010  221.4430 C   0  0  1  0  0  0  0  0  0  0  0  0
  140.4590   77.7210  222.6520 C   0  0  0  0  0  0  0  0  0  0  0  0
  141.7230   78.3650  222.5800 N   0  0  0  0  0  0  0  0  0  0  0  0
  141.8010   79.1880  223.8190 C   0  0  0  0  0  0  0  0  0  0  0  0
  140.8660   80.3310  223.5270 C   0  0  0  0  0  0  0  0  0  0  0  0
  140.9940   80.5780  222.0420 C   0  0  0  0  0  0  0  0  0  0  0  0
  141.8640   79.4240  221.6160 C   0  0  0  0  0  0  0  0  0  0  0  0
  138.8960   70.4030  224.2400 C   0  0  0  0  0  0  0  0  0  0  0  0
  138.7240   69.0510  224.0310 C   0  0  0  0  0  0  0  0  0  0  0  0
  139.2200   68.2030  225.0130 C   0  0  0  0  0  0  0  0  0  0  0  0
  139.8520   68.6880  226.1410 C   0  0  0  0  0  0  0  0  0  0  0  0
  140.3310   67.8220  227.0910 C   0  0  0  0  0  0  0  0  0  0  0  0
  140.9580   68.3530  228.2060 C   0  0  0  0  0  0  0  0  0  0  0  0
  141.0950   69.7200  228.3490 C   0  0  0  0  0  0  0  0  0  0  0  0
  140.6050   70.5670  227.3800 C   0  0  0  0  0  0  0  0  0  0  0  0
  139.9710   70.0530  226.2520 C   0  0  0  0  0  0  0  0  0  0  0  0
  139.5080   70.8870  225.3330 N   0  0  0  0  0  0  0  0  0  0  0  0
  140.1300   72.5290  223.2860 H   0  0  0  0  0  0  0  0  0  0  0  0
  138.8707   72.9914  220.8081 H   0  0  0  0  0  0  0  0  0  0  0  0
  137.6729   73.6449  221.9639 H   0  0  0  0  0  0  0  0  0  0  0  0
  137.0570   75.6523  221.3400 H   0  0  0  0  0  0  0  0  0  0  0  0
  137.4676   75.7563  223.1300 H   0  0  0  0  0  0  0  0  0  0  0  0
  136.1106   77.6093  222.0318 H   0  0  0  0  0  0  0  0  0  0  0  0
  137.5470   77.9688  223.1410 H   0  0  0  0  0  0  0  0  0  0  0  0
  137.0625   78.6832  220.3613 H   0  0  0  0  0  0  0  0  0  0  0  0
  138.0828   79.4345  221.6567 H   0  0  0  0  0  0  0  0  0  0  0  0
  138.7024   77.2596  219.7207 H   0  0  0  0  0  0  0  0  0  0  0  0
  139.6373   78.7703  220.2497 H   0  0  0  0  0  0  0  0  0  0  0  0
  140.8060   76.8748  220.8710 H   0  0  0  0  0  0  0  0  0  0  0  0
  139.7345   78.4747  222.9940 H   0  0  0  0  0  0  0  0  0  0  0  0
  140.6410   76.8667  223.3206 H   0  0  0  0  0  0  0  0  0  0  0  0
  141.4636   78.6155  224.6956 H   0  0  0  0  0  0  0  0  0  0  0  0
  142.8237   79.5153  224.0578 H   0  0  0  0  0  0  0  0  0  0  0  0
  139.8319   80.0590  223.7851 H   0  0  0  0  0  0  0  0  0  0  0  0
  141.1148   81.2263  224.1156 H   0  0  0  0  0  0  0  0  0  0  0  0
  140.0137   80.5467  221.5440 H   0  0  0  0  0  0  0  0  0  0  0  0
  141.4050   81.5659  221.7868 H   0  0  0  0  0  0  0  0  0  0  0  0
  141.5481   79.0675  220.6245 H   0  0  0  0  0  0  0  0  0  0  0  0
  142.9146   79.7450  221.5600 H   0  0  0  0  0  0  0  0  0  0  0  0
  138.2201   68.6640  223.1331 H   0  0  0  0  0  0  0  0  0  0  0  0
  139.1063   67.1160  224.8888 H   0  0  0  0  0  0  0  0  0  0  0  0
  140.2200   66.7343  226.9704 H   0  0  0  0  0  0  0  0  0  0  0  0
  141.3499   67.6809  228.9836 H   0  0  0  0  0  0  0  0  0  0  0  0
  141.5958   70.1323  229.2374 H   0  0  0  0  0  0  0  0  0  0  0  0
  140.7150   71.6551  227.4978 H   0  0  0  0  0  0  0  0  0  0  0  0
  1  2  2  0
  2  3  1  0
  3  4  1  0
  4  5  1  0
  5  6  2  0
  5  7  1  0
  7  8  1  0
  8  9  1  0
  9 10  1  0
 10 11  1  0
 11 12  1  0
 12 13  1  0
 13 14  1  0
 14 15  1  0
 15 16  1  0
 16 17  1  0
 17 18  1  0
  2 19  1  0
 19 20  2  0
 20 21  1  0
 21 22  2  0
 22 23  1  0
 23 24  2  0
 24 25  1  0
 25 26  2  0
 26 27  1  0
 27 28  2  0
 12  7  1  0
 18 14  1  0
 28 19  1  0
 27 22  1  0
  3 29  1  0
  4 30  1  0
  4 31  1  0
  8 32  1  0
  8 33  1  0
  9 34  1  0
  9 35  1  0
 10 36  1  0
 10 37  1  0
 11 38  1  0
 11 39  1  0
 12 40  1  6
 13 41  1  0
 13 42  1  0
 15 43  1  0
 15 44  1  0
 16 45  1  0
 16 46  1  0
 17 47  1  0
 17 48  1  0
 18 49  1  0
 18 50  1  0
 20 51  1  0
 21 52  1  0
 23 53  1  0
 24 54  1  0
 25 55  1  0
 26 56  1  0
M  END
>  <smiles>  (46) 
O=C(NCC(=O)N1CCCC[C@H]1CN1CCCC1)c1ccc2ccccc2n1

>  <score_type>  (46) 
oracle

>  <origin>  (46) 
autodockgpu

>  <m_score__min__energy>  (46) 
-8.5199999999999996

>  <m_primary>  (46) 
energy

>  <rmsd>  (46) 
2.5567952248034422

>  <m_score__min__rmsd>  (46) 
2.5567952248034422

>  <meeko>  (46) 
{"free_energy": -7.62, "intermolecular_energy": -9.41, "internal_energy": -1.94, "cluster_size": 41, "cluster_id": 1, "rank_in_cluster": 40}

>  <energy>  (46) 
-8.15

>  <cluster_rmsd>  (46) 
0.57

>  <cluster>  (46) 
2

$$$$

     RDKit          3D

 56 59  0  0  0  0  0  0  0  0999 V2000
  140.3970   71.3420  221.2330 O   0  0  0  0  0  0  0  0  0  0  0  0
  139.8770   71.8670  222.2710 C   0  0  0  0  0  0  0  0  0  0  0  0
  139.2130   73.1270  222.1850 N   0  0  0  0  0  0  0  0  0  0  0  0
  139.0990   73.8620  220.9280 C   0  0  0  0  0  0  0  0  0  0  0  0
  138.9570   75.3020  221.2410 C   0  0  0  0  0  0  0  0  0  0  0  0
  137.8220   75.7290  221.5750 O   0  0  0  0  0  0  0  0  0  0  0  0
  140.0120   76.2430  221.1930 N   0  0  0  0  0  0  0  0  0  0  0  0
  140.0900   77.2170  222.2560 C   0  0  0  0  0  0  0  0  0  0  0  0
  141.3230   78.0610  222.2510 C   0  0  0  0  0  0  0  0  0  0  0  0
  141.8150   78.5050  220.9210 C   0  0  0  0  0  0  0  0  0  0  0  0
  141.2280   77.6970  219.8230 C   0  0  0  0  0  0  0  0  0  0  0  0
  141.0060   76.2520  220.0980 C   0  0  1  0  0  0  0  0  0  0  0  0
  142.1490   75.4070  220.4800 C   0  0  0  0  0  0  0  0  0  0  0  0
  142.9560   74.8250  219.4670 N   0  0  0  0  0  0  0  0  0  0  0  0
  142.4980   73.4100  219.3830 C   0  0  0  0  0  0  0  0  0  0  0  0
  143.0820   72.7900  220.6240 C   0  0  0  0  0  0  0  0  0  0  0  0
  144.3970   73.5020  220.8410 C   0  0  0  0  0  0  0  0  0  0  0  0
  144.3360   74.5790  219.7900 C   0  0  0  0  0  0  0  0  0  0  0  0
  139.9620   71.1710  223.5710 C   0  0  0  0  0  0  0  0  0  0  0  0
  139.5480   69.8580  223.6420 C   0  0  0  0  0  0  0  0  0  0  0  0
  139.6450   69.2430  224.8840 C   0  0  0  0  0  0  0  0  0  0  0  0
  140.1320   69.9110  225.9910 C   0  0  0  0  0  0  0  0  0  0  0  0
  140.2150   69.2730  227.2020 C   0  0  0  0  0  0  0  0  0  0  0  0
  140.7090   69.9820  228.2840 C   0  0  0  0  0  0  0  0  0  0  0  0
  141.1070   71.2980  228.1380 C   0  0  0  0  0  0  0  0  0  0  0  0
  141.0120   71.9150  226.9110 C   0  0  0  0  0  0  0  0  0  0  0  0
  140.5180   71.2180  225.8100 C   0  0  0  0  0  0  0  0  0  0  0  0
  140.4370   71.8310  224.6390 N   0  0  0  0  0  0  0  0  0  0  0  0
  138.8110   73.4940  223.0880 H   0  0  0  0  0  0  0  0  0  0  0  0
  140.0015   73.7010  220.3201 H   0  0  0  0  0  0  0  0  0  0  0  0
  138.2241   73.5098  220.3618 H   0  0  0  0  0  0  0  0  0  0  0  0
  139.2196   77.8843  222.1717 H   0  0  0  0  0  0  0  0  0  0  0  0
  140.1132   76.6451  223.1954 H   0  0  0  0  0  0  0  0  0  0  0  0
  141.1148   78.9610  222.8482 H   0  0  0  0  0  0  0  0  0  0  0  0
  142.1183   77.4185  222.6569 H   0  0  0  0  0  0  0  0  0  0  0  0
  141.5413   79.5601  220.7733 H   0  0  0  0  0  0  0  0  0  0  0  0
  142.9071   78.3751  220.8975 H   0  0  0  0  0  0  0  0  0  0  0  0
  140.2543   78.1405  219.5674 H   0  0  0  0  0  0  0  0  0  0  0  0
  141.9738   77.7248  219.0149 H   0  0  0  0  0  0  0  0  0  0  0  0
  140.7088   75.7937  219.1432 H   0  0  0  0  0  0  0  0  0  0  0  0
  142.8123   76.0271  221.1010 H   0  0  0  0  0  0  0  0  0  0  0  0
  141.6787   74.5398  220.9666 H   0  0  0  0  0  0  0  0  0  0  0  0
  141.3997   73.3490  219.3900 H   0  0  0  0  0  0  0  0  0  0  0  0
  142.8141   72.9066  218.4574 H   0  0  0  0  0  0  0  0  0  0  0  0
  142.4133   72.9443  221.4837 H   0  0  0  0  0  0  0  0  0  0  0  0
  143.2154   71.7034  220.5171 H   0  0  0  0  0  0  0  0  0  0  0  0
  144.4590   73.9310  221.8520 H   0  0  0  0  0  0  0  0  0  0  0  0
  145.2781   72.8483  220.7609 H   0  0  0  0  0  0  0  0  0  0  0  0
  144.7965   75.5004  220.1759 H   0  0  0  0  0  0  0  0  0  0  0  0
  144.8820   74.2586  218.8904 H   0  0  0  0  0  0  0  0  0  0  0  0
  139.1610   69.3249  222.7611 H   0  0  0  0  0  0  0  0  0  0  0  0
  139.3254   68.1957  224.9889 H   0  0  0  0  0  0  0  0  0  0  0  0
  139.8975   68.2255  227.3110 H   0  0  0  0  0  0  0  0  0  0  0  0
  140.7854   69.4945  229.2671 H   0  0  0  0  0  0  0  0  0  0  0  0
  141.4999   71.8525  229.0030 H   0  0  0  0  0  0  0  0  0  0  0  0
  141.3274   72.9629  226.7992 H   0  0  0  0  0  0  0  0  0  0  0  0
  1  2  2  0
  2  3  1  0
  3  4  1  0
  4  5  1  0
  5  6  2  0
  5  7  1  0
  7  8  1  0
  8  9  1  0
  9 10  1  0
 10 11  1  0
 11 12  1  0
 12 13  1  0
 13 14  1  0
 14 15  1  0
 15 16  1  0
 16 17  1  0
 17 18  1  0
  2 19  1  0
 19 20  2  0
 20 21  1  0
 21 22  2  0
 22 23  1  0
 23 24  2  0
 24 25  1  0
 25 26  2  0
 26 27  1  0
 27 28  2  0
 12  7  1  0
 18 14  1  0
 28 19  1  0
 27 22  1  0
  3 29  1  0
  4 30  1  0
  4 31  1  0
  8 32  1  0
  8 33  1  0
  9 34  1  0
  9 35  1  0
 10 36  1  0
 10 37  1  0
 11 38  1  0
 11 39  1  0
 12 40  1  6
 13 41  1  0
 13 42  1  0
 15 43  1  0
 15 44  1  0
 16 45  1  0
 16 46  1  0
 17 47  1  0
 17 48  1  0
 18 49  1  0
 18 50  1  0
 20 51  1  0
 21 52  1  0
 23 53  1  0
 24 54  1  0
 25 55  1  0
 26 56  1  0
M  END
>  <smiles>  (47) 
O=C(NCC(=O)N1CCCC[C@H]1CN1CCCC1)c1ccc2ccccc2n1

>  <score_type>  (47) 
oracle

>  <origin>  (47) 
autodockgpu

>  <m_score__min__energy>  (47) 
-8.5199999999999996

>  <m_primary>  (47) 
energy

>  <rmsd>  (47) 
3.9164394680117485

>  <m_score__min__rmsd>  (47) 
3.9164394680117485

>  <meeko>  (47) 
{"free_energy": -7.58, "intermolecular_energy": -9.37, "internal_energy": -1.94, "cluster_size": 41, "cluster_id": 1, "rank_in_cluster": 41}

>  <energy>  (47) 
-8.05

>  <cluster_rmsd>  (47) 
0.55

>  <cluster>  (47) 
2

$$$$

     RDKit          3D

 56 59  0  0  0  0  0  0  0  0999 V2000
  141.4490   71.9400  221.6600 O   0  0  0  0  0  0  0  0  0  0  0  0
  140.4770   72.2150  222.4360 C   0  0  0  0  0  0  0  0  0  0  0  0
  139.5870   73.2860  222.1240 N   0  0  0  0  0  0  0  0  0  0  0  0
  139.7440   74.1030  220.9240 C   0  0  0  0  0  0  0  0  0  0  0  0
  140.8340   75.0770  221.1620 C   0  0  0  0  0  0  0  0  0  0  0  0
  141.0190   75.4880  222.3360 O   0  0  0  0  0  0  0  0  0  0  0  0
  141.6910   75.5850  220.1580 N   0  0  0  0  0  0  0  0  0  0  0  0
  141.6090   76.9940  219.8560 C   0  0  0  0  0  0  0  0  0  0  0  0
  142.6600   77.5040  218.9250 C   0  0  0  0  0  0  0  0  0  0  0  0
  143.0270   76.6150  217.7920 C   0  0  0  0  0  0  0  0  0  0  0  0
  142.5780   75.2190  218.0250 C   0  0  0  0  0  0  0  0  0  0  0  0
  142.6400   74.7190  219.4240 C   0  0  1  0  0  0  0  0  0  0  0  0
  143.9300   74.7140  220.1320 C   0  0  0  0  0  0  0  0  0  0  0  0
  144.2580   73.6210  220.9780 N   0  0  0  0  0  0  0  0  0  0  0  0
  145.7230   73.7480  221.2130 C   0  0  0  0  0  0  0  0  0  0  0  0
  146.3150   73.3000  219.9030 C   0  0  0  0  0  0  0  0  0  0  0  0
  145.3800   72.2310  219.3900 C   0  0  0  0  0  0  0  0  0  0  0  0
  144.2530   72.3110  220.3860 C   0  0  0  0  0  0  0  0  0  0  0  0
  140.2680   71.4240  223.6660 C   0  0  0  0  0  0  0  0  0  0  0  0
  139.5840   70.2310  223.5720 C   0  0  0  0  0  0  0  0  0  0  0  0
  139.4110   69.5200  224.7530 C   0  0  0  0  0  0  0  0  0  0  0  0
  139.8990   69.9840  225.9600 C   0  0  0  0  0  0  0  0  0  0  0  0
  139.7110   69.2560  227.1070 C   0  0  0  0  0  0  0  0  0  0  0  0
  140.2170   69.7590  228.2930 C   0  0  0  0  0  0  0  0  0  0  0  0
  140.8940   70.9640  228.3120 C   0  0  0  0  0  0  0  0  0  0  0  0
  141.0680   71.6750  227.1460 C   0  0  0  0  0  0  0  0  0  0  0  0
  140.5670   71.1850  225.9420 C   0  0  0  0  0  0  0  0  0  0  0  0
  140.7470   71.8850  224.8330 N   0  0  0  0  0  0  0  0  0  0  0  0
  138.8090   73.4500  222.8180 H   0  0  0  0  0  0  0  0  0  0  0  0
  139.9996   73.4610  220.0681 H   0  0  0  0  0  0  0  0  0  0  0  0
  138.8057   74.6322  220.7012 H   0  0  0  0  0  0  0  0  0  0  0  0
  140.6267   77.1885  219.4006 H   0  0  0  0  0  0  0  0  0  0  0  0
  141.7616   77.5213  220.8092 H   0  0  0  0  0  0  0  0  0  0  0  0
  142.3004   78.4537  218.5023 H   0  0  0  0  0  0  0  0  0  0  0  0
  143.5717   77.5927  219.5340 H   0  0  0  0  0  0  0  0  0  0  0  0
  142.5543   76.9935  216.8737 H   0  0  0  0  0  0  0  0  0  0  0  0
  144.1229   76.6127  217.6975 H   0  0  0  0  0  0  0  0  0  0  0  0
  141.5323   75.1458  217.6916 H   0  0  0  0  0  0  0  0  0  0  0  0
  143.2861   74.5917  217.4637 H   0  0  0  0  0  0  0  0  0  0  0  0
  142.4132   73.6435  219.3814 H   0  0  0  0  0  0  0  0  0  0  0  0
  144.7164   74.7726  219.3651 H   0  0  0  0  0  0  0  0  0  0  0  0
  143.8476   75.5632  220.8263 H   0  0  0  0  0  0  0  0  0  0  0  0
  145.9990   74.7891  221.4363 H   0  0  0  0  0  0  0  0  0  0  0  0
  146.0772   73.1604  222.0728 H   0  0  0  0  0  0  0  0  0  0  0  0
  146.3652   74.1404  219.1951 H   0  0  0  0  0  0  0  0  0  0  0  0
  147.3419   72.9244  220.0233 H   0  0  0  0  0  0  0  0  0  0  0  0
  145.0322   72.4571  218.3712 H   0  0  0  0  0  0  0  0  0  0  0  0
  145.8391   71.2344  219.3128 H   0  0  0  0  0  0  0  0  0  0  0  0
  143.2940   72.1384  219.8755 H   0  0  0  0  0  0  0  0  0  0  0  0
  144.3841   71.5455  221.1650 H   0  0  0  0  0  0  0  0  0  0  0  0
  139.1953   69.8611  222.6118 H   0  0  0  0  0  0  0  0  0  0  0  0
  138.8711   68.5620  224.7267 H   0  0  0  0  0  0  0  0  0  0  0  0
  139.1721   68.2973  227.0849 H   0  0  0  0  0  0  0  0  0  0  0  0
  140.0793   69.1955  229.2276 H   0  0  0  0  0  0  0  0  0  0  0  0
  141.2939   71.3550  229.2592 H   0  0  0  0  0  0  0  0  0  0  0  0
  141.6052   72.6347  227.1651 H   0  0  0  0  0  0  0  0  0  0  0  0
  1  2  2  0
  2  3  1  0
  3  4  1  0
  4  5  1  0
  5  6  2  0
  5  7  1  0
  7  8  1  0
  8  9  1  0
  9 10  1  0
 10 11  1  0
 11 12  1  0
 12 13  1  0
 13 14  1  0
 14 15  1  0
 15 16  1  0
 16 17  1  0
 17 18  1  0
  2 19  1  0
 19 20  2  0
 20 21  1  0
 21 22  2  0
 22 23  1  0
 23 24  2  0
 24 25  1  0
 25 26  2  0
 26 27  1  0
 27 28  2  0
 12  7  1  0
 18 14  1  0
 28 19  1  0
 27 22  1  0
  3 29  1  0
  4 30  1  0
  4 31  1  0
  8 32  1  0
  8 33  1  0
  9 34  1  0
  9 35  1  0
 10 36  1  0
 10 37  1  0
 11 38  1  0
 11 39  1  0
 12 40  1  6
 13 41  1  0
 13 42  1  0
 15 43  1  0
 15 44  1  0
 16 45  1  0
 16 46  1  0
 17 47  1  0
 17 48  1  0
 18 49  1  0
 18 50  1  0
 20 51  1  0
 21 52  1  0
 23 53  1  0
 24 54  1  0
 25 55  1  0
 26 56  1  0
M  END
>  <smiles>  (48) 
O=C(NCC(=O)N1CCCC[C@H]1CN1CCCC1)c1ccc2ccccc2n1

>  <score_type>  (48) 
oracle

>  <origin>  (48) 
autodockgpu

>  <m_score__min__energy>  (48) 
-8.5199999999999996

>  <m_primary>  (48) 
energy

>  <rmsd>  (48) 
4.3060294913717705

>  <m_score__min__rmsd>  (48) 
4.3060294913717705

>  <meeko>  (48) 
{"free_energy": -8.46, "intermolecular_energy": -10.25, "internal_energy": -1.82, "cluster_size": 6, "cluster_id": 2, "rank_in_cluster": 1}

>  <energy>  (48) 
-7.39

>  <cluster_rmsd>  (48) 
0.0

>  <cluster>  (48) 
3

$$$$

     RDKit          3D

 56 59  0  0  0  0  0  0  0  0999 V2000
  140.5840   71.4500  221.2910 O   0  0  0  0  0  0  0  0  0  0  0  0
  140.2160   72.0450  222.3560 C   0  0  0  0  0  0  0  0  0  0  0  0
  139.8750   73.4300  222.3260 N   0  0  0  0  0  0  0  0  0  0  0  0
  139.9310   74.2180  221.0980 C   0  0  0  0  0  0  0  0  0  0  0  0
  140.1060   75.6420  221.4660 C   0  0  0  0  0  0  0  0  0  0  0  0
  139.9410   75.9710  222.6680 O   0  0  0  0  0  0  0  0  0  0  0  0
  140.4490   76.6700  220.5560 N   0  0  0  0  0  0  0  0  0  0  0  0
  139.4330   77.1140  219.6330 C   0  0  0  0  0  0  0  0  0  0  0  0
  139.7930   78.3200  218.8280 C   0  0  0  0  0  0  0  0  0  0  0  0
  141.1950   78.3960  218.3410 C   0  0  0  0  0  0  0  0  0  0  0  0
  142.0820   77.4640  219.0820 C   0  0  0  0  0  0  0  0  0  0  0  0
  141.7980   77.2770  220.5300 C   0  0  1  0  0  0  0  0  0  0  0  0
  141.8160   78.4450  221.4250 C   0  0  0  0  0  0  0  0  0  0  0  0
  141.0840   78.4030  222.6420 N   0  0  0  0  0  0  0  0  0  0  0  0
  140.2370   79.6280  222.6190 C   0  0  0  0  0  0  0  0  0  0  0  0
  141.2250   80.7280  222.9010 C   0  0  0  0  0  0  0  0  0  0  0  0
  142.2380   80.1190  223.8410 C   0  0  0  0  0  0  0  0  0  0  0  0
  141.8120   78.6740  223.8530 C   0  0  0  0  0  0  0  0  0  0  0  0
  140.1410   71.3000  223.6300 C   0  0  0  0  0  0  0  0  0  0  0  0
  139.5810   70.0400  223.6220 C   0  0  0  0  0  0  0  0  0  0  0  0
  139.5320   69.3760  224.8420 C   0  0  0  0  0  0  0  0  0  0  0  0
  140.0180   69.9470  226.0010 C   0  0  0  0  0  0  0  0  0  0  0  0
  139.9530   69.2630  227.1890 C   0  0  0  0  0  0  0  0  0  0  0  0
  140.4530   69.8740  228.3260 C   0  0  0  0  0  0  0  0  0  0  0  0
  141.0020   71.1410  228.2580 C   0  0  0  0  0  0  0  0  0  0  0  0
  141.0530   71.8060  227.0530 C   0  0  0  0  0  0  0  0  0  0  0  0
  140.5560   71.2070  225.8980 C   0  0  0  0  0  0  0  0  0  0  0  0
  140.6170   71.8650  224.7500 N   0  0  0  0  0  0  0  0  0  0  0  0
  139.5820   73.8480  223.2490 H   0  0  0  0  0  0  0  0  0  0  0  0
  140.7796   73.8862  220.4817 H   0  0  0  0  0  0  0  0  0  0  0  0
  139.0034   74.0871  220.5214 H   0  0  0  0  0  0  0  0  0  0  0  0
  139.2216   76.2896  218.9361 H   0  0  0  0  0  0  0  0  0  0  0  0
  138.5662   77.4018  220.2460 H   0  0  0  0  0  0  0  0  0  0  0  0
  139.1318   78.3452  217.9492 H   0  0  0  0  0  0  0  0  0  0  0  0
  139.6750   79.1733  219.5121 H   0  0  0  0  0  0  0  0  0  0  0  0
  141.2164   78.1356  217.2725 H   0  0  0  0  0  0  0  0  0  0  0  0
  141.5605   79.4208  218.5029 H   0  0  0  0  0  0  0  0  0  0  0  0
  142.0080   76.4788  218.5984 H   0  0  0  0  0  0  0  0  0  0  0  0
  143.0806   77.9234  219.0414 H   0  0  0  0  0  0  0  0  0  0  0  0
  142.6279   76.6808  220.9372 H   0  0  0  0  0  0  0  0  0  0  0  0
  142.8676   78.6294  221.6899 H   0  0  0  0  0  0  0  0  0  0  0  0
  141.3055   79.2259  220.8423 H   0  0  0  0  0  0  0  0  0  0  0  0
  139.7646   79.7636  221.6349 H   0  0  0  0  0  0  0  0  0  0  0  0
  139.4073   79.5950  223.3405 H   0  0  0  0  0  0  0  0  0  0  0  0
  141.7112   81.0576  221.9709 H   0  0  0  0  0  0  0  0  0  0  0  0
  140.7404   81.6141  223.3368 H   0  0  0  0  0  0  0  0  0  0  0  0
  143.2619   80.2322  223.4553 H   0  0  0  0  0  0  0  0  0  0  0  0
  142.2614   80.5863  224.8365 H   0  0  0  0  0  0  0  0  0  0  0  0
  142.6993   78.0259  223.9055 H   0  0  0  0  0  0  0  0  0  0  0  0
  141.1755   78.4758  224.7280 H   0  0  0  0  0  0  0  0  0  0  0  0
  139.1935   69.5844  222.6988 H   0  0  0  0  0  0  0  0  0  0  0  0
  139.0940   68.3679  224.8852 H   0  0  0  0  0  0  0  0  0  0  0  0
  139.5148   68.2551  227.2364 H   0  0  0  0  0  0  0  0  0  0  0  0
  140.4132   69.3474  229.2910 H   0  0  0  0  0  0  0  0  0  0  0  0
  141.3982   71.6181  229.1665 H   0  0  0  0  0  0  0  0  0  0  0  0
  141.4883   72.8149  227.0025 H   0  0  0  0  0  0  0  0  0  0  0  0
  1  2  2  0
  2  3  1  0
  3  4  1  0
  4  5  1  0
  5  6  2  0
  5  7  1  0
  7  8  1  0
  8  9  1  0
  9 10  1  0
 10 11  1  0
 11 12  1  0
 12 13  1  0
 13 14  1  0
 14 15  1  0
 15 16  1  0
 16 17  1  0
 17 18  1  0
  2 19  1  0
 19 20  2  0
 20 21  1  0
 21 22  2  0
 22 23  1  0
 23 24  2  0
 24 25  1  0
 25 26  2  0
 26 27  1  0
 27 28  2  0
 12  7  1  0
 18 14  1  0
 28 19  1  0
 27 22  1  0
  3 29  1  0
  4 30  1  0
  4 31  1  0
  8 32  1  0
  8 33  1  0
  9 34  1  0
  9 35  1  0
 10 36  1  0
 10 37  1  0
 11 38  1  0
 11 39  1  0
 12 40  1  1
 13 41  1  0
 13 42  1  0
 15 43  1  0
 15 44  1  0
 16 45  1  0
 16 46  1  0
 17 47  1  0
 17 48  1  0
 18 49  1  0
 18 50  1  0
 20 51  1  0
 21 52  1  0
 23 53  1  0
 24 54  1  0
 25 55  1  0
 26 56  1  0
M  END
>  <smiles>  (49) 
O=C(NCC(=O)N1CCCC[C@H]1CN1CCCC1)c1ccc2ccccc2n1

>  <score_type>  (49) 
oracle

>  <origin>  (49) 
autodockgpu

>  <m_score__min__energy>  (49) 
-8.5199999999999996

>  <m_primary>  (49) 
energy

>  <rmsd>  (49) 
2.2290103376551564

>  <m_score__min__rmsd>  (49) 
2.2290103376551564

>  <meeko>  (49) 
{"free_energy": -8.35, "intermolecular_energy": -10.14, "internal_energy": -2.15, "cluster_size": 41, "cluster_id": 1, "rank_in_cluster": 24}

>  <energy>  (49) 
-7.38

>  <cluster_rmsd>  (49) 
0.18

>  <cluster>  (49) 
3

$$$$

     RDKit          3D

 56 59  0  0  0  0  0  0  0  0999 V2000
  140.6540   71.2220  221.3790 O   0  0  0  0  0  0  0  0  0  0  0  0
  140.2450   71.7800  222.4490 C   0  0  0  0  0  0  0  0  0  0  0  0
  139.9000   73.1650  222.4530 N   0  0  0  0  0  0  0  0  0  0  0  0
  139.9960   73.9930  221.2540 C   0  0  0  0  0  0  0  0  0  0  0  0
  139.7860   75.4060  221.6450 C   0  0  0  0  0  0  0  0  0  0  0  0
  139.2010   75.6410  222.7330 O   0  0  0  0  0  0  0  0  0  0  0  0
  140.1990   76.5210  220.8800 N   0  0  0  0  0  0  0  0  0  0  0  0
  139.7270   76.6120  219.5190 C   0  0  0  0  0  0  0  0  0  0  0  0
  140.0420   77.8960  218.8240 C   0  0  0  0  0  0  0  0  0  0  0  0
  141.3840   78.4790  219.0890 C   0  0  0  0  0  0  0  0  0  0  0  0
  142.0030   77.8940  220.3040 C   0  0  0  0  0  0  0  0  0  0  0  0
  141.0900   77.5650  221.4320 C   0  0  1  0  0  0  0  0  0  0  0  0
  140.2690   78.6310  222.0280 C   0  0  0  0  0  0  0  0  0  0  0  0
  140.4860   79.0050  223.3810 N   0  0  0  0  0  0  0  0  0  0  0  0
  140.2660   80.4780  223.4080 C   0  0  0  0  0  0  0  0  0  0  0  0
  141.5050   81.0180  222.7450 C   0  0  0  0  0  0  0  0  0  0  0  0
  142.6120   80.0720  223.1450 C   0  0  0  0  0  0  0  0  0  0  0  0
  141.8440   78.9880  223.8540 C   0  0  0  0  0  0  0  0  0  0  0  0
  140.1280   70.9930  223.6940 C   0  0  0  0  0  0  0  0  0  0  0  0
  139.5340   69.7500  223.6330 C   0  0  0  0  0  0  0  0  0  0  0  0
  139.4460   69.0460  224.8270 C   0  0  0  0  0  0  0  0  0  0  0  0
  139.9270   69.5620  226.0140 C   0  0  0  0  0  0  0  0  0  0  0  0
  139.8240   68.8390  227.1750 C   0  0  0  0  0  0  0  0  0  0  0  0
  140.3210   69.3960  228.3410 C   0  0  0  0  0  0  0  0  0  0  0  0
  140.9050   70.6480  228.3270 C   0  0  0  0  0  0  0  0  0  0  0  0
  140.9950   71.3530  227.1480 C   0  0  0  0  0  0  0  0  0  0  0  0
  140.5020   70.8100  225.9640 C   0  0  0  0  0  0  0  0  0  0  0  0
  140.6000   71.5060  224.8420 N   0  0  0  0  0  0  0  0  0  0  0  0
  139.5710   73.5510  223.3770 H   0  0  0  0  0  0  0  0  0  0  0  0
  140.9915   73.8768  220.8007 H   0  0  0  0  0  0  0  0  0  0  0  0
  139.2358   73.6863  220.5205 H   0  0  0  0  0  0  0  0  0  0  0  0
  140.1835   75.7925  218.9444 H   0  0  0  0  0  0  0  0  0  0  0  0
  138.6298   76.5525  219.5705 H   0  0  0  0  0  0  0  0  0  0  0  0
  139.9618   77.7190  217.7413 H   0  0  0  0  0  0  0  0  0  0  0  0
  139.3222   78.6272  219.2204 H   0  0  0  0  0  0  0  0  0  0  0  0
  142.0361   78.2811  218.2255 H   0  0  0  0  0  0  0  0  0  0  0  0
  141.2637   79.5604  219.2506 H   0  0  0  0  0  0  0  0  0  0  0  0
  142.5096   76.9647  220.0045 H   0  0  0  0  0  0  0  0  0  0  0  0
  142.6689   78.6784  220.6930 H   0  0  0  0  0  0  0  0  0  0  0  0
  141.7296   77.2844  222.2818 H   0  0  0  0  0  0  0  0  0  0  0  0
  140.4231   79.5331  221.4177 H   0  0  0  0  0  0  0  0  0  0  0  0
  139.2556   78.2033  222.0367 H   0  0  0  0  0  0  0  0  0  0  0  0
  139.3633   80.7533  222.8429 H   0  0  0  0  0  0  0  0  0  0  0  0
  140.1095   80.8742  224.4221 H   0  0  0  0  0  0  0  0  0  0  0  0
  141.3837   81.0296  221.6518 H   0  0  0  0  0  0  0  0  0  0  0  0
  141.7176   82.0529  223.0514 H   0  0  0  0  0  0  0  0  0  0  0  0
  143.1412   79.6786  222.2646 H   0  0  0  0  0  0  0  0  0  0  0  0
  143.3979   80.5372  223.7581 H   0  0  0  0  0  0  0  0  0  0  0  0
  142.2992   78.0099  223.6393 H   0  0  0  0  0  0  0  0  0  0  0  0
  141.8663   79.1599  224.9403 H   0  0  0  0  0  0  0  0  0  0  0  0
  139.1500   69.3377  222.6882 H   0  0  0  0  0  0  0  0  0  0  0  0
  138.9801   68.0495  224.8270 H   0  0  0  0  0  0  0  0  0  0  0  0
  139.3585   67.8423  227.1796 H   0  0  0  0  0  0  0  0  0  0  0  0
  140.2503   68.8374  229.2859 H   0  0  0  0  0  0  0  0  0  0  0  0
  141.2982   71.0817  229.2583 H   0  0  0  0  0  0  0  0  0  0  0  0
  141.4587   72.3504  227.1410 H   0  0  0  0  0  0  0  0  0  0  0  0
  1  2  2  0
  2  3  1  0
  3  4  1  0
  4  5  1  0
  5  6  2  0
  5  7  1  0
  7  8  1  0
  8  9  1  0
  9 10  1  0
 10 11  1  0
 11 12  1  0
 12 13  1  0
 13 14  1  0
 14 15  1  0
 15 16  1  0
 16 17  1  0
 17 18  1  0
  2 19  1  0
 19 20  2  0
 20 21  1  0
 21 22  2  0
 22 23  1  0
 23 24  2  0
 24 25  1  0
 25 26  2  0
 26 27  1  0
 27 28  2  0
 12  7  1  0
 18 14  1  0
 28 19  1  0
 27 22  1  0
  3 29  1  0
  4 30  1  0
  4 31  1  0
  8 32  1  0
  8 33  1  0
  9 34  1  0
  9 35  1  0
 10 36  1  0
 10 37  1  0
 11 38  1  0
 11 39  1  0
 12 40  1  1
 13 41  1  0
 13 42  1  0
 15 43  1  0
 15 44  1  0
 16 45  1  0
 16 46  1  0
 17 47  1  0
 17 48  1  0
 18 49  1  0
 18 50  1  0
 20 51  1  0
 21 52  1  0
 23 53  1  0
 24 54  1  0
 25 55  1  0
 26 56  1  0
M  END
>  <smiles>  (50) 
O=C(NCC(=O)N1CCCC[C@H]1CN1CCCC1)c1ccc2ccccc2n1

>  <score_type>  (50) 
oracle

>  <origin>  (50) 
autodockgpu

>  <m_score__min__energy>  (50) 
-8.5199999999999996

>  <m_primary>  (50) 
energy

>  <rmsd>  (50) 
2.212556822117782

>  <m_score__min__rmsd>  (50) 
2.212556822117782

>  <meeko>  (50) 
{"free_energy": -8.45, "intermolecular_energy": -10.24, "internal_energy": -2.08, "cluster_size": 41, "cluster_id": 1, "rank_in_cluster": 10}

>  <energy>  (50) 
-6.85

>  <cluster_rmsd>  (50) 
0.0

>  <cluster>  (50) 
4

$$$$
