
     RDKit          3D

 51 54  0  0  0  0  0  0  0  0999 V2000
  138.9900   73.6280  221.4160 O   0  0  0  0  0  0  0  0  0  0  0  0
  139.9410   74.4090  221.5940 C   0  0  0  0  0  0  0  0  0  0  0  0
  141.2950   73.9510  221.3890 N   0  0  0  0  0  0  0  0  0  0  0  0
  141.6420   72.6380  220.9840 C   0  0  0  0  0  0  0  0  0  0  0  0
  142.4440   72.3920  219.8000 C   0  0  0  0  0  0  0  0  0  0  0  0
  141.8320   71.6390  218.9200 O   0  0  0  0  0  0  0  0  0  0  0  0
  143.7210   72.7890  219.4210 N   0  0  0  0  0  0  0  0  0  0  0  0
  144.8560   71.9110  219.0910 C   0  0  0  0  0  0  0  0  0  0  0  0
  145.9840   72.1740  220.0490 C   0  0  0  0  0  0  0  0  0  0  0  0
  145.6990   73.2400  221.0460 C   0  0  0  0  0  0  0  0  0  0  0  0
  145.0820   74.4960  220.4690 C   0  0  0  0  0  0  0  0  0  0  0  0
  144.1300   74.2210  219.3460 C   0  0  2  0  0  0  0  0  0  0  0  0
  143.0550   75.1630  219.1520 C   0  0  0  0  0  0  0  0  0  0  0  0
  141.8970   74.9710  218.4360 C   0  0  0  0  0  0  0  0  0  0  0  0
  140.8950   75.9120  218.3320 C   0  0  0  0  0  0  0  0  0  0  0  0
  141.0190   77.1290  218.9670 C   0  0  0  0  0  0  0  0  0  0  0  0
  139.7960   78.3780  218.8870 Cl  0  0  0  0  0  0  0  0  0  0  0  0
  142.1690   77.3510  219.6910 C   0  0  0  0  0  0  0  0  0  0  0  0
  143.1580   76.4130  219.7900 C   0  0  0  0  0  0  0  0  0  0  0  0
  139.6960   75.8060  222.0140 C   0  0  0  0  0  0  0  0  0  0  0  0
  138.3960   76.2600  222.0580 C   0  0  0  0  0  0  0  0  0  0  0  0
  138.2220   77.5840  222.4610 C   0  0  0  0  0  0  0  0  0  0  0  0
  139.2860   78.3930  222.7950 C   0  0  0  0  0  0  0  0  0  0  0  0
  139.1420   79.7050  223.1960 C   0  0  0  0  0  0  0  0  0  0  0  0
  140.2340   80.5030  223.5290 C   0  0  0  0  0  0  0  0  0  0  0  0
  141.4940   79.9440  223.4490 C   0  0  0  0  0  0  0  0  0  0  0  0
  142.9040   80.9200  223.8620 Cl  0  0  0  0  0  0  0  0  0  0  0  0
  141.6900   78.6230  223.0490 C   0  0  0  0  0  0  0  0  0  0  0  0
  140.5680   77.8830  222.7320 C   0  0  0  0  0  0  0  0  0  0  0  0
  140.7220   76.6040  222.3430 N   0  0  0  0  0  0  0  0  0  0  0  0
  142.0260   74.6880  221.5690 H   0  0  0  0  0  0  0  0  0  0  0  0
  142.1882   72.1886  221.8264 H   0  0  0  0  0  0  0  0  0  0  0  0
  140.6672   72.2158  220.6984 H   0  0  0  0  0  0  0  0  0  0  0  0
  144.5428   70.8597  219.1723 H   0  0  0  0  0  0  0  0  0  0  0  0
  145.1913   72.1137  218.0632 H   0  0  0  0  0  0  0  0  0  0  0  0
  146.2001   71.2422  220.5921 H   0  0  0  0  0  0  0  0  0  0  0  0
  146.8360   72.5229  219.4470 H   0  0  0  0  0  0  0  0  0  0  0  0
  145.0062   72.8312  221.7963 H   0  0  0  0  0  0  0  0  0  0  0  0
  146.6696   73.5368  221.4701 H   0  0  0  0  0  0  0  0  0  0  0  0
  144.5374   75.0181  221.2696 H   0  0  0  0  0  0  0  0  0  0  0  0
  145.9014   75.1066  220.0620 H   0  0  0  0  0  0  0  0  0  0  0  0
  144.6726   74.3958  218.4052 H   0  0  0  0  0  0  0  0  0  0  0  0
  141.7623   74.0110  217.9161 H   0  0  0  0  0  0  0  0  0  0  0  0
  139.9942   75.6910  217.7407 H   0  0  0  0  0  0  0  0  0  0  0  0
  142.2958   78.3145  220.2064 H   0  0  0  0  0  0  0  0  0  0  0  0
  144.0563   76.6407  220.3827 H   0  0  0  0  0  0  0  0  0  0  0  0
  137.5451   75.6161  221.7910 H   0  0  0  0  0  0  0  0  0  0  0  0
  137.2031   77.9952  222.5138 H   0  0  0  0  0  0  0  0  0  0  0  0
  138.1313   80.1353  223.2547 H   0  0  0  0  0  0  0  0  0  0  0  0
  140.0967   81.5473  223.8462 H   0  0  0  0  0  0  0  0  0  0  0  0
  142.6983   78.1875  222.9883 H   0  0  0  0  0  0  0  0  0  0  0  0
  1  2  2  0
  2  3  1  0
  3  4  1  0
  4  5  1  0
  5  6  2  0
  5  7  1  0
  7  8  1  0
  8  9  1  0
  9 10  1  0
 10 11  1  0
 11 12  1  0
 12 13  1  0
 13 14  2  0
 14 15  1  0
 15 16  2  0
 16 17  1  0
 16 18  1  0
 18 19  2  0
  2 20  1  0
 20 21  2  0
 21 22  1  0
 22 23  2  0
 23 24  1  0
 24 25  2  0
 25 26  1  0
 26 27  1  0
 26 28  2  0
 28 29  1  0
 29 30  2  0
 12  7  1  0
 19 13  1  0
 30 20  1  0
 29 23  1  0
  3 31  1  0
  4 32  1  0
  4 33  1  0
  8 34  1  0
  8 35  1  0
  9 36  1  0
  9 37  1  0
 10 38  1  0
 10 39  1  0
 11 40  1  0
 11 41  1  0
 12 42  1  6
 14 43  1  0
 15 44  1  0
 18 45  1  0
 19 46  1  0
 21 47  1  0
 22 48  1  0
 24 49  1  0
 25 50  1  0
 28 51  1  0
M  END
>  <smiles>  (1) 
O=C(NCC(=O)N1CCCCC1c1ccc(Cl)cc1)c1ccc2ccc(Cl)cc2n1

>  <score_type>  (1) 
oracle

>  <origin>  (1) 
autodockgpu

>  <m_score__min__energy>  (1) 
-8.6099999999999994

>  <m_primary>  (1) 
energy

>  <rmsd>  (1) 
7.061352293374692

>  <m_score__min__rmsd>  (1) 
7.061352293374692

>  <meeko>  (1) 
{"free_energy": -6.99, "intermolecular_energy": -8.48, "internal_energy": -3.09, "cluster_size": 14, "cluster_id": 6, "rank_in_cluster": 7}

>  <energy>  (1) 
-8.61

>  <cluster_rmsd>  (1) 
0.0

>  <cluster>  (1) 
1

$$$$

     RDKit          3D

 51 54  0  0  0  0  0  0  0  0999 V2000
  138.9810   73.6180  221.4100 O   0  0  0  0  0  0  0  0  0  0  0  0
  139.9380   74.3900  221.5970 C   0  0  0  0  0  0  0  0  0  0  0  0
  141.2890   73.9230  221.3860 N   0  0  0  0  0  0  0  0  0  0  0  0
  141.6260   72.6120  220.9650 C   0  0  0  0  0  0  0  0  0  0  0  0
  142.4410   72.3740  219.7890 C   0  0  0  0  0  0  0  0  0  0  0  0
  141.8450   71.6150  218.9050 O   0  0  0  0  0  0  0  0  0  0  0  0
  143.7180   72.7840  219.4220 N   0  0  0  0  0  0  0  0  0  0  0  0
  144.8620   71.9180  219.0980 C   0  0  0  0  0  0  0  0  0  0  0  0
  145.9810   72.1850  220.0650 C   0  0  0  0  0  0  0  0  0  0  0  0
  145.6780   73.2440  221.0660 C   0  0  0  0  0  0  0  0  0  0  0  0
  145.0560   74.4970  220.4900 C   0  0  0  0  0  0  0  0  0  0  0  0
  144.1150   74.2200  219.3580 C   0  0  2  0  0  0  0  0  0  0  0  0
  143.0330   75.1540  219.1610 C   0  0  0  0  0  0  0  0  0  0  0  0
  141.8770   74.9510  218.4440 C   0  0  0  0  0  0  0  0  0  0  0  0
  140.8680   75.8840  218.3360 C   0  0  0  0  0  0  0  0  0  0  0  0
  140.9830   77.1040  218.9670 C   0  0  0  0  0  0  0  0  0  0  0  0
  139.7520   78.3440  218.8820 Cl  0  0  0  0  0  0  0  0  0  0  0  0
  142.1310   77.3370  219.6920 C   0  0  0  0  0  0  0  0  0  0  0  0
  143.1260   76.4060  219.7940 C   0  0  0  0  0  0  0  0  0  0  0  0
  139.7050   75.7830  222.0320 C   0  0  0  0  0  0  0  0  0  0  0  0
  138.4070   76.2390  222.1080 C   0  0  0  0  0  0  0  0  0  0  0  0
  138.2430   77.5600  222.5240 C   0  0  0  0  0  0  0  0  0  0  0  0
  139.3160   78.3650  222.8420 C   0  0  0  0  0  0  0  0  0  0  0  0
  139.1830   79.6740  223.2560 C   0  0  0  0  0  0  0  0  0  0  0  0
  140.2830   80.4680  223.5720 C   0  0  0  0  0  0  0  0  0  0  0  0
  141.5390   79.9080  223.4610 C   0  0  0  0  0  0  0  0  0  0  0  0
  142.9590   80.8790  223.8510 Cl  0  0  0  0  0  0  0  0  0  0  0  0
  141.7250   78.5900  223.0470 C   0  0  0  0  0  0  0  0  0  0  0  0
  140.5960   77.8540  222.7470 C   0  0  0  0  0  0  0  0  0  0  0  0
  140.7390   76.5780  222.3450 N   0  0  0  0  0  0  0  0  0  0  0  0
  142.0260   74.6530  221.5740 H   0  0  0  0  0  0  0  0  0  0  0  0
  142.1550   72.1431  221.8078 H   0  0  0  0  0  0  0  0  0  0  0  0
  140.6502   72.2067  220.6591 H   0  0  0  0  0  0  0  0  0  0  0  0
  144.5567   70.8638  219.1723 H   0  0  0  0  0  0  0  0  0  0  0  0
  145.2037   72.1291  218.0739 H   0  0  0  0  0  0  0  0  0  0  0  0
  146.2014   71.2522  220.6047 H   0  0  0  0  0  0  0  0  0  0  0  0
  146.8349   72.5438  219.4716 H   0  0  0  0  0  0  0  0  0  0  0  0
  144.9820   72.8255  221.8079 H   0  0  0  0  0  0  0  0  0  0  0  0
  146.6421   73.5466  221.5006 H   0  0  0  0  0  0  0  0  0  0  0  0
  144.5010   75.0111  221.2886 H   0  0  0  0  0  0  0  0  0  0  0  0
  145.8739   75.1157  220.0922 H   0  0  0  0  0  0  0  0  0  0  0  0
  144.6631   74.4047  218.4224 H   0  0  0  0  0  0  0  0  0  0  0  0
  141.7503   73.9885  217.9268 H   0  0  0  0  0  0  0  0  0  0  0  0
  139.9691   75.6544  217.7450 H   0  0  0  0  0  0  0  0  0  0  0  0
  142.2504   78.3028  220.2049 H   0  0  0  0  0  0  0  0  0  0  0  0
  144.0224   76.6420  220.3863 H   0  0  0  0  0  0  0  0  0  0  0  0
  137.5495   75.5981  221.8551 H   0  0  0  0  0  0  0  0  0  0  0  0
  137.2261   77.9723  222.6008 H   0  0  0  0  0  0  0  0  0  0  0  0
  138.1745   80.1053  223.3394 H   0  0  0  0  0  0  0  0  0  0  0  0
  140.1542   81.5100  223.9001 H   0  0  0  0  0  0  0  0  0  0  0  0
  142.7312   78.1537  222.9627 H   0  0  0  0  0  0  0  0  0  0  0  0
  1  2  2  0
  2  3  1  0
  3  4  1  0
  4  5  1  0
  5  6  2  0
  5  7  1  0
  7  8  1  0
  8  9  1  0
  9 10  1  0
 10 11  1  0
 11 12  1  0
 12 13  1  0
 13 14  2  0
 14 15  1  0
 15 16  2  0
 16 17  1  0
 16 18  1  0
 18 19  2  0
  2 20  1  0
 20 21  2  0
 21 22  1  0
 22 23  2  0
 23 24  1  0
 24 25  2  0
 25 26  1  0
 26 27  1  0
 26 28  2  0
 28 29  1  0
 29 30  2  0
 12  7  1  0
 19 13  1  0
 30 20  1  0
 29 23  1  0
  3 31  1  0
  4 32  1  0
  4 33  1  0
  8 34  1  0
  8 35  1  0
  9 36  1  0
  9 37  1  0
 10 38  1  0
 10 39  1  0
 11 40  1  0
 11 41  1  0
 12 42  1  6
 14 43  1  0
 15 44  1  0
 18 45  1  0
 19 46  1  0
 21 47  1  0
 22 48  1  0
 24 49  1  0
 25 50  1  0
 28 51  1  0
M  END
>  <smiles>  (2) 
O=C(NCC(=O)N1CCCCC1c1ccc(Cl)cc1)c1ccc2ccc(Cl)cc2n1

>  <score_type>  (2) 
oracle

>  <origin>  (2) 
autodockgpu

>  <m_score__min__energy>  (2) 
-8.6099999999999994

>  <m_primary>  (2) 
energy

>  <rmsd>  (2) 
7.0412537541729066

>  <m_score__min__rmsd>  (2) 
7.0412537541729066

>  <meeko>  (2) 
{"free_energy": -7.0, "intermolecular_energy": -8.49, "internal_energy": -3.07, "cluster_size": 14, "cluster_id": 6, "rank_in_cluster": 6}

>  <energy>  (2) 
-8.58

>  <cluster_rmsd>  (2) 
0.22

>  <cluster>  (2) 
1

$$$$

     RDKit          3D

 51 54  0  0  0  0  0  0  0  0999 V2000
  139.0790   73.6890  221.3340 O   0  0  0  0  0  0  0  0  0  0  0  0
  140.0240   74.4460  221.6210 C   0  0  0  0  0  0  0  0  0  0  0  0
  141.3810   73.9570  221.5530 N   0  0  0  0  0  0  0  0  0  0  0  0
  141.7390   72.6400  221.1710 C   0  0  0  0  0  0  0  0  0  0  0  0
  142.4720   72.3740  219.9480 C   0  0  0  0  0  0  0  0  0  0  0  0
  141.7850   71.6630  219.0900 O   0  0  0  0  0  0  0  0  0  0  0  0
  143.7480   72.7170  219.5130 N   0  0  0  0  0  0  0  0  0  0  0  0
  144.8360   71.7930  219.1580 C   0  0  0  0  0  0  0  0  0  0  0  0
  146.0090   72.0310  220.0670 C   0  0  0  0  0  0  0  0  0  0  0  0
  145.8010   73.1240  221.0540 C   0  0  0  0  0  0  0  0  0  0  0  0
  145.2090   74.3920  220.4770 C   0  0  0  0  0  0  0  0  0  0  0  0
  144.2040   74.1320  219.3950 C   0  0  2  0  0  0  0  0  0  0  0  0
  143.1580   75.1090  219.2250 C   0  0  0  0  0  0  0  0  0  0  0  0
  141.9740   74.9530  218.5410 C   0  0  0  0  0  0  0  0  0  0  0  0
  141.0020   75.9270  218.4580 C   0  0  0  0  0  0  0  0  0  0  0  0
  141.1850   77.1430  219.0810 C   0  0  0  0  0  0  0  0  0  0  0  0
  140.0040   78.4330  219.0260 Cl  0  0  0  0  0  0  0  0  0  0  0  0
  142.3610   77.3300  219.7730 C   0  0  0  0  0  0  0  0  0  0  0  0
  143.3200   76.3580  219.8510 C   0  0  0  0  0  0  0  0  0  0  0  0
  139.7680   75.8440  222.0290 C   0  0  0  0  0  0  0  0  0  0  0  0
  138.4650   76.2910  222.0600 C   0  0  0  0  0  0  0  0  0  0  0  0
  138.2800   77.6170  222.4520 C   0  0  0  0  0  0  0  0  0  0  0  0
  139.3380   78.4340  222.7900 C   0  0  0  0  0  0  0  0  0  0  0  0
  139.1830   79.7480  223.1810 C   0  0  0  0  0  0  0  0  0  0  0  0
  140.2680   80.5540  223.5180 C   0  0  0  0  0  0  0  0  0  0  0  0
  141.5310   80.0010  223.4520 C   0  0  0  0  0  0  0  0  0  0  0  0
  142.9320   80.9880  223.8700 Cl  0  0  0  0  0  0  0  0  0  0  0  0
  141.7380   78.6790  223.0620 C   0  0  0  0  0  0  0  0  0  0  0  0
  140.6230   77.9300  222.7400 C   0  0  0  0  0  0  0  0  0  0  0  0
  140.7870   76.6500  222.3610 N   0  0  0  0  0  0  0  0  0  0  0  0
  142.1050   74.6760  221.8190 H   0  0  0  0  0  0  0  0  0  0  0  0
  142.3491   72.2349  221.9917 H   0  0  0  0  0  0  0  0  0  0  0  0
  140.7607   72.1825  220.9621 H   0  0  0  0  0  0  0  0  0  0  0  0
  144.4882   70.7556  219.2715 H   0  0  0  0  0  0  0  0  0  0  0  0
  145.1387   71.9651  218.1146 H   0  0  0  0  0  0  0  0  0  0  0  0
  146.2125   71.1014  220.6188 H   0  0  0  0  0  0  0  0  0  0  0  0
  146.8491   72.3378  219.4267 H   0  0  0  0  0  0  0  0  0  0  0  0
  145.1225   72.7543  221.8369 H   0  0  0  0  0  0  0  0  0  0  0  0
  146.7971   73.3917  221.4362 H   0  0  0  0  0  0  0  0  0  0  0  0
  144.7151   74.9482  221.2874 H   0  0  0  0  0  0  0  0  0  0  0  0
  146.0339   74.9646  220.0280 H   0  0  0  0  0  0  0  0  0  0  0  0
  144.7143   74.2699  218.4304 H   0  0  0  0  0  0  0  0  0  0  0  0
  141.7927   73.9954  218.0309 H   0  0  0  0  0  0  0  0  0  0  0  0
  140.0781   75.7334  217.8932 H   0  0  0  0  0  0  0  0  0  0  0  0
  142.5344   78.2913  220.2788 H   0  0  0  0  0  0  0  0  0  0  0  0
  144.2413   76.5582  220.4177 H   0  0  0  0  0  0  0  0  0  0  0  0
  137.6199   75.6402  221.7913 H   0  0  0  0  0  0  0  0  0  0  0  0
  137.2586   78.0233  222.4927 H   0  0  0  0  0  0  0  0  0  0  0  0
  138.1695   80.1731  223.2282 H   0  0  0  0  0  0  0  0  0  0  0  0
  140.1227   81.5996  223.8274 H   0  0  0  0  0  0  0  0  0  0  0  0
  142.7493   78.2491  223.0126 H   0  0  0  0  0  0  0  0  0  0  0  0
  1  2  2  0
  2  3  1  0
  3  4  1  0
  4  5  1  0
  5  6  2  0
  5  7  1  0
  7  8  1  0
  8  9  1  0
  9 10  1  0
 10 11  1  0
 11 12  1  0
 12 13  1  0
 13 14  2  0
 14 15  1  0
 15 16  2  0
 16 17  1  0
 16 18  1  0
 18 19  2  0
  2 20  1  0
 20 21  2  0
 21 22  1  0
 22 23  2  0
 23 24  1  0
 24 25  2  0
 25 26  1  0
 26 27  1  0
 26 28  2  0
 28 29  1  0
 29 30  2  0
 12  7  1  0
 19 13  1  0
 30 20  1  0
 29 23  1  0
  3 31  1  0
  4 32  1  0
  4 33  1  0
  8 34  1  0
  8 35  1  0
  9 36  1  0
  9 37  1  0
 10 38  1  0
 10 39  1  0
 11 40  1  0
 11 41  1  0
 12 42  1  6
 14 43  1  0
 15 44  1  0
 18 45  1  0
 19 46  1  0
 21 47  1  0
 22 48  1  0
 24 49  1  0
 25 50  1  0
 28 51  1  0
M  END
>  <smiles>  (3) 
O=C(NCC(=O)N1CCCCC1c1ccc(Cl)cc1)c1ccc2ccc(Cl)cc2n1

>  <score_type>  (3) 
oracle

>  <origin>  (3) 
autodockgpu

>  <m_score__min__energy>  (3) 
-8.6099999999999994

>  <m_primary>  (3) 
energy

>  <rmsd>  (3) 
7.112047753593204

>  <m_score__min__rmsd>  (3) 
7.112047753593204

>  <meeko>  (3) 
{"free_energy": -6.94, "intermolecular_energy": -8.43, "internal_energy": -3.13, "cluster_size": 14, "cluster_id": 6, "rank_in_cluster": 9}

>  <energy>  (3) 
-8.58

>  <cluster_rmsd>  (3) 
0.22

>  <cluster>  (3) 
1

$$$$

     RDKit          3D

 51 54  0  0  0  0  0  0  0  0999 V2000
  139.0030   73.7760  221.4810 O   0  0  0  0  0  0  0  0  0  0  0  0
  139.9230   74.5890  221.6850 C   0  0  0  0  0  0  0  0  0  0  0  0
  141.2970   74.1620  221.5640 N   0  0  0  0  0  0  0  0  0  0  0  0
  141.7000   72.8490  221.2150 C   0  0  0  0  0  0  0  0  0  0  0  0
  142.4030   72.5700  219.9770 C   0  0  0  0  0  0  0  0  0  0  0  0
  141.6930   71.8510  219.1430 O   0  0  0  0  0  0  0  0  0  0  0  0
  143.6670   72.9060  219.5080 N   0  0  0  0  0  0  0  0  0  0  0  0
  144.7270   71.9760  219.0870 C   0  0  0  0  0  0  0  0  0  0  0  0
  145.9350   72.1670  219.9600 C   0  0  0  0  0  0  0  0  0  0  0  0
  145.7800   73.2320  220.9870 C   0  0  0  0  0  0  0  0  0  0  0  0
  145.1890   74.5260  220.4710 C   0  0  0  0  0  0  0  0  0  0  0  0
  144.1430   74.3160  219.4180 C   0  0  2  0  0  0  0  0  0  0  0  0
  143.1080   75.3150  219.3160 C   0  0  0  0  0  0  0  0  0  0  0  0
  143.0340   76.5110  219.9900 C   0  0  0  0  0  0  0  0  0  0  0  0
  142.0270   77.4340  219.8060 C   0  0  0  0  0  0  0  0  0  0  0  0
  141.0160   77.1850  218.9020 C   0  0  0  0  0  0  0  0  0  0  0  0
  139.7010   78.3010  218.6070 Cl  0  0  0  0  0  0  0  0  0  0  0  0
  141.0630   75.9940  218.2120 C   0  0  0  0  0  0  0  0  0  0  0  0
  142.0650   75.0840  218.4000 C   0  0  0  0  0  0  0  0  0  0  0  0
  139.6200   75.9890  222.0510 C   0  0  0  0  0  0  0  0  0  0  0  0
  138.3070   76.4050  222.0220 C   0  0  0  0  0  0  0  0  0  0  0  0
  138.0770   77.7350  222.3760 C   0  0  0  0  0  0  0  0  0  0  0  0
  139.1020   78.5840  222.7350 C   0  0  0  0  0  0  0  0  0  0  0  0
  138.9030   79.9030  223.0880 C   0  0  0  0  0  0  0  0  0  0  0  0
  139.9550   80.7420  223.4470 C   0  0  0  0  0  0  0  0  0  0  0  0
  141.2320   80.2180  223.4420 C   0  0  0  0  0  0  0  0  0  0  0  0
  142.5930   81.2470  223.8890 Cl  0  0  0  0  0  0  0  0  0  0  0  0
  141.4830   78.8920  223.0910 C   0  0  0  0  0  0  0  0  0  0  0  0
  140.3990   78.1100  222.7450 C   0  0  0  0  0  0  0  0  0  0  0  0
  140.6060   76.8260  222.4020 N   0  0  0  0  0  0  0  0  0  0  0  0
  141.9980   74.9250  221.7610 H   0  0  0  0  0  0  0  0  0  0  0  0
  142.3544   72.5003  222.0275 H   0  0  0  0  0  0  0  0  0  0  0  0
  140.7362   72.3433  221.0556 H   0  0  0  0  0  0  0  0  0  0  0  0
  144.3660   70.9412  219.1814 H   0  0  0  0  0  0  0  0  0  0  0  0
  144.9959   72.1757  218.0392 H   0  0  0  0  0  0  0  0  0  0  0  0
  146.1423   71.2176  220.4755 H   0  0  0  0  0  0  0  0  0  0  0  0
  146.7571   72.4803  219.2998 H   0  0  0  0  0  0  0  0  0  0  0  0
  145.1237   72.8485  221.7821 H   0  0  0  0  0  0  0  0  0  0  0  0
  146.7933   73.4724  221.3411 H   0  0  0  0  0  0  0  0  0  0  0  0
  144.7328   75.0637  221.3152 H   0  0  0  0  0  0  0  0  0  0  0  0
  146.0070   75.0997  220.0109 H   0  0  0  0  0  0  0  0  0  0  0  0
  144.6220   74.4754  218.4407 H   0  0  0  0  0  0  0  0  0  0  0  0
  143.8244   76.7449  220.7184 H   0  0  0  0  0  0  0  0  0  0  0  0
  142.0299   78.3714  220.3816 H   0  0  0  0  0  0  0  0  0  0  0  0
  140.2682   75.7679  217.4860 H   0  0  0  0  0  0  0  0  0  0  0  0
  142.0561   74.1485  217.8214 H   0  0  0  0  0  0  0  0  0  0  0  0
  137.4880   75.7284  221.7365 H   0  0  0  0  0  0  0  0  0  0  0  0
  137.0458   78.1179  222.3684 H   0  0  0  0  0  0  0  0  0  0  0  0
  137.8792   80.3053  223.0858 H   0  0  0  0  0  0  0  0  0  0  0  0
  139.7738   81.7905  223.7261 H   0  0  0  0  0  0  0  0  0  0  0  0
  142.5049   78.4849  223.0898 H   0  0  0  0  0  0  0  0  0  0  0  0
  1  2  2  0
  2  3  1  0
  3  4  1  0
  4  5  1  0
  5  6  2  0
  5  7  1  0
  7  8  1  0
  8  9  1  0
  9 10  1  0
 10 11  1  0
 11 12  1  0
 12 13  1  0
 13 14  2  0
 14 15  1  0
 15 16  2  0
 16 17  1  0
 16 18  1  0
 18 19  2  0
  2 20  1  0
 20 21  2  0
 21 22  1  0
 22 23  2  0
 23 24  1  0
 24 25  2  0
 25 26  1  0
 26 27  1  0
 26 28  2  0
 28 29  1  0
 29 30  2  0
 12  7  1  0
 19 13  1  0
 30 20  1  0
 29 23  1  0
  3 31  1  0
  4 32  1  0
  4 33  1  0
  8 34  1  0
  8 35  1  0
  9 36  1  0
  9 37  1  0
 10 38  1  0
 10 39  1  0
 11 40  1  0
 11 41  1  0
 12 42  1  6
 14 43  1  0
 15 44  1  0
 18 45  1  0
 19 46  1  0
 21 47  1  0
 22 48  1  0
 24 49  1  0
 25 50  1  0
 28 51  1  0
M  END
>  <smiles>  (4) 
O=C(NCC(=O)N1CCCCC1c1ccc(Cl)cc1)c1ccc2ccc(Cl)cc2n1

>  <score_type>  (4) 
oracle

>  <origin>  (4) 
autodockgpu

>  <m_score__min__energy>  (4) 
-8.6099999999999994

>  <m_primary>  (4) 
energy

>  <rmsd>  (4) 
7.142948544042743

>  <m_score__min__rmsd>  (4) 
7.142948544042743

>  <meeko>  (4) 
{"free_energy": -6.84, "intermolecular_energy": -8.33, "internal_energy": -3.02, "cluster_size": 14, "cluster_id": 6, "rank_in_cluster": 12}

>  <energy>  (4) 
-8.56

>  <cluster_rmsd>  (4) 
0.18

>  <cluster>  (4) 
1

$$$$

     RDKit          3D

 51 54  0  0  0  0  0  0  0  0999 V2000
  140.5560   77.7780  217.9410 O   0  0  0  0  0  0  0  0  0  0  0  0
  141.5130   77.5850  218.7120 C   0  0  0  0  0  0  0  0  0  0  0  0
  141.9070   78.6200  219.6390 N   0  0  0  0  0  0  0  0  0  0  0  0
  141.2690   79.8810  219.7500 C   0  0  0  0  0  0  0  0  0  0  0  0
  140.3990   80.2000  220.8670 C   0  0  0  0  0  0  0  0  0  0  0  0
  139.1860   80.5180  220.4890 O   0  0  0  0  0  0  0  0  0  0  0  0
  140.5980   80.2390  222.2420 N   0  0  0  0  0  0  0  0  0  0  0  0
  140.6650   81.4410  223.0890 C   0  0  0  0  0  0  0  0  0  0  0  0
  142.0120   81.5100  223.7520 C   0  0  0  0  0  0  0  0  0  0  0  0
  142.9100   80.3710  223.4220 C   0  0  0  0  0  0  0  0  0  0  0  0
  142.2580   79.0080  223.5050 C   0  0  0  0  0  0  0  0  0  0  0  0
  140.8280   79.0120  223.0570 C   0  0  2  0  0  0  0  0  0  0  0  0
  140.3140   77.7880  222.4940 C   0  0  0  0  0  0  0  0  0  0  0  0
  141.0360   76.6940  222.0770 C   0  0  0  0  0  0  0  0  0  0  0  0
  140.4650   75.5410  221.5840 C   0  0  0  0  0  0  0  0  0  0  0  0
  139.0940   75.4340  221.4860 C   0  0  0  0  0  0  0  0  0  0  0  0
  138.2880   74.0080  220.8720 Cl  0  0  0  0  0  0  0  0  0  0  0  0
  138.3440   76.5140  221.8950 C   0  0  0  0  0  0  0  0  0  0  0  0
  138.9180   77.6540  222.3830 C   0  0  0  0  0  0  0  0  0  0  0  0
  142.2510   76.3040  218.6880 C   0  0  0  0  0  0  0  0  0  0  0  0
  141.9710   75.4050  217.6820 C   0  0  0  0  0  0  0  0  0  0  0  0
  142.6950   74.2120  217.7060 C   0  0  0  0  0  0  0  0  0  0  0  0
  143.6360   73.9480  218.6780 C   0  0  0  0  0  0  0  0  0  0  0  0
  144.3660   72.7780  218.7260 C   0  0  0  0  0  0  0  0  0  0  0  0
  145.3120   72.5330  219.7180 C   0  0  0  0  0  0  0  0  0  0  0  0
  145.5110   73.5060  220.6770 C   0  0  0  0  0  0  0  0  0  0  0  0
  146.7000   73.2360  221.9520 Cl  0  0  0  0  0  0  0  0  0  0  0  0
  144.7980   74.7040  220.6710 C   0  0  0  0  0  0  0  0  0  0  0  0
  143.8740   74.8880  219.6620 C   0  0  0  0  0  0  0  0  0  0  0  0
  143.1690   76.0330  219.6260 N   0  0  0  0  0  0  0  0  0  0  0  0
  142.7290   78.3580  220.2440 H   0  0  0  0  0  0  0  0  0  0  0  0
  142.0710   80.6338  219.7578 H   0  0  0  0  0  0  0  0  0  0  0  0
  140.5665   79.8633  218.9037 H   0  0  0  0  0  0  0  0  0  0  0  0
  140.5154   82.3364  222.4679 H   0  0  0  0  0  0  0  0  0  0  0  0
  139.8793   81.3933  223.8574 H   0  0  0  0  0  0  0  0  0  0  0  0
  142.5050   82.4413  223.4366 H   0  0  0  0  0  0  0  0  0  0  0  0
  141.8342   81.4700  224.8368 H   0  0  0  0  0  0  0  0  0  0  0  0
  143.2797   80.5122  222.3956 H   0  0  0  0  0  0  0  0  0  0  0  0
  143.7116   80.3787  224.1752 H   0  0  0  0  0  0  0  0  0  0  0  0
  142.8223   78.3107  222.8684 H   0  0  0  0  0  0  0  0  0  0  0  0
  142.2697   78.7027  224.5617 H   0  0  0  0  0  0  0  0  0  0  0  0
  140.2006   79.0523  223.9597 H   0  0  0  0  0  0  0  0  0  0  0  0
  142.1331   76.7424  222.1408 H   0  0  0  0  0  0  0  0  0  0  0  0
  141.1046   74.7038  221.2678 H   0  0  0  0  0  0  0  0  0  0  0  0
  137.2476   76.4572  221.8267 H   0  0  0  0  0  0  0  0  0  0  0  0
  138.2725   78.4876  222.6968 H   0  0  0  0  0  0  0  0  0  0  0  0
  141.2208   75.6152  216.9055 H   0  0  0  0  0  0  0  0  0  0  0  0
  142.5090   73.4596  216.9255 H   0  0  0  0  0  0  0  0  0  0  0  0
  144.1948   72.0129  217.9544 H   0  0  0  0  0  0  0  0  0  0  0  0
  145.8832   71.5931  219.7370 H   0  0  0  0  0  0  0  0  0  0  0  0
  144.9651   75.4725  221.4401 H   0  0  0  0  0  0  0  0  0  0  0  0
  1  2  2  0
  2  3  1  0
  3  4  1  0
  4  5  1  0
  5  6  2  0
  5  7  1  0
  7  8  1  0
  8  9  1  0
  9 10  1  0
 10 11  1  0
 11 12  1  0
 12 13  1  0
 13 14  2  0
 14 15  1  0
 15 16  2  0
 16 17  1  0
 16 18  1  0
 18 19  2  0
  2 20  1  0
 20 21  2  0
 21 22  1  0
 22 23  2  0
 23 24  1  0
 24 25  2  0
 25 26  1  0
 26 27  1  0
 26 28  2  0
 28 29  1  0
 29 30  2  0
 12  7  1  0
 19 13  1  0
 30 20  1  0
 29 23  1  0
  3 31  1  0
  4 32  1  0
  4 33  1  0
  8 34  1  0
  8 35  1  0
  9 36  1  0
  9 37  1  0
 10 38  1  0
 10 39  1  0
 11 40  1  0
 11 41  1  0
 12 42  1  1
 14 43  1  0
 15 44  1  0
 18 45  1  0
 19 46  1  0
 21 47  1  0
 22 48  1  0
 24 49  1  0
 25 50  1  0
 28 51  1  0
M  END
>  <smiles>  (5) 
O=C(NCC(=O)N1CCCCC1c1ccc(Cl)cc1)c1ccc2ccc(Cl)cc2n1

>  <score_type>  (5) 
oracle

>  <origin>  (5) 
autodockgpu

>  <m_score__min__energy>  (5) 
-8.6099999999999994

>  <m_primary>  (5) 
energy

>  <rmsd>  (5) 
7.87023213034862

>  <m_score__min__rmsd>  (5) 
7.87023213034862

>  <meeko>  (5) 
{"free_energy": -7.27, "intermolecular_energy": -8.76, "internal_energy": -2.83, "cluster_size": 22, "cluster_id": 5, "rank_in_cluster": 13}

>  <energy>  (5) 
-8.53

>  <cluster_rmsd>  (5) 
0.37

>  <cluster>  (5) 
1

$$$$

     RDKit          3D

 51 54  0  0  0  0  0  0  0  0999 V2000
  139.0600   73.7110  221.1740 O   0  0  0  0  0  0  0  0  0  0  0  0
  139.9680   74.4640  221.5700 C   0  0  0  0  0  0  0  0  0  0  0  0
  141.3310   73.9880  221.6070 N   0  0  0  0  0  0  0  0  0  0  0  0
  141.7360   72.6880  221.2110 C   0  0  0  0  0  0  0  0  0  0  0  0
  142.4400   72.4560  219.9640 C   0  0  0  0  0  0  0  0  0  0  0  0
  141.7200   71.7950  219.0920 O   0  0  0  0  0  0  0  0  0  0  0  0
  143.7140   72.7870  219.5180 N   0  0  0  0  0  0  0  0  0  0  0  0
  144.7940   71.8530  219.1630 C   0  0  0  0  0  0  0  0  0  0  0  0
  145.9750   72.0890  220.0620 C   0  0  0  0  0  0  0  0  0  0  0  0
  145.7800   73.1910  221.0420 C   0  0  0  0  0  0  0  0  0  0  0  0
  145.1930   74.4580  220.4610 C   0  0  0  0  0  0  0  0  0  0  0  0
  144.1790   74.1980  219.3880 C   0  0  2  0  0  0  0  0  0  0  0  0
  143.1380   75.1810  219.2170 C   0  0  0  0  0  0  0  0  0  0  0  0
  141.9730   75.0450  218.5000 C   0  0  0  0  0  0  0  0  0  0  0  0
  141.0040   76.0230  218.4180 C   0  0  0  0  0  0  0  0  0  0  0  0
  141.1720   77.2200  219.0790 C   0  0  0  0  0  0  0  0  0  0  0  0
  139.9940   78.5130  219.0290 Cl  0  0  0  0  0  0  0  0  0  0  0  0
  142.3300   77.3860  219.8060 C   0  0  0  0  0  0  0  0  0  0  0  0
  143.2850   76.4120  219.8820 C   0  0  0  0  0  0  0  0  0  0  0  0
  139.6620   75.8430  222.0040 C   0  0  0  0  0  0  0  0  0  0  0  0
  138.3420   76.2320  222.0760 C   0  0  0  0  0  0  0  0  0  0  0  0
  138.1090   77.5430  222.4910 C   0  0  0  0  0  0  0  0  0  0  0  0
  139.1380   78.4020  222.8110 C   0  0  0  0  0  0  0  0  0  0  0  0
  138.9370   79.7030  223.2230 C   0  0  0  0  0  0  0  0  0  0  0  0
  139.9930   80.5530  223.5410 C   0  0  0  0  0  0  0  0  0  0  0  0
  141.2780   80.0580  223.4330 C   0  0  0  0  0  0  0  0  0  0  0  0
  142.6450   81.1010  223.8260 Cl  0  0  0  0  0  0  0  0  0  0  0  0
  141.5320   78.7510  223.0210 C   0  0  0  0  0  0  0  0  0  0  0  0
  140.4430   77.9570  222.7190 C   0  0  0  0  0  0  0  0  0  0  0  0
  140.6520   76.6910  222.3190 N   0  0  0  0  0  0  0  0  0  0  0  0
  142.0210   74.7010  221.9610 H   0  0  0  0  0  0  0  0  0  0  0  0
  142.3905   72.3108  222.0106 H   0  0  0  0  0  0  0  0  0  0  0  0
  140.7732   72.1865  221.0334 H   0  0  0  0  0  0  0  0  0  0  0  0
  144.4400   70.8189  219.2864 H   0  0  0  0  0  0  0  0  0  0  0  0
  145.0910   72.0161  218.1165 H   0  0  0  0  0  0  0  0  0  0  0  0
  146.1758   71.1622  220.6194 H   0  0  0  0  0  0  0  0  0  0  0  0
  146.8135   72.3845  219.4142 H   0  0  0  0  0  0  0  0  0  0  0  0
  145.1042   72.8313  221.8319 H   0  0  0  0  0  0  0  0  0  0  0  0
  146.7805   73.4552  221.4150 H   0  0  0  0  0  0  0  0  0  0  0  0
  144.7085   75.0229  221.2710 H   0  0  0  0  0  0  0  0  0  0  0  0
  146.0187   75.0218  220.0024 H   0  0  0  0  0  0  0  0  0  0  0  0
  144.6846   74.3267  218.4196 H   0  0  0  0  0  0  0  0  0  0  0  0
  141.8039   74.1015  217.9604 H   0  0  0  0  0  0  0  0  0  0  0  0
  140.0953   75.8469  217.8237 H   0  0  0  0  0  0  0  0  0  0  0  0
  142.4910   78.3328  220.3424 H   0  0  0  0  0  0  0  0  0  0  0  0
  144.1913   76.5948  220.4779 H   0  0  0  0  0  0  0  0  0  0  0  0
  137.5193   75.5478  221.8208 H   0  0  0  0  0  0  0  0  0  0  0  0
  137.0720   77.9024  222.5651 H   0  0  0  0  0  0  0  0  0  0  0  0
  137.9074   80.0819  223.3031 H   0  0  0  0  0  0  0  0  0  0  0  0
  139.8095   81.5871  223.8682 H   0  0  0  0  0  0  0  0  0  0  0  0
  142.5595   78.3669  222.9395 H   0  0  0  0  0  0  0  0  0  0  0  0
  1  2  2  0
  2  3  1  0
  3  4  1  0
  4  5  1  0
  5  6  2  0
  5  7  1  0
  7  8  1  0
  8  9  1  0
  9 10  1  0
 10 11  1  0
 11 12  1  0
 12 13  1  0
 13 14  2  0
 14 15  1  0
 15 16  2  0
 16 17  1  0
 16 18  1  0
 18 19  2  0
  2 20  1  0
 20 21  2  0
 21 22  1  0
 22 23  2  0
 23 24  1  0
 24 25  2  0
 25 26  1  0
 26 27  1  0
 26 28  2  0
 28 29  1  0
 29 30  2  0
 12  7  1  0
 19 13  1  0
 30 20  1  0
 29 23  1  0
  3 31  1  0
  4 32  1  0
  4 33  1  0
  8 34  1  0
  8 35  1  0
  9 36  1  0
  9 37  1  0
 10 38  1  0
 10 39  1  0
 11 40  1  0
 11 41  1  0
 12 42  1  6
 14 43  1  0
 15 44  1  0
 18 45  1  0
 19 46  1  0
 21 47  1  0
 22 48  1  0
 24 49  1  0
 25 50  1  0
 28 51  1  0
M  END
>  <smiles>  (6) 
O=C(NCC(=O)N1CCCCC1c1ccc(Cl)cc1)c1ccc2ccc(Cl)cc2n1

>  <score_type>  (6) 
oracle

>  <origin>  (6) 
autodockgpu

>  <m_score__min__energy>  (6) 
-8.6099999999999994

>  <m_primary>  (6) 
energy

>  <rmsd>  (6) 
7.08117313362047

>  <m_score__min__rmsd>  (6) 
7.08117313362047

>  <meeko>  (6) 
{"free_energy": -6.87, "intermolecular_energy": -8.36, "internal_energy": -3.16, "cluster_size": 14, "cluster_id": 6, "rank_in_cluster": 10}

>  <energy>  (6) 
-8.52

>  <cluster_rmsd>  (6) 
0.37

>  <cluster>  (6) 
1

$$$$

     RDKit          3D

 51 54  0  0  0  0  0  0  0  0999 V2000
  140.8850   79.5360  218.7530 O   0  0  0  0  0  0  0  0  0  0  0  0
  141.7350   78.9560  219.4520 C   0  0  0  0  0  0  0  0  0  0  0  0
  142.2010   79.5700  220.6730 N   0  0  0  0  0  0  0  0  0  0  0  0
  141.7520   80.8230  221.1610 C   0  0  0  0  0  0  0  0  0  0  0  0
  140.7610   80.9190  222.2160 C   0  0  0  0  0  0  0  0  0  0  0  0
  141.2970   81.0640  223.4020 O   0  0  0  0  0  0  0  0  0  0  0  0
  139.3710   80.8840  222.2180 N   0  0  0  0  0  0  0  0  0  0  0  0
  138.4600   82.0200  222.0080 C   0  0  0  0  0  0  0  0  0  0  0  0
  137.6060   82.2080  223.2310 C   0  0  0  0  0  0  0  0  0  0  0  0
  137.8630   81.2150  224.3090 C   0  0  0  0  0  0  0  0  0  0  0  0
  137.9500   79.7800  223.8380 C   0  0  0  0  0  0  0  0  0  0  0  0
  138.5990   79.6390  222.4950 C   0  0  2  0  0  0  0  0  0  0  0  0
  139.2960   78.4050  222.2300 C   0  0  0  0  0  0  0  0  0  0  0  0
  140.4730   77.9750  222.7960 C   0  0  0  0  0  0  0  0  0  0  0  0
  141.0580   76.7570  222.5180 C   0  0  0  0  0  0  0  0  0  0  0  0
  140.4610   75.8900  221.6280 C   0  0  0  0  0  0  0  0  0  0  0  0
  141.1340   74.3280  221.2180 Cl  0  0  0  0  0  0  0  0  0  0  0  0
  139.2810   76.2930  221.0440 C   0  0  0  0  0  0  0  0  0  0  0  0
  138.7080   77.5020  221.3250 C   0  0  0  0  0  0  0  0  0  0  0  0
  142.2720   77.6410  219.0420 C   0  0  0  0  0  0  0  0  0  0  0  0
  141.9100   77.1380  217.8110 C   0  0  0  0  0  0  0  0  0  0  0  0
  142.4450   75.8940  217.4740 C   0  0  0  0  0  0  0  0  0  0  0  0
  143.2860   75.2060  218.3220 C   0  0  0  0  0  0  0  0  0  0  0  0
  143.8280   73.9760  218.0150 C   0  0  0  0  0  0  0  0  0  0  0  0
  144.6760   73.2990  218.8880 C   0  0  0  0  0  0  0  0  0  0  0  0
  144.9710   73.8970  220.0970 C   0  0  0  0  0  0  0  0  0  0  0  0
  146.0420   73.0740  221.2320 Cl  0  0  0  0  0  0  0  0  0  0  0  0
  144.4480   75.1390  220.4520 C   0  0  0  0  0  0  0  0  0  0  0  0
  143.6130   75.7600  219.5450 C   0  0  0  0  0  0  0  0  0  0  0  0
  143.0910   76.9600  219.8560 N   0  0  0  0  0  0  0  0  0  0  0  0
  142.9220   78.9990  221.1880 H   0  0  0  0  0  0  0  0  0  0  0  0
  142.6452   81.3508  221.5265 H   0  0  0  0  0  0  0  0  0  0  0  0
  141.2122   81.2323  220.2944 H   0  0  0  0  0  0  0  0  0  0  0  0
  139.0470   82.9324  221.8264 H   0  0  0  0  0  0  0  0  0  0  0  0
  137.8171   81.8195  221.1382 H   0  0  0  0  0  0  0  0  0  0  0  0
  137.7968   83.2134  223.6346 H   0  0  0  0  0  0  0  0  0  0  0  0
  136.5620   82.0692  222.9137 H   0  0  0  0  0  0  0  0  0  0  0  0
  138.8153   81.4748  224.7944 H   0  0  0  0  0  0  0  0  0  0  0  0
  137.0017   81.2667  224.9913 H   0  0  0  0  0  0  0  0  0  0  0  0
  138.5354   79.2060  224.5714 H   0  0  0  0  0  0  0  0  0  0  0  0
  136.9208   79.4029  223.7454 H   0  0  0  0  0  0  0  0  0  0  0  0
  137.7960   79.5354  221.7504 H   0  0  0  0  0  0  0  0  0  0  0  0
  140.9773   78.6407  223.5119 H   0  0  0  0  0  0  0  0  0  0  0  0
  142.0025   76.4771  223.0074 H   0  0  0  0  0  0  0  0  0  0  0  0
  138.7838   75.6211  220.3289 H   0  0  0  0  0  0  0  0  0  0  0  0
  137.7638   77.7757  220.8314 H   0  0  0  0  0  0  0  0  0  0  0  0
  141.2383   77.6854  217.1334 H   0  0  0  0  0  0  0  0  0  0  0  0
  142.1876   75.4488  216.5016 H   0  0  0  0  0  0  0  0  0  0  0  0
  143.5823   73.5137  217.0476 H   0  0  0  0  0  0  0  0  0  0  0  0
  145.0977   72.3183  218.6226 H   0  0  0  0  0  0  0  0  0  0  0  0
  144.6912   75.6064  221.4176 H   0  0  0  0  0  0  0  0  0  0  0  0
  1  2  2  0
  2  3  1  0
  3  4  1  0
  4  5  1  0
  5  6  2  0
  5  7  1  0
  7  8  1  0
  8  9  1  0
  9 10  1  0
 10 11  1  0
 11 12  1  0
 12 13  1  0
 13 14  2  0
 14 15  1  0
 15 16  2  0
 16 17  1  0
 16 18  1  0
 18 19  2  0
  2 20  1  0
 20 21  2  0
 21 22  1  0
 22 23  2  0
 23 24  1  0
 24 25  2  0
 25 26  1  0
 26 27  1  0
 26 28  2  0
 28 29  1  0
 29 30  2  0
 12  7  1  0
 19 13  1  0
 30 20  1  0
 29 23  1  0
  3 31  1  0
  4 32  1  0
  4 33  1  0
  8 34  1  0
  8 35  1  0
  9 36  1  0
  9 37  1  0
 10 38  1  0
 10 39  1  0
 11 40  1  0
 11 41  1  0
 12 42  1  6
 14 43  1  0
 15 44  1  0
 18 45  1  0
 19 46  1  0
 21 47  1  0
 22 48  1  0
 24 49  1  0
 25 50  1  0
 28 51  1  0
M  END
>  <smiles>  (7) 
O=C(NCC(=O)N1CCCCC1c1ccc(Cl)cc1)c1ccc2ccc(Cl)cc2n1

>  <score_type>  (7) 
oracle

>  <origin>  (7) 
autodockgpu

>  <m_score__min__energy>  (7) 
-8.6099999999999994

>  <m_primary>  (7) 
energy

>  <rmsd>  (7) 
8.604017811714982

>  <m_score__min__rmsd>  (7) 
8.604017811714982

>  <meeko>  (7) 
{"free_energy": -6.62, "intermolecular_energy": -8.12, "internal_energy": -3.09, "cluster_size": 22, "cluster_id": 5, "rank_in_cluster": 22}

>  <energy>  (7) 
-8.41

>  <cluster_rmsd>  (7) 
0.27

>  <cluster>  (7) 
1

$$$$

     RDKit          3D

 51 54  0  0  0  0  0  0  0  0999 V2000
  140.7830   77.9890  217.6890 O   0  0  0  0  0  0  0  0  0  0  0  0
  141.6420   77.7570  218.5580 C   0  0  0  0  0  0  0  0  0  0  0  0
  141.8570   78.7070  219.6250 N   0  0  0  0  0  0  0  0  0  0  0  0
  141.1430   79.9220  219.7710 C   0  0  0  0  0  0  0  0  0  0  0  0
  140.3070   80.1810  220.9290 C   0  0  0  0  0  0  0  0  0  0  0  0
  139.0500   80.3700  220.6140 O   0  0  0  0  0  0  0  0  0  0  0  0
  140.5750   80.2730  222.2900 N   0  0  0  0  0  0  0  0  0  0  0  0
  140.7270   81.5070  223.0770 C   0  0  0  0  0  0  0  0  0  0  0  0
  142.1070   81.5530  223.6710 C   0  0  0  0  0  0  0  0  0  0  0  0
  142.9460   80.3670  223.3510 C   0  0  0  0  0  0  0  0  0  0  0  0
  142.2500   79.0350  223.5270 C   0  0  0  0  0  0  0  0  0  0  0  0
  140.8000   79.0740  223.1480 C   0  0  2  0  0  0  0  0  0  0  0  0
  140.2150   77.8480  222.6660 C   0  0  0  0  0  0  0  0  0  0  0  0
  138.8820   77.5120  222.6450 C   0  0  0  0  0  0  0  0  0  0  0  0
  138.3970   76.3300  222.1280 C   0  0  0  0  0  0  0  0  0  0  0  0
  139.2630   75.4020  221.5900 C   0  0  0  0  0  0  0  0  0  0  0  0
  138.7330   73.8780  220.9140 Cl  0  0  0  0  0  0  0  0  0  0  0  0
  140.6050   75.7100  221.5970 C   0  0  0  0  0  0  0  0  0  0  0  0
  141.0780   76.8850  222.1120 C   0  0  0  0  0  0  0  0  0  0  0  0
  142.4450   76.5170  218.5080 C   0  0  0  0  0  0  0  0  0  0  0  0
  142.3150   75.6940  217.4110 C   0  0  0  0  0  0  0  0  0  0  0  0
  143.0950   74.5380  217.4150 C   0  0  0  0  0  0  0  0  0  0  0  0
  143.9470   74.2340  218.4540 C   0  0  0  0  0  0  0  0  0  0  0  0
  144.7290   73.0980  218.4840 C   0  0  0  0  0  0  0  0  0  0  0  0
  145.5830   72.8120  219.5460 C   0  0  0  0  0  0  0  0  0  0  0  0
  145.6340   73.7080  220.5950 C   0  0  0  0  0  0  0  0  0  0  0  0
  146.7030   73.3850  221.9610 Cl  0  0  0  0  0  0  0  0  0  0  0  0
  144.8640   74.8700  220.6110 C   0  0  0  0  0  0  0  0  0  0  0  0
  144.0360   75.0970  219.5300 C   0  0  0  0  0  0  0  0  0  0  0  0
  143.2790   76.2090  219.5120 N   0  0  0  0  0  0  0  0  0  0  0  0
  142.6080   78.4180  220.3060 H   0  0  0  0  0  0  0  0  0  0  0  0
  141.8927   80.7265  219.7446 H   0  0  0  0  0  0  0  0  0  0  0  0
  140.4044   79.8587  218.9583 H   0  0  0  0  0  0  0  0  0  0  0  0
  140.5793   82.3796  222.4237 H   0  0  0  0  0  0  0  0  0  0  0  0
  139.9790   81.5232  223.8833 H   0  0  0  0  0  0  0  0  0  0  0  0
  142.6173   82.4500  223.2901 H   0  0  0  0  0  0  0  0  0  0  0  0
  141.9816   81.5672  224.7637 H   0  0  0  0  0  0  0  0  0  0  0  0
  143.2696   80.4488  222.3029 H   0  0  0  0  0  0  0  0  0  0  0  0
  143.7835   80.3769  224.0641 H   0  0  0  0  0  0  0  0  0  0  0  0
  142.7566   78.2894  222.8966 H   0  0  0  0  0  0  0  0  0  0  0  0
  142.3029   78.7761  224.5948 H   0  0  0  0  0  0  0  0  0  0  0  0
  140.2197   79.1767  224.0768 H   0  0  0  0  0  0  0  0  0  0  0  0
  138.1606   78.2282  223.0653 H   0  0  0  0  0  0  0  0  0  0  0  0
  137.3161   76.1266  222.1447 H   0  0  0  0  0  0  0  0  0  0  0  0
  141.3193   74.9878  221.1749 H   0  0  0  0  0  0  0  0  0  0  0  0
  142.1600   77.0822  222.0926 H   0  0  0  0  0  0  0  0  0  0  0  0
  141.6354   75.9347  216.5802 H   0  0  0  0  0  0  0  0  0  0  0  0
  143.0278   73.8471  216.5616 H   0  0  0  0  0  0  0  0  0  0  0  0
  144.6762   72.3942  217.6403 H   0  0  0  0  0  0  0  0  0  0  0  0
  146.1981   71.9001  219.5490 H   0  0  0  0  0  0  0  0  0  0  0  0
  144.9142   75.5778  221.4515 H   0  0  0  0  0  0  0  0  0  0  0  0
  1  2  2  0
  2  3  1  0
  3  4  1  0
  4  5  1  0
  5  6  2  0
  5  7  1  0
  7  8  1  0
  8  9  1  0
  9 10  1  0
 10 11  1  0
 11 12  1  0
 12 13  1  0
 13 14  2  0
 14 15  1  0
 15 16  2  0
 16 17  1  0
 16 18  1  0
 18 19  2  0
  2 20  1  0
 20 21  2  0
 21 22  1  0
 22 23  2  0
 23 24  1  0
 24 25  2  0
 25 26  1  0
 26 27  1  0
 26 28  2  0
 28 29  1  0
 29 30  2  0
 12  7  1  0
 19 13  1  0
 30 20  1  0
 29 23  1  0
  3 31  1  0
  4 32  1  0
  4 33  1  0
  8 34  1  0
  8 35  1  0
  9 36  1  0
  9 37  1  0
 10 38  1  0
 10 39  1  0
 11 40  1  0
 11 41  1  0
 12 42  1  1
 14 43  1  0
 15 44  1  0
 18 45  1  0
 19 46  1  0
 21 47  1  0
 22 48  1  0
 24 49  1  0
 25 50  1  0
 28 51  1  0
M  END
>  <smiles>  (8) 
O=C(NCC(=O)N1CCCCC1c1ccc(Cl)cc1)c1ccc2ccc(Cl)cc2n1

>  <score_type>  (8) 
oracle

>  <origin>  (8) 
autodockgpu

>  <m_score__min__energy>  (8) 
-8.6099999999999994

>  <m_primary>  (8) 
energy

>  <rmsd>  (8) 
8.072062499517303

>  <m_score__min__rmsd>  (8) 
8.072062499517303

>  <meeko>  (8) 
{"free_energy": -7.47, "intermolecular_energy": -8.96, "internal_energy": -2.72, "cluster_size": 22, "cluster_id": 5, "rank_in_cluster": 1}

>  <energy>  (8) 
-8.25

>  <cluster_rmsd>  (8) 
0.41

>  <cluster>  (8) 
1

$$$$

     RDKit          3D

 51 54  0  0  0  0  0  0  0  0999 V2000
  140.7240   71.2930  221.4780 O   0  0  0  0  0  0  0  0  0  0  0  0
  140.5660   72.3350  222.1390 C   0  0  0  0  0  0  0  0  0  0  0  0
  140.0660   72.2590  223.4920 N   0  0  0  0  0  0  0  0  0  0  0  0
  139.7310   71.0520  224.1540 C   0  0  0  0  0  0  0  0  0  0  0  0
  140.0740   70.8260  225.5460 C   0  0  0  0  0  0  0  0  0  0  0  0
  140.9370   71.6980  226.0030 O   0  0  0  0  0  0  0  0  0  0  0  0
  139.6770   69.8740  226.4780 N   0  0  0  0  0  0  0  0  0  0  0  0
  139.9120   69.9100  227.9300 C   0  0  0  0  0  0  0  0  0  0  0  0
  140.7340   68.7180  228.3320 C   0  0  0  0  0  0  0  0  0  0  0  0
  141.0760   67.8080  227.2060 C   0  0  0  0  0  0  0  0  0  0  0  0
  139.9180   67.4710  226.2930 C   0  0  0  0  0  0  0  0  0  0  0  0
  138.9720   68.6170  226.0940 C   0  0  2  0  0  0  0  0  0  0  0  0
  138.2550   68.6650  224.8440 C   0  0  0  0  0  0  0  0  0  0  0  0
  137.0690   69.3120  224.5880 C   0  0  0  0  0  0  0  0  0  0  0  0
  136.4640   69.3440  223.3500 C   0  0  0  0  0  0  0  0  0  0  0  0
  137.0480   68.7050  222.2780 C   0  0  0  0  0  0  0  0  0  0  0  0
  136.3490   68.6950  220.6730 Cl  0  0  0  0  0  0  0  0  0  0  0  0
  138.2370   68.0460  222.5030 C   0  0  0  0  0  0  0  0  0  0  0  0
  138.8290   68.0200  223.7340 C   0  0  0  0  0  0  0  0  0  0  0  0
  140.8860   73.6530  221.5500 C   0  0  0  0  0  0  0  0  0  0  0  0
  141.3930   73.6940  220.2690 C   0  0  0  0  0  0  0  0  0  0  0  0
  141.6780   74.9620  219.7620 C   0  0  0  0  0  0  0  0  0  0  0  0
  141.4660   76.1080  220.4970 C   0  0  0  0  0  0  0  0  0  0  0  0
  141.7390   77.3740  220.0200 C   0  0  0  0  0  0  0  0  0  0  0  0
  141.5160   78.5180  220.7820 C   0  0  0  0  0  0  0  0  0  0  0  0
  141.0050   78.3590  222.0540 C   0  0  0  0  0  0  0  0  0  0  0  0
  140.7080   79.7830  223.0530 Cl  0  0  0  0  0  0  0  0  0  0  0  0
  140.7130   77.1010  222.5800 C   0  0  0  0  0  0  0  0  0  0  0  0
  140.9560   76.0050  221.7770 C   0  0  0  0  0  0  0  0  0  0  0  0
  140.6850   74.7770  222.2530 N   0  0  0  0  0  0  0  0  0  0  0  0
  139.9650   73.1970  223.9610 H   0  0  0  0  0  0  0  0  0  0  0  0
  138.6375   70.9542  224.0849 H   0  0  0  0  0  0  0  0  0  0  0  0
  140.3625   70.3163  223.6343 H   0  0  0  0  0  0  0  0  0  0  0  0
  140.4508   70.8326  228.1918 H   0  0  0  0  0  0  0  0  0  0  0  0
  138.9479   69.8869  228.4590 H   0  0  0  0  0  0  0  0  0  0  0  0
  141.6710   69.0800  228.7804 H   0  0  0  0  0  0  0  0  0  0  0  0
  140.1231   68.1347  229.0367 H   0  0  0  0  0  0  0  0  0  0  0  0
  141.8598   68.2890  226.6024 H   0  0  0  0  0  0  0  0  0  0  0  0
  141.4007   66.8600  227.6597 H   0  0  0  0  0  0  0  0  0  0  0  0
  140.3199   67.1748  225.3128 H   0  0  0  0  0  0  0  0  0  0  0  0
  139.3513   66.6573  226.7693 H   0  0  0  0  0  0  0  0  0  0  0  0
  138.1162   68.4593  226.7669 H   0  0  0  0  0  0  0  0  0  0  0  0
  136.5741   69.8346  225.4199 H   0  0  0  0  0  0  0  0  0  0  0  0
  135.5130   69.8808  223.2175 H   0  0  0  0  0  0  0  0  0  0  0  0
  138.7245   67.5249  221.6659 H   0  0  0  0  0  0  0  0  0  0  0  0
  139.7793   67.4805  223.8602 H   0  0  0  0  0  0  0  0  0  0  0  0
  141.5630   72.7802  219.6807 H   0  0  0  0  0  0  0  0  0  0  0  0
  142.0846   75.0497  218.7437 H   0  0  0  0  0  0  0  0  0  0  0  0
  142.1463   77.4830  219.0040 H   0  0  0  0  0  0  0  0  0  0  0  0
  141.7403   79.5179  220.3822 H   0  0  0  0  0  0  0  0  0  0  0  0
  140.3050   76.9866  223.5951 H   0  0  0  0  0  0  0  0  0  0  0  0
  1  2  2  0
  2  3  1  0
  3  4  1  0
  4  5  1  0
  5  6  2  0
  5  7  1  0
  7  8  1  0
  8  9  1  0
  9 10  1  0
 10 11  1  0
 11 12  1  0
 12 13  1  0
 13 14  2  0
 14 15  1  0
 15 16  2  0
 16 17  1  0
 16 18  1  0
 18 19  2  0
  2 20  1  0
 20 21  2  0
 21 22  1  0
 22 23  2  0
 23 24  1  0
 24 25  2  0
 25 26  1  0
 26 27  1  0
 26 28  2  0
 28 29  1  0
 29 30  2  0
 12  7  1  0
 19 13  1  0
 30 20  1  0
 29 23  1  0
  3 31  1  0
  4 32  1  0
  4 33  1  0
  8 34  1  0
  8 35  1  0
  9 36  1  0
  9 37  1  0
 10 38  1  0
 10 39  1  0
 11 40  1  0
 11 41  1  0
 12 42  1  1
 14 43  1  0
 15 44  1  0
 18 45  1  0
 19 46  1  0
 21 47  1  0
 22 48  1  0
 24 49  1  0
 25 50  1  0
 28 51  1  0
M  END
>  <smiles>  (9) 
O=C(NCC(=O)N1CCCCC1c1ccc(Cl)cc1)c1ccc2ccc(Cl)cc2n1

>  <score_type>  (9) 
oracle

>  <origin>  (9) 
autodockgpu

>  <m_score__min__energy>  (9) 
-8.6099999999999994

>  <m_primary>  (9) 
energy

>  <rmsd>  (9) 
9.001776706397598

>  <m_score__min__rmsd>  (9) 
9.001776706397598

>  <meeko>  (9) 
{"free_energy": -8.56, "intermolecular_energy": -10.05, "internal_energy": -1.68, "cluster_size": 8, "cluster_id": 1, "rank_in_cluster": 4}

>  <energy>  (9) 
-8.55

>  <cluster_rmsd>  (9) 
0.0

>  <cluster>  (9) 
2

$$$$

     RDKit          3D

 51 54  0  0  0  0  0  0  0  0999 V2000
  140.8700   71.2800  221.4580 O   0  0  0  0  0  0  0  0  0  0  0  0
  140.6620   72.3310  222.0900 C   0  0  0  0  0  0  0  0  0  0  0  0
  140.0860   72.2700  223.4130 N   0  0  0  0  0  0  0  0  0  0  0  0
  139.7290   71.0700  224.0770 C   0  0  0  0  0  0  0  0  0  0  0  0
  140.1590   70.7920  225.4340 C   0  0  0  0  0  0  0  0  0  0  0  0
  141.1440   71.5640  225.8210 O   0  0  0  0  0  0  0  0  0  0  0  0
  139.7420   69.8750  226.3920 N   0  0  0  0  0  0  0  0  0  0  0  0
  139.9230   69.9780  227.8490 C   0  0  0  0  0  0  0  0  0  0  0  0
  140.7480   68.8190  228.3330 C   0  0  0  0  0  0  0  0  0  0  0  0
  141.1460   67.8680  227.2620 C   0  0  0  0  0  0  0  0  0  0  0  0
  140.0280   67.4710  226.3220 C   0  0  0  0  0  0  0  0  0  0  0  0
  139.0730   68.5900  226.0390 C   0  0  2  0  0  0  0  0  0  0  0  0
  138.4020   68.5710  224.7630 C   0  0  0  0  0  0  0  0  0  0  0  0
  138.8270   67.9620  223.6060 C   0  0  0  0  0  0  0  0  0  0  0  0
  138.1050   67.9560  222.4310 C   0  0  0  0  0  0  0  0  0  0  0  0
  136.8800   68.5840  222.3690 C   0  0  0  0  0  0  0  0  0  0  0  0
  135.8990   68.6250  220.9210 Cl  0  0  0  0  0  0  0  0  0  0  0  0
  136.4270   69.2050  223.5120 C   0  0  0  0  0  0  0  0  0  0  0  0
  137.1500   69.2060  224.6720 C   0  0  0  0  0  0  0  0  0  0  0  0
  141.0000   73.6420  221.4970 C   0  0  0  0  0  0  0  0  0  0  0  0
  141.5650   73.6690  220.2410 C   0  0  0  0  0  0  0  0  0  0  0  0
  141.8640   74.9320  219.7290 C   0  0  0  0  0  0  0  0  0  0  0  0
  141.6100   76.0870  220.4370 C   0  0  0  0  0  0  0  0  0  0  0  0
  141.8960   77.3470  219.9550 C   0  0  0  0  0  0  0  0  0  0  0  0
  141.6300   78.5000  220.6890 C   0  0  0  0  0  0  0  0  0  0  0  0
  141.0610   78.3560  221.9390 C   0  0  0  0  0  0  0  0  0  0  0  0
  140.7080   79.7910  222.9020 Cl  0  0  0  0  0  0  0  0  0  0  0  0
  140.7550   77.1030  222.4690 C   0  0  0  0  0  0  0  0  0  0  0  0
  141.0420   75.9980  221.6930 C   0  0  0  0  0  0  0  0  0  0  0  0
  140.7580   74.7740  222.1740 N   0  0  0  0  0  0  0  0  0  0  0  0
  139.9480   73.2150  223.8600 H   0  0  0  0  0  0  0  0  0  0  0  0
  138.6295   71.0383  224.0884 H   0  0  0  0  0  0  0  0  0  0  0  0
  140.2758   70.3110  223.4983 H   0  0  0  0  0  0  0  0  0  0  0  0
  140.4374   70.9202  228.0892 H   0  0  0  0  0  0  0  0  0  0  0  0
  138.9404   69.9612  228.3433 H   0  0  0  0  0  0  0  0  0  0  0  0
  141.6617   69.2162  228.7993 H   0  0  0  0  0  0  0  0  0  0  0  0
  140.1205   68.2562  229.0397 H   0  0  0  0  0  0  0  0  0  0  0  0
  141.9440   68.3362  226.6670 H   0  0  0  0  0  0  0  0  0  0  0  0
  141.4683   66.9463  227.7686 H   0  0  0  0  0  0  0  0  0  0  0  0
  140.4710   67.1399  225.3712 H   0  0  0  0  0  0  0  0  0  0  0  0
  139.4570   66.6685  226.8119 H   0  0  0  0  0  0  0  0  0  0  0  0
  138.1963   68.4464  226.6877 H   0  0  0  0  0  0  0  0  0  0  0  0
  139.8002   67.4494  223.6182 H   0  0  0  0  0  0  0  0  0  0  0  0
  138.5077   67.4490  221.5417 H   0  0  0  0  0  0  0  0  0  0  0  0
  135.4531   69.7160  223.4906 H   0  0  0  0  0  0  0  0  0  0  0  0
  136.7424   69.7164  225.5571 H   0  0  0  0  0  0  0  0  0  0  0  0
  141.7686   72.7483  219.6746 H   0  0  0  0  0  0  0  0  0  0  0  0
  142.3165   75.0083  218.7293 H   0  0  0  0  0  0  0  0  0  0  0  0
  142.3493   77.4445  218.9575 H   0  0  0  0  0  0  0  0  0  0  0  0
  141.8660   79.4956  220.2853 H   0  0  0  0  0  0  0  0  0  0  0  0
  140.3027   76.9992  223.4663 H   0  0  0  0  0  0  0  0  0  0  0  0
  1  2  2  0
  2  3  1  0
  3  4  1  0
  4  5  1  0
  5  6  2  0
  5  7  1  0
  7  8  1  0
  8  9  1  0
  9 10  1  0
 10 11  1  0
 11 12  1  0
 12 13  1  0
 13 14  2  0
 14 15  1  0
 15 16  2  0
 16 17  1  0
 16 18  1  0
 18 19  2  0
  2 20  1  0
 20 21  2  0
 21 22  1  0
 22 23  2  0
 23 24  1  0
 24 25  2  0
 25 26  1  0
 26 27  1  0
 26 28  2  0
 28 29  1  0
 29 30  2  0
 12  7  1  0
 19 13  1  0
 30 20  1  0
 29 23  1  0
  3 31  1  0
  4 32  1  0
  4 33  1  0
  8 34  1  0
  8 35  1  0
  9 36  1  0
  9 37  1  0
 10 38  1  0
 10 39  1  0
 11 40  1  0
 11 41  1  0
 12 42  1  1
 14 43  1  0
 15 44  1  0
 18 45  1  0
 19 46  1  0
 21 47  1  0
 22 48  1  0
 24 49  1  0
 25 50  1  0
 28 51  1  0
M  END
>  <smiles>  (10) 
O=C(NCC(=O)N1CCCCC1c1ccc(Cl)cc1)c1ccc2ccc(Cl)cc2n1

>  <score_type>  (10) 
oracle

>  <origin>  (10) 
autodockgpu

>  <m_score__min__energy>  (10) 
-8.6099999999999994

>  <m_primary>  (10) 
energy

>  <rmsd>  (10) 
9.000028054373928

>  <m_score__min__rmsd>  (10) 
9.000028054373928

>  <meeko>  (10) 
{"free_energy": -8.61, "intermolecular_energy": -10.1, "internal_energy": -1.63, "cluster_size": 8, "cluster_id": 1, "rank_in_cluster": 1}

>  <energy>  (10) 
-7.62

>  <cluster_rmsd>  (10) 
1.93

>  <cluster>  (10) 
2

$$$$

     RDKit          3D

 51 54  0  0  0  0  0  0  0  0999 V2000
  140.6230   77.7630  218.0570 O   0  0  0  0  0  0  0  0  0  0  0  0
  141.6160   77.5600  218.7780 C   0  0  0  0  0  0  0  0  0  0  0  0
  142.0820   78.5990  219.6660 N   0  0  0  0  0  0  0  0  0  0  0  0
  141.4780   79.8750  219.7920 C   0  0  0  0  0  0  0  0  0  0  0  0
  140.5210   80.1650  220.8430 C   0  0  0  0  0  0  0  0  0  0  0  0
  139.3090   80.3560  220.3860 O   0  0  0  0  0  0  0  0  0  0  0  0
  140.6360   80.2840  222.2240 N   0  0  0  0  0  0  0  0  0  0  0  0
  140.7260   81.5340  222.9960 C   0  0  0  0  0  0  0  0  0  0  0  0
  142.0310   81.5660  223.7420 C   0  0  0  0  0  0  0  0  0  0  0  0
  142.8730   80.3560  223.5440 C   0  0  0  0  0  0  0  0  0  0  0  0
  142.1320   79.0430  223.6690 C   0  0  0  0  0  0  0  0  0  0  0  0
  140.7350   79.1030  223.1280 C   0  0  2  0  0  0  0  0  0  0  0  0
  140.1810   77.8770  222.6100 C   0  0  0  0  0  0  0  0  0  0  0  0
  138.8570   77.6020  222.3580 C   0  0  0  0  0  0  0  0  0  0  0  0
  138.4090   76.4130  221.8220 C   0  0  0  0  0  0  0  0  0  0  0  0
  139.3050   75.4160  221.5030 C   0  0  0  0  0  0  0  0  0  0  0  0
  138.8230   73.8790  220.8200 Cl  0  0  0  0  0  0  0  0  0  0  0  0
  140.6390   75.6620  221.7450 C   0  0  0  0  0  0  0  0  0  0  0  0
  141.0740   76.8430  222.2770 C   0  0  0  0  0  0  0  0  0  0  0  0
  142.3230   76.2630  218.7320 C   0  0  0  0  0  0  0  0  0  0  0  0
  142.0220   75.3860  217.7130 C   0  0  0  0  0  0  0  0  0  0  0  0
  142.7180   74.1770  217.7170 C   0  0  0  0  0  0  0  0  0  0  0  0
  143.6530   73.8750  218.6840 C   0  0  0  0  0  0  0  0  0  0  0  0
  144.3550   72.6880  218.7130 C   0  0  0  0  0  0  0  0  0  0  0  0
  145.2960   72.4050  219.7000 C   0  0  0  0  0  0  0  0  0  0  0  0
  145.5180   73.3580  220.6740 C   0  0  0  0  0  0  0  0  0  0  0  0
  146.7010   73.0400  221.9440 Cl  0  0  0  0  0  0  0  0  0  0  0  0
  144.8340   74.5720  220.6880 C   0  0  0  0  0  0  0  0  0  0  0  0
  143.9140   74.7940  219.6830 C   0  0  0  0  0  0  0  0  0  0  0  0
  143.2360   75.9550  219.6650 N   0  0  0  0  0  0  0  0  0  0  0  0
  142.9310   78.3270  220.2290 H   0  0  0  0  0  0  0  0  0  0  0  0
  142.3000   80.5956  219.9147 H   0  0  0  0  0  0  0  0  0  0  0  0
  140.8555   79.9299  218.8868 H   0  0  0  0  0  0  0  0  0  0  0  0
  140.6734   82.3932  222.3111 H   0  0  0  0  0  0  0  0  0  0  0  0
  139.8919   81.5855  223.7113 H   0  0  0  0  0  0  0  0  0  0  0  0
  142.6015   82.4432  223.4028 H   0  0  0  0  0  0  0  0  0  0  0  0
  141.7834   81.6086  224.8129 H   0  0  0  0  0  0  0  0  0  0  0  0
  143.3138   80.4062  222.5374 H   0  0  0  0  0  0  0  0  0  0  0  0
  143.6250   80.3660  224.3467 H   0  0  0  0  0  0  0  0  0  0  0  0
  142.6890   78.2725  223.1158 H   0  0  0  0  0  0  0  0  0  0  0  0
  142.0590   78.8080  224.7411 H   0  0  0  0  0  0  0  0  0  0  0  0
  140.0558   79.2415  223.9821 H   0  0  0  0  0  0  0  0  0  0  0  0
  138.1124   78.3753  222.5979 H   0  0  0  0  0  0  0  0  0  0  0  0
  137.3336   76.2601  221.6487 H   0  0  0  0  0  0  0  0  0  0  0  0
  141.3769   74.8832  221.5023 H   0  0  0  0  0  0  0  0  0  0  0  0
  142.1506   76.9887  222.4492 H   0  0  0  0  0  0  0  0  0  0  0  0
  141.2760   75.6253  216.9409 H   0  0  0  0  0  0  0  0  0  0  0  0
  142.5145   73.4421  216.9242 H   0  0  0  0  0  0  0  0  0  0  0  0
  144.1651   71.9393  217.9298 H   0  0  0  0  0  0  0  0  0  0  0  0
  145.8452   71.4519  219.7034 H   0  0  0  0  0  0  0  0  0  0  0  0
  145.0198   75.3238  221.4692 H   0  0  0  0  0  0  0  0  0  0  0  0
  1  2  2  0
  2  3  1  0
  3  4  1  0
  4  5  1  0
  5  6  2  0
  5  7  1  0
  7  8  1  0
  8  9  1  0
  9 10  1  0
 10 11  1  0
 11 12  1  0
 12 13  1  0
 13 14  2  0
 14 15  1  0
 15 16  2  0
 16 17  1  0
 16 18  1  0
 18 19  2  0
  2 20  1  0
 20 21  2  0
 21 22  1  0
 22 23  2  0
 23 24  1  0
 24 25  2  0
 25 26  1  0
 26 27  1  0
 26 28  2  0
 28 29  1  0
 29 30  2  0
 12  7  1  0
 19 13  1  0
 30 20  1  0
 29 23  1  0
  3 31  1  0
  4 32  1  0
  4 33  1  0
  8 34  1  0
  8 35  1  0
  9 36  1  0
  9 37  1  0
 10 38  1  0
 10 39  1  0
 11 40  1  0
 11 41  1  0
 12 42  1  1
 14 43  1  0
 15 44  1  0
 18 45  1  0
 19 46  1  0
 21 47  1  0
 22 48  1  0
 24 49  1  0
 25 50  1  0
 28 51  1  0
M  END
>  <smiles>  (11) 
O=C(NCC(=O)N1CCCCC1c1ccc(Cl)cc1)c1ccc2ccc(Cl)cc2n1

>  <score_type>  (11) 
oracle

>  <origin>  (11) 
autodockgpu

>  <m_score__min__energy>  (11) 
-8.6099999999999994

>  <m_primary>  (11) 
energy

>  <rmsd>  (11) 
7.887125722699528

>  <m_score__min__rmsd>  (11) 
7.887125722699528

>  <meeko>  (11) 
{"free_energy": -7.3, "intermolecular_energy": -8.79, "internal_energy": -2.88, "cluster_size": 22, "cluster_id": 5, "rank_in_cluster": 12}

>  <energy>  (11) 
-7.8

>  <cluster_rmsd>  (11) 
0.0

>  <cluster>  (11) 
3

$$$$

     RDKit          3D

 51 54  0  0  0  0  0  0  0  0999 V2000
  140.7040   73.6730  222.1390 O   0  0  0  0  0  0  0  0  0  0  0  0
  140.4300   74.6230  221.3840 C   0  0  0  0  0  0  0  0  0  0  0  0
  140.5160   74.4500  219.9530 N   0  0  0  0  0  0  0  0  0  0  0  0
  140.8960   73.2430  219.3140 C   0  0  0  0  0  0  0  0  0  0  0  0
  142.0260   73.1830  218.4070 C   0  0  0  0  0  0  0  0  0  0  0  0
  141.6650   73.0480  217.1550 O   0  0  0  0  0  0  0  0  0  0  0  0
  143.4020   73.2360  218.6010 N   0  0  0  0  0  0  0  0  0  0  0  0
  144.3660   72.1480  218.3740 C   0  0  0  0  0  0  0  0  0  0  0  0
  145.0560   71.8140  219.6670 C   0  0  0  0  0  0  0  0  0  0  0  0
  144.6280   72.6550  220.8180 C   0  0  0  0  0  0  0  0  0  0  0  0
  144.5620   74.1380  220.5260 C   0  0  0  0  0  0  0  0  0  0  0  0
  144.0930   74.4440  219.1360 C   0  0  2  0  0  0  0  0  0  0  0  0
  143.4010   75.6930  218.9380 C   0  0  0  0  0  0  0  0  0  0  0  0
  142.8210   76.4860  219.9010 C   0  0  0  0  0  0  0  0  0  0  0  0
  142.2090   77.6930  219.6340 C   0  0  0  0  0  0  0  0  0  0  0  0
  142.1530   78.1700  218.3420 C   0  0  0  0  0  0  0  0  0  0  0  0
  141.3970   79.6890  217.9160 Cl  0  0  0  0  0  0  0  0  0  0  0  0
  142.7250   77.3970  217.3560 C   0  0  0  0  0  0  0  0  0  0  0  0
  143.3290   76.2020  217.6290 C   0  0  0  0  0  0  0  0  0  0  0  0
  140.0170   75.9290  221.9400 C   0  0  0  0  0  0  0  0  0  0  0  0
  138.6710   76.1830  222.0910 C   0  0  0  0  0  0  0  0  0  0  0  0
  138.3370   77.4300  222.6200 C   0  0  0  0  0  0  0  0  0  0  0  0
  139.2950   78.3560  222.9720 C   0  0  0  0  0  0  0  0  0  0  0  0
  138.9930   79.5950  223.4960 C   0  0  0  0  0  0  0  0  0  0  0  0
  139.9790   80.5150  223.8440 C   0  0  0  0  0  0  0  0  0  0  0  0
  141.2980   80.1540  223.6500 C   0  0  0  0  0  0  0  0  0  0  0  0
  142.5790   81.2900  224.0770 Cl  0  0  0  0  0  0  0  0  0  0  0  0
  141.6530   78.9140  223.1230 C   0  0  0  0  0  0  0  0  0  0  0  0
  140.6300   78.0460  222.7970 C   0  0  0  0  0  0  0  0  0  0  0  0
  140.9380   76.8400  222.2870 N   0  0  0  0  0  0  0  0  0  0  0  0
  140.2670   75.3150  219.4040 H   0  0  0  0  0  0  0  0  0  0  0  0
  141.1052   72.5207  220.1168 H   0  0  0  0  0  0  0  0  0  0  0  0
  140.0459   73.0570  218.6411 H   0  0  0  0  0  0  0  0  0  0  0  0
  143.8354   71.2595  218.0010 H   0  0  0  0  0  0  0  0  0  0  0  0
  145.1120   72.4673  217.6314 H   0  0  0  0  0  0  0  0  0  0  0  0
  144.8445   70.7622  219.9100 H   0  0  0  0  0  0  0  0  0  0  0  0
  146.1281   72.0069  219.5140 H   0  0  0  0  0  0  0  0  0  0  0  0
  143.6276   72.3226  221.1322 H   0  0  0  0  0  0  0  0  0  0  0  0
  145.3917   72.5253  221.5990 H   0  0  0  0  0  0  0  0  0  0  0  0
  143.8677   74.6047  221.2403 H   0  0  0  0  0  0  0  0  0  0  0  0
  145.5826   74.5367  220.6226 H   0  0  0  0  0  0  0  0  0  0  0  0
  144.9843   74.6532  218.5262 H   0  0  0  0  0  0  0  0  0  0  0  0
  142.8468   76.1375  220.9440 H   0  0  0  0  0  0  0  0  0  0  0  0
  141.7646   78.2762  220.4540 H   0  0  0  0  0  0  0  0  0  0  0  0
  142.6947   77.7529  216.3156 H   0  0  0  0  0  0  0  0  0  0  0  0
  143.7701   75.6235  216.8039 H   0  0  0  0  0  0  0  0  0  0  0  0
  137.9045   75.4455  221.8108 H   0  0  0  0  0  0  0  0  0  0  0  0
  137.2755   77.6820  222.7605 H   0  0  0  0  0  0  0  0  0  0  0  0
  137.9373   79.8661  223.6443 H   0  0  0  0  0  0  0  0  0  0  0  0
  139.7155   81.4985  224.2604 H   0  0  0  0  0  0  0  0  0  0  0  0
  142.7070   78.6374  222.9726 H   0  0  0  0  0  0  0  0  0  0  0  0
  1  2  2  0
  2  3  1  0
  3  4  1  0
  4  5  1  0
  5  6  2  0
  5  7  1  0
  7  8  1  0
  8  9  1  0
  9 10  1  0
 10 11  1  0
 11 12  1  0
 12 13  1  0
 13 14  2  0
 14 15  1  0
 15 16  2  0
 16 17  1  0
 16 18  1  0
 18 19  2  0
  2 20  1  0
 20 21  2  0
 21 22  1  0
 22 23  2  0
 23 24  1  0
 24 25  2  0
 25 26  1  0
 26 27  1  0
 26 28  2  0
 28 29  1  0
 29 30  2  0
 12  7  1  0
 19 13  1  0
 30 20  1  0
 29 23  1  0
  3 31  1  0
  4 32  1  0
  4 33  1  0
  8 34  1  0
  8 35  1  0
  9 36  1  0
  9 37  1  0
 10 38  1  0
 10 39  1  0
 11 40  1  0
 11 41  1  0
 12 42  1  6
 14 43  1  0
 15 44  1  0
 18 45  1  0
 19 46  1  0
 21 47  1  0
 22 48  1  0
 24 49  1  0
 25 50  1  0
 28 51  1  0
M  END
>  <smiles>  (12) 
O=C(NCC(=O)N1CCCCC1c1ccc(Cl)cc1)c1ccc2ccc(Cl)cc2n1

>  <score_type>  (12) 
oracle

>  <origin>  (12) 
autodockgpu

>  <m_score__min__energy>  (12) 
-8.6099999999999994

>  <m_primary>  (12) 
energy

>  <rmsd>  (12) 
6.940776306238446

>  <m_score__min__rmsd>  (12) 
6.940776306238446

>  <meeko>  (12) 
{"free_energy": -7.43, "intermolecular_energy": -8.92, "internal_energy": -2.46, "cluster_size": 14, "cluster_id": 6, "rank_in_cluster": 2}

>  <energy>  (12) 
-7.77

>  <cluster_rmsd>  (12) 
0.0

>  <cluster>  (12) 
4

$$$$

     RDKit          3D

 51 54  0  0  0  0  0  0  0  0999 V2000
  140.3520   77.6220  218.2820 O   0  0  0  0  0  0  0  0  0  0  0  0
  141.4490   77.5290  218.8610 C   0  0  0  0  0  0  0  0  0  0  0  0
  141.9550   78.6470  219.6230 N   0  0  0  0  0  0  0  0  0  0  0  0
  141.2790   79.8830  219.7760 C   0  0  0  0  0  0  0  0  0  0  0  0
  140.3650   80.1220  220.8760 C   0  0  0  0  0  0  0  0  0  0  0  0
  139.1430   80.3700  220.4750 O   0  0  0  0  0  0  0  0  0  0  0  0
  140.5280   80.1450  222.2570 N   0  0  0  0  0  0  0  0  0  0  0  0
  140.6010   81.3370  223.1160 C   0  0  0  0  0  0  0  0  0  0  0  0
  141.9310   81.3680  223.8150 C   0  0  0  0  0  0  0  0  0  0  0  0
  142.8100   80.2100  223.4980 C   0  0  0  0  0  0  0  0  0  0  0  0
  142.1240   78.8630  223.5510 C   0  0  0  0  0  0  0  0  0  0  0  0
  140.7070   78.9050  223.0660 C   0  0  2  0  0  0  0  0  0  0  0  0
  140.1790   77.6990  222.4780 C   0  0  0  0  0  0  0  0  0  0  0  0
  138.8920   77.4760  222.0450 C   0  0  0  0  0  0  0  0  0  0  0  0
  138.4740   76.3030  221.4540 C   0  0  0  0  0  0  0  0  0  0  0  0
  139.3640   75.2680  221.2660 C   0  0  0  0  0  0  0  0  0  0  0  0
  138.9180   73.7470  220.5250 Cl  0  0  0  0  0  0  0  0  0  0  0  0
  140.6600   75.4610  221.6900 C   0  0  0  0  0  0  0  0  0  0  0  0
  141.0670   76.6270  222.2750 C   0  0  0  0  0  0  0  0  0  0  0  0
  142.2400   76.2830  218.7750 C   0  0  0  0  0  0  0  0  0  0  0  0
  142.0290   75.4440  217.7030 C   0  0  0  0  0  0  0  0  0  0  0  0
  142.8010   74.2830  217.6700 C   0  0  0  0  0  0  0  0  0  0  0  0
  143.7220   73.9900  218.6520 C   0  0  0  0  0  0  0  0  0  0  0  0
  144.4980   72.8490  218.6450 C   0  0  0  0  0  0  0  0  0  0  0  0
  145.4240   72.5750  219.6490 C   0  0  0  0  0  0  0  0  0  0  0  0
  145.5540   73.4870  220.6770 C   0  0  0  0  0  0  0  0  0  0  0  0
  146.7140   73.1780  221.9690 Cl  0  0  0  0  0  0  0  0  0  0  0  0
  144.7920   74.6530  220.7280 C   0  0  0  0  0  0  0  0  0  0  0  0
  143.8910   74.8690  219.7040 C   0  0  0  0  0  0  0  0  0  0  0  0
  143.1410   75.9850  219.7220 N   0  0  0  0  0  0  0  0  0  0  0  0
  142.8930   78.4670  220.0700 H   0  0  0  0  0  0  0  0  0  0  0  0
  142.0592   80.6550  219.8491 H   0  0  0  0  0  0  0  0  0  0  0  0
  140.6051   79.8898  218.9067 H   0  0  0  0  0  0  0  0  0  0  0  0
  140.4893   82.2411  222.4994 H   0  0  0  0  0  0  0  0  0  0  0  0
  139.7942   81.3016  223.8629 H   0  0  0  0  0  0  0  0  0  0  0  0
  142.4544   82.2898  223.5213 H   0  0  0  0  0  0  0  0  0  0  0  0
  141.7237   81.3233  224.8944 H   0  0  0  0  0  0  0  0  0  0  0  0
  143.2100   80.3511  222.4831 H   0  0  0  0  0  0  0  0  0  0  0  0
  143.5912   80.1916  224.2722 H   0  0  0  0  0  0  0  0  0  0  0  0
  142.6882   78.1580  222.9228 H   0  0  0  0  0  0  0  0  0  0  0  0
  142.1005   78.5484  224.6048 H   0  0  0  0  0  0  0  0  0  0  0  0
  140.0570   78.9517  223.9522 H   0  0  0  0  0  0  0  0  0  0  0  0
  138.1539   78.2806  222.1783 H   0  0  0  0  0  0  0  0  0  0  0  0
  137.4280   76.1929  221.1318 H   0  0  0  0  0  0  0  0  0  0  0  0
  141.3911   74.6505  221.5534 H   0  0  0  0  0  0  0  0  0  0  0  0
  142.1144   76.7298  222.5949 H   0  0  0  0  0  0  0  0  0  0  0  0
  141.2940   75.6764  216.9183 H   0  0  0  0  0  0  0  0  0  0  0  0
  142.6706   73.5796  216.8344 H   0  0  0  0  0  0  0  0  0  0  0  0
  144.3815   72.1319  217.8191 H   0  0  0  0  0  0  0  0  0  0  0  0
  146.0332   71.6595  219.6234 H   0  0  0  0  0  0  0  0  0  0  0  0
  144.9040   75.3732  221.5519 H   0  0  0  0  0  0  0  0  0  0  0  0
  1  2  2  0
  2  3  1  0
  3  4  1  0
  4  5  1  0
  5  6  2  0
  5  7  1  0
  7  8  1  0
  8  9  1  0
  9 10  1  0
 10 11  1  0
 11 12  1  0
 12 13  1  0
 13 14  2  0
 14 15  1  0
 15 16  2  0
 16 17  1  0
 16 18  1  0
 18 19  2  0
  2 20  1  0
 20 21  2  0
 21 22  1  0
 22 23  2  0
 23 24  1  0
 24 25  2  0
 25 26  1  0
 26 27  1  0
 26 28  2  0
 28 29  1  0
 29 30  2  0
 12  7  1  0
 19 13  1  0
 30 20  1  0
 29 23  1  0
  3 31  1  0
  4 32  1  0
  4 33  1  0
  8 34  1  0
  8 35  1  0
  9 36  1  0
  9 37  1  0
 10 38  1  0
 10 39  1  0
 11 40  1  0
 11 41  1  0
 12 42  1  1
 14 43  1  0
 15 44  1  0
 18 45  1  0
 19 46  1  0
 21 47  1  0
 22 48  1  0
 24 49  1  0
 25 50  1  0
 28 51  1  0
M  END
>  <smiles>  (13) 
O=C(NCC(=O)N1CCCCC1c1ccc(Cl)cc1)c1ccc2ccc(Cl)cc2n1

>  <score_type>  (13) 
oracle

>  <origin>  (13) 
autodockgpu

>  <m_score__min__energy>  (13) 
-8.6099999999999994

>  <m_primary>  (13) 
energy

>  <rmsd>  (13) 
7.871293542301921

>  <m_score__min__rmsd>  (13) 
7.871293542301921

>  <meeko>  (13) 
{"free_energy": -7.14, "intermolecular_energy": -8.63, "internal_energy": -2.99, "cluster_size": 22, "cluster_id": 5, "rank_in_cluster": 19}

>  <energy>  (13) 
-7.47

>  <cluster_rmsd>  (13) 
0.0

>  <cluster>  (13) 
5

$$$$

     RDKit          3D

 51 54  0  0  0  0  0  0  0  0999 V2000
  140.2110   77.5380  218.1510 O   0  0  0  0  0  0  0  0  0  0  0  0
  141.2760   77.4600  218.7890 C   0  0  0  0  0  0  0  0  0  0  0  0
  141.7150   78.5780  219.5920 N   0  0  0  0  0  0  0  0  0  0  0  0
  141.0050   79.7980  219.7200 C   0  0  0  0  0  0  0  0  0  0  0  0
  140.1710   80.0780  220.8740 C   0  0  0  0  0  0  0  0  0  0  0  0
  138.9320   80.3500  220.5490 O   0  0  0  0  0  0  0  0  0  0  0  0
  140.4250   80.1180  222.2400 N   0  0  0  0  0  0  0  0  0  0  0  0
  140.4740   81.3170  223.0920 C   0  0  0  0  0  0  0  0  0  0  0  0
  141.8430   81.4430  223.6990 C   0  0  0  0  0  0  0  0  0  0  0  0
  142.7770   80.3470  223.3240 C   0  0  0  0  0  0  0  0  0  0  0  0
  142.1900   78.9560  223.4240 C   0  0  0  0  0  0  0  0  0  0  0  0
  140.7430   78.8980  223.0360 C   0  0  2  0  0  0  0  0  0  0  0  0
  140.2610   77.6560  222.4860 C   0  0  0  0  0  0  0  0  0  0  0  0
  141.0110   76.5720  222.0920 C   0  0  0  0  0  0  0  0  0  0  0  0
  140.4700   75.3990  221.6100 C   0  0  0  0  0  0  0  0  0  0  0  0
  139.1030   75.2620  221.5000 C   0  0  0  0  0  0  0  0  0  0  0  0
  138.3330   73.8100  220.9000 Cl  0  0  0  0  0  0  0  0  0  0  0  0
  138.3250   76.3310  221.8860 C   0  0  0  0  0  0  0  0  0  0  0  0
  138.8700   77.4900  222.3630 C   0  0  0  0  0  0  0  0  0  0  0  0
  142.0970   76.2320  218.7330 C   0  0  0  0  0  0  0  0  0  0  0  0
  141.8950   75.3540  217.6900 C   0  0  0  0  0  0  0  0  0  0  0  0
  142.6960   74.2120  217.6850 C   0  0  0  0  0  0  0  0  0  0  0  0
  143.6350   73.9730  218.6650 C   0  0  0  0  0  0  0  0  0  0  0  0
  144.4390   72.8530  218.6850 C   0  0  0  0  0  0  0  0  0  0  0  0
  145.3820   72.6330  219.6860 C   0  0  0  0  0  0  0  0  0  0  0  0
  145.5000   73.5800  220.6830 C   0  0  0  0  0  0  0  0  0  0  0  0
  146.6820   73.3410  221.9710 Cl  0  0  0  0  0  0  0  0  0  0  0  0
  144.7100   74.7290  220.7060 C   0  0  0  0  0  0  0  0  0  0  0  0
  143.7930   74.8890  219.6870 C   0  0  0  0  0  0  0  0  0  0  0  0
  143.0150   75.9870  219.6790 N   0  0  0  0  0  0  0  0  0  0  0  0
  142.6290   78.4120  220.0880 H   0  0  0  0  0  0  0  0  0  0  0  0
  141.7575   80.5993  219.6806 H   0  0  0  0  0  0  0  0  0  0  0  0
  140.2654   79.7244  218.9091 H   0  0  0  0  0  0  0  0  0  0  0  0
  140.2588   82.2081  222.4841 H   0  0  0  0  0  0  0  0  0  0  0  0
  139.7241   81.2299  223.8921 H   0  0  0  0  0  0  0  0  0  0  0  0
  142.2803   82.3972  223.3700 H   0  0  0  0  0  0  0  0  0  0  0  0
  141.7125   81.3892  224.7899 H   0  0  0  0  0  0  0  0  0  0  0  0
  143.0973   80.5101  222.2844 H   0  0  0  0  0  0  0  0  0  0  0  0
  143.6082   80.3866  224.0434 H   0  0  0  0  0  0  0  0  0  0  0  0
  142.7575   78.2881  222.7593 H   0  0  0  0  0  0  0  0  0  0  0  0
  142.2594   78.6461  224.4771 H   0  0  0  0  0  0  0  0  0  0  0  0
  140.1529   78.9048  223.9643 H   0  0  0  0  0  0  0  0  0  0  0  0
  142.1061   76.6454  222.1658 H   0  0  0  0  0  0  0  0  0  0  0  0
  141.1305   74.5711  221.3128 H   0  0  0  0  0  0  0  0  0  0  0  0
  137.2308   76.2494  221.8079 H   0  0  0  0  0  0  0  0  0  0  0  0
  138.2037   78.3139  222.6582 H   0  0  0  0  0  0  0  0  0  0  0  0
  141.1457   75.5428  216.9071 H   0  0  0  0  0  0  0  0  0  0  0  0
  142.5744   73.4794  216.8735 H   0  0  0  0  0  0  0  0  0  0  0  0
  144.3319   72.1078  217.8830 H   0  0  0  0  0  0  0  0  0  0  0  0
  146.0133   71.7322  219.6821 H   0  0  0  0  0  0  0  0  0  0  0  0
  144.8136   75.4782  221.5047 H   0  0  0  0  0  0  0  0  0  0  0  0
  1  2  2  0
  2  3  1  0
  3  4  1  0
  4  5  1  0
  5  6  2  0
  5  7  1  0
  7  8  1  0
  8  9  1  0
  9 10  1  0
 10 11  1  0
 11 12  1  0
 12 13  1  0
 13 14  2  0
 14 15  1  0
 15 16  2  0
 16 17  1  0
 16 18  1  0
 18 19  2  0
  2 20  1  0
 20 21  2  0
 21 22  1  0
 22 23  2  0
 23 24  1  0
 24 25  2  0
 25 26  1  0
 26 27  1  0
 26 28  2  0
 28 29  1  0
 29 30  2  0
 12  7  1  0
 19 13  1  0
 30 20  1  0
 29 23  1  0
  3 31  1  0
  4 32  1  0
  4 33  1  0
  8 34  1  0
  8 35  1  0
  9 36  1  0
  9 37  1  0
 10 38  1  0
 10 39  1  0
 11 40  1  0
 11 41  1  0
 12 42  1  1
 14 43  1  0
 15 44  1  0
 18 45  1  0
 19 46  1  0
 21 47  1  0
 22 48  1  0
 24 49  1  0
 25 50  1  0
 28 51  1  0
M  END
>  <smiles>  (14) 
O=C(NCC(=O)N1CCCCC1c1ccc(Cl)cc1)c1ccc2ccc(Cl)cc2n1

>  <score_type>  (14) 
oracle

>  <origin>  (14) 
autodockgpu

>  <m_score__min__energy>  (14) 
-8.6099999999999994

>  <m_primary>  (14) 
energy

>  <rmsd>  (14) 
7.797595098576081

>  <m_score__min__rmsd>  (14) 
7.797595098576081

>  <meeko>  (14) 
{"free_energy": -7.2, "intermolecular_energy": -8.69, "internal_energy": -2.86, "cluster_size": 22, "cluster_id": 5, "rank_in_cluster": 17}

>  <energy>  (14) 
-7.46

>  <cluster_rmsd>  (14) 
0.14

>  <cluster>  (14) 
5

$$$$

     RDKit          3D

 51 54  0  0  0  0  0  0  0  0999 V2000
  140.2920   77.5740  218.4130 O   0  0  0  0  0  0  0  0  0  0  0  0
  141.3940   77.4380  218.9730 C   0  0  0  0  0  0  0  0  0  0  0  0
  141.9880   78.5550  219.6710 N   0  0  0  0  0  0  0  0  0  0  0  0
  141.3960   79.8380  219.7770 C   0  0  0  0  0  0  0  0  0  0  0  0
  140.4820   80.1690  220.8540 C   0  0  0  0  0  0  0  0  0  0  0  0
  139.2620   80.3920  220.4320 O   0  0  0  0  0  0  0  0  0  0  0  0
  140.6430   80.2990  222.2280 N   0  0  0  0  0  0  0  0  0  0  0  0
  140.7660   81.5550  222.9860 C   0  0  0  0  0  0  0  0  0  0  0  0
  142.0950   81.5850  223.6880 C   0  0  0  0  0  0  0  0  0  0  0  0
  142.9230   80.3690  223.4730 C   0  0  0  0  0  0  0  0  0  0  0  0
  142.1790   79.0610  223.6340 C   0  0  0  0  0  0  0  0  0  0  0  0
  140.7650   79.1250  223.1390 C   0  0  2  0  0  0  0  0  0  0  0  0
  140.1870   77.8980  222.6500 C   0  0  0  0  0  0  0  0  0  0  0  0
  138.8670   77.6640  222.3420 C   0  0  0  0  0  0  0  0  0  0  0  0
  138.3970   76.4690  221.8390 C   0  0  0  0  0  0  0  0  0  0  0  0
  139.2660   75.4220  221.6160 C   0  0  0  0  0  0  0  0  0  0  0  0
  138.7540   73.8740  220.9810 Cl  0  0  0  0  0  0  0  0  0  0  0  0
  140.5940   75.6270  221.9150 C   0  0  0  0  0  0  0  0  0  0  0  0
  141.0520   76.8140  222.4140 C   0  0  0  0  0  0  0  0  0  0  0  0
  142.1020   76.1410  218.9300 C   0  0  0  0  0  0  0  0  0  0  0  0
  141.7370   75.2250  217.9680 C   0  0  0  0  0  0  0  0  0  0  0  0
  142.4370   74.0180  217.9730 C   0  0  0  0  0  0  0  0  0  0  0  0
  143.4350   73.7550  218.8850 C   0  0  0  0  0  0  0  0  0  0  0  0
  144.1420   72.5700  218.9130 C   0  0  0  0  0  0  0  0  0  0  0  0
  145.1480   72.3270  219.8450 C   0  0  0  0  0  0  0  0  0  0  0  0
  145.4310   73.3170  220.7650 C   0  0  0  0  0  0  0  0  0  0  0  0
  146.6970   73.0500  221.9640 Cl  0  0  0  0  0  0  0  0  0  0  0  0
  144.7440   74.5300  220.7780 C   0  0  0  0  0  0  0  0  0  0  0  0
  143.7580   74.7110  219.8280 C   0  0  0  0  0  0  0  0  0  0  0  0
  143.0760   75.8710  219.8120 N   0  0  0  0  0  0  0  0  0  0  0  0
  142.9220   78.3360  220.1060 H   0  0  0  0  0  0  0  0  0  0  0  0
  142.2258   80.5571  219.8434 H   0  0  0  0  0  0  0  0  0  0  0  0
  140.7391   79.8666  218.8951 H   0  0  0  0  0  0  0  0  0  0  0  0
  140.6959   82.4087  222.2959 H   0  0  0  0  0  0  0  0  0  0  0  0
  139.9564   81.6177  223.7280 H   0  0  0  0  0  0  0  0  0  0  0  0
  142.6590   82.4559  223.3227 H   0  0  0  0  0  0  0  0  0  0  0  0
  141.8830   81.6377  224.7661 H   0  0  0  0  0  0  0  0  0  0  0  0
  143.3305   80.4080  222.4520 H   0  0  0  0  0  0  0  0  0  0  0  0
  143.7013   80.3816  224.2503 H   0  0  0  0  0  0  0  0  0  0  0  0
  142.7129   78.2825  223.0693 H   0  0  0  0  0  0  0  0  0  0  0  0
  142.1405   78.8353  224.7099 H   0  0  0  0  0  0  0  0  0  0  0  0
  140.1155   79.2750  224.0140 H   0  0  0  0  0  0  0  0  0  0  0  0
  138.1445   78.4770  222.5064 H   0  0  0  0  0  0  0  0  0  0  0  0
  137.3265   76.3509  221.6152 H   0  0  0  0  0  0  0  0  0  0  0  0
  141.3098   74.8088  221.7468 H   0  0  0  0  0  0  0  0  0  0  0  0
  142.1236   76.9245  222.6366 H   0  0  0  0  0  0  0  0  0  0  0  0
  140.9403   75.4329  217.2386 H   0  0  0  0  0  0  0  0  0  0  0  0
  142.1838   73.2523  217.2249 H   0  0  0  0  0  0  0  0  0  0  0  0
  143.9028   71.7910  218.1741 H   0  0  0  0  0  0  0  0  0  0  0  0
  145.7001   71.3756  219.8481 H   0  0  0  0  0  0  0  0  0  0  0  0
  144.9779   75.3118  221.5156 H   0  0  0  0  0  0  0  0  0  0  0  0
  1  2  2  0
  2  3  1  0
  3  4  1  0
  4  5  1  0
  5  6  2  0
  5  7  1  0
  7  8  1  0
  8  9  1  0
  9 10  1  0
 10 11  1  0
 11 12  1  0
 12 13  1  0
 13 14  2  0
 14 15  1  0
 15 16  2  0
 16 17  1  0
 16 18  1  0
 18 19  2  0
  2 20  1  0
 20 21  2  0
 21 22  1  0
 22 23  2  0
 23 24  1  0
 24 25  2  0
 25 26  1  0
 26 27  1  0
 26 28  2  0
 28 29  1  0
 29 30  2  0
 12  7  1  0
 19 13  1  0
 30 20  1  0
 29 23  1  0
  3 31  1  0
  4 32  1  0
  4 33  1  0
  8 34  1  0
  8 35  1  0
  9 36  1  0
  9 37  1  0
 10 38  1  0
 10 39  1  0
 11 40  1  0
 11 41  1  0
 12 42  1  1
 14 43  1  0
 15 44  1  0
 18 45  1  0
 19 46  1  0
 21 47  1  0
 22 48  1  0
 24 49  1  0
 25 50  1  0
 28 51  1  0
M  END
>  <smiles>  (15) 
O=C(NCC(=O)N1CCCCC1c1ccc(Cl)cc1)c1ccc2ccc(Cl)cc2n1

>  <score_type>  (15) 
oracle

>  <origin>  (15) 
autodockgpu

>  <m_score__min__energy>  (15) 
-8.6099999999999994

>  <m_primary>  (15) 
energy

>  <rmsd>  (15) 
7.740025386856962

>  <m_score__min__rmsd>  (15) 
7.740025386856962

>  <meeko>  (15) 
{"free_energy": -7.21, "intermolecular_energy": -8.7, "internal_energy": -2.98, "cluster_size": 22, "cluster_id": 5, "rank_in_cluster": 16}

>  <energy>  (15) 
-7.43

>  <cluster_rmsd>  (15) 
0.21

>  <cluster>  (15) 
5

$$$$

     RDKit          3D

 51 54  0  0  0  0  0  0  0  0999 V2000
  140.3290   77.5370  218.3240 O   0  0  0  0  0  0  0  0  0  0  0  0
  141.4610   77.5270  218.8400 C   0  0  0  0  0  0  0  0  0  0  0  0
  141.9240   78.6780  219.5790 N   0  0  0  0  0  0  0  0  0  0  0  0
  141.1670   79.8600  219.7770 C   0  0  0  0  0  0  0  0  0  0  0  0
  140.2720   80.0120  220.9090 C   0  0  0  0  0  0  0  0  0  0  0  0
  139.0180   80.1270  220.5510 O   0  0  0  0  0  0  0  0  0  0  0  0
  140.4810   80.0640  222.2820 N   0  0  0  0  0  0  0  0  0  0  0  0
  140.5020   81.2700  223.1260 C   0  0  0  0  0  0  0  0  0  0  0  0
  141.8500   81.4000  223.7770 C   0  0  0  0  0  0  0  0  0  0  0  0
  142.7950   80.3010  223.4420 C   0  0  0  0  0  0  0  0  0  0  0  0
  142.2050   78.9110  223.5330 C   0  0  0  0  0  0  0  0  0  0  0  0
  140.7730   78.8500  223.0990 C   0  0  2  0  0  0  0  0  0  0  0  0
  140.3090   77.6030  222.5430 C   0  0  0  0  0  0  0  0  0  0  0  0
  141.0760   76.5520  222.0980 C   0  0  0  0  0  0  0  0  0  0  0  0
  140.5540   75.3710  221.6140 C   0  0  0  0  0  0  0  0  0  0  0  0
  139.1890   75.1910  221.5560 C   0  0  0  0  0  0  0  0  0  0  0  0
  138.4420   73.7260  220.9570 Cl  0  0  0  0  0  0  0  0  0  0  0  0
  138.3930   76.2270  221.9940 C   0  0  0  0  0  0  0  0  0  0  0  0
  138.9200   77.3940  222.4720 C   0  0  0  0  0  0  0  0  0  0  0  0
  142.3370   76.3440  218.7010 C   0  0  0  0  0  0  0  0  0  0  0  0
  142.2820   75.6190  217.5310 C   0  0  0  0  0  0  0  0  0  0  0  0
  143.1290   74.5130  217.4530 C   0  0  0  0  0  0  0  0  0  0  0  0
  143.9730   74.1640  218.4850 C   0  0  0  0  0  0  0  0  0  0  0  0
  144.8200   73.0770  218.4350 C   0  0  0  0  0  0  0  0  0  0  0  0
  145.6650   72.7450  219.4910 C   0  0  0  0  0  0  0  0  0  0  0  0
  145.6390   73.5430  220.6170 C   0  0  0  0  0  0  0  0  0  0  0  0
  146.6940   73.1570  221.9780 Cl  0  0  0  0  0  0  0  0  0  0  0  0
  144.8010   74.6520  220.7150 C   0  0  0  0  0  0  0  0  0  0  0  0
  143.9860   74.9300  219.6350 C   0  0  0  0  0  0  0  0  0  0  0  0
  143.1650   75.9930  219.6970 N   0  0  0  0  0  0  0  0  0  0  0  0
  142.8960   78.5680  219.9710 H   0  0  0  0  0  0  0  0  0  0  0  0
  141.8923   80.6843  219.8433 H   0  0  0  0  0  0  0  0  0  0  0  0
  140.4682   79.8354  218.9278 H   0  0  0  0  0  0  0  0  0  0  0  0
  140.3076   82.1564  222.5044 H   0  0  0  0  0  0  0  0  0  0  0  0
  139.7258   81.1896  223.9012 H   0  0  0  0  0  0  0  0  0  0  0  0
  142.2987   82.3514  223.4552 H   0  0  0  0  0  0  0  0  0  0  0  0
  141.6832   81.3547  224.8633 H   0  0  0  0  0  0  0  0  0  0  0  0
  143.1498   80.4560  222.4124 H   0  0  0  0  0  0  0  0  0  0  0  0
  143.6014   80.3460  224.1887 H   0  0  0  0  0  0  0  0  0  0  0  0
  142.7938   78.2383  222.8921 H   0  0  0  0  0  0  0  0  0  0  0  0
  142.2400   78.6088  224.5901 H   0  0  0  0  0  0  0  0  0  0  0  0
  140.1532   78.8647  224.0077 H   0  0  0  0  0  0  0  0  0  0  0  0
  142.1703   76.6597  222.1300 H   0  0  0  0  0  0  0  0  0  0  0  0
  141.2283   74.5713  221.2736 H   0  0  0  0  0  0  0  0  0  0  0  0
  137.2997   76.1112  221.9578 H   0  0  0  0  0  0  0  0  0  0  0  0
  138.2403   78.1902  222.8098 H   0  0  0  0  0  0  0  0  0  0  0  0
  141.6092   75.8960  216.7060 H   0  0  0  0  0  0  0  0  0  0  0  0
  143.1229   73.9005  216.5393 H   0  0  0  0  0  0  0  0  0  0  0  0
  144.8285   72.4510  217.5305 H   0  0  0  0  0  0  0  0  0  0  0  0
  146.3330   71.8732  219.4297 H   0  0  0  0  0  0  0  0  0  0  0  0
  144.7890   75.2814  221.6171 H   0  0  0  0  0  0  0  0  0  0  0  0
  1  2  2  0
  2  3  1  0
  3  4  1  0
  4  5  1  0
  5  6  2  0
  5  7  1  0
  7  8  1  0
  8  9  1  0
  9 10  1  0
 10 11  1  0
 11 12  1  0
 12 13  1  0
 13 14  2  0
 14 15  1  0
 15 16  2  0
 16 17  1  0
 16 18  1  0
 18 19  2  0
  2 20  1  0
 20 21  2  0
 21 22  1  0
 22 23  2  0
 23 24  1  0
 24 25  2  0
 25 26  1  0
 26 27  1  0
 26 28  2  0
 28 29  1  0
 29 30  2  0
 12  7  1  0
 19 13  1  0
 30 20  1  0
 29 23  1  0
  3 31  1  0
  4 32  1  0
  4 33  1  0
  8 34  1  0
  8 35  1  0
  9 36  1  0
  9 37  1  0
 10 38  1  0
 10 39  1  0
 11 40  1  0
 11 41  1  0
 12 42  1  1
 14 43  1  0
 15 44  1  0
 18 45  1  0
 19 46  1  0
 21 47  1  0
 22 48  1  0
 24 49  1  0
 25 50  1  0
 28 51  1  0
M  END
>  <smiles>  (16) 
O=C(NCC(=O)N1CCCCC1c1ccc(Cl)cc1)c1ccc2ccc(Cl)cc2n1

>  <score_type>  (16) 
oracle

>  <origin>  (16) 
autodockgpu

>  <m_score__min__energy>  (16) 
-8.6099999999999994

>  <m_primary>  (16) 
energy

>  <rmsd>  (16) 
7.976594883141644

>  <m_score__min__rmsd>  (16) 
7.976594883141644

>  <meeko>  (16) 
{"free_energy": -7.35, "intermolecular_energy": -8.84, "internal_energy": -2.72, "cluster_size": 22, "cluster_id": 5, "rank_in_cluster": 6}

>  <energy>  (16) 
-7.38

>  <cluster_rmsd>  (16) 
0.25

>  <cluster>  (16) 
5

$$$$

     RDKit          3D

 51 54  0  0  0  0  0  0  0  0999 V2000
  140.4980   73.5510  222.3280 O   0  0  0  0  0  0  0  0  0  0  0  0
  140.3960   74.4800  221.5080 C   0  0  0  0  0  0  0  0  0  0  0  0
  140.6770   74.2400  220.1120 N   0  0  0  0  0  0  0  0  0  0  0  0
  141.0700   72.9870  219.5780 C   0  0  0  0  0  0  0  0  0  0  0  0
  142.3920   72.4380  219.8140 C   0  0  0  0  0  0  0  0  0  0  0  0
  142.5310   71.9550  221.0230 O   0  0  0  0  0  0  0  0  0  0  0  0
  143.5290   72.3300  219.0220 N   0  0  0  0  0  0  0  0  0  0  0  0
  144.0990   71.0940  218.4620 C   0  0  0  0  0  0  0  0  0  0  0  0
  145.4910   70.9020  218.9940 C   0  0  0  0  0  0  0  0  0  0  0  0
  145.9480   71.9840  219.9060 C   0  0  0  0  0  0  0  0  0  0  0  0
  145.6740   73.3870  219.4090 C   0  0  0  0  0  0  0  0  0  0  0  0
  144.3770   73.5040  218.6670 C   0  0  2  0  0  0  0  0  0  0  0  0
  143.7130   74.7840  218.7070 C   0  0  0  0  0  0  0  0  0  0  0  0
  143.0740   75.4250  217.6710 C   0  0  0  0  0  0  0  0  0  0  0  0
  142.4250   76.6340  217.8010 C   0  0  0  0  0  0  0  0  0  0  0  0
  142.3890   77.2730  219.0220 C   0  0  0  0  0  0  0  0  0  0  0  0
  141.5890   78.8080  219.2750 Cl  0  0  0  0  0  0  0  0  0  0  0  0
  143.0210   76.6560  220.0790 C   0  0  0  0  0  0  0  0  0  0  0  0
  143.6620   75.4560  219.9420 C   0  0  0  0  0  0  0  0  0  0  0  0
  139.9890   75.8310  221.9510 C   0  0  0  0  0  0  0  0  0  0  0  0
  138.6450   76.1290  221.9990 C   0  0  0  0  0  0  0  0  0  0  0  0
  138.3160   77.4170  222.4240 C   0  0  0  0  0  0  0  0  0  0  0  0
  139.2790   78.3380  222.7770 C   0  0  0  0  0  0  0  0  0  0  0  0
  138.9820   79.6170  223.2000 C   0  0  0  0  0  0  0  0  0  0  0  0
  139.9720   80.5310  223.5500 C   0  0  0  0  0  0  0  0  0  0  0  0
  141.2890   80.1250  223.4650 C   0  0  0  0  0  0  0  0  0  0  0  0
  142.5750   81.2520  223.9000 Cl  0  0  0  0  0  0  0  0  0  0  0  0
  141.6380   78.8430  223.0430 C   0  0  0  0  0  0  0  0  0  0  0  0
  140.6120   77.9830  222.7080 C   0  0  0  0  0  0  0  0  0  0  0  0
  140.9140   76.7380  222.2970 N   0  0  0  0  0  0  0  0  0  0  0  0
  140.5650   75.0930  219.5020 H   0  0  0  0  0  0  0  0  0  0  0  0
  140.3542   72.2473  219.9659 H   0  0  0  0  0  0  0  0  0  0  0  0
  141.0903   73.1894  218.4970 H   0  0  0  0  0  0  0  0  0  0  0  0
  143.4735   70.2369  218.7521 H   0  0  0  0  0  0  0  0  0  0  0  0
  144.1313   71.1678  217.3650 H   0  0  0  0  0  0  0  0  0  0  0  0
  145.5219   69.9503  219.5447 H   0  0  0  0  0  0  0  0  0  0  0  0
  146.1663   70.9132  218.1258 H   0  0  0  0  0  0  0  0  0  0  0  0
  145.4372   71.8567  220.8719 H   0  0  0  0  0  0  0  0  0  0  0  0
  147.0414   71.8880  219.9790 H   0  0  0  0  0  0  0  0  0  0  0  0
  145.6450   74.0657  220.2742 H   0  0  0  0  0  0  0  0  0  0  0  0
  146.4789   73.6498  218.7068 H   0  0  0  0  0  0  0  0  0  0  0  0
  144.6082   73.4730  217.5920 H   0  0  0  0  0  0  0  0  0  0  0  0
  143.0814   74.9448  216.6814 H   0  0  0  0  0  0  0  0  0  0  0  0
  141.9346   77.0901  216.9284 H   0  0  0  0  0  0  0  0  0  0  0  0
  143.0097   77.1442  221.0647 H   0  0  0  0  0  0  0  0  0  0  0  0
  144.1497   75.0050  220.8188 H   0  0  0  0  0  0  0  0  0  0  0  0
  137.8757   75.3944  221.7186 H   0  0  0  0  0  0  0  0  0  0  0  0
  137.2561   77.7060  222.4790 H   0  0  0  0  0  0  0  0  0  0  0  0
  137.9278   79.9249  223.2628 H   0  0  0  0  0  0  0  0  0  0  0  0
  139.7128   81.5464  223.8843 H   0  0  0  0  0  0  0  0  0  0  0  0
  142.6903   78.5291  222.9795 H   0  0  0  0  0  0  0  0  0  0  0  0
  1  2  2  0
  2  3  1  0
  3  4  1  0
  4  5  1  0
  5  6  2  0
  5  7  1  0
  7  8  1  0
  8  9  1  0
  9 10  1  0
 10 11  1  0
 11 12  1  0
 12 13  1  0
 13 14  2  0
 14 15  1  0
 15 16  2  0
 16 17  1  0
 16 18  1  0
 18 19  2  0
  2 20  1  0
 20 21  2  0
 21 22  1  0
 22 23  2  0
 23 24  1  0
 24 25  2  0
 25 26  1  0
 26 27  1  0
 26 28  2  0
 28 29  1  0
 29 30  2  0
 12  7  1  0
 19 13  1  0
 30 20  1  0
 29 23  1  0
  3 31  1  0
  4 32  1  0
  4 33  1  0
  8 34  1  0
  8 35  1  0
  9 36  1  0
  9 37  1  0
 10 38  1  0
 10 39  1  0
 11 40  1  0
 11 41  1  0
 12 42  1  6
 14 43  1  0
 15 44  1  0
 18 45  1  0
 19 46  1  0
 21 47  1  0
 22 48  1  0
 24 49  1  0
 25 50  1  0
 28 51  1  0
M  END
>  <smiles>  (17) 
O=C(NCC(=O)N1CCCCC1c1ccc(Cl)cc1)c1ccc2ccc(Cl)cc2n1

>  <score_type>  (17) 
oracle

>  <origin>  (17) 
autodockgpu

>  <m_score__min__energy>  (17) 
-8.6099999999999994

>  <m_primary>  (17) 
energy

>  <rmsd>  (17) 
7.119475767030464

>  <m_score__min__rmsd>  (17) 
7.119475767030464

>  <meeko>  (17) 
{"free_energy": -7.27, "intermolecular_energy": -8.76, "internal_energy": -2.56, "cluster_size": 14, "cluster_id": 6, "rank_in_cluster": 5}

>  <energy>  (17) 
-7.36

>  <cluster_rmsd>  (17) 
0.26

>  <cluster>  (17) 
5

$$$$

     RDKit          3D

 51 54  0  0  0  0  0  0  0  0999 V2000
  140.6170   73.6690  222.3270 O   0  0  0  0  0  0  0  0  0  0  0  0
  140.4290   74.5880  221.5110 C   0  0  0  0  0  0  0  0  0  0  0  0
  140.6120   74.3430  220.0990 N   0  0  0  0  0  0  0  0  0  0  0  0
  141.0000   73.0970  219.5470 C   0  0  0  0  0  0  0  0  0  0  0  0
  142.0610   72.9960  218.5630 C   0  0  0  0  0  0  0  0  0  0  0  0
  141.6080   72.8860  217.3390 O   0  0  0  0  0  0  0  0  0  0  0  0
  143.4480   72.9880  218.6610 N   0  0  0  0  0  0  0  0  0  0  0  0
  144.3400   71.8390  218.4390 C   0  0  0  0  0  0  0  0  0  0  0  0
  145.1020   71.5480  219.7010 C   0  0  0  0  0  0  0  0  0  0  0  0
  144.7970   72.4760  220.8220 C   0  0  0  0  0  0  0  0  0  0  0  0
  144.7820   73.9410  220.4430 C   0  0  0  0  0  0  0  0  0  0  0  0
  144.2320   74.1880  219.0710 C   0  0  2  0  0  0  0  0  0  0  0  0
  143.5890   75.4580  218.8420 C   0  0  0  0  0  0  0  0  0  0  0  0
  143.3430   76.0610  217.6300 C   0  0  0  0  0  0  0  0  0  0  0  0
  142.6830   77.2630  217.4920 C   0  0  0  0  0  0  0  0  0  0  0  0
  142.2250   77.9340  218.6060 C   0  0  0  0  0  0  0  0  0  0  0  0
  141.3790   79.4630  218.5220 Cl  0  0  0  0  0  0  0  0  0  0  0  0
  142.4570   77.3550  219.8340 C   0  0  0  0  0  0  0  0  0  0  0  0
  143.1120   76.1620  219.9620 C   0  0  0  0  0  0  0  0  0  0  0  0
  140.0180   75.9310  221.9740 C   0  0  0  0  0  0  0  0  0  0  0  0
  138.6740   76.2320  222.0040 C   0  0  0  0  0  0  0  0  0  0  0  0
  138.3410   77.5120  222.4490 C   0  0  0  0  0  0  0  0  0  0  0  0
  139.2990   78.4230  222.8370 C   0  0  0  0  0  0  0  0  0  0  0  0
  138.9990   79.6940  223.2810 C   0  0  0  0  0  0  0  0  0  0  0  0
  139.9850   80.5970  223.6680 C   0  0  0  0  0  0  0  0  0  0  0  0
  141.3020   80.1880  223.5990 C   0  0  0  0  0  0  0  0  0  0  0  0
  142.5820   81.3020  224.0800 Cl  0  0  0  0  0  0  0  0  0  0  0  0
  141.6550   78.9140  223.1570 C   0  0  0  0  0  0  0  0  0  0  0  0
  140.6330   78.0640  222.7860 C   0  0  0  0  0  0  0  0  0  0  0  0
  140.9390   76.8270  222.3560 N   0  0  0  0  0  0  0  0  0  0  0  0
  140.4320   75.1880  219.4940 H   0  0  0  0  0  0  0  0  0  0  0  0
  141.3028   72.4642  220.3943 H   0  0  0  0  0  0  0  0  0  0  0  0
  140.1119   72.8128  218.9635 H   0  0  0  0  0  0  0  0  0  0  0  0
  143.7422   70.9588  218.1599 H   0  0  0  0  0  0  0  0  0  0  0  0
  145.0463   72.0731  217.6288 H   0  0  0  0  0  0  0  0  0  0  0  0
  144.8584   70.5249  220.0235 H   0  0  0  0  0  0  0  0  0  0  0  0
  146.1685   71.6763  219.4643 H   0  0  0  0  0  0  0  0  0  0  0  0
  143.8063   72.2155  221.2228 H   0  0  0  0  0  0  0  0  0  0  0  0
  145.6066   72.3531  221.5565 H   0  0  0  0  0  0  0  0  0  0  0  0
  144.1626   74.4847  221.1715 H   0  0  0  0  0  0  0  0  0  0  0  0
  145.8248   74.2912  220.4461 H   0  0  0  0  0  0  0  0  0  0  0  0
  145.0868   74.3136  218.3902 H   0  0  0  0  0  0  0  0  0  0  0  0
  143.6933   75.5545  216.7186 H   0  0  0  0  0  0  0  0  0  0  0  0
  142.5212   77.6881  216.4905 H   0  0  0  0  0  0  0  0  0  0  0  0
  142.1041   77.8688  220.7403 H   0  0  0  0  0  0  0  0  0  0  0  0
  143.2699   75.7421  220.9664 H   0  0  0  0  0  0  0  0  0  0  0  0
  137.9079   75.5056  221.6951 H   0  0  0  0  0  0  0  0  0  0  0  0
  137.2809   77.8026  222.4913 H   0  0  0  0  0  0  0  0  0  0  0  0
  137.9449   80.0045  223.3309 H   0  0  0  0  0  0  0  0  0  0  0  0
  139.7229   81.6062  224.0183 H   0  0  0  0  0  0  0  0  0  0  0  0
  142.7075   78.5983  223.1059 H   0  0  0  0  0  0  0  0  0  0  0  0
  1  2  2  0
  2  3  1  0
  3  4  1  0
  4  5  1  0
  5  6  2  0
  5  7  1  0
  7  8  1  0
  8  9  1  0
  9 10  1  0
 10 11  1  0
 11 12  1  0
 12 13  1  0
 13 14  2  0
 14 15  1  0
 15 16  2  0
 16 17  1  0
 16 18  1  0
 18 19  2  0
  2 20  1  0
 20 21  2  0
 21 22  1  0
 22 23  2  0
 23 24  1  0
 24 25  2  0
 25 26  1  0
 26 27  1  0
 26 28  2  0
 28 29  1  0
 29 30  2  0
 12  7  1  0
 19 13  1  0
 30 20  1  0
 29 23  1  0
  3 31  1  0
  4 32  1  0
  4 33  1  0
  8 34  1  0
  8 35  1  0
  9 36  1  0
  9 37  1  0
 10 38  1  0
 10 39  1  0
 11 40  1  0
 11 41  1  0
 12 42  1  6
 14 43  1  0
 15 44  1  0
 18 45  1  0
 19 46  1  0
 21 47  1  0
 22 48  1  0
 24 49  1  0
 25 50  1  0
 28 51  1  0
M  END
>  <smiles>  (18) 
O=C(NCC(=O)N1CCCCC1c1ccc(Cl)cc1)c1ccc2ccc(Cl)cc2n1

>  <score_type>  (18) 
oracle

>  <origin>  (18) 
autodockgpu

>  <m_score__min__energy>  (18) 
-8.6099999999999994

>  <m_primary>  (18) 
energy

>  <rmsd>  (18) 
7.0342281780603315

>  <m_score__min__rmsd>  (18) 
7.0342281780603315

>  <meeko>  (18) 
{"free_energy": -7.33, "intermolecular_energy": -8.82, "internal_energy": -2.54, "cluster_size": 14, "cluster_id": 6, "rank_in_cluster": 4}

>  <energy>  (18) 
-7.35

>  <cluster_rmsd>  (18) 
0.29

>  <cluster>  (18) 
5

$$$$

     RDKit          3D

 51 54  0  0  0  0  0  0  0  0999 V2000
  140.4360   77.6170  218.1640 O   0  0  0  0  0  0  0  0  0  0  0  0
  141.5210   77.5350  218.7670 C   0  0  0  0  0  0  0  0  0  0  0  0
  141.9740   78.6390  219.5820 N   0  0  0  0  0  0  0  0  0  0  0  0
  141.2570   79.8480  219.7620 C   0  0  0  0  0  0  0  0  0  0  0  0
  140.3370   80.0320  220.8680 C   0  0  0  0  0  0  0  0  0  0  0  0
  139.0950   80.1680  220.4770 O   0  0  0  0  0  0  0  0  0  0  0  0
  140.5120   80.0980  222.2460 N   0  0  0  0  0  0  0  0  0  0  0  0
  140.5280   81.3130  223.0750 C   0  0  0  0  0  0  0  0  0  0  0  0
  141.8610   81.4330  223.7590 C   0  0  0  0  0  0  0  0  0  0  0  0
  142.7990   80.3180  223.4610 C   0  0  0  0  0  0  0  0  0  0  0  0
  142.1880   78.9370  223.5540 C   0  0  0  0  0  0  0  0  0  0  0  0
  140.7660   78.8900  223.0830 C   0  0  2  0  0  0  0  0  0  0  0  0
  140.2990   77.6430  222.5300 C   0  0  0  0  0  0  0  0  0  0  0  0
  141.0640   76.5950  222.0750 C   0  0  0  0  0  0  0  0  0  0  0  0
  140.5390   75.4140  221.5950 C   0  0  0  0  0  0  0  0  0  0  0  0
  139.1740   75.2300  221.5520 C   0  0  0  0  0  0  0  0  0  0  0  0
  138.4250   73.7650  220.9580 Cl  0  0  0  0  0  0  0  0  0  0  0  0
  138.3810   76.2630  222.0000 C   0  0  0  0  0  0  0  0  0  0  0  0
  138.9100   77.4310  222.4740 C   0  0  0  0  0  0  0  0  0  0  0  0
  142.3520   76.3170  218.6570 C   0  0  0  0  0  0  0  0  0  0  0  0
  142.2360   75.5450  217.5220 C   0  0  0  0  0  0  0  0  0  0  0  0
  143.0420   74.4070  217.4690 C   0  0  0  0  0  0  0  0  0  0  0  0
  143.9050   74.0740  218.4900 C   0  0  0  0  0  0  0  0  0  0  0  0
  144.7120   72.9560  218.4640 C   0  0  0  0  0  0  0  0  0  0  0  0
  145.5760   72.6390  219.5090 C   0  0  0  0  0  0  0  0  0  0  0  0
  145.6120   73.4860  220.5990 C   0  0  0  0  0  0  0  0  0  0  0  0
  146.6930   73.1220  221.9450 Cl  0  0  0  0  0  0  0  0  0  0  0  0
  144.8150   74.6270  220.6720 C   0  0  0  0  0  0  0  0  0  0  0  0
  143.9780   74.8870  219.6050 C   0  0  0  0  0  0  0  0  0  0  0  0
  143.1960   75.9800  219.6420 N   0  0  0  0  0  0  0  0  0  0  0  0
  142.9060   78.4700  220.0460 H   0  0  0  0  0  0  0  0  0  0  0  0
  142.0108   80.6441  219.8512 H   0  0  0  0  0  0  0  0  0  0  0  0
  140.5820   79.8511  218.8934 H   0  0  0  0  0  0  0  0  0  0  0  0
  140.3617   82.1942  222.4379 H   0  0  0  0  0  0  0  0  0  0  0  0
  139.7312   81.2526  223.8309 H   0  0  0  0  0  0  0  0  0  0  0  0
  142.3305   82.3745  223.4379 H   0  0  0  0  0  0  0  0  0  0  0  0
  141.6661   81.4028  224.8412 H   0  0  0  0  0  0  0  0  0  0  0  0
  143.1813   80.4556  222.4388 H   0  0  0  0  0  0  0  0  0  0  0  0
  143.5873   80.3616  224.2269 H   0  0  0  0  0  0  0  0  0  0  0  0
  142.7840   78.2483  222.9372 H   0  0  0  0  0  0  0  0  0  0  0  0
  142.1916   78.6477  224.6153 H   0  0  0  0  0  0  0  0  0  0  0  0
  140.1229   78.9233  223.9748 H   0  0  0  0  0  0  0  0  0  0  0  0
  142.1583   76.7052  222.0951 H   0  0  0  0  0  0  0  0  0  0  0  0
  141.2114   74.6167  221.2455 H   0  0  0  0  0  0  0  0  0  0  0  0
  137.2877   76.1445  221.9757 H   0  0  0  0  0  0  0  0  0  0  0  0
  138.2321   78.2250  222.8203 H   0  0  0  0  0  0  0  0  0  0  0  0
  141.5483   75.8100  216.7054 H   0  0  0  0  0  0  0  0  0  0  0  0
  142.9866   73.7555  216.5844 H   0  0  0  0  0  0  0  0  0  0  0  0
  144.6718   72.2920  217.5879 H   0  0  0  0  0  0  0  0  0  0  0  0
  146.2104   71.7413  219.4675 H   0  0  0  0  0  0  0  0  0  0  0  0
  144.8513   75.2944  221.5456 H   0  0  0  0  0  0  0  0  0  0  0  0
  1  2  2  0
  2  3  1  0
  3  4  1  0
  4  5  1  0
  5  6  2  0
  5  7  1  0
  7  8  1  0
  8  9  1  0
  9 10  1  0
 10 11  1  0
 11 12  1  0
 12 13  1  0
 13 14  2  0
 14 15  1  0
 15 16  2  0
 16 17  1  0
 16 18  1  0
 18 19  2  0
  2 20  1  0
 20 21  2  0
 21 22  1  0
 22 23  2  0
 23 24  1  0
 24 25  2  0
 25 26  1  0
 26 27  1  0
 26 28  2  0
 28 29  1  0
 29 30  2  0
 12  7  1  0
 19 13  1  0
 30 20  1  0
 29 23  1  0
  3 31  1  0
  4 32  1  0
  4 33  1  0
  8 34  1  0
  8 35  1  0
  9 36  1  0
  9 37  1  0
 10 38  1  0
 10 39  1  0
 11 40  1  0
 11 41  1  0
 12 42  1  1
 14 43  1  0
 15 44  1  0
 18 45  1  0
 19 46  1  0
 21 47  1  0
 22 48  1  0
 24 49  1  0
 25 50  1  0
 28 51  1  0
M  END
>  <smiles>  (19) 
O=C(NCC(=O)N1CCCCC1c1ccc(Cl)cc1)c1ccc2ccc(Cl)cc2n1

>  <score_type>  (19) 
oracle

>  <origin>  (19) 
autodockgpu

>  <m_score__min__energy>  (19) 
-8.6099999999999994

>  <m_primary>  (19) 
energy

>  <rmsd>  (19) 
7.958506698282886

>  <m_score__min__rmsd>  (19) 
7.958506698282886

>  <meeko>  (19) 
{"free_energy": -7.36, "intermolecular_energy": -8.86, "internal_energy": -2.72, "cluster_size": 22, "cluster_id": 5, "rank_in_cluster": 5}

>  <energy>  (19) 
-7.34

>  <cluster_rmsd>  (19) 
0.21

>  <cluster>  (19) 
5

$$$$

     RDKit          3D

 51 54  0  0  0  0  0  0  0  0999 V2000
  138.9690   73.6250  221.5140 O   0  0  0  0  0  0  0  0  0  0  0  0
  139.9200   74.4200  221.6120 C   0  0  0  0  0  0  0  0  0  0  0  0
  141.2600   73.9780  221.3020 N   0  0  0  0  0  0  0  0  0  0  0  0
  141.5920   72.6680  220.8770 C   0  0  0  0  0  0  0  0  0  0  0  0
  142.4320   72.4320  219.7180 C   0  0  0  0  0  0  0  0  0  0  0  0
  141.8520   71.6770  218.8180 O   0  0  0  0  0  0  0  0  0  0  0  0
  143.7170   72.8400  219.3790 N   0  0  0  0  0  0  0  0  0  0  0  0
  144.8610   71.9730  219.0590 C   0  0  0  0  0  0  0  0  0  0  0  0
  145.9650   72.2170  220.0490 C   0  0  0  0  0  0  0  0  0  0  0  0
  145.6520   73.2610  221.0620 C   0  0  0  0  0  0  0  0  0  0  0  0
  145.0460   74.5270  220.4970 C   0  0  0  0  0  0  0  0  0  0  0  0
  144.1230   74.2750  219.3450 C   0  0  2  0  0  0  0  0  0  0  0  0
  143.0500   75.2180  219.1460 C   0  0  0  0  0  0  0  0  0  0  0  0
  141.9110   75.0390  218.3950 C   0  0  0  0  0  0  0  0  0  0  0  0
  140.9090   75.9790  218.2870 C   0  0  0  0  0  0  0  0  0  0  0  0
  141.0130   77.1820  218.9520 C   0  0  0  0  0  0  0  0  0  0  0  0
  139.7890   78.4290  218.8690 Cl  0  0  0  0  0  0  0  0  0  0  0  0
  142.1430   77.3910  219.7110 C   0  0  0  0  0  0  0  0  0  0  0  0
  143.1320   76.4530  219.8140 C   0  0  0  0  0  0  0  0  0  0  0  0
  139.6910   75.8160  222.0430 C   0  0  0  0  0  0  0  0  0  0  0  0
  138.3940   76.2780  222.1090 C   0  0  0  0  0  0  0  0  0  0  0  0
  138.2340   77.6010  222.5220 C   0  0  0  0  0  0  0  0  0  0  0  0
  139.3090   78.4010  222.8440 C   0  0  0  0  0  0  0  0  0  0  0  0
  139.1790   79.7120  223.2540 C   0  0  0  0  0  0  0  0  0  0  0  0
  140.2810   80.5020  223.5750 C   0  0  0  0  0  0  0  0  0  0  0  0
  141.5360   79.9350  223.4730 C   0  0  0  0  0  0  0  0  0  0  0  0
  142.9580   80.9010  223.8700 Cl  0  0  0  0  0  0  0  0  0  0  0  0
  141.7170   78.6150  223.0630 C   0  0  0  0  0  0  0  0  0  0  0  0
  140.5870   77.8840  222.7580 C   0  0  0  0  0  0  0  0  0  0  0  0
  140.7260   76.6060  222.3600 N   0  0  0  0  0  0  0  0  0  0  0  0
  141.9930   74.7270  221.4200 H   0  0  0  0  0  0  0  0  0  0  0  0
  142.0957   72.1853  221.7275 H   0  0  0  0  0  0  0  0  0  0  0  0
  140.6193   72.2763  220.5447 H   0  0  0  0  0  0  0  0  0  0  0  0
  144.5486   70.9195  219.1101 H   0  0  0  0  0  0  0  0  0  0  0  0
  145.2208   72.1993  218.0445 H   0  0  0  0  0  0  0  0  0  0  0  0
  146.1706   71.2740  220.5768 H   0  0  0  0  0  0  0  0  0  0  0  0
  146.8308   72.5802  219.4759 H   0  0  0  0  0  0  0  0  0  0  0  0
  144.9420   72.8344  221.7858 H   0  0  0  0  0  0  0  0  0  0  0  0
  146.6108   73.5509  221.5166 H   0  0  0  0  0  0  0  0  0  0  0  0
  144.4803   75.0303  221.2949 H   0  0  0  0  0  0  0  0  0  0  0  0
  145.8738   75.1477  220.1234 H   0  0  0  0  0  0  0  0  0  0  0  0
  144.6873   74.4725  218.4217 H   0  0  0  0  0  0  0  0  0  0  0  0
  141.7935   74.0911  217.8495 H   0  0  0  0  0  0  0  0  0  0  0  0
  140.0239   75.7688  217.6686 H   0  0  0  0  0  0  0  0  0  0  0  0
  142.2532   78.3428  220.2514 H   0  0  0  0  0  0  0  0  0  0  0  0
  144.0139   76.6695  220.4348 H   0  0  0  0  0  0  0  0  0  0  0  0
  137.5352   75.6408  221.8511 H   0  0  0  0  0  0  0  0  0  0  0  0
  137.2187   78.0183  222.5928 H   0  0  0  0  0  0  0  0  0  0  0  0
  138.1720   80.1480  223.3300 H   0  0  0  0  0  0  0  0  0  0  0  0
  140.1551   81.5454  223.8997 H   0  0  0  0  0  0  0  0  0  0  0  0
  142.7214   78.1733  222.9856 H   0  0  0  0  0  0  0  0  0  0  0  0
  1  2  2  0
  2  3  1  0
  3  4  1  0
  4  5  1  0
  5  6  2  0
  5  7  1  0
  7  8  1  0
  8  9  1  0
  9 10  1  0
 10 11  1  0
 11 12  1  0
 12 13  1  0
 13 14  2  0
 14 15  1  0
 15 16  2  0
 16 17  1  0
 16 18  1  0
 18 19  2  0
  2 20  1  0
 20 21  2  0
 21 22  1  0
 22 23  2  0
 23 24  1  0
 24 25  2  0
 25 26  1  0
 26 27  1  0
 26 28  2  0
 28 29  1  0
 29 30  2  0
 12  7  1  0
 19 13  1  0
 30 20  1  0
 29 23  1  0
  3 31  1  0
  4 32  1  0
  4 33  1  0
  8 34  1  0
  8 35  1  0
  9 36  1  0
  9 37  1  0
 10 38  1  0
 10 39  1  0
 11 40  1  0
 11 41  1  0
 12 42  1  6
 14 43  1  0
 15 44  1  0
 18 45  1  0
 19 46  1  0
 21 47  1  0
 22 48  1  0
 24 49  1  0
 25 50  1  0
 28 51  1  0
M  END
>  <smiles>  (20) 
O=C(NCC(=O)N1CCCCC1c1ccc(Cl)cc1)c1ccc2ccc(Cl)cc2n1

>  <score_type>  (20) 
oracle

>  <origin>  (20) 
autodockgpu

>  <m_score__min__energy>  (20) 
-8.6099999999999994

>  <m_primary>  (20) 
energy

>  <rmsd>  (20) 
7.048416804844181

>  <m_score__min__rmsd>  (20) 
7.048416804844181

>  <meeko>  (20) 
{"free_energy": -6.98, "intermolecular_energy": -8.47, "internal_energy": -3.04, "cluster_size": 14, "cluster_id": 6, "rank_in_cluster": 8}

>  <energy>  (20) 
-7.32

>  <cluster_rmsd>  (20) 
0.23

>  <cluster>  (20) 
5

$$$$

     RDKit          3D

 51 54  0  0  0  0  0  0  0  0999 V2000
  140.8550   77.8630  217.7380 O   0  0  0  0  0  0  0  0  0  0  0  0
  141.7260   77.6170  218.5910 C   0  0  0  0  0  0  0  0  0  0  0  0
  142.0030   78.5790  219.6320 N   0  0  0  0  0  0  0  0  0  0  0  0
  141.3380   79.8240  219.7690 C   0  0  0  0  0  0  0  0  0  0  0  0
  140.4090   80.0760  220.8540 C   0  0  0  0  0  0  0  0  0  0  0  0
  139.1800   80.2480  220.4390 O   0  0  0  0  0  0  0  0  0  0  0  0
  140.5660   80.1750  222.2320 N   0  0  0  0  0  0  0  0  0  0  0  0
  140.5850   81.4120  223.0300 C   0  0  0  0  0  0  0  0  0  0  0  0
  141.9090   81.5340  223.7300 C   0  0  0  0  0  0  0  0  0  0  0  0
  142.8380   80.4000  223.4740 C   0  0  0  0  0  0  0  0  0  0  0  0
  142.2090   79.0290  223.5930 C   0  0  0  0  0  0  0  0  0  0  0  0
  140.7930   78.9870  223.1040 C   0  0  2  0  0  0  0  0  0  0  0  0
  140.3190   77.7310  222.5770 C   0  0  0  0  0  0  0  0  0  0  0  0
  141.0710   76.7260  222.0140 C   0  0  0  0  0  0  0  0  0  0  0  0
  140.5450   75.5330  221.5680 C   0  0  0  0  0  0  0  0  0  0  0  0
  139.1920   75.2910  221.6720 C   0  0  0  0  0  0  0  0  0  0  0  0
  138.4420   73.8050  221.1310 Cl  0  0  0  0  0  0  0  0  0  0  0  0
  138.4120   76.2790  222.2300 C   0  0  0  0  0  0  0  0  0  0  0  0
  138.9420   77.4600  222.6710 C   0  0  0  0  0  0  0  0  0  0  0  0
  142.4810   76.3470  218.5480 C   0  0  0  0  0  0  0  0  0  0  0  0
  142.3040   75.5130  217.4660 C   0  0  0  0  0  0  0  0  0  0  0  0
  143.0400   74.3280  217.4760 C   0  0  0  0  0  0  0  0  0  0  0  0
  143.8950   74.0070  218.5070 C   0  0  0  0  0  0  0  0  0  0  0  0
  144.6340   72.8430  218.5430 C   0  0  0  0  0  0  0  0  0  0  0  0
  145.4930   72.5410  219.5970 C   0  0  0  0  0  0  0  0  0  0  0  0
  145.5930   73.4490  220.6310 C   0  0  0  0  0  0  0  0  0  0  0  0
  146.6690   73.1050  221.9860 Cl  0  0  0  0  0  0  0  0  0  0  0  0
  144.8670   74.6390  220.6410 C   0  0  0  0  0  0  0  0  0  0  0  0
  144.0320   74.8820  219.5680 C   0  0  0  0  0  0  0  0  0  0  0  0
  143.3170   76.0210  219.5450 N   0  0  0  0  0  0  0  0  0  0  0  0
  142.7600   78.2770  220.3000 H   0  0  0  0  0  0  0  0  0  0  0  0
  142.1252   80.5878  219.8519 H   0  0  0  0  0  0  0  0  0  0  0  0
  140.6788   79.8359  218.8884 H   0  0  0  0  0  0  0  0  0  0  0  0
  140.4387   82.2782  222.3679 H   0  0  0  0  0  0  0  0  0  0  0  0
  139.7767   81.3808  223.7755 H   0  0  0  0  0  0  0  0  0  0  0  0
  142.3944   82.4614  223.3919 H   0  0  0  0  0  0  0  0  0  0  0  0
  141.6983   81.5341  224.8096 H   0  0  0  0  0  0  0  0  0  0  0  0
  143.2366   80.5069  222.4543 H   0  0  0  0  0  0  0  0  0  0  0  0
  143.6157   80.4538  224.2501 H   0  0  0  0  0  0  0  0  0  0  0  0
  142.8047   78.3181  223.0017 H   0  0  0  0  0  0  0  0  0  0  0  0
  142.1949   78.7664  224.6611 H   0  0  0  0  0  0  0  0  0  0  0  0
  140.1378   79.0521  223.9852 H   0  0  0  0  0  0  0  0  0  0  0  0
  142.1550   76.8839  221.9141 H   0  0  0  0  0  0  0  0  0  0  0  0
  141.2063   74.7721  221.1280 H   0  0  0  0  0  0  0  0  0  0  0  0
  137.3286   76.1131  222.3240 H   0  0  0  0  0  0  0  0  0  0  0  0
  138.2751   78.2166  223.1100 H   0  0  0  0  0  0  0  0  0  0  0  0
  141.6215   75.7669  216.6415 H   0  0  0  0  0  0  0  0  0  0  0  0
  142.9342   73.6280  216.6341 H   0  0  0  0  0  0  0  0  0  0  0  0
  144.5419   72.1291  217.7112 H   0  0  0  0  0  0  0  0  0  0  0  0
  146.0740   71.6070  219.6048 H   0  0  0  0  0  0  0  0  0  0  0  0
  144.9556   75.3560  221.4705 H   0  0  0  0  0  0  0  0  0  0  0  0
  1  2  2  0
  2  3  1  0
  3  4  1  0
  4  5  1  0
  5  6  2  0
  5  7  1  0
  7  8  1  0
  8  9  1  0
  9 10  1  0
 10 11  1  0
 11 12  1  0
 12 13  1  0
 13 14  2  0
 14 15  1  0
 15 16  2  0
 16 17  1  0
 16 18  1  0
 18 19  2  0
  2 20  1  0
 20 21  2  0
 21 22  1  0
 22 23  2  0
 23 24  1  0
 24 25  2  0
 25 26  1  0
 26 27  1  0
 26 28  2  0
 28 29  1  0
 29 30  2  0
 12  7  1  0
 19 13  1  0
 30 20  1  0
 29 23  1  0
  3 31  1  0
  4 32  1  0
  4 33  1  0
  8 34  1  0
  8 35  1  0
  9 36  1  0
  9 37  1  0
 10 38  1  0
 10 39  1  0
 11 40  1  0
 11 41  1  0
 12 42  1  1
 14 43  1  0
 15 44  1  0
 18 45  1  0
 19 46  1  0
 21 47  1  0
 22 48  1  0
 24 49  1  0
 25 50  1  0
 28 51  1  0
M  END
>  <smiles>  (21) 
O=C(NCC(=O)N1CCCCC1c1ccc(Cl)cc1)c1ccc2ccc(Cl)cc2n1

>  <score_type>  (21) 
oracle

>  <origin>  (21) 
autodockgpu

>  <m_score__min__energy>  (21) 
-8.6099999999999994

>  <m_primary>  (21) 
energy

>  <rmsd>  (21) 
7.976108870100123

>  <m_score__min__rmsd>  (21) 
7.976108870100123

>  <meeko>  (21) 
{"free_energy": -7.43, "intermolecular_energy": -8.92, "internal_energy": -2.66, "cluster_size": 22, "cluster_id": 5, "rank_in_cluster": 3}

>  <energy>  (21) 
-7.31

>  <cluster_rmsd>  (21) 
0.29

>  <cluster>  (21) 
5

$$$$

     RDKit          3D

 51 54  0  0  0  0  0  0  0  0999 V2000
  140.5520   77.8030  217.8870 O   0  0  0  0  0  0  0  0  0  0  0  0
  141.5010   77.6330  218.6730 C   0  0  0  0  0  0  0  0  0  0  0  0
  141.8090   78.6450  219.6570 N   0  0  0  0  0  0  0  0  0  0  0  0
  141.0900   79.8570  219.8100 C   0  0  0  0  0  0  0  0  0  0  0  0
  140.2520   80.1050  220.9680 C   0  0  0  0  0  0  0  0  0  0  0  0
  139.0130   80.3790  220.6470 O   0  0  0  0  0  0  0  0  0  0  0  0
  140.5030   80.1150  222.3360 N   0  0  0  0  0  0  0  0  0  0  0  0
  140.6250   81.2990  223.2010 C   0  0  0  0  0  0  0  0  0  0  0  0
  141.9970   81.3300  223.8140 C   0  0  0  0  0  0  0  0  0  0  0  0
  142.8600   80.1810  223.4300 C   0  0  0  0  0  0  0  0  0  0  0  0
  142.1850   78.8290  223.5130 C   0  0  0  0  0  0  0  0  0  0  0  0
  140.7390   78.8690  223.1200 C   0  0  2  0  0  0  0  0  0  0  0  0
  140.1810   77.6650  222.5540 C   0  0  0  0  0  0  0  0  0  0  0  0
  138.8530   77.3910  222.3220 C   0  0  0  0  0  0  0  0  0  0  0  0
  138.4010   76.2270  221.7380 C   0  0  0  0  0  0  0  0  0  0  0  0
  139.2970   75.2550  221.3470 C   0  0  0  0  0  0  0  0  0  0  0  0
  138.8100   73.7500  220.6000 Cl  0  0  0  0  0  0  0  0  0  0  0  0
  140.6340   75.5010  221.5670 C   0  0  0  0  0  0  0  0  0  0  0  0
  141.0740   76.6580  222.1470 C   0  0  0  0  0  0  0  0  0  0  0  0
  142.3190   76.4030  218.6070 C   0  0  0  0  0  0  0  0  0  0  0  0
  142.1710   75.5750  217.5160 C   0  0  0  0  0  0  0  0  0  0  0  0
  142.9660   74.4280  217.5040 C   0  0  0  0  0  0  0  0  0  0  0  0
  143.8480   74.1380  218.5230 C   0  0  0  0  0  0  0  0  0  0  0  0
  144.6440   73.0120  218.5370 C   0  0  0  0  0  0  0  0  0  0  0  0
  145.5280   72.7410  219.5780 C   0  0  0  0  0  0  0  0  0  0  0  0
  145.5940   73.6420  220.6230 C   0  0  0  0  0  0  0  0  0  0  0  0
  146.7000   73.3360  221.9630 Cl  0  0  0  0  0  0  0  0  0  0  0  0
  144.8090   74.7930  220.6540 C   0  0  0  0  0  0  0  0  0  0  0  0
  143.9520   75.0060  219.5930 C   0  0  0  0  0  0  0  0  0  0  0  0
  143.1810   76.1080  219.5910 N   0  0  0  0  0  0  0  0  0  0  0  0
  142.6330   78.4050  220.2700 H   0  0  0  0  0  0  0  0  0  0  0  0
  141.8368   80.6644  219.7899 H   0  0  0  0  0  0  0  0  0  0  0  0
  140.3528   79.7965  218.9959 H   0  0  0  0  0  0  0  0  0  0  0  0
  140.4699   82.2086  222.6022 H   0  0  0  0  0  0  0  0  0  0  0  0
  139.8677   81.2519  223.9974 H   0  0  0  0  0  0  0  0  0  0  0  0
  142.4959   82.2578  223.4973 H   0  0  0  0  0  0  0  0  0  0  0  0
  141.8588   81.2725  224.9038 H   0  0  0  0  0  0  0  0  0  0  0  0
  143.1939   80.3344  222.3932 H   0  0  0  0  0  0  0  0  0  0  0  0
  143.6893   80.1596  224.1524 H   0  0  0  0  0  0  0  0  0  0  0  0
  142.7109   78.1333  222.8426 H   0  0  0  0  0  0  0  0  0  0  0  0
  142.2309   78.5032  224.5626 H   0  0  0  0  0  0  0  0  0  0  0  0
  140.1466   78.9050  224.0462 H   0  0  0  0  0  0  0  0  0  0  0  0
  138.1088   78.1443  222.6197 H   0  0  0  0  0  0  0  0  0  0  0  0
  137.3228   76.0734  221.5836 H   0  0  0  0  0  0  0  0  0  0  0  0
  141.3715   74.7422  221.2664 H   0  0  0  0  0  0  0  0  0  0  0  0
  142.1535   76.8049  222.2991 H   0  0  0  0  0  0  0  0  0  0  0  0
  141.4675   75.8044  216.7021 H   0  0  0  0  0  0  0  0  0  0  0  0
  142.8863   73.7335  216.6547 H   0  0  0  0  0  0  0  0  0  0  0  0
  144.5783   72.3042  217.6976 H   0  0  0  0  0  0  0  0  0  0  0  0
  146.1547   71.8370  219.5686 H   0  0  0  0  0  0  0  0  0  0  0  0
  144.8699   75.5040  221.4912 H   0  0  0  0  0  0  0  0  0  0  0  0
  1  2  2  0
  2  3  1  0
  3  4  1  0
  4  5  1  0
  5  6  2  0
  5  7  1  0
  7  8  1  0
  8  9  1  0
  9 10  1  0
 10 11  1  0
 11 12  1  0
 12 13  1  0
 13 14  2  0
 14 15  1  0
 15 16  2  0
 16 17  1  0
 16 18  1  0
 18 19  2  0
  2 20  1  0
 20 21  2  0
 21 22  1  0
 22 23  2  0
 23 24  1  0
 24 25  2  0
 25 26  1  0
 26 27  1  0
 26 28  2  0
 28 29  1  0
 29 30  2  0
 12  7  1  0
 19 13  1  0
 30 20  1  0
 29 23  1  0
  3 31  1  0
  4 32  1  0
  4 33  1  0
  8 34  1  0
  8 35  1  0
  9 36  1  0
  9 37  1  0
 10 38  1  0
 10 39  1  0
 11 40  1  0
 11 41  1  0
 12 42  1  1
 14 43  1  0
 15 44  1  0
 18 45  1  0
 19 46  1  0
 21 47  1  0
 22 48  1  0
 24 49  1  0
 25 50  1  0
 28 51  1  0
M  END
>  <smiles>  (22) 
O=C(NCC(=O)N1CCCCC1c1ccc(Cl)cc1)c1ccc2ccc(Cl)cc2n1

>  <score_type>  (22) 
oracle

>  <origin>  (22) 
autodockgpu

>  <m_score__min__energy>  (22) 
-8.6099999999999994

>  <m_primary>  (22) 
energy

>  <rmsd>  (22) 
7.957336392680715

>  <m_score__min__rmsd>  (22) 
7.957336392680715

>  <meeko>  (22) 
{"free_energy": -7.34, "intermolecular_energy": -8.83, "internal_energy": -2.89, "cluster_size": 22, "cluster_id": 5, "rank_in_cluster": 7}

>  <energy>  (22) 
-7.3

>  <cluster_rmsd>  (22) 
0.23

>  <cluster>  (22) 
5

$$$$

     RDKit          3D

 51 54  0  0  0  0  0  0  0  0999 V2000
  141.0210   71.4350  221.3650 O   0  0  0  0  0  0  0  0  0  0  0  0
  140.7290   72.4810  221.9710 C   0  0  0  0  0  0  0  0  0  0  0  0
  140.0440   72.4080  223.2400 N   0  0  0  0  0  0  0  0  0  0  0  0
  139.6660   71.2000  223.8780 C   0  0  0  0  0  0  0  0  0  0  0  0
  140.2760   70.7720  225.1230 C   0  0  0  0  0  0  0  0  0  0  0  0
  141.5310   71.1340  225.2230 O   0  0  0  0  0  0  0  0  0  0  0  0
  139.7990   70.0580  226.2160 N   0  0  0  0  0  0  0  0  0  0  0  0
  139.9910   70.3890  227.6370 C   0  0  0  0  0  0  0  0  0  0  0  0
  140.7340   69.2720  228.3140 C   0  0  0  0  0  0  0  0  0  0  0  0
  141.0620   68.1300  227.4180 C   0  0  0  0  0  0  0  0  0  0  0  0
  139.9160   67.6620  226.5480 C   0  0  0  0  0  0  0  0  0  0  0  0
  139.0400   68.7820  226.0750 C   0  0  2  0  0  0  0  0  0  0  0  0
  138.3650   68.5990  224.8140 C   0  0  0  0  0  0  0  0  0  0  0  0
  137.1580   69.1340  224.4290 C   0  0  0  0  0  0  0  0  0  0  0  0
  136.5960   68.9420  223.1840 C   0  0  0  0  0  0  0  0  0  0  0  0
  137.2480   68.1780  222.2400 C   0  0  0  0  0  0  0  0  0  0  0  0
  136.6070   67.8850  220.6390 Cl  0  0  0  0  0  0  0  0  0  0  0  0
  138.4600   67.6290  222.5970 C   0  0  0  0  0  0  0  0  0  0  0  0
  139.0100   67.8230  223.8330 C   0  0  0  0  0  0  0  0  0  0  0  0
  141.0780   73.8000  221.4010 C   0  0  0  0  0  0  0  0  0  0  0  0
  141.7210   73.8400  220.1830 C   0  0  0  0  0  0  0  0  0  0  0  0
  142.0270   75.1090  219.6920 C   0  0  0  0  0  0  0  0  0  0  0  0
  141.7070   76.2580  220.3830 C   0  0  0  0  0  0  0  0  0  0  0  0
  141.9980   77.5250  219.9210 C   0  0  0  0  0  0  0  0  0  0  0  0
  141.6640   78.6710  220.6380 C   0  0  0  0  0  0  0  0  0  0  0  0
  141.0200   78.5130  221.8490 C   0  0  0  0  0  0  0  0  0  0  0  0
  140.5790   79.9390  222.7890 Cl  0  0  0  0  0  0  0  0  0  0  0  0
  140.7050   77.2540  222.3570 C   0  0  0  0  0  0  0  0  0  0  0  0
  141.0620   76.1560  221.6010 C   0  0  0  0  0  0  0  0  0  0  0  0
  140.7720   74.9260  222.0620 N   0  0  0  0  0  0  0  0  0  0  0  0
  139.8410   73.3500  223.6680 H   0  0  0  0  0  0  0  0  0  0  0  0
  138.5863   71.2780  224.0733 H   0  0  0  0  0  0  0  0  0  0  0  0
  140.0228   70.4388  223.1686 H   0  0  0  0  0  0  0  0  0  0  0  0
  140.5710   71.3198  227.7218 H   0  0  0  0  0  0  0  0  0  0  0  0
  139.0111   70.5232  228.1185 H   0  0  0  0  0  0  0  0  0  0  0  0
  141.6744   69.6766  228.7163 H   0  0  0  0  0  0  0  0  0  0  0  0
  140.0705   68.8793  229.0986 H   0  0  0  0  0  0  0  0  0  0  0  0
  141.8889   68.4364  226.7605 H   0  0  0  0  0  0  0  0  0  0  0  0
  141.3214   67.2849  228.0727 H   0  0  0  0  0  0  0  0  0  0  0  0
  140.3315   67.1477  225.6689 H   0  0  0  0  0  0  0  0  0  0  0  0
  139.2919   66.9942  227.1599 H   0  0  0  0  0  0  0  0  0  0  0  0
  138.1570   68.8084  226.7305 H   0  0  0  0  0  0  0  0  0  0  0  0
  136.6090   69.7507  225.1559 H   0  0  0  0  0  0  0  0  0  0  0  0
  135.6250   69.3998  222.9439 H   0  0  0  0  0  0  0  0  0  0  0  0
  139.0027   67.0146  221.8635 H   0  0  0  0  0  0  0  0  0  0  0  0
  139.9806   67.3613  224.0668 H   0  0  0  0  0  0  0  0  0  0  0  0
  141.9780   72.9244  219.6301 H   0  0  0  0  0  0  0  0  0  0  0  0
  142.5399   75.1957  218.7228 H   0  0  0  0  0  0  0  0  0  0  0  0
  142.5110   77.6335  218.9540 H   0  0  0  0  0  0  0  0  0  0  0  0
  141.9059   79.6719  220.2513 H   0  0  0  0  0  0  0  0  0  0  0  0
  140.1917   77.1399  223.3232 H   0  0  0  0  0  0  0  0  0  0  0  0
  1  2  2  0
  2  3  1  0
  3  4  1  0
  4  5  1  0
  5  6  2  0
  5  7  1  0
  7  8  1  0
  8  9  1  0
  9 10  1  0
 10 11  1  0
 11 12  1  0
 12 13  1  0
 13 14  2  0
 14 15  1  0
 15 16  2  0
 16 17  1  0
 16 18  1  0
 18 19  2  0
  2 20  1  0
 20 21  2  0
 21 22  1  0
 22 23  2  0
 23 24  1  0
 24 25  2  0
 25 26  1  0
 26 27  1  0
 26 28  2  0
 28 29  1  0
 29 30  2  0
 12  7  1  0
 19 13  1  0
 30 20  1  0
 29 23  1  0
  3 31  1  0
  4 32  1  0
  4 33  1  0
  8 34  1  0
  8 35  1  0
  9 36  1  0
  9 37  1  0
 10 38  1  0
 10 39  1  0
 11 40  1  0
 11 41  1  0
 12 42  1  1
 14 43  1  0
 15 44  1  0
 18 45  1  0
 19 46  1  0
 21 47  1  0
 22 48  1  0
 24 49  1  0
 25 50  1  0
 28 51  1  0
M  END
>  <smiles>  (23) 
O=C(NCC(=O)N1CCCCC1c1ccc(Cl)cc1)c1ccc2ccc(Cl)cc2n1

>  <score_type>  (23) 
oracle

>  <origin>  (23) 
autodockgpu

>  <m_score__min__energy>  (23) 
-8.6099999999999994

>  <m_primary>  (23) 
energy

>  <rmsd>  (23) 
8.979018399669995

>  <m_score__min__rmsd>  (23) 
8.979018399669995

>  <meeko>  (23) 
{"free_energy": -8.52, "intermolecular_energy": -10.01, "internal_energy": -1.7, "cluster_size": 8, "cluster_id": 1, "rank_in_cluster": 6}

>  <energy>  (23) 
-7.3

>  <cluster_rmsd>  (23) 
0.28

>  <cluster>  (23) 
5

$$$$

     RDKit          3D

 51 54  0  0  0  0  0  0  0  0999 V2000
  140.6020   71.1570  221.4370 O   0  0  0  0  0  0  0  0  0  0  0  0
  140.6350   72.1860  222.1340 C   0  0  0  0  0  0  0  0  0  0  0  0
  140.2980   72.1140  223.5370 N   0  0  0  0  0  0  0  0  0  0  0  0
  139.9220   70.9240  224.2100 C   0  0  0  0  0  0  0  0  0  0  0  0
  140.0030   70.8070  225.6530 C   0  0  0  0  0  0  0  0  0  0  0  0
  140.4930   71.8800  226.2220 O   0  0  0  0  0  0  0  0  0  0  0  0
  139.6720   69.7900  226.5420 N   0  0  0  0  0  0  0  0  0  0  0  0
  139.9250   69.7690  227.9910 C   0  0  0  0  0  0  0  0  0  0  0  0
  140.8180   68.6070  228.3260 C   0  0  0  0  0  0  0  0  0  0  0  0
  141.1950   67.7740  227.1520 C   0  0  0  0  0  0  0  0  0  0  0  0
  140.0450   67.4160  226.2360 C   0  0  0  0  0  0  0  0  0  0  0  0
  139.0340   68.5150  226.1050 C   0  0  2  0  0  0  0  0  0  0  0  0
  138.2980   68.5830  224.8670 C   0  0  0  0  0  0  0  0  0  0  0  0
  137.1200   69.2540  224.6330 C   0  0  0  0  0  0  0  0  0  0  0  0
  136.4970   69.3040  223.4040 C   0  0  0  0  0  0  0  0  0  0  0  0
  137.0510   68.6580  222.3200 C   0  0  0  0  0  0  0  0  0  0  0  0
  136.3270   68.6700  220.7270 Cl  0  0  0  0  0  0  0  0  0  0  0  0
  138.2310   67.9770  222.5230 C   0  0  0  0  0  0  0  0  0  0  0  0
  138.8420   67.9330  223.7440 C   0  0  0  0  0  0  0  0  0  0  0  0
  141.0180   73.4840  221.5390 C   0  0  0  0  0  0  0  0  0  0  0  0
  141.6620   73.4830  220.3210 C   0  0  0  0  0  0  0  0  0  0  0  0
  142.0000   74.7350  219.8050 C   0  0  0  0  0  0  0  0  0  0  0  0
  141.7080   75.9040  220.4720 C   0  0  0  0  0  0  0  0  0  0  0  0
  142.0310   77.1540  219.9850 C   0  0  0  0  0  0  0  0  0  0  0  0
  141.7260   78.3230  220.6780 C   0  0  0  0  0  0  0  0  0  0  0  0
  141.0780   78.2050  221.8920 C   0  0  0  0  0  0  0  0  0  0  0  0
  140.6730   79.6610  222.8020 Cl  0  0  0  0  0  0  0  0  0  0  0  0
  140.7310   76.9650  222.4250 C   0  0  0  0  0  0  0  0  0  0  0  0
  141.0610   75.8430  221.6910 C   0  0  0  0  0  0  0  0  0  0  0  0
  140.7400   74.6310  222.1770 N   0  0  0  0  0  0  0  0  0  0  0  0
  140.3540   73.0410  224.0360 H   0  0  0  0  0  0  0  0  0  0  0  0
  138.8716   70.7361  223.9428 H   0  0  0  0  0  0  0  0  0  0  0  0
  140.6899   70.2119  223.8736 H   0  0  0  0  0  0  0  0  0  0  0  0
  140.4151   70.7068  228.2914 H   0  0  0  0  0  0  0  0  0  0  0  0
  138.9710   69.6657  228.5287 H   0  0  0  0  0  0  0  0  0  0  0  0
  141.7391   68.9991  228.7818 H   0  0  0  0  0  0  0  0  0  0  0  0
  140.2508   67.9566  229.0081 H   0  0  0  0  0  0  0  0  0  0  0  0
  141.9417   68.3281  226.5642 H   0  0  0  0  0  0  0  0  0  0  0  0
  141.5789   66.8250  227.5545 H   0  0  0  0  0  0  0  0  0  0  0  0
  140.4492   67.1912  225.2379 H   0  0  0  0  0  0  0  0  0  0  0  0
  139.5318   66.5488  226.6771 H   0  0  0  0  0  0  0  0  0  0  0  0
  138.1987   68.2764  226.7798 H   0  0  0  0  0  0  0  0  0  0  0  0
  136.6478   69.7811  225.4751 H   0  0  0  0  0  0  0  0  0  0  0  0
  135.5554   69.8609  223.2884 H   0  0  0  0  0  0  0  0  0  0  0  0
  138.6959   67.4522  221.6754 H   0  0  0  0  0  0  0  0  0  0  0  0
  139.7837   67.3749  223.8520 H   0  0  0  0  0  0  0  0  0  0  0  0
  141.8960   72.5504  219.7867 H   0  0  0  0  0  0  0  0  0  0  0  0
  142.5159   74.7898  218.8350 H   0  0  0  0  0  0  0  0  0  0  0  0
  142.5470   77.2298  219.0165 H   0  0  0  0  0  0  0  0  0  0  0  0
  141.9929   79.3095  220.2711 H   0  0  0  0  0  0  0  0  0  0  0  0
  140.2144   76.8833  223.3927 H   0  0  0  0  0  0  0  0  0  0  0  0
  1  2  2  0
  2  3  1  0
  3  4  1  0
  4  5  1  0
  5  6  2  0
  5  7  1  0
  7  8  1  0
  8  9  1  0
  9 10  1  0
 10 11  1  0
 11 12  1  0
 12 13  1  0
 13 14  2  0
 14 15  1  0
 15 16  2  0
 16 17  1  0
 16 18  1  0
 18 19  2  0
  2 20  1  0
 20 21  2  0
 21 22  1  0
 22 23  2  0
 23 24  1  0
 24 25  2  0
 25 26  1  0
 26 27  1  0
 26 28  2  0
 28 29  1  0
 29 30  2  0
 12  7  1  0
 19 13  1  0
 30 20  1  0
 29 23  1  0
  3 31  1  0
  4 32  1  0
  4 33  1  0
  8 34  1  0
  8 35  1  0
  9 36  1  0
  9 37  1  0
 10 38  1  0
 10 39  1  0
 11 40  1  0
 11 41  1  0
 12 42  1  1
 14 43  1  0
 15 44  1  0
 18 45  1  0
 19 46  1  0
 21 47  1  0
 22 48  1  0
 24 49  1  0
 25 50  1  0
 28 51  1  0
M  END
>  <smiles>  (24) 
O=C(NCC(=O)N1CCCCC1c1ccc(Cl)cc1)c1ccc2ccc(Cl)cc2n1

>  <score_type>  (24) 
oracle

>  <origin>  (24) 
autodockgpu

>  <m_score__min__energy>  (24) 
-8.6099999999999994

>  <m_primary>  (24) 
energy

>  <rmsd>  (24) 
9.017554372707927

>  <m_score__min__rmsd>  (24) 
9.017554372707927

>  <meeko>  (24) 
{"free_energy": -8.41, "intermolecular_energy": -9.9, "internal_energy": -1.85, "cluster_size": 8, "cluster_id": 1, "rank_in_cluster": 7}

>  <energy>  (24) 
-7.3

>  <cluster_rmsd>  (24) 
0.33

>  <cluster>  (24) 
5

$$$$

     RDKit          3D

 51 54  0  0  0  0  0  0  0  0999 V2000
  140.5300   75.1150  218.8610 O   0  0  0  0  0  0  0  0  0  0  0  0
  140.9080   74.8360  220.0130 C   0  0  0  0  0  0  0  0  0  0  0  0
  141.8860   75.6710  220.6700 N   0  0  0  0  0  0  0  0  0  0  0  0
  142.4680   76.8270  220.0930 C   0  0  0  0  0  0  0  0  0  0  0  0
  141.7490   78.0840  220.0110 C   0  0  0  0  0  0  0  0  0  0  0  0
  141.3660   78.3700  218.7910 O   0  0  0  0  0  0  0  0  0  0  0  0
  141.3930   79.0370  220.9590 N   0  0  0  0  0  0  0  0  0  0  0  0
  141.8990   80.4150  221.0550 C   0  0  0  0  0  0  0  0  0  0  0  0
  142.5920   80.6010  222.3760 C   0  0  0  0  0  0  0  0  0  0  0  0
  142.5760   79.3940  223.2450 C   0  0  0  0  0  0  0  0  0  0  0  0
  141.2300   78.7110  223.3530 C   0  0  0  0  0  0  0  0  0  0  0  0
  140.4480   78.7470  222.0750 C   0  0  2  0  0  0  0  0  0  0  0  0
  139.5250   77.6640  221.8410 C   0  0  0  0  0  0  0  0  0  0  0  0
  139.3350   76.5480  222.6220 C   0  0  0  0  0  0  0  0  0  0  0  0
  138.3990   75.5720  222.3500 C   0  0  0  0  0  0  0  0  0  0  0  0
  137.5870   75.6820  221.2420 C   0  0  0  0  0  0  0  0  0  0  0  0
  136.3750   74.4910  220.8230 Cl  0  0  0  0  0  0  0  0  0  0  0  0
  137.7550   76.7890  220.4400 C   0  0  0  0  0  0  0  0  0  0  0  0
  138.6840   77.7520  220.7170 C   0  0  0  0  0  0  0  0  0  0  0  0
  140.3640   73.6540  220.7140 C   0  0  0  0  0  0  0  0  0  0  0  0
  139.4840   72.8370  220.0390 C   0  0  0  0  0  0  0  0  0  0  0  0
  139.0010   71.7360  220.7480 C   0  0  0  0  0  0  0  0  0  0  0  0
  139.3800   71.4790  222.0470 C   0  0  0  0  0  0  0  0  0  0  0  0
  138.9180   70.3990  222.7710 C   0  0  0  0  0  0  0  0  0  0  0  0
  139.3170   70.1600  224.0840 C   0  0  0  0  0  0  0  0  0  0  0  0
  140.2050   71.0450  224.6630 C   0  0  0  0  0  0  0  0  0  0  0  0
  140.7350   70.7790  226.3240 Cl  0  0  0  0  0  0  0  0  0  0  0  0
  140.6990   72.1510  223.9720 C   0  0  0  0  0  0  0  0  0  0  0  0
  140.2660   72.3340  222.6740 C   0  0  0  0  0  0  0  0  0  0  0  0
  140.7250   73.3910  221.9790 N   0  0  0  0  0  0  0  0  0  0  0  0
  142.1400   75.3450  221.6400 H   0  0  0  0  0  0  0  0  0  0  0  0
  143.3836   77.0316  220.6674 H   0  0  0  0  0  0  0  0  0  0  0  0
  142.5579   76.5399  219.0349 H   0  0  0  0  0  0  0  0  0  0  0  0
  142.6107   80.6025  220.2375 H   0  0  0  0  0  0  0  0  0  0  0  0
  141.0592   81.1212  220.9777 H   0  0  0  0  0  0  0  0  0  0  0  0
  143.6400   80.8726  222.1812 H   0  0  0  0  0  0  0  0  0  0  0  0
  142.0426   81.3872  222.9147 H   0  0  0  0  0  0  0  0  0  0  0  0
  143.2965   78.6692  222.8381 H   0  0  0  0  0  0  0  0  0  0  0  0
  142.8328   79.7369  224.2581 H   0  0  0  0  0  0  0  0  0  0  0  0
  141.3923   77.6601  223.6346 H   0  0  0  0  0  0  0  0  0  0  0  0
  140.6461   79.2549  224.1101 H   0  0  0  0  0  0  0  0  0  0  0  0
  139.7195   79.5671  222.1571 H   0  0  0  0  0  0  0  0  0  0  0  0
  139.9658   76.4267  223.5150 H   0  0  0  0  0  0  0  0  0  0  0  0
  138.3005   74.7042  223.0188 H   0  0  0  0  0  0  0  0  0  0  0  0
  137.1211   76.9015  219.5481 H   0  0  0  0  0  0  0  0  0  0  0  0
  138.7765   78.6174  220.0443 H   0  0  0  0  0  0  0  0  0  0  0  0
  139.1797   73.0404  219.0017 H   0  0  0  0  0  0  0  0  0  0  0  0
  138.2954   71.0520  220.2537 H   0  0  0  0  0  0  0  0  0  0  0  0
  138.2109   69.7035  222.2953 H   0  0  0  0  0  0  0  0  0  0  0  0
  138.9362   69.2924  224.6428 H   0  0  0  0  0  0  0  0  0  0  0  0
  141.4059   72.8501  224.4427 H   0  0  0  0  0  0  0  0  0  0  0  0
  1  2  2  0
  2  3  1  0
  3  4  1  0
  4  5  1  0
  5  6  2  0
  5  7  1  0
  7  8  1  0
  8  9  1  0
  9 10  1  0
 10 11  1  0
 11 12  1  0
 12 13  1  0
 13 14  2  0
 14 15  1  0
 15 16  2  0
 16 17  1  0
 16 18  1  0
 18 19  2  0
  2 20  1  0
 20 21  2  0
 21 22  1  0
 22 23  2  0
 23 24  1  0
 24 25  2  0
 25 26  1  0
 26 27  1  0
 26 28  2  0
 28 29  1  0
 29 30  2  0
 12  7  1  0
 19 13  1  0
 30 20  1  0
 29 23  1  0
  3 31  1  0
  4 32  1  0
  4 33  1  0
  8 34  1  0
  8 35  1  0
  9 36  1  0
  9 37  1  0
 10 38  1  0
 10 39  1  0
 11 40  1  0
 11 41  1  0
 12 42  1  1
 14 43  1  0
 15 44  1  0
 18 45  1  0
 19 46  1  0
 21 47  1  0
 22 48  1  0
 24 49  1  0
 25 50  1  0
 28 51  1  0
M  END
>  <smiles>  (25) 
O=C(NCC(=O)N1CCCCC1c1ccc(Cl)cc1)c1ccc2ccc(Cl)cc2n1

>  <score_type>  (25) 
oracle

>  <origin>  (25) 
autodockgpu

>  <m_score__min__energy>  (25) 
-8.6099999999999994

>  <m_primary>  (25) 
energy

>  <rmsd>  (25) 
5.14224729435503

>  <m_score__min__rmsd>  (25) 
5.14224729435503

>  <meeko>  (25) 
{"free_energy": -6.46, "intermolecular_energy": -7.95, "internal_energy": -3.1, "cluster_size": 1, "cluster_id": 8, "rank_in_cluster": 1}

>  <energy>  (25) 
-7.27

>  <cluster_rmsd>  (25) 
0.29

>  <cluster>  (25) 
5

$$$$

     RDKit          3D

 51 54  0  0  0  0  0  0  0  0999 V2000
  139.9200   72.7980  220.2730 O   0  0  0  0  0  0  0  0  0  0  0  0
  139.7620   72.9900  221.4910 C   0  0  0  0  0  0  0  0  0  0  0  0
  139.7550   74.3380  222.0110 N   0  0  0  0  0  0  0  0  0  0  0  0
  139.9150   75.5020  221.2190 C   0  0  0  0  0  0  0  0  0  0  0  0
  140.9660   76.4660  221.4850 C   0  0  0  0  0  0  0  0  0  0  0  0
  141.2260   76.5930  222.7620 O   0  0  0  0  0  0  0  0  0  0  0  0
  141.7390   77.2780  220.6620 N   0  0  0  0  0  0  0  0  0  0  0  0
  141.8200   78.7470  220.6970 C   0  0  0  0  0  0  0  0  0  0  0  0
  141.3620   79.3040  219.3790 C   0  0  0  0  0  0  0  0  0  0  0  0
  140.9760   78.2680  218.3830 C   0  0  0  0  0  0  0  0  0  0  0  0
  141.9530   77.1200  218.2550 C   0  0  0  0  0  0  0  0  0  0  0  0
  142.5820   76.7340  219.5590 C   0  0  2  0  0  0  0  0  0  0  0  0
  142.9880   75.3590  219.7090 C   0  0  0  0  0  0  0  0  0  0  0  0
  144.0280   74.8740  220.4680 C   0  0  0  0  0  0  0  0  0  0  0  0
  144.3280   73.5350  220.5920 C   0  0  0  0  0  0  0  0  0  0  0  0
  143.5690   72.5910  219.9340 C   0  0  0  0  0  0  0  0  0  0  0  0
  143.8800   70.8730  220.0350 Cl  0  0  0  0  0  0  0  0  0  0  0  0
  142.5210   73.0460  219.1640 C   0  0  0  0  0  0  0  0  0  0  0  0
  142.2300   74.3760  219.0470 C   0  0  0  0  0  0  0  0  0  0  0  0
  139.5810   71.8490  222.4130 C   0  0  0  0  0  0  0  0  0  0  0  0
  138.8870   70.7460  221.9640 C   0  0  0  0  0  0  0  0  0  0  0  0
  138.7450   69.6980  222.8740 C   0  0  0  0  0  0  0  0  0  0  0  0
  139.2670   69.7600  224.1480 C   0  0  0  0  0  0  0  0  0  0  0  0
  139.1410   68.7390  225.0670 C   0  0  0  0  0  0  0  0  0  0  0  0
  139.6770   68.8240  226.3500 C   0  0  0  0  0  0  0  0  0  0  0  0
  140.3540   69.9770  226.6930 C   0  0  0  0  0  0  0  0  0  0  0  0
  141.0490   70.1270  228.3080 Cl  0  0  0  0  0  0  0  0  0  0  0  0
  140.5080   71.0360  225.7990 C   0  0  0  0  0  0  0  0  0  0  0  0
  139.9530   70.8920  224.5430 C   0  0  0  0  0  0  0  0  0  0  0  0
  140.0830   71.8940  223.6560 N   0  0  0  0  0  0  0  0  0  0  0  0
  139.6180   74.3900  223.0550 H   0  0  0  0  0  0  0  0  0  0  0  0
  140.0674   75.1551  220.1863 H   0  0  0  0  0  0  0  0  0  0  0  0
  139.0062   76.0743  221.4570 H   0  0  0  0  0  0  0  0  0  0  0  0
  141.1755   79.1310  221.5015 H   0  0  0  0  0  0  0  0  0  0  0  0
  142.8599   79.0531  220.8836 H   0  0  0  0  0  0  0  0  0  0  0  0
  140.4904   79.9500  219.5610 H   0  0  0  0  0  0  0  0  0  0  0  0
  142.2151   79.8520  218.9524 H   0  0  0  0  0  0  0  0  0  0  0  0
  139.9997   77.8559  218.6779 H   0  0  0  0  0  0  0  0  0  0  0  0
  140.9558   78.7697  217.4043 H   0  0  0  0  0  0  0  0  0  0  0  0
  141.4170   76.2475  217.8533 H   0  0  0  0  0  0  0  0  0  0  0  0
  142.7615   77.4510  217.5866 H   0  0  0  0  0  0  0  0  0  0  0  0
  143.5765   77.2025  219.5964 H   0  0  0  0  0  0  0  0  0  0  0  0
  144.6568   75.5976  221.0074 H   0  0  0  0  0  0  0  0  0  0  0  0
  145.1755   73.2184  221.2177 H   0  0  0  0  0  0  0  0  0  0  0  0
  141.8988   72.3154  218.6263 H   0  0  0  0  0  0  0  0  0  0  0  0
  141.3815   74.6859  218.4193 H   0  0  0  0  0  0  0  0  0  0  0  0
  138.4695   70.6950  220.9476 H   0  0  0  0  0  0  0  0  0  0  0  0
  138.1995   68.7942  222.5650 H   0  0  0  0  0  0  0  0  0  0  0  0
  138.5990   67.8268  224.7769 H   0  0  0  0  0  0  0  0  0  0  0  0
  139.5642   67.9979  227.0675 H   0  0  0  0  0  0  0  0  0  0  0  0
  141.0502   71.9499  226.0832 H   0  0  0  0  0  0  0  0  0  0  0  0
  1  2  2  0
  2  3  1  0
  3  4  1  0
  4  5  1  0
  5  6  2  0
  5  7  1  0
  7  8  1  0
  8  9  1  0
  9 10  1  0
 10 11  1  0
 11 12  1  0
 12 13  1  0
 13 14  2  0
 14 15  1  0
 15 16  2  0
 16 17  1  0
 16 18  1  0
 18 19  2  0
  2 20  1  0
 20 21  2  0
 21 22  1  0
 22 23  2  0
 23 24  1  0
 24 25  2  0
 25 26  1  0
 26 27  1  0
 26 28  2  0
 28 29  1  0
 29 30  2  0
 12  7  1  0
 19 13  1  0
 30 20  1  0
 29 23  1  0
  3 31  1  0
  4 32  1  0
  4 33  1  0
  8 34  1  0
  8 35  1  0
  9 36  1  0
  9 37  1  0
 10 38  1  0
 10 39  1  0
 11 40  1  0
 11 41  1  0
 12 42  1  6
 14 43  1  0
 15 44  1  0
 18 45  1  0
 19 46  1  0
 21 47  1  0
 22 48  1  0
 24 49  1  0
 25 50  1  0
 28 51  1  0
M  END
>  <smiles>  (26) 
O=C(NCC(=O)N1CCCCC1c1ccc(Cl)cc1)c1ccc2ccc(Cl)cc2n1

>  <score_type>  (26) 
oracle

>  <origin>  (26) 
autodockgpu

>  <m_score__min__energy>  (26) 
-8.6099999999999994

>  <m_primary>  (26) 
energy

>  <rmsd>  (26) 
2.7604879307783285

>  <m_score__min__rmsd>  (26) 
2.7604879307783285

>  <meeko>  (26) 
{"free_energy": -7.42, "intermolecular_energy": -8.91, "internal_energy": -2.22, "cluster_size": 1, "cluster_id": 7, "rank_in_cluster": 1}

>  <energy>  (26) 
-7.26

>  <cluster_rmsd>  (26) 
0.24

>  <cluster>  (26) 
5

$$$$

     RDKit          3D

 51 54  0  0  0  0  0  0  0  0999 V2000
  140.2940   77.6390  218.1660 O   0  0  0  0  0  0  0  0  0  0  0  0
  141.3610   77.5730  218.8020 C   0  0  0  0  0  0  0  0  0  0  0  0
  141.7610   78.6740  219.6470 N   0  0  0  0  0  0  0  0  0  0  0  0
  141.0100   79.8640  219.8210 C   0  0  0  0  0  0  0  0  0  0  0  0
  140.1750   80.0750  220.9880 C   0  0  0  0  0  0  0  0  0  0  0  0
  138.9250   80.3150  220.6790 O   0  0  0  0  0  0  0  0  0  0  0  0
  140.4360   80.0790  222.3530 N   0  0  0  0  0  0  0  0  0  0  0  0
  140.4840   81.2540  223.2380 C   0  0  0  0  0  0  0  0  0  0  0  0
  141.8550   81.3690  223.8410 C   0  0  0  0  0  0  0  0  0  0  0  0
  142.7920   80.2890  223.4300 C   0  0  0  0  0  0  0  0  0  0  0  0
  142.2130   78.8930  223.4940 C   0  0  0  0  0  0  0  0  0  0  0  0
  140.7650   78.8390  223.1130 C   0  0  2  0  0  0  0  0  0  0  0  0
  140.2860   77.6100  222.5300 C   0  0  0  0  0  0  0  0  0  0  0  0
  141.0400   76.5440  222.0960 C   0  0  0  0  0  0  0  0  0  0  0  0
  140.5020   75.3820  221.5850 C   0  0  0  0  0  0  0  0  0  0  0  0
  139.1350   75.2370  221.4850 C   0  0  0  0  0  0  0  0  0  0  0  0
  138.3700   73.7980  220.8490 Cl  0  0  0  0  0  0  0  0  0  0  0  0
  138.3540   76.2880  221.9110 C   0  0  0  0  0  0  0  0  0  0  0  0
  138.8950   77.4370  222.4170 C   0  0  0  0  0  0  0  0  0  0  0  0
  142.2230   76.3770  218.7010 C   0  0  0  0  0  0  0  0  0  0  0  0
  142.1080   75.5760  217.5860 C   0  0  0  0  0  0  0  0  0  0  0  0
  142.9440   74.4610  217.5410 C   0  0  0  0  0  0  0  0  0  0  0  0
  143.8350   74.1740  218.5520 C   0  0  0  0  0  0  0  0  0  0  0  0
  144.6730   73.0780  218.5340 C   0  0  0  0  0  0  0  0  0  0  0  0
  145.5660   72.8090  219.5680 C   0  0  0  0  0  0  0  0  0  0  0  0
  145.5980   73.6800  220.6390 C   0  0  0  0  0  0  0  0  0  0  0  0
  146.7150   73.3760  221.9700 Cl  0  0  0  0  0  0  0  0  0  0  0  0
  144.7710   74.8000  220.7030 C   0  0  0  0  0  0  0  0  0  0  0  0
  143.9070   75.0130  219.6470 C   0  0  0  0  0  0  0  0  0  0  0  0
  143.0960   76.0850  219.6770 N   0  0  0  0  0  0  0  0  0  0  0  0
  142.6810   78.5210  220.1390 H   0  0  0  0  0  0  0  0  0  0  0  0
  141.7342   80.6918  219.8051 H   0  0  0  0  0  0  0  0  0  0  0  0
  140.2679   79.7928  219.0121 H   0  0  0  0  0  0  0  0  0  0  0  0
  140.2617   82.1608  222.6564 H   0  0  0  0  0  0  0  0  0  0  0  0
  139.7386   81.1412  224.0391 H   0  0  0  0  0  0  0  0  0  0  0  0
  142.2861   82.3344  223.5373 H   0  0  0  0  0  0  0  0  0  0  0  0
  141.7305   81.2832  224.9306 H   0  0  0  0  0  0  0  0  0  0  0  0
  143.1053   80.4830  222.3936 H   0  0  0  0  0  0  0  0  0  0  0  0
  143.6271   80.3126  224.1456 H   0  0  0  0  0  0  0  0  0  0  0  0
  142.7799   78.2471  222.8074 H   0  0  0  0  0  0  0  0  0  0  0  0
  142.2904   78.5535  224.5374 H   0  0  0  0  0  0  0  0  0  0  0  0
  140.1807   78.8172  224.0447 H   0  0  0  0  0  0  0  0  0  0  0  0
  142.1352   76.6235  222.1604 H   0  0  0  0  0  0  0  0  0  0  0  0
  141.1655   74.5685  221.2563 H   0  0  0  0  0  0  0  0  0  0  0  0
  137.2597   76.2003  221.8419 H   0  0  0  0  0  0  0  0  0  0  0  0
  138.2256   78.2463  222.7439 H   0  0  0  0  0  0  0  0  0  0  0  0
  141.3974   75.8031  216.7776 H   0  0  0  0  0  0  0  0  0  0  0  0
  142.8905   73.7896  216.6713 H   0  0  0  0  0  0  0  0  0  0  0  0
  144.6343   72.3936  217.6737 H   0  0  0  0  0  0  0  0  0  0  0  0
  146.2258   71.9295  219.5327 H   0  0  0  0  0  0  0  0  0  0  0  0
  144.8052   75.4874  221.5611 H   0  0  0  0  0  0  0  0  0  0  0  0
  1  2  2  0
  2  3  1  0
  3  4  1  0
  4  5  1  0
  5  6  2  0
  5  7  1  0
  7  8  1  0
  8  9  1  0
  9 10  1  0
 10 11  1  0
 11 12  1  0
 12 13  1  0
 13 14  2  0
 14 15  1  0
 15 16  2  0
 16 17  1  0
 16 18  1  0
 18 19  2  0
  2 20  1  0
 20 21  2  0
 21 22  1  0
 22 23  2  0
 23 24  1  0
 24 25  2  0
 25 26  1  0
 26 27  1  0
 26 28  2  0
 28 29  1  0
 29 30  2  0
 12  7  1  0
 19 13  1  0
 30 20  1  0
 29 23  1  0
  3 31  1  0
  4 32  1  0
  4 33  1  0
  8 34  1  0
  8 35  1  0
  9 36  1  0
  9 37  1  0
 10 38  1  0
 10 39  1  0
 11 40  1  0
 11 41  1  0
 12 42  1  1
 14 43  1  0
 15 44  1  0
 18 45  1  0
 19 46  1  0
 21 47  1  0
 22 48  1  0
 24 49  1  0
 25 50  1  0
 28 51  1  0
M  END
>  <smiles>  (27) 
O=C(NCC(=O)N1CCCCC1c1ccc(Cl)cc1)c1ccc2ccc(Cl)cc2n1

>  <score_type>  (27) 
oracle

>  <origin>  (27) 
autodockgpu

>  <m_score__min__energy>  (27) 
-8.6099999999999994

>  <m_primary>  (27) 
energy

>  <rmsd>  (27) 
7.93389100298734

>  <m_score__min__rmsd>  (27) 
7.93389100298734

>  <meeko>  (27) 
{"free_energy": -7.3, "intermolecular_energy": -8.79, "internal_energy": -2.81, "cluster_size": 22, "cluster_id": 5, "rank_in_cluster": 11}

>  <energy>  (27) 
-7.25

>  <cluster_rmsd>  (27) 
0.33

>  <cluster>  (27) 
5

$$$$

     RDKit          3D

 51 54  0  0  0  0  0  0  0  0999 V2000
  140.3470   77.7100  218.0960 O   0  0  0  0  0  0  0  0  0  0  0  0
  141.3970   77.6320  218.7590 C   0  0  0  0  0  0  0  0  0  0  0  0
  141.7740   78.7140  219.6380 N   0  0  0  0  0  0  0  0  0  0  0  0
  141.0190   79.8990  219.8180 C   0  0  0  0  0  0  0  0  0  0  0  0
  140.2040   80.1130  220.9990 C   0  0  0  0  0  0  0  0  0  0  0  0
  138.9490   80.3520  220.7130 O   0  0  0  0  0  0  0  0  0  0  0  0
  140.4910   80.1180  222.3600 N   0  0  0  0  0  0  0  0  0  0  0  0
  140.6300   81.2990  223.2260 C   0  0  0  0  0  0  0  0  0  0  0  0
  142.0170   81.3340  223.8040 C   0  0  0  0  0  0  0  0  0  0  0  0
  142.8750   80.1910  223.3920 C   0  0  0  0  0  0  0  0  0  0  0  0
  142.2080   78.8360  223.4870 C   0  0  0  0  0  0  0  0  0  0  0  0
  140.7530   78.8700  223.1320 C   0  0  2  0  0  0  0  0  0  0  0  0
  140.1850   77.6660  222.5760 C   0  0  0  0  0  0  0  0  0  0  0  0
  138.8550   77.3980  222.3530 C   0  0  0  0  0  0  0  0  0  0  0  0
  138.3940   76.2330  221.7770 C   0  0  0  0  0  0  0  0  0  0  0  0
  139.2820   75.2540  221.3880 C   0  0  0  0  0  0  0  0  0  0  0  0
  138.7830   73.7480  220.6510 Cl  0  0  0  0  0  0  0  0  0  0  0  0
  140.6220   75.4940  221.5990 C   0  0  0  0  0  0  0  0  0  0  0  0
  141.0710   76.6520  222.1700 C   0  0  0  0  0  0  0  0  0  0  0  0
  142.2630   76.4380  218.6540 C   0  0  0  0  0  0  0  0  0  0  0  0
  142.1680   75.6550  217.5240 C   0  0  0  0  0  0  0  0  0  0  0  0
  143.0070   74.5420  217.4760 C   0  0  0  0  0  0  0  0  0  0  0  0
  143.8800   74.2400  218.4980 C   0  0  0  0  0  0  0  0  0  0  0  0
  144.7200   73.1450  218.4770 C   0  0  0  0  0  0  0  0  0  0  0  0
  145.5950   72.8610  219.5230 C   0  0  0  0  0  0  0  0  0  0  0  0
  145.6070   73.7140  220.6080 C   0  0  0  0  0  0  0  0  0  0  0  0
  146.7000   73.3900  221.9540 Cl  0  0  0  0  0  0  0  0  0  0  0  0
  144.7770   74.8320  220.6750 C   0  0  0  0  0  0  0  0  0  0  0  0
  143.9320   75.0610  219.6080 C   0  0  0  0  0  0  0  0  0  0  0  0
  143.1180   76.1320  219.6400 N   0  0  0  0  0  0  0  0  0  0  0  0
  142.6810   78.5500  220.1490 H   0  0  0  0  0  0  0  0  0  0  0  0
  141.7372   80.7314  219.7831 H   0  0  0  0  0  0  0  0  0  0  0  0
  140.2624   79.8169  219.0237 H   0  0  0  0  0  0  0  0  0  0  0  0
  140.4557   82.2101  222.6348 H   0  0  0  0  0  0  0  0  0  0  0  0
  139.8935   81.2454  224.0413 H   0  0  0  0  0  0  0  0  0  0  0  0
  142.5033   82.2657  223.4793 H   0  0  0  0  0  0  0  0  0  0  0  0
  141.9072   81.2709  224.8967 H   0  0  0  0  0  0  0  0  0  0  0  0
  143.1805   80.3505  222.3474 H   0  0  0  0  0  0  0  0  0  0  0  0
  143.7236   80.1703  224.0915 H   0  0  0  0  0  0  0  0  0  0  0  0
  142.7196   78.1453  222.8006 H   0  0  0  0  0  0  0  0  0  0  0  0
  142.2821   78.5071  224.5341 H   0  0  0  0  0  0  0  0  0  0  0  0
  140.1852   78.8983  224.0737 H   0  0  0  0  0  0  0  0  0  0  0  0
  138.1162   78.1565  222.6512 H   0  0  0  0  0  0  0  0  0  0  0  0
  137.3143   76.0849  221.6277 H   0  0  0  0  0  0  0  0  0  0  0  0
  141.3538   74.7297  221.2985 H   0  0  0  0  0  0  0  0  0  0  0  0
  142.1520   76.7943  222.3155 H   0  0  0  0  0  0  0  0  0  0  0  0
  141.4709   75.8940  216.7073 H   0  0  0  0  0  0  0  0  0  0  0  0
  142.9705   73.8848  216.5946 H   0  0  0  0  0  0  0  0  0  0  0  0
  144.6977   72.4744  217.6054 H   0  0  0  0  0  0  0  0  0  0  0  0
  146.2567   71.9831  219.4854 H   0  0  0  0  0  0  0  0  0  0  0  0
  144.7948   75.5055  221.5445 H   0  0  0  0  0  0  0  0  0  0  0  0
  1  2  2  0
  2  3  1  0
  3  4  1  0
  4  5  1  0
  5  6  2  0
  5  7  1  0
  7  8  1  0
  8  9  1  0
  9 10  1  0
 10 11  1  0
 11 12  1  0
 12 13  1  0
 13 14  2  0
 14 15  1  0
 15 16  2  0
 16 17  1  0
 16 18  1  0
 18 19  2  0
  2 20  1  0
 20 21  2  0
 21 22  1  0
 22 23  2  0
 23 24  1  0
 24 25  2  0
 25 26  1  0
 26 27  1  0
 26 28  2  0
 28 29  1  0
 29 30  2  0
 12  7  1  0
 19 13  1  0
 30 20  1  0
 29 23  1  0
  3 31  1  0
  4 32  1  0
  4 33  1  0
  8 34  1  0
  8 35  1  0
  9 36  1  0
  9 37  1  0
 10 38  1  0
 10 39  1  0
 11 40  1  0
 11 41  1  0
 12 42  1  1
 14 43  1  0
 15 44  1  0
 18 45  1  0
 19 46  1  0
 21 47  1  0
 22 48  1  0
 24 49  1  0
 25 50  1  0
 28 51  1  0
M  END
>  <smiles>  (28) 
O=C(NCC(=O)N1CCCCC1c1ccc(Cl)cc1)c1ccc2ccc(Cl)cc2n1

>  <score_type>  (28) 
oracle

>  <origin>  (28) 
autodockgpu

>  <m_score__min__energy>  (28) 
-8.6099999999999994

>  <m_primary>  (28) 
energy

>  <rmsd>  (28) 
7.986957710091088

>  <m_score__min__rmsd>  (28) 
7.986957710091088

>  <meeko>  (28) 
{"free_energy": -7.32, "intermolecular_energy": -8.81, "internal_energy": -2.88, "cluster_size": 22, "cluster_id": 5, "rank_in_cluster": 8}

>  <energy>  (28) 
-7.21

>  <cluster_rmsd>  (28) 
0.49

>  <cluster>  (28) 
5

$$$$

     RDKit          3D

 51 54  0  0  0  0  0  0  0  0999 V2000
  140.7820   77.8900  217.8790 O   0  0  0  0  0  0  0  0  0  0  0  0
  141.6730   77.6370  218.7100 C   0  0  0  0  0  0  0  0  0  0  0  0
  142.0340   78.6260  219.6980 N   0  0  0  0  0  0  0  0  0  0  0  0
  141.4330   79.9050  219.8080 C   0  0  0  0  0  0  0  0  0  0  0  0
  140.5110   80.2250  220.8810 C   0  0  0  0  0  0  0  0  0  0  0  0
  139.3040   80.4930  220.4490 O   0  0  0  0  0  0  0  0  0  0  0  0
  140.6540   80.3070  222.2610 N   0  0  0  0  0  0  0  0  0  0  0  0
  140.7680   81.5350  223.0640 C   0  0  0  0  0  0  0  0  0  0  0  0
  142.0870   81.5410  223.7830 C   0  0  0  0  0  0  0  0  0  0  0  0
  142.9180   80.3310  223.5370 C   0  0  0  0  0  0  0  0  0  0  0  0
  142.1710   79.0200  223.6430 C   0  0  0  0  0  0  0  0  0  0  0  0
  140.7640   79.1020  223.1320 C   0  0  2  0  0  0  0  0  0  0  0  0
  140.1910   77.8930  222.5930 C   0  0  0  0  0  0  0  0  0  0  0  0
  138.8600   77.6320  222.3640 C   0  0  0  0  0  0  0  0  0  0  0  0
  138.3940   76.4600  221.8060 C   0  0  0  0  0  0  0  0  0  0  0  0
  139.2780   75.4670  221.4410 C   0  0  0  0  0  0  0  0  0  0  0  0
  138.7720   73.9520  220.7280 Cl  0  0  0  0  0  0  0  0  0  0  0  0
  140.6180   75.7000  221.6600 C   0  0  0  0  0  0  0  0  0  0  0  0
  141.0720   76.8640  222.2140 C   0  0  0  0  0  0  0  0  0  0  0  0
  142.3670   76.3310  218.6920 C   0  0  0  0  0  0  0  0  0  0  0  0
  142.0590   75.4380  217.6900 C   0  0  0  0  0  0  0  0  0  0  0  0
  142.7420   74.2210  217.7210 C   0  0  0  0  0  0  0  0  0  0  0  0
  143.6700   73.9290  218.6970 C   0  0  0  0  0  0  0  0  0  0  0  0
  144.3590   72.7350  218.7510 C   0  0  0  0  0  0  0  0  0  0  0  0
  145.2930   72.4620  219.7470 C   0  0  0  0  0  0  0  0  0  0  0  0
  145.5230   73.4310  220.7030 C   0  0  0  0  0  0  0  0  0  0  0  0
  146.6980   73.1260  221.9830 Cl  0  0  0  0  0  0  0  0  0  0  0  0
  144.8520   74.6530  220.6900 C   0  0  0  0  0  0  0  0  0  0  0  0
  143.9380   74.8640  219.6780 C   0  0  0  0  0  0  0  0  0  0  0  0
  143.2730   76.0330  219.6350 N   0  0  0  0  0  0  0  0  0  0  0  0
  142.8010   78.3140  220.3510 H   0  0  0  0  0  0  0  0  0  0  0  0
  142.2579   80.6288  219.8830 H   0  0  0  0  0  0  0  0  0  0  0  0
  140.7806   79.9337  218.9228 H   0  0  0  0  0  0  0  0  0  0  0  0
  140.7062   82.4124  222.4034 H   0  0  0  0  0  0  0  0  0  0  0  0
  139.9495   81.5711  223.7980 H   0  0  0  0  0  0  0  0  0  0  0  0
  142.6557   82.4234  223.4544 H   0  0  0  0  0  0  0  0  0  0  0  0
  141.8617   81.5579  224.8595 H   0  0  0  0  0  0  0  0  0  0  0  0
  143.3391   80.4046  222.5235 H   0  0  0  0  0  0  0  0  0  0  0  0
  143.6861   80.3159  224.3243 H   0  0  0  0  0  0  0  0  0  0  0  0
  142.7119   78.2607  223.0591 H   0  0  0  0  0  0  0  0  0  0  0  0
  142.1177   78.7581  224.7100 H   0  0  0  0  0  0  0  0  0  0  0  0
  140.1037   79.2216  224.0036 H   0  0  0  0  0  0  0  0  0  0  0  0
  138.1253   78.4021  222.6418 H   0  0  0  0  0  0  0  0  0  0  0  0
  137.3143   76.3172  221.6518 H   0  0  0  0  0  0  0  0  0  0  0  0
  141.3459   74.9243  221.3800 H   0  0  0  0  0  0  0  0  0  0  0  0
  142.1528   76.9995  222.3673 H   0  0  0  0  0  0  0  0  0  0  0  0
  141.3181   75.6701  216.9108 H   0  0  0  0  0  0  0  0  0  0  0  0
  142.5331   73.4723  216.9427 H   0  0  0  0  0  0  0  0  0  0  0  0
  144.1640   71.9733  217.9817 H   0  0  0  0  0  0  0  0  0  0  0  0
  145.8314   71.5031  219.7713 H   0  0  0  0  0  0  0  0  0  0  0  0
  145.0436   75.4187  221.4562 H   0  0  0  0  0  0  0  0  0  0  0  0
  1  2  2  0
  2  3  1  0
  3  4  1  0
  4  5  1  0
  5  6  2  0
  5  7  1  0
  7  8  1  0
  8  9  1  0
  9 10  1  0
 10 11  1  0
 11 12  1  0
 12 13  1  0
 13 14  2  0
 14 15  1  0
 15 16  2  0
 16 17  1  0
 16 18  1  0
 18 19  2  0
  2 20  1  0
 20 21  2  0
 21 22  1  0
 22 23  2  0
 23 24  1  0
 24 25  2  0
 25 26  1  0
 26 27  1  0
 26 28  2  0
 28 29  1  0
 29 30  2  0
 12  7  1  0
 19 13  1  0
 30 20  1  0
 29 23  1  0
  3 31  1  0
  4 32  1  0
  4 33  1  0
  8 34  1  0
  8 35  1  0
  9 36  1  0
  9 37  1  0
 10 38  1  0
 10 39  1  0
 11 40  1  0
 11 41  1  0
 12 42  1  1
 14 43  1  0
 15 44  1  0
 18 45  1  0
 19 46  1  0
 21 47  1  0
 22 48  1  0
 24 49  1  0
 25 50  1  0
 28 51  1  0
M  END
>  <smiles>  (29) 
O=C(NCC(=O)N1CCCCC1c1ccc(Cl)cc1)c1ccc2ccc(Cl)cc2n1

>  <score_type>  (29) 
oracle

>  <origin>  (29) 
autodockgpu

>  <m_score__min__energy>  (29) 
-8.6099999999999994

>  <m_primary>  (29) 
energy

>  <rmsd>  (29) 
7.913216783289481

>  <m_score__min__rmsd>  (29) 
7.913216783289481

>  <meeko>  (29) 
{"free_energy": -7.31, "intermolecular_energy": -8.8, "internal_energy": -2.87, "cluster_size": 22, "cluster_id": 5, "rank_in_cluster": 9}

>  <energy>  (29) 
-7.2

>  <cluster_rmsd>  (29) 
0.36

>  <cluster>  (29) 
5

$$$$

     RDKit          3D

 51 54  0  0  0  0  0  0  0  0999 V2000
  140.5920   77.8120  217.8330 O   0  0  0  0  0  0  0  0  0  0  0  0
  141.5550   77.6660  218.6080 C   0  0  0  0  0  0  0  0  0  0  0  0
  141.8500   78.6860  219.5860 N   0  0  0  0  0  0  0  0  0  0  0  0
  141.1060   79.8820  219.7460 C   0  0  0  0  0  0  0  0  0  0  0  0
  140.2680   80.1080  220.9090 C   0  0  0  0  0  0  0  0  0  0  0  0
  139.0090   80.2910  220.5970 O   0  0  0  0  0  0  0  0  0  0  0  0
  140.5340   80.1740  222.2710 N   0  0  0  0  0  0  0  0  0  0  0  0
  140.6040   81.3900  223.0980 C   0  0  0  0  0  0  0  0  0  0  0  0
  141.9800   81.5120  223.6910 C   0  0  0  0  0  0  0  0  0  0  0  0
  142.8970   80.3990  223.3300 C   0  0  0  0  0  0  0  0  0  0  0  0
  142.2960   79.0160  223.4640 C   0  0  0  0  0  0  0  0  0  0  0  0
  140.8460   78.9670  223.0900 C   0  0  2  0  0  0  0  0  0  0  0  0
  140.3450   77.7190  222.5690 C   0  0  0  0  0  0  0  0  0  0  0  0
  141.0740   76.7030  221.9960 C   0  0  0  0  0  0  0  0  0  0  0  0
  140.5230   75.5180  221.5570 C   0  0  0  0  0  0  0  0  0  0  0  0
  139.1680   75.2960  221.6800 C   0  0  0  0  0  0  0  0  0  0  0  0
  138.3880   73.8230  221.1500 Cl  0  0  0  0  0  0  0  0  0  0  0  0
  138.4120   76.2970  222.2500 C   0  0  0  0  0  0  0  0  0  0  0  0
  138.9660   77.4690  222.6820 C   0  0  0  0  0  0  0  0  0  0  0  0
  142.4000   76.4550  218.5340 C   0  0  0  0  0  0  0  0  0  0  0  0
  142.3150   75.6620  217.4100 C   0  0  0  0  0  0  0  0  0  0  0  0
  143.1330   74.5320  217.3930 C   0  0  0  0  0  0  0  0  0  0  0  0
  143.9780   74.2250  218.4380 C   0  0  0  0  0  0  0  0  0  0  0  0
  144.7960   73.1150  218.4460 C   0  0  0  0  0  0  0  0  0  0  0  0
  145.6420   72.8250  219.5140 C   0  0  0  0  0  0  0  0  0  0  0  0
  145.6460   73.6890  220.5910 C   0  0  0  0  0  0  0  0  0  0  0  0
  146.7020   73.3590  221.9640 Cl  0  0  0  0  0  0  0  0  0  0  0  0
  144.8370   74.8230  220.6280 C   0  0  0  0  0  0  0  0  0  0  0  0
  144.0200   75.0570  219.5400 C   0  0  0  0  0  0  0  0  0  0  0  0
  143.2260   76.1430  219.5430 N   0  0  0  0  0  0  0  0  0  0  0  0
  142.6870   78.4670  220.1900 H   0  0  0  0  0  0  0  0  0  0  0  0
  141.8352   80.7053  219.7252 H   0  0  0  0  0  0  0  0  0  0  0  0
  140.3667   79.8087  218.9348 H   0  0  0  0  0  0  0  0  0  0  0  0
  140.3940   82.2710  222.4737 H   0  0  0  0  0  0  0  0  0  0  0  0
  139.8599   81.3283  223.9058 H   0  0  0  0  0  0  0  0  0  0  0  0
  142.4254   82.4544  223.3396 H   0  0  0  0  0  0  0  0  0  0  0  0
  141.8585   81.4813  224.7838 H   0  0  0  0  0  0  0  0  0  0  0  0
  143.2088   80.5373  222.2842 H   0  0  0  0  0  0  0  0  0  0  0  0
  143.7353   80.4439  224.0408 H   0  0  0  0  0  0  0  0  0  0  0  0
  142.8502   78.3283  222.8083 H   0  0  0  0  0  0  0  0  0  0  0  0
  142.3719   78.7263  224.5225 H   0  0  0  0  0  0  0  0  0  0  0  0
  140.2650   79.0001  224.0234 H   0  0  0  0  0  0  0  0  0  0  0  0
  142.1589   76.8441  221.8815 H   0  0  0  0  0  0  0  0  0  0  0  0
  141.1664   74.7474  221.1073 H   0  0  0  0  0  0  0  0  0  0  0  0
  137.3278   76.1479  222.3608 H   0  0  0  0  0  0  0  0  0  0  0  0
  138.3169   78.2361  223.1294 H   0  0  0  0  0  0  0  0  0  0  0  0
  141.6416   75.9058  216.5751 H   0  0  0  0  0  0  0  0  0  0  0  0
  143.1027   73.8653  216.5186 H   0  0  0  0  0  0  0  0  0  0  0  0
  144.7800   72.4362  217.5806 H   0  0  0  0  0  0  0  0  0  0  0  0
  146.2875   71.9344  219.4998 H   0  0  0  0  0  0  0  0  0  0  0  0
  144.8489   75.5053  221.4907 H   0  0  0  0  0  0  0  0  0  0  0  0
  1  2  2  0
  2  3  1  0
  3  4  1  0
  4  5  1  0
  5  6  2  0
  5  7  1  0
  7  8  1  0
  8  9  1  0
  9 10  1  0
 10 11  1  0
 11 12  1  0
 12 13  1  0
 13 14  2  0
 14 15  1  0
 15 16  2  0
 16 17  1  0
 16 18  1  0
 18 19  2  0
  2 20  1  0
 20 21  2  0
 21 22  1  0
 22 23  2  0
 23 24  1  0
 24 25  2  0
 25 26  1  0
 26 27  1  0
 26 28  2  0
 28 29  1  0
 29 30  2  0
 12  7  1  0
 19 13  1  0
 30 20  1  0
 29 23  1  0
  3 31  1  0
  4 32  1  0
  4 33  1  0
  8 34  1  0
  8 35  1  0
  9 36  1  0
  9 37  1  0
 10 38  1  0
 10 39  1  0
 11 40  1  0
 11 41  1  0
 12 42  1  1
 14 43  1  0
 15 44  1  0
 18 45  1  0
 19 46  1  0
 21 47  1  0
 22 48  1  0
 24 49  1  0
 25 50  1  0
 28 51  1  0
M  END
>  <smiles>  (30) 
O=C(NCC(=O)N1CCCCC1c1ccc(Cl)cc1)c1ccc2ccc(Cl)cc2n1

>  <score_type>  (30) 
oracle

>  <origin>  (30) 
autodockgpu

>  <m_score__min__energy>  (30) 
-8.6099999999999994

>  <m_primary>  (30) 
energy

>  <rmsd>  (30) 
8.039310404624723

>  <m_score__min__rmsd>  (30) 
8.039310404624723

>  <meeko>  (30) 
{"free_energy": -7.46, "intermolecular_energy": -8.95, "internal_energy": -2.68, "cluster_size": 22, "cluster_id": 5, "rank_in_cluster": 2}

>  <energy>  (30) 
-7.14

>  <cluster_rmsd>  (30) 
0.35

>  <cluster>  (30) 
5

$$$$

     RDKit          3D

 51 54  0  0  0  0  0  0  0  0999 V2000
  140.2510   78.0000  217.8460 O   0  0  0  0  0  0  0  0  0  0  0  0
  141.2460   77.8540  218.5780 C   0  0  0  0  0  0  0  0  0  0  0  0
  141.5540   78.8500  219.5780 N   0  0  0  0  0  0  0  0  0  0  0  0
  140.7880   80.0200  219.8040 C   0  0  0  0  0  0  0  0  0  0  0  0
  140.1230   80.2630  221.0700 C   0  0  0  0  0  0  0  0  0  0  0  0
  138.8670   80.6070  220.9250 O   0  0  0  0  0  0  0  0  0  0  0  0
  140.5510   80.2090  222.3920 N   0  0  0  0  0  0  0  0  0  0  0  0
  140.7290   81.3460  223.3080 C   0  0  0  0  0  0  0  0  0  0  0  0
  142.1670   81.4180  223.7410 C   0  0  0  0  0  0  0  0  0  0  0  0
  143.0250   80.3420  223.1760 C   0  0  0  0  0  0  0  0  0  0  0  0
  142.4310   78.9520  223.2580 C   0  0  0  0  0  0  0  0  0  0  0  0
  140.9460   78.9340  223.0580 C   0  0  2  0  0  0  0  0  0  0  0  0
  140.3760   77.7370  222.4930 C   0  0  0  0  0  0  0  0  0  0  0  0
  141.0500   76.6750  221.9350 C   0  0  0  0  0  0  0  0  0  0  0  0
  140.4300   75.5430  221.4500 C   0  0  0  0  0  0  0  0  0  0  0  0
  139.0580   75.4260  221.5090 C   0  0  0  0  0  0  0  0  0  0  0  0
  138.1920   74.0250  220.9180 Cl  0  0  0  0  0  0  0  0  0  0  0  0
  138.3550   76.4730  222.0620 C   0  0  0  0  0  0  0  0  0  0  0  0
  138.9770   77.5920  222.5400 C   0  0  0  0  0  0  0  0  0  0  0  0
  142.1150   76.6670  218.4340 C   0  0  0  0  0  0  0  0  0  0  0  0
  142.0840   75.9710  217.2450 C   0  0  0  0  0  0  0  0  0  0  0  0
  142.9240   74.8600  217.1620 C   0  0  0  0  0  0  0  0  0  0  0  0
  143.7380   74.4790  218.2070 C   0  0  0  0  0  0  0  0  0  0  0  0
  144.5770   73.3860  218.1520 C   0  0  0  0  0  0  0  0  0  0  0  0
  145.3910   73.0200  219.2210 C   0  0  0  0  0  0  0  0  0  0  0  0
  145.3420   73.7910  220.3650 C   0  0  0  0  0  0  0  0  0  0  0  0
  146.3570   73.3630  221.7430 Cl  0  0  0  0  0  0  0  0  0  0  0  0
  144.5100   74.9050  220.4690 C   0  0  0  0  0  0  0  0  0  0  0  0
  143.7270   75.2160  219.3760 C   0  0  0  0  0  0  0  0  0  0  0  0
  142.9130   76.2850  219.4410 N   0  0  0  0  0  0  0  0  0  0  0  0
  142.4180   78.6330  220.1420 H   0  0  0  0  0  0  0  0  0  0  0  0
  141.4671   80.8702  219.6431 H   0  0  0  0  0  0  0  0  0  0  0  0
  139.9402   79.8812  219.1170 H   0  0  0  0  0  0  0  0  0  0  0  0
  140.4535   82.2784  222.7935 H   0  0  0  0  0  0  0  0  0  0  0  0
  140.0859   81.2113  224.1902 H   0  0  0  0  0  0  0  0  0  0  0  0
  142.5755   82.3886  223.4231 H   0  0  0  0  0  0  0  0  0  0  0  0
  142.1765   81.2910  224.8336 H   0  0  0  0  0  0  0  0  0  0  0  0
  143.2117   80.5731  222.1169 H   0  0  0  0  0  0  0  0  0  0  0  0
  143.9423   80.3246  223.7829 H   0  0  0  0  0  0  0  0  0  0  0  0
  142.8962   78.3263  222.4821 H   0  0  0  0  0  0  0  0  0  0  0  0
  142.6301   78.5697  224.2700 H   0  0  0  0  0  0  0  0  0  0  0  0
  140.4794   78.8830  224.0528 H   0  0  0  0  0  0  0  0  0  0  0  0
  142.1467   76.7325  221.8722 H   0  0  0  0  0  0  0  0  0  0  0  0
  141.0317   74.7314  221.0150 H   0  0  0  0  0  0  0  0  0  0  0  0
  137.2586   76.4066  222.1208 H   0  0  0  0  0  0  0  0  0  0  0  0
  138.3686   78.4000  222.9725 H   0  0  0  0  0  0  0  0  0  0  0  0
  141.4349   76.2737  216.4101 H   0  0  0  0  0  0  0  0  0  0  0  0
  142.9370   74.2699  216.2338 H   0  0  0  0  0  0  0  0  0  0  0  0
  144.6042   72.7828  217.2325 H   0  0  0  0  0  0  0  0  0  0  0  0
  146.0526   72.1436  219.1558 H   0  0  0  0  0  0  0  0  0  0  0  0
  144.4790   75.5119  221.3859 H   0  0  0  0  0  0  0  0  0  0  0  0
  1  2  2  0
  2  3  1  0
  3  4  1  0
  4  5  1  0
  5  6  2  0
  5  7  1  0
  7  8  1  0
  8  9  1  0
  9 10  1  0
 10 11  1  0
 11 12  1  0
 12 13  1  0
 13 14  2  0
 14 15  1  0
 15 16  2  0
 16 17  1  0
 16 18  1  0
 18 19  2  0
  2 20  1  0
 20 21  2  0
 21 22  1  0
 22 23  2  0
 23 24  1  0
 24 25  2  0
 25 26  1  0
 26 27  1  0
 26 28  2  0
 28 29  1  0
 29 30  2  0
 12  7  1  0
 19 13  1  0
 30 20  1  0
 29 23  1  0
  3 31  1  0
  4 32  1  0
  4 33  1  0
  8 34  1  0
  8 35  1  0
  9 36  1  0
  9 37  1  0
 10 38  1  0
 10 39  1  0
 11 40  1  0
 11 41  1  0
 12 42  1  1
 14 43  1  0
 15 44  1  0
 18 45  1  0
 19 46  1  0
 21 47  1  0
 22 48  1  0
 24 49  1  0
 25 50  1  0
 28 51  1  0
M  END
>  <smiles>  (31) 
O=C(NCC(=O)N1CCCCC1c1ccc(Cl)cc1)c1ccc2ccc(Cl)cc2n1

>  <score_type>  (31) 
oracle

>  <origin>  (31) 
autodockgpu

>  <m_score__min__energy>  (31) 
-8.6099999999999994

>  <m_primary>  (31) 
energy

>  <rmsd>  (31) 
8.129285679852051

>  <m_score__min__rmsd>  (31) 
8.129285679852051

>  <meeko>  (31) 
{"free_energy": -7.14, "intermolecular_energy": -8.64, "internal_energy": -2.74, "cluster_size": 22, "cluster_id": 5, "rank_in_cluster": 18}

>  <energy>  (31) 
-7.14

>  <cluster_rmsd>  (31) 
0.37

>  <cluster>  (31) 
5

$$$$

     RDKit          3D

 51 54  0  0  0  0  0  0  0  0999 V2000
  137.8050   71.7060  221.0310 O   0  0  0  0  0  0  0  0  0  0  0  0
  137.8200   72.4960  221.9910 C   0  0  0  0  0  0  0  0  0  0  0  0
  136.9680   72.2560  223.1320 N   0  0  0  0  0  0  0  0  0  0  0  0
  136.0870   71.1520  223.2550 C   0  0  0  0  0  0  0  0  0  0  0  0
  136.5580   69.7850  223.1430 C   0  0  0  0  0  0  0  0  0  0  0  0
  135.9460   68.9690  223.9650 O   0  0  0  0  0  0  0  0  0  0  0  0
  137.5220   69.1760  222.3480 N   0  0  0  0  0  0  0  0  0  0  0  0
  137.4010   68.8320  220.9220 C   0  0  0  0  0  0  0  0  0  0  0  0
  137.5500   67.3460  220.7530 C   0  0  0  0  0  0  0  0  0  0  0  0
  137.8010   66.6120  222.0230 C   0  0  0  0  0  0  0  0  0  0  0  0
  138.8550   67.2340  222.9130 C   0  0  0  0  0  0  0  0  0  0  0  0
  138.8420   68.7320  222.8820 C   0  0  2  0  0  0  0  0  0  0  0  0
  139.2930   69.4160  224.0690 C   0  0  0  0  0  0  0  0  0  0  0  0
  139.2320   68.9630  225.3660 C   0  0  0  0  0  0  0  0  0  0  0  0
  139.7230   69.6630  226.4470 C   0  0  0  0  0  0  0  0  0  0  0  0
  140.3180   70.8930  226.2630 C   0  0  0  0  0  0  0  0  0  0  0  0
  140.9660   71.8480  227.5770 Cl  0  0  0  0  0  0  0  0  0  0  0  0
  140.3920   71.3750  224.9740 C   0  0  0  0  0  0  0  0  0  0  0  0
  139.9030   70.6730  223.9080 C   0  0  0  0  0  0  0  0  0  0  0  0
  138.7050   73.6810  221.9740 C   0  0  0  0  0  0  0  0  0  0  0  0
  140.0130   73.5170  221.5760 C   0  0  0  0  0  0  0  0  0  0  0  0
  140.8040   74.6670  221.5780 C   0  0  0  0  0  0  0  0  0  0  0  0
  140.3070   75.8960  221.9560 C   0  0  0  0  0  0  0  0  0  0  0  0
  141.0660   77.0470  221.9670 C   0  0  0  0  0  0  0  0  0  0  0  0
  140.5400   78.2780  222.3530 C   0  0  0  0  0  0  0  0  0  0  0  0
  139.2140   78.3260  222.7320 C   0  0  0  0  0  0  0  0  0  0  0  0
  138.5090   79.8660  223.2280 Cl  0  0  0  0  0  0  0  0  0  0  0  0
  138.4070   77.1900  222.7370 C   0  0  0  0  0  0  0  0  0  0  0  0
  138.9850   75.9990  222.3450 C   0  0  0  0  0  0  0  0  0  0  0  0
  138.2350   74.8830  222.3380 N   0  0  0  0  0  0  0  0  0  0  0  0
  137.0540   72.9850  223.8880 H   0  0  0  0  0  0  0  0  0  0  0  0
  135.6200   71.2380  224.2472 H   0  0  0  0  0  0  0  0  0  0  0  0
  135.4550   71.2560  222.3607 H   0  0  0  0  0  0  0  0  0  0  0  0
  136.4144   69.1465  220.5510 H   0  0  0  0  0  0  0  0  0  0  0  0
  138.1875   69.3476  220.3514 H   0  0  0  0  0  0  0  0  0  0  0  0
  136.6246   66.9548  220.3051 H   0  0  0  0  0  0  0  0  0  0  0  0
  138.4316   67.1862  220.1149 H   0  0  0  0  0  0  0  0  0  0  0  0
  136.8575   66.5696  222.5869 H   0  0  0  0  0  0  0  0  0  0  0  0
  138.1794   65.6189  221.7392 H   0  0  0  0  0  0  0  0  0  0  0  0
  138.6788   66.9038  223.9474 H   0  0  0  0  0  0  0  0  0  0  0  0
  139.8357   66.9070  222.5373 H   0  0  0  0  0  0  0  0  0  0  0  0
  139.6388   69.0541  222.1954 H   0  0  0  0  0  0  0  0  0  0  0  0
  138.7640   67.9849  225.5515 H   0  0  0  0  0  0  0  0  0  0  0  0
  139.6400   69.2394  227.4588 H   0  0  0  0  0  0  0  0  0  0  0  0
  140.8591   72.3551  224.7976 H   0  0  0  0  0  0  0  0  0  0  0  0
  139.9887   71.1020  222.8987 H   0  0  0  0  0  0  0  0  0  0  0  0
  140.4112   72.5370  221.2742 H   0  0  0  0  0  0  0  0  0  0  0  0
  141.8567   74.5902  221.2683 H   0  0  0  0  0  0  0  0  0  0  0  0
  142.1211   76.9916  221.6611 H   0  0  0  0  0  0  0  0  0  0  0  0
  141.1630   79.1845  222.3556 H   0  0  0  0  0  0  0  0  0  0  0  0
  137.3511   77.2402  223.0413 H   0  0  0  0  0  0  0  0  0  0  0  0
  1  2  2  0
  2  3  1  0
  3  4  1  0
  4  5  1  0
  5  6  2  0
  5  7  1  0
  7  8  1  0
  8  9  1  0
  9 10  1  0
 10 11  1  0
 11 12  1  0
 12 13  1  0
 13 14  2  0
 14 15  1  0
 15 16  2  0
 16 17  1  0
 16 18  1  0
 18 19  2  0
  2 20  1  0
 20 21  2  0
 21 22  1  0
 22 23  2  0
 23 24  1  0
 24 25  2  0
 25 26  1  0
 26 27  1  0
 26 28  2  0
 28 29  1  0
 29 30  2  0
 12  7  1  0
 19 13  1  0
 30 20  1  0
 29 23  1  0
  3 31  1  0
  4 32  1  0
  4 33  1  0
  8 34  1  0
  8 35  1  0
  9 36  1  0
  9 37  1  0
 10 38  1  0
 10 39  1  0
 11 40  1  0
 11 41  1  0
 12 42  1  6
 14 43  1  0
 15 44  1  0
 18 45  1  0
 19 46  1  0
 21 47  1  0
 22 48  1  0
 24 49  1  0
 25 50  1  0
 28 51  1  0
M  END
>  <smiles>  (32) 
O=C(NCC(=O)N1CCCCC1c1ccc(Cl)cc1)c1ccc2ccc(Cl)cc2n1

>  <score_type>  (32) 
oracle

>  <origin>  (32) 
autodockgpu

>  <m_score__min__energy>  (32) 
-8.6099999999999994

>  <m_primary>  (32) 
energy

>  <rmsd>  (32) 
7.594707840574907

>  <m_score__min__rmsd>  (32) 
7.594707840574907

>  <meeko>  (32) 
{"free_energy": -7.62, "intermolecular_energy": -9.12, "internal_energy": -2.24, "cluster_size": 2, "cluster_id": 2, "rank_in_cluster": 2}

>  <energy>  (32) 
-7.1

>  <cluster_rmsd>  (32) 
0.59

>  <cluster>  (32) 
5

$$$$

     RDKit          3D

 51 54  0  0  0  0  0  0  0  0999 V2000
  140.5820   77.8970  217.9580 O   0  0  0  0  0  0  0  0  0  0  0  0
  141.4990   77.6750  218.7680 C   0  0  0  0  0  0  0  0  0  0  0  0
  141.9240   78.7160  219.6750 N   0  0  0  0  0  0  0  0  0  0  0  0
  141.3600   80.0150  219.7230 C   0  0  0  0  0  0  0  0  0  0  0  0
  140.5510   80.4540  220.8440 C   0  0  0  0  0  0  0  0  0  0  0  0
  139.4240   81.0060  220.4690 O   0  0  0  0  0  0  0  0  0  0  0  0
  140.7350   80.4100  222.2210 N   0  0  0  0  0  0  0  0  0  0  0  0
  140.8610   81.5600  223.1300 C   0  0  0  0  0  0  0  0  0  0  0  0
  142.2020   81.5150  223.8090 C   0  0  0  0  0  0  0  0  0  0  0  0
  143.0360   80.3440  223.4270 C   0  0  0  0  0  0  0  0  0  0  0  0
  142.3050   79.0200  223.4320 C   0  0  0  0  0  0  0  0  0  0  0  0
  140.8830   79.1310  222.9730 C   0  0  2  0  0  0  0  0  0  0  0  0
  140.3060   77.9700  222.3410 C   0  0  0  0  0  0  0  0  0  0  0  0
  139.0940   77.8890  221.6950 C   0  0  0  0  0  0  0  0  0  0  0  0
  138.6290   76.7470  221.0780 C   0  0  0  0  0  0  0  0  0  0  0  0
  139.3900   75.5970  221.0850 C   0  0  0  0  0  0  0  0  0  0  0  0
  138.8760   74.1060  220.3280 Cl  0  0  0  0  0  0  0  0  0  0  0  0
  140.6080   75.6480  221.7250 C   0  0  0  0  0  0  0  0  0  0  0  0
  141.0620   76.7840  222.3340 C   0  0  0  0  0  0  0  0  0  0  0  0
  142.1590   76.3520  218.8110 C   0  0  0  0  0  0  0  0  0  0  0  0
  141.7330   75.3780  217.9350 C   0  0  0  0  0  0  0  0  0  0  0  0
  142.3880   74.1490  218.0170 C   0  0  0  0  0  0  0  0  0  0  0  0
  143.4030   73.9210  218.9210 C   0  0  0  0  0  0  0  0  0  0  0  0
  144.0670   72.7160  219.0240 C   0  0  0  0  0  0  0  0  0  0  0  0
  145.0910   72.5100  219.9460 C   0  0  0  0  0  0  0  0  0  0  0  0
  145.4360   73.5570  220.7760 C   0  0  0  0  0  0  0  0  0  0  0  0
  146.7270   73.3380  221.9580 Cl  0  0  0  0  0  0  0  0  0  0  0  0
  144.7940   74.7930  220.7100 C   0  0  0  0  0  0  0  0  0  0  0  0
  143.7880   74.9360  219.7760 C   0  0  0  0  0  0  0  0  0  0  0  0
  143.1480   76.1160  219.6850 N   0  0  0  0  0  0  0  0  0  0  0  0
  142.7090   78.4260  220.3170 H   0  0  0  0  0  0  0  0  0  0  0  0
  142.2013   80.7202  219.6538 H   0  0  0  0  0  0  0  0  0  0  0  0
  140.6267   79.9822  218.9037 H   0  0  0  0  0  0  0  0  0  0  0  0
  140.7717   82.4937  222.5553 H   0  0  0  0  0  0  0  0  0  0  0  0
  140.0641   81.5191  223.8871 H   0  0  0  0  0  0  0  0  0  0  0  0
  142.7523   82.4311  223.5483 H   0  0  0  0  0  0  0  0  0  0  0  0
  142.0088   81.4288  224.8885 H   0  0  0  0  0  0  0  0  0  0  0  0
  143.4254   80.5167  222.4128 H   0  0  0  0  0  0  0  0  0  0  0  0
  143.8278   80.2650  224.1865 H   0  0  0  0  0  0  0  0  0  0  0  0
  142.8351   78.3251  222.7641 H   0  0  0  0  0  0  0  0  0  0  0  0
  142.2867   78.6598  224.4712 H   0  0  0  0  0  0  0  0  0  0  0  0
  140.2483   79.1610  223.8709 H   0  0  0  0  0  0  0  0  0  0  0  0
  138.4593   78.7871  221.6693 H   0  0  0  0  0  0  0  0  0  0  0  0
  137.6487   76.7533  220.5790 H   0  0  0  0  0  0  0  0  0  0  0  0
  141.2360   74.7451  221.7468 H   0  0  0  0  0  0  0  0  0  0  0  0
  142.0432   76.7705  222.8311 H   0  0  0  0  0  0  0  0  0  0  0  0
  140.9233   75.5588  217.2127 H   0  0  0  0  0  0  0  0  0  0  0  0
  142.0851   73.3371  217.3394 H   0  0  0  0  0  0  0  0  0  0  0  0
  143.7785   71.8909  218.3563 H   0  0  0  0  0  0  0  0  0  0  0  0
  145.6090   71.5417  220.0104 H   0  0  0  0  0  0  0  0  0  0  0  0
  145.0780   75.6212  221.3759 H   0  0  0  0  0  0  0  0  0  0  0  0
  1  2  2  0
  2  3  1  0
  3  4  1  0
  4  5  1  0
  5  6  2  0
  5  7  1  0
  7  8  1  0
  8  9  1  0
  9 10  1  0
 10 11  1  0
 11 12  1  0
 12 13  1  0
 13 14  2  0
 14 15  1  0
 15 16  2  0
 16 17  1  0
 16 18  1  0
 18 19  2  0
  2 20  1  0
 20 21  2  0
 21 22  1  0
 22 23  2  0
 23 24  1  0
 24 25  2  0
 25 26  1  0
 26 27  1  0
 26 28  2  0
 28 29  1  0
 29 30  2  0
 12  7  1  0
 19 13  1  0
 30 20  1  0
 29 23  1  0
  3 31  1  0
  4 32  1  0
  4 33  1  0
  8 34  1  0
  8 35  1  0
  9 36  1  0
  9 37  1  0
 10 38  1  0
 10 39  1  0
 11 40  1  0
 11 41  1  0
 12 42  1  1
 14 43  1  0
 15 44  1  0
 18 45  1  0
 19 46  1  0
 21 47  1  0
 22 48  1  0
 24 49  1  0
 25 50  1  0
 28 51  1  0
M  END
>  <smiles>  (33) 
O=C(NCC(=O)N1CCCCC1c1ccc(Cl)cc1)c1ccc2ccc(Cl)cc2n1

>  <score_type>  (33) 
oracle

>  <origin>  (33) 
autodockgpu

>  <m_score__min__energy>  (33) 
-8.6099999999999994

>  <m_primary>  (33) 
energy

>  <rmsd>  (33) 
7.819079927203651

>  <m_score__min__rmsd>  (33) 
7.819079927203651

>  <meeko>  (33) 
{"free_energy": -6.99, "intermolecular_energy": -8.48, "internal_energy": -3.11, "cluster_size": 22, "cluster_id": 5, "rank_in_cluster": 21}

>  <energy>  (33) 
-6.99

>  <cluster_rmsd>  (33) 
0.53

>  <cluster>  (33) 
5

$$$$

     RDKit          3D

 51 54  0  0  0  0  0  0  0  0999 V2000
  140.3630   77.7280  218.0400 O   0  0  0  0  0  0  0  0  0  0  0  0
  141.3910   77.6180  218.7320 C   0  0  0  0  0  0  0  0  0  0  0  0
  141.7660   78.6820  219.6340 N   0  0  0  0  0  0  0  0  0  0  0  0
  141.0320   79.8830  219.8050 C   0  0  0  0  0  0  0  0  0  0  0  0
  140.2230   80.1190  220.9850 C   0  0  0  0  0  0  0  0  0  0  0  0
  138.9780   80.4070  220.6970 O   0  0  0  0  0  0  0  0  0  0  0  0
  140.5040   80.1070  222.3470 N   0  0  0  0  0  0  0  0  0  0  0  0
  140.5760   81.2720  223.2430 C   0  0  0  0  0  0  0  0  0  0  0  0
  141.9580   81.3680  223.8260 C   0  0  0  0  0  0  0  0  0  0  0  0
  142.8780   80.2840  223.3900 C   0  0  0  0  0  0  0  0  0  0  0  0
  142.2870   78.8930  223.4490 C   0  0  0  0  0  0  0  0  0  0  0  0
  140.8320   78.8560  223.0890 C   0  0  2  0  0  0  0  0  0  0  0  0
  140.3330   77.6370  222.5010 C   0  0  0  0  0  0  0  0  0  0  0  0
  141.0690   76.5600  222.0650 C   0  0  0  0  0  0  0  0  0  0  0  0
  140.5120   75.4090  221.5490 C   0  0  0  0  0  0  0  0  0  0  0  0
  139.1430   75.2890  221.4460 C   0  0  0  0  0  0  0  0  0  0  0  0
  138.3530   73.8660  220.8040 Cl  0  0  0  0  0  0  0  0  0  0  0  0
  138.3790   76.3520  221.8740 C   0  0  0  0  0  0  0  0  0  0  0  0
  138.9390   77.4890  222.3850 C   0  0  0  0  0  0  0  0  0  0  0  0
  142.2320   76.4060  218.6390 C   0  0  0  0  0  0  0  0  0  0  0  0
  142.0890   75.5910  217.5380 C   0  0  0  0  0  0  0  0  0  0  0  0
  142.9070   74.4610  217.5000 C   0  0  0  0  0  0  0  0  0  0  0  0
  143.8060   74.1750  218.5040 C   0  0  0  0  0  0  0  0  0  0  0  0
  144.6260   73.0660  218.4920 C   0  0  0  0  0  0  0  0  0  0  0  0
  145.5280   72.7990  219.5180 C   0  0  0  0  0  0  0  0  0  0  0  0
  145.5890   73.6860  220.5750 C   0  0  0  0  0  0  0  0  0  0  0  0
  146.7180   73.3850  221.8960 Cl  0  0  0  0  0  0  0  0  0  0  0  0
  144.7810   74.8200  220.6320 C   0  0  0  0  0  0  0  0  0  0  0  0
  143.9060   75.0300  219.5840 C   0  0  0  0  0  0  0  0  0  0  0  0
  143.1130   76.1160  219.6080 N   0  0  0  0  0  0  0  0  0  0  0  0
  142.6540   78.4920  220.1700 H   0  0  0  0  0  0  0  0  0  0  0  0
  141.7648   80.7023  219.7631 H   0  0  0  0  0  0  0  0  0  0  0  0
  140.2738   79.8097  219.0114 H   0  0  0  0  0  0  0  0  0  0  0  0
  140.3531   82.1868  222.6743 H   0  0  0  0  0  0  0  0  0  0  0  0
  139.8419   81.1579  224.0542 H   0  0  0  0  0  0  0  0  0  0  0  0
  142.3935   82.3323  223.5253 H   0  0  0  0  0  0  0  0  0  0  0  0
  141.8494   81.2722  224.9164 H   0  0  0  0  0  0  0  0  0  0  0  0
  143.1772   80.4856  222.3508 H   0  0  0  0  0  0  0  0  0  0  0  0
  143.7242   80.2926  224.0928 H   0  0  0  0  0  0  0  0  0  0  0  0
  142.8376   78.2487  222.7477 H   0  0  0  0  0  0  0  0  0  0  0  0
  142.3767   78.5425  224.4878 H   0  0  0  0  0  0  0  0  0  0  0  0
  140.2606   78.8297  224.0286 H   0  0  0  0  0  0  0  0  0  0  0  0
  142.1653   76.6203  222.1318 H   0  0  0  0  0  0  0  0  0  0  0  0
  141.1616   74.5850  221.2189 H   0  0  0  0  0  0  0  0  0  0  0  0
  137.2835   76.2836  221.8022 H   0  0  0  0  0  0  0  0  0  0  0  0
  138.2834   78.3088  222.7137 H   0  0  0  0  0  0  0  0  0  0  0  0
  141.3718   75.8176  216.7353 H   0  0  0  0  0  0  0  0  0  0  0  0
  142.8316   73.7773  216.6416 H   0  0  0  0  0  0  0  0  0  0  0  0
  144.5651   72.3691  217.6431 H   0  0  0  0  0  0  0  0  0  0  0  0
  146.1728   71.9083  219.4879 H   0  0  0  0  0  0  0  0  0  0  0  0
  144.8378   75.5204  221.4783 H   0  0  0  0  0  0  0  0  0  0  0  0
  1  2  2  0
  2  3  1  0
  3  4  1  0
  4  5  1  0
  5  6  2  0
  5  7  1  0
  7  8  1  0
  8  9  1  0
  9 10  1  0
 10 11  1  0
 11 12  1  0
 12 13  1  0
 13 14  2  0
 14 15  1  0
 15 16  2  0
 16 17  1  0
 16 18  1  0
 18 19  2  0
  2 20  1  0
 20 21  2  0
 21 22  1  0
 22 23  2  0
 23 24  1  0
 24 25  2  0
 25 26  1  0
 26 27  1  0
 26 28  2  0
 28 29  1  0
 29 30  2  0
 12  7  1  0
 19 13  1  0
 30 20  1  0
 29 23  1  0
  3 31  1  0
  4 32  1  0
  4 33  1  0
  8 34  1  0
  8 35  1  0
  9 36  1  0
  9 37  1  0
 10 38  1  0
 10 39  1  0
 11 40  1  0
 11 41  1  0
 12 42  1  1
 14 43  1  0
 15 44  1  0
 18 45  1  0
 19 46  1  0
 21 47  1  0
 22 48  1  0
 24 49  1  0
 25 50  1  0
 28 51  1  0
M  END
>  <smiles>  (34) 
O=C(NCC(=O)N1CCCCC1c1ccc(Cl)cc1)c1ccc2ccc(Cl)cc2n1

>  <score_type>  (34) 
oracle

>  <origin>  (34) 
autodockgpu

>  <m_score__min__energy>  (34) 
-8.6099999999999994

>  <m_primary>  (34) 
energy

>  <rmsd>  (34) 
7.958055605202727

>  <m_score__min__rmsd>  (34) 
7.958055605202727

>  <meeko>  (34) 
{"free_energy": -7.26, "intermolecular_energy": -8.75, "internal_energy": -2.83, "cluster_size": 22, "cluster_id": 5, "rank_in_cluster": 14}

>  <energy>  (34) 
-6.62

>  <cluster_rmsd>  (34) 
1.67

>  <cluster>  (34) 
5

$$$$

     RDKit          3D

 51 54  0  0  0  0  0  0  0  0999 V2000
  140.7190   77.9600  217.7650 O   0  0  0  0  0  0  0  0  0  0  0  0
  141.5970   77.7220  218.6130 C   0  0  0  0  0  0  0  0  0  0  0  0
  141.9080   78.7080  219.6210 N   0  0  0  0  0  0  0  0  0  0  0  0
  141.2700   79.9680  219.7320 C   0  0  0  0  0  0  0  0  0  0  0  0
  140.4290   80.3010  220.8660 C   0  0  0  0  0  0  0  0  0  0  0  0
  139.2150   80.6440  220.5120 O   0  0  0  0  0  0  0  0  0  0  0  0
  140.6540   80.3310  222.2370 N   0  0  0  0  0  0  0  0  0  0  0  0
  140.7410   81.5270  223.0900 C   0  0  0  0  0  0  0  0  0  0  0  0
  142.1010   81.5880  223.7270 C   0  0  0  0  0  0  0  0  0  0  0  0
  142.9890   80.4480  223.3730 C   0  0  0  0  0  0  0  0  0  0  0  0
  142.3340   79.0870  223.4600 C   0  0  0  0  0  0  0  0  0  0  0  0
  140.8960   79.0980  223.0400 C   0  0  2  0  0  0  0  0  0  0  0  0
  140.3670   77.8790  222.4800 C   0  0  0  0  0  0  0  0  0  0  0  0
  141.0790   76.7960  222.0190 C   0  0  0  0  0  0  0  0  0  0  0  0
  140.4950   75.6460  221.5320 C   0  0  0  0  0  0  0  0  0  0  0  0
  139.1220   75.5320  221.4860 C   0  0  0  0  0  0  0  0  0  0  0  0
  138.3000   74.1100  220.8840 Cl  0  0  0  0  0  0  0  0  0  0  0  0
  138.3820   76.6020  221.9400 C   0  0  0  0  0  0  0  0  0  0  0  0
  138.9690   77.7380  222.4220 C   0  0  0  0  0  0  0  0  0  0  0  0
  142.3260   76.4350  218.5970 C   0  0  0  0  0  0  0  0  0  0  0  0
  142.0580   75.5420  217.5830 C   0  0  0  0  0  0  0  0  0  0  0  0
  142.7730   74.3440  217.6150 C   0  0  0  0  0  0  0  0  0  0  0  0
  143.6940   74.0690  218.6030 C   0  0  0  0  0  0  0  0  0  0  0  0
  144.4140   72.8930  218.6590 C   0  0  0  0  0  0  0  0  0  0  0  0
  145.3400   72.6380  219.6680 C   0  0  0  0  0  0  0  0  0  0  0  0
  145.5290   73.6050  220.6340 C   0  0  0  0  0  0  0  0  0  0  0  0
  146.6920   73.3220  221.9300 Cl  0  0  0  0  0  0  0  0  0  0  0  0
  144.8250   74.8080  220.6200 C   0  0  0  0  0  0  0  0  0  0  0  0
  143.9210   75.0030  219.5950 C   0  0  0  0  0  0  0  0  0  0  0  0
  143.2250   76.1540  219.5510 N   0  0  0  0  0  0  0  0  0  0  0  0
  142.6680   78.4090  220.2880 H   0  0  0  0  0  0  0  0  0  0  0  0
  142.0700   80.7226  219.7085 H   0  0  0  0  0  0  0  0  0  0  0  0
  140.5452   79.9363  218.9052 H   0  0  0  0  0  0  0  0  0  0  0  0
  140.5818   82.4269  222.4777 H   0  0  0  0  0  0  0  0  0  0  0  0
  139.9703   81.4765  223.8733 H   0  0  0  0  0  0  0  0  0  0  0  0
  142.5908   82.5196  223.4074 H   0  0  0  0  0  0  0  0  0  0  0  0
  141.9442   81.5422  224.8148 H   0  0  0  0  0  0  0  0  0  0  0  0
  143.3397   80.5943  222.3407 H   0  0  0  0  0  0  0  0  0  0  0  0
  143.8049   80.4484  224.1108 H   0  0  0  0  0  0  0  0  0  0  0  0
  142.8836   78.3919  222.8083 H   0  0  0  0  0  0  0  0  0  0  0  0
  142.3649   78.7753  224.5145 H   0  0  0  0  0  0  0  0  0  0  0  0
  140.2864   79.1346  223.9549 H   0  0  0  0  0  0  0  0  0  0  0  0
  142.1774   76.8507  222.0401 H   0  0  0  0  0  0  0  0  0  0  0  0
  141.1264   74.8172  221.1792 H   0  0  0  0  0  0  0  0  0  0  0  0
  137.2841   76.5398  221.9136 H   0  0  0  0  0  0  0  0  0  0  0  0
  138.3319   78.5630  222.7735 H   0  0  0  0  0  0  0  0  0  0  0  0
  141.3233   75.7605  216.7940 H   0  0  0  0  0  0  0  0  0  0  0  0
  142.5962   73.5963  216.8278 H   0  0  0  0  0  0  0  0  0  0  0  0
  144.2514   72.1321  217.8814 H   0  0  0  0  0  0  0  0  0  0  0  0
  145.9038   71.6938  219.6939 H   0  0  0  0  0  0  0  0  0  0  0  0
  144.9835   75.5720  221.3953 H   0  0  0  0  0  0  0  0  0  0  0  0
  1  2  2  0
  2  3  1  0
  3  4  1  0
  4  5  1  0
  5  6  2  0
  5  7  1  0
  7  8  1  0
  8  9  1  0
  9 10  1  0
 10 11  1  0
 11 12  1  0
 12 13  1  0
 13 14  2  0
 14 15  1  0
 15 16  2  0
 16 17  1  0
 16 18  1  0
 18 19  2  0
  2 20  1  0
 20 21  2  0
 21 22  1  0
 22 23  2  0
 23 24  1  0
 24 25  2  0
 25 26  1  0
 26 27  1  0
 26 28  2  0
 28 29  1  0
 29 30  2  0
 12  7  1  0
 19 13  1  0
 30 20  1  0
 29 23  1  0
  3 31  1  0
  4 32  1  0
  4 33  1  0
  8 34  1  0
  8 35  1  0
  9 36  1  0
  9 37  1  0
 10 38  1  0
 10 39  1  0
 11 40  1  0
 11 41  1  0
 12 42  1  1
 14 43  1  0
 15 44  1  0
 18 45  1  0
 19 46  1  0
 21 47  1  0
 22 48  1  0
 24 49  1  0
 25 50  1  0
 28 51  1  0
M  END
>  <smiles>  (35) 
O=C(NCC(=O)N1CCCCC1c1ccc(Cl)cc1)c1ccc2ccc(Cl)cc2n1

>  <score_type>  (35) 
oracle

>  <origin>  (35) 
autodockgpu

>  <m_score__min__energy>  (35) 
-8.6099999999999994

>  <m_primary>  (35) 
energy

>  <rmsd>  (35) 
7.970425357212258

>  <m_score__min__rmsd>  (35) 
7.970425357212258

>  <meeko>  (35) 
{"free_energy": -7.3, "intermolecular_energy": -8.79, "internal_energy": -2.79, "cluster_size": 22, "cluster_id": 5, "rank_in_cluster": 10}

>  <energy>  (35) 
-7.45

>  <cluster_rmsd>  (35) 
0.0

>  <cluster>  (35) 
6

$$$$

     RDKit          3D

 51 54  0  0  0  0  0  0  0  0999 V2000
  139.1030   73.6960  221.2340 O   0  0  0  0  0  0  0  0  0  0  0  0
  140.0380   74.4340  221.5920 C   0  0  0  0  0  0  0  0  0  0  0  0
  141.3900   73.9270  221.5980 N   0  0  0  0  0  0  0  0  0  0  0  0
  141.7550   72.6130  221.2130 C   0  0  0  0  0  0  0  0  0  0  0  0
  142.3330   72.3330  219.9120 C   0  0  0  0  0  0  0  0  0  0  0  0
  141.4940   71.7370  219.1030 O   0  0  0  0  0  0  0  0  0  0  0  0
  143.5890   72.5640  219.3630 N   0  0  0  0  0  0  0  0  0  0  0  0
  144.5590   71.5490  218.9240 C   0  0  0  0  0  0  0  0  0  0  0  0
  145.8250   71.6890  219.7230 C   0  0  0  0  0  0  0  0  0  0  0  0
  145.7980   72.7990  220.7130 C   0  0  0  0  0  0  0  0  0  0  0  0
  145.2660   74.1110  220.1760 C   0  0  0  0  0  0  0  0  0  0  0  0
  144.1520   73.9340  219.1900 C   0  0  2  0  0  0  0  0  0  0  0  0
  143.1810   74.9970  219.1020 C   0  0  0  0  0  0  0  0  0  0  0  0
  141.9750   74.9720  218.4400 C   0  0  0  0  0  0  0  0  0  0  0  0
  141.0800   76.0200  218.4370 C   0  0  0  0  0  0  0  0  0  0  0  0
  141.3690   77.1790  219.1240 C   0  0  0  0  0  0  0  0  0  0  0  0
  140.2910   78.5570  219.1720 Cl  0  0  0  0  0  0  0  0  0  0  0  0
  142.5700   77.2350  219.7960 C   0  0  0  0  0  0  0  0  0  0  0  0
  143.4520   76.1910  219.7950 C   0  0  0  0  0  0  0  0  0  0  0  0
  139.7750   75.8270  222.0120 C   0  0  0  0  0  0  0  0  0  0  0  0
  138.4700   76.2680  222.0450 C   0  0  0  0  0  0  0  0  0  0  0  0
  138.2790   77.5900  222.4470 C   0  0  0  0  0  0  0  0  0  0  0  0
  139.3320   78.4090  222.7930 C   0  0  0  0  0  0  0  0  0  0  0  0
  139.1710   79.7190  223.1940 C   0  0  0  0  0  0  0  0  0  0  0  0
  140.2510   80.5270  223.5390 C   0  0  0  0  0  0  0  0  0  0  0  0
  141.5170   79.9810  223.4700 C   0  0  0  0  0  0  0  0  0  0  0  0
  142.9140   80.9700  223.8980 Cl  0  0  0  0  0  0  0  0  0  0  0  0
  141.7300   78.6630  223.0700 C   0  0  0  0  0  0  0  0  0  0  0  0
  140.6200   77.9120  222.7410 C   0  0  0  0  0  0  0  0  0  0  0  0
  140.7900   76.6350  222.3510 N   0  0  0  0  0  0  0  0  0  0  0  0
  142.1060   74.6310  221.9220 H   0  0  0  0  0  0  0  0  0  0  0  0
  142.4855   72.2640  221.9577 H   0  0  0  0  0  0  0  0  0  0  0  0
  140.7799   72.1078  221.1500 H   0  0  0  0  0  0  0  0  0  0  0  0
  144.1359   70.5456  219.0796 H   0  0  0  0  0  0  0  0  0  0  0  0
  144.7811   71.6909  217.8560 H   0  0  0  0  0  0  0  0  0  0  0  0
  145.9979   70.7472  220.2644 H   0  0  0  0  0  0  0  0  0  0  0  0
  146.6279   71.9210  219.0077 H   0  0  0  0  0  0  0  0  0  0  0  0
  145.1627   72.4909  221.5565 H   0  0  0  0  0  0  0  0  0  0  0  0
  146.8429   72.9824  221.0037 H   0  0  0  0  0  0  0  0  0  0  0  0
  144.8942   74.7099  221.0204 H   0  0  0  0  0  0  0  0  0  0  0  0
  146.0934   74.6097  219.6500 H   0  0  0  0  0  0  0  0  0  0  0  0
  144.5856   74.0238  218.1831 H   0  0  0  0  0  0  0  0  0  0  0  0
  141.7098   74.0627  217.8807 H   0  0  0  0  0  0  0  0  0  0  0  0
  140.1328   75.9311  217.8849 H   0  0  0  0  0  0  0  0  0  0  0  0
  142.8275   78.1491  220.3512 H   0  0  0  0  0  0  0  0  0  0  0  0
  144.3971   76.2866  220.3497 H   0  0  0  0  0  0  0  0  0  0  0  0
  137.6280   75.6156  221.7704 H   0  0  0  0  0  0  0  0  0  0  0  0
  137.2557   77.9914  222.4892 H   0  0  0  0  0  0  0  0  0  0  0  0
  138.1556   80.1392  223.2428 H   0  0  0  0  0  0  0  0  0  0  0  0
  140.1001   81.5692  223.8570 H   0  0  0  0  0  0  0  0  0  0  0  0
  142.7433   78.2380  223.0186 H   0  0  0  0  0  0  0  0  0  0  0  0
  1  2  2  0
  2  3  1  0
  3  4  1  0
  4  5  1  0
  5  6  2  0
  5  7  1  0
  7  8  1  0
  8  9  1  0
  9 10  1  0
 10 11  1  0
 11 12  1  0
 12 13  1  0
 13 14  2  0
 14 15  1  0
 15 16  2  0
 16 17  1  0
 16 18  1  0
 18 19  2  0
  2 20  1  0
 20 21  2  0
 21 22  1  0
 22 23  2  0
 23 24  1  0
 24 25  2  0
 25 26  1  0
 26 27  1  0
 26 28  2  0
 28 29  1  0
 29 30  2  0
 12  7  1  0
 19 13  1  0
 30 20  1  0
 29 23  1  0
  3 31  1  0
  4 32  1  0
  4 33  1  0
  8 34  1  0
  8 35  1  0
  9 36  1  0
  9 37  1  0
 10 38  1  0
 10 39  1  0
 11 40  1  0
 11 41  1  0
 12 42  1  6
 14 43  1  0
 15 44  1  0
 18 45  1  0
 19 46  1  0
 21 47  1  0
 22 48  1  0
 24 49  1  0
 25 50  1  0
 28 51  1  0
M  END
>  <smiles>  (36) 
O=C(NCC(=O)N1CCCCC1c1ccc(Cl)cc1)c1ccc2ccc(Cl)cc2n1

>  <score_type>  (36) 
oracle

>  <origin>  (36) 
autodockgpu

>  <m_score__min__energy>  (36) 
-8.6099999999999994

>  <m_primary>  (36) 
energy

>  <rmsd>  (36) 
7.09069939023813

>  <m_score__min__rmsd>  (36) 
7.09069939023813

>  <meeko>  (36) 
{"free_energy": -6.79, "intermolecular_energy": -8.28, "internal_energy": -3.18, "cluster_size": 14, "cluster_id": 6, "rank_in_cluster": 14}

>  <energy>  (36) 
-7.43

>  <cluster_rmsd>  (36) 
0.11

>  <cluster>  (36) 
6

$$$$

     RDKit          3D

 51 54  0  0  0  0  0  0  0  0999 V2000
  140.9380   71.3640  221.4310 O   0  0  0  0  0  0  0  0  0  0  0  0
  140.6940   72.4220  222.0390 C   0  0  0  0  0  0  0  0  0  0  0  0
  140.0320   72.3760  223.3210 N   0  0  0  0  0  0  0  0  0  0  0  0
  139.6260   71.1830  223.9710 C   0  0  0  0  0  0  0  0  0  0  0  0
  140.2240   70.7540  225.2210 C   0  0  0  0  0  0  0  0  0  0  0  0
  141.4410   71.2080  225.3820 O   0  0  0  0  0  0  0  0  0  0  0  0
  139.7670   69.9620  226.2680 N   0  0  0  0  0  0  0  0  0  0  0  0
  139.9420   70.2150  227.7070 C   0  0  0  0  0  0  0  0  0  0  0  0
  140.7200   69.0860  228.3210 C   0  0  0  0  0  0  0  0  0  0  0  0
  141.0890   68.0100  227.3620 C   0  0  0  0  0  0  0  0  0  0  0  0
  139.9630   67.5550  226.4600 C   0  0  0  0  0  0  0  0  0  0  0  0
  139.0520   68.6710  226.0480 C   0  0  2  0  0  0  0  0  0  0  0  0
  138.3890   68.5390  224.7740 C   0  0  0  0  0  0  0  0  0  0  0  0
  138.8350   67.8520  223.6690 C   0  0  0  0  0  0  0  0  0  0  0  0
  138.1190   67.7390  222.4960 C   0  0  0  0  0  0  0  0  0  0  0  0
  136.8810   68.3340  222.3800 C   0  0  0  0  0  0  0  0  0  0  0  0
  135.9080   68.2410  220.9290 Cl  0  0  0  0  0  0  0  0  0  0  0  0
  136.4080   69.0300  223.4700 C   0  0  0  0  0  0  0  0  0  0  0  0
  137.1240   69.1370  224.6300 C   0  0  0  0  0  0  0  0  0  0  0  0
  141.0760   73.7270  221.4580 C   0  0  0  0  0  0  0  0  0  0  0  0
  141.7510   73.7380  220.2570 C   0  0  0  0  0  0  0  0  0  0  0  0
  142.0880   74.9960  219.7540 C   0  0  0  0  0  0  0  0  0  0  0  0
  141.7650   76.1590  220.4180 C   0  0  0  0  0  0  0  0  0  0  0  0
  142.0850   77.4140  219.9440 C   0  0  0  0  0  0  0  0  0  0  0  0
  141.7470   78.5760  220.6330 C   0  0  0  0  0  0  0  0  0  0  0  0
  141.0700   78.4470  221.8290 C   0  0  0  0  0  0  0  0  0  0  0  0
  140.6230   79.8940  222.7340 Cl  0  0  0  0  0  0  0  0  0  0  0  0
  140.7240   77.2000  222.3490 C   0  0  0  0  0  0  0  0  0  0  0  0
  141.0870   76.0860  221.6200 C   0  0  0  0  0  0  0  0  0  0  0  0
  140.7680   74.8670  222.0920 N   0  0  0  0  0  0  0  0  0  0  0  0
  139.8680   73.3250  223.7500 H   0  0  0  0  0  0  0  0  0  0  0  0
  138.5480   71.2872  224.1636 H   0  0  0  0  0  0  0  0  0  0  0  0
  139.9670   70.4069  223.2700 H   0  0  0  0  0  0  0  0  0  0  0  0
  140.4895   71.1583  227.8499 H   0  0  0  0  0  0  0  0  0  0  0  0
  138.9563   70.2874  228.1899 H   0  0  0  0  0  0  0  0  0  0  0  0
  141.6451   69.4977  228.7509 H   0  0  0  0  0  0  0  0  0  0  0  0
  140.0675   68.6261  229.0778 H   0  0  0  0  0  0  0  0  0  0  0  0
  141.9073   68.3818  226.7279 H   0  0  0  0  0  0  0  0  0  0  0  0
  141.3741   67.1374  227.9681 H   0  0  0  0  0  0  0  0  0  0  0  0
  140.3989   67.1067  225.5550 H   0  0  0  0  0  0  0  0  0  0  0  0
  139.3595   66.8319  227.0283 H   0  0  0  0  0  0  0  0  0  0  0  0
  138.1661   68.6302  226.6988 H   0  0  0  0  0  0  0  0  0  0  0  0
  139.8196   67.3646  223.7242 H   0  0  0  0  0  0  0  0  0  0  0  0
  138.5368   67.1726  221.6507 H   0  0  0  0  0  0  0  0  0  0  0  0
  135.4229   69.5153  223.4055 H   0  0  0  0  0  0  0  0  0  0  0  0
  136.7002   69.7048  225.4714 H   0  0  0  0  0  0  0  0  0  0  0  0
  142.0093   72.8101  219.7256 H   0  0  0  0  0  0  0  0  0  0  0  0
  142.6281   75.0605  218.7979 H   0  0  0  0  0  0  0  0  0  0  0  0
  142.6253   77.5000  218.9897 H   0  0  0  0  0  0  0  0  0  0  0  0
  142.0116   79.5671  220.2360 H   0  0  0  0  0  0  0  0  0  0  0  0
  140.1832   77.1081  223.3024 H   0  0  0  0  0  0  0  0  0  0  0  0
  1  2  2  0
  2  3  1  0
  3  4  1  0
  4  5  1  0
  5  6  2  0
  5  7  1  0
  7  8  1  0
  8  9  1  0
  9 10  1  0
 10 11  1  0
 11 12  1  0
 12 13  1  0
 13 14  2  0
 14 15  1  0
 15 16  2  0
 16 17  1  0
 16 18  1  0
 18 19  2  0
  2 20  1  0
 20 21  2  0
 21 22  1  0
 22 23  2  0
 23 24  1  0
 24 25  2  0
 25 26  1  0
 26 27  1  0
 26 28  2  0
 28 29  1  0
 29 30  2  0
 12  7  1  0
 19 13  1  0
 30 20  1  0
 29 23  1  0
  3 31  1  0
  4 32  1  0
  4 33  1  0
  8 34  1  0
  8 35  1  0
  9 36  1  0
  9 37  1  0
 10 38  1  0
 10 39  1  0
 11 40  1  0
 11 41  1  0
 12 42  1  1
 14 43  1  0
 15 44  1  0
 18 45  1  0
 19 46  1  0
 21 47  1  0
 22 48  1  0
 24 49  1  0
 25 50  1  0
 28 51  1  0
M  END
>  <smiles>  (37) 
O=C(NCC(=O)N1CCCCC1c1ccc(Cl)cc1)c1ccc2ccc(Cl)cc2n1

>  <score_type>  (37) 
oracle

>  <origin>  (37) 
autodockgpu

>  <m_score__min__energy>  (37) 
-8.6099999999999994

>  <m_primary>  (37) 
energy

>  <rmsd>  (37) 
8.989616406148679

>  <m_score__min__rmsd>  (37) 
8.989616406148679

>  <meeko>  (37) 
{"free_energy": -8.58, "intermolecular_energy": -10.07, "internal_energy": -1.68, "cluster_size": 8, "cluster_id": 1, "rank_in_cluster": 3}

>  <energy>  (37) 
-7.42

>  <cluster_rmsd>  (37) 
0.11

>  <cluster>  (37) 
6

$$$$

     RDKit          3D

 51 54  0  0  0  0  0  0  0  0999 V2000
  140.9000   71.2710  221.4500 O   0  0  0  0  0  0  0  0  0  0  0  0
  140.6920   72.3270  222.0740 C   0  0  0  0  0  0  0  0  0  0  0  0
  140.0800   72.2780  223.3820 N   0  0  0  0  0  0  0  0  0  0  0  0
  139.6860   71.0850  224.0370 C   0  0  0  0  0  0  0  0  0  0  0  0
  140.2520   70.6950  225.3150 C   0  0  0  0  0  0  0  0  0  0  0  0
  141.4320   71.2210  225.5280 O   0  0  0  0  0  0  0  0  0  0  0  0
  139.7960   69.8780  226.3440 N   0  0  0  0  0  0  0  0  0  0  0  0
  140.0230   70.0680  227.7850 C   0  0  0  0  0  0  0  0  0  0  0  0
  140.7760   68.8870  228.3310 C   0  0  0  0  0  0  0  0  0  0  0  0
  141.0760   67.8380  227.3200 C   0  0  0  0  0  0  0  0  0  0  0  0
  139.9080   67.4610  226.4360 C   0  0  0  0  0  0  0  0  0  0  0  0
  139.0280   68.6250  226.0960 C   0  0  2  0  0  0  0  0  0  0  0  0
  138.3230   68.5680  224.8390 C   0  0  0  0  0  0  0  0  0  0  0  0
  137.1350   69.1850  224.5210 C   0  0  0  0  0  0  0  0  0  0  0  0
  136.5430   69.1140  223.2780 C   0  0  0  0  0  0  0  0  0  0  0  0
  137.1420   68.3940  222.2660 C   0  0  0  0  0  0  0  0  0  0  0  0
  136.4590   68.2510  220.6610 Cl  0  0  0  0  0  0  0  0  0  0  0  0
  138.3310   67.7630  222.5550 C   0  0  0  0  0  0  0  0  0  0  0  0
  138.9120   67.8390  223.7900 C   0  0  0  0  0  0  0  0  0  0  0  0
  141.0670   73.6320  221.4890 C   0  0  0  0  0  0  0  0  0  0  0  0
  141.7240   73.6440  220.2780 C   0  0  0  0  0  0  0  0  0  0  0  0
  142.0540   74.9010  219.7710 C   0  0  0  0  0  0  0  0  0  0  0  0
  141.7420   76.0640  220.4400 C   0  0  0  0  0  0  0  0  0  0  0  0
  142.0560   77.3190  219.9620 C   0  0  0  0  0  0  0  0  0  0  0  0
  141.7300   78.4810  220.6570 C   0  0  0  0  0  0  0  0  0  0  0  0
  141.0690   78.3520  221.8620 C   0  0  0  0  0  0  0  0  0  0  0  0
  140.6370   79.7980  222.7740 Cl  0  0  0  0  0  0  0  0  0  0  0  0
  140.7300   77.1050  222.3860 C   0  0  0  0  0  0  0  0  0  0  0  0
  141.0810   75.9900  221.6520 C   0  0  0  0  0  0  0  0  0  0  0  0
  140.7690   74.7720  222.1280 N   0  0  0  0  0  0  0  0  0  0  0  0
  139.9440   73.2260  223.8230 H   0  0  0  0  0  0  0  0  0  0  0  0
  138.5993   71.1602  224.1898 H   0  0  0  0  0  0  0  0  0  0  0  0
  140.0734   70.3078  223.3619 H   0  0  0  0  0  0  0  0  0  0  0  0
  140.6099   70.9842  227.9466 H   0  0  0  0  0  0  0  0  0  0  0  0
  139.0557   70.1579  228.3010 H   0  0  0  0  0  0  0  0  0  0  0  0
  141.7280   69.2471  228.7481 H   0  0  0  0  0  0  0  0  0  0  0  0
  140.1292   68.4212  229.0891 H   0  0  0  0  0  0  0  0  0  0  0  0
  141.8888   68.2050  226.6761 H   0  0  0  0  0  0  0  0  0  0  0  0
  141.3456   66.9319  227.8825 H   0  0  0  0  0  0  0  0  0  0  0  0
  140.3001   67.0338  225.5012 H   0  0  0  0  0  0  0  0  0  0  0  0
  139.2945   66.7382  226.9939 H   0  0  0  0  0  0  0  0  0  0  0  0
  138.1606   68.5907  226.7717 H   0  0  0  0  0  0  0  0  0  0  0  0
  136.6283   69.7686  225.3037 H   0  0  0  0  0  0  0  0  0  0  0  0
  135.5908   69.6328  223.0931 H   0  0  0  0  0  0  0  0  0  0  0  0
  138.8293   67.1791  221.7671 H   0  0  0  0  0  0  0  0  0  0  0  0
  139.8638   67.3171  223.9679 H   0  0  0  0  0  0  0  0  0  0  0  0
  141.9738   72.7164  219.7421 H   0  0  0  0  0  0  0  0  0  0  0  0
  142.5797   74.9655  218.8069 H   0  0  0  0  0  0  0  0  0  0  0  0
  142.5816   77.4051  218.9995 H   0  0  0  0  0  0  0  0  0  0  0  0
  141.9914   79.4720  220.2576 H   0  0  0  0  0  0  0  0  0  0  0  0
  140.2032   77.0134  223.3473 H   0  0  0  0  0  0  0  0  0  0  0  0
  1  2  2  0
  2  3  1  0
  3  4  1  0
  4  5  1  0
  5  6  2  0
  5  7  1  0
  7  8  1  0
  8  9  1  0
  9 10  1  0
 10 11  1  0
 11 12  1  0
 12 13  1  0
 13 14  2  0
 14 15  1  0
 15 16  2  0
 16 17  1  0
 16 18  1  0
 18 19  2  0
  2 20  1  0
 20 21  2  0
 21 22  1  0
 22 23  2  0
 23 24  1  0
 24 25  2  0
 25 26  1  0
 26 27  1  0
 26 28  2  0
 28 29  1  0
 29 30  2  0
 12  7  1  0
 19 13  1  0
 30 20  1  0
 29 23  1  0
  3 31  1  0
  4 32  1  0
  4 33  1  0
  8 34  1  0
  8 35  1  0
  9 36  1  0
  9 37  1  0
 10 38  1  0
 10 39  1  0
 11 40  1  0
 11 41  1  0
 12 42  1  1
 14 43  1  0
 15 44  1  0
 18 45  1  0
 19 46  1  0
 21 47  1  0
 22 48  1  0
 24 49  1  0
 25 50  1  0
 28 51  1  0
M  END
>  <smiles>  (38) 
O=C(NCC(=O)N1CCCCC1c1ccc(Cl)cc1)c1ccc2ccc(Cl)cc2n1

>  <score_type>  (38) 
oracle

>  <origin>  (38) 
autodockgpu

>  <m_score__min__energy>  (38) 
-8.6099999999999994

>  <m_primary>  (38) 
energy

>  <rmsd>  (38) 
9.007331030888258

>  <m_score__min__rmsd>  (38) 
9.007331030888258

>  <meeko>  (38) 
{"free_energy": -8.58, "intermolecular_energy": -10.07, "internal_energy": -1.67, "cluster_size": 8, "cluster_id": 1, "rank_in_cluster": 2}

>  <energy>  (38) 
-7.33

>  <cluster_rmsd>  (38) 
0.26

>  <cluster>  (38) 
6

$$$$

     RDKit          3D

 51 54  0  0  0  0  0  0  0  0999 V2000
  140.3380   73.5720  222.1340 O   0  0  0  0  0  0  0  0  0  0  0  0
  140.2720   74.5730  221.3990 C   0  0  0  0  0  0  0  0  0  0  0  0
  140.5640   74.4490  219.9900 N   0  0  0  0  0  0  0  0  0  0  0  0
  140.9280   73.2380  219.3510 C   0  0  0  0  0  0  0  0  0  0  0  0
  142.0590   73.1630  218.4460 C   0  0  0  0  0  0  0  0  0  0  0  0
  141.6980   72.9960  217.1980 O   0  0  0  0  0  0  0  0  0  0  0  0
  143.4340   73.2280  218.6380 N   0  0  0  0  0  0  0  0  0  0  0  0
  144.4090   72.1520  218.4000 C   0  0  0  0  0  0  0  0  0  0  0  0
  145.1050   71.8140  219.6890 C   0  0  0  0  0  0  0  0  0  0  0  0
  144.6700   72.6400  220.8480 C   0  0  0  0  0  0  0  0  0  0  0  0
  144.5880   74.1250  220.5700 C   0  0  0  0  0  0  0  0  0  0  0  0
  144.1140   74.4380  219.1830 C   0  0  2  0  0  0  0  0  0  0  0  0
  143.4080   75.6820  218.9980 C   0  0  0  0  0  0  0  0  0  0  0  0
  142.8260   76.4630  219.9690 C   0  0  0  0  0  0  0  0  0  0  0  0
  142.2010   77.6650  219.7130 C   0  0  0  0  0  0  0  0  0  0  0  0
  142.1340   78.1510  218.4250 C   0  0  0  0  0  0  0  0  0  0  0  0
  141.3610   79.6650  218.0130 Cl  0  0  0  0  0  0  0  0  0  0  0  0
  142.7080   77.3900  217.4300 C   0  0  0  0  0  0  0  0  0  0  0  0
  143.3250   76.1990  217.6920 C   0  0  0  0  0  0  0  0  0  0  0  0
  139.8980   75.8910  221.9560 C   0  0  0  0  0  0  0  0  0  0  0  0
  138.5610   76.1660  222.1490 C   0  0  0  0  0  0  0  0  0  0  0  0
  138.2630   77.4220  222.6770 C   0  0  0  0  0  0  0  0  0  0  0  0
  139.2460   78.3360  222.9890 C   0  0  0  0  0  0  0  0  0  0  0  0
  138.9800   79.5850  223.5110 C   0  0  0  0  0  0  0  0  0  0  0  0
  139.9910   80.4920  223.8190 C   0  0  0  0  0  0  0  0  0  0  0  0
  141.2970   80.1100  223.5850 C   0  0  0  0  0  0  0  0  0  0  0  0
  142.6080   81.2290  223.9600 Cl  0  0  0  0  0  0  0  0  0  0  0  0
  141.6160   78.8600  223.0580 C   0  0  0  0  0  0  0  0  0  0  0  0
  140.5700   78.0050  222.7740 C   0  0  0  0  0  0  0  0  0  0  0  0
  140.8430   76.7900  222.2650 N   0  0  0  0  0  0  0  0  0  0  0  0
  140.4830   75.3560  219.4570 H   0  0  0  0  0  0  0  0  0  0  0  0
  141.1255   72.5121  220.1536 H   0  0  0  0  0  0  0  0  0  0  0  0
  140.0767   73.0645  218.6763 H   0  0  0  0  0  0  0  0  0  0  0  0
  143.8870   71.2613  218.0203 H   0  0  0  0  0  0  0  0  0  0  0  0
  145.1503   72.4855  217.6589 H   0  0  0  0  0  0  0  0  0  0  0  0
  144.9054   70.7579  219.9230 H   0  0  0  0  0  0  0  0  0  0  0  0
  146.1747   72.0199  219.5359 H   0  0  0  0  0  0  0  0  0  0  0  0
  143.6736   72.2943  221.1605 H   0  0  0  0  0  0  0  0  0  0  0  0
  145.4363   72.5113  221.6266 H   0  0  0  0  0  0  0  0  0  0  0  0
  143.8896   74.5778  221.2892 H   0  0  0  0  0  0  0  0  0  0  0  0
  145.6043   74.5340  220.6695 H   0  0  0  0  0  0  0  0  0  0  0  0
  145.0023   74.6607  218.5737 H   0  0  0  0  0  0  0  0  0  0  0  0
  142.8612   76.1083  221.0096 H   0  0  0  0  0  0  0  0  0  0  0  0
  141.7545   78.2378  220.5392 H   0  0  0  0  0  0  0  0  0  0  0  0
  142.6684   77.7525  216.3922 H   0  0  0  0  0  0  0  0  0  0  0  0
  143.7678   75.6303  216.8610 H   0  0  0  0  0  0  0  0  0  0  0  0
  137.7751   75.4374  221.9011 H   0  0  0  0  0  0  0  0  0  0  0  0
  137.2106   77.6914  222.8498 H   0  0  0  0  0  0  0  0  0  0  0  0
  137.9339   79.8743  223.6900 H   0  0  0  0  0  0  0  0  0  0  0  0
  139.7562   81.4825  224.2360 H   0  0  0  0  0  0  0  0  0  0  0  0
  142.6602   78.5662  222.8755 H   0  0  0  0  0  0  0  0  0  0  0  0
  1  2  2  0
  2  3  1  0
  3  4  1  0
  4  5  1  0
  5  6  2  0
  5  7  1  0
  7  8  1  0
  8  9  1  0
  9 10  1  0
 10 11  1  0
 11 12  1  0
 12 13  1  0
 13 14  2  0
 14 15  1  0
 15 16  2  0
 16 17  1  0
 16 18  1  0
 18 19  2  0
  2 20  1  0
 20 21  2  0
 21 22  1  0
 22 23  2  0
 23 24  1  0
 24 25  2  0
 25 26  1  0
 26 27  1  0
 26 28  2  0
 28 29  1  0
 29 30  2  0
 12  7  1  0
 19 13  1  0
 30 20  1  0
 29 23  1  0
  3 31  1  0
  4 32  1  0
  4 33  1  0
  8 34  1  0
  8 35  1  0
  9 36  1  0
  9 37  1  0
 10 38  1  0
 10 39  1  0
 11 40  1  0
 11 41  1  0
 12 42  1  6
 14 43  1  0
 15 44  1  0
 18 45  1  0
 19 46  1  0
 21 47  1  0
 22 48  1  0
 24 49  1  0
 25 50  1  0
 28 51  1  0
M  END
>  <smiles>  (39) 
O=C(NCC(=O)N1CCCCC1c1ccc(Cl)cc1)c1ccc2ccc(Cl)cc2n1

>  <score_type>  (39) 
oracle

>  <origin>  (39) 
autodockgpu

>  <m_score__min__energy>  (39) 
-8.6099999999999994

>  <m_primary>  (39) 
energy

>  <rmsd>  (39) 
6.937411690338112

>  <m_score__min__rmsd>  (39) 
6.937411690338112

>  <meeko>  (39) 
{"free_energy": -7.45, "intermolecular_energy": -8.94, "internal_energy": -2.43, "cluster_size": 14, "cluster_id": 6, "rank_in_cluster": 1}

>  <energy>  (39) 
-7.27

>  <cluster_rmsd>  (39) 
0.93

>  <cluster>  (39) 
6

$$$$

     RDKit          3D

 51 54  0  0  0  0  0  0  0  0999 V2000
  140.3910   77.6920  217.9890 O   0  0  0  0  0  0  0  0  0  0  0  0
  141.3730   77.5380  218.7380 C   0  0  0  0  0  0  0  0  0  0  0  0
  141.7780   78.6070  219.6200 N   0  0  0  0  0  0  0  0  0  0  0  0
  141.1250   79.8620  219.7100 C   0  0  0  0  0  0  0  0  0  0  0  0
  140.3030   80.2130  220.8520 C   0  0  0  0  0  0  0  0  0  0  0  0
  139.0740   80.5200  220.5170 O   0  0  0  0  0  0  0  0  0  0  0  0
  140.5590   80.2920  222.2160 N   0  0  0  0  0  0  0  0  0  0  0  0
  140.7170   81.5190  223.0140 C   0  0  0  0  0  0  0  0  0  0  0  0
  142.0920   81.5450  223.6210 C   0  0  0  0  0  0  0  0  0  0  0  0
  142.9210   80.3530  223.3000 C   0  0  0  0  0  0  0  0  0  0  0  0
  142.2090   79.0270  223.4590 C   0  0  0  0  0  0  0  0  0  0  0  0
  140.7630   79.0850  223.0680 C   0  0  2  0  0  0  0  0  0  0  0  0
  140.1690   77.8680  222.5720 C   0  0  0  0  0  0  0  0  0  0  0  0
  138.8350   77.6230  222.3480 C   0  0  0  0  0  0  0  0  0  0  0  0
  138.3480   76.4410  221.8310 C   0  0  0  0  0  0  0  0  0  0  0  0
  139.2140   75.4190  221.5060 C   0  0  0  0  0  0  0  0  0  0  0  0
  138.6830   73.8880  220.8460 Cl  0  0  0  0  0  0  0  0  0  0  0  0
  140.5580   75.6350  221.7200 C   0  0  0  0  0  0  0  0  0  0  0  0
  141.0320   76.8100  222.2320 C   0  0  0  0  0  0  0  0  0  0  0  0
  142.1290   76.2670  218.7310 C   0  0  0  0  0  0  0  0  0  0  0  0
  141.8350   75.3330  217.7620 C   0  0  0  0  0  0  0  0  0  0  0  0
  142.5770   74.1530  217.8020 C   0  0  0  0  0  0  0  0  0  0  0  0
  143.5480   73.9310  218.7540 C   0  0  0  0  0  0  0  0  0  0  0  0
  144.2960   72.7740  218.8170 C   0  0  0  0  0  0  0  0  0  0  0  0
  145.2730   72.5730  219.7890 C   0  0  0  0  0  0  0  0  0  0  0  0
  145.4840   73.5770  220.7120 C   0  0  0  0  0  0  0  0  0  0  0  0
  146.7110   73.3630  221.9610 Cl  0  0  0  0  0  0  0  0  0  0  0  0
  144.7530   74.7640  220.6900 C   0  0  0  0  0  0  0  0  0  0  0  0
  143.7990   74.9040  219.7020 C   0  0  0  0  0  0  0  0  0  0  0  0
  143.0770   76.0380  219.6520 N   0  0  0  0  0  0  0  0  0  0  0  0
  142.6220   78.3760  220.2080 H   0  0  0  0  0  0  0  0  0  0  0  0
  141.9139   80.6262  219.6501 H   0  0  0  0  0  0  0  0  0  0  0  0
  140.3847   79.7996  218.8988 H   0  0  0  0  0  0  0  0  0  0  0  0
  140.5850   82.3980  222.3660 H   0  0  0  0  0  0  0  0  0  0  0  0
  139.9616   81.5378  223.8134 H   0  0  0  0  0  0  0  0  0  0  0  0
  142.6155   82.4392  223.2518 H   0  0  0  0  0  0  0  0  0  0  0  0
  141.9563   81.5518  224.7126 H   0  0  0  0  0  0  0  0  0  0  0  0
  143.2556   80.4393  222.2557 H   0  0  0  0  0  0  0  0  0  0  0  0
  143.7516   80.3485  224.0212 H   0  0  0  0  0  0  0  0  0  0  0  0
  142.7129   78.2811  222.8268 H   0  0  0  0  0  0  0  0  0  0  0  0
  142.2499   78.7587  224.5250 H   0  0  0  0  0  0  0  0  0  0  0  0
  140.1755   79.1885  223.9922 H   0  0  0  0  0  0  0  0  0  0  0  0
  138.1140   78.4160  222.5956 H   0  0  0  0  0  0  0  0  0  0  0  0
  137.2662   76.3134  221.6776 H   0  0  0  0  0  0  0  0  0  0  0  0
  141.2720   74.8362  221.4708 H   0  0  0  0  0  0  0  0  0  0  0  0
  142.1149   76.9317  222.3820 H   0  0  0  0  0  0  0  0  0  0  0  0
  141.0601   75.5078  217.0011 H   0  0  0  0  0  0  0  0  0  0  0  0
  142.3809   73.3748  217.0497 H   0  0  0  0  0  0  0  0  0  0  0  0
  144.1148   71.9831  218.0743 H   0  0  0  0  0  0  0  0  0  0  0  0
  145.8586   71.6423  219.8200 H   0  0  0  0  0  0  0  0  0  0  0  0
  144.9295   75.5578  221.4308 H   0  0  0  0  0  0  0  0  0  0  0  0
  1  2  2  0
  2  3  1  0
  3  4  1  0
  4  5  1  0
  5  6  2  0
  5  7  1  0
  7  8  1  0
  8  9  1  0
  9 10  1  0
 10 11  1  0
 11 12  1  0
 12 13  1  0
 13 14  2  0
 14 15  1  0
 15 16  2  0
 16 17  1  0
 16 18  1  0
 18 19  2  0
  2 20  1  0
 20 21  2  0
 21 22  1  0
 22 23  2  0
 23 24  1  0
 24 25  2  0
 25 26  1  0
 26 27  1  0
 26 28  2  0
 28 29  1  0
 29 30  2  0
 12  7  1  0
 19 13  1  0
 30 20  1  0
 29 23  1  0
  3 31  1  0
  4 32  1  0
  4 33  1  0
  8 34  1  0
  8 35  1  0
  9 36  1  0
  9 37  1  0
 10 38  1  0
 10 39  1  0
 11 40  1  0
 11 41  1  0
 12 42  1  1
 14 43  1  0
 15 44  1  0
 18 45  1  0
 19 46  1  0
 21 47  1  0
 22 48  1  0
 24 49  1  0
 25 50  1  0
 28 51  1  0
M  END
>  <smiles>  (40) 
O=C(NCC(=O)N1CCCCC1c1ccc(Cl)cc1)c1ccc2ccc(Cl)cc2n1

>  <score_type>  (40) 
oracle

>  <origin>  (40) 
autodockgpu

>  <m_score__min__energy>  (40) 
-8.6099999999999994

>  <m_primary>  (40) 
energy

>  <rmsd>  (40) 
7.809783760787697

>  <m_score__min__rmsd>  (40) 
7.809783760787697

>  <meeko>  (40) 
{"free_energy": -7.25, "intermolecular_energy": -8.74, "internal_energy": -2.94, "cluster_size": 22, "cluster_id": 5, "rank_in_cluster": 15}

>  <energy>  (40) 
-7.0

>  <cluster_rmsd>  (40) 
1.23

>  <cluster>  (40) 
6

$$$$

     RDKit          3D

 51 54  0  0  0  0  0  0  0  0999 V2000
  140.6500   73.6720  222.1040 O   0  0  0  0  0  0  0  0  0  0  0  0
  140.3930   74.6260  221.3480 C   0  0  0  0  0  0  0  0  0  0  0  0
  140.4940   74.4560  219.9180 N   0  0  0  0  0  0  0  0  0  0  0  0
  140.8710   73.2480  219.2800 C   0  0  0  0  0  0  0  0  0  0  0  0
  142.0090   73.1820  218.3830 C   0  0  0  0  0  0  0  0  0  0  0  0
  141.6580   73.0410  217.1290 O   0  0  0  0  0  0  0  0  0  0  0  0
  143.3830   73.2330  218.5890 N   0  0  0  0  0  0  0  0  0  0  0  0
  144.3480   72.1440  218.3680 C   0  0  0  0  0  0  0  0  0  0  0  0
  145.0270   71.8070  219.6660 C   0  0  0  0  0  0  0  0  0  0  0  0
  144.5900   72.6460  220.8140 C   0  0  0  0  0  0  0  0  0  0  0  0
  144.5280   74.1300  220.5250 C   0  0  0  0  0  0  0  0  0  0  0  0
  144.0710   74.4390  219.1320 C   0  0  2  0  0  0  0  0  0  0  0  0
  143.3810   75.6890  218.9310 C   0  0  0  0  0  0  0  0  0  0  0  0
  142.8040   76.4870  219.8920 C   0  0  0  0  0  0  0  0  0  0  0  0
  142.1950   77.6940  219.6220 C   0  0  0  0  0  0  0  0  0  0  0  0
  142.1390   78.1670  218.3290 C   0  0  0  0  0  0  0  0  0  0  0  0
  141.3860   79.6870  217.8980 Cl  0  0  0  0  0  0  0  0  0  0  0  0
  142.7080   77.3900  217.3440 C   0  0  0  0  0  0  0  0  0  0  0  0
  143.3100   76.1940  217.6200 C   0  0  0  0  0  0  0  0  0  0  0  0
  139.9860   75.9340  221.9040 C   0  0  0  0  0  0  0  0  0  0  0  0
  138.6400   76.1980  222.0420 C   0  0  0  0  0  0  0  0  0  0  0  0
  138.3110   77.4470  222.5710 C   0  0  0  0  0  0  0  0  0  0  0  0
  139.2730   78.3640  222.9340 C   0  0  0  0  0  0  0  0  0  0  0  0
  138.9760   79.6050  223.4590 C   0  0  0  0  0  0  0  0  0  0  0  0
  139.9660   80.5150  223.8190 C   0  0  0  0  0  0  0  0  0  0  0  0
  141.2840   80.1440  223.6380 C   0  0  0  0  0  0  0  0  0  0  0  0
  142.5700   81.2680  224.0810 Cl  0  0  0  0  0  0  0  0  0  0  0  0
  141.6340   78.9020  223.1110 C   0  0  0  0  0  0  0  0  0  0  0  0
  140.6080   78.0430  222.7730 C   0  0  0  0  0  0  0  0  0  0  0  0
  140.9110   76.8360  222.2620 N   0  0  0  0  0  0  0  0  0  0  0  0
  140.2600   75.3250  219.3690 H   0  0  0  0  0  0  0  0  0  0  0  0
  141.0678   72.5225  220.0831 H   0  0  0  0  0  0  0  0  0  0  0  0
  140.0258   73.0694  218.5991 H   0  0  0  0  0  0  0  0  0  0  0  0
  143.8196   71.2567  217.9892 H   0  0  0  0  0  0  0  0  0  0  0  0
  145.1005   72.4638  217.6321 H   0  0  0  0  0  0  0  0  0  0  0  0
  144.8127   70.7549  219.9053 H   0  0  0  0  0  0  0  0  0  0  0  0
  146.1005   71.9990  219.5224 H   0  0  0  0  0  0  0  0  0  0  0  0
  143.5865   72.3140  221.1186 H   0  0  0  0  0  0  0  0  0  0  0  0
  145.3469   72.5141  221.6012 H   0  0  0  0  0  0  0  0  0  0  0  0
  143.8282   74.5959  221.2344 H   0  0  0  0  0  0  0  0  0  0  0  0
  145.5481   74.5277  220.6313 H   0  0  0  0  0  0  0  0  0  0  0  0
  144.9677   74.6484  218.5303 H   0  0  0  0  0  0  0  0  0  0  0  0
  142.8301   76.1419  220.9361 H   0  0  0  0  0  0  0  0  0  0  0  0
  141.7528   78.2808  220.4406 H   0  0  0  0  0  0  0  0  0  0  0  0
  142.6770   77.7430  216.3026 H   0  0  0  0  0  0  0  0  0  0  0  0
  143.7497   75.6122  216.7965 H   0  0  0  0  0  0  0  0  0  0  0  0
  137.8705   75.4673  221.7523 H   0  0  0  0  0  0  0  0  0  0  0  0
  137.2503   77.7074  222.7022 H   0  0  0  0  0  0  0  0  0  0  0  0
  137.9212   79.8847  223.5977 H   0  0  0  0  0  0  0  0  0  0  0  0
  139.7065   81.4997  224.2350 H   0  0  0  0  0  0  0  0  0  0  0  0
  142.6872   78.6175  222.9699 H   0  0  0  0  0  0  0  0  0  0  0  0
  1  2  2  0
  2  3  1  0
  3  4  1  0
  4  5  1  0
  5  6  2  0
  5  7  1  0
  7  8  1  0
  8  9  1  0
  9 10  1  0
 10 11  1  0
 11 12  1  0
 12 13  1  0
 13 14  2  0
 14 15  1  0
 15 16  2  0
 16 17  1  0
 16 18  1  0
 18 19  2  0
  2 20  1  0
 20 21  2  0
 21 22  1  0
 22 23  2  0
 23 24  1  0
 24 25  2  0
 25 26  1  0
 26 27  1  0
 26 28  2  0
 28 29  1  0
 29 30  2  0
 12  7  1  0
 19 13  1  0
 30 20  1  0
 29 23  1  0
  3 31  1  0
  4 32  1  0
  4 33  1  0
  8 34  1  0
  8 35  1  0
  9 36  1  0
  9 37  1  0
 10 38  1  0
 10 39  1  0
 11 40  1  0
 11 41  1  0
 12 42  1  6
 14 43  1  0
 15 44  1  0
 18 45  1  0
 19 46  1  0
 21 47  1  0
 22 48  1  0
 24 49  1  0
 25 50  1  0
 28 51  1  0
M  END
>  <smiles>  (41) 
O=C(NCC(=O)N1CCCCC1c1ccc(Cl)cc1)c1ccc2ccc(Cl)cc2n1

>  <score_type>  (41) 
oracle

>  <origin>  (41) 
autodockgpu

>  <m_score__min__energy>  (41) 
-8.6099999999999994

>  <m_primary>  (41) 
energy

>  <rmsd>  (41) 
6.943990475000032

>  <m_score__min__rmsd>  (41) 
6.943990475000032

>  <meeko>  (41) 
{"free_energy": -7.42, "intermolecular_energy": -8.91, "internal_energy": -2.46, "cluster_size": 14, "cluster_id": 6, "rank_in_cluster": 3}

>  <energy>  (41) 
-6.99

>  <cluster_rmsd>  (41) 
1.22

>  <cluster>  (41) 
6

$$$$

     RDKit          3D

 51 54  0  0  0  0  0  0  0  0999 V2000
  140.9860   71.5910  221.3090 O   0  0  0  0  0  0  0  0  0  0  0  0
  140.6940   72.5920  221.9880 C   0  0  0  0  0  0  0  0  0  0  0  0
  140.0700   72.4260  223.2800 N   0  0  0  0  0  0  0  0  0  0  0  0
  139.7560   71.1730  223.8620 C   0  0  0  0  0  0  0  0  0  0  0  0
  140.3190   70.7600  225.1340 C   0  0  0  0  0  0  0  0  0  0  0  0
  141.5680   71.1280  225.2780 O   0  0  0  0  0  0  0  0  0  0  0  0
  139.8030   70.0560  226.2160 N   0  0  0  0  0  0  0  0  0  0  0  0
  139.9670   70.3840  227.6410 C   0  0  0  0  0  0  0  0  0  0  0  0
  140.6740   69.2530  228.3350 C   0  0  0  0  0  0  0  0  0  0  0  0
  141.0000   68.1050  227.4470 C   0  0  0  0  0  0  0  0  0  0  0  0
  139.8670   67.6580  226.5500 C   0  0  0  0  0  0  0  0  0  0  0  0
  139.0240   68.7940  226.0560 C   0  0  2  0  0  0  0  0  0  0  0  0
  138.3750   68.6230  224.7800 C   0  0  0  0  0  0  0  0  0  0  0  0
  138.8290   67.8940  223.7050 C   0  0  0  0  0  0  0  0  0  0  0  0
  138.1280   67.7460  222.5280 C   0  0  0  0  0  0  0  0  0  0  0  0
  136.8960   68.3450  222.3750 C   0  0  0  0  0  0  0  0  0  0  0  0
  135.9400   68.2090  220.9160 Cl  0  0  0  0  0  0  0  0  0  0  0  0
  136.4150   69.0830  223.4340 C   0  0  0  0  0  0  0  0  0  0  0  0
  137.1170   69.2250  224.5990 C   0  0  0  0  0  0  0  0  0  0  0  0
  140.9800   73.9510  221.4810 C   0  0  0  0  0  0  0  0  0  0  0  0
  141.4880   74.0830  220.2070 C   0  0  0  0  0  0  0  0  0  0  0  0
  141.7400   75.3870  219.7790 C   0  0  0  0  0  0  0  0  0  0  0  0
  141.4950   76.4810  220.5820 C   0  0  0  0  0  0  0  0  0  0  0  0
  141.7350   77.7790  220.1840 C   0  0  0  0  0  0  0  0  0  0  0  0
  141.4790   78.8690  221.0140 C   0  0  0  0  0  0  0  0  0  0  0  0
  140.9690   78.6190  222.2720 C   0  0  0  0  0  0  0  0  0  0  0  0
  140.6310   79.9700  223.3540 Cl  0  0  0  0  0  0  0  0  0  0  0  0
  140.7100   77.3240  222.7190 C   0  0  0  0  0  0  0  0  0  0  0  0
  140.9850   76.2860  221.8510 C   0  0  0  0  0  0  0  0  0  0  0  0
  140.7460   75.0240  222.2500 N   0  0  0  0  0  0  0  0  0  0  0  0
  139.8610   73.3350  223.7700 H   0  0  0  0  0  0  0  0  0  0  0  0
  138.6633   71.1553  223.9871 H   0  0  0  0  0  0  0  0  0  0  0  0
  140.2211   70.4656  223.1596 H   0  0  0  0  0  0  0  0  0  0  0  0
  140.5614   71.3043  227.7398 H   0  0  0  0  0  0  0  0  0  0  0  0
  138.9787   70.5363  228.0994 H   0  0  0  0  0  0  0  0  0  0  0  0
  141.6127   69.6401  228.7580 H   0  0  0  0  0  0  0  0  0  0  0  0
  139.9860   68.8734  229.1048 H   0  0  0  0  0  0  0  0  0  0  0  0
  141.8479   68.3952  226.8092 H   0  0  0  0  0  0  0  0  0  0  0  0
  141.2265   67.2555  228.1081 H   0  0  0  0  0  0  0  0  0  0  0  0
  140.2938   67.1354  225.6813 H   0  0  0  0  0  0  0  0  0  0  0  0
  139.2159   67.0022  227.1467 H   0  0  0  0  0  0  0  0  0  0  0  0
  138.1261   68.8375  226.6899 H   0  0  0  0  0  0  0  0  0  0  0  0
  139.8085   67.4007  223.7901 H   0  0  0  0  0  0  0  0  0  0  0  0
  138.5528   67.1481  221.7082 H   0  0  0  0  0  0  0  0  0  0  0  0
  135.4351   69.5737  223.3396 H   0  0  0  0  0  0  0  0  0  0  0  0
  136.6871   69.8249  225.4146 H   0  0  0  0  0  0  0  0  0  0  0  0
  141.6835   73.2115  219.5649 H   0  0  0  0  0  0  0  0  0  0  0  0
  142.1468   75.5473  218.7696 H   0  0  0  0  0  0  0  0  0  0  0  0
  142.1419   77.9603  219.1783 H   0  0  0  0  0  0  0  0  0  0  0  0
  141.6773   79.8971  220.6768 H   0  0  0  0  0  0  0  0  0  0  0  0
  140.3027   77.1366  223.7235 H   0  0  0  0  0  0  0  0  0  0  0  0
  1  2  2  0
  2  3  1  0
  3  4  1  0
  4  5  1  0
  5  6  2  0
  5  7  1  0
  7  8  1  0
  8  9  1  0
  9 10  1  0
 10 11  1  0
 11 12  1  0
 12 13  1  0
 13 14  2  0
 14 15  1  0
 15 16  2  0
 16 17  1  0
 16 18  1  0
 18 19  2  0
  2 20  1  0
 20 21  2  0
 21 22  1  0
 22 23  2  0
 23 24  1  0
 24 25  2  0
 25 26  1  0
 26 27  1  0
 26 28  2  0
 28 29  1  0
 29 30  2  0
 12  7  1  0
 19 13  1  0
 30 20  1  0
 29 23  1  0
  3 31  1  0
  4 32  1  0
  4 33  1  0
  8 34  1  0
  8 35  1  0
  9 36  1  0
  9 37  1  0
 10 38  1  0
 10 39  1  0
 11 40  1  0
 11 41  1  0
 12 42  1  1
 14 43  1  0
 15 44  1  0
 18 45  1  0
 19 46  1  0
 21 47  1  0
 22 48  1  0
 24 49  1  0
 25 50  1  0
 28 51  1  0
M  END
>  <smiles>  (42) 
O=C(NCC(=O)N1CCCCC1c1ccc(Cl)cc1)c1ccc2ccc(Cl)cc2n1

>  <score_type>  (42) 
oracle

>  <origin>  (42) 
autodockgpu

>  <m_score__min__energy>  (42) 
-8.6099999999999994

>  <m_primary>  (42) 
energy

>  <rmsd>  (42) 
8.981281476157195

>  <m_score__min__rmsd>  (42) 
8.981281476157195

>  <meeko>  (42) 
{"free_energy": -8.53, "intermolecular_energy": -10.03, "internal_energy": -1.65, "cluster_size": 8, "cluster_id": 1, "rank_in_cluster": 5}

>  <energy>  (42) 
-6.98

>  <cluster_rmsd>  (42) 
1.17

>  <cluster>  (42) 
6

$$$$

     RDKit          3D

 51 54  0  0  0  0  0  0  0  0999 V2000
  140.2850   77.6080  218.4130 O   0  0  0  0  0  0  0  0  0  0  0  0
  141.3580   77.4400  219.0190 C   0  0  0  0  0  0  0  0  0  0  0  0
  141.9600   78.5440  219.7310 N   0  0  0  0  0  0  0  0  0  0  0  0
  141.4080   79.8470  219.8020 C   0  0  0  0  0  0  0  0  0  0  0  0
  140.5040   80.2350  220.8680 C   0  0  0  0  0  0  0  0  0  0  0  0
  139.3140   80.5630  220.4280 O   0  0  0  0  0  0  0  0  0  0  0  0
  140.6500   80.3330  222.2470 N   0  0  0  0  0  0  0  0  0  0  0  0
  140.7110   81.5700  223.0420 C   0  0  0  0  0  0  0  0  0  0  0  0
  142.0320   81.6400  223.7540 C   0  0  0  0  0  0  0  0  0  0  0  0
  142.9160   80.4690  223.5110 C   0  0  0  0  0  0  0  0  0  0  0  0
  142.2310   79.1250  223.6280 C   0  0  0  0  0  0  0  0  0  0  0  0
  140.8190   79.1390  223.1240 C   0  0  2  0  0  0  0  0  0  0  0  0
  140.3000   77.9020  222.5950 C   0  0  0  0  0  0  0  0  0  0  0  0
  141.0010   76.7470  222.3360 C   0  0  0  0  0  0  0  0  0  0  0  0
  140.4210   75.5880  221.8660 C   0  0  0  0  0  0  0  0  0  0  0  0
  139.0640   75.5390  221.6290 C   0  0  0  0  0  0  0  0  0  0  0  0
  138.2490   74.1100  221.0330 Cl  0  0  0  0  0  0  0  0  0  0  0  0
  138.3360   76.6810  221.8780 C   0  0  0  0  0  0  0  0  0  0  0  0
  138.9180   77.8260  222.3440 C   0  0  0  0  0  0  0  0  0  0  0  0
  142.0230   76.1200  219.0180 C   0  0  0  0  0  0  0  0  0  0  0  0
  141.5700   75.1580  218.1410 C   0  0  0  0  0  0  0  0  0  0  0  0
  142.2320   73.9310  218.1810 C   0  0  0  0  0  0  0  0  0  0  0  0
  143.2780   73.6920  219.0460 C   0  0  0  0  0  0  0  0  0  0  0  0
  143.9490   72.4880  219.1060 C   0  0  0  0  0  0  0  0  0  0  0  0
  145.0040   72.2700  219.9890 C   0  0  0  0  0  0  0  0  0  0  0  0
  145.3750   73.3060  220.8240 C   0  0  0  0  0  0  0  0  0  0  0  0
  146.7060   73.0720  221.9580 Cl  0  0  0  0  0  0  0  0  0  0  0  0
  144.7260   74.5400  220.8000 C   0  0  0  0  0  0  0  0  0  0  0  0
  143.6880   74.6940  219.9030 C   0  0  0  0  0  0  0  0  0  0  0  0
  143.0420   75.8730  219.8530 N   0  0  0  0  0  0  0  0  0  0  0  0
  142.8670   78.2980  220.2070 H   0  0  0  0  0  0  0  0  0  0  0  0
  142.2597   80.5415  219.8506 H   0  0  0  0  0  0  0  0  0  0  0  0
  140.7529   79.8722  218.9187 H   0  0  0  0  0  0  0  0  0  0  0  0
  140.6060   82.4396  222.3766 H   0  0  0  0  0  0  0  0  0  0  0  0
  139.8950   81.5737  223.7797 H   0  0  0  0  0  0  0  0  0  0  0  0
  142.5581   82.5456  223.4176 H   0  0  0  0  0  0  0  0  0  0  0  0
  141.8111   81.6523  224.8315 H   0  0  0  0  0  0  0  0  0  0  0  0
  143.3286   80.5561  222.4950 H   0  0  0  0  0  0  0  0  0  0  0  0
  143.6874   80.4940  224.2948 H   0  0  0  0  0  0  0  0  0  0  0  0
  142.8035   78.3883  223.0453 H   0  0  0  0  0  0  0  0  0  0  0  0
  142.1954   78.8668  224.6967 H   0  0  0  0  0  0  0  0  0  0  0  0
  140.1575   79.2328  223.9978 H   0  0  0  0  0  0  0  0  0  0  0  0
  142.0865   76.7483  222.5141 H   0  0  0  0  0  0  0  0  0  0  0  0
  141.0428   74.6999  221.6796 H   0  0  0  0  0  0  0  0  0  0  0  0
  137.2512   76.6712  221.6959 H   0  0  0  0  0  0  0  0  0  0  0  0
  138.2902   78.7104  222.5274 H   0  0  0  0  0  0  0  0  0  0  0  0
  140.7352   75.3469  217.4500 H   0  0  0  0  0  0  0  0  0  0  0  0
  141.9091   73.1290  217.5009 H   0  0  0  0  0  0  0  0  0  0  0  0
  143.6407   71.6733  218.4343 H   0  0  0  0  0  0  0  0  0  0  0  0
  145.5259   71.3022  220.0204 H   0  0  0  0  0  0  0  0  0  0  0  0
  145.0292   75.3585  221.4695 H   0  0  0  0  0  0  0  0  0  0  0  0
  1  2  2  0
  2  3  1  0
  3  4  1  0
  4  5  1  0
  5  6  2  0
  5  7  1  0
  7  8  1  0
  8  9  1  0
  9 10  1  0
 10 11  1  0
 11 12  1  0
 12 13  1  0
 13 14  2  0
 14 15  1  0
 15 16  2  0
 16 17  1  0
 16 18  1  0
 18 19  2  0
  2 20  1  0
 20 21  2  0
 21 22  1  0
 22 23  2  0
 23 24  1  0
 24 25  2  0
 25 26  1  0
 26 27  1  0
 26 28  2  0
 28 29  1  0
 29 30  2  0
 12  7  1  0
 19 13  1  0
 30 20  1  0
 29 23  1  0
  3 31  1  0
  4 32  1  0
  4 33  1  0
  8 34  1  0
  8 35  1  0
  9 36  1  0
  9 37  1  0
 10 38  1  0
 10 39  1  0
 11 40  1  0
 11 41  1  0
 12 42  1  1
 14 43  1  0
 15 44  1  0
 18 45  1  0
 19 46  1  0
 21 47  1  0
 22 48  1  0
 24 49  1  0
 25 50  1  0
 28 51  1  0
M  END
>  <smiles>  (43) 
O=C(NCC(=O)N1CCCCC1c1ccc(Cl)cc1)c1ccc2ccc(Cl)cc2n1

>  <score_type>  (43) 
oracle

>  <origin>  (43) 
autodockgpu

>  <m_score__min__energy>  (43) 
-8.6099999999999994

>  <m_primary>  (43) 
energy

>  <rmsd>  (43) 
7.672907397343059

>  <m_score__min__rmsd>  (43) 
7.672907397343059

>  <meeko>  (43) 
{"free_energy": -7.1, "intermolecular_energy": -8.59, "internal_energy": -2.95, "cluster_size": 22, "cluster_id": 5, "rank_in_cluster": 20}

>  <energy>  (43) 
-6.94

>  <cluster_rmsd>  (43) 
1.25

>  <cluster>  (43) 
6

$$$$

     RDKit          3D

 51 54  0  0  0  0  0  0  0  0999 V2000
  140.9030   77.7570  217.6520 O   0  0  0  0  0  0  0  0  0  0  0  0
  141.7370   77.5520  218.5510 C   0  0  0  0  0  0  0  0  0  0  0  0
  141.9490   78.5490  219.5740 N   0  0  0  0  0  0  0  0  0  0  0  0
  141.2590   79.7850  219.6430 C   0  0  0  0  0  0  0  0  0  0  0  0
  140.3510   80.0920  220.7320 C   0  0  0  0  0  0  0  0  0  0  0  0
  139.1220   80.2890  220.3260 O   0  0  0  0  0  0  0  0  0  0  0  0
  140.5270   80.2210  222.1050 N   0  0  0  0  0  0  0  0  0  0  0  0
  140.5450   81.4740  222.8770 C   0  0  0  0  0  0  0  0  0  0  0  0
  141.8780   81.6240  223.5540 C   0  0  0  0  0  0  0  0  0  0  0  0
  142.8150   80.4950  223.3070 C   0  0  0  0  0  0  0  0  0  0  0  0
  142.2020   79.1210  223.4640 C   0  0  0  0  0  0  0  0  0  0  0  0
  140.7800   79.0540  222.9970 C   0  0  2  0  0  0  0  0  0  0  0  0
  140.3110   77.7830  222.5030 C   0  0  0  0  0  0  0  0  0  0  0  0
  141.0700   76.7600  221.9830 C   0  0  0  0  0  0  0  0  0  0  0  0
  140.5480   75.5540  221.5660 C   0  0  0  0  0  0  0  0  0  0  0  0
  139.1940   75.3160  221.6600 C   0  0  0  0  0  0  0  0  0  0  0  0
  138.4490   73.8150  221.1550 Cl  0  0  0  0  0  0  0  0  0  0  0  0
  138.4080   76.3220  222.1770 C   0  0  0  0  0  0  0  0  0  0  0  0
  138.9330   77.5150  222.5870 C   0  0  0  0  0  0  0  0  0  0  0  0
  142.5130   76.2940  218.5820 C   0  0  0  0  0  0  0  0  0  0  0  0
  142.3550   75.3990  217.5460 C   0  0  0  0  0  0  0  0  0  0  0  0
  143.1110   74.2290  217.6250 C   0  0  0  0  0  0  0  0  0  0  0  0
  143.9660   73.9800  218.6770 C   0  0  0  0  0  0  0  0  0  0  0  0
  144.7230   72.8320  218.7800 C   0  0  0  0  0  0  0  0  0  0  0  0
  145.5810   72.6030  219.8520 C   0  0  0  0  0  0  0  0  0  0  0  0
  145.6610   73.5680  220.8360 C   0  0  0  0  0  0  0  0  0  0  0  0
  146.7350   73.3180  222.2120 Cl  0  0  0  0  0  0  0  0  0  0  0  0
  144.9150   74.7440  220.7760 C   0  0  0  0  0  0  0  0  0  0  0  0
  144.0830   74.9140  219.6880 C   0  0  0  0  0  0  0  0  0  0  0  0
  143.3490   76.0380  219.5990 N   0  0  0  0  0  0  0  0  0  0  0  0
  142.6790   78.2790  220.2860 H   0  0  0  0  0  0  0  0  0  0  0  0
  142.0300   80.5695  219.6528 H   0  0  0  0  0  0  0  0  0  0  0  0
  140.5780   79.7212  218.7815 H   0  0  0  0  0  0  0  0  0  0  0  0
  140.3796   82.3248  222.1997 H   0  0  0  0  0  0  0  0  0  0  0  0
  139.7485   81.4499  223.6353 H   0  0  0  0  0  0  0  0  0  0  0  0
  142.3483   82.5493  223.1898 H   0  0  0  0  0  0  0  0  0  0  0  0
  141.6836   81.6440  224.6365 H   0  0  0  0  0  0  0  0  0  0  0  0
  143.1968   80.5848  222.2793 H   0  0  0  0  0  0  0  0  0  0  0  0
  143.6042   80.5728  224.0693 H   0  0  0  0  0  0  0  0  0  0  0  0
  142.7965   78.4037  222.8792 H   0  0  0  0  0  0  0  0  0  0  0  0
  142.2059   78.8813  224.5376 H   0  0  0  0  0  0  0  0  0  0  0  0
  140.1378   79.1300  223.8869 H   0  0  0  0  0  0  0  0  0  0  0  0
  142.1557   76.9131  221.8949 H   0  0  0  0  0  0  0  0  0  0  0  0
  141.2140   74.7799  221.1572 H   0  0  0  0  0  0  0  0  0  0  0  0
  137.3234   76.1599  222.2625 H   0  0  0  0  0  0  0  0  0  0  0  0
  138.2608   78.2853  222.9930 H   0  0  0  0  0  0  0  0  0  0  0  0
  141.6727   75.5956  216.7059 H   0  0  0  0  0  0  0  0  0  0  0  0
  143.0219   73.4819  216.8226 H   0  0  0  0  0  0  0  0  0  0  0  0
  144.6463   72.0718  217.9886 H   0  0  0  0  0  0  0  0  0  0  0  0
  146.1774   71.6807  219.9132 H   0  0  0  0  0  0  0  0  0  0  0  0
  144.9866   75.5069  221.5652 H   0  0  0  0  0  0  0  0  0  0  0  0
  1  2  2  0
  2  3  1  0
  3  4  1  0
  4  5  1  0
  5  6  2  0
  5  7  1  0
  7  8  1  0
  8  9  1  0
  9 10  1  0
 10 11  1  0
 11 12  1  0
 12 13  1  0
 13 14  2  0
 14 15  1  0
 15 16  2  0
 16 17  1  0
 16 18  1  0
 18 19  2  0
  2 20  1  0
 20 21  2  0
 21 22  1  0
 22 23  2  0
 23 24  1  0
 24 25  2  0
 25 26  1  0
 26 27  1  0
 26 28  2  0
 28 29  1  0
 29 30  2  0
 12  7  1  0
 19 13  1  0
 30 20  1  0
 29 23  1  0
  3 31  1  0
  4 32  1  0
  4 33  1  0
  8 34  1  0
  8 35  1  0
  9 36  1  0
  9 37  1  0
 10 38  1  0
 10 39  1  0
 11 40  1  0
 11 41  1  0
 12 42  1  1
 14 43  1  0
 15 44  1  0
 18 45  1  0
 19 46  1  0
 21 47  1  0
 22 48  1  0
 24 49  1  0
 25 50  1  0
 28 51  1  0
M  END
>  <smiles>  (44) 
O=C(NCC(=O)N1CCCCC1c1ccc(Cl)cc1)c1ccc2ccc(Cl)cc2n1

>  <score_type>  (44) 
oracle

>  <origin>  (44) 
autodockgpu

>  <m_score__min__energy>  (44) 
-8.6099999999999994

>  <m_primary>  (44) 
energy

>  <rmsd>  (44) 
7.903932442071101

>  <m_score__min__rmsd>  (44) 
7.903932442071101

>  <meeko>  (44) 
{"free_energy": -7.38, "intermolecular_energy": -8.88, "internal_energy": -2.68, "cluster_size": 22, "cluster_id": 5, "rank_in_cluster": 4}

>  <energy>  (44) 
-6.87

>  <cluster_rmsd>  (44) 
1.24

>  <cluster>  (44) 
6

$$$$

     RDKit          3D

 51 54  0  0  0  0  0  0  0  0999 V2000
  134.1350   70.0880  226.4910 O   0  0  0  0  0  0  0  0  0  0  0  0
  134.2090   71.2100  225.9570 C   0  0  0  0  0  0  0  0  0  0  0  0
  135.0450   71.3970  224.7940 N   0  0  0  0  0  0  0  0  0  0  0  0
  135.8120   70.3720  224.1860 C   0  0  0  0  0  0  0  0  0  0  0  0
  136.9960   70.6690  223.4030 C   0  0  0  0  0  0  0  0  0  0  0  0
  137.3210   71.9370  223.4370 O   0  0  0  0  0  0  0  0  0  0  0  0
  137.8410   69.8830  222.6270 N   0  0  0  0  0  0  0  0  0  0  0  0
  137.6700   69.5410  221.2060 C   0  0  0  0  0  0  0  0  0  0  0  0
  137.5520   68.0500  221.0630 C   0  0  0  0  0  0  0  0  0  0  0  0
  137.6600   67.3060  222.3470 C   0  0  0  0  0  0  0  0  0  0  0  0
  138.8020   67.7450  223.2370 C   0  0  0  0  0  0  0  0  0  0  0  0
  139.0570   69.2210  223.1810 C   0  0  2  0  0  0  0  0  0  0  0  0
  139.6140   69.8340  224.3610 C   0  0  0  0  0  0  0  0  0  0  0  0
  140.3400   71.0010  224.4310 C   0  0  0  0  0  0  0  0  0  0  0  0
  140.8060   71.5450  225.6080 C   0  0  0  0  0  0  0  0  0  0  0  0
  140.5530   70.9170  226.8090 C   0  0  0  0  0  0  0  0  0  0  0  0
  141.1070   71.5380  228.3480 Cl  0  0  0  0  0  0  0  0  0  0  0  0
  139.8290   69.7460  226.7720 C   0  0  0  0  0  0  0  0  0  0  0  0
  139.3710   69.2130  225.5990 C   0  0  0  0  0  0  0  0  0  0  0  0
  133.4480   72.3530  226.5040 C   0  0  0  0  0  0  0  0  0  0  0  0
  132.3540   72.0930  227.3000 C   0  0  0  0  0  0  0  0  0  0  0  0
  131.6720   73.2070  227.7900 C   0  0  0  0  0  0  0  0  0  0  0  0
  132.0680   74.4940  227.4960 C   0  0  0  0  0  0  0  0  0  0  0  0
  131.4120   75.6130  227.9660 C   0  0  0  0  0  0  0  0  0  0  0  0
  131.8310   76.9040  227.6550 C   0  0  0  0  0  0  0  0  0  0  0  0
  132.9420   77.0480  226.8480 C   0  0  0  0  0  0  0  0  0  0  0  0
  133.5060   78.6660  226.4300 Cl  0  0  0  0  0  0  0  0  0  0  0  0
  133.6370   75.9480  226.3490 C   0  0  0  0  0  0  0  0  0  0  0  0
  133.1730   74.6940  226.6910 C   0  0  0  0  0  0  0  0  0  0  0  0
  133.8210   73.6110  226.2270 N   0  0  0  0  0  0  0  0  0  0  0  0
  135.0400   72.3830  224.4220 H   0  0  0  0  0  0  0  0  0  0  0  0
  136.1375   69.7058  224.9986 H   0  0  0  0  0  0  0  0  0  0  0  0
  135.1200   69.9814  223.4254 H   0  0  0  0  0  0  0  0  0  0  0  0
  136.7581   70.0201  220.8202 H   0  0  0  0  0  0  0  0  0  0  0  0
  138.5398   69.8975  220.6347 H   0  0  0  0  0  0  0  0  0  0  0  0
  136.5743   67.8224  220.6131 H   0  0  0  0  0  0  0  0  0  0  0  0
  138.3947   67.7239  220.4357 H   0  0  0  0  0  0  0  0  0  0  0  0
  136.7204   67.4427  222.9025 H   0  0  0  0  0  0  0  0  0  0  0  0
  137.8573   66.2566  222.0828 H   0  0  0  0  0  0  0  0  0  0  0  0
  138.5626   67.4702  224.2749 H   0  0  0  0  0  0  0  0  0  0  0  0
  139.7110   67.2411  222.8768 H   0  0  0  0  0  0  0  0  0  0  0  0
  139.9030   69.3842  222.4971 H   0  0  0  0  0  0  0  0  0  0  0  0
  140.5612   71.5304  223.4925 H   0  0  0  0  0  0  0  0  0  0  0  0
  141.3812   72.4825  225.5894 H   0  0  0  0  0  0  0  0  0  0  0  0
  139.6124   69.2233  227.7153 H   0  0  0  0  0  0  0  0  0  0  0  0
  138.7978   68.2745  225.6245 H   0  0  0  0  0  0  0  0  0  0  0  0
  132.0366   71.0665  227.5356 H   0  0  0  0  0  0  0  0  0  0  0  0
  130.7911   73.0535  228.4307 H   0  0  0  0  0  0  0  0  0  0  0  0
  130.5285   75.4809  228.6079 H   0  0  0  0  0  0  0  0  0  0  0  0
  131.2931   77.7826  228.0406 H   0  0  0  0  0  0  0  0  0  0  0  0
  134.5214   76.0743  225.7072 H   0  0  0  0  0  0  0  0  0  0  0  0
  1  2  2  0
  2  3  1  0
  3  4  1  0
  4  5  1  0
  5  6  2  0
  5  7  1  0
  7  8  1  0
  8  9  1  0
  9 10  1  0
 10 11  1  0
 11 12  1  0
 12 13  1  0
 13 14  2  0
 14 15  1  0
 15 16  2  0
 16 17  1  0
 16 18  1  0
 18 19  2  0
  2 20  1  0
 20 21  2  0
 21 22  1  0
 22 23  2  0
 23 24  1  0
 24 25  2  0
 25 26  1  0
 26 27  1  0
 26 28  2  0
 28 29  1  0
 29 30  2  0
 12  7  1  0
 19 13  1  0
 30 20  1  0
 29 23  1  0
  3 31  1  0
  4 32  1  0
  4 33  1  0
  8 34  1  0
  8 35  1  0
  9 36  1  0
  9 37  1  0
 10 38  1  0
 10 39  1  0
 11 40  1  0
 11 41  1  0
 12 42  1  6
 14 43  1  0
 15 44  1  0
 18 45  1  0
 19 46  1  0
 21 47  1  0
 22 48  1  0
 24 49  1  0
 25 50  1  0
 28 51  1  0
M  END
>  <smiles>  (45) 
O=C(NCC(=O)N1CCCCC1c1ccc(Cl)cc1)c1ccc2ccc(Cl)cc2n1

>  <score_type>  (45) 
oracle

>  <origin>  (45) 
autodockgpu

>  <m_score__min__energy>  (45) 
-8.6099999999999994

>  <m_primary>  (45) 
energy

>  <rmsd>  (45) 
8.370678598053775

>  <m_score__min__rmsd>  (45) 
8.370678598053775

>  <meeko>  (45) 
{"free_energy": -7.8, "intermolecular_energy": -9.29, "internal_energy": -1.91, "cluster_size": 1, "cluster_id": 3, "rank_in_cluster": 1}

>  <energy>  (45) 
-6.85

>  <cluster_rmsd>  (45) 
1.24

>  <cluster>  (45) 
6

$$$$

     RDKit          3D

 51 54  0  0  0  0  0  0  0  0999 V2000
  139.0760   73.6690  221.2740 O   0  0  0  0  0  0  0  0  0  0  0  0
  140.0190   74.4140  221.5960 C   0  0  0  0  0  0  0  0  0  0  0  0
  141.3730   73.9140  221.5600 N   0  0  0  0  0  0  0  0  0  0  0  0
  141.7310   72.5980  221.1730 C   0  0  0  0  0  0  0  0  0  0  0  0
  142.3290   72.3210  219.8810 C   0  0  0  0  0  0  0  0  0  0  0  0
  141.5120   71.6990  219.0670 O   0  0  0  0  0  0  0  0  0  0  0  0
  143.5860   72.5760  219.3430 N   0  0  0  0  0  0  0  0  0  0  0  0
  144.5770   71.5800  218.9070 C   0  0  0  0  0  0  0  0  0  0  0  0
  145.8330   71.7380  219.7170 C   0  0  0  0  0  0  0  0  0  0  0  0
  145.7790   72.8420  220.7110 C   0  0  0  0  0  0  0  0  0  0  0  0
  145.2300   74.1470  220.1770 C   0  0  0  0  0  0  0  0  0  0  0  0
  144.1260   73.9560  219.1810 C   0  0  2  0  0  0  0  0  0  0  0  0
  143.1380   75.0030  219.0900 C   0  0  0  0  0  0  0  0  0  0  0  0
  141.9150   74.9420  218.4620 C   0  0  0  0  0  0  0  0  0  0  0  0
  141.0060   75.9780  218.4540 C   0  0  0  0  0  0  0  0  0  0  0  0
  141.2960   77.1600  219.1010 C   0  0  0  0  0  0  0  0  0  0  0  0
  140.2000   78.5230  219.1400 Cl  0  0  0  0  0  0  0  0  0  0  0  0
  142.5140   77.2510  219.7380 C   0  0  0  0  0  0  0  0  0  0  0  0
  143.4100   76.2190  219.7410 C   0  0  0  0  0  0  0  0  0  0  0  0
  139.7630   75.8090  222.0140 C   0  0  0  0  0  0  0  0  0  0  0  0
  138.4600   76.2540  222.0550 C   0  0  0  0  0  0  0  0  0  0  0  0
  138.2760   77.5770  222.4560 C   0  0  0  0  0  0  0  0  0  0  0  0
  139.3340   78.3940  222.7920 C   0  0  0  0  0  0  0  0  0  0  0  0
  139.1800   79.7050  223.1910 C   0  0  0  0  0  0  0  0  0  0  0  0
  140.2650   80.5120  223.5250 C   0  0  0  0  0  0  0  0  0  0  0  0
  141.5290   79.9610  223.4470 C   0  0  0  0  0  0  0  0  0  0  0  0
  142.9320   80.9480  223.8620 Cl  0  0  0  0  0  0  0  0  0  0  0  0
  141.7350   78.6410  223.0490 C   0  0  0  0  0  0  0  0  0  0  0  0
  140.6200   77.8930  222.7310 C   0  0  0  0  0  0  0  0  0  0  0  0
  140.7830   76.6150  222.3430 N   0  0  0  0  0  0  0  0  0  0  0  0
  142.0960   74.6230  221.8540 H   0  0  0  0  0  0  0  0  0  0  0  0
  142.4443   72.2364  221.9283 H   0  0  0  0  0  0  0  0  0  0  0  0
  140.7521   72.1032  221.0897 H   0  0  0  0  0  0  0  0  0  0  0  0
  144.1701   70.5687  219.0542 H   0  0  0  0  0  0  0  0  0  0  0  0
  144.8054   71.7309  217.8416 H   0  0  0  0  0  0  0  0  0  0  0  0
  146.0174   70.7968  220.2557 H   0  0  0  0  0  0  0  0  0  0  0  0
  146.6376   71.9871  219.0095 H   0  0  0  0  0  0  0  0  0  0  0  0
  145.1420   72.5190  221.5476 H   0  0  0  0  0  0  0  0  0  0  0  0
  146.8184   73.0415  221.0106 H   0  0  0  0  0  0  0  0  0  0  0  0
  144.8419   74.7354  221.0215 H   0  0  0  0  0  0  0  0  0  0  0  0
  146.0529   74.6624  219.6602 H   0  0  0  0  0  0  0  0  0  0  0  0
  144.5652   74.0584  218.1777 H   0  0  0  0  0  0  0  0  0  0  0  0
  141.6476   74.0134  217.9364 H   0  0  0  0  0  0  0  0  0  0  0  0
  140.0461   75.8612  217.9296 H   0  0  0  0  0  0  0  0  0  0  0  0
  142.7736   78.1835  220.2606 H   0  0  0  0  0  0  0  0  0  0  0  0
  144.3685   76.3430  220.2662 H   0  0  0  0  0  0  0  0  0  0  0  0
  137.6141   75.6039  221.7871 H   0  0  0  0  0  0  0  0  0  0  0  0
  137.2542   77.9813  222.5057 H   0  0  0  0  0  0  0  0  0  0  0  0
  138.1660   80.1277  223.2474 H   0  0  0  0  0  0  0  0  0  0  0  0
  140.1197   81.5556  223.8410 H   0  0  0  0  0  0  0  0  0  0  0  0
  142.7465   78.2126  222.9907 H   0  0  0  0  0  0  0  0  0  0  0  0
  1  2  2  0
  2  3  1  0
  3  4  1  0
  4  5  1  0
  5  6  2  0
  5  7  1  0
  7  8  1  0
  8  9  1  0
  9 10  1  0
 10 11  1  0
 11 12  1  0
 12 13  1  0
 13 14  2  0
 14 15  1  0
 15 16  2  0
 16 17  1  0
 16 18  1  0
 18 19  2  0
  2 20  1  0
 20 21  2  0
 21 22  1  0
 22 23  2  0
 23 24  1  0
 24 25  2  0
 25 26  1  0
 26 27  1  0
 26 28  2  0
 28 29  1  0
 29 30  2  0
 12  7  1  0
 19 13  1  0
 30 20  1  0
 29 23  1  0
  3 31  1  0
  4 32  1  0
  4 33  1  0
  8 34  1  0
  8 35  1  0
  9 36  1  0
  9 37  1  0
 10 38  1  0
 10 39  1  0
 11 40  1  0
 11 41  1  0
 12 42  1  6
 14 43  1  0
 15 44  1  0
 18 45  1  0
 19 46  1  0
 21 47  1  0
 22 48  1  0
 24 49  1  0
 25 50  1  0
 28 51  1  0
M  END
>  <smiles>  (46) 
O=C(NCC(=O)N1CCCCC1c1ccc(Cl)cc1)c1ccc2ccc(Cl)cc2n1

>  <score_type>  (46) 
oracle

>  <origin>  (46) 
autodockgpu

>  <m_score__min__energy>  (46) 
-8.6099999999999994

>  <m_primary>  (46) 
energy

>  <rmsd>  (46) 
7.076877022292821

>  <m_score__min__rmsd>  (46) 
7.076877022292821

>  <meeko>  (46) 
{"free_energy": -6.85, "intermolecular_energy": -8.34, "internal_energy": -3.16, "cluster_size": 14, "cluster_id": 6, "rank_in_cluster": 11}

>  <energy>  (46) 
-6.84

>  <cluster_rmsd>  (46) 
1.23

>  <cluster>  (46) 
6

$$$$

     RDKit          3D

 51 54  0  0  0  0  0  0  0  0999 V2000
  140.3960   74.5250  222.0920 O   0  0  0  0  0  0  0  0  0  0  0  0
  140.9080   73.3970  221.9810 C   0  0  0  0  0  0  0  0  0  0  0  0
  142.1070   73.2270  221.1940 N   0  0  0  0  0  0  0  0  0  0  0  0
  142.7750   74.2770  220.5160 C   0  0  0  0  0  0  0  0  0  0  0  0
  142.0510   75.3900  219.9320 C   0  0  0  0  0  0  0  0  0  0  0  0
  142.8370   76.3780  219.5820 O   0  0  0  0  0  0  0  0  0  0  0  0
  140.7030   75.6150  219.6780 N   0  0  0  0  0  0  0  0  0  0  0  0
  139.7510   74.6720  219.0710 C   0  0  0  0  0  0  0  0  0  0  0  0
  139.2120   75.2570  217.7960 C   0  0  0  0  0  0  0  0  0  0  0  0
  139.7350   76.6130  217.4820 C   0  0  0  0  0  0  0  0  0  0  0  0
  139.7280   77.5780  218.6470 C   0  0  0  0  0  0  0  0  0  0  0  0
  140.0390   76.9210  219.9570 C   0  0  2  0  0  0  0  0  0  0  0  0
  140.6710   77.7350  220.9650 C   0  0  0  0  0  0  0  0  0  0  0  0
  140.7880   77.4580  222.3080 C   0  0  0  0  0  0  0  0  0  0  0  0
  141.4460   78.2730  223.2040 C   0  0  0  0  0  0  0  0  0  0  0  0
  142.0360   79.4420  222.7730 C   0  0  0  0  0  0  0  0  0  0  0  0
  142.8890   80.5330  223.8420 Cl  0  0  0  0  0  0  0  0  0  0  0  0
  141.9340   79.7470  221.4340 C   0  0  0  0  0  0  0  0  0  0  0  0
  141.2800   78.9340  220.5520 C   0  0  0  0  0  0  0  0  0  0  0  0
  140.2980   72.2270  222.6490 C   0  0  0  0  0  0  0  0  0  0  0  0
  139.3200   71.5250  221.9790 C   0  0  0  0  0  0  0  0  0  0  0  0
  138.7780   70.4310  222.6550 C   0  0  0  0  0  0  0  0  0  0  0  0
  139.1960   70.0720  223.9180 C   0  0  0  0  0  0  0  0  0  0  0  0
  138.6770   68.9960  224.6090 C   0  0  0  0  0  0  0  0  0  0  0  0
  139.1160   68.6530  225.8850 C   0  0  0  0  0  0  0  0  0  0  0  0
  140.1030   69.4270  226.4610 C   0  0  0  0  0  0  0  0  0  0  0  0
  140.6870   69.0270  228.0770 Cl  0  0  0  0  0  0  0  0  0  0  0  0
  140.6570   70.5240  225.8040 C   0  0  0  0  0  0  0  0  0  0  0  0
  140.1810   70.8150  224.5410 C   0  0  0  0  0  0  0  0  0  0  0  0
  140.6940   71.8660  223.8780 N   0  0  0  0  0  0  0  0  0  0  0  0
  142.4560   72.2330  221.1610 H   0  0  0  0  0  0  0  0  0  0  0  0
  143.4806   74.7123  221.2390 H   0  0  0  0  0  0  0  0  0  0  0  0
  143.1738   73.7654  219.6276 H   0  0  0  0  0  0  0  0  0  0  0  0
  140.2634   73.7236  218.8517 H   0  0  0  0  0  0  0  0  0  0  0  0
  138.9216   74.4871  219.7695 H   0  0  0  0  0  0  0  0  0  0  0  0
  139.4777   74.5838  216.9676 H   0  0  0  0  0  0  0  0  0  0  0  0
  138.1248   75.3590  217.9284 H   0  0  0  0  0  0  0  0  0  0  0  0
  140.7720   76.5075  217.1306 H   0  0  0  0  0  0  0  0  0  0  0  0
  139.0621   77.0376  216.7225 H   0  0  0  0  0  0  0  0  0  0  0  0
  140.4802   78.3584  218.4596 H   0  0  0  0  0  0  0  0  0  0  0  0
  138.7124   77.9939  218.7219 H   0  0  0  0  0  0  0  0  0  0  0  0
  139.0826   76.7405  220.4695 H   0  0  0  0  0  0  0  0  0  0  0  0
  140.3300   76.5330  222.6883 H   0  0  0  0  0  0  0  0  0  0  0  0
  141.5005   77.9899  224.2655 H   0  0  0  0  0  0  0  0  0  0  0  0
  142.3938   80.6748  221.0627 H   0  0  0  0  0  0  0  0  0  0  0  0
  141.2283   79.2243  219.4923 H   0  0  0  0  0  0  0  0  0  0  0  0
  138.9860   71.8101  220.9705 H   0  0  0  0  0  0  0  0  0  0  0  0
  137.9929   69.8369  222.1645 H   0  0  0  0  0  0  0  0  0  0  0  0
  137.8906   68.3894  224.1361 H   0  0  0  0  0  0  0  0  0  0  0  0
  138.6889   67.7908  226.4182 H   0  0  0  0  0  0  0  0  0  0  0  0
  141.4428   71.1342  226.2732 H   0  0  0  0  0  0  0  0  0  0  0  0
  1  2  2  0
  2  3  1  0
  3  4  1  0
  4  5  1  0
  5  6  2  0
  5  7  1  0
  7  8  1  0
  8  9  1  0
  9 10  1  0
 10 11  1  0
 11 12  1  0
 12 13  1  0
 13 14  2  0
 14 15  1  0
 15 16  2  0
 16 17  1  0
 16 18  1  0
 18 19  2  0
  2 20  1  0
 20 21  2  0
 21 22  1  0
 22 23  2  0
 23 24  1  0
 24 25  2  0
 25 26  1  0
 26 27  1  0
 26 28  2  0
 28 29  1  0
 29 30  2  0
 12  7  1  0
 19 13  1  0
 30 20  1  0
 29 23  1  0
  3 31  1  0
  4 32  1  0
  4 33  1  0
  8 34  1  0
  8 35  1  0
  9 36  1  0
  9 37  1  0
 10 38  1  0
 10 39  1  0
 11 40  1  0
 11 41  1  0
 12 42  1  1
 14 43  1  0
 15 44  1  0
 18 45  1  0
 19 46  1  0
 21 47  1  0
 22 48  1  0
 24 49  1  0
 25 50  1  0
 28 51  1  0
M  END
>  <smiles>  (47) 
O=C(NCC(=O)N1CCCCC1c1ccc(Cl)cc1)c1ccc2ccc(Cl)cc2n1

>  <score_type>  (47) 
oracle

>  <origin>  (47) 
autodockgpu

>  <m_score__min__energy>  (47) 
-8.6099999999999994

>  <m_primary>  (47) 
energy

>  <rmsd>  (47) 
2.763948802026317

>  <m_score__min__rmsd>  (47) 
2.763948802026317

>  <meeko>  (47) 
{"free_energy": -7.77, "intermolecular_energy": -9.26, "internal_energy": -1.67, "cluster_size": 1, "cluster_id": 4, "rank_in_cluster": 1}

>  <energy>  (47) 
-6.81

>  <cluster_rmsd>  (47) 
1.23

>  <cluster>  (47) 
6

$$$$

     RDKit          3D

 51 54  0  0  0  0  0  0  0  0999 V2000
  140.4070   71.2110  221.3510 O   0  0  0  0  0  0  0  0  0  0  0  0
  140.4500   72.2270  222.0690 C   0  0  0  0  0  0  0  0  0  0  0  0
  140.2930   72.1020  223.4990 N   0  0  0  0  0  0  0  0  0  0  0  0
  140.0920   70.8750  224.1780 C   0  0  0  0  0  0  0  0  0  0  0  0
  140.1060   70.7940  225.6270 C   0  0  0  0  0  0  0  0  0  0  0  0
  140.6200   71.8600  226.1880 O   0  0  0  0  0  0  0  0  0  0  0  0
  139.6930   69.8180  226.5260 N   0  0  0  0  0  0  0  0  0  0  0  0
  139.8980   69.8180  227.9830 C   0  0  0  0  0  0  0  0  0  0  0  0
  140.7160   68.6190  228.3730 C   0  0  0  0  0  0  0  0  0  0  0  0
  141.0860   67.7390  227.2320 C   0  0  0  0  0  0  0  0  0  0  0  0
  139.9480   67.4210  226.2860 C   0  0  0  0  0  0  0  0  0  0  0  0
  139.0020   68.5680  226.0960 C   0  0  2  0  0  0  0  0  0  0  0  0
  138.3110   68.6450  224.8330 C   0  0  0  0  0  0  0  0  0  0  0  0
  137.2010   69.4000  224.5350 C   0  0  0  0  0  0  0  0  0  0  0  0
  136.6200   69.4500  223.2860 C   0  0  0  0  0  0  0  0  0  0  0  0
  137.1500   68.7170  222.2460 C   0  0  0  0  0  0  0  0  0  0  0  0
  136.4760   68.7230  220.6310 Cl  0  0  0  0  0  0  0  0  0  0  0  0
  138.2620   67.9500  222.5140 C   0  0  0  0  0  0  0  0  0  0  0  0
  138.8320   67.9060  223.7550 C   0  0  0  0  0  0  0  0  0  0  0  0
  140.6600   73.5610  221.4680 C   0  0  0  0  0  0  0  0  0  0  0  0
  140.8030   73.6510  220.1010 C   0  0  0  0  0  0  0  0  0  0  0  0
  140.9990   74.9330  219.5860 C   0  0  0  0  0  0  0  0  0  0  0  0
  141.0470   76.0460  220.3970 C   0  0  0  0  0  0  0  0  0  0  0  0
  141.2400   77.3250  219.9150 C   0  0  0  0  0  0  0  0  0  0  0  0
  141.2850   78.4350  220.7550 C   0  0  0  0  0  0  0  0  0  0  0  0
  141.1300   78.2290  222.1110 C   0  0  0  0  0  0  0  0  0  0  0  0
  141.1800   79.6080  223.2090 Cl  0  0  0  0  0  0  0  0  0  0  0  0
  140.9330   76.9560  222.6450 C   0  0  0  0  0  0  0  0  0  0  0  0
  140.8980   75.8950  221.7620 C   0  0  0  0  0  0  0  0  0  0  0  0
  140.7090   74.6540  222.2440 N   0  0  0  0  0  0  0  0  0  0  0  0
  140.3420   73.0210  224.0140 H   0  0  0  0  0  0  0  0  0  0  0  0
  139.1086   70.5012  223.8568 H   0  0  0  0  0  0  0  0  0  0  0  0
  140.9916   70.3050  223.9028 H   0  0  0  0  0  0  0  0  0  0  0  0
  140.4278   70.7355  228.2789 H   0  0  0  0  0  0  0  0  0  0  0  0
  138.9230   69.7781  228.4908 H   0  0  0  0  0  0  0  0  0  0  0  0
  141.6416   68.9728  228.8507 H   0  0  0  0  0  0  0  0  0  0  0  0
  140.0925   68.0160  229.0495 H   0  0  0  0  0  0  0  0  0  0  0  0
  141.8803   68.2380  226.6575 H   0  0  0  0  0  0  0  0  0  0  0  0
  141.4054   66.7810  227.6682 H   0  0  0  0  0  0  0  0  0  0  0  0
  140.3716   67.1510  225.3074 H   0  0  0  0  0  0  0  0  0  0  0  0
  139.3747   66.5937  226.7297 H   0  0  0  0  0  0  0  0  0  0  0  0
  138.1334   68.3898  226.7470 H   0  0  0  0  0  0  0  0  0  0  0  0
  136.7505   69.9989  225.3402 H   0  0  0  0  0  0  0  0  0  0  0  0
  135.7313   70.0763  223.1189 H   0  0  0  0  0  0  0  0  0  0  0  0
  138.7055   67.3537  221.7030 H   0  0  0  0  0  0  0  0  0  0  0  0
  139.7202   67.2772  223.9153 H   0  0  0  0  0  0  0  0  0  0  0  0
  140.7649   72.7633  219.4525 H   0  0  0  0  0  0  0  0  0  0  0  0
  141.1188   75.0589  218.4998 H   0  0  0  0  0  0  0  0  0  0  0  0
  141.3623   77.4724  218.8318 H   0  0  0  0  0  0  0  0  0  0  0  0
  141.4395   79.4459  220.3498 H   0  0  0  0  0  0  0  0  0  0  0  0
  140.8103   76.8030  223.7274 H   0  0  0  0  0  0  0  0  0  0  0  0
  1  2  2  0
  2  3  1  0
  3  4  1  0
  4  5  1  0
  5  6  2  0
  5  7  1  0
  7  8  1  0
  8  9  1  0
  9 10  1  0
 10 11  1  0
 11 12  1  0
 12 13  1  0
 13 14  2  0
 14 15  1  0
 15 16  2  0
 16 17  1  0
 16 18  1  0
 18 19  2  0
  2 20  1  0
 20 21  2  0
 21 22  1  0
 22 23  2  0
 23 24  1  0
 24 25  2  0
 25 26  1  0
 26 27  1  0
 26 28  2  0
 28 29  1  0
 29 30  2  0
 12  7  1  0
 19 13  1  0
 30 20  1  0
 29 23  1  0
  3 31  1  0
  4 32  1  0
  4 33  1  0
  8 34  1  0
  8 35  1  0
  9 36  1  0
  9 37  1  0
 10 38  1  0
 10 39  1  0
 11 40  1  0
 11 41  1  0
 12 42  1  1
 14 43  1  0
 15 44  1  0
 18 45  1  0
 19 46  1  0
 21 47  1  0
 22 48  1  0
 24 49  1  0
 25 50  1  0
 28 51  1  0
M  END
>  <smiles>  (48) 
O=C(NCC(=O)N1CCCCC1c1ccc(Cl)cc1)c1ccc2ccc(Cl)cc2n1

>  <score_type>  (48) 
oracle

>  <origin>  (48) 
autodockgpu

>  <m_score__min__energy>  (48) 
-8.6099999999999994

>  <m_primary>  (48) 
energy

>  <rmsd>  (48) 
9.007498440947657

>  <m_score__min__rmsd>  (48) 
9.007498440947657

>  <meeko>  (48) 
{"free_energy": -8.25, "intermolecular_energy": -9.74, "internal_energy": -1.96, "cluster_size": 8, "cluster_id": 1, "rank_in_cluster": 8}

>  <energy>  (48) 
-6.79

>  <cluster_rmsd>  (48) 
1.24

>  <cluster>  (48) 
6

$$$$

     RDKit          3D

 51 54  0  0  0  0  0  0  0  0999 V2000
  139.0560   73.7500  221.1350 O   0  0  0  0  0  0  0  0  0  0  0  0
  139.9940   74.4570  221.5430 C   0  0  0  0  0  0  0  0  0  0  0  0
  141.3350   73.9230  221.5740 N   0  0  0  0  0  0  0  0  0  0  0  0
  141.6850   72.6130  221.1610 C   0  0  0  0  0  0  0  0  0  0  0  0
  142.2760   72.3550  219.8610 C   0  0  0  0  0  0  0  0  0  0  0  0
  141.4430   71.7800  219.0310 O   0  0  0  0  0  0  0  0  0  0  0  0
  143.5390   72.5910  219.3310 N   0  0  0  0  0  0  0  0  0  0  0  0
  144.5140   71.5790  218.8930 C   0  0  0  0  0  0  0  0  0  0  0  0
  145.7690   71.7090  219.7100 C   0  0  0  0  0  0  0  0  0  0  0  0
  145.7310   72.8090  220.7110 C   0  0  0  0  0  0  0  0  0  0  0  0
  145.2080   74.1260  220.1820 C   0  0  0  0  0  0  0  0  0  0  0  0
  144.1060   73.9620  219.1800 C   0  0  2  0  0  0  0  0  0  0  0  0
  143.1370   75.0270  219.0910 C   0  0  0  0  0  0  0  0  0  0  0  0
  141.9200   74.9950  218.4510 C   0  0  0  0  0  0  0  0  0  0  0  0
  141.0290   76.0470  218.4450 C   0  0  0  0  0  0  0  0  0  0  0  0
  141.3340   77.2160  219.1070 C   0  0  0  0  0  0  0  0  0  0  0  0
  140.2620   78.5990  219.1510 Cl  0  0  0  0  0  0  0  0  0  0  0  0
  142.5470   77.2790  219.7570 C   0  0  0  0  0  0  0  0  0  0  0  0
  143.4250   76.2310  219.7580 C   0  0  0  0  0  0  0  0  0  0  0  0
  139.7470   75.8430  221.9950 C   0  0  0  0  0  0  0  0  0  0  0  0
  138.4440   76.2840  222.0790 C   0  0  0  0  0  0  0  0  0  0  0  0
  138.2680   77.5990  222.5110 C   0  0  0  0  0  0  0  0  0  0  0  0
  139.3330   78.4110  222.8350 C   0  0  0  0  0  0  0  0  0  0  0  0
  139.1870   79.7140  223.2640 C   0  0  0  0  0  0  0  0  0  0  0  0
  140.2790   80.5160  223.5860 C   0  0  0  0  0  0  0  0  0  0  0  0
  141.5410   79.9710  223.4650 C   0  0  0  0  0  0  0  0  0  0  0  0
  142.9520   80.9520  223.8630 Cl  0  0  0  0  0  0  0  0  0  0  0  0
  141.7390   78.6590  223.0360 C   0  0  0  0  0  0  0  0  0  0  0  0
  140.6180   77.9150  222.7310 C   0  0  0  0  0  0  0  0  0  0  0  0
  140.7730   76.6450  222.3140 N   0  0  0  0  0  0  0  0  0  0  0  0
  142.0550   74.6010  221.9390 H   0  0  0  0  0  0  0  0  0  0  0  0
  142.4000   72.2345  221.9063 H   0  0  0  0  0  0  0  0  0  0  0  0
  140.7029   72.1255  221.0724 H   0  0  0  0  0  0  0  0  0  0  0  0
  144.0879   70.5744  219.0320 H   0  0  0  0  0  0  0  0  0  0  0  0
  144.7501   71.7320  217.8296 H   0  0  0  0  0  0  0  0  0  0  0  0
  145.9332   70.7615  220.2441 H   0  0  0  0  0  0  0  0  0  0  0  0
  146.5814   71.9472  219.0077 H   0  0  0  0  0  0  0  0  0  0  0  0
  145.0849   72.4930  221.5432 H   0  0  0  0  0  0  0  0  0  0  0  0
  146.7726   72.9880  221.0162 H   0  0  0  0  0  0  0  0  0  0  0  0
  144.8265   74.7163  221.0282 H   0  0  0  0  0  0  0  0  0  0  0  0
  146.0427   74.6287  219.6716 H   0  0  0  0  0  0  0  0  0  0  0  0
  144.5529   74.0632  218.1800 H   0  0  0  0  0  0  0  0  0  0  0  0
  141.6415   74.0770  217.9128 H   0  0  0  0  0  0  0  0  0  0  0  0
  140.0723   75.9527  217.9104 H   0  0  0  0  0  0  0  0  0  0  0  0
  142.8176   78.2013  220.2919 H   0  0  0  0  0  0  0  0  0  0  0  0
  144.3804   76.3321  220.2938 H   0  0  0  0  0  0  0  0  0  0  0  0
  137.5926   75.6372  221.8206 H   0  0  0  0  0  0  0  0  0  0  0  0
  137.2472   78.0000  222.5956 H   0  0  0  0  0  0  0  0  0  0  0  0
  138.1742   80.1335  223.3548 H   0  0  0  0  0  0  0  0  0  0  0  0
  140.1398   81.5527  223.9265 H   0  0  0  0  0  0  0  0  0  0  0  0
  142.7494   78.2339  222.9444 H   0  0  0  0  0  0  0  0  0  0  0  0
  1  2  2  0
  2  3  1  0
  3  4  1  0
  4  5  1  0
  5  6  2  0
  5  7  1  0
  7  8  1  0
  8  9  1  0
  9 10  1  0
 10 11  1  0
 11 12  1  0
 12 13  1  0
 13 14  2  0
 14 15  1  0
 15 16  2  0
 16 17  1  0
 16 18  1  0
 18 19  2  0
  2 20  1  0
 20 21  2  0
 21 22  1  0
 22 23  2  0
 23 24  1  0
 24 25  2  0
 25 26  1  0
 26 27  1  0
 26 28  2  0
 28 29  1  0
 29 30  2  0
 12  7  1  0
 19 13  1  0
 30 20  1  0
 29 23  1  0
  3 31  1  0
  4 32  1  0
  4 33  1  0
  8 34  1  0
  8 35  1  0
  9 36  1  0
  9 37  1  0
 10 38  1  0
 10 39  1  0
 11 40  1  0
 11 41  1  0
 12 42  1  6
 14 43  1  0
 15 44  1  0
 18 45  1  0
 19 46  1  0
 21 47  1  0
 22 48  1  0
 24 49  1  0
 25 50  1  0
 28 51  1  0
M  END
>  <smiles>  (49) 
O=C(NCC(=O)N1CCCCC1c1ccc(Cl)cc1)c1ccc2ccc(Cl)cc2n1

>  <score_type>  (49) 
oracle

>  <origin>  (49) 
autodockgpu

>  <m_score__min__energy>  (49) 
-8.6099999999999994

>  <m_primary>  (49) 
energy

>  <rmsd>  (49) 
7.067767425576296

>  <m_score__min__rmsd>  (49) 
7.067767425576296

>  <meeko>  (49) 
{"free_energy": -6.81, "intermolecular_energy": -8.3, "internal_energy": -3.17, "cluster_size": 14, "cluster_id": 6, "rank_in_cluster": 13}

>  <energy>  (49) 
-7.42

>  <cluster_rmsd>  (49) 
0.0

>  <cluster>  (49) 
7

$$$$

     RDKit          3D

 51 54  0  0  0  0  0  0  0  0999 V2000
  141.1860   74.6710  220.7780 O   0  0  0  0  0  0  0  0  0  0  0  0
  140.3120   74.8160  221.6510 C   0  0  0  0  0  0  0  0  0  0  0  0
  139.6730   73.6560  222.2260 N   0  0  0  0  0  0  0  0  0  0  0  0
  139.9710   72.3170  221.8680 C   0  0  0  0  0  0  0  0  0  0  0  0
  139.0170   71.2430  222.0680 C   0  0  0  0  0  0  0  0  0  0  0  0
  137.8080   71.6810  222.3170 O   0  0  0  0  0  0  0  0  0  0  0  0
  139.1310   69.8580  222.0530 N   0  0  0  0  0  0  0  0  0  0  0  0
  139.1160   68.9850  220.8680 C   0  0  0  0  0  0  0  0  0  0  0  0
  137.9550   68.0350  220.9630 C   0  0  0  0  0  0  0  0  0  0  0  0
  137.1470   68.1860  222.2020 C   0  0  0  0  0  0  0  0  0  0  0  0
  137.9570   68.2890  223.4760 C   0  0  0  0  0  0  0  0  0  0  0  0
  139.2390   69.0460  223.2990 C   0  0  2  0  0  0  0  0  0  0  0  0
  139.7530   69.7430  224.4510 C   0  0  0  0  0  0  0  0  0  0  0  0
  140.6670   70.7710  224.4640 C   0  0  0  0  0  0  0  0  0  0  0  0
  141.0790   71.4160  225.6110 C   0  0  0  0  0  0  0  0  0  0  0  0
  140.5710   71.0420  226.8370 C   0  0  0  0  0  0  0  0  0  0  0  0
  141.0400   71.8060  228.3390 Cl  0  0  0  0  0  0  0  0  0  0  0  0
  139.6540   70.0150  226.8560 C   0  0  0  0  0  0  0  0  0  0  0  0
  139.2500   69.3810  225.7140 C   0  0  0  0  0  0  0  0  0  0  0  0
  139.9230   76.1680  222.1060 C   0  0  0  0  0  0  0  0  0  0  0  0
  138.5850   76.4950  222.1210 C   0  0  0  0  0  0  0  0  0  0  0  0
  138.2730   77.7830  222.5590 C   0  0  0  0  0  0  0  0  0  0  0  0
  139.2440   78.6770  222.9530 C   0  0  0  0  0  0  0  0  0  0  0  0
  138.9640   79.9550  223.3890 C   0  0  0  0  0  0  0  0  0  0  0  0
  139.9640   80.8410  223.7830 C   0  0  0  0  0  0  0  0  0  0  0  0
  141.2730   80.4060  223.7270 C   0  0  0  0  0  0  0  0  0  0  0  0
  142.5710   81.4970  224.2170 Cl  0  0  0  0  0  0  0  0  0  0  0  0
  141.6060   79.1240  223.2930 C   0  0  0  0  0  0  0  0  0  0  0  0
  140.5710   78.2930  222.9160 C   0  0  0  0  0  0  0  0  0  0  0  0
  140.8570   77.0480  222.4930 N   0  0  0  0  0  0  0  0  0  0  0  0
  138.9450   73.8880  222.9530 H   0  0  0  0  0  0  0  0  0  0  0  0
  140.2022   72.3287  220.7926 H   0  0  0  0  0  0  0  0  0  0  0  0
  140.7683   72.0568  222.5798 H   0  0  0  0  0  0  0  0  0  0  0  0
  139.0146   69.5990  219.9610 H   0  0  0  0  0  0  0  0  0  0  0  0
  140.0551   68.4142  220.8200 H   0  0  0  0  0  0  0  0  0  0  0  0
  137.2969   68.2062  220.0984 H   0  0  0  0  0  0  0  0  0  0  0  0
  138.3769   67.0193  220.9812 H   0  0  0  0  0  0  0  0  0  0  0  0
  136.5407   69.0988  222.1066 H   0  0  0  0  0  0  0  0  0  0  0  0
  136.5416   67.2720  222.2916 H   0  0  0  0  0  0  0  0  0  0  0  0
  137.3497   68.8020  224.2363 H   0  0  0  0  0  0  0  0  0  0  0  0
  138.2202   67.2653  223.7807 H   0  0  0  0  0  0  0  0  0  0  0  0
  140.0454   68.3068  223.1835 H   0  0  0  0  0  0  0  0  0  0  0  0
  141.0938   71.0973  223.5041 H   0  0  0  0  0  0  0  0  0  0  0  0
  141.8149   72.2311  225.5477 H   0  0  0  0  0  0  0  0  0  0  0  0
  139.2332   69.6945  227.8205 H   0  0  0  0  0  0  0  0  0  0  0  0
  138.5131   68.5674  225.7845 H   0  0  0  0  0  0  0  0  0  0  0  0
  137.8080   75.7828  221.8062 H   0  0  0  0  0  0  0  0  0  0  0  0
  137.2183   78.0940  222.5906 H   0  0  0  0  0  0  0  0  0  0  0  0
  137.9156   80.2859  223.4269 H   0  0  0  0  0  0  0  0  0  0  0  0
  139.7182   81.8561  224.1282 H   0  0  0  0  0  0  0  0  0  0  0  0
  142.6526   78.7880  223.2526 H   0  0  0  0  0  0  0  0  0  0  0  0
  1  2  2  0
  2  3  1  0
  3  4  1  0
  4  5  1  0
  5  6  2  0
  5  7  1  0
  7  8  1  0
  8  9  1  0
  9 10  1  0
 10 11  1  0
 11 12  1  0
 12 13  1  0
 13 14  2  0
 14 15  1  0
 15 16  2  0
 16 17  1  0
 16 18  1  0
 18 19  2  0
  2 20  1  0
 20 21  2  0
 21 22  1  0
 22 23  2  0
 23 24  1  0
 24 25  2  0
 25 26  1  0
 26 27  1  0
 26 28  2  0
 28 29  1  0
 29 30  2  0
 12  7  1  0
 19 13  1  0
 30 20  1  0
 29 23  1  0
  3 31  1  0
  4 32  1  0
  4 33  1  0
  8 34  1  0
  8 35  1  0
  9 36  1  0
  9 37  1  0
 10 38  1  0
 10 39  1  0
 11 40  1  0
 11 41  1  0
 12 42  1  6
 14 43  1  0
 15 44  1  0
 18 45  1  0
 19 46  1  0
 21 47  1  0
 22 48  1  0
 24 49  1  0
 25 50  1  0
 28 51  1  0
M  END
>  <smiles>  (50) 
O=C(NCC(=O)N1CCCCC1c1ccc(Cl)cc1)c1ccc2ccc(Cl)cc2n1

>  <score_type>  (50) 
oracle

>  <origin>  (50) 
autodockgpu

>  <m_score__min__energy>  (50) 
-8.6099999999999994

>  <m_primary>  (50) 
energy

>  <rmsd>  (50) 
8.100710087043783

>  <m_score__min__rmsd>  (50) 
8.100710087043783

>  <meeko>  (50) 
{"free_energy": -8.55, "intermolecular_energy": -10.04, "internal_energy": -1.32, "cluster_size": 2, "cluster_id": 2, "rank_in_cluster": 1}

>  <energy>  (50) 
-6.46

>  <cluster_rmsd>  (50) 
0.0

>  <cluster>  (50) 
8

$$$$

     RDKit          3D

 51 54  0  0  0  0  0  0  0  0999 V2000
  141.1030   73.8380  220.9910 O   0  0  0  0  0  0  0  0  0  0  0  0
  140.2680   73.7530  221.9260 C   0  0  0  0  0  0  0  0  0  0  0  0
  139.6220   74.9620  222.3200 N   0  0  0  0  0  0  0  0  0  0  0  0
  139.9750   76.1790  221.6200 C   0  0  0  0  0  0  0  0  0  0  0  0
  139.4710   77.3870  222.2850 C   0  0  0  0  0  0  0  0  0  0  0  0
  138.3450   77.4890  222.8370 O   0  0  0  0  0  0  0  0  0  0  0  0
  140.3100   78.5340  222.3140 N   0  0  0  0  0  0  0  0  0  0  0  0
  141.6770   78.4260  222.7430 C   0  0  0  0  0  0  0  0  0  0  0  0
  142.2240   79.7020  223.2900 C   0  0  0  0  0  0  0  0  0  0  0  0
  141.2200   80.6380  223.8710 C   0  0  0  0  0  0  0  0  0  0  0  0
  139.9680   80.8160  223.0750 C   0  0  0  0  0  0  0  0  0  0  0  0
  139.8370   79.8550  221.9190 C   0  0  1  0  0  0  0  0  0  0  0  0
  140.5840   80.2620  220.7120 C   0  0  0  0  0  0  0  0  0  0  0  0
  141.0430   79.4220  219.7470 C   0  0  0  0  0  0  0  0  0  0  0  0
  141.7420   79.8500  218.6280 C   0  0  0  0  0  0  0  0  0  0  0  0
  141.9960   81.2050  218.4650 C   0  0  0  0  0  0  0  0  0  0  0  0
  142.8750   81.7470  217.0540 Cl  0  0  0  0  0  0  0  0  0  0  0  0
  141.5290   82.0580  219.4410 C   0  0  0  0  0  0  0  0  0  0  0  0
  140.8330   81.6180  220.5550 C   0  0  0  0  0  0  0  0  0  0  0  0
  139.9440   72.5000  222.6030 C   0  0  0  0  0  0  0  0  0  0  0  0
  139.1960   71.5560  221.9250 C   0  0  0  0  0  0  0  0  0  0  0  0
  138.8510   70.3440  222.5020 C   0  0  0  0  0  0  0  0  0  0  0  0
  139.2980   70.1350  223.7980 C   0  0  0  0  0  0  0  0  0  0  0  0
  138.9750   68.9390  224.4110 C   0  0  0  0  0  0  0  0  0  0  0  0
  139.4190   68.7220  225.7090 C   0  0  0  0  0  0  0  0  0  0  0  0
  140.1660   69.6820  226.3690 C   0  0  0  0  0  0  0  0  0  0  0  0
  140.6800   69.3250  227.9920 Cl  0  0  0  0  0  0  0  0  0  0  0  0
  140.4620   70.8570  225.7140 C   0  0  0  0  0  0  0  0  0  0  0  0
  140.0360   71.1040  224.4270 C   0  0  0  0  0  0  0  0  0  0  0  0
  140.3580   72.2690  223.8470 N   0  0  0  0  0  0  0  0  0  0  0  0
  138.9150   74.9880  223.0860 H   0  0  0  0  0  0  0  0  0  0  0  0
  141.0714   76.2434  221.5589 H   0  0  0  0  0  0  0  0  0  0  0  0
  139.5117   76.1330  220.6234 H   0  0  0  0  0  0  0  0  0  0  0  0
  141.7380   77.6555  223.5257 H   0  0  0  0  0  0  0  0  0  0  0  0
  142.2774   78.1653  221.8589 H   0  0  0  0  0  0  0  0  0  0  0  0
  142.9471   79.4491  224.0794 H   0  0  0  0  0  0  0  0  0  0  0  0
  142.6668   80.2307  222.4330 H   0  0  0  0  0  0  0  0  0  0  0  0
  140.9386   80.2586  224.8644 H   0  0  0  0  0  0  0  0  0  0  0  0
  141.7056   81.6248  223.8934 H   0  0  0  0  0  0  0  0  0  0  0  0
  139.1079   80.6710  223.7452 H   0  0  0  0  0  0  0  0  0  0  0  0
  140.0032   81.8284  222.6463 H   0  0  0  0  0  0  0  0  0  0  0  0
  138.7673   79.8477  221.6628 H   0  0  0  0  0  0  0  0  0  0  0  0
  140.8497   78.3450  219.8595 H   0  0  0  0  0  0  0  0  0  0  0  0
  142.0910   79.1243  217.8786 H   0  0  0  0  0  0  0  0  0  0  0  0
  141.7172   83.1362  219.3308 H   0  0  0  0  0  0  0  0  0  0  0  0
  140.4807   82.3375  221.3088 H   0  0  0  0  0  0  0  0  0  0  0  0
  138.8652   71.7727  220.8986 H   0  0  0  0  0  0  0  0  0  0  0  0
  138.2569   69.5913  221.9630 H   0  0  0  0  0  0  0  0  0  0  0  0
  138.3810   68.1779  223.8839 H   0  0  0  0  0  0  0  0  0  0  0  0
  139.1745   67.7777  226.2175 H   0  0  0  0  0  0  0  0  0  0  0  0
  141.0570   71.6220  226.2345 H   0  0  0  0  0  0  0  0  0  0  0  0
  1  2  2  0
  2  3  1  0
  3  4  1  0
  4  5  1  0
  5  6  2  0
  5  7  1  0
  7  8  1  0
  8  9  1  0
  9 10  1  0
 10 11  1  0
 11 12  1  0
 12 13  1  0
 13 14  2  0
 14 15  1  0
 15 16  2  0
 16 17  1  0
 16 18  1  0
 18 19  2  0
  2 20  1  0
 20 21  2  0
 21 22  1  0
 22 23  2  0
 23 24  1  0
 24 25  2  0
 25 26  1  0
 26 27  1  0
 26 28  2  0
 28 29  1  0
 29 30  2  0
 12  7  1  0
 19 13  1  0
 30 20  1  0
 29 23  1  0
  3 31  1  0
  4 32  1  0
  4 33  1  0
  8 34  1  0
  8 35  1  0
  9 36  1  0
  9 37  1  0
 10 38  1  0
 10 39  1  0
 11 40  1  0
 11 41  1  0
 12 42  1  6
 14 43  1  0
 15 44  1  0
 18 45  1  0
 19 46  1  0
 21 47  1  0
 22 48  1  0
 24 49  1  0
 25 50  1  0
 28 51  1  0
M  END
>  <smiles>  (51) 
O=C(NCC(=O)N1CCCCC1c1ccc(Cl)cc1)c1ccc2ccc(Cl)cc2n1

>  <score_type>  (51) 
oracle

>  <origin>  (51) 
autodockgpu

>  <m_score__min__energy>  (51) 
-9.0199999999999996

>  <m_primary>  (51) 
energy

>  <rmsd>  (51) 
4.292564369023902

>  <m_score__min__rmsd>  (51) 
4.292564369023902

>  <meeko>  (51) 
{"free_energy": -8.42, "intermolecular_energy": -9.91, "internal_energy": -1.53, "cluster_size": 3, "cluster_id": 4, "rank_in_cluster": 2}

>  <energy>  (51) 
-9.02

>  <cluster_rmsd>  (51) 
0.0

>  <cluster>  (51) 
1

$$$$

     RDKit          3D

 51 54  0  0  0  0  0  0  0  0999 V2000
  140.1820   73.3570  220.3820 O   0  0  0  0  0  0  0  0  0  0  0  0
  139.8650   73.4240  221.5960 C   0  0  0  0  0  0  0  0  0  0  0  0
  139.5660   74.7210  222.1080 N   0  0  0  0  0  0  0  0  0  0  0  0
  139.6520   75.8450  221.2010 C   0  0  0  0  0  0  0  0  0  0  0  0
  140.9640   76.5040  221.2290 C   0  0  0  0  0  0  0  0  0  0  0  0
  142.0470   75.9690  220.8810 O   0  0  0  0  0  0  0  0  0  0  0  0
  141.0260   77.8510  221.6820 N   0  0  0  0  0  0  0  0  0  0  0  0
  141.1770   78.9280  220.7430 C   0  0  0  0  0  0  0  0  0  0  0  0
  141.8150   80.1390  221.3370 C   0  0  0  0  0  0  0  0  0  0  0  0
  142.7130   79.8910  222.5000 C   0  0  0  0  0  0  0  0  0  0  0  0
  142.1980   78.9260  223.5190 C   0  0  0  0  0  0  0  0  0  0  0  0
  140.9440   78.2020  223.0940 C   0  0  1  0  0  0  0  0  0  0  0  0
  139.7040   78.9770  223.2970 C   0  0  0  0  0  0  0  0  0  0  0  0
  139.6270   80.2110  223.8610 C   0  0  0  0  0  0  0  0  0  0  0  0
  138.4370   80.9030  224.0310 C   0  0  0  0  0  0  0  0  0  0  0  0
  137.2490   80.3230  223.6090 C   0  0  0  0  0  0  0  0  0  0  0  0
  135.7480   81.1930  223.8210 Cl  0  0  0  0  0  0  0  0  0  0  0  0
  137.3260   79.0720  223.0350 C   0  0  0  0  0  0  0  0  0  0  0  0
  138.5200   78.3910  222.8720 C   0  0  0  0  0  0  0  0  0  0  0  0
  139.7920   72.2590  222.4740 C   0  0  0  0  0  0  0  0  0  0  0  0
  139.2660   71.0840  221.9710 C   0  0  0  0  0  0  0  0  0  0  0  0
  139.1650   69.9380  222.7440 C   0  0  0  0  0  0  0  0  0  0  0  0
  139.6220   70.0400  224.0500 C   0  0  0  0  0  0  0  0  0  0  0  0
  139.5390   68.9200  224.8560 C   0  0  0  0  0  0  0  0  0  0  0  0
  139.9940   69.0130  226.1640 C   0  0  0  0  0  0  0  0  0  0  0  0
  140.5170   70.2010  226.6470 C   0  0  0  0  0  0  0  0  0  0  0  0
  141.0620   70.2280  228.2980 Cl  0  0  0  0  0  0  0  0  0  0  0  0
  140.5770   71.2880  225.8040 C   0  0  0  0  0  0  0  0  0  0  0  0
  140.1340   71.2290  224.5000 C   0  0  0  0  0  0  0  0  0  0  0  0
  140.2210   72.3250  223.7320 N   0  0  0  0  0  0  0  0  0  0  0  0
  139.2940   74.8740  223.1030 H   0  0  0  0  0  0  0  0  0  0  0  0
  139.4613   75.4863  220.1788 H   0  0  0  0  0  0  0  0  0  0  0  0
  138.9043   76.5853  221.5217 H   0  0  0  0  0  0  0  0  0  0  0  0
  141.8007   78.5784  219.9070 H   0  0  0  0  0  0  0  0  0  0  0  0
  140.1687   79.2179  220.4124 H   0  0  0  0  0  0  0  0  0  0  0  0
  142.4079   80.6290  220.5506 H   0  0  0  0  0  0  0  0  0  0  0  0
  140.9890   80.7552  221.7217 H   0  0  0  0  0  0  0  0  0  0  0  0
  143.6660   79.4996  222.1144 H   0  0  0  0  0  0  0  0  0  0  0  0
  142.8064   80.8561  223.0195 H   0  0  0  0  0  0  0  0  0  0  0  0
  142.9806   78.1782  223.7149 H   0  0  0  0  0  0  0  0  0  0  0  0
  141.9416   79.5120  224.4139 H   0  0  0  0  0  0  0  0  0  0  0  0
  140.8888   77.3103  223.7358 H   0  0  0  0  0  0  0  0  0  0  0  0
  140.5587   80.6867  224.2010 H   0  0  0  0  0  0  0  0  0  0  0  0
  138.4350   81.9003  224.4951 H   0  0  0  0  0  0  0  0  0  0  0  0
  136.3971   78.5936  222.6912 H   0  0  0  0  0  0  0  0  0  0  0  0
  138.5303   77.3931  222.4092 H   0  0  0  0  0  0  0  0  0  0  0  0
  138.9178   71.0576  220.9279 H   0  0  0  0  0  0  0  0  0  0  0  0
  138.7468   69.0020  222.3452 H   0  0  0  0  0  0  0  0  0  0  0  0
  139.1225   67.9779  224.4701 H   0  0  0  0  0  0  0  0  0  0  0  0
  139.9387   68.1344  226.8236 H   0  0  0  0  0  0  0  0  0  0  0  0
  140.9917   72.2337  226.1832 H   0  0  0  0  0  0  0  0  0  0  0  0
  1  2  2  0
  2  3  1  0
  3  4  1  0
  4  5  1  0
  5  6  2  0
  5  7  1  0
  7  8  1  0
  8  9  1  0
  9 10  1  0
 10 11  1  0
 11 12  1  0
 12 13  1  0
 13 14  2  0
 14 15  1  0
 15 16  2  0
 16 17  1  0
 16 18  1  0
 18 19  2  0
  2 20  1  0
 20 21  2  0
 21 22  1  0
 22 23  2  0
 23 24  1  0
 24 25  2  0
 25 26  1  0
 26 27  1  0
 26 28  2  0
 28 29  1  0
 29 30  2  0
 12  7  1  0
 19 13  1  0
 30 20  1  0
 29 23  1  0
  3 31  1  0
  4 32  1  0
  4 33  1  0
  8 34  1  0
  8 35  1  0
  9 36  1  0
  9 37  1  0
 10 38  1  0
 10 39  1  0
 11 40  1  0
 11 41  1  0
 12 42  1  1
 14 43  1  0
 15 44  1  0
 18 45  1  0
 19 46  1  0
 21 47  1  0
 22 48  1  0
 24 49  1  0
 25 50  1  0
 28 51  1  0
M  END
>  <smiles>  (52) 
O=C(NCC(=O)N1CCCCC1c1ccc(Cl)cc1)c1ccc2ccc(Cl)cc2n1

>  <score_type>  (52) 
oracle

>  <origin>  (52) 
autodockgpu

>  <m_score__min__energy>  (52) 
-9.0199999999999996

>  <m_primary>  (52) 
energy

>  <rmsd>  (52) 
3.615354089865768

>  <m_score__min__rmsd>  (52) 
3.615354089865768

>  <meeko>  (52) 
{"free_energy": -8.48, "intermolecular_energy": -9.97, "internal_energy": -1.52, "cluster_size": 7, "cluster_id": 2, "rank_in_cluster": 4}

>  <energy>  (52) 
-9.01

>  <cluster_rmsd>  (52) 
0.2

>  <cluster>  (52) 
1

$$$$

     RDKit          3D

 51 54  0  0  0  0  0  0  0  0999 V2000
  140.3210   77.9330  218.0590 O   0  0  0  0  0  0  0  0  0  0  0  0
  141.4710   77.7610  218.5360 C   0  0  0  0  0  0  0  0  0  0  0  0
  142.1970   78.9350  218.8940 N   0  0  0  0  0  0  0  0  0  0  0  0
  141.5610   80.2170  218.6830 C   0  0  0  0  0  0  0  0  0  0  0  0
  141.5580   81.0590  219.8860 C   0  0  0  0  0  0  0  0  0  0  0  0
  141.8390   82.2840  219.9090 O   0  0  0  0  0  0  0  0  0  0  0  0
  141.2120   80.4530  221.1250 N   0  0  0  0  0  0  0  0  0  0  0  0
  140.2400   81.0650  221.9880 C   0  0  0  0  0  0  0  0  0  0  0  0
  140.4170   80.6990  223.4240 C   0  0  0  0  0  0  0  0  0  0  0  0
  141.8010   80.3260  223.8300 C   0  0  0  0  0  0  0  0  0  0  0  0
  142.5280   79.4220  222.8880 C   0  0  0  0  0  0  0  0  0  0  0  0
  141.8140   79.2040  221.5770 C   0  0  1  0  0  0  0  0  0  0  0  0
  140.7490   78.1830  221.6340 C   0  0  0  0  0  0  0  0  0  0  0  0
  139.5020   78.3120  221.1090 C   0  0  0  0  0  0  0  0  0  0  0  0
  138.5320   77.3230  221.1870 C   0  0  0  0  0  0  0  0  0  0  0  0
  138.8310   76.1300  221.8310 C   0  0  0  0  0  0  0  0  0  0  0  0
  137.6100   74.8820  221.9290 Cl  0  0  0  0  0  0  0  0  0  0  0  0
  140.0950   75.9970  222.3610 C   0  0  0  0  0  0  0  0  0  0  0  0
  141.0550   76.9920  222.2770 C   0  0  0  0  0  0  0  0  0  0  0  0
  142.0720   76.4440  218.7310 C   0  0  0  0  0  0  0  0  0  0  0  0
  141.5330   75.3650  218.0560 C   0  0  0  0  0  0  0  0  0  0  0  0
  142.0490   74.0860  218.1900 C   0  0  0  0  0  0  0  0  0  0  0  0
  143.1370   73.9520  219.0410 C   0  0  0  0  0  0  0  0  0  0  0  0
  143.6820   72.6930  219.2050 C   0  0  0  0  0  0  0  0  0  0  0  0
  144.7710   72.5510  220.0550 C   0  0  0  0  0  0  0  0  0  0  0  0
  145.2940   73.6460  220.7210 C   0  0  0  0  0  0  0  0  0  0  0  0
  146.6570   73.3760  221.7660 Cl  0  0  0  0  0  0  0  0  0  0  0  0
  144.7140   74.8790  220.5240 C   0  0  0  0  0  0  0  0  0  0  0  0
  143.6320   75.0550  219.6880 C   0  0  0  0  0  0  0  0  0  0  0  0
  143.1150   76.2830  219.5410 N   0  0  0  0  0  0  0  0  0  0  0  0
  143.1580   78.8900  219.2970 H   0  0  0  0  0  0  0  0  0  0  0  0
  142.0991   80.7484  217.8842 H   0  0  0  0  0  0  0  0  0  0  0  0
  140.5123   80.0244  218.4126 H   0  0  0  0  0  0  0  0  0  0  0  0
  140.3259   82.1575  221.8923 H   0  0  0  0  0  0  0  0  0  0  0  0
  139.2501   80.7000  221.6768 H   0  0  0  0  0  0  0  0  0  0  0  0
  140.1069   81.5609  224.0331 H   0  0  0  0  0  0  0  0  0  0  0  0
  139.8055   79.7983  223.5813 H   0  0  0  0  0  0  0  0  0  0  0  0
  142.3859   81.2523  223.9296 H   0  0  0  0  0  0  0  0  0  0  0  0
  141.6979   79.7625  224.7691 H   0  0  0  0  0  0  0  0  0  0  0  0
  143.5136   79.8623  222.6766 H   0  0  0  0  0  0  0  0  0  0  0  0
  142.6007   78.4405  223.3792 H   0  0  0  0  0  0  0  0  0  0  0  0
  142.5847   78.8431  220.8800 H   0  0  0  0  0  0  0  0  0  0  0  0
  139.2482   79.2507  220.5947 H   0  0  0  0  0  0  0  0  0  0  0  0
  137.5379   77.4823  220.7438 H   0  0  0  0  0  0  0  0  0  0  0  0
  140.3538   75.0589  222.8738 H   0  0  0  0  0  0  0  0  0  0  0  0
  142.0518   76.8393  222.7164 H   0  0  0  0  0  0  0  0  0  0  0  0
  140.6698   75.5262  217.3935 H   0  0  0  0  0  0  0  0  0  0  0  0
  141.6210   73.2267  217.6530 H   0  0  0  0  0  0  0  0  0  0  0  0
  143.2636   71.8245  218.6753 H   0  0  0  0  0  0  0  0  0  0  0  0
  145.2224   71.5585  220.2005 H   0  0  0  0  0  0  0  0  0  0  0  0
  145.1273   75.7519  221.0506 H   0  0  0  0  0  0  0  0  0  0  0  0
  1  2  2  0
  2  3  1  0
  3  4  1  0
  4  5  1  0
  5  6  2  0
  5  7  1  0
  7  8  1  0
  8  9  1  0
  9 10  1  0
 10 11  1  0
 11 12  1  0
 12 13  1  0
 13 14  2  0
 14 15  1  0
 15 16  2  0
 16 17  1  0
 16 18  1  0
 18 19  2  0
  2 20  1  0
 20 21  2  0
 21 22  1  0
 22 23  2  0
 23 24  1  0
 24 25  2  0
 25 26  1  0
 26 27  1  0
 26 28  2  0
 28 29  1  0
 29 30  2  0
 12  7  1  0
 19 13  1  0
 30 20  1  0
 29 23  1  0
  3 31  1  0
  4 32  1  0
  4 33  1  0
  8 34  1  0
  8 35  1  0
  9 36  1  0
  9 37  1  0
 10 38  1  0
 10 39  1  0
 11 40  1  0
 11 41  1  0
 12 42  1  6
 14 43  1  0
 15 44  1  0
 18 45  1  0
 19 46  1  0
 21 47  1  0
 22 48  1  0
 24 49  1  0
 25 50  1  0
 28 51  1  0
M  END
>  <smiles>  (53) 
O=C(NCC(=O)N1CCCCC1c1ccc(Cl)cc1)c1ccc2ccc(Cl)cc2n1

>  <score_type>  (53) 
oracle

>  <origin>  (53) 
autodockgpu

>  <m_score__min__energy>  (53) 
-9.0199999999999996

>  <m_primary>  (53) 
energy

>  <rmsd>  (53) 
7.680781209191959

>  <m_score__min__rmsd>  (53) 
7.680781209191959

>  <meeko>  (53) 
{"free_energy": -7.12, "intermolecular_energy": -8.62, "internal_energy": -2.52, "cluster_size": 2, "cluster_id": 8, "rank_in_cluster": 2}

>  <energy>  (53) 
-8.97

>  <cluster_rmsd>  (53) 
0.19

>  <cluster>  (53) 
1

$$$$

     RDKit          3D

 51 54  0  0  0  0  0  0  0  0999 V2000
  140.9060   74.4660  220.7390 O   0  0  0  0  0  0  0  0  0  0  0  0
  140.1360   75.1240  221.4830 C   0  0  0  0  0  0  0  0  0  0  0  0
  139.0360   74.4160  222.0510 N   0  0  0  0  0  0  0  0  0  0  0  0
  138.8940   73.0120  221.7300 C   0  0  0  0  0  0  0  0  0  0  0  0
  139.8420   72.1600  222.4600 C   0  0  0  0  0  0  0  0  0  0  0  0
  141.0670   72.4040  222.6030 O   0  0  0  0  0  0  0  0  0  0  0  0
  139.3470   70.9680  223.0560 N   0  0  0  0  0  0  0  0  0  0  0  0
  139.6620   69.6860  222.4890 C   0  0  0  0  0  0  0  0  0  0  0  0
  138.6470   68.6380  222.8060 C   0  0  0  0  0  0  0  0  0  0  0  0
  137.2690   69.1350  223.0740 C   0  0  0  0  0  0  0  0  0  0  0  0
  137.1770   70.3420  223.9520 C   0  0  0  0  0  0  0  0  0  0  0  0
  138.5100   70.9830  224.2490 C   0  0  1  0  0  0  0  0  0  0  0  0
  139.2630   70.3280  225.3390 C   0  0  0  0  0  0  0  0  0  0  0  0
  140.4270   70.7790  225.8770 C   0  0  0  0  0  0  0  0  0  0  0  0
  141.0990   70.1290  226.9010 C   0  0  0  0  0  0  0  0  0  0  0  0
  140.5720   68.9540  227.4190 C   0  0  0  0  0  0  0  0  0  0  0  0
  141.4180   68.1330  228.7110 Cl  0  0  0  0  0  0  0  0  0  0  0  0
  139.3920   68.4960  226.8760 C   0  0  0  0  0  0  0  0  0  0  0  0
  138.7300   69.1540  225.8520 C   0  0  0  0  0  0  0  0  0  0  0  0
  140.3210   76.5420  221.7780 C   0  0  0  0  0  0  0  0  0  0  0  0
  141.4500   77.1770  221.2960 C   0  0  0  0  0  0  0  0  0  0  0  0
  141.6930   78.5200  221.5350 C   0  0  0  0  0  0  0  0  0  0  0  0
  140.7380   79.1890  222.2860 C   0  0  0  0  0  0  0  0  0  0  0  0
  140.9420   80.5310  222.5490 C   0  0  0  0  0  0  0  0  0  0  0  0
  139.9910   81.2080  223.3010 C   0  0  0  0  0  0  0  0  0  0  0  0
  138.8670   80.5520  223.7750 C   0  0  0  0  0  0  0  0  0  0  0  0
  137.7290   81.4780  224.7070 Cl  0  0  0  0  0  0  0  0  0  0  0  0
  138.7110   79.2150  223.4850 C   0  0  0  0  0  0  0  0  0  0  0  0
  139.6360   78.5130  222.7420 C   0  0  0  0  0  0  0  0  0  0  0  0
  139.4230   77.2120  222.4970 N   0  0  0  0  0  0  0  0  0  0  0  0
  138.3450   74.8790  222.6810 H   0  0  0  0  0  0  0  0  0  0  0  0
  137.8712   72.6958  221.9830 H   0  0  0  0  0  0  0  0  0  0  0  0
  139.1047   72.8959  220.6566 H   0  0  0  0  0  0  0  0  0  0  0  0
  139.7247   69.7929  221.3960 H   0  0  0  0  0  0  0  0  0  0  0  0
  140.6167   69.3600  222.9274 H   0  0  0  0  0  0  0  0  0  0  0  0
  138.5969   67.9465  221.9520 H   0  0  0  0  0  0  0  0  0  0  0  0
  138.9836   68.1672  223.7414 H   0  0  0  0  0  0  0  0  0  0  0  0
  136.8048   69.3829  222.1081 H   0  0  0  0  0  0  0  0  0  0  0  0
  136.7582   68.3271  223.6185 H   0  0  0  0  0  0  0  0  0  0  0  0
  136.5382   71.0857  223.4531 H   0  0  0  0  0  0  0  0  0  0  0  0
  136.7616   70.0071  224.9139 H   0  0  0  0  0  0  0  0  0  0  0  0
  138.2764   72.0078  224.5732 H   0  0  0  0  0  0  0  0  0  0  0  0
  140.8588   71.7091  225.4788 H   0  0  0  0  0  0  0  0  0  0  0  0
  142.0389   70.5398  227.2983 H   0  0  0  0  0  0  0  0  0  0  0  0
  138.9561   67.5672  227.2726 H   0  0  0  0  0  0  0  0  0  0  0  0
  137.7899   68.7492  225.4491 H   0  0  0  0  0  0  0  0  0  0  0  0
  142.1766   76.5995  220.7056 H   0  0  0  0  0  0  0  0  0  0  0  0
  142.5911   79.0262  221.1514 H   0  0  0  0  0  0  0  0  0  0  0  0
  141.8357   81.0496  222.1718 H   0  0  0  0  0  0  0  0  0  0  0  0
  140.1318   82.2762  223.5225 H   0  0  0  0  0  0  0  0  0  0  0  0
  137.8193   78.6900  223.8583 H   0  0  0  0  0  0  0  0  0  0  0  0
  1  2  2  0
  2  3  1  0
  3  4  1  0
  4  5  1  0
  5  6  2  0
  5  7  1  0
  7  8  1  0
  8  9  1  0
  9 10  1  0
 10 11  1  0
 11 12  1  0
 12 13  1  0
 13 14  2  0
 14 15  1  0
 15 16  2  0
 16 17  1  0
 16 18  1  0
 18 19  2  0
  2 20  1  0
 20 21  2  0
 21 22  1  0
 22 23  2  0
 23 24  1  0
 24 25  2  0
 25 26  1  0
 26 27  1  0
 26 28  2  0
 28 29  1  0
 29 30  2  0
 12  7  1  0
 19 13  1  0
 30 20  1  0
 29 23  1  0
  3 31  1  0
  4 32  1  0
  4 33  1  0
  8 34  1  0
  8 35  1  0
  9 36  1  0
  9 37  1  0
 10 38  1  0
 10 39  1  0
 11 40  1  0
 11 41  1  0
 12 42  1  1
 14 43  1  0
 15 44  1  0
 18 45  1  0
 19 46  1  0
 21 47  1  0
 22 48  1  0
 24 49  1  0
 25 50  1  0
 28 51  1  0
M  END
>  <smiles>  (54) 
O=C(NCC(=O)N1CCCCC1c1ccc(Cl)cc1)c1ccc2ccc(Cl)cc2n1

>  <score_type>  (54) 
oracle

>  <origin>  (54) 
autodockgpu

>  <m_score__min__energy>  (54) 
-9.0199999999999996

>  <m_primary>  (54) 
energy

>  <rmsd>  (54) 
8.240289392071375

>  <m_score__min__rmsd>  (54) 
8.240289392071375

>  <meeko>  (54) 
{"free_energy": -8.47, "intermolecular_energy": -9.96, "internal_energy": -1.46, "cluster_size": 25, "cluster_id": 1, "rank_in_cluster": 16}

>  <energy>  (54) 
-8.93

>  <cluster_rmsd>  (54) 
0.47

>  <cluster>  (54) 
1

$$$$

     RDKit          3D

 51 54  0  0  0  0  0  0  0  0999 V2000
  140.4480   74.2480  220.9220 O   0  0  0  0  0  0  0  0  0  0  0  0
  139.5660   74.7410  221.6690 C   0  0  0  0  0  0  0  0  0  0  0  0
  138.5250   73.8650  222.0940 N   0  0  0  0  0  0  0  0  0  0  0  0
  138.5640   72.4930  221.6370 C   0  0  0  0  0  0  0  0  0  0  0  0
  139.5590   71.6820  222.3480 C   0  0  0  0  0  0  0  0  0  0  0  0
  140.7700   71.9890  222.4920 O   0  0  0  0  0  0  0  0  0  0  0  0
  139.1330   70.4530  222.9250 N   0  0  0  0  0  0  0  0  0  0  0  0
  139.5710   69.2010  222.3750 C   0  0  0  0  0  0  0  0  0  0  0  0
  138.6270   68.0770  222.6500 C   0  0  0  0  0  0  0  0  0  0  0  0
  137.2040   68.4660  222.8570 C   0  0  0  0  0  0  0  0  0  0  0  0
  136.9810   69.6600  223.7270 C   0  0  0  0  0  0  0  0  0  0  0  0
  138.2460   70.4020  224.0810 C   0  0  1  0  0  0  0  0  0  0  0  0
  138.9990   69.8060  225.2030 C   0  0  0  0  0  0  0  0  0  0  0  0
  138.8220   68.5520  225.6960 C   0  0  0  0  0  0  0  0  0  0  0  0
  139.5540   68.0340  226.7540 C   0  0  0  0  0  0  0  0  0  0  0  0
  140.5250   68.8220  227.3560 C   0  0  0  0  0  0  0  0  0  0  0  0
  141.4500   68.1710  228.6890 Cl  0  0  0  0  0  0  0  0  0  0  0  0
  140.7070   70.0930  226.8570 C   0  0  0  0  0  0  0  0  0  0  0  0
  139.9690   70.5990  225.8000 C   0  0  0  0  0  0  0  0  0  0  0  0
  139.5700   76.1360  222.1050 C   0  0  0  0  0  0  0  0  0  0  0  0
  138.3600   76.7930  222.2300 C   0  0  0  0  0  0  0  0  0  0  0  0
  138.2850   78.1150  222.6380 C   0  0  0  0  0  0  0  0  0  0  0  0
  139.4930   78.7390  222.9130 C   0  0  0  0  0  0  0  0  0  0  0  0
  139.4630   80.0600  223.3220 C   0  0  0  0  0  0  0  0  0  0  0  0
  140.6670   80.6920  223.5990 C   0  0  0  0  0  0  0  0  0  0  0  0
  141.8670   80.0140  223.4670 C   0  0  0  0  0  0  0  0  0  0  0  0
  143.3270   80.8840  223.8340 Cl  0  0  0  0  0  0  0  0  0  0  0  0
  141.8430   78.7000  223.0550 C   0  0  0  0  0  0  0  0  0  0  0  0
  140.6650   78.0430  222.7720 C   0  0  0  0  0  0  0  0  0  0  0  0
  140.7120   76.7630  222.3750 N   0  0  0  0  0  0  0  0  0  0  0  0
  137.7510   74.1860  222.7150 H   0  0  0  0  0  0  0  0  0  0  0  0
  137.5715   72.0440  221.7895 H   0  0  0  0  0  0  0  0  0  0  0  0
  138.8482   72.5071  220.5744 H   0  0  0  0  0  0  0  0  0  0  0  0
  139.6727   69.3139  221.2855 H   0  0  0  0  0  0  0  0  0  0  0  0
  140.5284   68.9495  222.8547 H   0  0  0  0  0  0  0  0  0  0  0  0
  138.6676   67.3847  221.7961 H   0  0  0  0  0  0  0  0  0  0  0  0
  138.9581   67.6324  223.6001 H   0  0  0  0  0  0  0  0  0  0  0  0
  136.7645   68.6787  221.8713 H   0  0  0  0  0  0  0  0  0  0  0  0
  136.7340   67.6204  223.3805 H   0  0  0  0  0  0  0  0  0  0  0  0
  136.3091   70.3528  223.1992 H   0  0  0  0  0  0  0  0  0  0  0  0
  136.5513   69.2924  224.6705 H   0  0  0  0  0  0  0  0  0  0  0  0
  137.9199   71.4051  224.3932 H   0  0  0  0  0  0  0  0  0  0  0  0
  138.0568   67.9133  225.2307 H   0  0  0  0  0  0  0  0  0  0  0  0
  139.3672   67.0107  227.1118 H   0  0  0  0  0  0  0  0  0  0  0  0
  141.4723   70.7344  227.3185 H   0  0  0  0  0  0  0  0  0  0  0  0
  140.1502   71.6213  225.4365 H   0  0  0  0  0  0  0  0  0  0  0  0
  137.4310   76.2511  221.9991 H   0  0  0  0  0  0  0  0  0  0  0  0
  137.3232   78.6394  222.7381 H   0  0  0  0  0  0  0  0  0  0  0  0
  138.5082   80.5964  223.4252 H   0  0  0  0  0  0  0  0  0  0  0  0
  140.6680   81.7421  223.9267 H   0  0  0  0  0  0  0  0  0  0  0  0
  142.7941   78.1578  222.9484 H   0  0  0  0  0  0  0  0  0  0  0  0
  1  2  2  0
  2  3  1  0
  3  4  1  0
  4  5  1  0
  5  6  2  0
  5  7  1  0
  7  8  1  0
  8  9  1  0
  9 10  1  0
 10 11  1  0
 11 12  1  0
 12 13  1  0
 13 14  2  0
 14 15  1  0
 15 16  2  0
 16 17  1  0
 16 18  1  0
 18 19  2  0
  2 20  1  0
 20 21  2  0
 21 22  1  0
 22 23  2  0
 23 24  1  0
 24 25  2  0
 25 26  1  0
 26 27  1  0
 26 28  2  0
 28 29  1  0
 29 30  2  0
 12  7  1  0
 19 13  1  0
 30 20  1  0
 29 23  1  0
  3 31  1  0
  4 32  1  0
  4 33  1  0
  8 34  1  0
  8 35  1  0
  9 36  1  0
  9 37  1  0
 10 38  1  0
 10 39  1  0
 11 40  1  0
 11 41  1  0
 12 42  1  1
 14 43  1  0
 15 44  1  0
 18 45  1  0
 19 46  1  0
 21 47  1  0
 22 48  1  0
 24 49  1  0
 25 50  1  0
 28 51  1  0
M  END
>  <smiles>  (55) 
O=C(NCC(=O)N1CCCCC1c1ccc(Cl)cc1)c1ccc2ccc(Cl)cc2n1

>  <score_type>  (55) 
oracle

>  <origin>  (55) 
autodockgpu

>  <m_score__min__energy>  (55) 
-9.0199999999999996

>  <m_primary>  (55) 
energy

>  <rmsd>  (55) 
8.044174235856218

>  <m_score__min__rmsd>  (55) 
8.044174235856218

>  <meeko>  (55) 
{"free_energy": -9.01, "intermolecular_energy": -10.5, "internal_energy": -1.25, "cluster_size": 25, "cluster_id": 1, "rank_in_cluster": 2}

>  <energy>  (55) 
-8.88

>  <cluster_rmsd>  (55) 
0.45

>  <cluster>  (55) 
1

$$$$

     RDKit          3D

 51 54  0  0  0  0  0  0  0  0999 V2000
  140.9540   74.4900  220.6940 O   0  0  0  0  0  0  0  0  0  0  0  0
  140.1820   75.1160  221.4630 C   0  0  0  0  0  0  0  0  0  0  0  0
  139.1190   74.3680  222.0510 N   0  0  0  0  0  0  0  0  0  0  0  0
  139.0140   72.9630  221.7200 C   0  0  0  0  0  0  0  0  0  0  0  0
  139.8640   72.1130  222.5620 C   0  0  0  0  0  0  0  0  0  0  0  0
  141.0650   72.3530  222.8500 O   0  0  0  0  0  0  0  0  0  0  0  0
  139.2980   70.9250  223.1010 N   0  0  0  0  0  0  0  0  0  0  0  0
  139.5680   69.6510  222.4950 C   0  0  0  0  0  0  0  0  0  0  0  0
  138.4970   68.6420  222.7470 C   0  0  0  0  0  0  0  0  0  0  0  0
  137.1360   69.1950  222.9980 C   0  0  0  0  0  0  0  0  0  0  0  0
  137.0770   70.3720  223.9170 C   0  0  0  0  0  0  0  0  0  0  0  0
  138.4300   70.9370  224.2720 C   0  0  1  0  0  0  0  0  0  0  0  0
  139.1210   70.2090  225.3550 C   0  0  0  0  0  0  0  0  0  0  0  0
  138.8140   68.9560  225.7850 C   0  0  0  0  0  0  0  0  0  0  0  0
  139.4920   68.3100  226.8080 C   0  0  0  0  0  0  0  0  0  0  0  0
  140.5440   68.9590  227.4400 C   0  0  0  0  0  0  0  0  0  0  0  0
  141.4000   68.1460  228.7290 Cl  0  0  0  0  0  0  0  0  0  0  0  0
  140.8570   70.2280  227.0040 C   0  0  0  0  0  0  0  0  0  0  0  0
  140.1720   70.8630  225.9820 C   0  0  0  0  0  0  0  0  0  0  0  0
  140.3280   76.5370  221.7660 C   0  0  0  0  0  0  0  0  0  0  0  0
  141.4260   77.2110  221.2640 C   0  0  0  0  0  0  0  0  0  0  0  0
  141.6320   78.5590  221.5100 C   0  0  0  0  0  0  0  0  0  0  0  0
  140.6740   79.1910  222.2890 C   0  0  0  0  0  0  0  0  0  0  0  0
  140.8420   80.5370  222.5590 C   0  0  0  0  0  0  0  0  0  0  0  0
  139.8870   81.1770  223.3380 C   0  0  0  0  0  0  0  0  0  0  0  0
  138.7960   80.4820  223.8310 C   0  0  0  0  0  0  0  0  0  0  0  0
  137.6500   81.3640  224.7970 Cl  0  0  0  0  0  0  0  0  0  0  0  0
  138.6750   79.1430  223.5330 C   0  0  0  0  0  0  0  0  0  0  0  0
  139.6040   78.4770  222.7630 C   0  0  0  0  0  0  0  0  0  0  0  0
  139.4270   77.1720  222.5110 N   0  0  0  0  0  0  0  0  0  0  0  0
  138.4300   74.8040  222.7010 H   0  0  0  0  0  0  0  0  0  0  0  0
  137.9675   72.6494  221.8481 H   0  0  0  0  0  0  0  0  0  0  0  0
  139.3530   72.8424  220.6805 H   0  0  0  0  0  0  0  0  0  0  0  0
  139.6652   69.7940  221.4087 H   0  0  0  0  0  0  0  0  0  0  0  0
  140.4943   69.2643  222.9450 H   0  0  0  0  0  0  0  0  0  0  0  0
  138.4379   67.9845  221.8671 H   0  0  0  0  0  0  0  0  0  0  0  0
  138.7856   68.1224  223.6726 H   0  0  0  0  0  0  0  0  0  0  0  0
  136.7106   69.4994  222.0304 H   0  0  0  0  0  0  0  0  0  0  0  0
  136.5730   68.3935  223.4987 H   0  0  0  0  0  0  0  0  0  0  0  0
  136.4880   71.1630  223.4298 H   0  0  0  0  0  0  0  0  0  0  0  0
  136.6199   70.0231  224.8548 H   0  0  0  0  0  0  0  0  0  0  0  0
  138.2355   71.9594  224.6283 H   0  0  0  0  0  0  0  0  0  0  0  0
  137.9835   68.4265  225.2953 H   0  0  0  0  0  0  0  0  0  0  0  0
  139.1996   67.2950  227.1151 H   0  0  0  0  0  0  0  0  0  0  0  0
  141.6882   70.7604  227.4895 H   0  0  0  0  0  0  0  0  0  0  0  0
  140.4587   71.8780  225.6695 H   0  0  0  0  0  0  0  0  0  0  0  0
  142.1566   76.6616  220.6521 H   0  0  0  0  0  0  0  0  0  0  0  0
  142.5046   79.0967  221.1107 H   0  0  0  0  0  0  0  0  0  0  0  0
  141.7102   81.0867  222.1666 H   0  0  0  0  0  0  0  0  0  0  0  0
  139.9986   82.2474  223.5657 H   0  0  0  0  0  0  0  0  0  0  0  0
  137.8091   78.5872  223.9220 H   0  0  0  0  0  0  0  0  0  0  0  0
  1  2  2  0
  2  3  1  0
  3  4  1  0
  4  5  1  0
  5  6  2  0
  5  7  1  0
  7  8  1  0
  8  9  1  0
  9 10  1  0
 10 11  1  0
 11 12  1  0
 12 13  1  0
 13 14  2  0
 14 15  1  0
 15 16  2  0
 16 17  1  0
 16 18  1  0
 18 19  2  0
  2 20  1  0
 20 21  2  0
 21 22  1  0
 22 23  2  0
 23 24  1  0
 24 25  2  0
 25 26  1  0
 26 27  1  0
 26 28  2  0
 28 29  1  0
 29 30  2  0
 12  7  1  0
 19 13  1  0
 30 20  1  0
 29 23  1  0
  3 31  1  0
  4 32  1  0
  4 33  1  0
  8 34  1  0
  8 35  1  0
  9 36  1  0
  9 37  1  0
 10 38  1  0
 10 39  1  0
 11 40  1  0
 11 41  1  0
 12 42  1  1
 14 43  1  0
 15 44  1  0
 18 45  1  0
 19 46  1  0
 21 47  1  0
 22 48  1  0
 24 49  1  0
 25 50  1  0
 28 51  1  0
M  END
>  <smiles>  (56) 
O=C(NCC(=O)N1CCCCC1c1ccc(Cl)cc1)c1ccc2ccc(Cl)cc2n1

>  <score_type>  (56) 
oracle

>  <origin>  (56) 
autodockgpu

>  <m_score__min__energy>  (56) 
-9.0199999999999996

>  <m_primary>  (56) 
energy

>  <rmsd>  (56) 
8.245361248392019

>  <m_score__min__rmsd>  (56) 
8.245361248392019

>  <meeko>  (56) 
{"free_energy": -8.6, "intermolecular_energy": -10.09, "internal_energy": -1.5, "cluster_size": 25, "cluster_id": 1, "rank_in_cluster": 11}

>  <energy>  (56) 
-8.82

>  <cluster_rmsd>  (56) 
0.32

>  <cluster>  (56) 
1

$$$$

     RDKit          3D

 51 54  0  0  0  0  0  0  0  0999 V2000
  137.6830   75.1900  222.3770 O   0  0  0  0  0  0  0  0  0  0  0  0
  138.9070   75.4080  222.1950 C   0  0  0  0  0  0  0  0  0  0  0  0
  139.3670   76.7320  222.4570 N   0  0  0  0  0  0  0  0  0  0  0  0
  138.4000   77.7100  222.9070 C   0  0  0  0  0  0  0  0  0  0  0  0
  138.9100   79.0860  222.8490 C   0  0  0  0  0  0  0  0  0  0  0  0
  138.2400   80.1150  223.1180 O   0  0  0  0  0  0  0  0  0  0  0  0
  140.2640   79.2820  222.4610 N   0  0  0  0  0  0  0  0  0  0  0  0
  141.3330   78.7330  223.2490 C   0  0  0  0  0  0  0  0  0  0  0  0
  142.6150   79.4830  223.1020 C   0  0  0  0  0  0  0  0  0  0  0  0
  142.4840   80.9190  222.7270 C   0  0  0  0  0  0  0  0  0  0  0  0
  141.4910   81.2160  221.6510 C   0  0  0  0  0  0  0  0  0  0  0  0
  140.6320   80.0360  221.2690 C   0  0  1  0  0  0  0  0  0  0  0  0
  141.2780   79.1020  220.3240 C   0  0  0  0  0  0  0  0  0  0  0  0
  141.2170   77.7460  220.3880 C   0  0  0  0  0  0  0  0  0  0  0  0
  141.8420   76.9080  219.4760 C   0  0  0  0  0  0  0  0  0  0  0  0
  142.5720   77.4630  218.4350 C   0  0  0  0  0  0  0  0  0  0  0  0
  143.3600   76.4090  217.2840 Cl  0  0  0  0  0  0  0  0  0  0  0  0
  142.6340   78.8380  218.3680 C   0  0  0  0  0  0  0  0  0  0  0  0
  142.0060   79.6640  219.2860 C   0  0  0  0  0  0  0  0  0  0  0  0
  139.8460   74.3860  221.7390 C   0  0  0  0  0  0  0  0  0  0  0  0
  139.3800   73.0990  221.5470 C   0  0  0  0  0  0  0  0  0  0  0  0
  140.2120   72.0780  221.1160 C   0  0  0  0  0  0  0  0  0  0  0  0
  141.5360   72.4220  220.8890 C   0  0  0  0  0  0  0  0  0  0  0  0
  142.4000   71.4320  220.4580 C   0  0  0  0  0  0  0  0  0  0  0  0
  143.7280   71.7690  220.2290 C   0  0  0  0  0  0  0  0  0  0  0  0
  144.1720   73.0650  220.4280 C   0  0  0  0  0  0  0  0  0  0  0  0
  145.8500   73.3970  220.1170 Cl  0  0  0  0  0  0  0  0  0  0  0  0
  143.2710   74.0150  220.8580 C   0  0  0  0  0  0  0  0  0  0  0  0
  141.9470   73.7140  221.0950 C   0  0  0  0  0  0  0  0  0  0  0  0
  141.1230   74.6850  221.5130 N   0  0  0  0  0  0  0  0  0  0  0  0
  140.3660   77.0050  222.3330 H   0  0  0  0  0  0  0  0  0  0  0  0
  137.5066   77.6396  222.2691 H   0  0  0  0  0  0  0  0  0  0  0  0
  138.1700   77.4871  223.9593 H   0  0  0  0  0  0  0  0  0  0  0  0
  141.0343   78.7548  224.3074 H   0  0  0  0  0  0  0  0  0  0  0  0
  141.5104   77.7079  222.8915 H   0  0  0  0  0  0  0  0  0  0  0  0
  143.1485   79.4319  224.0626 H   0  0  0  0  0  0  0  0  0  0  0  0
  143.1494   79.0031  222.2689 H   0  0  0  0  0  0  0  0  0  0  0  0
  142.1862   81.4781  223.6263 H   0  0  0  0  0  0  0  0  0  0  0  0
  143.4634   81.2158  222.3236 H   0  0  0  0  0  0  0  0  0  0  0  0
  140.8326   82.0248  222.0010 H   0  0  0  0  0  0  0  0  0  0  0  0
  142.0650   81.4962  220.7554 H   0  0  0  0  0  0  0  0  0  0  0  0
  139.7525   80.4644  220.7660 H   0  0  0  0  0  0  0  0  0  0  0  0
  140.6416   77.2885  221.2063 H   0  0  0  0  0  0  0  0  0  0  0  0
  141.7597   75.8158  219.5771 H   0  0  0  0  0  0  0  0  0  0  0  0
  143.2069   79.2997  217.5503 H   0  0  0  0  0  0  0  0  0  0  0  0
  142.0842   80.7572  219.1923 H   0  0  0  0  0  0  0  0  0  0  0  0
  138.3199   72.8792  221.7416 H   0  0  0  0  0  0  0  0  0  0  0  0
  139.8432   71.0531  220.9627 H   0  0  0  0  0  0  0  0  0  0  0  0
  142.0444   70.4031  220.3004 H   0  0  0  0  0  0  0  0  0  0  0  0
  144.4339   70.9983  219.8861 H   0  0  0  0  0  0  0  0  0  0  0  0
  143.6195   75.0461  221.0171 H   0  0  0  0  0  0  0  0  0  0  0  0
  1  2  2  0
  2  3  1  0
  3  4  1  0
  4  5  1  0
  5  6  2  0
  5  7  1  0
  7  8  1  0
  8  9  1  0
  9 10  1  0
 10 11  1  0
 11 12  1  0
 12 13  1  0
 13 14  2  0
 14 15  1  0
 15 16  2  0
 16 17  1  0
 16 18  1  0
 18 19  2  0
  2 20  1  0
 20 21  2  0
 21 22  1  0
 22 23  2  0
 23 24  1  0
 24 25  2  0
 25 26  1  0
 26 27  1  0
 26 28  2  0
 28 29  1  0
 29 30  2  0
 12  7  1  0
 19 13  1  0
 30 20  1  0
 29 23  1  0
  3 31  1  0
  4 32  1  0
  4 33  1  0
  8 34  1  0
  8 35  1  0
  9 36  1  0
  9 37  1  0
 10 38  1  0
 10 39  1  0
 11 40  1  0
 11 41  1  0
 12 42  1  6
 14 43  1  0
 15 44  1  0
 18 45  1  0
 19 46  1  0
 21 47  1  0
 22 48  1  0
 24 49  1  0
 25 50  1  0
 28 51  1  0
M  END
>  <smiles>  (57) 
O=C(NCC(=O)N1CCCCC1c1ccc(Cl)cc1)c1ccc2ccc(Cl)cc2n1

>  <score_type>  (57) 
oracle

>  <origin>  (57) 
autodockgpu

>  <m_score__min__energy>  (57) 
-9.0199999999999996

>  <m_primary>  (57) 
energy

>  <rmsd>  (57) 
5.792644192763706

>  <m_score__min__rmsd>  (57) 
5.792644192763706

>  <meeko>  (57) 
{"free_energy": -7.1, "intermolecular_energy": -8.59, "internal_energy": -2.38, "cluster_size": 3, "cluster_id": 7, "rank_in_cluster": 3}

>  <energy>  (57) 
-8.77

>  <cluster_rmsd>  (57) 
0.46

>  <cluster>  (57) 
1

$$$$

     RDKit          3D

 51 54  0  0  0  0  0  0  0  0999 V2000
  140.7040   73.3810  222.6760 O   0  0  0  0  0  0  0  0  0  0  0  0
  139.8170   72.5200  222.4520 C   0  0  0  0  0  0  0  0  0  0  0  0
  138.9210   72.7890  221.3760 N   0  0  0  0  0  0  0  0  0  0  0  0
  139.1010   74.0190  220.6350 C   0  0  0  0  0  0  0  0  0  0  0  0
  138.6560   75.2040  221.3790 C   0  0  0  0  0  0  0  0  0  0  0  0
  137.9310   75.1810  222.4060 O   0  0  0  0  0  0  0  0  0  0  0  0
  139.0730   76.4820  220.9120 N   0  0  0  0  0  0  0  0  0  0  0  0
  138.1420   77.5740  220.8540 C   0  0  0  0  0  0  0  0  0  0  0  0
  138.5070   78.6030  219.8360 C   0  0  0  0  0  0  0  0  0  0  0  0
  139.3190   78.1130  218.6860 C   0  0  0  0  0  0  0  0  0  0  0  0
  140.4430   77.1930  219.0360 C   0  0  0  0  0  0  0  0  0  0  0  0
  140.4390   76.7440  220.4770 C   0  0  1  0  0  0  0  0  0  0  0  0
  141.0330   77.7200  221.4130 C   0  0  0  0  0  0  0  0  0  0  0  0
  141.0310   77.6180  222.7680 C   0  0  0  0  0  0  0  0  0  0  0  0
  141.6020   78.5620  223.6080 C   0  0  0  0  0  0  0  0  0  0  0  0
  142.2160   79.6780  223.0560 C   0  0  0  0  0  0  0  0  0  0  0  0
  142.9370   80.8680  224.1140 Cl  0  0  0  0  0  0  0  0  0  0  0  0
  142.2200   79.7820  221.6830 C   0  0  0  0  0  0  0  0  0  0  0  0
  141.6450   78.8330  220.8540 C   0  0  0  0  0  0  0  0  0  0  0  0
  139.6750   71.2910  223.2290 C   0  0  0  0  0  0  0  0  0  0  0  0
  138.9740   70.2360  222.6760 C   0  0  0  0  0  0  0  0  0  0  0  0
  138.7980   69.0400  223.3530 C   0  0  0  0  0  0  0  0  0  0  0  0
  139.3660   68.9630  224.6170 C   0  0  0  0  0  0  0  0  0  0  0  0
  139.2130   67.7870  225.3270 C   0  0  0  0  0  0  0  0  0  0  0  0
  139.7790   67.7030  226.5920 C   0  0  0  0  0  0  0  0  0  0  0  0
  140.4760   68.7730  227.1270 C   0  0  0  0  0  0  0  0  0  0  0  0
  141.1500   68.5790  228.7180 Cl  0  0  0  0  0  0  0  0  0  0  0  0
  140.6000   69.9230  226.3780 C   0  0  0  0  0  0  0  0  0  0  0  0
  140.0510   70.0390  225.1190 C   0  0  0  0  0  0  0  0  0  0  0  0
  140.2070   71.1870  224.4440 N   0  0  0  0  0  0  0  0  0  0  0  0
  138.1540   72.1320  221.1160 H   0  0  0  0  0  0  0  0  0  0  0  0
  140.1692   74.1334  220.3988 H   0  0  0  0  0  0  0  0  0  0  0  0
  138.4861   73.9498  219.7256 H   0  0  0  0  0  0  0  0  0  0  0  0
  137.1480   77.1735  220.6058 H   0  0  0  0  0  0  0  0  0  0  0  0
  138.1543   78.0673  221.8371 H   0  0  0  0  0  0  0  0  0  0  0  0
  137.5749   79.0278  219.4352 H   0  0  0  0  0  0  0  0  0  0  0  0
  139.1398   79.3337  220.3609 H   0  0  0  0  0  0  0  0  0  0  0  0
  138.6457   77.5791  217.9992 H   0  0  0  0  0  0  0  0  0  0  0  0
  139.7865   79.0058  218.2452 H   0  0  0  0  0  0  0  0  0  0  0  0
  140.3735   76.3016  218.3952 H   0  0  0  0  0  0  0  0  0  0  0  0
  141.3760   77.7541  218.8787 H   0  0  0  0  0  0  0  0  0  0  0  0
  141.0598   75.8363  220.5033 H   0  0  0  0  0  0  0  0  0  0  0  0
  140.5506   76.7393  223.2230 H   0  0  0  0  0  0  0  0  0  0  0  0
  141.5688   78.4281  224.6993 H   0  0  0  0  0  0  0  0  0  0  0  0
  142.7014   80.6580  221.2239 H   0  0  0  0  0  0  0  0  0  0  0  0
  141.6732   78.9605  219.7618 H   0  0  0  0  0  0  0  0  0  0  0  0
  138.5437   70.3491  221.6700 H   0  0  0  0  0  0  0  0  0  0  0  0
  138.2401   68.1998  222.9139 H   0  0  0  0  0  0  0  0  0  0  0  0
  138.6569   66.9391  224.9006 H   0  0  0  0  0  0  0  0  0  0  0  0
  139.6726   66.7765  227.1754 H   0  0  0  0  0  0  0  0  0  0  0  0
  141.1545   70.7751  226.7980 H   0  0  0  0  0  0  0  0  0  0  0  0
  1  2  2  0
  2  3  1  0
  3  4  1  0
  4  5  1  0
  5  6  2  0
  5  7  1  0
  7  8  1  0
  8  9  1  0
  9 10  1  0
 10 11  1  0
 11 12  1  0
 12 13  1  0
 13 14  2  0
 14 15  1  0
 15 16  2  0
 16 17  1  0
 16 18  1  0
 18 19  2  0
  2 20  1  0
 20 21  2  0
 21 22  1  0
 22 23  2  0
 23 24  1  0
 24 25  2  0
 25 26  1  0
 26 27  1  0
 26 28  2  0
 28 29  1  0
 29 30  2  0
 12  7  1  0
 19 13  1  0
 30 20  1  0
 29 23  1  0
  3 31  1  0
  4 32  1  0
  4 33  1  0
  8 34  1  0
  8 35  1  0
  9 36  1  0
  9 37  1  0
 10 38  1  0
 10 39  1  0
 11 40  1  0
 11 41  1  0
 12 42  1  6
 14 43  1  0
 15 44  1  0
 18 45  1  0
 19 46  1  0
 21 47  1  0
 22 48  1  0
 24 49  1  0
 25 50  1  0
 28 51  1  0
M  END
>  <smiles>  (58) 
O=C(NCC(=O)N1CCCCC1c1ccc(Cl)cc1)c1ccc2ccc(Cl)cc2n1

>  <score_type>  (58) 
oracle

>  <origin>  (58) 
autodockgpu

>  <m_score__min__energy>  (58) 
-9.0199999999999996

>  <m_primary>  (58) 
energy

>  <rmsd>  (58) 
2.2440952823942326

>  <m_score__min__rmsd>  (58) 
2.2440952823942326

>  <meeko>  (58) 
{"free_energy": -8.22, "intermolecular_energy": -9.71, "internal_energy": -1.47, "cluster_size": 3, "cluster_id": 3, "rank_in_cluster": 3}

>  <energy>  (58) 
-8.77

>  <cluster_rmsd>  (58) 
0.62

>  <cluster>  (58) 
1

$$$$

     RDKit          3D

 51 54  0  0  0  0  0  0  0  0999 V2000
  138.6850   74.8140  220.1470 O   0  0  0  0  0  0  0  0  0  0  0  0
  138.9980   75.0380  221.3430 C   0  0  0  0  0  0  0  0  0  0  0  0
  139.3080   73.9020  222.1470 N   0  0  0  0  0  0  0  0  0  0  0  0
  139.2390   72.5950  221.5300 C   0  0  0  0  0  0  0  0  0  0  0  0
  140.0320   71.5840  222.2420 C   0  0  0  0  0  0  0  0  0  0  0  0
  141.2890   71.5410  222.2680 O   0  0  0  0  0  0  0  0  0  0  0  0
  139.3370   70.5730  222.9610 N   0  0  0  0  0  0  0  0  0  0  0  0
  139.3540   69.2120  222.5030 C   0  0  0  0  0  0  0  0  0  0  0  0
  138.1650   68.4280  222.9490 C   0  0  0  0  0  0  0  0  0  0  0  0
  136.9330   69.2200  223.2180 C   0  0  0  0  0  0  0  0  0  0  0  0
  137.1350   70.4870  223.9840 C   0  0  0  0  0  0  0  0  0  0  0  0
  138.5840   70.8600  224.1760 C   0  0  1  0  0  0  0  0  0  0  0  0
  139.2440   70.1560  225.2940 C   0  0  0  0  0  0  0  0  0  0  0  0
  138.8360   68.9770  225.8360 C   0  0  0  0  0  0  0  0  0  0  0  0
  139.4880   68.3510  226.8870 C   0  0  0  0  0  0  0  0  0  0  0  0
  140.6210   68.9420  227.4300 C   0  0  0  0  0  0  0  0  0  0  0  0
  141.4460   68.1540  228.7550 Cl  0  0  0  0  0  0  0  0  0  0  0  0
  141.0370   70.1360  226.8810 C   0  0  0  0  0  0  0  0  0  0  0  0
  140.3760   70.7510  225.8320 C   0  0  0  0  0  0  0  0  0  0  0  0
  139.0540   76.3780  221.9220 C   0  0  0  0  0  0  0  0  0  0  0  0
  137.8660   77.0270  222.2030 C   0  0  0  0  0  0  0  0  0  0  0  0
  137.8400   78.2990  222.7520 C   0  0  0  0  0  0  0  0  0  0  0  0
  139.0740   78.8820  223.0030 C   0  0  0  0  0  0  0  0  0  0  0  0
  139.0930   80.1510  223.5500 C   0  0  0  0  0  0  0  0  0  0  0  0
  140.3240   80.7420  223.8030 C   0  0  0  0  0  0  0  0  0  0  0  0
  141.5010   80.0730  223.5130 C   0  0  0  0  0  0  0  0  0  0  0  0
  142.9970   80.8880  223.8620 Cl  0  0  0  0  0  0  0  0  0  0  0  0
  141.4280   78.8100  222.9680 C   0  0  0  0  0  0  0  0  0  0  0  0
  140.2220   78.1960  222.7040 C   0  0  0  0  0  0  0  0  0  0  0  0
  140.2210   76.9650  222.1720 N   0  0  0  0  0  0  0  0  0  0  0  0
  139.5790   73.9910  223.1510 H   0  0  0  0  0  0  0  0  0  0  0  0
  138.1884   72.2695  221.5139 H   0  0  0  0  0  0  0  0  0  0  0  0
  139.6549   72.6865  220.5158 H   0  0  0  0  0  0  0  0  0  0  0  0
  139.3798   69.2132  221.4033 H   0  0  0  0  0  0  0  0  0  0  0  0
  140.2440   68.7319  222.9360 H   0  0  0  0  0  0  0  0  0  0  0  0
  137.9303   67.6941  222.1640 H   0  0  0  0  0  0  0  0  0  0  0  0
  138.4474   67.9767  223.9116 H   0  0  0  0  0  0  0  0  0  0  0  0
  136.4786   69.4783  222.2501 H   0  0  0  0  0  0  0  0  0  0  0  0
  136.2979   68.5832  223.8513 H   0  0  0  0  0  0  0  0  0  0  0  0
  136.6361   71.3033  223.4412 H   0  0  0  0  0  0  0  0  0  0  0  0
  136.7110   70.3257  224.9861 H   0  0  0  0  0  0  0  0  0  0  0  0
  138.5807   71.9340  224.4135 H   0  0  0  0  0  0  0  0  0  0  0  0
  137.9404   68.4943  225.4178 H   0  0  0  0  0  0  0  0  0  0  0  0
  139.1122   67.3973  227.2861 H   0  0  0  0  0  0  0  0  0  0  0  0
  141.9334   70.6212  227.2946 H   0  0  0  0  0  0  0  0  0  0  0  0
  140.7456   71.7049  225.4276 H   0  0  0  0  0  0  0  0  0  0  0  0
  136.9149   76.5194  221.9847 H   0  0  0  0  0  0  0  0  0  0  0  0
  136.8957   78.8168  222.9759 H   0  0  0  0  0  0  0  0  0  0  0  0
  138.1562   80.6799  223.7793 H   0  0  0  0  0  0  0  0  0  0  0  0
  140.3643   81.7515  224.2380 H   0  0  0  0  0  0  0  0  0  0  0  0
  142.3606   78.2747  222.7363 H   0  0  0  0  0  0  0  0  0  0  0  0
  1  2  2  0
  2  3  1  0
  3  4  1  0
  4  5  1  0
  5  6  2  0
  5  7  1  0
  7  8  1  0
  8  9  1  0
  9 10  1  0
 10 11  1  0
 11 12  1  0
 12 13  1  0
 13 14  2  0
 14 15  1  0
 15 16  2  0
 16 17  1  0
 16 18  1  0
 18 19  2  0
  2 20  1  0
 20 21  2  0
 21 22  1  0
 22 23  2  0
 23 24  1  0
 24 25  2  0
 25 26  1  0
 26 27  1  0
 26 28  2  0
 28 29  1  0
 29 30  2  0
 12  7  1  0
 19 13  1  0
 30 20  1  0
 29 23  1  0
  3 31  1  0
  4 32  1  0
  4 33  1  0
  8 34  1  0
  8 35  1  0
  9 36  1  0
  9 37  1  0
 10 38  1  0
 10 39  1  0
 11 40  1  0
 11 41  1  0
 12 42  1  1
 14 43  1  0
 15 44  1  0
 18 45  1  0
 19 46  1  0
 21 47  1  0
 22 48  1  0
 24 49  1  0
 25 50  1  0
 28 51  1  0
M  END
>  <smiles>  (59) 
O=C(NCC(=O)N1CCCCC1c1ccc(Cl)cc1)c1ccc2ccc(Cl)cc2n1

>  <score_type>  (59) 
oracle

>  <origin>  (59) 
autodockgpu

>  <m_score__min__energy>  (59) 
-9.0199999999999996

>  <m_primary>  (59) 
energy

>  <rmsd>  (59) 
8.023997056943015

>  <m_score__min__rmsd>  (59) 
8.023997056943015

>  <meeko>  (59) 
{"free_energy": -8.77, "intermolecular_energy": -10.26, "internal_energy": -1.24, "cluster_size": 25, "cluster_id": 1, "rank_in_cluster": 8}

>  <energy>  (59) 
-8.63

>  <cluster_rmsd>  (59) 
1.28

>  <cluster>  (59) 
1

$$$$

     RDKit          3D

 51 54  0  0  0  0  0  0  0  0999 V2000
  140.6300   73.5620  220.7090 O   0  0  0  0  0  0  0  0  0  0  0  0
  139.9140   73.5100  221.7400 C   0  0  0  0  0  0  0  0  0  0  0  0
  139.2270   74.7070  222.1030 N   0  0  0  0  0  0  0  0  0  0  0  0
  139.4080   75.8730  221.2650 C   0  0  0  0  0  0  0  0  0  0  0  0
  140.7450   76.4660  221.3910 C   0  0  0  0  0  0  0  0  0  0  0  0
  141.8260   75.8500  221.2120 O   0  0  0  0  0  0  0  0  0  0  0  0
  140.8360   77.8410  221.7410 N   0  0  0  0  0  0  0  0  0  0  0  0
  140.9470   78.8450  220.7200 C   0  0  0  0  0  0  0  0  0  0  0  0
  141.6200   80.0910  221.1920 C   0  0  0  0  0  0  0  0  0  0  0  0
  142.5710   79.9210  222.3260 C   0  0  0  0  0  0  0  0  0  0  0  0
  142.1010   79.0370  223.4360 C   0  0  0  0  0  0  0  0  0  0  0  0
  140.8240   78.2950  223.1260 C   0  0  1  0  0  0  0  0  0  0  0  0
  139.5990   79.0940  223.3300 C   0  0  0  0  0  0  0  0  0  0  0  0
  139.5480   80.3330  223.8870 C   0  0  0  0  0  0  0  0  0  0  0  0
  138.3710   81.0470  224.0590 C   0  0  0  0  0  0  0  0  0  0  0  0
  137.1710   80.4860  223.6460 C   0  0  0  0  0  0  0  0  0  0  0  0
  135.6870   81.3850  223.8600 Cl  0  0  0  0  0  0  0  0  0  0  0  0
  137.2220   79.2300  223.0800 C   0  0  0  0  0  0  0  0  0  0  0  0
  138.4030   78.5270  222.9140 C   0  0  0  0  0  0  0  0  0  0  0  0
  139.7630   72.3080  222.5550 C   0  0  0  0  0  0  0  0  0  0  0  0
  139.1050   71.2200  222.0130 C   0  0  0  0  0  0  0  0  0  0  0  0
  138.9240   70.0450  222.7260 C   0  0  0  0  0  0  0  0  0  0  0  0
  139.4400   70.0250  224.0130 C   0  0  0  0  0  0  0  0  0  0  0  0
  139.2810   68.8720  224.7590 C   0  0  0  0  0  0  0  0  0  0  0  0
  139.7950   68.8450  226.0490 C   0  0  0  0  0  0  0  0  0  0  0  0
  140.4500   69.9470  226.5720 C   0  0  0  0  0  0  0  0  0  0  0  0
  141.0610   69.8240  228.1950 Cl  0  0  0  0  0  0  0  0  0  0  0  0
  140.5820   71.0710  225.7870 C   0  0  0  0  0  0  0  0  0  0  0  0
  140.0830   71.1320  224.5040 C   0  0  0  0  0  0  0  0  0  0  0  0
  140.2460   72.2580  223.7940 N   0  0  0  0  0  0  0  0  0  0  0  0
  138.6100   74.7580  222.9420 H   0  0  0  0  0  0  0  0  0  0  0  0
  139.2519   75.5792  220.2165 H   0  0  0  0  0  0  0  0  0  0  0  0
  138.6795   76.6299  221.5912 H   0  0  0  0  0  0  0  0  0  0  0  0
  141.5273   78.4298  219.8828 H   0  0  0  0  0  0  0  0  0  0  0  0
  139.9253   79.1192  220.4184 H   0  0  0  0  0  0  0  0  0  0  0  0
  142.1773   80.5162  220.3443 H   0  0  0  0  0  0  0  0  0  0  0  0
  140.8170   80.7415  221.5687 H   0  0  0  0  0  0  0  0  0  0  0  0
  143.5027   79.4949  221.9254 H   0  0  0  0  0  0  0  0  0  0  0  0
  142.6934   80.9206  222.7686 H   0  0  0  0  0  0  0  0  0  0  0  0
  142.8882   78.2985  223.6480 H   0  0  0  0  0  0  0  0  0  0  0  0
  141.8914   79.6887  224.2970 H   0  0  0  0  0  0  0  0  0  0  0  0
  140.7950   77.4535  223.8338 H   0  0  0  0  0  0  0  0  0  0  0  0
  140.4900   80.7939  224.2189 H   0  0  0  0  0  0  0  0  0  0  0  0
  138.3889   82.0466  224.5177 H   0  0  0  0  0  0  0  0  0  0  0  0
  136.2826   78.7658  222.7454 H   0  0  0  0  0  0  0  0  0  0  0  0
  138.3932   77.5269  222.4560 H   0  0  0  0  0  0  0  0  0  0  0  0
  138.7140   71.2884  220.9871 H   0  0  0  0  0  0  0  0  0  0  0  0
  138.4011   69.1782  222.2956 H   0  0  0  0  0  0  0  0  0  0  0  0
  138.7603   67.9977  224.3413 H   0  0  0  0  0  0  0  0  0  0  0  0
  139.6805   67.9386  226.6616 H   0  0  0  0  0  0  0  0  0  0  0  0
  141.1028   71.9486  226.1976 H   0  0  0  0  0  0  0  0  0  0  0  0
  1  2  2  0
  2  3  1  0
  3  4  1  0
  4  5  1  0
  5  6  2  0
  5  7  1  0
  7  8  1  0
  8  9  1  0
  9 10  1  0
 10 11  1  0
 11 12  1  0
 12 13  1  0
 13 14  2  0
 14 15  1  0
 15 16  2  0
 16 17  1  0
 16 18  1  0
 18 19  2  0
  2 20  1  0
 20 21  2  0
 21 22  1  0
 22 23  2  0
 23 24  1  0
 24 25  2  0
 25 26  1  0
 26 27  1  0
 26 28  2  0
 28 29  1  0
 29 30  2  0
 12  7  1  0
 19 13  1  0
 30 20  1  0
 29 23  1  0
  3 31  1  0
  4 32  1  0
  4 33  1  0
  8 34  1  0
  8 35  1  0
  9 36  1  0
  9 37  1  0
 10 38  1  0
 10 39  1  0
 11 40  1  0
 11 41  1  0
 12 42  1  1
 14 43  1  0
 15 44  1  0
 18 45  1  0
 19 46  1  0
 21 47  1  0
 22 48  1  0
 24 49  1  0
 25 50  1  0
 28 51  1  0
M  END
>  <smiles>  (60) 
O=C(NCC(=O)N1CCCCC1c1ccc(Cl)cc1)c1ccc2ccc(Cl)cc2n1

>  <score_type>  (60) 
oracle

>  <origin>  (60) 
autodockgpu

>  <m_score__min__energy>  (60) 
-9.0199999999999996

>  <m_primary>  (60) 
energy

>  <rmsd>  (60) 
3.5756537353721005

>  <m_score__min__rmsd>  (60) 
3.5756537353721005

>  <meeko>  (60) 
{"free_energy": -8.6, "intermolecular_energy": -10.09, "internal_energy": -1.38, "cluster_size": 7, "cluster_id": 2, "rank_in_cluster": 1}

>  <energy>  (60) 
-8.61

>  <cluster_rmsd>  (60) 
1.29

>  <cluster>  (60) 
1

$$$$

     RDKit          3D

 51 54  0  0  0  0  0  0  0  0999 V2000
  140.1150   74.3380  220.9990 O   0  0  0  0  0  0  0  0  0  0  0  0
  139.2990   74.9160  221.7600 C   0  0  0  0  0  0  0  0  0  0  0  0
  138.2590   74.1120  222.3120 N   0  0  0  0  0  0  0  0  0  0  0  0
  138.2230   72.7100  221.9570 C   0  0  0  0  0  0  0  0  0  0  0  0
  139.3040   71.9360  222.5800 C   0  0  0  0  0  0  0  0  0  0  0  0
  140.4850   72.3390  222.7320 O   0  0  0  0  0  0  0  0  0  0  0  0
  139.0030   70.6280  223.0530 N   0  0  0  0  0  0  0  0  0  0  0  0
  139.5880   69.4760  222.4260 C   0  0  0  0  0  0  0  0  0  0  0  0
  138.7690   68.2390  222.5910 C   0  0  0  0  0  0  0  0  0  0  0  0
  137.3070   68.4540  222.7820 C   0  0  0  0  0  0  0  0  0  0  0  0
  136.9350   69.5480  223.7300 C   0  0  0  0  0  0  0  0  0  0  0  0
  138.1020   70.3940  224.1750 C   0  0  1  0  0  0  0  0  0  0  0  0
  138.8910   69.8010  225.2730 C   0  0  0  0  0  0  0  0  0  0  0  0
  138.7800   68.5240  225.7250 C   0  0  0  0  0  0  0  0  0  0  0  0
  139.5440   68.0090  226.7620 C   0  0  0  0  0  0  0  0  0  0  0  0
  140.4790   68.8240  227.3840 C   0  0  0  0  0  0  0  0  0  0  0  0
  141.4440   68.1770  228.6900 Cl  0  0  0  0  0  0  0  0  0  0  0  0
  140.5950   70.1180  226.9250 C   0  0  0  0  0  0  0  0  0  0  0  0
  139.8250   70.6210  225.8900 C   0  0  0  0  0  0  0  0  0  0  0  0
  139.3760   76.3370  222.0890 C   0  0  0  0  0  0  0  0  0  0  0  0
  138.2230   77.0960  222.0150 C   0  0  0  0  0  0  0  0  0  0  0  0
  138.2190   78.4500  222.3130 C   0  0  0  0  0  0  0  0  0  0  0  0
  139.4370   78.9970  222.6880 C   0  0  0  0  0  0  0  0  0  0  0  0
  139.4770   80.3450  222.9930 C   0  0  0  0  0  0  0  0  0  0  0  0
  140.6930   80.9000  223.3700 C   0  0  0  0  0  0  0  0  0  0  0  0
  141.8350   80.1200  223.4360 C   0  0  0  0  0  0  0  0  0  0  0  0
  143.3130   80.8990  223.9170 Cl  0  0  0  0  0  0  0  0  0  0  0  0
  141.7420   78.7830  223.1220 C   0  0  0  0  0  0  0  0  0  0  0  0
  140.5510   78.2000  222.7450 C   0  0  0  0  0  0  0  0  0  0  0  0
  140.5300   76.8920  222.4520 N   0  0  0  0  0  0  0  0  0  0  0  0
  137.5360   74.5060  222.9530 H   0  0  0  0  0  0  0  0  0  0  0  0
  137.2591   72.2904  222.2806 H   0  0  0  0  0  0  0  0  0  0  0  0
  138.3533   72.6416  220.8669 H   0  0  0  0  0  0  0  0  0  0  0  0
  139.6990   69.6813  221.3510 H   0  0  0  0  0  0  0  0  0  0  0  0
  140.5572   69.2945  222.9135 H   0  0  0  0  0  0  0  0  0  0  0  0
  138.9052   67.6208  221.6914 H   0  0  0  0  0  0  0  0  0  0  0  0
  139.1261   67.7637  223.5165 H   0  0  0  0  0  0  0  0  0  0  0  0
  136.8687   68.6918  221.8015 H   0  0  0  0  0  0  0  0  0  0  0  0
  136.9212   67.5250  223.2272 H   0  0  0  0  0  0  0  0  0  0  0  0
  136.2024   70.2018  223.2342 H   0  0  0  0  0  0  0  0  0  0  0  0
  136.5284   69.0654  224.6310 H   0  0  0  0  0  0  0  0  0  0  0  0
  137.6602   71.3293  224.5493 H   0  0  0  0  0  0  0  0  0  0  0  0
  138.0447   67.8633  225.2425 H   0  0  0  0  0  0  0  0  0  0  0  0
  139.4102   66.9668  227.0874 H   0  0  0  0  0  0  0  0  0  0  0  0
  141.3320   70.7808  227.4020 H   0  0  0  0  0  0  0  0  0  0  0  0
  139.9527   71.6624  225.5595 H   0  0  0  0  0  0  0  0  0  0  0  0
  137.2829   76.6124  221.7113 H   0  0  0  0  0  0  0  0  0  0  0  0
  137.3025   79.0556  222.2553 H   0  0  0  0  0  0  0  0  0  0  0  0
  138.5683   80.9625  222.9384 H   0  0  0  0  0  0  0  0  0  0  0  0
  140.7494   81.9700  223.6187 H   0  0  0  0  0  0  0  0  0  0  0  0
  142.6470   78.1598  223.1735 H   0  0  0  0  0  0  0  0  0  0  0  0
  1  2  2  0
  2  3  1  0
  3  4  1  0
  4  5  1  0
  5  6  2  0
  5  7  1  0
  7  8  1  0
  8  9  1  0
  9 10  1  0
 10 11  1  0
 11 12  1  0
 12 13  1  0
 13 14  2  0
 14 15  1  0
 15 16  2  0
 16 17  1  0
 16 18  1  0
 18 19  2  0
  2 20  1  0
 20 21  2  0
 21 22  1  0
 22 23  2  0
 23 24  1  0
 24 25  2  0
 25 26  1  0
 26 27  1  0
 26 28  2  0
 28 29  1  0
 29 30  2  0
 12  7  1  0
 19 13  1  0
 30 20  1  0
 29 23  1  0
  3 31  1  0
  4 32  1  0
  4 33  1  0
  8 34  1  0
  8 35  1  0
  9 36  1  0
  9 37  1  0
 10 38  1  0
 10 39  1  0
 11 40  1  0
 11 41  1  0
 12 42  1  1
 14 43  1  0
 15 44  1  0
 18 45  1  0
 19 46  1  0
 21 47  1  0
 22 48  1  0
 24 49  1  0
 25 50  1  0
 28 51  1  0
M  END
>  <smiles>  (61) 
O=C(NCC(=O)N1CCCCC1c1ccc(Cl)cc1)c1ccc2ccc(Cl)cc2n1

>  <score_type>  (61) 
oracle

>  <origin>  (61) 
autodockgpu

>  <m_score__min__energy>  (61) 
-9.0199999999999996

>  <m_primary>  (61) 
energy

>  <rmsd>  (61) 
8.160613085995308

>  <m_score__min__rmsd>  (61) 
8.160613085995308

>  <meeko>  (61) 
{"free_energy": -8.77, "intermolecular_energy": -10.26, "internal_energy": -1.25, "cluster_size": 25, "cluster_id": 1, "rank_in_cluster": 7}

>  <energy>  (61) 
-8.6

>  <cluster_rmsd>  (61) 
1.31

>  <cluster>  (61) 
1

$$$$

     RDKit          3D

 51 54  0  0  0  0  0  0  0  0999 V2000
  137.6030   75.4820  222.3240 O   0  0  0  0  0  0  0  0  0  0  0  0
  138.8470   75.6350  222.2440 C   0  0  0  0  0  0  0  0  0  0  0  0
  139.3520   76.9360  222.5380 N   0  0  0  0  0  0  0  0  0  0  0  0
  138.4020   77.9660  222.9020 C   0  0  0  0  0  0  0  0  0  0  0  0
  139.0480   79.2180  223.3140 C   0  0  0  0  0  0  0  0  0  0  0  0
  138.5130   80.1040  224.0290 O   0  0  0  0  0  0  0  0  0  0  0  0
  140.3810   79.4580  222.8800 N   0  0  0  0  0  0  0  0  0  0  0  0
  141.4930   78.9260  223.6180 C   0  0  0  0  0  0  0  0  0  0  0  0
  142.7480   79.7140  223.4360 C   0  0  0  0  0  0  0  0  0  0  0  0
  142.5630   81.1520  223.0930 C   0  0  0  0  0  0  0  0  0  0  0  0
  141.5220   81.4400  222.0600 C   0  0  0  0  0  0  0  0  0  0  0  0
  140.6820   80.2430  221.6890 C   0  0  1  0  0  0  0  0  0  0  0  0
  141.3170   79.3440  220.7040 C   0  0  0  0  0  0  0  0  0  0  0  0
  141.4440   77.9970  220.8300 C   0  0  0  0  0  0  0  0  0  0  0  0
  142.0490   77.1920  219.8770 C   0  0  0  0  0  0  0  0  0  0  0  0
  142.5600   77.7730  218.7240 C   0  0  0  0  0  0  0  0  0  0  0  0
  143.3230   76.7600  217.5210 Cl  0  0  0  0  0  0  0  0  0  0  0  0
  142.4320   79.1390  218.5950 C   0  0  0  0  0  0  0  0  0  0  0  0
  141.8250   79.9320  219.5540 C   0  0  0  0  0  0  0  0  0  0  0  0
  139.7670   74.5630  221.8720 C   0  0  0  0  0  0  0  0  0  0  0  0
  139.3040   73.2610  221.8810 C   0  0  0  0  0  0  0  0  0  0  0  0
  140.1180   72.1930  221.5400 C   0  0  0  0  0  0  0  0  0  0  0  0
  141.4230   72.5060  221.1900 C   0  0  0  0  0  0  0  0  0  0  0  0
  142.2690   71.4690  220.8440 C   0  0  0  0  0  0  0  0  0  0  0  0
  143.5770   71.7750  220.4930 C   0  0  0  0  0  0  0  0  0  0  0  0
  144.0200   73.0860  220.4910 C   0  0  0  0  0  0  0  0  0  0  0  0
  145.6740   73.3760  220.0390 Cl  0  0  0  0  0  0  0  0  0  0  0  0
  143.1380   74.0830  220.8440 C   0  0  0  0  0  0  0  0  0  0  0  0
  141.8330   73.8140  221.1990 C   0  0  0  0  0  0  0  0  0  0  0  0
  141.0260   74.8310  221.5320 N   0  0  0  0  0  0  0  0  0  0  0  0
  140.3710   77.1570  222.4970 H   0  0  0  0  0  0  0  0  0  0  0  0
  137.7580   78.1721  222.0344 H   0  0  0  0  0  0  0  0  0  0  0  0
  137.8242   77.5940  223.7610 H   0  0  0  0  0  0  0  0  0  0  0  0
  141.2340   78.9223  224.6871 H   0  0  0  0  0  0  0  0  0  0  0  0
  141.6844   77.9120  223.2369 H   0  0  0  0  0  0  0  0  0  0  0  0
  143.3196   79.6610  224.3744 H   0  0  0  0  0  0  0  0  0  0  0  0
  143.2629   79.2637  222.5745 H   0  0  0  0  0  0  0  0  0  0  0  0
  142.2839   81.6863  224.0131 H   0  0  0  0  0  0  0  0  0  0  0  0
  143.5179   81.4834  222.6590 H   0  0  0  0  0  0  0  0  0  0  0  0
  140.8554   82.2238  222.4490 H   0  0  0  0  0  0  0  0  0  0  0  0
  142.0537   81.7520  221.1489 H   0  0  0  0  0  0  0  0  0  0  0  0
  139.7726   80.6552  221.2274 H   0  0  0  0  0  0  0  0  0  0  0  0
  141.0453   77.5194  221.7372 H   0  0  0  0  0  0  0  0  0  0  0  0
  142.1233   76.1056  220.0325 H   0  0  0  0  0  0  0  0  0  0  0  0
  142.8298   79.6209  217.6897 H   0  0  0  0  0  0  0  0  0  0  0  0
  141.7460   81.0191  219.4057 H   0  0  0  0  0  0  0  0  0  0  0  0
  138.2597   73.0671  222.1670 H   0  0  0  0  0  0  0  0  0  0  0  0
  139.7503   71.1563  221.5465 H   0  0  0  0  0  0  0  0  0  0  0  0
  141.9148   70.4276  220.8467 H   0  0  0  0  0  0  0  0  0  0  0  0
  144.2686   70.9666  220.2135 H   0  0  0  0  0  0  0  0  0  0  0  0
  143.4854   75.1267  220.8427 H   0  0  0  0  0  0  0  0  0  0  0  0
  1  2  2  0
  2  3  1  0
  3  4  1  0
  4  5  1  0
  5  6  2  0
  5  7  1  0
  7  8  1  0
  8  9  1  0
  9 10  1  0
 10 11  1  0
 11 12  1  0
 12 13  1  0
 13 14  2  0
 14 15  1  0
 15 16  2  0
 16 17  1  0
 16 18  1  0
 18 19  2  0
  2 20  1  0
 20 21  2  0
 21 22  1  0
 22 23  2  0
 23 24  1  0
 24 25  2  0
 25 26  1  0
 26 27  1  0
 26 28  2  0
 28 29  1  0
 29 30  2  0
 12  7  1  0
 19 13  1  0
 30 20  1  0
 29 23  1  0
  3 31  1  0
  4 32  1  0
  4 33  1  0
  8 34  1  0
  8 35  1  0
  9 36  1  0
  9 37  1  0
 10 38  1  0
 10 39  1  0
 11 40  1  0
 11 41  1  0
 12 42  1  6
 14 43  1  0
 15 44  1  0
 18 45  1  0
 19 46  1  0
 21 47  1  0
 22 48  1  0
 24 49  1  0
 25 50  1  0
 28 51  1  0
M  END
>  <smiles>  (62) 
O=C(NCC(=O)N1CCCCC1c1ccc(Cl)cc1)c1ccc2ccc(Cl)cc2n1

>  <score_type>  (62) 
oracle

>  <origin>  (62) 
autodockgpu

>  <m_score__min__energy>  (62) 
-9.0199999999999996

>  <m_primary>  (62) 
energy

>  <rmsd>  (62) 
5.928229838175366

>  <m_score__min__rmsd>  (62) 
5.928229838175366

>  <meeko>  (62) 
{"free_energy": -7.51, "intermolecular_energy": -9.0, "internal_energy": -2.23, "cluster_size": 3, "cluster_id": 7, "rank_in_cluster": 1}

>  <energy>  (62) 
-8.59

>  <cluster_rmsd>  (62) 
1.3

>  <cluster>  (62) 
1

$$$$

     RDKit          3D

 51 54  0  0  0  0  0  0  0  0999 V2000
  140.4840   74.3320  220.5890 O   0  0  0  0  0  0  0  0  0  0  0  0
  139.6900   74.7140  221.4860 C   0  0  0  0  0  0  0  0  0  0  0  0
  138.7980   73.7340  222.0100 N   0  0  0  0  0  0  0  0  0  0  0  0
  138.8730   72.3920  221.4750 C   0  0  0  0  0  0  0  0  0  0  0  0
  139.7920   71.5280  222.2270 C   0  0  0  0  0  0  0  0  0  0  0  0
  141.0290   71.7200  222.3430 O   0  0  0  0  0  0  0  0  0  0  0  0
  139.2530   70.3860  222.8800 N   0  0  0  0  0  0  0  0  0  0  0  0
  139.5410   69.0650  222.3930 C   0  0  0  0  0  0  0  0  0  0  0  0
  138.4910   68.0660  222.7490 C   0  0  0  0  0  0  0  0  0  0  0  0
  137.1230   68.6150  222.9610 C   0  0  0  0  0  0  0  0  0  0  0  0
  137.0500   69.8720  223.7670 C   0  0  0  0  0  0  0  0  0  0  0  0
  138.3950   70.4920  224.0540 C   0  0  1  0  0  0  0  0  0  0  0  0
  139.1080   69.8810  225.1930 C   0  0  0  0  0  0  0  0  0  0  0  0
  138.8630   68.6470  225.7090 C   0  0  0  0  0  0  0  0  0  0  0  0
  139.5600   68.1130  226.7820 C   0  0  0  0  0  0  0  0  0  0  0  0
  140.5670   68.8610  227.3760 C   0  0  0  0  0  0  0  0  0  0  0  0
  141.4470   68.1900  228.7290 Cl  0  0  0  0  0  0  0  0  0  0  0  0
  140.8180   70.1120  226.8540 C   0  0  0  0  0  0  0  0  0  0  0  0
  140.1140   70.6340  225.7820 C   0  0  0  0  0  0  0  0  0  0  0  0
  139.6520   76.0830  221.9940 C   0  0  0  0  0  0  0  0  0  0  0  0
  138.4210   76.6820  222.1890 C   0  0  0  0  0  0  0  0  0  0  0  0
  138.3050   77.9770  222.6690 C   0  0  0  0  0  0  0  0  0  0  0  0
  139.4950   78.6360  222.9410 C   0  0  0  0  0  0  0  0  0  0  0  0
  139.4250   79.9310  223.4210 C   0  0  0  0  0  0  0  0  0  0  0  0
  140.6110   80.5980  223.6950 C   0  0  0  0  0  0  0  0  0  0  0  0
  141.8330   79.9780  223.4930 C   0  0  0  0  0  0  0  0  0  0  0  0
  143.2680   80.8880  223.8630 Cl  0  0  0  0  0  0  0  0  0  0  0  0
  141.8490   78.6870  223.0130 C   0  0  0  0  0  0  0  0  0  0  0  0
  140.6900   77.9970  222.7300 C   0  0  0  0  0  0  0  0  0  0  0  0
  140.7750   76.7430  222.2640 N   0  0  0  0  0  0  0  0  0  0  0  0
  138.1040   73.9600  222.7570 H   0  0  0  0  0  0  0  0  0  0  0  0
  137.8681   71.9456  221.5046 H   0  0  0  0  0  0  0  0  0  0  0  0
  139.2571   72.4672  220.4470 H   0  0  0  0  0  0  0  0  0  0  0  0
  139.6264   69.1072  221.2971 H   0  0  0  0  0  0  0  0  0  0  0  0
  140.4779   68.7383  222.8679 H   0  0  0  0  0  0  0  0  0  0  0  0
  138.4367   67.3281  221.9350 H   0  0  0  0  0  0  0  0  0  0  0  0
  138.7969   67.6411  223.7164 H   0  0  0  0  0  0  0  0  0  0  0  0
  136.6836   68.8199  221.9736 H   0  0  0  0  0  0  0  0  0  0  0  0
  136.5793   67.8539  223.5399 H   0  0  0  0  0  0  0  0  0  0  0  0
  136.4422   70.6034  223.2141 H   0  0  0  0  0  0  0  0  0  0  0  0
  136.6078   69.6040  224.7379 H   0  0  0  0  0  0  0  0  0  0  0  0
  138.1850   71.5397  224.3153 H   0  0  0  0  0  0  0  0  0  0  0  0
  138.0689   68.0396  225.2503 H   0  0  0  0  0  0  0  0  0  0  0  0
  139.3177   67.1081  227.1582 H   0  0  0  0  0  0  0  0  0  0  0  0
  141.6122   70.7221  227.3090 H   0  0  0  0  0  0  0  0  0  0  0  0
  140.3504   71.6381  225.4001 H   0  0  0  0  0  0  0  0  0  0  0  0
  137.5078   76.1145  221.9565 H   0  0  0  0  0  0  0  0  0  0  0  0
  137.3264   78.4544  222.8252 H   0  0  0  0  0  0  0  0  0  0  0  0
  138.4531   80.4205  223.5818 H   0  0  0  0  0  0  0  0  0  0  0  0
  140.5801   81.6293  224.0764 H   0  0  0  0  0  0  0  0  0  0  0  0
  142.8173   78.1911  222.8504 H   0  0  0  0  0  0  0  0  0  0  0  0
  1  2  2  0
  2  3  1  0
  3  4  1  0
  4  5  1  0
  5  6  2  0
  5  7  1  0
  7  8  1  0
  8  9  1  0
  9 10  1  0
 10 11  1  0
 11 12  1  0
 12 13  1  0
 13 14  2  0
 14 15  1  0
 15 16  2  0
 16 17  1  0
 16 18  1  0
 18 19  2  0
  2 20  1  0
 20 21  2  0
 21 22  1  0
 22 23  2  0
 23 24  1  0
 24 25  2  0
 25 26  1  0
 26 27  1  0
 26 28  2  0
 28 29  1  0
 29 30  2  0
 12  7  1  0
 19 13  1  0
 30 20  1  0
 29 23  1  0
  3 31  1  0
  4 32  1  0
  4 33  1  0
  8 34  1  0
  8 35  1  0
  9 36  1  0
  9 37  1  0
 10 38  1  0
 10 39  1  0
 11 40  1  0
 11 41  1  0
 12 42  1  1
 14 43  1  0
 15 44  1  0
 18 45  1  0
 19 46  1  0
 21 47  1  0
 22 48  1  0
 24 49  1  0
 25 50  1  0
 28 51  1  0
M  END
>  <smiles>  (63) 
O=C(NCC(=O)N1CCCCC1c1ccc(Cl)cc1)c1ccc2ccc(Cl)cc2n1

>  <score_type>  (63) 
oracle

>  <origin>  (63) 
autodockgpu

>  <m_score__min__energy>  (63) 
-9.0199999999999996

>  <m_primary>  (63) 
energy

>  <rmsd>  (63) 
7.990576632282006

>  <m_score__min__rmsd>  (63) 
7.990576632282006

>  <meeko>  (63) 
{"free_energy": -9.02, "intermolecular_energy": -10.51, "internal_energy": -1.24, "cluster_size": 25, "cluster_id": 1, "rank_in_cluster": 1}

>  <energy>  (63) 
-8.59

>  <cluster_rmsd>  (63) 
1.23

>  <cluster>  (63) 
1

$$$$

     RDKit          3D

 51 54  0  0  0  0  0  0  0  0999 V2000
  137.5600   74.2340  222.0670 O   0  0  0  0  0  0  0  0  0  0  0  0
  138.6650   74.8210  221.9460 C   0  0  0  0  0  0  0  0  0  0  0  0
  139.7490   74.0450  221.4400 N   0  0  0  0  0  0  0  0  0  0  0  0
  139.4960   72.6590  221.1090 C   0  0  0  0  0  0  0  0  0  0  0  0
  140.2640   71.7240  221.9400 C   0  0  0  0  0  0  0  0  0  0  0  0
  141.5180   71.7140  222.0440 O   0  0  0  0  0  0  0  0  0  0  0  0
  139.5470   70.7520  222.6910 N   0  0  0  0  0  0  0  0  0  0  0  0
  139.5430   69.3750  222.2820 C   0  0  0  0  0  0  0  0  0  0  0  0
  138.3380   68.6280  222.7490 C   0  0  0  0  0  0  0  0  0  0  0  0
  137.1180   69.4520  222.9810 C   0  0  0  0  0  0  0  0  0  0  0  0
  137.3380   70.7420  223.7020 C   0  0  0  0  0  0  0  0  0  0  0  0
  138.7930   71.0960  223.8900 C   0  0  1  0  0  0  0  0  0  0  0  0
  139.4330   70.4210  225.0370 C   0  0  0  0  0  0  0  0  0  0  0  0
  140.6930   70.6560  225.4890 C   0  0  0  0  0  0  0  0  0  0  0  0
  141.2540   69.9960  226.5730 C   0  0  0  0  0  0  0  0  0  0  0  0
  140.5050   69.0400  227.2450 C   0  0  0  0  0  0  0  0  0  0  0  0
  141.2090   68.2070  228.6120 Cl  0  0  0  0  0  0  0  0  0  0  0  0
  139.2270   68.8010  226.7880 C   0  0  0  0  0  0  0  0  0  0  0  0
  138.6790   69.4670  225.7050 C   0  0  0  0  0  0  0  0  0  0  0  0
  138.8720   76.2240  222.2940 C   0  0  0  0  0  0  0  0  0  0  0  0
  137.7650   77.0390  222.4410 C   0  0  0  0  0  0  0  0  0  0  0  0
  137.8830   78.3800  222.7700 C   0  0  0  0  0  0  0  0  0  0  0  0
  139.1750   78.8560  222.9430 C   0  0  0  0  0  0  0  0  0  0  0  0
  139.3380   80.1890  223.2710 C   0  0  0  0  0  0  0  0  0  0  0  0
  140.6270   80.6720  223.4460 C   0  0  0  0  0  0  0  0  0  0  0  0
  141.7210   79.8380  223.2940 C   0  0  0  0  0  0  0  0  0  0  0  0
  143.2990   80.5280  223.5320 Cl  0  0  0  0  0  0  0  0  0  0  0  0
  141.5060   78.5170  222.9660 C   0  0  0  0  0  0  0  0  0  0  0  0
  140.2390   78.0050  222.7850 C   0  0  0  0  0  0  0  0  0  0  0  0
  140.0980   76.7110  222.4660 N   0  0  0  0  0  0  0  0  0  0  0  0
  140.7020   74.4480  221.3060 H   0  0  0  0  0  0  0  0  0  0  0  0
  138.4243   72.4546  221.2494 H   0  0  0  0  0  0  0  0  0  0  0  0
  139.8085   72.5065  220.0654 H   0  0  0  0  0  0  0  0  0  0  0  0
  139.5746   69.3363  221.1831 H   0  0  0  0  0  0  0  0  0  0  0  0
  140.4223   68.8956  222.7370 H   0  0  0  0  0  0  0  0  0  0  0  0
  138.0948   67.8700  221.9899 H   0  0  0  0  0  0  0  0  0  0  0  0
  138.6068   68.2068  223.7289 H   0  0  0  0  0  0  0  0  0  0  0  0
  136.6744   69.6832  222.0013 H   0  0  0  0  0  0  0  0  0  0  0  0
  136.4677   68.8500  223.6327 H   0  0  0  0  0  0  0  0  0  0  0  0
  136.8571   71.5469  223.1268 H   0  0  0  0  0  0  0  0  0  0  0  0
  136.9051   70.6247  224.7064 H   0  0  0  0  0  0  0  0  0  0  0  0
  138.8086   72.1778  224.0888 H   0  0  0  0  0  0  0  0  0  0  0  0
  141.3008   71.4100  224.9674 H   0  0  0  0  0  0  0  0  0  0  0  0
  142.2797   70.2276  226.8958 H   0  0  0  0  0  0  0  0  0  0  0  0
  138.6154   68.0479  227.3065 H   0  0  0  0  0  0  0  0  0  0  0  0
  137.6536   69.2415  225.3767 H   0  0  0  0  0  0  0  0  0  0  0  0
  136.7626   76.6111  222.2927 H   0  0  0  0  0  0  0  0  0  0  0  0
  137.0032   79.0297  222.8873 H   0  0  0  0  0  0  0  0  0  0  0  0
  138.4673   80.8505  223.3903 H   0  0  0  0  0  0  0  0  0  0  0  0
  140.7810   81.7291  223.7084 H   0  0  0  0  0  0  0  0  0  0  0  0
  142.3725   77.8502  222.8448 H   0  0  0  0  0  0  0  0  0  0  0  0
  1  2  2  0
  2  3  1  0
  3  4  1  0
  4  5  1  0
  5  6  2  0
  5  7  1  0
  7  8  1  0
  8  9  1  0
  9 10  1  0
 10 11  1  0
 11 12  1  0
 12 13  1  0
 13 14  2  0
 14 15  1  0
 15 16  2  0
 16 17  1  0
 16 18  1  0
 18 19  2  0
  2 20  1  0
 20 21  2  0
 21 22  1  0
 22 23  2  0
 23 24  1  0
 24 25  2  0
 25 26  1  0
 26 27  1  0
 26 28  2  0
 28 29  1  0
 29 30  2  0
 12  7  1  0
 19 13  1  0
 30 20  1  0
 29 23  1  0
  3 31  1  0
  4 32  1  0
  4 33  1  0
  8 34  1  0
  8 35  1  0
  9 36  1  0
  9 37  1  0
 10 38  1  0
 10 39  1  0
 11 40  1  0
 11 41  1  0
 12 42  1  1
 14 43  1  0
 15 44  1  0
 18 45  1  0
 19 46  1  0
 21 47  1  0
 22 48  1  0
 24 49  1  0
 25 50  1  0
 28 51  1  0
M  END
>  <smiles>  (64) 
O=C(NCC(=O)N1CCCCC1c1ccc(Cl)cc1)c1ccc2ccc(Cl)cc2n1

>  <score_type>  (64) 
oracle

>  <origin>  (64) 
autodockgpu

>  <m_score__min__energy>  (64) 
-9.0199999999999996

>  <m_primary>  (64) 
energy

>  <rmsd>  (64) 
7.895981410271823

>  <m_score__min__rmsd>  (64) 
7.895981410271823

>  <meeko>  (64) 
{"free_energy": -8.18, "intermolecular_energy": -9.68, "internal_energy": -1.67, "cluster_size": 25, "cluster_id": 1, "rank_in_cluster": 19}

>  <energy>  (64) 
-8.59

>  <cluster_rmsd>  (64) 
1.29

>  <cluster>  (64) 
1

$$$$

     RDKit          3D

 51 54  0  0  0  0  0  0  0  0999 V2000
  140.9350   74.4240  220.7180 O   0  0  0  0  0  0  0  0  0  0  0  0
  140.1600   75.0750  221.4620 C   0  0  0  0  0  0  0  0  0  0  0  0
  139.0720   74.3550  222.0400 N   0  0  0  0  0  0  0  0  0  0  0  0
  138.9480   72.9480  221.7270 C   0  0  0  0  0  0  0  0  0  0  0  0
  139.8270   72.1020  222.5430 C   0  0  0  0  0  0  0  0  0  0  0  0
  141.0270   72.3610  222.8160 O   0  0  0  0  0  0  0  0  0  0  0  0
  139.2920   70.8940  223.0710 N   0  0  0  0  0  0  0  0  0  0  0  0
  139.6000   69.6320  222.4580 C   0  0  0  0  0  0  0  0  0  0  0  0
  138.5570   68.5930  222.6980 C   0  0  0  0  0  0  0  0  0  0  0  0
  137.1800   69.1050  222.9460 C   0  0  0  0  0  0  0  0  0  0  0  0
  137.0840   70.2740  223.8730 C   0  0  0  0  0  0  0  0  0  0  0  0
  138.4190   70.8750  224.2380 C   0  0  1  0  0  0  0  0  0  0  0  0
  139.1250   70.1590  225.3200 C   0  0  0  0  0  0  0  0  0  0  0  0
  138.8520   68.8960  225.7400 C   0  0  0  0  0  0  0  0  0  0  0  0
  139.5430   68.2620  226.7620 C   0  0  0  0  0  0  0  0  0  0  0  0
  140.5730   68.9370  227.4040 C   0  0  0  0  0  0  0  0  0  0  0  0
  141.4460   68.1400  228.6920 Cl  0  0  0  0  0  0  0  0  0  0  0  0
  140.8520   70.2170  226.9780 C   0  0  0  0  0  0  0  0  0  0  0  0
  140.1540   70.8390  225.9560 C   0  0  0  0  0  0  0  0  0  0  0  0
  140.3270   76.4980  221.7490 C   0  0  0  0  0  0  0  0  0  0  0  0
  141.4340   77.1490  221.2390 C   0  0  0  0  0  0  0  0  0  0  0  0
  141.6590   78.4970  221.4690 C   0  0  0  0  0  0  0  0  0  0  0  0
  140.7100   79.1530  222.2390 C   0  0  0  0  0  0  0  0  0  0  0  0
  140.8970   80.4990  222.4930 C   0  0  0  0  0  0  0  0  0  0  0  0
  139.9510   81.1620  223.2640 C   0  0  0  0  0  0  0  0  0  0  0  0
  138.8500   80.4890  223.7640 C   0  0  0  0  0  0  0  0  0  0  0  0
  137.7170   81.3990  224.7200 Cl  0  0  0  0  0  0  0  0  0  0  0  0
  138.7100   79.1480  223.4830 C   0  0  0  0  0  0  0  0  0  0  0  0
  139.6300   78.4600  222.7220 C   0  0  0  0  0  0  0  0  0  0  0  0
  139.4340   77.1550  222.4860 N   0  0  0  0  0  0  0  0  0  0  0  0
  138.3790   74.8130  222.6700 H   0  0  0  0  0  0  0  0  0  0  0  0
  137.9060   72.6406  221.8993 H   0  0  0  0  0  0  0  0  0  0  0  0
  139.2451   72.8160  220.6762 H   0  0  0  0  0  0  0  0  0  0  0  0
  139.6983   69.7849  221.3731 H   0  0  0  0  0  0  0  0  0  0  0  0
  140.5345   69.2681  222.9099 H   0  0  0  0  0  0  0  0  0  0  0  0
  138.5206   67.9401  221.8135 H   0  0  0  0  0  0  0  0  0  0  0  0
  138.8557   68.0762  223.6220 H   0  0  0  0  0  0  0  0  0  0  0  0
  136.7504   69.4039  221.9784 H   0  0  0  0  0  0  0  0  0  0  0  0
  136.6374   68.2845  223.4383 H   0  0  0  0  0  0  0  0  0  0  0  0
  136.4749   71.0513  223.3885 H   0  0  0  0  0  0  0  0  0  0  0  0
  136.6333   69.9057  224.8064 H   0  0  0  0  0  0  0  0  0  0  0  0
  138.1950   71.8894  224.5995 H   0  0  0  0  0  0  0  0  0  0  0  0
  138.0391   68.3466  225.2427 H   0  0  0  0  0  0  0  0  0  0  0  0
  139.2783   67.2369  227.0604 H   0  0  0  0  0  0  0  0  0  0  0  0
  141.6652   70.7696  227.4713 H   0  0  0  0  0  0  0  0  0  0  0  0
  140.4132   71.8636  225.6510 H   0  0  0  0  0  0  0  0  0  0  0  0
  142.1565   76.5817  220.6339 H   0  0  0  0  0  0  0  0  0  0  0  0
  142.5397   79.0169  221.0641 H   0  0  0  0  0  0  0  0  0  0  0  0
  141.7731   81.0315  222.0944 H   0  0  0  0  0  0  0  0  0  0  0  0
  140.0782   82.2332  223.4795 H   0  0  0  0  0  0  0  0  0  0  0  0
  137.8363   78.6092  223.8785 H   0  0  0  0  0  0  0  0  0  0  0  0
  1  2  2  0
  2  3  1  0
  3  4  1  0
  4  5  1  0
  5  6  2  0
  5  7  1  0
  7  8  1  0
  8  9  1  0
  9 10  1  0
 10 11  1  0
 11 12  1  0
 12 13  1  0
 13 14  2  0
 14 15  1  0
 15 16  2  0
 16 17  1  0
 16 18  1  0
 18 19  2  0
  2 20  1  0
 20 21  2  0
 21 22  1  0
 22 23  2  0
 23 24  1  0
 24 25  2  0
 25 26  1  0
 26 27  1  0
 26 28  2  0
 28 29  1  0
 29 30  2  0
 12  7  1  0
 19 13  1  0
 30 20  1  0
 29 23  1  0
  3 31  1  0
  4 32  1  0
  4 33  1  0
  8 34  1  0
  8 35  1  0
  9 36  1  0
  9 37  1  0
 10 38  1  0
 10 39  1  0
 11 40  1  0
 11 41  1  0
 12 42  1  1
 14 43  1  0
 15 44  1  0
 18 45  1  0
 19 46  1  0
 21 47  1  0
 22 48  1  0
 24 49  1  0
 25 50  1  0
 28 51  1  0
M  END
>  <smiles>  (65) 
O=C(NCC(=O)N1CCCCC1c1ccc(Cl)cc1)c1ccc2ccc(Cl)cc2n1

>  <score_type>  (65) 
oracle

>  <origin>  (65) 
autodockgpu

>  <m_score__min__energy>  (65) 
-9.0199999999999996

>  <m_primary>  (65) 
energy

>  <rmsd>  (65) 
8.242312142133315

>  <m_score__min__rmsd>  (65) 
8.242312142133315

>  <meeko>  (65) 
{"free_energy": -8.59, "intermolecular_energy": -10.08, "internal_energy": -1.49, "cluster_size": 25, "cluster_id": 1, "rank_in_cluster": 14}

>  <energy>  (65) 
-8.59

>  <cluster_rmsd>  (65) 
1.24

>  <cluster>  (65) 
1

$$$$

     RDKit          3D

 51 54  0  0  0  0  0  0  0  0999 V2000
  140.3880   74.5410  220.1390 O   0  0  0  0  0  0  0  0  0  0  0  0
  140.0180   75.0060  221.2470 C   0  0  0  0  0  0  0  0  0  0  0  0
  139.3310   74.1110  222.1190 N   0  0  0  0  0  0  0  0  0  0  0  0
  139.1150   72.7540  221.6650 C   0  0  0  0  0  0  0  0  0  0  0  0
  139.9820   71.7810  222.3410 C   0  0  0  0  0  0  0  0  0  0  0  0
  141.2350   71.8600  222.4130 O   0  0  0  0  0  0  0  0  0  0  0  0
  139.3700   70.6610  222.9680 N   0  0  0  0  0  0  0  0  0  0  0  0
  139.5660   69.3370  222.4440 C   0  0  0  0  0  0  0  0  0  0  0  0
  138.4520   68.4020  222.7820 C   0  0  0  0  0  0  0  0  0  0  0  0
  137.1250   69.0370  223.0170 C   0  0  0  0  0  0  0  0  0  0  0  0
  137.1420   70.2740  223.8560 C   0  0  0  0  0  0  0  0  0  0  0  0
  138.5270   70.7940  224.1500 C   0  0  1  0  0  0  0  0  0  0  0  0
  139.2040   70.1060  225.2680 C   0  0  0  0  0  0  0  0  0  0  0  0
  138.8500   68.8980  225.7820 C   0  0  0  0  0  0  0  0  0  0  0  0
  139.5160   68.2890  226.8350 C   0  0  0  0  0  0  0  0  0  0  0  0
  140.6050   68.9290  227.4090 C   0  0  0  0  0  0  0  0  0  0  0  0
  141.4470   68.1630  228.7360 Cl  0  0  0  0  0  0  0  0  0  0  0  0
  140.9660   70.1530  226.8880 C   0  0  0  0  0  0  0  0  0  0  0  0
  140.2920   70.7510  225.8370 C   0  0  0  0  0  0  0  0  0  0  0  0
  140.2600   76.3860  221.6600 C   0  0  0  0  0  0  0  0  0  0  0  0
  141.4510   76.9860  221.2980 C   0  0  0  0  0  0  0  0  0  0  0  0
  141.7490   78.2920  221.6540 C   0  0  0  0  0  0  0  0  0  0  0  0
  140.7850   78.9590  222.3940 C   0  0  0  0  0  0  0  0  0  0  0  0
  141.0440   80.2640  222.7710 C   0  0  0  0  0  0  0  0  0  0  0  0
  140.0840   80.9390  223.5130 C   0  0  0  0  0  0  0  0  0  0  0  0
  138.8980   80.3180  223.8650 C   0  0  0  0  0  0  0  0  0  0  0  0
  137.7520   81.2380  224.7950 Cl  0  0  0  0  0  0  0  0  0  0  0  0
  138.6880   79.0160  223.4650 C   0  0  0  0  0  0  0  0  0  0  0  0
  139.6210   78.3180  222.7290 C   0  0  0  0  0  0  0  0  0  0  0  0
  139.3550   77.0530  222.3720 N   0  0  0  0  0  0  0  0  0  0  0  0
  138.9870   74.4080  223.0570 H   0  0  0  0  0  0  0  0  0  0  0  0
  138.0664   72.4824  221.8565 H   0  0  0  0  0  0  0  0  0  0  0  0
  139.3565   72.7222  220.5923 H   0  0  0  0  0  0  0  0  0  0  0  0
  139.6479   69.4025  221.3490 H   0  0  0  0  0  0  0  0  0  0  0  0
  140.4817   68.9352  222.9024 H   0  0  0  0  0  0  0  0  0  0  0  0
  138.3437   67.6905  221.9501 H   0  0  0  0  0  0  0  0  0  0  0  0
  138.7333   67.9328  223.7363 H   0  0  0  0  0  0  0  0  0  0  0  0
  136.6961   69.2975  222.0381 H   0  0  0  0  0  0  0  0  0  0  0  0
  136.5331   68.2996  223.5790 H   0  0  0  0  0  0  0  0  0  0  0  0
  136.5823   71.0592  223.3267 H   0  0  0  0  0  0  0  0  0  0  0  0
  136.6880   70.0105  224.8227 H   0  0  0  0  0  0  0  0  0  0  0  0
  138.3889   71.8460  224.4402 H   0  0  0  0  0  0  0  0  0  0  0  0
  137.9892   68.3758  225.3388 H   0  0  0  0  0  0  0  0  0  0  0  0
  139.1847   67.3097  227.2109 H   0  0  0  0  0  0  0  0  0  0  0  0
  141.8276   70.6777  227.3266 H   0  0  0  0  0  0  0  0  0  0  0  0
  140.6170   71.7304  225.4560 H   0  0  0  0  0  0  0  0  0  0  0  0
  142.1827   76.4113  220.7112 H   0  0  0  0  0  0  0  0  0  0  0  0
  142.6960   78.7717  221.3659 H   0  0  0  0  0  0  0  0  0  0  0  0
  141.9873   80.7552  222.4900 H   0  0  0  0  0  0  0  0  0  0  0  0
  140.2678   81.9779  223.8243 H   0  0  0  0  0  0  0  0  0  0  0  0
  137.7467   78.5186  223.7417 H   0  0  0  0  0  0  0  0  0  0  0  0
  1  2  2  0
  2  3  1  0
  3  4  1  0
  4  5  1  0
  5  6  2  0
  5  7  1  0
  7  8  1  0
  8  9  1  0
  9 10  1  0
 10 11  1  0
 11 12  1  0
 12 13  1  0
 13 14  2  0
 14 15  1  0
 15 16  2  0
 16 17  1  0
 16 18  1  0
 18 19  2  0
  2 20  1  0
 20 21  2  0
 21 22  1  0
 22 23  2  0
 23 24  1  0
 24 25  2  0
 25 26  1  0
 26 27  1  0
 26 28  2  0
 28 29  1  0
 29 30  2  0
 12  7  1  0
 19 13  1  0
 30 20  1  0
 29 23  1  0
  3 31  1  0
  4 32  1  0
  4 33  1  0
  8 34  1  0
  8 35  1  0
  9 36  1  0
  9 37  1  0
 10 38  1  0
 10 39  1  0
 11 40  1  0
 11 41  1  0
 12 42  1  1
 14 43  1  0
 15 44  1  0
 18 45  1  0
 19 46  1  0
 21 47  1  0
 22 48  1  0
 24 49  1  0
 25 50  1  0
 28 51  1  0
M  END
>  <smiles>  (66) 
O=C(NCC(=O)N1CCCCC1c1ccc(Cl)cc1)c1ccc2ccc(Cl)cc2n1

>  <score_type>  (66) 
oracle

>  <origin>  (66) 
autodockgpu

>  <m_score__min__energy>  (66) 
-9.0199999999999996

>  <m_primary>  (66) 
energy

>  <rmsd>  (66) 
8.17945075133955

>  <m_score__min__rmsd>  (66) 
8.17945075133955

>  <meeko>  (66) 
{"free_energy": -8.59, "intermolecular_energy": -10.08, "internal_energy": -1.39, "cluster_size": 25, "cluster_id": 1, "rank_in_cluster": 15}

>  <energy>  (66) 
-8.47

>  <cluster_rmsd>  (66) 
1.3

>  <cluster>  (66) 
1

$$$$

     RDKit          3D

 51 54  0  0  0  0  0  0  0  0999 V2000
  139.2160   74.3100  222.3680 O   0  0  0  0  0  0  0  0  0  0  0  0
  139.9290   74.6460  221.3890 C   0  0  0  0  0  0  0  0  0  0  0  0
  140.2510   73.6230  220.4500 N   0  0  0  0  0  0  0  0  0  0  0  0
  139.7360   72.2920  220.6940 C   0  0  0  0  0  0  0  0  0  0  0  0
  140.3040   71.6720  221.8980 C   0  0  0  0  0  0  0  0  0  0  0  0
  141.4570   71.8950  222.3490 O   0  0  0  0  0  0  0  0  0  0  0  0
  139.4970   70.7490  222.6190 N   0  0  0  0  0  0  0  0  0  0  0  0
  139.4350   69.3710  222.2190 C   0  0  0  0  0  0  0  0  0  0  0  0
  138.1690   68.6960  222.6310 C   0  0  0  0  0  0  0  0  0  0  0  0
  136.9870   69.5890  222.7970 C   0  0  0  0  0  0  0  0  0  0  0  0
  137.2440   70.8710  223.5200 C   0  0  0  0  0  0  0  0  0  0  0  0
  138.7050   71.1460  223.7770 C   0  0  1  0  0  0  0  0  0  0  0  0
  139.2500   70.4460  224.9580 C   0  0  0  0  0  0  0  0  0  0  0  0
  138.6730   69.3870  225.5840 C   0  0  0  0  0  0  0  0  0  0  0  0
  139.2220   68.7610  226.6940 C   0  0  0  0  0  0  0  0  0  0  0  0
  140.4250   69.2250  227.2080 C   0  0  0  0  0  0  0  0  0  0  0  0
  141.1190   68.4360  228.6050 Cl  0  0  0  0  0  0  0  0  0  0  0  0
  141.0120   70.2980  226.5730 C   0  0  0  0  0  0  0  0  0  0  0  0
  140.4530   70.9150  225.4660 C   0  0  0  0  0  0  0  0  0  0  0  0
  140.4250   76.0050  221.1860 C   0  0  0  0  0  0  0  0  0  0  0  0
  140.5250   76.4860  219.8940 C   0  0  0  0  0  0  0  0  0  0  0  0
  140.9870   77.7640  219.6230 C   0  0  0  0  0  0  0  0  0  0  0  0
  141.3430   78.5310  220.7230 C   0  0  0  0  0  0  0  0  0  0  0  0
  141.8100   79.8130  220.4970 C   0  0  0  0  0  0  0  0  0  0  0  0
  142.1680   80.5870  221.5920 C   0  0  0  0  0  0  0  0  0  0  0  0
  142.0610   80.0840  222.8780 C   0  0  0  0  0  0  0  0  0  0  0  0
  142.5320   81.1230  224.1900 Cl  0  0  0  0  0  0  0  0  0  0  0  0
  141.5900   78.8010  223.0490 C   0  0  0  0  0  0  0  0  0  0  0  0
  141.2260   78.0060  221.9830 C   0  0  0  0  0  0  0  0  0  0  0  0
  140.7760   76.7660  222.2200 N   0  0  0  0  0  0  0  0  0  0  0  0
  140.8370   73.8090  219.6080 H   0  0  0  0  0  0  0  0  0  0  0  0
  138.6442   72.3543  220.8129 H   0  0  0  0  0  0  0  0  0  0  0  0
  140.0188   71.6657  219.8351 H   0  0  0  0  0  0  0  0  0  0  0  0
  139.5174   69.3209  221.1232 H   0  0  0  0  0  0  0  0  0  0  0  0
  140.2628   68.8475  222.7197 H   0  0  0  0  0  0  0  0  0  0  0  0
  137.9213   67.9455  221.8659 H   0  0  0  0  0  0  0  0  0  0  0  0
  138.3656   68.2694  223.6256 H   0  0  0  0  0  0  0  0  0  0  0  0
  136.6058   69.8358  221.7951 H   0  0  0  0  0  0  0  0  0  0  0  0
  136.2723   69.0303  223.4191 H   0  0  0  0  0  0  0  0  0  0  0  0
  136.8372   71.6962  222.9170 H   0  0  0  0  0  0  0  0  0  0  0  0
  136.7575   70.7861  224.5029 H   0  0  0  0  0  0  0  0  0  0  0  0
  138.7705   72.2271  223.9691 H   0  0  0  0  0  0  0  0  0  0  0  0
  137.7196   69.0055  225.1897 H   0  0  0  0  0  0  0  0  0  0  0  0
  138.7098   67.9070  227.1612 H   0  0  0  0  0  0  0  0  0  0  0  0
  141.9666   70.6814  226.9625 H   0  0  0  0  0  0  0  0  0  0  0  0
  140.9587   71.7699  224.9934 H   0  0  0  0  0  0  0  0  0  0  0  0
  140.2295   75.8359  219.0573 H   0  0  0  0  0  0  0  0  0  0  0  0
  141.0669   78.1481  218.5954 H   0  0  0  0  0  0  0  0  0  0  0  0
  141.8956   80.2095  219.4745 H   0  0  0  0  0  0  0  0  0  0  0  0
  142.5405   81.6103  221.4369 H   0  0  0  0  0  0  0  0  0  0  0  0
  141.5014   78.3978  224.0686 H   0  0  0  0  0  0  0  0  0  0  0  0
  1  2  2  0
  2  3  1  0
  3  4  1  0
  4  5  1  0
  5  6  2  0
  5  7  1  0
  7  8  1  0
  8  9  1  0
  9 10  1  0
 10 11  1  0
 11 12  1  0
 12 13  1  0
 13 14  2  0
 14 15  1  0
 15 16  2  0
 16 17  1  0
 16 18  1  0
 18 19  2  0
  2 20  1  0
 20 21  2  0
 21 22  1  0
 22 23  2  0
 23 24  1  0
 24 25  2  0
 25 26  1  0
 26 27  1  0
 26 28  2  0
 28 29  1  0
 29 30  2  0
 12  7  1  0
 19 13  1  0
 30 20  1  0
 29 23  1  0
  3 31  1  0
  4 32  1  0
  4 33  1  0
  8 34  1  0
  8 35  1  0
  9 36  1  0
  9 37  1  0
 10 38  1  0
 10 39  1  0
 11 40  1  0
 11 41  1  0
 12 42  1  1
 14 43  1  0
 15 44  1  0
 18 45  1  0
 19 46  1  0
 21 47  1  0
 22 48  1  0
 24 49  1  0
 25 50  1  0
 28 51  1  0
M  END
>  <smiles>  (67) 
O=C(NCC(=O)N1CCCCC1c1ccc(Cl)cc1)c1ccc2ccc(Cl)cc2n1

>  <score_type>  (67) 
oracle

>  <origin>  (67) 
autodockgpu

>  <m_score__min__energy>  (67) 
-9.0199999999999996

>  <m_primary>  (67) 
energy

>  <rmsd>  (67) 
8.112140718615246

>  <m_score__min__rmsd>  (67) 
8.112140718615246

>  <meeko>  (67) 
{"free_energy": -8.46, "intermolecular_energy": -9.95, "internal_energy": -1.4, "cluster_size": 25, "cluster_id": 1, "rank_in_cluster": 17}

>  <energy>  (67) 
-8.46

>  <cluster_rmsd>  (67) 
1.5

>  <cluster>  (67) 
1

$$$$

     RDKit          3D

 51 54  0  0  0  0  0  0  0  0999 V2000
  141.1660   73.8500  220.9590 O   0  0  0  0  0  0  0  0  0  0  0  0
  140.3460   73.7950  221.9100 C   0  0  0  0  0  0  0  0  0  0  0  0
  139.7770   75.0310  222.3370 N   0  0  0  0  0  0  0  0  0  0  0  0
  140.1830   76.2380  221.6490 C   0  0  0  0  0  0  0  0  0  0  0  0
  139.6180   77.4540  222.2480 C   0  0  0  0  0  0  0  0  0  0  0  0
  138.4590   77.5500  222.7260 O   0  0  0  0  0  0  0  0  0  0  0  0
  140.4350   78.6170  222.2980 N   0  0  0  0  0  0  0  0  0  0  0  0
  141.8020   78.5280  222.7330 C   0  0  0  0  0  0  0  0  0  0  0  0
  142.3220   79.8060  223.3000 C   0  0  0  0  0  0  0  0  0  0  0  0
  141.2980   80.7140  223.8910 C   0  0  0  0  0  0  0  0  0  0  0  0
  140.0460   80.8800  223.0920 C   0  0  0  0  0  0  0  0  0  0  0  0
  139.9380   79.9340  221.9210 C   0  0  1  0  0  0  0  0  0  0  0  0
  140.6830   80.3730  220.7240 C   0  0  0  0  0  0  0  0  0  0  0  0
  141.2440   79.5520  219.7970 C   0  0  0  0  0  0  0  0  0  0  0  0
  141.9350   80.0110  218.6860 C   0  0  0  0  0  0  0  0  0  0  0  0
  142.0730   81.3780  218.4900 C   0  0  0  0  0  0  0  0  0  0  0  0
  142.9440   81.9580  217.0890 Cl  0  0  0  0  0  0  0  0  0  0  0  0
  141.5040   82.2120  219.4270 C   0  0  0  0  0  0  0  0  0  0  0  0
  140.8160   81.7410  220.5330 C   0  0  0  0  0  0  0  0  0  0  0  0
  139.9680   72.5500  222.5740 C   0  0  0  0  0  0  0  0  0  0  0  0
  139.1490   71.6640  221.8990 C   0  0  0  0  0  0  0  0  0  0  0  0
  138.7490   70.4640  222.4640 C   0  0  0  0  0  0  0  0  0  0  0  0
  139.2160   70.2050  223.7450 C   0  0  0  0  0  0  0  0  0  0  0  0
  138.8390   69.0180  224.3460 C   0  0  0  0  0  0  0  0  0  0  0  0
  139.3020   68.7520  225.6280 C   0  0  0  0  0  0  0  0  0  0  0  0
  140.1210   69.6550  226.2850 C   0  0  0  0  0  0  0  0  0  0  0  0
  140.6540   69.2390  227.8870 Cl  0  0  0  0  0  0  0  0  0  0  0  0
  140.4670   70.8230  225.6420 C   0  0  0  0  0  0  0  0  0  0  0  0
  140.0240   71.1180  224.3700 C   0  0  0  0  0  0  0  0  0  0  0  0
  140.3980   72.2730  223.8020 N   0  0  0  0  0  0  0  0  0  0  0  0
  139.0890   75.0830  223.1190 H   0  0  0  0  0  0  0  0  0  0  0  0
  141.2803   76.3081  221.6809 H   0  0  0  0  0  0  0  0  0  0  0  0
  139.8071   76.1726  220.6173 H   0  0  0  0  0  0  0  0  0  0  0  0
  141.8731   77.7481  223.5055 H   0  0  0  0  0  0  0  0  0  0  0  0
  142.4118   78.2902  221.8489 H   0  0  0  0  0  0  0  0  0  0  0  0
  143.0474   79.5558  224.0882 H   0  0  0  0  0  0  0  0  0  0  0  0
  142.7571   80.3555  222.4522 H   0  0  0  0  0  0  0  0  0  0  0  0
  141.0198   80.3144  224.8774 H   0  0  0  0  0  0  0  0  0  0  0  0
  141.7646   81.7094  223.9308 H   0  0  0  0  0  0  0  0  0  0  0  0
  139.1860   80.7087  223.7561 H   0  0  0  0  0  0  0  0  0  0  0  0
  140.0638   81.8992  222.6786 H   0  0  0  0  0  0  0  0  0  0  0  0
  138.8697   79.9103  221.6601 H   0  0  0  0  0  0  0  0  0  0  0  0
  141.1444   78.4653  219.9357 H   0  0  0  0  0  0  0  0  0  0  0  0
  142.3690   79.2996  217.9680 H   0  0  0  0  0  0  0  0  0  0  0  0
  141.6002   83.2993  219.2910 H   0  0  0  0  0  0  0  0  0  0  0  0
  140.3782   82.4463  221.2548 H   0  0  0  0  0  0  0  0  0  0  0  0
  138.8056   71.9189  220.8855 H   0  0  0  0  0  0  0  0  0  0  0  0
  138.0986   69.7571  221.9281 H   0  0  0  0  0  0  0  0  0  0  0  0
  138.1886   68.3024  223.8217 H   0  0  0  0  0  0  0  0  0  0  0  0
  139.0152   67.8144  226.1267 H   0  0  0  0  0  0  0  0  0  0  0  0
  141.1174   71.5433  226.1598 H   0  0  0  0  0  0  0  0  0  0  0  0
  1  2  2  0
  2  3  1  0
  3  4  1  0
  4  5  1  0
  5  6  2  0
  5  7  1  0
  7  8  1  0
  8  9  1  0
  9 10  1  0
 10 11  1  0
 11 12  1  0
 12 13  1  0
 13 14  2  0
 14 15  1  0
 15 16  2  0
 16 17  1  0
 16 18  1  0
 18 19  2  0
  2 20  1  0
 20 21  2  0
 21 22  1  0
 22 23  2  0
 23 24  1  0
 24 25  2  0
 25 26  1  0
 26 27  1  0
 26 28  2  0
 28 29  1  0
 29 30  2  0
 12  7  1  0
 19 13  1  0
 30 20  1  0
 29 23  1  0
  3 31  1  0
  4 32  1  0
  4 33  1  0
  8 34  1  0
  8 35  1  0
  9 36  1  0
  9 37  1  0
 10 38  1  0
 10 39  1  0
 11 40  1  0
 11 41  1  0
 12 42  1  6
 14 43  1  0
 15 44  1  0
 18 45  1  0
 19 46  1  0
 21 47  1  0
 22 48  1  0
 24 49  1  0
 25 50  1  0
 28 51  1  0
M  END
>  <smiles>  (68) 
O=C(NCC(=O)N1CCCCC1c1ccc(Cl)cc1)c1ccc2ccc(Cl)cc2n1

>  <score_type>  (68) 
oracle

>  <origin>  (68) 
autodockgpu

>  <m_score__min__energy>  (68) 
-9.0199999999999996

>  <m_primary>  (68) 
energy

>  <rmsd>  (68) 
4.370645844698006

>  <m_score__min__rmsd>  (68) 
4.370645844698006

>  <meeko>  (68) 
{"free_energy": -8.44, "intermolecular_energy": -9.93, "internal_energy": -1.51, "cluster_size": 3, "cluster_id": 4, "rank_in_cluster": 1}

>  <energy>  (68) 
-8.45

>  <cluster_rmsd>  (68) 
1.6

>  <cluster>  (68) 
1

$$$$

     RDKit          3D

 51 54  0  0  0  0  0  0  0  0999 V2000
  140.1350   74.3890  220.8610 O   0  0  0  0  0  0  0  0  0  0  0  0
  139.3560   74.8690  221.7220 C   0  0  0  0  0  0  0  0  0  0  0  0
  138.3900   73.9790  222.2780 N   0  0  0  0  0  0  0  0  0  0  0  0
  138.3820   72.6090  221.8130 C   0  0  0  0  0  0  0  0  0  0  0  0
  139.4360   71.7910  222.4250 C   0  0  0  0  0  0  0  0  0  0  0  0
  140.6460   72.1230  222.5140 O   0  0  0  0  0  0  0  0  0  0  0  0
  139.0740   70.5260  222.9640 N   0  0  0  0  0  0  0  0  0  0  0  0
  139.5970   69.3160  222.3940 C   0  0  0  0  0  0  0  0  0  0  0  0
  138.7180   68.1310  222.6230 C   0  0  0  0  0  0  0  0  0  0  0  0
  137.2700   68.4290  222.8090 C   0  0  0  0  0  0  0  0  0  0  0  0
  136.9580   69.5860  223.7010 C   0  0  0  0  0  0  0  0  0  0  0  0
  138.1690   70.3940  224.0990 C   0  0  1  0  0  0  0  0  0  0  0  0
  138.9330   69.8170  225.2230 C   0  0  0  0  0  0  0  0  0  0  0  0
  138.7740   68.5640  225.7260 C   0  0  0  0  0  0  0  0  0  0  0  0
  139.5170   68.0640  226.7860 C   0  0  0  0  0  0  0  0  0  0  0  0
  140.4810   68.8700  227.3780 C   0  0  0  0  0  0  0  0  0  0  0  0
  141.4190   68.2410  228.7130 Cl  0  0  0  0  0  0  0  0  0  0  0  0
  140.6440   70.1390  226.8680 C   0  0  0  0  0  0  0  0  0  0  0  0
  139.8950   70.6270  225.8100 C   0  0  0  0  0  0  0  0  0  0  0  0
  139.4020   76.2610  222.1610 C   0  0  0  0  0  0  0  0  0  0  0  0
  138.2140   76.9550  222.2880 C   0  0  0  0  0  0  0  0  0  0  0  0
  138.1790   78.2780  222.7000 C   0  0  0  0  0  0  0  0  0  0  0  0
  139.4060   78.8640  222.9750 C   0  0  0  0  0  0  0  0  0  0  0  0
  139.4170   80.1840  223.3870 C   0  0  0  0  0  0  0  0  0  0  0  0
  140.6410   80.7780  223.6640 C   0  0  0  0  0  0  0  0  0  0  0  0
  141.8200   80.0640  223.5290 C   0  0  0  0  0  0  0  0  0  0  0  0
  143.3060   80.8880  223.8970 Cl  0  0  0  0  0  0  0  0  0  0  0  0
  141.7540   78.7520  223.1150 C   0  0  0  0  0  0  0  0  0  0  0  0
  140.5560   78.1320  222.8310 C   0  0  0  0  0  0  0  0  0  0  0  0
  140.5630   76.8530  222.4320 N   0  0  0  0  0  0  0  0  0  0  0  0
  137.7030   74.2890  222.9990 H   0  0  0  0  0  0  0  0  0  0  0  0
  137.4063   72.1622  222.0547 H   0  0  0  0  0  0  0  0  0  0  0  0
  138.5669   72.6277  220.7288 H   0  0  0  0  0  0  0  0  0  0  0  0
  139.7125   69.4615  221.3098 H   0  0  0  0  0  0  0  0  0  0  0  0
  140.5583   69.1106  222.8876 H   0  0  0  0  0  0  0  0  0  0  0  0
  138.8171   67.4634  221.7544 H   0  0  0  0  0  0  0  0  0  0  0  0
  139.0568   67.6838  223.5692 H   0  0  0  0  0  0  0  0  0  0  0  0
  136.8379   68.6386  221.8194 H   0  0  0  0  0  0  0  0  0  0  0  0
  136.8420   67.5444  223.3032 H   0  0  0  0  0  0  0  0  0  0  0  0
  136.2561   70.2498  223.1749 H   0  0  0  0  0  0  0  0  0  0  0  0
  136.5325   69.1706  224.6264 H   0  0  0  0  0  0  0  0  0  0  0  0
  137.7773   71.3683  224.4267 H   0  0  0  0  0  0  0  0  0  0  0  0
  138.0158   67.9116  225.2682 H   0  0  0  0  0  0  0  0  0  0  0  0
  139.3446   67.0415  227.1531 H   0  0  0  0  0  0  0  0  0  0  0  0
  141.4027   70.7940  227.3210 H   0  0  0  0  0  0  0  0  0  0  0  0
  140.0614   71.6487  225.4379 H   0  0  0  0  0  0  0  0  0  0  0  0
  137.2687   76.4428  222.0554 H   0  0  0  0  0  0  0  0  0  0  0  0
  137.2336   78.8309  222.8029 H   0  0  0  0  0  0  0  0  0  0  0  0
  138.4793   80.7494  223.4926 H   0  0  0  0  0  0  0  0  0  0  0  0
  140.6747   81.8267  223.9942 H   0  0  0  0  0  0  0  0  0  0  0  0
  142.6876   78.1803  223.0075 H   0  0  0  0  0  0  0  0  0  0  0  0
  1  2  2  0
  2  3  1  0
  3  4  1  0
  4  5  1  0
  5  6  2  0
  5  7  1  0
  7  8  1  0
  8  9  1  0
  9 10  1  0
 10 11  1  0
 11 12  1  0
 12 13  1  0
 13 14  2  0
 14 15  1  0
 15 16  2  0
 16 17  1  0
 16 18  1  0
 18 19  2  0
  2 20  1  0
 20 21  2  0
 21 22  1  0
 22 23  2  0
 23 24  1  0
 24 25  2  0
 25 26  1  0
 26 27  1  0
 26 28  2  0
 28 29  1  0
 29 30  2  0
 12  7  1  0
 19 13  1  0
 30 20  1  0
 29 23  1  0
  3 31  1  0
  4 32  1  0
  4 33  1  0
  8 34  1  0
  8 35  1  0
  9 36  1  0
  9 37  1  0
 10 38  1  0
 10 39  1  0
 11 40  1  0
 11 41  1  0
 12 42  1  1
 14 43  1  0
 15 44  1  0
 18 45  1  0
 19 46  1  0
 21 47  1  0
 22 48  1  0
 24 49  1  0
 25 50  1  0
 28 51  1  0
M  END
>  <smiles>  (69) 
O=C(NCC(=O)N1CCCCC1c1ccc(Cl)cc1)c1ccc2ccc(Cl)cc2n1

>  <score_type>  (69) 
oracle

>  <origin>  (69) 
autodockgpu

>  <m_score__min__energy>  (69) 
-9.0199999999999996

>  <m_primary>  (69) 
energy

>  <rmsd>  (69) 
8.085705009483076

>  <m_score__min__rmsd>  (69) 
8.085705009483076

>  <meeko>  (69) 
{"free_energy": -8.82, "intermolecular_energy": -10.31, "internal_energy": -1.28, "cluster_size": 25, "cluster_id": 1, "rank_in_cluster": 6}

>  <energy>  (69) 
-8.18

>  <cluster_rmsd>  (69) 
1.01

>  <cluster>  (69) 
1

$$$$

     RDKit          3D

 51 54  0  0  0  0  0  0  0  0999 V2000
  141.4170   72.9700  221.9440 O   0  0  0  0  0  0  0  0  0  0  0  0
  140.3080   72.7400  222.4880 C   0  0  0  0  0  0  0  0  0  0  0  0
  139.3040   73.7420  222.3420 N   0  0  0  0  0  0  0  0  0  0  0  0
  139.6360   74.9310  221.5880 C   0  0  0  0  0  0  0  0  0  0  0  0
  138.4520   75.6340  221.0780 C   0  0  0  0  0  0  0  0  0  0  0  0
  137.6090   75.1440  220.2830 O   0  0  0  0  0  0  0  0  0  0  0  0
  138.2300   76.9700  221.5110 N   0  0  0  0  0  0  0  0  0  0  0  0
  137.5200   77.2310  222.7320 C   0  0  0  0  0  0  0  0  0  0  0  0
  136.8530   78.5660  222.7500 C   0  0  0  0  0  0  0  0  0  0  0  0
  136.4870   79.1230  221.4170 C   0  0  0  0  0  0  0  0  0  0  0  0
  137.5290   78.9890  220.3540 C   0  0  0  0  0  0  0  0  0  0  0  0
  138.6990   78.1230  220.7510 C   0  0  1  0  0  0  0  0  0  0  0  0
  139.7140   78.8200  221.5670 C   0  0  0  0  0  0  0  0  0  0  0  0
  139.8490   80.1680  221.6770 C   0  0  0  0  0  0  0  0  0  0  0  0
  140.8200   80.7790  222.4570 C   0  0  0  0  0  0  0  0  0  0  0  0
  141.7110   79.9900  223.1720 C   0  0  0  0  0  0  0  0  0  0  0  0
  142.9340   80.7580  224.1560 Cl  0  0  0  0  0  0  0  0  0  0  0  0
  141.5740   78.6230  223.0620 C   0  0  0  0  0  0  0  0  0  0  0  0
  140.6010   78.0250  222.2790 C   0  0  0  0  0  0  0  0  0  0  0  0
  140.0200   71.5230  223.2410 C   0  0  0  0  0  0  0  0  0  0  0  0
  139.2100   70.5630  222.6630 C   0  0  0  0  0  0  0  0  0  0  0  0
  138.8930   69.3830  223.3160 C   0  0  0  0  0  0  0  0  0  0  0  0
  139.4340   69.2220  224.5840 C   0  0  0  0  0  0  0  0  0  0  0  0
  139.1420   68.0580  225.2710 C   0  0  0  0  0  0  0  0  0  0  0  0
  139.6790   67.8890  226.5400 C   0  0  0  0  0  0  0  0  0  0  0  0
  140.4870   68.8640  227.1000 C   0  0  0  0  0  0  0  0  0  0  0  0
  141.1170   68.5690  228.6940 Cl  0  0  0  0  0  0  0  0  0  0  0  0
  140.7480   70.0050  226.3740 C   0  0  0  0  0  0  0  0  0  0  0  0
  140.2300   70.2040  225.1120 C   0  0  0  0  0  0  0  0  0  0  0  0
  140.5230   71.3380  224.4600 N   0  0  0  0  0  0  0  0  0  0  0  0
  138.3540   73.6380  222.7600 H   0  0  0  0  0  0  0  0  0  0  0  0
  140.1963   75.6158  222.2415 H   0  0  0  0  0  0  0  0  0  0  0  0
  140.2317   74.6149  220.7190 H   0  0  0  0  0  0  0  0  0  0  0  0
  136.7519   76.4545  222.8626 H   0  0  0  0  0  0  0  0  0  0  0  0
  138.2581   77.2232  223.5476 H   0  0  0  0  0  0  0  0  0  0  0  0
  135.9311   78.4753  223.3432 H   0  0  0  0  0  0  0  0  0  0  0  0
  137.5896   79.2638  223.1748 H   0  0  0  0  0  0  0  0  0  0  0  0
  135.5810   78.6043  221.0704 H   0  0  0  0  0  0  0  0  0  0  0  0
  136.3493   80.2036  221.5695 H   0  0  0  0  0  0  0  0  0  0  0  0
  137.0593   78.5490  219.4620 H   0  0  0  0  0  0  0  0  0  0  0  0
  137.9268   79.9975  220.1676 H   0  0  0  0  0  0  0  0  0  0  0  0
  139.1770   77.8254  219.8060 H   0  0  0  0  0  0  0  0  0  0  0  0
  139.1512   80.8086  221.1178 H   0  0  0  0  0  0  0  0  0  0  0  0
  140.8833   81.8760  222.5084 H   0  0  0  0  0  0  0  0  0  0  0  0
  142.2684   77.9785  223.6210 H   0  0  0  0  0  0  0  0  0  0  0  0
  140.5317   76.9287  222.2219 H   0  0  0  0  0  0  0  0  0  0  0  0
  138.8057   70.7413  221.6557 H   0  0  0  0  0  0  0  0  0  0  0  0
  138.2499   68.6181  222.8563 H   0  0  0  0  0  0  0  0  0  0  0  0
  138.5001   67.2851  224.8231 H   0  0  0  0  0  0  0  0  0  0  0  0
  139.4604   66.9715  227.1061 H   0  0  0  0  0  0  0  0  0  0  0  0
  141.3899   70.7818  226.8150 H   0  0  0  0  0  0  0  0  0  0  0  0
  1  2  2  0
  2  3  1  0
  3  4  1  0
  4  5  1  0
  5  6  2  0
  5  7  1  0
  7  8  1  0
  8  9  1  0
  9 10  1  0
 10 11  1  0
 11 12  1  0
 12 13  1  0
 13 14  2  0
 14 15  1  0
 15 16  2  0
 16 17  1  0
 16 18  1  0
 18 19  2  0
  2 20  1  0
 20 21  2  0
 21 22  1  0
 22 23  2  0
 23 24  1  0
 24 25  2  0
 25 26  1  0
 26 27  1  0
 26 28  2  0
 28 29  1  0
 29 30  2  0
 12  7  1  0
 19 13  1  0
 30 20  1  0
 29 23  1  0
  3 31  1  0
  4 32  1  0
  4 33  1  0
  8 34  1  0
  8 35  1  0
  9 36  1  0
  9 37  1  0
 10 38  1  0
 10 39  1  0
 11 40  1  0
 11 41  1  0
 12 42  1  6
 14 43  1  0
 15 44  1  0
 18 45  1  0
 19 46  1  0
 21 47  1  0
 22 48  1  0
 24 49  1  0
 25 50  1  0
 28 51  1  0
M  END
>  <smiles>  (70) 
O=C(NCC(=O)N1CCCCC1c1ccc(Cl)cc1)c1ccc2ccc(Cl)cc2n1

>  <score_type>  (70) 
oracle

>  <origin>  (70) 
autodockgpu

>  <m_score__min__energy>  (70) 
-9.0199999999999996

>  <m_primary>  (70) 
energy

>  <rmsd>  (70) 
3.4637487501805952

>  <m_score__min__rmsd>  (70) 
3.4637487501805952

>  <meeko>  (70) 
{"free_energy": -8.24, "intermolecular_energy": -9.73, "internal_energy": -1.35, "cluster_size": 3, "cluster_id": 3, "rank_in_cluster": 2}

>  <energy>  (70) 
-8.18

>  <cluster_rmsd>  (70) 
1.08

>  <cluster>  (70) 
1

$$$$

     RDKit          3D

 51 54  0  0  0  0  0  0  0  0999 V2000
  139.7650   72.7140  220.6930 O   0  0  0  0  0  0  0  0  0  0  0  0
  139.1710   72.6600  221.7980 C   0  0  0  0  0  0  0  0  0  0  0  0
  138.4330   73.8180  222.1850 N   0  0  0  0  0  0  0  0  0  0  0  0
  138.4280   74.9510  221.2850 C   0  0  0  0  0  0  0  0  0  0  0  0
  138.7350   76.2180  221.9600 C   0  0  0  0  0  0  0  0  0  0  0  0
  137.9830   76.7950  222.7870 O   0  0  0  0  0  0  0  0  0  0  0  0
  139.9750   76.8490  221.6670 N   0  0  0  0  0  0  0  0  0  0  0  0
  140.7530   77.4480  222.7160 C   0  0  0  0  0  0  0  0  0  0  0  0
  141.6470   78.5410  222.2330 C   0  0  0  0  0  0  0  0  0  0  0  0
  141.1970   79.2450  220.9990 C   0  0  0  0  0  0  0  0  0  0  0  0
  140.6840   78.3650  219.9050 C   0  0  0  0  0  0  0  0  0  0  0  0
  140.5100   76.9220  220.3130 C   0  0  1  0  0  0  0  0  0  0  0  0
  141.7570   76.1320  220.2760 C   0  0  0  0  0  0  0  0  0  0  0  0
  142.9330   76.5380  219.7290 C   0  0  0  0  0  0  0  0  0  0  0  0
  144.0810   75.7590  219.7170 C   0  0  0  0  0  0  0  0  0  0  0  0
  144.0490   74.4950  220.2900 C   0  0  0  0  0  0  0  0  0  0  0  0
  145.4950   73.5130  220.2770 Cl  0  0  0  0  0  0  0  0  0  0  0  0
  142.8580   74.0830  220.8450 C   0  0  0  0  0  0  0  0  0  0  0  0
  141.7180   74.8700  220.8500 C   0  0  0  0  0  0  0  0  0  0  0  0
  139.2060   71.4910  222.6740 C   0  0  0  0  0  0  0  0  0  0  0  0
  138.6530   70.3090  222.2210 C   0  0  0  0  0  0  0  0  0  0  0  0
  138.6490   69.1590  222.9940 C   0  0  0  0  0  0  0  0  0  0  0  0
  139.2320   69.2650  224.2490 C   0  0  0  0  0  0  0  0  0  0  0  0
  139.2480   68.1410  225.0540 C   0  0  0  0  0  0  0  0  0  0  0  0
  139.8300   68.2400  226.3110 C   0  0  0  0  0  0  0  0  0  0  0  0
  140.3770   69.4350  226.7450 C   0  0  0  0  0  0  0  0  0  0  0  0
  141.0830   69.4670  228.3340 Cl  0  0  0  0  0  0  0  0  0  0  0  0
  140.3350   70.5250  225.9050 C   0  0  0  0  0  0  0  0  0  0  0  0
  139.7650   70.4620  224.6510 C   0  0  0  0  0  0  0  0  0  0  0  0
  139.7560   71.5610  223.8830 N   0  0  0  0  0  0  0  0  0  0  0  0
  137.9090   73.8640  223.0860 H   0  0  0  0  0  0  0  0  0  0  0  0
  139.1802   74.7797  220.5009 H   0  0  0  0  0  0  0  0  0  0  0  0
  137.4139   75.0366  220.8676 H   0  0  0  0  0  0  0  0  0  0  0  0
  140.0656   77.8645  223.4670 H   0  0  0  0  0  0  0  0  0  0  0  0
  141.3962   76.6610  223.1366 H   0  0  0  0  0  0  0  0  0  0  0  0
  141.7324   79.2877  223.0362 H   0  0  0  0  0  0  0  0  0  0  0  0
  142.5994   78.0565  221.9718 H   0  0  0  0  0  0  0  0  0  0  0  0
  140.3920   79.9399  221.2801 H   0  0  0  0  0  0  0  0  0  0  0  0
  142.0906   79.7413  220.5924 H   0  0  0  0  0  0  0  0  0  0  0  0
  139.7081   78.7526  219.5773 H   0  0  0  0  0  0  0  0  0  0  0  0
  141.4357   78.3819  219.1020 H   0  0  0  0  0  0  0  0  0  0  0  0
  139.8189   76.4897  219.5744 H   0  0  0  0  0  0  0  0  0  0  0  0
  142.9770   77.5374  219.2715 H   0  0  0  0  0  0  0  0  0  0  0  0
  145.0061   76.1387  219.2586 H   0  0  0  0  0  0  0  0  0  0  0  0
  142.8097   73.0848  221.3047 H   0  0  0  0  0  0  0  0  0  0  0  0
  140.7890   74.4969  221.3057 H   0  0  0  0  0  0  0  0  0  0  0  0
  138.2029   70.2798  221.2177 H   0  0  0  0  0  0  0  0  0  0  0  0
  138.2094   68.2171  222.6340 H   0  0  0  0  0  0  0  0  0  0  0  0
  138.8110   67.1928  224.7077 H   0  0  0  0  0  0  0  0  0  0  0  0
  139.8566   67.3589  226.9690 H   0  0  0  0  0  0  0  0  0  0  0  0
  140.7700   71.4764  226.2450 H   0  0  0  0  0  0  0  0  0  0  0  0
  1  2  2  0
  2  3  1  0
  3  4  1  0
  4  5  1  0
  5  6  2  0
  5  7  1  0
  7  8  1  0
  8  9  1  0
  9 10  1  0
 10 11  1  0
 11 12  1  0
 12 13  1  0
 13 14  2  0
 14 15  1  0
 15 16  2  0
 16 17  1  0
 16 18  1  0
 18 19  2  0
  2 20  1  0
 20 21  2  0
 21 22  1  0
 22 23  2  0
 23 24  1  0
 24 25  2  0
 25 26  1  0
 26 27  1  0
 26 28  2  0
 28 29  1  0
 29 30  2  0
 12  7  1  0
 19 13  1  0
 30 20  1  0
 29 23  1  0
  3 31  1  0
  4 32  1  0
  4 33  1  0
  8 34  1  0
  8 35  1  0
  9 36  1  0
  9 37  1  0
 10 38  1  0
 10 39  1  0
 11 40  1  0
 11 41  1  0
 12 42  1  6
 14 43  1  0
 15 44  1  0
 18 45  1  0
 19 46  1  0
 21 47  1  0
 22 48  1  0
 24 49  1  0
 25 50  1  0
 28 51  1  0
M  END
>  <smiles>  (71) 
O=C(NCC(=O)N1CCCCC1c1ccc(Cl)cc1)c1ccc2ccc(Cl)cc2n1

>  <score_type>  (71) 
oracle

>  <origin>  (71) 
autodockgpu

>  <m_score__min__energy>  (71) 
-9.0199999999999996

>  <m_primary>  (71) 
energy

>  <rmsd>  (71) 
2.8858970652552203

>  <m_score__min__rmsd>  (71) 
2.8858970652552203

>  <meeko>  (71) 
{"free_energy": -8.35, "intermolecular_energy": -9.85, "internal_energy": -1.78, "cluster_size": 6, "cluster_id": 5, "rank_in_cluster": 1}

>  <energy>  (71) 
-8.17

>  <cluster_rmsd>  (71) 
1.16

>  <cluster>  (71) 
1

$$$$

     RDKit          3D

 51 54  0  0  0  0  0  0  0  0999 V2000
  139.5280   72.7290  220.4780 O   0  0  0  0  0  0  0  0  0  0  0  0
  139.0500   72.7430  221.6400 C   0  0  0  0  0  0  0  0  0  0  0  0
  138.4140   73.9490  222.0560 N   0  0  0  0  0  0  0  0  0  0  0  0
  138.3710   75.0510  221.1190 C   0  0  0  0  0  0  0  0  0  0  0  0
  138.6270   76.3500  221.7530 C   0  0  0  0  0  0  0  0  0  0  0  0
  137.7980   76.9890  222.4490 O   0  0  0  0  0  0  0  0  0  0  0  0
  139.9090   76.9410  221.5740 N   0  0  0  0  0  0  0  0  0  0  0  0
  140.6460   77.4360  222.7030 C   0  0  0  0  0  0  0  0  0  0  0  0
  141.6130   78.5150  222.3450 C   0  0  0  0  0  0  0  0  0  0  0  0
  141.2700   79.3140  221.1350 C   0  0  0  0  0  0  0  0  0  0  0  0
  140.7880   78.5280  219.9580 C   0  0  0  0  0  0  0  0  0  0  0  0
  140.5280   77.0730  220.2610 C   0  0  1  0  0  0  0  0  0  0  0  0
  141.7410   76.2290  220.2460 C   0  0  0  0  0  0  0  0  0  0  0  0
  142.9440   76.5850  219.7220 C   0  0  0  0  0  0  0  0  0  0  0  0
  144.0570   75.7570  219.7310 C   0  0  0  0  0  0  0  0  0  0  0  0
  143.9590   74.4950  220.3000 C   0  0  0  0  0  0  0  0  0  0  0  0
  145.3610   73.4510  220.3120 Cl  0  0  0  0  0  0  0  0  0  0  0  0
  142.7400   74.1340  220.8320 C   0  0  0  0  0  0  0  0  0  0  0  0
  141.6360   74.9690  220.8160 C   0  0  0  0  0  0  0  0  0  0  0  0
  139.1190   71.6030  222.5520 C   0  0  0  0  0  0  0  0  0  0  0  0
  138.6070   70.3890  222.1330 C   0  0  0  0  0  0  0  0  0  0  0  0
  138.6370   69.2650  222.9420 C   0  0  0  0  0  0  0  0  0  0  0  0
  139.2100   69.4280  224.1950 C   0  0  0  0  0  0  0  0  0  0  0  0
  139.2600   68.3310  225.0340 C   0  0  0  0  0  0  0  0  0  0  0  0
  139.8320   68.4860  226.2900 C   0  0  0  0  0  0  0  0  0  0  0  0
  140.3380   69.7120  226.6880 C   0  0  0  0  0  0  0  0  0  0  0  0
  141.0350   69.8150  228.2780 Cl  0  0  0  0  0  0  0  0  0  0  0  0
  140.2640   70.7740  225.8150 C   0  0  0  0  0  0  0  0  0  0  0  0
  139.7020   70.6540  224.5620 C   0  0  0  0  0  0  0  0  0  0  0  0
  139.6610   71.7280  223.7600 N   0  0  0  0  0  0  0  0  0  0  0  0
  137.9890   74.0530  223.0030 H   0  0  0  0  0  0  0  0  0  0  0  0
  139.1330   74.8825  220.3438 H   0  0  0  0  0  0  0  0  0  0  0  0
  137.3565   75.0847  220.6952 H   0  0  0  0  0  0  0  0  0  0  0  0
  139.9325   77.8356  223.4386 H   0  0  0  0  0  0  0  0  0  0  0  0
  141.2285   76.5953  223.1079 H   0  0  0  0  0  0  0  0  0  0  0  0
  141.6800   79.2058  223.1984 H   0  0  0  0  0  0  0  0  0  0  0  0
  142.5585   78.0045  222.1094 H   0  0  0  0  0  0  0  0  0  0  0  0
  140.4796   80.0268  221.4128 H   0  0  0  0  0  0  0  0  0  0  0  0
  142.2071   79.7925  220.8143 H   0  0  0  0  0  0  0  0  0  0  0  0
  139.8515   78.9800  219.5994 H   0  0  0  0  0  0  0  0  0  0  0  0
  141.5876   78.5596  219.2032 H   0  0  0  0  0  0  0  0  0  0  0  0
  139.8654   76.7202  219.4569 H   0  0  0  0  0  0  0  0  0  0  0  0
  143.0398   77.5819  219.2670 H   0  0  0  0  0  0  0  0  0  0  0  0
  145.0066   76.0969  219.2920 H   0  0  0  0  0  0  0  0  0  0  0  0
  142.6399   73.1386  221.2894 H   0  0  0  0  0  0  0  0  0  0  0  0
  140.6827   74.6357  221.2520 H   0  0  0  0  0  0  0  0  0  0  0  0
  138.1634   70.3136  221.1292 H   0  0  0  0  0  0  0  0  0  0  0  0
  138.2298   68.2986  222.6100 H   0  0  0  0  0  0  0  0  0  0  0  0
  138.8565   67.3587  224.7148 H   0  0  0  0  0  0  0  0  0  0  0  0
  139.8836   67.6269  226.9750 H   0  0  0  0  0  0  0  0  0  0  0  0
  140.6661   71.7491  226.1272 H   0  0  0  0  0  0  0  0  0  0  0  0
  1  2  2  0
  2  3  1  0
  3  4  1  0
  4  5  1  0
  5  6  2  0
  5  7  1  0
  7  8  1  0
  8  9  1  0
  9 10  1  0
 10 11  1  0
 11 12  1  0
 12 13  1  0
 13 14  2  0
 14 15  1  0
 15 16  2  0
 16 17  1  0
 16 18  1  0
 18 19  2  0
  2 20  1  0
 20 21  2  0
 21 22  1  0
 22 23  2  0
 23 24  1  0
 24 25  2  0
 25 26  1  0
 26 27  1  0
 26 28  2  0
 28 29  1  0
 29 30  2  0
 12  7  1  0
 19 13  1  0
 30 20  1  0
 29 23  1  0
  3 31  1  0
  4 32  1  0
  4 33  1  0
  8 34  1  0
  8 35  1  0
  9 36  1  0
  9 37  1  0
 10 38  1  0
 10 39  1  0
 11 40  1  0
 11 41  1  0
 12 42  1  6
 14 43  1  0
 15 44  1  0
 18 45  1  0
 19 46  1  0
 21 47  1  0
 22 48  1  0
 24 49  1  0
 25 50  1  0
 28 51  1  0
M  END
>  <smiles>  (72) 
O=C(NCC(=O)N1CCCCC1c1ccc(Cl)cc1)c1ccc2ccc(Cl)cc2n1

>  <score_type>  (72) 
oracle

>  <origin>  (72) 
autodockgpu

>  <m_score__min__energy>  (72) 
-9.0199999999999996

>  <m_primary>  (72) 
energy

>  <rmsd>  (72) 
2.9185950319707543

>  <m_score__min__rmsd>  (72) 
2.9185950319707543

>  <meeko>  (72) 
{"free_energy": -8.2, "intermolecular_energy": -9.7, "internal_energy": -1.83, "cluster_size": 6, "cluster_id": 5, "rank_in_cluster": 6}

>  <energy>  (72) 
-8.15

>  <cluster_rmsd>  (72) 
1.16

>  <cluster>  (72) 
1

$$$$

     RDKit          3D

 51 54  0  0  0  0  0  0  0  0999 V2000
  140.8890   74.4420  220.6290 O   0  0  0  0  0  0  0  0  0  0  0  0
  140.1490   75.0660  221.4290 C   0  0  0  0  0  0  0  0  0  0  0  0
  139.1020   74.3210  222.0460 N   0  0  0  0  0  0  0  0  0  0  0  0
  138.9750   72.9200  221.7070 C   0  0  0  0  0  0  0  0  0  0  0  0
  139.8560   72.0570  222.5030 C   0  0  0  0  0  0  0  0  0  0  0  0
  141.0680   72.2900  222.7440 O   0  0  0  0  0  0  0  0  0  0  0  0
  139.3080   70.8640  223.0500 N   0  0  0  0  0  0  0  0  0  0  0  0
  139.6020   69.5890  222.4560 C   0  0  0  0  0  0  0  0  0  0  0  0
  138.5470   68.5650  222.7130 C   0  0  0  0  0  0  0  0  0  0  0  0
  137.1760   69.0960  222.9540 C   0  0  0  0  0  0  0  0  0  0  0  0
  137.0940   70.2800  223.8630 C   0  0  0  0  0  0  0  0  0  0  0  0
  138.4360   70.8720  224.2180 C   0  0  1  0  0  0  0  0  0  0  0  0
  139.1350   70.1650  225.3100 C   0  0  0  0  0  0  0  0  0  0  0  0
  138.8380   68.9170  225.7600 C   0  0  0  0  0  0  0  0  0  0  0  0
  139.5240   68.2920  226.7910 C   0  0  0  0  0  0  0  0  0  0  0  0
  140.5730   68.9580  227.4090 C   0  0  0  0  0  0  0  0  0  0  0  0
  141.4390   68.1710  228.7080 Cl  0  0  0  0  0  0  0  0  0  0  0  0
  140.8760   70.2220  226.9530 C   0  0  0  0  0  0  0  0  0  0  0  0
  140.1830   70.8360  225.9230 C   0  0  0  0  0  0  0  0  0  0  0  0
  140.3170   76.4830  221.7410 C   0  0  0  0  0  0  0  0  0  0  0  0
  141.4330   77.1390  221.2570 C   0  0  0  0  0  0  0  0  0  0  0  0
  141.6590   78.4820  221.5110 C   0  0  0  0  0  0  0  0  0  0  0  0
  140.7010   79.1290  222.2790 C   0  0  0  0  0  0  0  0  0  0  0  0
  140.8900   80.4700  222.5570 C   0  0  0  0  0  0  0  0  0  0  0  0
  139.9360   81.1250  223.3250 C   0  0  0  0  0  0  0  0  0  0  0  0
  138.8250   80.4470  223.8000 C   0  0  0  0  0  0  0  0  0  0  0  0
  137.6820   81.3460  224.7540 Cl  0  0  0  0  0  0  0  0  0  0  0  0
  138.6850   79.1120  223.4950 C   0  0  0  0  0  0  0  0  0  0  0  0
  139.6130   78.4320  222.7360 C   0  0  0  0  0  0  0  0  0  0  0  0
  139.4160   77.1320  222.4760 N   0  0  0  0  0  0  0  0  0  0  0  0
  138.4380   74.7550  222.7240 H   0  0  0  0  0  0  0  0  0  0  0  0
  137.9333   72.6107  221.8777 H   0  0  0  0  0  0  0  0  0  0  0  0
  139.2682   72.8079  220.6527 H   0  0  0  0  0  0  0  0  0  0  0  0
  139.7011   69.7240  221.3688 H   0  0  0  0  0  0  0  0  0  0  0  0
  140.5330   69.2218  222.9125 H   0  0  0  0  0  0  0  0  0  0  0  0
  138.5025   67.8989  221.8388 H   0  0  0  0  0  0  0  0  0  0  0  0
  138.8407   68.0594  223.6447 H   0  0  0  0  0  0  0  0  0  0  0  0
  136.7490   69.3848  221.9823 H   0  0  0  0  0  0  0  0  0  0  0  0
  136.6246   68.2893  223.4591 H   0  0  0  0  0  0  0  0  0  0  0  0
  136.4931   71.0565  223.3671 H   0  0  0  0  0  0  0  0  0  0  0  0
  136.6403   69.9308  224.8023 H   0  0  0  0  0  0  0  0  0  0  0  0
  138.2234   71.8941  224.5645 H   0  0  0  0  0  0  0  0  0  0  0  0
  138.0098   68.3741  225.2811 H   0  0  0  0  0  0  0  0  0  0  0  0
  139.2397   67.2800  227.1150 H   0  0  0  0  0  0  0  0  0  0  0  0
  141.7048   70.7677  227.4278 H   0  0  0  0  0  0  0  0  0  0  0  0
  140.4615   71.8479  225.5936 H   0  0  0  0  0  0  0  0  0  0  0  0
  142.1623   76.5791  220.6532 H   0  0  0  0  0  0  0  0  0  0  0  0
  142.5466   79.0054  221.1261 H   0  0  0  0  0  0  0  0  0  0  0  0
  141.7739   81.0049  222.1794 H   0  0  0  0  0  0  0  0  0  0  0  0
  140.0637   82.1923  223.5584 H   0  0  0  0  0  0  0  0  0  0  0  0
  137.8038   78.5703  223.8692 H   0  0  0  0  0  0  0  0  0  0  0  0
  1  2  2  0
  2  3  1  0
  3  4  1  0
  4  5  1  0
  5  6  2  0
  5  7  1  0
  7  8  1  0
  8  9  1  0
  9 10  1  0
 10 11  1  0
 11 12  1  0
 12 13  1  0
 13 14  2  0
 14 15  1  0
 15 16  2  0
 16 17  1  0
 16 18  1  0
 18 19  2  0
  2 20  1  0
 20 21  2  0
 21 22  1  0
 22 23  2  0
 23 24  1  0
 24 25  2  0
 25 26  1  0
 26 27  1  0
 26 28  2  0
 28 29  1  0
 29 30  2  0
 12  7  1  0
 19 13  1  0
 30 20  1  0
 29 23  1  0
  3 31  1  0
  4 32  1  0
  4 33  1  0
  8 34  1  0
  8 35  1  0
  9 36  1  0
  9 37  1  0
 10 38  1  0
 10 39  1  0
 11 40  1  0
 11 41  1  0
 12 42  1  1
 14 43  1  0
 15 44  1  0
 18 45  1  0
 19 46  1  0
 21 47  1  0
 22 48  1  0
 24 49  1  0
 25 50  1  0
 28 51  1  0
M  END
>  <smiles>  (73) 
O=C(NCC(=O)N1CCCCC1c1ccc(Cl)cc1)c1ccc2ccc(Cl)cc2n1

>  <score_type>  (73) 
oracle

>  <origin>  (73) 
autodockgpu

>  <m_score__min__energy>  (73) 
-9.0199999999999996

>  <m_primary>  (73) 
energy

>  <rmsd>  (73) 
8.229317420081816

>  <m_score__min__rmsd>  (73) 
8.229317420081816

>  <meeko>  (73) 
{"free_energy": -8.63, "intermolecular_energy": -10.12, "internal_energy": -1.51, "cluster_size": 25, "cluster_id": 1, "rank_in_cluster": 9}

>  <energy>  (73) 
-8.06

>  <cluster_rmsd>  (73) 
1.09

>  <cluster>  (73) 
1

$$$$

     RDKit          3D

 51 54  0  0  0  0  0  0  0  0999 V2000
  138.0360   74.0160  221.9340 O   0  0  0  0  0  0  0  0  0  0  0  0
  139.0420   74.7520  221.7700 C   0  0  0  0  0  0  0  0  0  0  0  0
  140.1680   74.1610  221.1250 N   0  0  0  0  0  0  0  0  0  0  0  0
  140.0660   72.7770  220.7140 C   0  0  0  0  0  0  0  0  0  0  0  0
  140.6330   71.8470  221.6980 C   0  0  0  0  0  0  0  0  0  0  0  0
  141.8560   71.7440  221.9730 O   0  0  0  0  0  0  0  0  0  0  0  0
  139.7400   70.9920  222.4020 N   0  0  0  0  0  0  0  0  0  0  0  0
  139.5670   69.6260  221.9930 C   0  0  0  0  0  0  0  0  0  0  0  0
  138.2420   69.0600  222.3830 C   0  0  0  0  0  0  0  0  0  0  0  0
  137.1390   70.0490  222.5380 C   0  0  0  0  0  0  0  0  0  0  0  0
  137.4930   71.3020  223.2720 C   0  0  0  0  0  0  0  0  0  0  0  0
  138.9690   71.4490  223.5510 C   0  0  1  0  0  0  0  0  0  0  0  0
  139.4340   70.7010  224.7360 C   0  0  0  0  0  0  0  0  0  0  0  0
  138.7600   69.6920  225.3480 C   0  0  0  0  0  0  0  0  0  0  0  0
  139.2370   69.0160  226.4610 C   0  0  0  0  0  0  0  0  0  0  0  0
  140.4690   69.3730  226.9940 C   0  0  0  0  0  0  0  0  0  0  0  0
  141.0730   68.5220  228.3960 Cl  0  0  0  0  0  0  0  0  0  0  0  0
  141.1540   70.3940  226.3730 C   0  0  0  0  0  0  0  0  0  0  0  0
  140.6660   71.0620  225.2630 C   0  0  0  0  0  0  0  0  0  0  0  0
  139.0970   76.1460  222.2030 C   0  0  0  0  0  0  0  0  0  0  0  0
  137.9110   76.8370  222.3590 C   0  0  0  0  0  0  0  0  0  0  0  0
  137.8840   78.1610  222.7670 C   0  0  0  0  0  0  0  0  0  0  0  0
  139.1170   78.7520  223.0070 C   0  0  0  0  0  0  0  0  0  0  0  0
  139.1350   80.0730  223.4140 C   0  0  0  0  0  0  0  0  0  0  0  0
  140.3650   80.6710  223.6570 C   0  0  0  0  0  0  0  0  0  0  0  0
  141.5410   79.9590  223.4930 C   0  0  0  0  0  0  0  0  0  0  0  0
  143.0340   80.7880  223.8180 Cl  0  0  0  0  0  0  0  0  0  0  0  0
  141.4680   78.6460  223.0850 C   0  0  0  0  0  0  0  0  0  0  0  0
  140.2640   78.0220  222.8350 C   0  0  0  0  0  0  0  0  0  0  0  0
  140.2640   76.7410  222.4400 N   0  0  0  0  0  0  0  0  0  0  0  0
  141.0460   74.6950  220.9460 H   0  0  0  0  0  0  0  0  0  0  0  0
  139.0037   72.5309  220.5696 H   0  0  0  0  0  0  0  0  0  0  0  0
  140.6416   72.6651  219.7833 H   0  0  0  0  0  0  0  0  0  0  0  0
  139.6611   69.5740  220.8983 H   0  0  0  0  0  0  0  0  0  0  0  0
  140.3397   69.0314  222.5022 H   0  0  0  0  0  0  0  0  0  0  0  0
  137.9421   68.3373  221.6098 H   0  0  0  0  0  0  0  0  0  0  0  0
  138.3871   68.6134  223.3777 H   0  0  0  0  0  0  0  0  0  0  0  0
  136.7944   70.3318  221.5324 H   0  0  0  0  0  0  0  0  0  0  0  0
  136.3712   69.5501  223.1476 H   0  0  0  0  0  0  0  0  0  0  0  0
  137.1671   72.1615  222.6679 H   0  0  0  0  0  0  0  0  0  0  0  0
  136.9860   71.2559  224.2471 H   0  0  0  0  0  0  0  0  0  0  0  0
  139.1252   72.5195  223.7502 H   0  0  0  0  0  0  0  0  0  0  0  0
  137.7831   69.3954  224.9384 H   0  0  0  0  0  0  0  0  0  0  0  0
  138.6469   68.2069  226.9162 H   0  0  0  0  0  0  0  0  0  0  0  0
  142.1327   70.6919  226.7772 H   0  0  0  0  0  0  0  0  0  0  0  0
  141.2501   71.8724  224.8024 H   0  0  0  0  0  0  0  0  0  0  0  0
  136.9612   76.3216  222.1535 H   0  0  0  0  0  0  0  0  0  0  0  0
  136.9403   78.7118  222.8934 H   0  0  0  0  0  0  0  0  0  0  0  0
  138.1989   80.6364  223.5422 H   0  0  0  0  0  0  0  0  0  0  0  0
  140.4051   81.7208  223.9830 H   0  0  0  0  0  0  0  0  0  0  0  0
  142.4000   78.0765  222.9543 H   0  0  0  0  0  0  0  0  0  0  0  0
  1  2  2  0
  2  3  1  0
  3  4  1  0
  4  5  1  0
  5  6  2  0
  5  7  1  0
  7  8  1  0
  8  9  1  0
  9 10  1  0
 10 11  1  0
 11 12  1  0
 12 13  1  0
 13 14  2  0
 14 15  1  0
 15 16  2  0
 16 17  1  0
 16 18  1  0
 18 19  2  0
  2 20  1  0
 20 21  2  0
 21 22  1  0
 22 23  2  0
 23 24  1  0
 24 25  2  0
 25 26  1  0
 26 27  1  0
 26 28  2  0
 28 29  1  0
 29 30  2  0
 12  7  1  0
 19 13  1  0
 30 20  1  0
 29 23  1  0
  3 31  1  0
  4 32  1  0
  4 33  1  0
  8 34  1  0
  8 35  1  0
  9 36  1  0
  9 37  1  0
 10 38  1  0
 10 39  1  0
 11 40  1  0
 11 41  1  0
 12 42  1  1
 14 43  1  0
 15 44  1  0
 18 45  1  0
 19 46  1  0
 21 47  1  0
 22 48  1  0
 24 49  1  0
 25 50  1  0
 28 51  1  0
M  END
>  <smiles>  (74) 
O=C(NCC(=O)N1CCCCC1c1ccc(Cl)cc1)c1ccc2ccc(Cl)cc2n1

>  <score_type>  (74) 
oracle

>  <origin>  (74) 
autodockgpu

>  <m_score__min__energy>  (74) 
-9.0199999999999996

>  <m_primary>  (74) 
energy

>  <rmsd>  (74) 
7.662525321895294

>  <m_score__min__rmsd>  (74) 
7.662525321895294

>  <meeko>  (74) 
{"free_energy": -8.17, "intermolecular_energy": -9.66, "internal_energy": -1.77, "cluster_size": 25, "cluster_id": 1, "rank_in_cluster": 21}

>  <energy>  (74) 
-8.04

>  <cluster_rmsd>  (74) 
1.82

>  <cluster>  (74) 
1

$$$$

     RDKit          3D

 51 54  0  0  0  0  0  0  0  0999 V2000
  140.5570   74.6470  220.3280 O   0  0  0  0  0  0  0  0  0  0  0  0
  139.8280   74.8610  221.3290 C   0  0  0  0  0  0  0  0  0  0  0  0
  139.1910   73.7260  221.9120 N   0  0  0  0  0  0  0  0  0  0  0  0
  139.4300   72.4310  221.3110 C   0  0  0  0  0  0  0  0  0  0  0  0
  140.1610   71.5170  222.1970 C   0  0  0  0  0  0  0  0  0  0  0  0
  141.4080   71.5120  222.3570 O   0  0  0  0  0  0  0  0  0  0  0  0
  139.4120   70.5610  222.9380 N   0  0  0  0  0  0  0  0  0  0  0  0
  139.3450   69.1940  222.5020 C   0  0  0  0  0  0  0  0  0  0  0  0
  138.1150   68.4890  222.9690 C   0  0  0  0  0  0  0  0  0  0  0  0
  136.9330   69.3580  223.2320 C   0  0  0  0  0  0  0  0  0  0  0  0
  137.2160   70.6230  223.9750 C   0  0  0  0  0  0  0  0  0  0  0  0
  138.6860   70.9120  224.1520 C   0  0  1  0  0  0  0  0  0  0  0  0
  139.3100   70.1880  225.2780 C   0  0  0  0  0  0  0  0  0  0  0  0
  138.8520   69.0310  225.8240 C   0  0  0  0  0  0  0  0  0  0  0  0
  139.4730   68.3850  226.8830 C   0  0  0  0  0  0  0  0  0  0  0  0
  140.6260   68.9330  227.4290 C   0  0  0  0  0  0  0  0  0  0  0  0
  141.4100   68.1200  228.7630 Cl  0  0  0  0  0  0  0  0  0  0  0  0
  141.0920   70.1050  226.8760 C   0  0  0  0  0  0  0  0  0  0  0  0
  140.4630   70.7410  225.8180 C   0  0  0  0  0  0  0  0  0  0  0  0
  139.6170   76.1890  221.9000 C   0  0  0  0  0  0  0  0  0  0  0  0
  138.3210   76.6310  222.0860 C   0  0  0  0  0  0  0  0  0  0  0  0
  138.0440   77.8780  222.6230 C   0  0  0  0  0  0  0  0  0  0  0  0
  139.1420   78.6560  222.9610 C   0  0  0  0  0  0  0  0  0  0  0  0
  138.9090   79.9080  223.4990 C   0  0  0  0  0  0  0  0  0  0  0  0
  140.0030   80.6930  223.8390 C   0  0  0  0  0  0  0  0  0  0  0  0
  141.2930   80.2300  223.6440 C   0  0  0  0  0  0  0  0  0  0  0  0
  142.6020   81.2800  224.0990 Cl  0  0  0  0  0  0  0  0  0  0  0  0
  141.4700   78.9750  223.1050 C   0  0  0  0  0  0  0  0  0  0  0  0
  140.4070   78.1710  222.7550 C   0  0  0  0  0  0  0  0  0  0  0  0
  140.6500   76.9600  222.2340 N   0  0  0  0  0  0  0  0  0  0  0  0
  138.5680   73.8080  222.7450 H   0  0  0  0  0  0  0  0  0  0  0  0
  138.4604   71.9761  221.0599 H   0  0  0  0  0  0  0  0  0  0  0  0
  140.0504   72.5911  220.4169 H   0  0  0  0  0  0  0  0  0  0  0  0
  139.3622   69.1763  221.4023 H   0  0  0  0  0  0  0  0  0  0  0  0
  140.2084   68.6689  222.9365 H   0  0  0  0  0  0  0  0  0  0  0  0
  137.8317   67.7571  222.1983 H   0  0  0  0  0  0  0  0  0  0  0  0
  138.3771   68.0379  223.9374 H   0  0  0  0  0  0  0  0  0  0  0  0
  136.4879   69.6269  222.2627 H   0  0  0  0  0  0  0  0  0  0  0  0
  136.2652   68.7709  223.8796 H   0  0  0  0  0  0  0  0  0  0  0  0
  136.7629   71.4586  223.4214 H   0  0  0  0  0  0  0  0  0  0  0  0
  136.7904   70.5037  224.9823 H   0  0  0  0  0  0  0  0  0  0  0  0
  138.7488   71.9881  224.3712 H   0  0  0  0  0  0  0  0  0  0  0  0
  137.9398   68.5825  225.4037 H   0  0  0  0  0  0  0  0  0  0  0  0
  139.0569   67.4496  227.2854 H   0  0  0  0  0  0  0  0  0  0  0  0
  142.0044   70.5564  227.2930 H   0  0  0  0  0  0  0  0  0  0  0  0
  140.8737   71.6761  225.4094 H   0  0  0  0  0  0  0  0  0  0  0  0
  137.4860   75.9746  221.7998 H   0  0  0  0  0  0  0  0  0  0  0  0
  137.0129   78.2308  222.7727 H   0  0  0  0  0  0  0  0  0  0  0  0
  137.8830   80.2732  223.6538 H   0  0  0  0  0  0  0  0  0  0  0  0
  139.8428   81.6932  224.2678 H   0  0  0  0  0  0  0  0  0  0  0  0
  142.4931   78.6024  222.9488 H   0  0  0  0  0  0  0  0  0  0  0  0
  1  2  2  0
  2  3  1  0
  3  4  1  0
  4  5  1  0
  5  6  2  0
  5  7  1  0
  7  8  1  0
  8  9  1  0
  9 10  1  0
 10 11  1  0
 11 12  1  0
 12 13  1  0
 13 14  2  0
 14 15  1  0
 15 16  2  0
 16 17  1  0
 16 18  1  0
 18 19  2  0
  2 20  1  0
 20 21  2  0
 21 22  1  0
 22 23  2  0
 23 24  1  0
 24 25  2  0
 25 26  1  0
 26 27  1  0
 26 28  2  0
 28 29  1  0
 29 30  2  0
 12  7  1  0
 19 13  1  0
 30 20  1  0
 29 23  1  0
  3 31  1  0
  4 32  1  0
  4 33  1  0
  8 34  1  0
  8 35  1  0
  9 36  1  0
  9 37  1  0
 10 38  1  0
 10 39  1  0
 11 40  1  0
 11 41  1  0
 12 42  1  1
 14 43  1  0
 15 44  1  0
 18 45  1  0
 19 46  1  0
 21 47  1  0
 22 48  1  0
 24 49  1  0
 25 50  1  0
 28 51  1  0
M  END
>  <smiles>  (75) 
O=C(NCC(=O)N1CCCCC1c1ccc(Cl)cc1)c1ccc2ccc(Cl)cc2n1

>  <score_type>  (75) 
oracle

>  <origin>  (75) 
autodockgpu

>  <m_score__min__energy>  (75) 
-9.0199999999999996

>  <m_primary>  (75) 
energy

>  <rmsd>  (75) 
7.9117911617784715

>  <m_score__min__rmsd>  (75) 
7.9117911617784715

>  <meeko>  (75) 
{"free_energy": -8.88, "intermolecular_energy": -10.37, "internal_energy": -1.22, "cluster_size": 25, "cluster_id": 1, "rank_in_cluster": 5}

>  <energy>  (75) 
-8.0

>  <cluster_rmsd>  (75) 
1.56

>  <cluster>  (75) 
1

$$$$

     RDKit          3D

 51 54  0  0  0  0  0  0  0  0999 V2000
  140.8460   74.9170  221.1760 O   0  0  0  0  0  0  0  0  0  0  0  0
  139.9090   75.3850  221.8710 C   0  0  0  0  0  0  0  0  0  0  0  0
  138.8370   74.4980  222.1810 N   0  0  0  0  0  0  0  0  0  0  0  0
  138.9100   73.1430  221.6770 C   0  0  0  0  0  0  0  0  0  0  0  0
  139.8290   72.2960  222.4470 C   0  0  0  0  0  0  0  0  0  0  0  0
  141.0440   72.5480  222.6500 O   0  0  0  0  0  0  0  0  0  0  0  0
  139.3160   71.0960  223.0140 N   0  0  0  0  0  0  0  0  0  0  0  0
  139.6260   69.8230  222.4240 C   0  0  0  0  0  0  0  0  0  0  0  0
  138.5980   68.7790  222.7090 C   0  0  0  0  0  0  0  0  0  0  0  0
  137.2210   69.2840  222.9720 C   0  0  0  0  0  0  0  0  0  0  0  0
  137.1310   70.4730  223.8720 C   0  0  0  0  0  0  0  0  0  0  0  0
  138.4660   71.0960  224.1980 C   0  0  1  0  0  0  0  0  0  0  0  0
  139.2000   70.4120  225.2820 C   0  0  0  0  0  0  0  0  0  0  0  0
  140.3780   70.8240  225.8200 C   0  0  0  0  0  0  0  0  0  0  0  0
  141.0320   70.1480  226.8400 C   0  0  0  0  0  0  0  0  0  0  0  0
  140.4710   68.9870  227.3520 C   0  0  0  0  0  0  0  0  0  0  0  0
  141.2930   68.1340  228.6380 Cl  0  0  0  0  0  0  0  0  0  0  0  0
  139.2760   68.5690  226.8080 C   0  0  0  0  0  0  0  0  0  0  0  0
  138.6330   69.2520  225.7900 C   0  0  0  0  0  0  0  0  0  0  0  0
  139.8800   76.7630  222.3570 C   0  0  0  0  0  0  0  0  0  0  0  0
  141.0780   77.4340  222.5130 C   0  0  0  0  0  0  0  0  0  0  0  0
  141.1290   78.7420  222.9690 C   0  0  0  0  0  0  0  0  0  0  0  0
  139.9100   79.3360  223.2600 C   0  0  0  0  0  0  0  0  0  0  0  0
  139.9160   80.6400  223.7200 C   0  0  0  0  0  0  0  0  0  0  0  0
  138.7000   81.2410  224.0140 C   0  0  0  0  0  0  0  0  0  0  0  0
  137.5120   80.5490  223.8500 C   0  0  0  0  0  0  0  0  0  0  0  0
  136.0360   81.3800  224.2430 Cl  0  0  0  0  0  0  0  0  0  0  0  0
  137.5600   79.2520  223.3900 C   0  0  0  0  0  0  0  0  0  0  0  0
  138.7500   78.6250  223.0900 C   0  0  0  0  0  0  0  0  0  0  0  0
  138.7270   77.3600  222.6460 N   0  0  0  0  0  0  0  0  0  0  0  0
  138.0170   74.7990  222.7520 H   0  0  0  0  0  0  0  0  0  0  0  0
  137.9047   72.6984  221.7186 H   0  0  0  0  0  0  0  0  0  0  0  0
  139.2927   73.1940  220.6470 H   0  0  0  0  0  0  0  0  0  0  0  0
  139.7015   69.9515  221.3341 H   0  0  0  0  0  0  0  0  0  0  0  0
  140.5732   69.4793  222.8651 H   0  0  0  0  0  0  0  0  0  0  0  0
  138.5509   68.1050  221.8410 H   0  0  0  0  0  0  0  0  0  0  0  0
  138.9198   68.2867  223.6385 H   0  0  0  0  0  0  0  0  0  0  0  0
  136.7698   69.5555  222.0062 H   0  0  0  0  0  0  0  0  0  0  0  0
  136.6965   68.4704  223.4945 H   0  0  0  0  0  0  0  0  0  0  0  0
  136.5052   71.2326  223.3807 H   0  0  0  0  0  0  0  0  0  0  0  0
  136.7020   70.1222  224.8222 H   0  0  0  0  0  0  0  0  0  0  0  0
  138.2385   72.1161  224.5410 H   0  0  0  0  0  0  0  0  0  0  0  0
  140.8375   71.7424  225.4258 H   0  0  0  0  0  0  0  0  0  0  0  0
  141.9843   70.5282  227.2381 H   0  0  0  0  0  0  0  0  0  0  0  0
  138.8124   67.6518  227.2001 H   0  0  0  0  0  0  0  0  0  0  0  0
  137.6802   68.8781  225.3870 H   0  0  0  0  0  0  0  0  0  0  0  0
  142.0170   76.9158  222.2686 H   0  0  0  0  0  0  0  0  0  0  0  0
  142.0815   79.2780  223.0929 H   0  0  0  0  0  0  0  0  0  0  0  0
  140.8612   81.1875  223.8497 H   0  0  0  0  0  0  0  0  0  0  0  0
  138.6799   82.2777  224.3811 H   0  0  0  0  0  0  0  0  0  0  0  0
  136.6185   78.6987  223.2578 H   0  0  0  0  0  0  0  0  0  0  0  0
  1  2  2  0
  2  3  1  0
  3  4  1  0
  4  5  1  0
  5  6  2  0
  5  7  1  0
  7  8  1  0
  8  9  1  0
  9 10  1  0
 10 11  1  0
 11 12  1  0
 12 13  1  0
 13 14  2  0
 14 15  1  0
 15 16  2  0
 16 17  1  0
 16 18  1  0
 18 19  2  0
  2 20  1  0
 20 21  2  0
 21 22  1  0
 22 23  2  0
 23 24  1  0
 24 25  2  0
 25 26  1  0
 26 27  1  0
 26 28  2  0
 28 29  1  0
 29 30  2  0
 12  7  1  0
 19 13  1  0
 30 20  1  0
 29 23  1  0
  3 31  1  0
  4 32  1  0
  4 33  1  0
  8 34  1  0
  8 35  1  0
  9 36  1  0
  9 37  1  0
 10 38  1  0
 10 39  1  0
 11 40  1  0
 11 41  1  0
 12 42  1  1
 14 43  1  0
 15 44  1  0
 18 45  1  0
 19 46  1  0
 21 47  1  0
 22 48  1  0
 24 49  1  0
 25 50  1  0
 28 51  1  0
M  END
>  <smiles>  (76) 
O=C(NCC(=O)N1CCCCC1c1ccc(Cl)cc1)c1ccc2ccc(Cl)cc2n1

>  <score_type>  (76) 
oracle

>  <origin>  (76) 
autodockgpu

>  <m_score__min__energy>  (76) 
-9.0199999999999996

>  <m_primary>  (76) 
energy

>  <rmsd>  (76) 
8.19083146563764

>  <m_score__min__rmsd>  (76) 
8.19083146563764

>  <meeko>  (76) 
{"free_energy": -8.45, "intermolecular_energy": -9.94, "internal_energy": -1.45, "cluster_size": 25, "cluster_id": 1, "rank_in_cluster": 18}

>  <energy>  (76) 
-8.6

>  <cluster_rmsd>  (76) 
0.0

>  <cluster>  (76) 
2

$$$$

     RDKit          3D

 51 54  0  0  0  0  0  0  0  0999 V2000
  137.5250   75.5640  222.3770 O   0  0  0  0  0  0  0  0  0  0  0  0
  138.7690   75.7100  222.2740 C   0  0  0  0  0  0  0  0  0  0  0  0
  139.2850   77.0110  222.5470 N   0  0  0  0  0  0  0  0  0  0  0  0
  138.3480   78.0490  222.9160 C   0  0  0  0  0  0  0  0  0  0  0  0
  139.0070   79.2670  223.4050 C   0  0  0  0  0  0  0  0  0  0  0  0
  138.4880   80.1040  224.1870 O   0  0  0  0  0  0  0  0  0  0  0  0
  140.3350   79.5290  222.9680 N   0  0  0  0  0  0  0  0  0  0  0  0
  141.4570   78.9950  223.6890 C   0  0  0  0  0  0  0  0  0  0  0  0
  142.7030   79.8000  223.5160 C   0  0  0  0  0  0  0  0  0  0  0  0
  142.5010   81.2420  223.2020 C   0  0  0  0  0  0  0  0  0  0  0  0
  141.4510   81.5390  222.1800 C   0  0  0  0  0  0  0  0  0  0  0  0
  140.6220   80.3400  221.7910 C   0  0  1  0  0  0  0  0  0  0  0  0
  141.2610   79.4670  220.7850 C   0  0  0  0  0  0  0  0  0  0  0  0
  141.4210   78.1220  220.8940 C   0  0  0  0  0  0  0  0  0  0  0  0
  142.0290   77.3420  219.9220 C   0  0  0  0  0  0  0  0  0  0  0  0
  142.5060   77.9470  218.7670 C   0  0  0  0  0  0  0  0  0  0  0  0
  143.2720   76.9650  217.5400 Cl  0  0  0  0  0  0  0  0  0  0  0  0
  142.3430   79.3110  218.6550 C   0  0  0  0  0  0  0  0  0  0  0  0
  141.7340   80.0790  219.6330 C   0  0  0  0  0  0  0  0  0  0  0  0
  139.6760   74.6290  221.8980 C   0  0  0  0  0  0  0  0  0  0  0  0
  139.2010   73.3310  221.9120 C   0  0  0  0  0  0  0  0  0  0  0  0
  140.0020   72.2550  221.5670 C   0  0  0  0  0  0  0  0  0  0  0  0
  141.3090   72.5560  221.2090 C   0  0  0  0  0  0  0  0  0  0  0  0
  142.1430   71.5100  220.8580 C   0  0  0  0  0  0  0  0  0  0  0  0
  143.4520   71.8030  220.4990 C   0  0  0  0  0  0  0  0  0  0  0  0
  143.9070   73.1110  220.4930 C   0  0  0  0  0  0  0  0  0  0  0  0
  145.5600   73.3850  220.0290 Cl  0  0  0  0  0  0  0  0  0  0  0  0
  143.0360   74.1160  220.8500 C   0  0  0  0  0  0  0  0  0  0  0  0
  141.7310   73.8600  221.2130 C   0  0  0  0  0  0  0  0  0  0  0  0
  140.9350   74.8850  221.5500 N   0  0  0  0  0  0  0  0  0  0  0  0
  140.3050   77.2250  222.4870 H   0  0  0  0  0  0  0  0  0  0  0  0
  137.7444   78.3069  222.0333 H   0  0  0  0  0  0  0  0  0  0  0  0
  137.7280   77.6575  223.7360 H   0  0  0  0  0  0  0  0  0  0  0  0
  141.2041   78.9674  224.7592 H   0  0  0  0  0  0  0  0  0  0  0  0
  141.6572   77.9911  223.2864 H   0  0  0  0  0  0  0  0  0  0  0  0
  143.2800   79.7350  224.4503 H   0  0  0  0  0  0  0  0  0  0  0  0
  143.2182   79.3720  222.6434 H   0  0  0  0  0  0  0  0  0  0  0  0
  142.2214   81.7554  224.1338 H   0  0  0  0  0  0  0  0  0  0  0  0
  143.4499   81.5918  222.7694 H   0  0  0  0  0  0  0  0  0  0  0  0
  140.7783   82.3080  222.5876 H   0  0  0  0  0  0  0  0  0  0  0  0
  141.9739   81.8745  221.2722 H   0  0  0  0  0  0  0  0  0  0  0  0
  139.7056   80.7514  221.3426 H   0  0  0  0  0  0  0  0  0  0  0  0
  141.0482   77.6253  221.8020 H   0  0  0  0  0  0  0  0  0  0  0  0
  142.1322   76.2562  220.0644 H   0  0  0  0  0  0  0  0  0  0  0  0
  142.7132   79.8118  217.7483 H   0  0  0  0  0  0  0  0  0  0  0  0
  141.6260   81.1653  219.4978 H   0  0  0  0  0  0  0  0  0  0  0  0
  138.1569   73.1473  222.2056 H   0  0  0  0  0  0  0  0  0  0  0  0
  139.6244   71.2219  221.5762 H   0  0  0  0  0  0  0  0  0  0  0  0
  141.7786   70.4721  220.8631 H   0  0  0  0  0  0  0  0  0  0  0  0
  144.1345   70.9879  220.2165 H   0  0  0  0  0  0  0  0  0  0  0  0
  143.3930   75.1565  220.8454 H   0  0  0  0  0  0  0  0  0  0  0  0
  1  2  2  0
  2  3  1  0
  3  4  1  0
  4  5  1  0
  5  6  2  0
  5  7  1  0
  7  8  1  0
  8  9  1  0
  9 10  1  0
 10 11  1  0
 11 12  1  0
 12 13  1  0
 13 14  2  0
 14 15  1  0
 15 16  2  0
 16 17  1  0
 16 18  1  0
 18 19  2  0
  2 20  1  0
 20 21  2  0
 21 22  1  0
 22 23  2  0
 23 24  1  0
 24 25  2  0
 25 26  1  0
 26 27  1  0
 26 28  2  0
 28 29  1  0
 29 30  2  0
 12  7  1  0
 19 13  1  0
 30 20  1  0
 29 23  1  0
  3 31  1  0
  4 32  1  0
  4 33  1  0
  8 34  1  0
  8 35  1  0
  9 36  1  0
  9 37  1  0
 10 38  1  0
 10 39  1  0
 11 40  1  0
 11 41  1  0
 12 42  1  6
 14 43  1  0
 15 44  1  0
 18 45  1  0
 19 46  1  0
 21 47  1  0
 22 48  1  0
 24 49  1  0
 25 50  1  0
 28 51  1  0
M  END
>  <smiles>  (77) 
O=C(NCC(=O)N1CCCCC1c1ccc(Cl)cc1)c1ccc2ccc(Cl)cc2n1

>  <score_type>  (77) 
oracle

>  <origin>  (77) 
autodockgpu

>  <m_score__min__energy>  (77) 
-9.0199999999999996

>  <m_primary>  (77) 
energy

>  <rmsd>  (77) 
5.981216249093659

>  <m_score__min__rmsd>  (77) 
5.981216249093659

>  <meeko>  (77) 
{"free_energy": -7.5, "intermolecular_energy": -8.99, "internal_energy": -2.2, "cluster_size": 3, "cluster_id": 7, "rank_in_cluster": 2}

>  <energy>  (77) 
-8.59

>  <cluster_rmsd>  (77) 
0.32

>  <cluster>  (77) 
2

$$$$

     RDKit          3D

 51 54  0  0  0  0  0  0  0  0999 V2000
  138.0080   74.0690  221.6930 O   0  0  0  0  0  0  0  0  0  0  0  0
  139.0510   74.7680  221.6730 C   0  0  0  0  0  0  0  0  0  0  0  0
  140.2290   74.1460  221.1640 N   0  0  0  0  0  0  0  0  0  0  0  0
  140.1320   72.7740  220.7160 C   0  0  0  0  0  0  0  0  0  0  0  0
  140.6810   71.8160  221.6850 C   0  0  0  0  0  0  0  0  0  0  0  0
  141.9040   71.6690  221.9390 O   0  0  0  0  0  0  0  0  0  0  0  0
  139.7700   70.9880  222.3970 N   0  0  0  0  0  0  0  0  0  0  0  0
  139.5610   69.6250  221.9970 C   0  0  0  0  0  0  0  0  0  0  0  0
  138.2230   69.0950  222.3950 C   0  0  0  0  0  0  0  0  0  0  0  0
  137.1460   70.1120  222.5490 C   0  0  0  0  0  0  0  0  0  0  0  0
  137.5350   71.3600  223.2740 C   0  0  0  0  0  0  0  0  0  0  0  0
  139.0150   71.4710  223.5470 C   0  0  1  0  0  0  0  0  0  0  0  0
  139.4670   70.7180  224.7340 C   0  0  0  0  0  0  0  0  0  0  0  0
  138.7750   69.7210  225.3470 C   0  0  0  0  0  0  0  0  0  0  0  0
  139.2400   69.0400  226.4620 C   0  0  0  0  0  0  0  0  0  0  0  0
  140.4760   69.3780  226.9960 C   0  0  0  0  0  0  0  0  0  0  0  0
  141.0640   68.5200  228.4010 Cl  0  0  0  0  0  0  0  0  0  0  0  0
  141.1790   70.3870  226.3750 C   0  0  0  0  0  0  0  0  0  0  0  0
  140.7030   71.0600  225.2620 C   0  0  0  0  0  0  0  0  0  0  0  0
  139.1000   76.1530  222.1380 C   0  0  0  0  0  0  0  0  0  0  0  0
  137.9100   76.8320  222.3190 C   0  0  0  0  0  0  0  0  0  0  0  0
  137.8770   78.1460  222.7570 C   0  0  0  0  0  0  0  0  0  0  0  0
  139.1080   78.7390  223.0020 C   0  0  0  0  0  0  0  0  0  0  0  0
  139.1200   80.0510  223.4400 C   0  0  0  0  0  0  0  0  0  0  0  0
  140.3470   80.6520  223.6860 C   0  0  0  0  0  0  0  0  0  0  0  0
  141.5270   79.9530  223.4970 C   0  0  0  0  0  0  0  0  0  0  0  0
  143.0170   80.7840  223.8300 Cl  0  0  0  0  0  0  0  0  0  0  0  0
  141.4600   78.6480  223.0590 C   0  0  0  0  0  0  0  0  0  0  0  0
  140.2590   78.0220  222.8050 C   0  0  0  0  0  0  0  0  0  0  0  0
  140.2640   76.7500  222.3800 N   0  0  0  0  0  0  0  0  0  0  0  0
  141.1410   74.6490  221.1100 H   0  0  0  0  0  0  0  0  0  0  0  0
  139.0718   72.5340  220.5473 H   0  0  0  0  0  0  0  0  0  0  0  0
  140.7237   72.6856  219.7929 H   0  0  0  0  0  0  0  0  0  0  0  0
  139.6499   69.5641  220.9023 H   0  0  0  0  0  0  0  0  0  0  0  0
  140.3202   69.0140  222.5072 H   0  0  0  0  0  0  0  0  0  0  0  0
  137.9019   68.3762  221.6268 H   0  0  0  0  0  0  0  0  0  0  0  0
  138.3607   68.6504  223.3917 H   0  0  0  0  0  0  0  0  0  0  0  0
  136.8039   70.3975  221.5433 H   0  0  0  0  0  0  0  0  0  0  0  0
  136.3686   69.6361  223.1648 H   0  0  0  0  0  0  0  0  0  0  0  0
  137.2290   72.2239  222.6657 H   0  0  0  0  0  0  0  0  0  0  0  0
  137.0307   71.3326  224.2512 H   0  0  0  0  0  0  0  0  0  0  0  0
  139.1979   72.5383  223.7404 H   0  0  0  0  0  0  0  0  0  0  0  0
  137.7940   69.4395  224.9366 H   0  0  0  0  0  0  0  0  0  0  0  0
  138.6365   68.2413  226.9180 H   0  0  0  0  0  0  0  0  0  0  0  0
  142.1613   70.6705  226.7809 H   0  0  0  0  0  0  0  0  0  0  0  0
  141.3008   71.8597  224.8003 H   0  0  0  0  0  0  0  0  0  0  0  0
  136.9622   76.3146  222.1094 H   0  0  0  0  0  0  0  0  0  0  0  0
  136.9307   78.6877  222.9021 H   0  0  0  0  0  0  0  0  0  0  0  0
  138.1810   80.6042  223.5896 H   0  0  0  0  0  0  0  0  0  0  0  0
  140.3821   81.6946  224.0348 H   0  0  0  0  0  0  0  0  0  0  0  0
  142.3948   78.0884  222.9074 H   0  0  0  0  0  0  0  0  0  0  0  0
  1  2  2  0
  2  3  1  0
  3  4  1  0
  4  5  1  0
  5  6  2  0
  5  7  1  0
  7  8  1  0
  8  9  1  0
  9 10  1  0
 10 11  1  0
 11 12  1  0
 12 13  1  0
 13 14  2  0
 14 15  1  0
 15 16  2  0
 16 17  1  0
 16 18  1  0
 18 19  2  0
  2 20  1  0
 20 21  2  0
 21 22  1  0
 22 23  2  0
 23 24  1  0
 24 25  2  0
 25 26  1  0
 26 27  1  0
 26 28  2  0
 28 29  1  0
 29 30  2  0
 12  7  1  0
 19 13  1  0
 30 20  1  0
 29 23  1  0
  3 31  1  0
  4 32  1  0
  4 33  1  0
  8 34  1  0
  8 35  1  0
  9 36  1  0
  9 37  1  0
 10 38  1  0
 10 39  1  0
 11 40  1  0
 11 41  1  0
 12 42  1  1
 14 43  1  0
 15 44  1  0
 18 45  1  0
 19 46  1  0
 21 47  1  0
 22 48  1  0
 24 49  1  0
 25 50  1  0
 28 51  1  0
M  END
>  <smiles>  (78) 
O=C(NCC(=O)N1CCCCC1c1ccc(Cl)cc1)c1ccc2ccc(Cl)cc2n1

>  <score_type>  (78) 
oracle

>  <origin>  (78) 
autodockgpu

>  <m_score__min__energy>  (78) 
-9.0199999999999996

>  <m_primary>  (78) 
energy

>  <rmsd>  (78) 
7.651042298302734

>  <m_score__min__rmsd>  (78) 
7.651042298302734

>  <meeko>  (78) 
{"free_energy": -8.15, "intermolecular_energy": -9.64, "internal_energy": -1.79, "cluster_size": 25, "cluster_id": 1, "rank_in_cluster": 22}

>  <energy>  (78) 
-8.52

>  <cluster_rmsd>  (78) 
0.21

>  <cluster>  (78) 
2

$$$$

     RDKit          3D

 51 54  0  0  0  0  0  0  0  0999 V2000
  139.7990   73.2860  220.3170 O   0  0  0  0  0  0  0  0  0  0  0  0
  139.6800   73.3630  221.5650 C   0  0  0  0  0  0  0  0  0  0  0  0
  139.5690   74.6730  222.1180 N   0  0  0  0  0  0  0  0  0  0  0  0
  139.6020   75.7980  221.2090 C   0  0  0  0  0  0  0  0  0  0  0  0
  140.8990   76.4860  221.1990 C   0  0  0  0  0  0  0  0  0  0  0  0
  141.9890   75.9660  220.8460 O   0  0  0  0  0  0  0  0  0  0  0  0
  140.9390   77.8450  221.6160 N   0  0  0  0  0  0  0  0  0  0  0  0
  141.0600   78.9000  220.6480 C   0  0  0  0  0  0  0  0  0  0  0  0
  141.6790   80.1390  221.2040 C   0  0  0  0  0  0  0  0  0  0  0  0
  142.5920   79.9390  222.3640 C   0  0  0  0  0  0  0  0  0  0  0  0
  142.1050   78.9910  223.4120 C   0  0  0  0  0  0  0  0  0  0  0  0
  140.8630   78.2320  223.0190 C   0  0  1  0  0  0  0  0  0  0  0  0
  139.6090   78.9880  223.2130 C   0  0  0  0  0  0  0  0  0  0  0  0
  138.3710   78.5760  222.8320 C   0  0  0  0  0  0  0  0  0  0  0  0
  137.2190   79.3210  223.0350 C   0  0  0  0  0  0  0  0  0  0  0  0
  137.3130   80.5570  223.6600 C   0  0  0  0  0  0  0  0  0  0  0  0
  135.8630   81.4980  223.9180 Cl  0  0  0  0  0  0  0  0  0  0  0  0
  138.5680   80.9760  224.0480 C   0  0  0  0  0  0  0  0  0  0  0  0
  139.7100   80.2220  223.8390 C   0  0  0  0  0  0  0  0  0  0  0  0
  139.6520   72.1960  222.4430 C   0  0  0  0  0  0  0  0  0  0  0  0
  139.1580   71.0050  221.9440 C   0  0  0  0  0  0  0  0  0  0  0  0
  139.1000   69.8570  222.7170 C   0  0  0  0  0  0  0  0  0  0  0  0
  139.5660   69.9720  224.0190 C   0  0  0  0  0  0  0  0  0  0  0  0
  139.5250   68.8490  224.8250 C   0  0  0  0  0  0  0  0  0  0  0  0
  139.9890   68.9570  226.1290 C   0  0  0  0  0  0  0  0  0  0  0  0
  140.4790   70.1600  226.6080 C   0  0  0  0  0  0  0  0  0  0  0  0
  141.0380   70.2030  228.2540 Cl  0  0  0  0  0  0  0  0  0  0  0  0
  140.4980   71.2490  225.7650 C   0  0  0  0  0  0  0  0  0  0  0  0
  140.0440   71.1760  224.4650 C   0  0  0  0  0  0  0  0  0  0  0  0
  140.0900   72.2740  223.6970 N   0  0  0  0  0  0  0  0  0  0  0  0
  139.4670   74.8330  223.1440 H   0  0  0  0  0  0  0  0  0  0  0  0
  139.3895   75.4346  220.1927 H   0  0  0  0  0  0  0  0  0  0  0  0
  138.8471   76.5213  221.5510 H   0  0  0  0  0  0  0  0  0  0  0  0
  141.6830   78.5411  219.8155 H   0  0  0  0  0  0  0  0  0  0  0  0
  140.0431   79.1612  220.3199 H   0  0  0  0  0  0  0  0  0  0  0  0
  142.2548   80.6198  220.3994 H   0  0  0  0  0  0  0  0  0  0  0  0
  140.8445   80.7489  221.5802 H   0  0  0  0  0  0  0  0  0  0  0  0
  143.5490   79.5564  221.9797 H   0  0  0  0  0  0  0  0  0  0  0  0
  142.6714   80.9189  222.8575 H   0  0  0  0  0  0  0  0  0  0  0  0
  142.9040   78.2641  223.6198 H   0  0  0  0  0  0  0  0  0  0  0  0
  141.8445   79.5954  224.2934 H   0  0  0  0  0  0  0  0  0  0  0  0
  140.8316   77.3571  223.6850 H   0  0  0  0  0  0  0  0  0  0  0  0
  138.2778   77.5987  222.3358 H   0  0  0  0  0  0  0  0  0  0  0  0
  136.2425   78.9371  222.7047 H   0  0  0  0  0  0  0  0  0  0  0  0
  138.6661   81.9522  224.5454 H   0  0  0  0  0  0  0  0  0  0  0  0
  140.6902   80.5984  224.1668 H   0  0  0  0  0  0  0  0  0  0  0  0
  138.8011   70.9680  220.9042 H   0  0  0  0  0  0  0  0  0  0  0  0
  138.7071   68.9087  222.3215 H   0  0  0  0  0  0  0  0  0  0  0  0
  139.1346   67.8943  224.4426 H   0  0  0  0  0  0  0  0  0  0  0  0
  139.9671   68.0771  226.7888 H   0  0  0  0  0  0  0  0  0  0  0  0
  140.8875   72.2068  226.1404 H   0  0  0  0  0  0  0  0  0  0  0  0
  1  2  2  0
  2  3  1  0
  3  4  1  0
  4  5  1  0
  5  6  2  0
  5  7  1  0
  7  8  1  0
  8  9  1  0
  9 10  1  0
 10 11  1  0
 11 12  1  0
 12 13  1  0
 13 14  2  0
 14 15  1  0
 15 16  2  0
 16 17  1  0
 16 18  1  0
 18 19  2  0
  2 20  1  0
 20 21  2  0
 21 22  1  0
 22 23  2  0
 23 24  1  0
 24 25  2  0
 25 26  1  0
 26 27  1  0
 26 28  2  0
 28 29  1  0
 29 30  2  0
 12  7  1  0
 19 13  1  0
 30 20  1  0
 29 23  1  0
  3 31  1  0
  4 32  1  0
  4 33  1  0
  8 34  1  0
  8 35  1  0
  9 36  1  0
  9 37  1  0
 10 38  1  0
 10 39  1  0
 11 40  1  0
 11 41  1  0
 12 42  1  1
 14 43  1  0
 15 44  1  0
 18 45  1  0
 19 46  1  0
 21 47  1  0
 22 48  1  0
 24 49  1  0
 25 50  1  0
 28 51  1  0
M  END
>  <smiles>  (79) 
O=C(NCC(=O)N1CCCCC1c1ccc(Cl)cc1)c1ccc2ccc(Cl)cc2n1

>  <score_type>  (79) 
oracle

>  <origin>  (79) 
autodockgpu

>  <m_score__min__energy>  (79) 
-9.0199999999999996

>  <m_primary>  (79) 
energy

>  <rmsd>  (79) 
3.5494682670855213

>  <m_score__min__rmsd>  (79) 
3.5494682670855213

>  <meeko>  (79) 
{"free_energy": -8.42, "intermolecular_energy": -9.91, "internal_energy": -1.54, "cluster_size": 7, "cluster_id": 2, "rank_in_cluster": 5}

>  <energy>  (79) 
-8.48

>  <cluster_rmsd>  (79) 
0.28

>  <cluster>  (79) 
2

$$$$

     RDKit          3D

 51 54  0  0  0  0  0  0  0  0999 V2000
  140.6940   73.2350  220.9030 O   0  0  0  0  0  0  0  0  0  0  0  0
  139.9180   73.1960  221.8900 C   0  0  0  0  0  0  0  0  0  0  0  0
  139.2030   74.3940  222.1900 N   0  0  0  0  0  0  0  0  0  0  0  0
  139.4260   75.5470  221.3450 C   0  0  0  0  0  0  0  0  0  0  0  0
  140.7290   76.1820  221.5760 C   0  0  0  0  0  0  0  0  0  0  0  0
  141.8290   75.5750  221.6200 O   0  0  0  0  0  0  0  0  0  0  0  0
  140.7620   77.5910  221.7650 N   0  0  0  0  0  0  0  0  0  0  0  0
  140.7630   78.4770  220.6340 C   0  0  0  0  0  0  0  0  0  0  0  0
  141.3890   79.8000  220.9260 C   0  0  0  0  0  0  0  0  0  0  0  0
  142.4070   79.8070  222.0140 C   0  0  0  0  0  0  0  0  0  0  0  0
  142.0450   79.0340  223.2400 C   0  0  0  0  0  0  0  0  0  0  0  0
  140.7970   78.1980  223.0900 C   0  0  1  0  0  0  0  0  0  0  0  0
  139.5420   78.9540  223.2760 C   0  0  0  0  0  0  0  0  0  0  0  0
  138.3040   78.5320  222.9070 C   0  0  0  0  0  0  0  0  0  0  0  0
  137.1510   79.2770  223.1020 C   0  0  0  0  0  0  0  0  0  0  0  0
  137.2430   80.5240  223.7040 C   0  0  0  0  0  0  0  0  0  0  0  0
  135.7910   81.4650  223.9510 Cl  0  0  0  0  0  0  0  0  0  0  0  0
  138.4980   80.9530  224.0800 C   0  0  0  0  0  0  0  0  0  0  0  0
  139.6420   80.1990  223.8790 C   0  0  0  0  0  0  0  0  0  0  0  0
  139.7260   72.0060  222.7160 C   0  0  0  0  0  0  0  0  0  0  0  0
  138.9880   70.9570  222.2010 C   0  0  0  0  0  0  0  0  0  0  0  0
  138.7650   69.7970  222.9250 C   0  0  0  0  0  0  0  0  0  0  0  0
  139.3240   69.7510  224.1940 C   0  0  0  0  0  0  0  0  0  0  0  0
  139.1240   68.6110  224.9510 C   0  0  0  0  0  0  0  0  0  0  0  0
  139.6800   68.5570  226.2220 C   0  0  0  0  0  0  0  0  0  0  0  0
  140.4150   69.6210  226.7170 C   0  0  0  0  0  0  0  0  0  0  0  0
  141.0730   69.4680  228.3190 Cl  0  0  0  0  0  0  0  0  0  0  0  0
  140.5840   70.7340  225.9230 C   0  0  0  0  0  0  0  0  0  0  0  0
  140.0460   70.8200  224.6570 C   0  0  0  0  0  0  0  0  0  0  0  0
  140.2480   71.9320  223.9370 N   0  0  0  0  0  0  0  0  0  0  0  0
  138.5370   74.4550  222.9910 H   0  0  0  0  0  0  0  0  0  0  0  0
  139.3730   75.2271  220.2939 H   0  0  0  0  0  0  0  0  0  0  0  0
  138.6503   76.2883  221.5873 H   0  0  0  0  0  0  0  0  0  0  0  0
  141.3211   77.9989  219.8155 H   0  0  0  0  0  0  0  0  0  0  0  0
  139.7133   78.6639  220.3634 H   0  0  0  0  0  0  0  0  0  0  0  0
  141.8759   80.1541  220.0053 H   0  0  0  0  0  0  0  0  0  0  0  0
  140.5717   80.4478  221.2759 H   0  0  0  0  0  0  0  0  0  0  0  0
  143.3381   79.3836  221.6093 H   0  0  0  0  0  0  0  0  0  0  0  0
  142.4984   80.8553  222.3346 H   0  0  0  0  0  0  0  0  0  0  0  0
  142.8823   78.3649  223.4874 H   0  0  0  0  0  0  0  0  0  0  0  0
  141.8433   79.7692  224.0329 H   0  0  0  0  0  0  0  0  0  0  0  0
  140.8518   77.4414  223.8865 H   0  0  0  0  0  0  0  0  0  0  0  0
  138.2117   77.5462  222.4278 H   0  0  0  0  0  0  0  0  0  0  0  0
  136.1743   78.8840  222.7831 H   0  0  0  0  0  0  0  0  0  0  0  0
  138.5949   81.9376  224.5609 H   0  0  0  0  0  0  0  0  0  0  0  0
  140.6225   80.5845  224.1952 H   0  0  0  0  0  0  0  0  0  0  0  0
  138.5663   71.0455  221.1889 H   0  0  0  0  0  0  0  0  0  0  0  0
  138.1785   68.9606  222.5172 H   0  0  0  0  0  0  0  0  0  0  0  0
  138.5387   67.7677  224.5557 H   0  0  0  0  0  0  0  0  0  0  0  0
  139.5352   67.6600  226.8420 H   0  0  0  0  0  0  0  0  0  0  0  0
  141.1673   71.5816  226.3120 H   0  0  0  0  0  0  0  0  0  0  0  0
  1  2  2  0
  2  3  1  0
  3  4  1  0
  4  5  1  0
  5  6  2  0
  5  7  1  0
  7  8  1  0
  8  9  1  0
  9 10  1  0
 10 11  1  0
 11 12  1  0
 12 13  1  0
 13 14  2  0
 14 15  1  0
 15 16  2  0
 16 17  1  0
 16 18  1  0
 18 19  2  0
  2 20  1  0
 20 21  2  0
 21 22  1  0
 22 23  2  0
 23 24  1  0
 24 25  2  0
 25 26  1  0
 26 27  1  0
 26 28  2  0
 28 29  1  0
 29 30  2  0
 12  7  1  0
 19 13  1  0
 30 20  1  0
 29 23  1  0
  3 31  1  0
  4 32  1  0
  4 33  1  0
  8 34  1  0
  8 35  1  0
  9 36  1  0
  9 37  1  0
 10 38  1  0
 10 39  1  0
 11 40  1  0
 11 41  1  0
 12 42  1  1
 14 43  1  0
 15 44  1  0
 18 45  1  0
 19 46  1  0
 21 47  1  0
 22 48  1  0
 24 49  1  0
 25 50  1  0
 28 51  1  0
M  END
>  <smiles>  (80) 
O=C(NCC(=O)N1CCCCC1c1ccc(Cl)cc1)c1ccc2ccc(Cl)cc2n1

>  <score_type>  (80) 
oracle

>  <origin>  (80) 
autodockgpu

>  <m_score__min__energy>  (80) 
-9.0199999999999996

>  <m_primary>  (80) 
energy

>  <rmsd>  (80) 
3.342668299703265

>  <m_score__min__rmsd>  (80) 
3.342668299703265

>  <meeko>  (80) 
{"free_energy": -8.59, "intermolecular_energy": -10.08, "internal_energy": -1.38, "cluster_size": 7, "cluster_id": 2, "rank_in_cluster": 2}

>  <energy>  (80) 
-8.42

>  <cluster_rmsd>  (80) 
0.31

>  <cluster>  (80) 
2

$$$$

     RDKit          3D

 51 54  0  0  0  0  0  0  0  0999 V2000
  140.9440   74.4870  220.7320 O   0  0  0  0  0  0  0  0  0  0  0  0
  140.1750   75.1180  221.5000 C   0  0  0  0  0  0  0  0  0  0  0  0
  139.1030   74.3800  222.0820 N   0  0  0  0  0  0  0  0  0  0  0  0
  138.9840   72.9780  221.7460 C   0  0  0  0  0  0  0  0  0  0  0  0
  139.8500   72.1190  222.5630 C   0  0  0  0  0  0  0  0  0  0  0  0
  141.0550   72.3580  222.8320 O   0  0  0  0  0  0  0  0  0  0  0  0
  139.2950   70.9240  223.0980 N   0  0  0  0  0  0  0  0  0  0  0  0
  139.5870   69.6530  222.4950 C   0  0  0  0  0  0  0  0  0  0  0  0
  138.5270   68.6310  222.7390 C   0  0  0  0  0  0  0  0  0  0  0  0
  137.1570   69.1660  222.9790 C   0  0  0  0  0  0  0  0  0  0  0  0
  137.0750   70.3430  223.8960 C   0  0  0  0  0  0  0  0  0  0  0  0
  138.4180   70.9260  224.2620 C   0  0  1  0  0  0  0  0  0  0  0  0
  139.1090   70.2080  225.3520 C   0  0  0  0  0  0  0  0  0  0  0  0
  138.8050   68.9580  225.7910 C   0  0  0  0  0  0  0  0  0  0  0  0
  139.4830   68.3210  226.8190 C   0  0  0  0  0  0  0  0  0  0  0  0
  140.5320   68.9780  227.4480 C   0  0  0  0  0  0  0  0  0  0  0  0
  141.3890   68.1770  228.7440 Cl  0  0  0  0  0  0  0  0  0  0  0  0
  140.8420   70.2450  227.0030 C   0  0  0  0  0  0  0  0  0  0  0  0
  140.1570   70.8700  225.9750 C   0  0  0  0  0  0  0  0  0  0  0  0
  140.3360   76.5370  221.8090 C   0  0  0  0  0  0  0  0  0  0  0  0
  141.4520   77.1960  221.3290 C   0  0  0  0  0  0  0  0  0  0  0  0
  141.6720   78.5400  221.5810 C   0  0  0  0  0  0  0  0  0  0  0  0
  140.7090   79.1850  222.3430 C   0  0  0  0  0  0  0  0  0  0  0  0
  140.8910   80.5280  222.6190 C   0  0  0  0  0  0  0  0  0  0  0  0
  139.9310   81.1800  223.3820 C   0  0  0  0  0  0  0  0  0  0  0  0
  138.8210   80.5000  223.8530 C   0  0  0  0  0  0  0  0  0  0  0  0
  137.6700   81.3960  224.7990 Cl  0  0  0  0  0  0  0  0  0  0  0  0
  138.6870   79.1630  223.5500 C   0  0  0  0  0  0  0  0  0  0  0  0
  139.6210   78.4850  222.7960 C   0  0  0  0  0  0  0  0  0  0  0  0
  139.4300   77.1830  222.5390 N   0  0  0  0  0  0  0  0  0  0  0  0
  138.4160   74.8210  222.7310 H   0  0  0  0  0  0  0  0  0  0  0  0
  137.9394   72.6683  221.8971 H   0  0  0  0  0  0  0  0  0  0  0  0
  139.2980   72.8620  220.6982 H   0  0  0  0  0  0  0  0  0  0  0  0
  139.6915   69.7965  221.4094 H   0  0  0  0  0  0  0  0  0  0  0  0
  140.5146   69.2786  222.9526 H   0  0  0  0  0  0  0  0  0  0  0  0
  138.4834   67.9725  221.8590 H   0  0  0  0  0  0  0  0  0  0  0  0
  138.8148   68.1160  223.6674 H   0  0  0  0  0  0  0  0  0  0  0  0
  136.7349   69.4636  222.0078 H   0  0  0  0  0  0  0  0  0  0  0  0
  136.6012   68.3576  223.4765 H   0  0  0  0  0  0  0  0  0  0  0  0
  136.4801   71.1258  223.4028 H   0  0  0  0  0  0  0  0  0  0  0  0
  136.6145   69.9892  224.8302 H   0  0  0  0  0  0  0  0  0  0  0  0
  138.2082   71.9462  224.6159 H   0  0  0  0  0  0  0  0  0  0  0  0
  137.9762   68.4229  225.3043 H   0  0  0  0  0  0  0  0  0  0  0  0
  139.1933   67.3072  227.1325 H   0  0  0  0  0  0  0  0  0  0  0  0
  141.6705   70.7836  227.4861 H   0  0  0  0  0  0  0  0  0  0  0  0
  140.4414   71.8832  225.6548 H   0  0  0  0  0  0  0  0  0  0  0  0
  142.1862   76.6373  220.7299 H   0  0  0  0  0  0  0  0  0  0  0  0
  142.5594   79.0657  221.1988 H   0  0  0  0  0  0  0  0  0  0  0  0
  141.7739   81.0662  222.2436 H   0  0  0  0  0  0  0  0  0  0  0  0
  140.0540   82.2481  223.6145 H   0  0  0  0  0  0  0  0  0  0  0  0
  137.8063   78.6187  223.9217 H   0  0  0  0  0  0  0  0  0  0  0  0
  1  2  2  0
  2  3  1  0
  3  4  1  0
  4  5  1  0
  5  6  2  0
  5  7  1  0
  7  8  1  0
  8  9  1  0
  9 10  1  0
 10 11  1  0
 11 12  1  0
 12 13  1  0
 13 14  2  0
 14 15  1  0
 15 16  2  0
 16 17  1  0
 16 18  1  0
 18 19  2  0
  2 20  1  0
 20 21  2  0
 21 22  1  0
 22 23  2  0
 23 24  1  0
 24 25  2  0
 25 26  1  0
 26 27  1  0
 26 28  2  0
 28 29  1  0
 29 30  2  0
 12  7  1  0
 19 13  1  0
 30 20  1  0
 29 23  1  0
  3 31  1  0
  4 32  1  0
  4 33  1  0
  8 34  1  0
  8 35  1  0
  9 36  1  0
  9 37  1  0
 10 38  1  0
 10 39  1  0
 11 40  1  0
 11 41  1  0
 12 42  1  1
 14 43  1  0
 15 44  1  0
 18 45  1  0
 19 46  1  0
 21 47  1  0
 22 48  1  0
 24 49  1  0
 25 50  1  0
 28 51  1  0
M  END
>  <smiles>  (81) 
O=C(NCC(=O)N1CCCCC1c1ccc(Cl)cc1)c1ccc2ccc(Cl)cc2n1

>  <score_type>  (81) 
oracle

>  <origin>  (81) 
autodockgpu

>  <m_score__min__energy>  (81) 
-9.0199999999999996

>  <m_primary>  (81) 
energy

>  <rmsd>  (81) 
8.239382418865805

>  <m_score__min__rmsd>  (81) 
8.239382418865805

>  <meeko>  (81) 
{"free_energy": -8.59, "intermolecular_energy": -10.09, "internal_energy": -1.51, "cluster_size": 25, "cluster_id": 1, "rank_in_cluster": 12}

>  <energy>  (81) 
-8.39

>  <cluster_rmsd>  (81) 
0.33

>  <cluster>  (81) 
2

$$$$

     RDKit          3D

 51 54  0  0  0  0  0  0  0  0999 V2000
  140.3460   77.9710  217.9920 O   0  0  0  0  0  0  0  0  0  0  0  0
  141.4660   77.7800  218.5290 C   0  0  0  0  0  0  0  0  0  0  0  0
  142.1990   78.9420  218.9090 N   0  0  0  0  0  0  0  0  0  0  0  0
  141.6040   80.2350  218.6490 C   0  0  0  0  0  0  0  0  0  0  0  0
  141.5610   81.0940  219.8390 C   0  0  0  0  0  0  0  0  0  0  0  0
  141.8050   82.3280  219.8470 O   0  0  0  0  0  0  0  0  0  0  0  0
  141.2170   80.4970  221.0830 N   0  0  0  0  0  0  0  0  0  0  0  0
  140.2410   81.1110  221.9400 C   0  0  0  0  0  0  0  0  0  0  0  0
  140.4180   80.7580  223.3790 C   0  0  0  0  0  0  0  0  0  0  0  0
  141.8040   80.3960  223.7890 C   0  0  0  0  0  0  0  0  0  0  0  0
  142.5360   79.4870  222.8550 C   0  0  0  0  0  0  0  0  0  0  0  0
  141.8250   79.2550  221.5450 C   0  0  1  0  0  0  0  0  0  0  0  0
  140.7650   78.2290  221.6090 C   0  0  0  0  0  0  0  0  0  0  0  0
  139.5090   78.3580  221.1080 C   0  0  0  0  0  0  0  0  0  0  0  0
  138.5440   77.3640  221.1920 C   0  0  0  0  0  0  0  0  0  0  0  0
  138.8590   76.1660  221.8180 C   0  0  0  0  0  0  0  0  0  0  0  0
  137.6450   74.9120  221.9240 Cl  0  0  0  0  0  0  0  0  0  0  0  0
  140.1330   76.0330  222.3250 C   0  0  0  0  0  0  0  0  0  0  0  0
  141.0870   77.0330  222.2350 C   0  0  0  0  0  0  0  0  0  0  0  0
  142.0260   76.4530  218.7710 C   0  0  0  0  0  0  0  0  0  0  0  0
  141.3980   75.3580  218.2080 C   0  0  0  0  0  0  0  0  0  0  0  0
  141.8710   74.0680  218.3930 C   0  0  0  0  0  0  0  0  0  0  0  0
  143.0090   73.9420  219.1770 C   0  0  0  0  0  0  0  0  0  0  0  0
  143.5140   72.6720  219.3880 C   0  0  0  0  0  0  0  0  0  0  0  0
  144.6530   72.5370  220.1710 C   0  0  0  0  0  0  0  0  0  0  0  0
  145.2640   73.6480  220.7260 C   0  0  0  0  0  0  0  0  0  0  0  0
  146.6850   73.3850  221.6930 Cl  0  0  0  0  0  0  0  0  0  0  0  0
  144.7220   74.8910  220.4860 C   0  0  0  0  0  0  0  0  0  0  0  0
  143.5920   75.0600  219.7130 C   0  0  0  0  0  0  0  0  0  0  0  0
  143.1150   76.2980  219.5190 N   0  0  0  0  0  0  0  0  0  0  0  0
  143.1380   78.8810  219.3610 H   0  0  0  0  0  0  0  0  0  0  0  0
  142.1932   80.7424  217.8710 H   0  0  0  0  0  0  0  0  0  0  0  0
  140.5659   80.0622  218.3290 H   0  0  0  0  0  0  0  0  0  0  0  0
  140.3214   82.2031  221.8354 H   0  0  0  0  0  0  0  0  0  0  0  0
  139.2534   80.7381  221.6308 H   0  0  0  0  0  0  0  0  0  0  0  0
  140.1025   81.6232  223.9806 H   0  0  0  0  0  0  0  0  0  0  0  0
  139.8109   79.8556  223.5435 H   0  0  0  0  0  0  0  0  0  0  0  0
  142.3840   81.3262  223.8803 H   0  0  0  0  0  0  0  0  0  0  0  0
  141.7037   79.8407  224.7332 H   0  0  0  0  0  0  0  0  0  0  0  0
  143.5201   79.9296  222.6413 H   0  0  0  0  0  0  0  0  0  0  0  0
  142.6117   78.5099  223.3545 H   0  0  0  0  0  0  0  0  0  0  0  0
  142.5983   78.8927  220.8517 H   0  0  0  0  0  0  0  0  0  0  0  0
  139.2423   79.3012  220.6088 H   0  0  0  0  0  0  0  0  0  0  0  0
  137.5418   77.5237  220.7676 H   0  0  0  0  0  0  0  0  0  0  0  0
  140.4046   75.0908  222.8234 H   0  0  0  0  0  0  0  0  0  0  0  0
  142.0916   76.8805  222.6562 H   0  0  0  0  0  0  0  0  0  0  0  0
  140.4975   75.5145  217.5959 H   0  0  0  0  0  0  0  0  0  0  0  0
  141.3734   73.1955  217.9446 H   0  0  0  0  0  0  0  0  0  0  0  0
  143.0257   71.7907  218.9466 H   0  0  0  0  0  0  0  0  0  0  0  0
  145.0739   71.5369  220.3520 H   0  0  0  0  0  0  0  0  0  0  0  0
  145.2052   75.7767  220.9243 H   0  0  0  0  0  0  0  0  0  0  0  0
  1  2  2  0
  2  3  1  0
  3  4  1  0
  4  5  1  0
  5  6  2  0
  5  7  1  0
  7  8  1  0
  8  9  1  0
  9 10  1  0
 10 11  1  0
 11 12  1  0
 12 13  1  0
 13 14  2  0
 14 15  1  0
 15 16  2  0
 16 17  1  0
 16 18  1  0
 18 19  2  0
  2 20  1  0
 20 21  2  0
 21 22  1  0
 22 23  2  0
 23 24  1  0
 24 25  2  0
 25 26  1  0
 26 27  1  0
 26 28  2  0
 28 29  1  0
 29 30  2  0
 12  7  1  0
 19 13  1  0
 30 20  1  0
 29 23  1  0
  3 31  1  0
  4 32  1  0
  4 33  1  0
  8 34  1  0
  8 35  1  0
  9 36  1  0
  9 37  1  0
 10 38  1  0
 10 39  1  0
 11 40  1  0
 11 41  1  0
 12 42  1  6
 14 43  1  0
 15 44  1  0
 18 45  1  0
 19 46  1  0
 21 47  1  0
 22 48  1  0
 24 49  1  0
 25 50  1  0
 28 51  1  0
M  END
>  <smiles>  (82) 
O=C(NCC(=O)N1CCCCC1c1ccc(Cl)cc1)c1ccc2ccc(Cl)cc2n1

>  <score_type>  (82) 
oracle

>  <origin>  (82) 
autodockgpu

>  <m_score__min__energy>  (82) 
-9.0199999999999996

>  <m_primary>  (82) 
energy

>  <rmsd>  (82) 
7.640330097908189

>  <m_score__min__rmsd>  (82) 
7.640330097908189

>  <meeko>  (82) 
{"free_energy": -7.18, "intermolecular_energy": -8.68, "internal_energy": -2.53, "cluster_size": 2, "cluster_id": 8, "rank_in_cluster": 1}

>  <energy>  (82) 
-8.04

>  <cluster_rmsd>  (82) 
1.52

>  <cluster>  (82) 
2

$$$$

     RDKit          3D

 51 54  0  0  0  0  0  0  0  0999 V2000
  141.4640   72.0990  221.6370 O   0  0  0  0  0  0  0  0  0  0  0  0
  140.4690   72.0950  222.4050 C   0  0  0  0  0  0  0  0  0  0  0  0
  139.6500   73.2620  222.3970 N   0  0  0  0  0  0  0  0  0  0  0  0
  140.0240   74.3480  221.5160 C   0  0  0  0  0  0  0  0  0  0  0  0
  139.0450   75.4420  221.5100 C   0  0  0  0  0  0  0  0  0  0  0  0
  137.8670   75.3580  221.9420 O   0  0  0  0  0  0  0  0  0  0  0  0
  139.4490   76.6980  220.9800 N   0  0  0  0  0  0  0  0  0  0  0  0
  138.4740   77.7130  220.6900 C   0  0  0  0  0  0  0  0  0  0  0  0
  138.9180   78.6690  219.6340 C   0  0  0  0  0  0  0  0  0  0  0  0
  139.9090   78.1360  218.6570 C   0  0  0  0  0  0  0  0  0  0  0  0
  141.0240   77.3320  219.2430 C   0  0  0  0  0  0  0  0  0  0  0  0
  140.8450   77.0160  220.7070 C   0  0  1  0  0  0  0  0  0  0  0  0
  141.2460   78.1110  221.6130 C   0  0  0  0  0  0  0  0  0  0  0  0
  141.1140   78.1060  222.9660 C   0  0  0  0  0  0  0  0  0  0  0  0
  141.5050   79.1610  223.7770 C   0  0  0  0  0  0  0  0  0  0  0  0
  142.0650   80.2910  223.1980 C   0  0  0  0  0  0  0  0  0  0  0  0
  142.5600   81.6210  224.2190 Cl  0  0  0  0  0  0  0  0  0  0  0  0
  142.2010   80.2970  221.8260 C   0  0  0  0  0  0  0  0  0  0  0  0
  141.8060   79.2370  221.0270 C   0  0  0  0  0  0  0  0  0  0  0  0
  140.1320   70.9730  223.2770 C   0  0  0  0  0  0  0  0  0  0  0  0
  139.1890   70.0600  222.8450 C   0  0  0  0  0  0  0  0  0  0  0  0
  138.8180   68.9700  223.6170 C   0  0  0  0  0  0  0  0  0  0  0  0
  139.4480   68.8510  224.8480 C   0  0  0  0  0  0  0  0  0  0  0  0
  139.1060   67.7780  225.6500 C   0  0  0  0  0  0  0  0  0  0  0  0
  139.7310   67.6520  226.8830 C   0  0  0  0  0  0  0  0  0  0  0  0
  140.6730   68.5790  227.2960 C   0  0  0  0  0  0  0  0  0  0  0  0
  141.4050   68.3430  228.8550 Cl  0  0  0  0  0  0  0  0  0  0  0  0
  140.9770   69.6300  226.4590 C   0  0  0  0  0  0  0  0  0  0  0  0
  140.3750   69.7850  225.2290 C   0  0  0  0  0  0  0  0  0  0  0  0
  140.7170   70.8310  224.4630 N   0  0  0  0  0  0  0  0  0  0  0  0
  138.8030   73.3480  223.0000 H   0  0  0  0  0  0  0  0  0  0  0  0
  140.9949   74.7477  221.8442 H   0  0  0  0  0  0  0  0  0  0  0  0
  140.0722   73.9427  220.4946 H   0  0  0  0  0  0  0  0  0  0  0  0
  137.5491   77.2230  220.3517 H   0  0  0  0  0  0  0  0  0  0  0  0
  138.3206   78.2924  221.6124 H   0  0  0  0  0  0  0  0  0  0  0  0
  138.0282   78.9898  219.0724 H   0  0  0  0  0  0  0  0  0  0  0  0
  139.4286   79.4864  220.1642 H   0  0  0  0  0  0  0  0  0  0  0  0
  139.3698   77.4967  217.9424 H   0  0  0  0  0  0  0  0  0  0  0  0
  140.3818   79.0162  218.1968 H   0  0  0  0  0  0  0  0  0  0  0  0
  141.0952   76.3837  218.6901 H   0  0  0  0  0  0  0  0  0  0  0  0
  141.9364   77.9404  219.1566 H   0  0  0  0  0  0  0  0  0  0  0  0
  141.5075   76.1605  220.9052 H   0  0  0  0  0  0  0  0  0  0  0  0
  140.6736   77.2180  223.4430 H   0  0  0  0  0  0  0  0  0  0  0  0
  141.3726   79.1026  224.8674 H   0  0  0  0  0  0  0  0  0  0  0  0
  142.6425   81.1823  221.3450 H   0  0  0  0  0  0  0  0  0  0  0  0
  141.9353   79.2875  219.9358 H   0  0  0  0  0  0  0  0  0  0  0  0
  138.7193   70.2022  221.8605 H   0  0  0  0  0  0  0  0  0  0  0  0
  138.0681   68.2419  223.2740 H   0  0  0  0  0  0  0  0  0  0  0  0
  138.3576   67.0428  225.3194 H   0  0  0  0  0  0  0  0  0  0  0  0
  139.4752   66.8068  227.5389 H   0  0  0  0  0  0  0  0  0  0  0  0
  141.7243   70.3694  226.7828 H   0  0  0  0  0  0  0  0  0  0  0  0
  1  2  2  0
  2  3  1  0
  3  4  1  0
  4  5  1  0
  5  6  2  0
  5  7  1  0
  7  8  1  0
  8  9  1  0
  9 10  1  0
 10 11  1  0
 11 12  1  0
 12 13  1  0
 13 14  2  0
 14 15  1  0
 15 16  2  0
 16 17  1  0
 16 18  1  0
 18 19  2  0
  2 20  1  0
 20 21  2  0
 21 22  1  0
 22 23  2  0
 23 24  1  0
 24 25  2  0
 25 26  1  0
 26 27  1  0
 26 28  2  0
 28 29  1  0
 29 30  2  0
 12  7  1  0
 19 13  1  0
 30 20  1  0
 29 23  1  0
  3 31  1  0
  4 32  1  0
  4 33  1  0
  8 34  1  0
  8 35  1  0
  9 36  1  0
  9 37  1  0
 10 38  1  0
 10 39  1  0
 11 40  1  0
 11 41  1  0
 12 42  1  1
 14 43  1  0
 15 44  1  0
 18 45  1  0
 19 46  1  0
 21 47  1  0
 22 48  1  0
 24 49  1  0
 25 50  1  0
 28 51  1  0
M  END
>  <smiles>  (83) 
O=C(NCC(=O)N1CCCCC1c1ccc(Cl)cc1)c1ccc2ccc(Cl)cc2n1

>  <score_type>  (83) 
oracle

>  <origin>  (83) 
autodockgpu

>  <m_score__min__energy>  (83) 
-9.0199999999999996

>  <m_primary>  (83) 
energy

>  <rmsd>  (83) 
2.2436673170941184

>  <m_score__min__rmsd>  (83) 
2.2436673170941184

>  <meeko>  (83) 
{"free_energy": -8.59, "intermolecular_energy": -10.08, "internal_energy": -1.57, "cluster_size": 3, "cluster_id": 3, "rank_in_cluster": 1}

>  <energy>  (83) 
-8.59

>  <cluster_rmsd>  (83) 
0.0

>  <cluster>  (83) 
3

$$$$

     RDKit          3D

 51 54  0  0  0  0  0  0  0  0999 V2000
  140.2380   75.2010  219.3190 O   0  0  0  0  0  0  0  0  0  0  0  0
  140.5760   74.9470  220.5020 C   0  0  0  0  0  0  0  0  0  0  0  0
  141.5960   75.7680  221.0660 N   0  0  0  0  0  0  0  0  0  0  0  0
  142.1580   76.8160  220.2410 C   0  0  0  0  0  0  0  0  0  0  0  0
  141.2760   77.9840  220.1240 C   0  0  0  0  0  0  0  0  0  0  0  0
  140.5280   78.2270  219.1420 O   0  0  0  0  0  0  0  0  0  0  0  0
  141.2570   78.9180  221.1960 N   0  0  0  0  0  0  0  0  0  0  0  0
  141.4790   80.3150  220.9470 C   0  0  0  0  0  0  0  0  0  0  0  0
  142.0200   81.0440  222.1320 C   0  0  0  0  0  0  0  0  0  0  0  0
  142.7960   80.2170  223.0990 C   0  0  0  0  0  0  0  0  0  0  0  0
  142.2010   78.8880  223.4340 C   0  0  0  0  0  0  0  0  0  0  0  0
  141.0170   78.5140  222.5760 C   0  0  1  0  0  0  0  0  0  0  0  0
  139.7430   79.1220  223.0110 C   0  0  0  0  0  0  0  0  0  0  0  0
  139.6210   80.1900  223.8420 C   0  0  0  0  0  0  0  0  0  0  0  0
  138.4000   80.7270  224.2240 C   0  0  0  0  0  0  0  0  0  0  0  0
  137.2290   80.1590  223.7420 C   0  0  0  0  0  0  0  0  0  0  0  0
  135.6900   80.8350  224.2210 Cl  0  0  0  0  0  0  0  0  0  0  0  0
  137.3520   79.0770  222.8980 C   0  0  0  0  0  0  0  0  0  0  0  0
  138.5770   78.5490  222.5250 C   0  0  0  0  0  0  0  0  0  0  0  0
  139.9790   73.8760  221.2960 C   0  0  0  0  0  0  0  0  0  0  0  0
  138.7270   73.4100  220.9430 C   0  0  0  0  0  0  0  0  0  0  0  0
  138.0980   72.3960  221.6490 C   0  0  0  0  0  0  0  0  0  0  0  0
  138.7970   71.8790  222.7290 C   0  0  0  0  0  0  0  0  0  0  0  0
  138.2050   70.8670  223.4610 C   0  0  0  0  0  0  0  0  0  0  0  0
  138.8990   70.3440  224.5450 C   0  0  0  0  0  0  0  0  0  0  0  0
  140.1520   70.8270  224.8810 C   0  0  0  0  0  0  0  0  0  0  0  0
  140.9470   70.1130  226.2520 Cl  0  0  0  0  0  0  0  0  0  0  0  0
  140.6980   71.8360  224.1190 C   0  0  0  0  0  0  0  0  0  0  0  0
  140.0360   72.3780  223.0380 C   0  0  0  0  0  0  0  0  0  0  0  0
  140.6240   73.3590  222.3400 N   0  0  0  0  0  0  0  0  0  0  0  0
  141.9410   75.6310  222.0410 H   0  0  0  0  0  0  0  0  0  0  0  0
  143.1115   77.1389  220.6844 H   0  0  0  0  0  0  0  0  0  0  0  0
  142.2962   76.4034  219.2307 H   0  0  0  0  0  0  0  0  0  0  0  0
  142.1962   80.4130  220.1187 H   0  0  0  0  0  0  0  0  0  0  0  0
  140.5042   80.7631  220.7042 H   0  0  0  0  0  0  0  0  0  0  0  0
  142.6802   81.8436  221.7648 H   0  0  0  0  0  0  0  0  0  0  0  0
  141.1428   81.4099  222.6858 H   0  0  0  0  0  0  0  0  0  0  0  0
  143.7941   80.0428  222.6708 H   0  0  0  0  0  0  0  0  0  0  0  0
  142.8093   80.7868  224.0398 H   0  0  0  0  0  0  0  0  0  0  0  0
  142.9773   78.1191  223.3070 H   0  0  0  0  0  0  0  0  0  0  0  0
  141.8366   78.9534  224.4698 H   0  0  0  0  0  0  0  0  0  0  0  0
  140.9161   77.4230  222.6735 H   0  0  0  0  0  0  0  0  0  0  0  0
  140.5389   80.6535  224.2326 H   0  0  0  0  0  0  0  0  0  0  0  0
  138.3605   81.5930  224.9011 H   0  0  0  0  0  0  0  0  0  0  0  0
  136.4368   78.6119  222.5029 H   0  0  0  0  0  0  0  0  0  0  0  0
  138.6248   77.6825  221.8490 H   0  0  0  0  0  0  0  0  0  0  0  0
  138.2150   73.8560  220.0776 H   0  0  0  0  0  0  0  0  0  0  0  0
  137.1019   72.0232  221.3685 H   0  0  0  0  0  0  0  0  0  0  0  0
  137.2091   70.4852  223.1920 H   0  0  0  0  0  0  0  0  0  0  0  0
  138.4482   69.5378  225.1424 H   0  0  0  0  0  0  0  0  0  0  0  0
  141.6942   72.2218  224.3813 H   0  0  0  0  0  0  0  0  0  0  0  0
  1  2  2  0
  2  3  1  0
  3  4  1  0
  4  5  1  0
  5  6  2  0
  5  7  1  0
  7  8  1  0
  8  9  1  0
  9 10  1  0
 10 11  1  0
 11 12  1  0
 12 13  1  0
 13 14  2  0
 14 15  1  0
 15 16  2  0
 16 17  1  0
 16 18  1  0
 18 19  2  0
  2 20  1  0
 20 21  2  0
 21 22  1  0
 22 23  2  0
 23 24  1  0
 24 25  2  0
 25 26  1  0
 26 27  1  0
 26 28  2  0
 28 29  1  0
 29 30  2  0
 12  7  1  0
 19 13  1  0
 30 20  1  0
 29 23  1  0
  3 31  1  0
  4 32  1  0
  4 33  1  0
  8 34  1  0
  8 35  1  0
  9 36  1  0
  9 37  1  0
 10 38  1  0
 10 39  1  0
 11 40  1  0
 11 41  1  0
 12 42  1  6
 14 43  1  0
 15 44  1  0
 18 45  1  0
 19 46  1  0
 21 47  1  0
 22 48  1  0
 24 49  1  0
 25 50  1  0
 28 51  1  0
M  END
>  <smiles>  (84) 
O=C(NCC(=O)N1CCCCC1c1ccc(Cl)cc1)c1ccc2ccc(Cl)cc2n1

>  <score_type>  (84) 
oracle

>  <origin>  (84) 
autodockgpu

>  <m_score__min__energy>  (84) 
-9.0199999999999996

>  <m_primary>  (84) 
energy

>  <rmsd>  (84) 
5.039698428749395

>  <m_score__min__rmsd>  (84) 
5.039698428749395

>  <meeko>  (84) 
{"free_energy": -8.04, "intermolecular_energy": -9.53, "internal_energy": -1.74, "cluster_size": 7, "cluster_id": 2, "rank_in_cluster": 7}

>  <energy>  (84) 
-8.24

>  <cluster_rmsd>  (84) 
1.21

>  <cluster>  (84) 
3

$$$$

     RDKit          3D

 51 54  0  0  0  0  0  0  0  0999 V2000
  139.6340   72.9700  220.6370 O   0  0  0  0  0  0  0  0  0  0  0  0
  139.0770   72.9240  221.7630 C   0  0  0  0  0  0  0  0  0  0  0  0
  138.3550   74.0850  222.1670 N   0  0  0  0  0  0  0  0  0  0  0  0
  138.3210   75.2130  221.2610 C   0  0  0  0  0  0  0  0  0  0  0  0
  138.6970   76.4760  221.9080 C   0  0  0  0  0  0  0  0  0  0  0  0
  137.9570   77.1400  222.6790 O   0  0  0  0  0  0  0  0  0  0  0  0
  139.9940   76.9990  221.6510 N   0  0  0  0  0  0  0  0  0  0  0  0
  140.7820   77.5470  222.7200 C   0  0  0  0  0  0  0  0  0  0  0  0
  141.7800   78.5560  222.2560 C   0  0  0  0  0  0  0  0  0  0  0  0
  141.4330   79.2760  220.9980 C   0  0  0  0  0  0  0  0  0  0  0  0
  140.8870   78.4250  219.8980 C   0  0  0  0  0  0  0  0  0  0  0  0
  140.5800   77.0080  220.3160 C   0  0  1  0  0  0  0  0  0  0  0  0
  141.7580   76.1170  220.3330 C   0  0  0  0  0  0  0  0  0  0  0  0
  141.8010   74.8740  220.8810 C   0  0  0  0  0  0  0  0  0  0  0  0
  142.9320   74.0720  220.8730 C   0  0  0  0  0  0  0  0  0  0  0  0
  144.0940   74.5440  220.2770 C   0  0  0  0  0  0  0  0  0  0  0  0
  145.5210   73.5340  220.2650 Cl  0  0  0  0  0  0  0  0  0  0  0  0
  144.0510   75.8030  219.7200 C   0  0  0  0  0  0  0  0  0  0  0  0
  142.9150   76.5950  219.7350 C   0  0  0  0  0  0  0  0  0  0  0  0
  139.1410   71.7600  222.6430 C   0  0  0  0  0  0  0  0  0  0  0  0
  138.6150   70.5630  222.1960 C   0  0  0  0  0  0  0  0  0  0  0  0
  138.6400   69.4170  222.9750 C   0  0  0  0  0  0  0  0  0  0  0  0
  139.2210   69.5430  224.2290 C   0  0  0  0  0  0  0  0  0  0  0  0
  139.2640   68.4230  225.0390 C   0  0  0  0  0  0  0  0  0  0  0  0
  139.8440   68.5410  226.2950 C   0  0  0  0  0  0  0  0  0  0  0  0
  140.3630   69.7510  226.7230 C   0  0  0  0  0  0  0  0  0  0  0  0
  141.0700   69.8070  228.3110 Cl  0  0  0  0  0  0  0  0  0  0  0  0
  140.2950   70.8360  225.8780 C   0  0  0  0  0  0  0  0  0  0  0  0
  139.7260   70.7540  224.6250 C   0  0  0  0  0  0  0  0  0  0  0  0
  139.6900   71.8490  223.8520 N   0  0  0  0  0  0  0  0  0  0  0  0
  137.8620   74.1380  223.0850 H   0  0  0  0  0  0  0  0  0  0  0  0
  139.0203   75.0203  220.4340 H   0  0  0  0  0  0  0  0  0  0  0  0
  137.2858   75.3196  220.9048 H   0  0  0  0  0  0  0  0  0  0  0  0
  140.1059   78.0296  223.4411 H   0  0  0  0  0  0  0  0  0  0  0  0
  141.3428   76.7160  223.1727 H   0  0  0  0  0  0  0  0  0  0  0  0
  141.8988   79.3052  223.0526 H   0  0  0  0  0  0  0  0  0  0  0  0
  142.6976   77.9910  222.0352 H   0  0  0  0  0  0  0  0  0  0  0  0
  140.6793   80.0393  221.2416 H   0  0  0  0  0  0  0  0  0  0  0  0
  142.3782   79.6906  220.6175 H   0  0  0  0  0  0  0  0  0  0  0  0
  139.9584   78.8868  219.5313 H   0  0  0  0  0  0  0  0  0  0  0  0
  141.6651   78.3676  219.1226 H   0  0  0  0  0  0  0  0  0  0  0  0
  139.8816   76.6236  219.5580 H   0  0  0  0  0  0  0  0  0  0  0  0
  140.8893   74.4832  221.3565 H   0  0  0  0  0  0  0  0  0  0  0  0
  142.9091   73.0733  221.3335 H   0  0  0  0  0  0  0  0  0  0  0  0
  144.9598   76.1971  219.2418 H   0  0  0  0  0  0  0  0  0  0  0  0
  142.9299   77.5948  219.2766 H   0  0  0  0  0  0  0  0  0  0  0  0
  138.1638   70.5184  221.1938 H   0  0  0  0  0  0  0  0  0  0  0  0
  138.2235   68.4628  222.6199 H   0  0  0  0  0  0  0  0  0  0  0  0
  138.8494   67.4632  224.6970 H   0  0  0  0  0  0  0  0  0  0  0  0
  139.8916   67.6638  226.9570 H   0  0  0  0  0  0  0  0  0  0  0  0
  140.7078   71.7989  226.2134 H   0  0  0  0  0  0  0  0  0  0  0  0
  1  2  2  0
  2  3  1  0
  3  4  1  0
  4  5  1  0
  5  6  2  0
  5  7  1  0
  7  8  1  0
  8  9  1  0
  9 10  1  0
 10 11  1  0
 11 12  1  0
 12 13  1  0
 13 14  2  0
 14 15  1  0
 15 16  2  0
 16 17  1  0
 16 18  1  0
 18 19  2  0
  2 20  1  0
 20 21  2  0
 21 22  1  0
 22 23  2  0
 23 24  1  0
 24 25  2  0
 25 26  1  0
 26 27  1  0
 26 28  2  0
 28 29  1  0
 29 30  2  0
 12  7  1  0
 19 13  1  0
 30 20  1  0
 29 23  1  0
  3 31  1  0
  4 32  1  0
  4 33  1  0
  8 34  1  0
  8 35  1  0
  9 36  1  0
  9 37  1  0
 10 38  1  0
 10 39  1  0
 11 40  1  0
 11 41  1  0
 12 42  1  6
 14 43  1  0
 15 44  1  0
 18 45  1  0
 19 46  1  0
 21 47  1  0
 22 48  1  0
 24 49  1  0
 25 50  1  0
 28 51  1  0
M  END
>  <smiles>  (85) 
O=C(NCC(=O)N1CCCCC1c1ccc(Cl)cc1)c1ccc2ccc(Cl)cc2n1

>  <score_type>  (85) 
oracle

>  <origin>  (85) 
autodockgpu

>  <m_score__min__energy>  (85) 
-9.0199999999999996

>  <m_primary>  (85) 
energy

>  <rmsd>  (85) 
2.948598390567471

>  <m_score__min__rmsd>  (85) 
2.948598390567471

>  <meeko>  (85) 
{"free_energy": -8.24, "intermolecular_energy": -9.73, "internal_energy": -1.82, "cluster_size": 6, "cluster_id": 5, "rank_in_cluster": 4}

>  <energy>  (85) 
-8.22

>  <cluster_rmsd>  (85) 
0.79

>  <cluster>  (85) 
3

$$$$

     RDKit          3D

 51 54  0  0  0  0  0  0  0  0999 V2000
  139.7620   72.8190  220.7160 O   0  0  0  0  0  0  0  0  0  0  0  0
  139.1290   72.7240  221.7970 C   0  0  0  0  0  0  0  0  0  0  0  0
  138.3420   73.8510  222.1770 N   0  0  0  0  0  0  0  0  0  0  0  0
  138.3350   75.0020  221.3000 C   0  0  0  0  0  0  0  0  0  0  0  0
  138.7310   76.2410  221.9800 C   0  0  0  0  0  0  0  0  0  0  0  0
  138.0370   76.8480  222.8350 O   0  0  0  0  0  0  0  0  0  0  0  0
  139.9950   76.8070  221.6570 N   0  0  0  0  0  0  0  0  0  0  0  0
  140.7910   77.4390  222.6730 C   0  0  0  0  0  0  0  0  0  0  0  0
  141.7270   78.4670  222.1310 C   0  0  0  0  0  0  0  0  0  0  0  0
  141.3090   79.1100  220.8540 C   0  0  0  0  0  0  0  0  0  0  0  0
  140.7690   78.1850  219.8120 C   0  0  0  0  0  0  0  0  0  0  0  0
  140.5390   76.7770  220.3050 C   0  0  1  0  0  0  0  0  0  0  0  0
  141.7560   75.9410  220.3240 C   0  0  0  0  0  0  0  0  0  0  0  0
  141.8490   74.6940  220.8590 C   0  0  0  0  0  0  0  0  0  0  0  0
  143.0160   73.9440  220.8540 C   0  0  0  0  0  0  0  0  0  0  0  0
  144.1610   74.4750  220.2760 C   0  0  0  0  0  0  0  0  0  0  0  0
  145.6320   73.5310  220.2680 Cl  0  0  0  0  0  0  0  0  0  0  0  0
  144.0670   75.7380  219.7320 C   0  0  0  0  0  0  0  0  0  0  0  0
  142.8960   76.4770  219.7440 C   0  0  0  0  0  0  0  0  0  0  0  0
  139.1670   71.5390  222.6500 C   0  0  0  0  0  0  0  0  0  0  0  0
  138.6310   70.3600  222.1680 C   0  0  0  0  0  0  0  0  0  0  0  0
  138.6310   69.1960  222.9200 C   0  0  0  0  0  0  0  0  0  0  0  0
  139.2000   69.2840  224.1830 C   0  0  0  0  0  0  0  0  0  0  0  0
  139.2200   68.1450  224.9660 C   0  0  0  0  0  0  0  0  0  0  0  0
  139.7870   68.2250  226.2310 C   0  0  0  0  0  0  0  0  0  0  0  0
  140.3180   69.4170  226.6930 C   0  0  0  0  0  0  0  0  0  0  0  0
  141.0080   69.4260  228.2890 Cl  0  0  0  0  0  0  0  0  0  0  0  0
  140.2730   70.5230  225.8740 C   0  0  0  0  0  0  0  0  0  0  0  0
  139.7170   70.4780  224.6130 C   0  0  0  0  0  0  0  0  0  0  0  0
  139.7040   71.5920  223.8660 N   0  0  0  0  0  0  0  0  0  0  0  0
  137.7820   73.8630  223.0580 H   0  0  0  0  0  0  0  0  0  0  0  0
  139.0354   74.8167  220.4722 H   0  0  0  0  0  0  0  0  0  0  0  0
  137.3039   75.1374  220.9415 H   0  0  0  0  0  0  0  0  0  0  0  0
  140.1168   77.9251  223.3935 H   0  0  0  0  0  0  0  0  0  0  0  0
  141.4028   76.6554  223.1438 H   0  0  0  0  0  0  0  0  0  0  0  0
  141.8361   79.2577  222.8879 H   0  0  0  0  0  0  0  0  0  0  0  0
  142.6623   77.9332  221.9066 H   0  0  0  0  0  0  0  0  0  0  0  0
  140.5289   79.8497  221.0870 H   0  0  0  0  0  0  0  0  0  0  0  0
  142.2223   79.5473  220.4242 H   0  0  0  0  0  0  0  0  0  0  0  0
  139.8099   78.5879  219.4545 H   0  0  0  0  0  0  0  0  0  0  0  0
  141.5249   78.1251  219.0151 H   0  0  0  0  0  0  0  0  0  0  0  0
  139.8358   76.3257  219.5896 H   0  0  0  0  0  0  0  0  0  0  0  0
  140.9511   74.2569  221.3202 H   0  0  0  0  0  0  0  0  0  0  0  0
  143.0339   72.9399  221.3030 H   0  0  0  0  0  0  0  0  0  0  0  0
  144.9618   76.1784  219.2678 H   0  0  0  0  0  0  0  0  0  0  0  0
  142.8702   77.4817  219.2968 H   0  0  0  0  0  0  0  0  0  0  0  0
  138.1922   70.3451  221.1594 H   0  0  0  0  0  0  0  0  0  0  0  0
  138.2047   68.2566  222.5381 H   0  0  0  0  0  0  0  0  0  0  0  0
  138.7974   67.1991  224.5963 H   0  0  0  0  0  0  0  0  0  0  0  0
  139.8145   67.3319  226.8726 H   0  0  0  0  0  0  0  0  0  0  0  0
  140.6938   71.4722  226.2371 H   0  0  0  0  0  0  0  0  0  0  0  0
  1  2  2  0
  2  3  1  0
  3  4  1  0
  4  5  1  0
  5  6  2  0
  5  7  1  0
  7  8  1  0
  8  9  1  0
  9 10  1  0
 10 11  1  0
 11 12  1  0
 12 13  1  0
 13 14  2  0
 14 15  1  0
 15 16  2  0
 16 17  1  0
 16 18  1  0
 18 19  2  0
  2 20  1  0
 20 21  2  0
 21 22  1  0
 22 23  2  0
 23 24  1  0
 24 25  2  0
 25 26  1  0
 26 27  1  0
 26 28  2  0
 28 29  1  0
 29 30  2  0
 12  7  1  0
 19 13  1  0
 30 20  1  0
 29 23  1  0
  3 31  1  0
  4 32  1  0
  4 33  1  0
  8 34  1  0
  8 35  1  0
  9 36  1  0
  9 37  1  0
 10 38  1  0
 10 39  1  0
 11 40  1  0
 11 41  1  0
 12 42  1  6
 14 43  1  0
 15 44  1  0
 18 45  1  0
 19 46  1  0
 21 47  1  0
 22 48  1  0
 24 49  1  0
 25 50  1  0
 28 51  1  0
M  END
>  <smiles>  (86) 
O=C(NCC(=O)N1CCCCC1c1ccc(Cl)cc1)c1ccc2ccc(Cl)cc2n1

>  <score_type>  (86) 
oracle

>  <origin>  (86) 
autodockgpu

>  <m_score__min__energy>  (86) 
-9.0199999999999996

>  <m_primary>  (86) 
energy

>  <rmsd>  (86) 
2.8718462278226338

>  <m_score__min__rmsd>  (86) 
2.8718462278226338

>  <meeko>  (86) 
{"free_energy": -8.29, "intermolecular_energy": -9.78, "internal_energy": -1.76, "cluster_size": 6, "cluster_id": 5, "rank_in_cluster": 2}

>  <energy>  (86) 
-8.44

>  <cluster_rmsd>  (86) 
0.0

>  <cluster>  (86) 
4

$$$$

     RDKit          3D

 51 54  0  0  0  0  0  0  0  0999 V2000
  139.6130   72.9090  220.6040 O   0  0  0  0  0  0  0  0  0  0  0  0
  139.0600   72.8580  221.7320 C   0  0  0  0  0  0  0  0  0  0  0  0
  138.3420   74.0190  222.1450 N   0  0  0  0  0  0  0  0  0  0  0  0
  138.3070   75.1510  221.2450 C   0  0  0  0  0  0  0  0  0  0  0  0
  138.7050   76.4080  221.8920 C   0  0  0  0  0  0  0  0  0  0  0  0
  137.9980   77.0560  222.7040 O   0  0  0  0  0  0  0  0  0  0  0  0
  139.9880   76.9400  221.5850 N   0  0  0  0  0  0  0  0  0  0  0  0
  140.7800   77.5640  222.6090 C   0  0  0  0  0  0  0  0  0  0  0  0
  141.7500   78.5640  222.0730 C   0  0  0  0  0  0  0  0  0  0  0  0
  141.3690   79.2040  220.7820 C   0  0  0  0  0  0  0  0  0  0  0  0
  140.8250   78.2810  219.7400 C   0  0  0  0  0  0  0  0  0  0  0  0
  140.5540   76.8840  220.2430 C   0  0  1  0  0  0  0  0  0  0  0  0
  141.7500   76.0190  220.2920 C   0  0  0  0  0  0  0  0  0  0  0  0
  141.8050   74.7770  220.8400 C   0  0  0  0  0  0  0  0  0  0  0  0
  142.9530   74.0000  220.8630 C   0  0  0  0  0  0  0  0  0  0  0  0
  144.1200   74.4980  220.3000 C   0  0  0  0  0  0  0  0  0  0  0  0
  145.5680   73.5200  220.3270 Cl  0  0  0  0  0  0  0  0  0  0  0  0
  144.0660   75.7570  219.7420 C   0  0  0  0  0  0  0  0  0  0  0  0
  142.9120   76.5230  219.7260 C   0  0  0  0  0  0  0  0  0  0  0  0
  139.1240   71.6900  222.6060 C   0  0  0  0  0  0  0  0  0  0  0  0
  138.6010   70.4940  222.1510 C   0  0  0  0  0  0  0  0  0  0  0  0
  138.6260   69.3440  222.9240 C   0  0  0  0  0  0  0  0  0  0  0  0
  139.2040   69.4640  224.1800 C   0  0  0  0  0  0  0  0  0  0  0  0
  139.2490   68.3400  224.9840 C   0  0  0  0  0  0  0  0  0  0  0  0
  139.8260   68.4520  226.2420 C   0  0  0  0  0  0  0  0  0  0  0  0
  140.3420   69.6600  226.6770 C   0  0  0  0  0  0  0  0  0  0  0  0
  141.0450   69.7090  228.2670 Cl  0  0  0  0  0  0  0  0  0  0  0  0
  140.2730   70.7500  225.8380 C   0  0  0  0  0  0  0  0  0  0  0  0
  139.7070   70.6740  224.5830 C   0  0  0  0  0  0  0  0  0  0  0  0
  139.6710   71.7730  223.8160 N   0  0  0  0  0  0  0  0  0  0  0  0
  137.8510   74.0680  223.0640 H   0  0  0  0  0  0  0  0  0  0  0  0
  138.9927   74.9549  220.4075 H   0  0  0  0  0  0  0  0  0  0  0  0
  137.2679   75.2697  220.9041 H   0  0  0  0  0  0  0  0  0  0  0  0
  140.1045   78.0737  223.3118 H   0  0  0  0  0  0  0  0  0  0  0  0
  141.3642   76.7715  223.0995 H   0  0  0  0  0  0  0  0  0  0  0  0
  141.8653   79.3595  222.8239 H   0  0  0  0  0  0  0  0  0  0  0  0
  142.6759   78.0058  221.8700 H   0  0  0  0  0  0  0  0  0  0  0  0
  140.6028   79.9642  220.9942 H   0  0  0  0  0  0  0  0  0  0  0  0
  142.2995   79.6154  220.3637 H   0  0  0  0  0  0  0  0  0  0  0  0
  139.8817   78.7023  219.3623 H   0  0  0  0  0  0  0  0  0  0  0  0
  141.5925   78.1954  218.9566 H   0  0  0  0  0  0  0  0  0  0  0  0
  139.8530   76.4428  219.5192 H   0  0  0  0  0  0  0  0  0  0  0  0
  140.8892   74.3657  221.2897 H   0  0  0  0  0  0  0  0  0  0  0  0
  142.9392   73.0005  221.3221 H   0  0  0  0  0  0  0  0  0  0  0  0
  144.9790   76.1716  219.2897 H   0  0  0  0  0  0  0  0  0  0  0  0
  142.9169   77.5231  219.2681 H   0  0  0  0  0  0  0  0  0  0  0  0
  138.1525   70.4540  221.1474 H   0  0  0  0  0  0  0  0  0  0  0  0
  138.2117   68.3912  222.5629 H   0  0  0  0  0  0  0  0  0  0  0  0
  138.8379   67.3810  224.6357 H   0  0  0  0  0  0  0  0  0  0  0  0
  139.8734   67.5714  226.8995 H   0  0  0  0  0  0  0  0  0  0  0  0
  140.6825   71.7119  226.1800 H   0  0  0  0  0  0  0  0  0  0  0  0
  1  2  2  0
  2  3  1  0
  3  4  1  0
  4  5  1  0
  5  6  2  0
  5  7  1  0
  7  8  1  0
  8  9  1  0
  9 10  1  0
 10 11  1  0
 11 12  1  0
 12 13  1  0
 13 14  2  0
 14 15  1  0
 15 16  2  0
 16 17  1  0
 16 18  1  0
 18 19  2  0
  2 20  1  0
 20 21  2  0
 21 22  1  0
 22 23  2  0
 23 24  1  0
 24 25  2  0
 25 26  1  0
 26 27  1  0
 26 28  2  0
 28 29  1  0
 29 30  2  0
 12  7  1  0
 19 13  1  0
 30 20  1  0
 29 23  1  0
  3 31  1  0
  4 32  1  0
  4 33  1  0
  8 34  1  0
  8 35  1  0
  9 36  1  0
  9 37  1  0
 10 38  1  0
 10 39  1  0
 11 40  1  0
 11 41  1  0
 12 42  1  6
 14 43  1  0
 15 44  1  0
 18 45  1  0
 19 46  1  0
 21 47  1  0
 22 48  1  0
 24 49  1  0
 25 50  1  0
 28 51  1  0
M  END
>  <smiles>  (87) 
O=C(NCC(=O)N1CCCCC1c1ccc(Cl)cc1)c1ccc2ccc(Cl)cc2n1

>  <score_type>  (87) 
oracle

>  <origin>  (87) 
autodockgpu

>  <m_score__min__energy>  (87) 
-9.0199999999999996

>  <m_primary>  (87) 
energy

>  <rmsd>  (87) 
2.8913323070348227

>  <m_score__min__rmsd>  (87) 
2.8913323070348227

>  <meeko>  (87) 
{"free_energy": -8.24, "intermolecular_energy": -9.73, "internal_energy": -1.81, "cluster_size": 6, "cluster_id": 5, "rank_in_cluster": 5}

>  <energy>  (87) 
-8.42

>  <cluster_rmsd>  (87) 
0.15

>  <cluster>  (87) 
4

$$$$

     RDKit          3D

 51 54  0  0  0  0  0  0  0  0999 V2000
  141.1300   73.3590  221.7710 O   0  0  0  0  0  0  0  0  0  0  0  0
  140.0380   73.1320  222.3520 C   0  0  0  0  0  0  0  0  0  0  0  0
  139.0470   74.1540  222.2720 N   0  0  0  0  0  0  0  0  0  0  0  0
  139.3710   75.3590  221.5380 C   0  0  0  0  0  0  0  0  0  0  0  0
  138.8680   76.5760  222.1860 C   0  0  0  0  0  0  0  0  0  0  0  0
  137.6930   76.7350  222.6070 O   0  0  0  0  0  0  0  0  0  0  0  0
  139.7670   77.6640  222.3580 N   0  0  0  0  0  0  0  0  0  0  0  0
  141.1320   77.4260  222.7390 C   0  0  0  0  0  0  0  0  0  0  0  0
  141.7540   78.5830  223.4470 C   0  0  0  0  0  0  0  0  0  0  0  0
  140.8100   79.4770  224.1750 C   0  0  0  0  0  0  0  0  0  0  0  0
  139.5580   79.8290  223.4390 C   0  0  0  0  0  0  0  0  0  0  0  0
  139.3600   79.0490  222.1630 C   0  0  1  0  0  0  0  0  0  0  0  0
  140.1110   79.5840  221.0090 C   0  0  0  0  0  0  0  0  0  0  0  0
  140.7560   80.7790  220.9710 C   0  0  0  0  0  0  0  0  0  0  0  0
  141.4500   81.2400  219.8630 C   0  0  0  0  0  0  0  0  0  0  0  0
  141.5010   80.4550  218.7200 C   0  0  0  0  0  0  0  0  0  0  0  0
  142.3760   81.0340  217.3210 Cl  0  0  0  0  0  0  0  0  0  0  0  0
  140.8480   79.2420  218.7560 C   0  0  0  0  0  0  0  0  0  0  0  0
  140.1580   78.7930  219.8700 C   0  0  0  0  0  0  0  0  0  0  0  0
  139.7570   71.8990  223.0810 C   0  0  0  0  0  0  0  0  0  0  0  0
  138.8960   70.9780  222.5160 C   0  0  0  0  0  0  0  0  0  0  0  0
  138.5820   69.7850  223.1490 C   0  0  0  0  0  0  0  0  0  0  0  0
  139.1810   69.5710  224.3820 C   0  0  0  0  0  0  0  0  0  0  0  0
  138.8940   68.3940  225.0480 C   0  0  0  0  0  0  0  0  0  0  0  0
  139.4900   68.1730  226.2820 C   0  0  0  0  0  0  0  0  0  0  0  0
  140.3500   69.1100  226.8300 C   0  0  0  0  0  0  0  0  0  0  0  0
  141.0500   68.7500  228.3800 Cl  0  0  0  0  0  0  0  0  0  0  0  0
  140.6020   70.2670  226.1260 C   0  0  0  0  0  0  0  0  0  0  0  0
  140.0270   70.5180  224.8990 C   0  0  0  0  0  0  0  0  0  0  0  0
  140.3150   71.6650  224.2660 N   0  0  0  0  0  0  0  0  0  0  0  0
  138.1120   74.0540  222.7220 H   0  0  0  0  0  0  0  0  0  0  0  0
  140.4651   75.4339  221.4519 H   0  0  0  0  0  0  0  0  0  0  0  0
  138.8866   75.2855  220.5531 H   0  0  0  0  0  0  0  0  0  0  0  0
  141.1618   76.5512  223.4052 H   0  0  0  0  0  0  0  0  0  0  0  0
  141.7057   77.2608  221.8151 H   0  0  0  0  0  0  0  0  0  0  0  0
  142.4742   78.1852  224.1772 H   0  0  0  0  0  0  0  0  0  0  0  0
  142.2116   79.2041  222.6629 H   0  0  0  0  0  0  0  0  0  0  0  0
  140.5229   78.9759  225.1112 H   0  0  0  0  0  0  0  0  0  0  0  0
  141.3478   80.4247  224.3253 H   0  0  0  0  0  0  0  0  0  0  0  0
  138.7009   79.6345  224.1005 H   0  0  0  0  0  0  0  0  0  0  0  0
  139.6408   80.8888  223.1562 H   0  0  0  0  0  0  0  0  0  0  0  0
  138.2879   79.1325  221.9315 H   0  0  0  0  0  0  0  0  0  0  0  0
  140.7260   81.4152  221.8678 H   0  0  0  0  0  0  0  0  0  0  0  0
  141.9545   82.2171  219.8897 H   0  0  0  0  0  0  0  0  0  0  0  0
  140.8759   78.6026  217.8613 H   0  0  0  0  0  0  0  0  0  0  0  0
  139.6512   77.8169  219.8518 H   0  0  0  0  0  0  0  0  0  0  0  0
  138.4468   71.1974  221.5362 H   0  0  0  0  0  0  0  0  0  0  0  0
  137.8975   69.0506  222.6995 H   0  0  0  0  0  0  0  0  0  0  0  0
  138.2104   67.6512  224.6110 H   0  0  0  0  0  0  0  0  0  0  0  0
  139.2769   67.2436  226.8305 H   0  0  0  0  0  0  0  0  0  0  0  0
  141.2841   71.0146  226.5571 H   0  0  0  0  0  0  0  0  0  0  0  0
  1  2  2  0
  2  3  1  0
  3  4  1  0
  4  5  1  0
  5  6  2  0
  5  7  1  0
  7  8  1  0
  8  9  1  0
  9 10  1  0
 10 11  1  0
 11 12  1  0
 12 13  1  0
 13 14  2  0
 14 15  1  0
 15 16  2  0
 16 17  1  0
 16 18  1  0
 18 19  2  0
  2 20  1  0
 20 21  2  0
 21 22  1  0
 22 23  2  0
 23 24  1  0
 24 25  2  0
 25 26  1  0
 26 27  1  0
 26 28  2  0
 28 29  1  0
 29 30  2  0
 12  7  1  0
 19 13  1  0
 30 20  1  0
 29 23  1  0
  3 31  1  0
  4 32  1  0
  4 33  1  0
  8 34  1  0
  8 35  1  0
  9 36  1  0
  9 37  1  0
 10 38  1  0
 10 39  1  0
 11 40  1  0
 11 41  1  0
 12 42  1  6
 14 43  1  0
 15 44  1  0
 18 45  1  0
 19 46  1  0
 21 47  1  0
 22 48  1  0
 24 49  1  0
 25 50  1  0
 28 51  1  0
M  END
>  <smiles>  (88) 
O=C(NCC(=O)N1CCCCC1c1ccc(Cl)cc1)c1ccc2ccc(Cl)cc2n1

>  <score_type>  (88) 
oracle

>  <origin>  (88) 
autodockgpu

>  <m_score__min__energy>  (88) 
-9.0199999999999996

>  <m_primary>  (88) 
energy

>  <rmsd>  (88) 
3.8637308053368766

>  <m_score__min__rmsd>  (88) 
3.8637308053368766

>  <meeko>  (88) 
{"free_energy": -8.31, "intermolecular_energy": -9.8, "internal_energy": -1.5, "cluster_size": 3, "cluster_id": 4, "rank_in_cluster": 3}

>  <energy>  (88) 
-8.31

>  <cluster_rmsd>  (88) 
1.0

>  <cluster>  (88) 
4

$$$$

     RDKit          3D

 51 54  0  0  0  0  0  0  0  0999 V2000
  141.5530   74.4360  220.9050 O   0  0  0  0  0  0  0  0  0  0  0  0
  140.6740   75.0420  221.5680 C   0  0  0  0  0  0  0  0  0  0  0  0
  139.6570   74.2400  222.1650 N   0  0  0  0  0  0  0  0  0  0  0  0
  139.7160   72.8090  221.9640 C   0  0  0  0  0  0  0  0  0  0  0  0
  138.4940   72.1200  222.3990 C   0  0  0  0  0  0  0  0  0  0  0  0
  137.3520   72.6440  222.4540 O   0  0  0  0  0  0  0  0  0  0  0  0
  138.5980   70.7560  222.7880 N   0  0  0  0  0  0  0  0  0  0  0  0
  139.5510   69.8890  222.1540 C   0  0  0  0  0  0  0  0  0  0  0  0
  139.1580   68.4500  222.2020 C   0  0  0  0  0  0  0  0  0  0  0  0
  137.6950   68.1830  222.2960 C   0  0  0  0  0  0  0  0  0  0  0  0
  136.9440   69.0410  223.2620 C   0  0  0  0  0  0  0  0  0  0  0  0
  137.7570   70.1780  223.8300 C   0  0  1  0  0  0  0  0  0  0  0  0
  138.6320   69.7900  224.9540 C   0  0  0  0  0  0  0  0  0  0  0  0
  139.5800   70.5780  225.5260 C   0  0  0  0  0  0  0  0  0  0  0  0
  140.3800   70.1690  226.5830 C   0  0  0  0  0  0  0  0  0  0  0  0
  140.2200   68.8910  227.1000 C   0  0  0  0  0  0  0  0  0  0  0  0
  141.2270   68.3740  228.4320 Cl  0  0  0  0  0  0  0  0  0  0  0  0
  139.2580   68.0910  226.5210 C   0  0  0  0  0  0  0  0  0  0  0  0
  138.4660   68.5110  225.4660 C   0  0  0  0  0  0  0  0  0  0  0  0
  140.6570   76.4920  221.7430 C   0  0  0  0  0  0  0  0  0  0  0  0
  141.5860   77.2520  221.0590 C   0  0  0  0  0  0  0  0  0  0  0  0
  141.6310   78.6320  221.1750 C   0  0  0  0  0  0  0  0  0  0  0  0
  140.6900   79.2050  222.0180 C   0  0  0  0  0  0  0  0  0  0  0  0
  140.7000   80.5800  222.1630 C   0  0  0  0  0  0  0  0  0  0  0  0
  139.7610   81.1610  223.0050 C   0  0  0  0  0  0  0  0  0  0  0  0
  138.8400   80.3800  223.6810 C   0  0  0  0  0  0  0  0  0  0  0  0
  137.7010   81.1920  224.7150 Cl  0  0  0  0  0  0  0  0  0  0  0  0
  138.8720   79.0150  223.5020 C   0  0  0  0  0  0  0  0  0  0  0  0
  139.7900   78.4060  222.6740 C   0  0  0  0  0  0  0  0  0  0  0  0
  139.7670   77.0720  222.5450 N   0  0  0  0  0  0  0  0  0  0  0  0
  138.8870   74.6560  222.7330 H   0  0  0  0  0  0  0  0  0  0  0  0
  139.8682   72.6110  220.8927 H   0  0  0  0  0  0  0  0  0  0  0  0
  140.5469   72.4240  222.5735 H   0  0  0  0  0  0  0  0  0  0  0  0
  139.6506   70.1895  221.1005 H   0  0  0  0  0  0  0  0  0  0  0  0
  140.4992   69.9879  222.7027 H   0  0  0  0  0  0  0  0  0  0  0  0
  139.5317   67.9668  221.2872 H   0  0  0  0  0  0  0  0  0  0  0  0
  139.5961   68.0500  223.1283 H   0  0  0  0  0  0  0  0  0  0  0  0
  137.2583   68.3346  221.2979 H   0  0  0  0  0  0  0  0  0  0  0  0
  137.6000   67.1531  222.6706 H   0  0  0  0  0  0  0  0  0  0  0  0
  136.0714   69.4646  222.7432 H   0  0  0  0  0  0  0  0  0  0  0  0
  136.6610   68.3971  224.1078 H   0  0  0  0  0  0  0  0  0  0  0  0
  137.0221   70.9008  224.2141 H   0  0  0  0  0  0  0  0  0  0  0  0
  139.7205   71.5945  225.1297 H   0  0  0  0  0  0  0  0  0  0  0  0
  141.1328   70.8500  227.0066 H   0  0  0  0  0  0  0  0  0  0  0  0
  139.1133   67.0741  226.9146 H   0  0  0  0  0  0  0  0  0  0  0  0
  137.7109   67.8360  225.0369 H   0  0  0  0  0  0  0  0  0  0  0  0
  142.3108   76.7471  220.4035 H   0  0  0  0  0  0  0  0  0  0  0  0
  142.3699   79.2380  220.6303 H   0  0  0  0  0  0  0  0  0  0  0  0
  141.4335   81.1983  221.6247 H   0  0  0  0  0  0  0  0  0  0  0  0
  139.7491   82.2531  223.1360 H   0  0  0  0  0  0  0  0  0  0  0  0
  138.1413   78.3907  224.0371 H   0  0  0  0  0  0  0  0  0  0  0  0
  1  2  2  0
  2  3  1  0
  3  4  1  0
  4  5  1  0
  5  6  2  0
  5  7  1  0
  7  8  1  0
  8  9  1  0
  9 10  1  0
 10 11  1  0
 11 12  1  0
 12 13  1  0
 13 14  2  0
 14 15  1  0
 15 16  2  0
 16 17  1  0
 16 18  1  0
 18 19  2  0
  2 20  1  0
 20 21  2  0
 21 22  1  0
 22 23  2  0
 23 24  1  0
 24 25  2  0
 25 26  1  0
 26 27  1  0
 26 28  2  0
 28 29  1  0
 29 30  2  0
 12  7  1  0
 19 13  1  0
 30 20  1  0
 29 23  1  0
  3 31  1  0
  4 32  1  0
  4 33  1  0
  8 34  1  0
  8 35  1  0
  9 36  1  0
  9 37  1  0
 10 38  1  0
 10 39  1  0
 11 40  1  0
 11 41  1  0
 12 42  1  1
 14 43  1  0
 15 44  1  0
 18 45  1  0
 19 46  1  0
 21 47  1  0
 22 48  1  0
 24 49  1  0
 25 50  1  0
 28 51  1  0
M  END
>  <smiles>  (89) 
O=C(NCC(=O)N1CCCCC1c1ccc(Cl)cc1)c1ccc2ccc(Cl)cc2n1

>  <score_type>  (89) 
oracle

>  <origin>  (89) 
autodockgpu

>  <m_score__min__energy>  (89) 
-9.0199999999999996

>  <m_primary>  (89) 
energy

>  <rmsd>  (89) 
8.40177903557639

>  <m_score__min__rmsd>  (89) 
8.40177903557639

>  <meeko>  (89) 
{"free_energy": -8.0, "intermolecular_energy": -9.49, "internal_energy": -1.75, "cluster_size": 25, "cluster_id": 1, "rank_in_cluster": 25}

>  <energy>  (89) 
-8.35

>  <cluster_rmsd>  (89) 
0.0

>  <cluster>  (89) 
5

$$$$

     RDKit          3D

 51 54  0  0  0  0  0  0  0  0999 V2000
  140.2720   73.3570  220.4510 O   0  0  0  0  0  0  0  0  0  0  0  0
  139.8470   73.3930  221.6330 C   0  0  0  0  0  0  0  0  0  0  0  0
  139.4240   74.6640  222.1230 N   0  0  0  0  0  0  0  0  0  0  0  0
  139.5150   75.8000  221.2310 C   0  0  0  0  0  0  0  0  0  0  0  0
  140.8280   76.4540  221.2720 C   0  0  0  0  0  0  0  0  0  0  0  0
  141.9200   75.8990  220.9840 O   0  0  0  0  0  0  0  0  0  0  0  0
  140.8830   77.8200  221.6640 N   0  0  0  0  0  0  0  0  0  0  0  0
  140.9940   78.8570  220.6750 C   0  0  0  0  0  0  0  0  0  0  0  0
  141.6300   80.1020  221.1990 C   0  0  0  0  0  0  0  0  0  0  0  0
  142.5610   79.9170  222.3480 C   0  0  0  0  0  0  0  0  0  0  0  0
  142.0860   78.9910  223.4200 C   0  0  0  0  0  0  0  0  0  0  0  0
  140.8320   78.2310  223.0610 C   0  0  1  0  0  0  0  0  0  0  0  0
  139.5860   78.9990  223.2620 C   0  0  0  0  0  0  0  0  0  0  0  0
  138.3420   78.5960  222.8930 C   0  0  0  0  0  0  0  0  0  0  0  0
  137.1980   79.3510  223.1030 C   0  0  0  0  0  0  0  0  0  0  0  0
  137.3080   80.5890  223.7220 C   0  0  0  0  0  0  0  0  0  0  0  0
  135.8670   81.5430  223.9890 Cl  0  0  0  0  0  0  0  0  0  0  0  0
  138.5680   80.9980  224.0990 C   0  0  0  0  0  0  0  0  0  0  0  0
  139.7030   80.2340  223.8830 C   0  0  0  0  0  0  0  0  0  0  0  0
  139.7740   72.2180  222.4970 C   0  0  0  0  0  0  0  0  0  0  0  0
  139.2430   71.0500  221.9810 C   0  0  0  0  0  0  0  0  0  0  0  0
  139.1420   69.8950  222.7400 C   0  0  0  0  0  0  0  0  0  0  0  0
  139.6030   69.9800  224.0460 C   0  0  0  0  0  0  0  0  0  0  0  0
  139.5190   68.8500  224.8390 C   0  0  0  0  0  0  0  0  0  0  0  0
  139.9780   68.9260  226.1470 C   0  0  0  0  0  0  0  0  0  0  0  0
  140.5060   70.1060  226.6420 C   0  0  0  0  0  0  0  0  0  0  0  0
  141.0560   70.1110  228.2920 Cl  0  0  0  0  0  0  0  0  0  0  0  0
  140.5670   71.2040  225.8120 C   0  0  0  0  0  0  0  0  0  0  0  0
  140.1190   71.1620  224.5090 C   0  0  0  0  0  0  0  0  0  0  0  0
  140.2070   72.2670  223.7550 N   0  0  0  0  0  0  0  0  0  0  0  0
  139.0570   74.7890  223.0910 H   0  0  0  0  0  0  0  0  0  0  0  0
  139.3263   75.4556  220.2035 H   0  0  0  0  0  0  0  0  0  0  0  0
  138.7681   76.5380  221.5588 H   0  0  0  0  0  0  0  0  0  0  0  0
  141.6008   78.4794  219.8388 H   0  0  0  0  0  0  0  0  0  0  0  0
  139.9734   79.1187  220.3589 H   0  0  0  0  0  0  0  0  0  0  0  0
  142.1955   80.5646  220.3767 H   0  0  0  0  0  0  0  0  0  0  0  0
  140.8054   80.7237  221.5779 H   0  0  0  0  0  0  0  0  0  0  0  0
  143.5095   79.5220  221.9551 H   0  0  0  0  0  0  0  0  0  0  0  0
  142.6539   80.9050  222.8226 H   0  0  0  0  0  0  0  0  0  0  0  0
  142.8843   78.2634  223.6278 H   0  0  0  0  0  0  0  0  0  0  0  0
  141.8430   79.6128  224.2942 H   0  0  0  0  0  0  0  0  0  0  0  0
  140.8060   77.3677  223.7423 H   0  0  0  0  0  0  0  0  0  0  0  0
  138.2367   77.6178  222.4010 H   0  0  0  0  0  0  0  0  0  0  0  0
  136.2155   78.9738  222.7831 H   0  0  0  0  0  0  0  0  0  0  0  0
  138.6778   81.9745  224.5934 H   0  0  0  0  0  0  0  0  0  0  0  0
  140.6890   80.6035  224.2012 H   0  0  0  0  0  0  0  0  0  0  0  0
  138.8909   71.0374  220.9389 H   0  0  0  0  0  0  0  0  0  0  0  0
  138.7208   68.9648  222.3309 H   0  0  0  0  0  0  0  0  0  0  0  0
  139.0987   67.9138  224.4429 H   0  0  0  0  0  0  0  0  0  0  0  0
  139.9216   68.0399  226.7964 H   0  0  0  0  0  0  0  0  0  0  0  0
  140.9863   72.1435  226.2012 H   0  0  0  0  0  0  0  0  0  0  0  0
  1  2  2  0
  2  3  1  0
  3  4  1  0
  4  5  1  0
  5  6  2  0
  5  7  1  0
  7  8  1  0
  8  9  1  0
  9 10  1  0
 10 11  1  0
 11 12  1  0
 12 13  1  0
 13 14  2  0
 14 15  1  0
 15 16  2  0
 16 17  1  0
 16 18  1  0
 18 19  2  0
  2 20  1  0
 20 21  2  0
 21 22  1  0
 22 23  2  0
 23 24  1  0
 24 25  2  0
 25 26  1  0
 26 27  1  0
 26 28  2  0
 28 29  1  0
 29 30  2  0
 12  7  1  0
 19 13  1  0
 30 20  1  0
 29 23  1  0
  3 31  1  0
  4 32  1  0
  4 33  1  0
  8 34  1  0
  8 35  1  0
  9 36  1  0
  9 37  1  0
 10 38  1  0
 10 39  1  0
 11 40  1  0
 11 41  1  0
 12 42  1  1
 14 43  1  0
 15 44  1  0
 18 45  1  0
 19 46  1  0
 21 47  1  0
 22 48  1  0
 24 49  1  0
 25 50  1  0
 28 51  1  0
M  END
>  <smiles>  (90) 
O=C(NCC(=O)N1CCCCC1c1ccc(Cl)cc1)c1ccc2ccc(Cl)cc2n1

>  <score_type>  (90) 
oracle

>  <origin>  (90) 
autodockgpu

>  <m_score__min__energy>  (90) 
-9.0199999999999996

>  <m_primary>  (90) 
energy

>  <rmsd>  (90) 
3.537231877940905

>  <m_score__min__rmsd>  (90) 
3.537231877940905

>  <meeko>  (90) 
{"free_energy": -8.52, "intermolecular_energy": -10.01, "internal_energy": -1.48, "cluster_size": 7, "cluster_id": 2, "rank_in_cluster": 3}

>  <energy>  (90) 
-8.29

>  <cluster_rmsd>  (90) 
0.12

>  <cluster>  (90) 
5

$$$$

     RDKit          3D

 51 54  0  0  0  0  0  0  0  0999 V2000
  140.7280   74.1310  220.9690 O   0  0  0  0  0  0  0  0  0  0  0  0
  139.7690   74.5910  221.6380 C   0  0  0  0  0  0  0  0  0  0  0  0
  138.7060   73.6890  221.9380 N   0  0  0  0  0  0  0  0  0  0  0  0
  138.8130   72.3300  221.4530 C   0  0  0  0  0  0  0  0  0  0  0  0
  139.6960   71.4970  222.2790 C   0  0  0  0  0  0  0  0  0  0  0  0
  140.9330   71.6780  222.4210 O   0  0  0  0  0  0  0  0  0  0  0  0
  139.1210   70.3990  222.9770 N   0  0  0  0  0  0  0  0  0  0  0  0
  139.3030   69.0570  222.4990 C   0  0  0  0  0  0  0  0  0  0  0  0
  138.2120   68.1300  222.9230 C   0  0  0  0  0  0  0  0  0  0  0  0
  136.8920   68.7670  223.1930 C   0  0  0  0  0  0  0  0  0  0  0  0
  136.9370   70.0370  223.9790 C   0  0  0  0  0  0  0  0  0  0  0  0
  138.3310   70.5760  224.1890 C   0  0  1  0  0  0  0  0  0  0  0  0
  139.0610   69.9370  225.3030 C   0  0  0  0  0  0  0  0  0  0  0  0
  138.8260   68.6900  225.7890 C   0  0  0  0  0  0  0  0  0  0  0  0
  139.5380   68.1310  226.8390 C   0  0  0  0  0  0  0  0  0  0  0  0
  140.5510   68.8660  227.4390 C   0  0  0  0  0  0  0  0  0  0  0  0
  141.4520   68.1630  228.7620 Cl  0  0  0  0  0  0  0  0  0  0  0  0
  140.7920   70.1300  226.9460 C   0  0  0  0  0  0  0  0  0  0  0  0
  140.0720   70.6780  225.8980 C   0  0  0  0  0  0  0  0  0  0  0  0
  139.7050   75.9740  222.1060 C   0  0  0  0  0  0  0  0  0  0  0  0
  138.4650   76.5560  222.2830 C   0  0  0  0  0  0  0  0  0  0  0  0
  138.3260   77.8620  222.7240 C   0  0  0  0  0  0  0  0  0  0  0  0
  139.5040   78.5510  222.9770 C   0  0  0  0  0  0  0  0  0  0  0  0
  139.4110   79.8580  223.4180 C   0  0  0  0  0  0  0  0  0  0  0  0
  140.5850   80.5530  223.6730 C   0  0  0  0  0  0  0  0  0  0  0  0
  141.8170   79.9500  223.4880 C   0  0  0  0  0  0  0  0  0  0  0  0
  143.2360   80.8950  223.8320 Cl  0  0  0  0  0  0  0  0  0  0  0  0
  141.8560   78.6450  223.0470 C   0  0  0  0  0  0  0  0  0  0  0  0
  140.7090   77.9270  222.7840 C   0  0  0  0  0  0  0  0  0  0  0  0
  140.8170   76.6610  222.3560 N   0  0  0  0  0  0  0  0  0  0  0  0
  137.8700   73.9820  222.4880 H   0  0  0  0  0  0  0  0  0  0  0  0
  137.8096   71.8793  221.4470 H   0  0  0  0  0  0  0  0  0  0  0  0
  139.2482   72.3728  220.4437 H   0  0  0  0  0  0  0  0  0  0  0  0
  139.3362   69.0786  221.3997 H   0  0  0  0  0  0  0  0  0  0  0  0
  140.2407   68.6792  222.9326 H   0  0  0  0  0  0  0  0  0  0  0  0
  138.0714   67.3859  222.1251 H   0  0  0  0  0  0  0  0  0  0  0  0
  138.5392   67.6998  223.8811 H   0  0  0  0  0  0  0  0  0  0  0  0
  136.4169   68.9847  222.2251 H   0  0  0  0  0  0  0  0  0  0  0  0
  136.3326   68.0498  223.8116 H   0  0  0  0  0  0  0  0  0  0  0  0
  136.3486   70.7968  223.4437 H   0  0  0  0  0  0  0  0  0  0  0  0
  136.5281   69.8113  224.9749 H   0  0  0  0  0  0  0  0  0  0  0  0
  138.1997   71.6385  224.4416 H   0  0  0  0  0  0  0  0  0  0  0  0
  138.0281   68.0921  225.3244 H   0  0  0  0  0  0  0  0  0  0  0  0
  139.3027   67.1163  227.1927 H   0  0  0  0  0  0  0  0  0  0  0  0
  141.5915   70.7300  227.4052 H   0  0  0  0  0  0  0  0  0  0  0  0
  140.2997   71.6929  225.5399 H   0  0  0  0  0  0  0  0  0  0  0  0
  137.5621   75.9658  222.0677 H   0  0  0  0  0  0  0  0  0  0  0  0
  137.3388   78.3262  222.8655 H   0  0  0  0  0  0  0  0  0  0  0  0
  138.4307   80.3353  223.5632 H   0  0  0  0  0  0  0  0  0  0  0  0
  140.5358   81.5937  224.0258 H   0  0  0  0  0  0  0  0  0  0  0  0
  142.8329   78.1611  222.9003 H   0  0  0  0  0  0  0  0  0  0  0  0
  1  2  2  0
  2  3  1  0
  3  4  1  0
  4  5  1  0
  5  6  2  0
  5  7  1  0
  7  8  1  0
  8  9  1  0
  9 10  1  0
 10 11  1  0
 11 12  1  0
 12 13  1  0
 13 14  2  0
 14 15  1  0
 15 16  2  0
 16 17  1  0
 16 18  1  0
 18 19  2  0
  2 20  1  0
 20 21  2  0
 21 22  1  0
 22 23  2  0
 23 24  1  0
 24 25  2  0
 25 26  1  0
 26 27  1  0
 26 28  2  0
 28 29  1  0
 29 30  2  0
 12  7  1  0
 19 13  1  0
 30 20  1  0
 29 23  1  0
  3 31  1  0
  4 32  1  0
  4 33  1  0
  8 34  1  0
  8 35  1  0
  9 36  1  0
  9 37  1  0
 10 38  1  0
 10 39  1  0
 11 40  1  0
 11 41  1  0
 12 42  1  1
 14 43  1  0
 15 44  1  0
 18 45  1  0
 19 46  1  0
 21 47  1  0
 22 48  1  0
 24 49  1  0
 25 50  1  0
 28 51  1  0
M  END
>  <smiles>  (91) 
O=C(NCC(=O)N1CCCCC1c1ccc(Cl)cc1)c1ccc2ccc(Cl)cc2n1

>  <score_type>  (91) 
oracle

>  <origin>  (91) 
autodockgpu

>  <m_score__min__energy>  (91) 
-9.0199999999999996

>  <m_primary>  (91) 
energy

>  <rmsd>  (91) 
7.973875789673472

>  <m_score__min__rmsd>  (91) 
7.973875789673472

>  <meeko>  (91) 
{"free_energy": -8.97, "intermolecular_energy": -10.46, "internal_energy": -1.19, "cluster_size": 25, "cluster_id": 1, "rank_in_cluster": 3}

>  <energy>  (91) 
-8.26

>  <cluster_rmsd>  (91) 
0.98

>  <cluster>  (91) 
5

$$$$

     RDKit          3D

 51 54  0  0  0  0  0  0  0  0999 V2000
  140.6960   74.3330  220.4820 O   0  0  0  0  0  0  0  0  0  0  0  0
  140.0480   74.9340  221.3750 C   0  0  0  0  0  0  0  0  0  0  0  0
  139.0530   74.1780  222.0630 N   0  0  0  0  0  0  0  0  0  0  0  0
  138.8700   72.7940  221.6820 C   0  0  0  0  0  0  0  0  0  0  0  0
  139.7900   71.8840  222.3750 C   0  0  0  0  0  0  0  0  0  0  0  0
  141.0270   72.0720  222.5060 O   0  0  0  0  0  0  0  0  0  0  0  0
  139.2540   70.6970  222.9470 N   0  0  0  0  0  0  0  0  0  0  0  0
  139.5700   69.4130  222.3860 C   0  0  0  0  0  0  0  0  0  0  0  0
  138.5270   68.3800  222.6600 C   0  0  0  0  0  0  0  0  0  0  0  0
  137.1470   68.8990  222.8780 C   0  0  0  0  0  0  0  0  0  0  0  0
  137.0420   70.1030  223.7560 C   0  0  0  0  0  0  0  0  0  0  0  0
  138.3730   70.7220  224.1080 C   0  0  1  0  0  0  0  0  0  0  0  0
  139.0730   70.0500  225.2220 C   0  0  0  0  0  0  0  0  0  0  0  0
  138.7910   68.8090  225.6980 C   0  0  0  0  0  0  0  0  0  0  0  0
  139.4770   68.2180  226.7490 C   0  0  0  0  0  0  0  0  0  0  0  0
  140.5100   68.9140  227.3610 C   0  0  0  0  0  0  0  0  0  0  0  0
  141.3760   68.1710  228.6850 Cl  0  0  0  0  0  0  0  0  0  0  0  0
  140.7980   70.1720  226.8780 C   0  0  0  0  0  0  0  0  0  0  0  0
  140.1050   70.7520  225.8280 C   0  0  0  0  0  0  0  0  0  0  0  0
  140.2700   76.3350  221.7240 C   0  0  0  0  0  0  0  0  0  0  0  0
  141.4380   76.9440  221.3050 C   0  0  0  0  0  0  0  0  0  0  0  0
  141.7170   78.2690  221.5980 C   0  0  0  0  0  0  0  0  0  0  0  0
  140.7580   78.9480  222.3350 C   0  0  0  0  0  0  0  0  0  0  0  0
  140.9980   80.2720  222.6500 C   0  0  0  0  0  0  0  0  0  0  0  0
  140.0420   80.9580  223.3880 C   0  0  0  0  0  0  0  0  0  0  0  0
  138.8800   80.3280  223.7970 C   0  0  0  0  0  0  0  0  0  0  0  0
  137.7390   81.2640  224.7170 Cl  0  0  0  0  0  0  0  0  0  0  0  0
  138.6880   79.0070  223.4580 C   0  0  0  0  0  0  0  0  0  0  0  0
  139.6170   78.2970  222.7270 C   0  0  0  0  0  0  0  0  0  0  0  0
  139.3690   77.0130  222.4310 N   0  0  0  0  0  0  0  0  0  0  0  0
  138.4670   74.5930  222.8190 H   0  0  0  0  0  0  0  0  0  0  0  0
  137.8377   72.4980  221.9203 H   0  0  0  0  0  0  0  0  0  0  0  0
  139.0796   72.7178  220.6048 H   0  0  0  0  0  0  0  0  0  0  0  0
  139.6753   69.5235  221.2966 H   0  0  0  0  0  0  0  0  0  0  0  0
  140.5026   69.0700  222.8579 H   0  0  0  0  0  0  0  0  0  0  0  0
  138.4982   67.6925  221.8018 H   0  0  0  0  0  0  0  0  0  0  0  0
  138.8204   67.9001  223.6053 H   0  0  0  0  0  0  0  0  0  0  0  0
  136.7237   69.1580  221.8963 H   0  0  0  0  0  0  0  0  0  0  0  0
  136.6028   68.0977  223.3993 H   0  0  0  0  0  0  0  0  0  0  0  0
  136.4353   70.8589  223.2359 H   0  0  0  0  0  0  0  0  0  0  0  0
  136.5851   69.7707  224.6998 H   0  0  0  0  0  0  0  0  0  0  0  0
  138.1442   71.7490  224.4289 H   0  0  0  0  0  0  0  0  0  0  0  0
  137.9753   68.2428  225.2248 H   0  0  0  0  0  0  0  0  0  0  0  0
  139.2053   67.2092  227.0934 H   0  0  0  0  0  0  0  0  0  0  0  0
  141.6144   70.7409  227.3470 H   0  0  0  0  0  0  0  0  0  0  0  0
  140.3706   71.7604  225.4778 H   0  0  0  0  0  0  0  0  0  0  0  0
  142.1662   76.3604  220.7227 H   0  0  0  0  0  0  0  0  0  0  0  0
  142.6461   78.7548  221.2652 H   0  0  0  0  0  0  0  0  0  0  0  0
  141.9231   80.7702  222.3244 H   0  0  0  0  0  0  0  0  0  0  0  0
  140.2104   82.0130  223.6500 H   0  0  0  0  0  0  0  0  0  0  0  0
  137.7651   78.5027  223.7803 H   0  0  0  0  0  0  0  0  0  0  0  0
  1  2  2  0
  2  3  1  0
  3  4  1  0
  4  5  1  0
  5  6  2  0
  5  7  1  0
  7  8  1  0
  8  9  1  0
  9 10  1  0
 10 11  1  0
 11 12  1  0
 12 13  1  0
 13 14  2  0
 14 15  1  0
 15 16  2  0
 16 17  1  0
 16 18  1  0
 18 19  2  0
  2 20  1  0
 20 21  2  0
 21 22  1  0
 22 23  2  0
 23 24  1  0
 24 25  2  0
 25 26  1  0
 26 27  1  0
 26 28  2  0
 28 29  1  0
 29 30  2  0
 12  7  1  0
 19 13  1  0
 30 20  1  0
 29 23  1  0
  3 31  1  0
  4 32  1  0
  4 33  1  0
  8 34  1  0
  8 35  1  0
  9 36  1  0
  9 37  1  0
 10 38  1  0
 10 39  1  0
 11 40  1  0
 11 41  1  0
 12 42  1  1
 14 43  1  0
 15 44  1  0
 18 45  1  0
 19 46  1  0
 21 47  1  0
 22 48  1  0
 24 49  1  0
 25 50  1  0
 28 51  1  0
M  END
>  <smiles>  (92) 
O=C(NCC(=O)N1CCCCC1c1ccc(Cl)cc1)c1ccc2ccc(Cl)cc2n1

>  <score_type>  (92) 
oracle

>  <origin>  (92) 
autodockgpu

>  <m_score__min__energy>  (92) 
-9.0199999999999996

>  <m_primary>  (92) 
energy

>  <rmsd>  (92) 
8.180116340930889

>  <m_score__min__rmsd>  (92) 
8.180116340930889

>  <meeko>  (92) 
{"free_energy": -8.59, "intermolecular_energy": -10.09, "internal_energy": -1.49, "cluster_size": 25, "cluster_id": 1, "rank_in_cluster": 13}

>  <energy>  (92) 
-8.24

>  <cluster_rmsd>  (92) 
0.24

>  <cluster>  (92) 
5

$$$$

     RDKit          3D

 51 54  0  0  0  0  0  0  0  0999 V2000
  140.3130   73.2340  222.4450 O   0  0  0  0  0  0  0  0  0  0  0  0
  139.3960   72.3770  222.3860 C   0  0  0  0  0  0  0  0  0  0  0  0
  138.3620   72.6110  221.4320 N   0  0  0  0  0  0  0  0  0  0  0  0
  138.4480   73.8040  220.6170 C   0  0  0  0  0  0  0  0  0  0  0  0
  138.4950   75.0370  221.4130 C   0  0  0  0  0  0  0  0  0  0  0  0
  137.5620   75.4620  222.1400 O   0  0  0  0  0  0  0  0  0  0  0  0
  139.6830   75.8180  221.3670 N   0  0  0  0  0  0  0  0  0  0  0  0
  140.2240   76.3910  222.5680 C   0  0  0  0  0  0  0  0  0  0  0  0
  141.0460   77.6110  222.3170 C   0  0  0  0  0  0  0  0  0  0  0  0
  140.7030   78.3780  221.0860 C   0  0  0  0  0  0  0  0  0  0  0  0
  140.4620   77.5580  219.8610 C   0  0  0  0  0  0  0  0  0  0  0  0
  140.3990   76.0730  220.1230 C   0  0  1  0  0  0  0  0  0  0  0  0
  141.7210   75.4220  220.2190 C   0  0  0  0  0  0  0  0  0  0  0  0
  141.9390   74.1190  220.5360 C   0  0  0  0  0  0  0  0  0  0  0  0
  143.2020   73.5500  220.6150 C   0  0  0  0  0  0  0  0  0  0  0  0
  144.3160   74.3370  220.3610 C   0  0  0  0  0  0  0  0  0  0  0  0
  145.9090   73.6220  220.4590 Cl  0  0  0  0  0  0  0  0  0  0  0  0
  144.0970   75.6590  220.0390 C   0  0  0  0  0  0  0  0  0  0  0  0
  142.8310   76.2150  219.9630 C   0  0  0  0  0  0  0  0  0  0  0  0
  139.3530   71.1860  223.2310 C   0  0  0  0  0  0  0  0  0  0  0  0
  138.6450   70.0850  222.7870 C   0  0  0  0  0  0  0  0  0  0  0  0
  138.5600   68.9210  223.5330 C   0  0  0  0  0  0  0  0  0  0  0  0
  139.2240   68.9260  224.7520 C   0  0  0  0  0  0  0  0  0  0  0  0
  139.1640   67.7840  225.5290 C   0  0  0  0  0  0  0  0  0  0  0  0
  139.8260   67.7810  226.7490 C   0  0  0  0  0  0  0  0  0  0  0  0
  140.5280   68.8960  227.1740 C   0  0  0  0  0  0  0  0  0  0  0  0
  141.3260   68.8040  228.7160 Cl  0  0  0  0  0  0  0  0  0  0  0  0
  140.5570   70.0090  226.3630 C   0  0  0  0  0  0  0  0  0  0  0  0
  139.9110   70.0450  225.1460 C   0  0  0  0  0  0  0  0  0  0  0  0
  139.9790   71.1600  224.4050 N   0  0  0  0  0  0  0  0  0  0  0  0
  137.5610   71.9540  221.3120 H   0  0  0  0  0  0  0  0  0  0  0  0
  139.3603   73.7462  220.0051 H   0  0  0  0  0  0  0  0  0  0  0  0
  137.5409   73.8460  219.9961 H   0  0  0  0  0  0  0  0  0  0  0  0
  139.3905   76.6614  223.2329 H   0  0  0  0  0  0  0  0  0  0  0  0
  140.8854   75.6379  223.0211 H   0  0  0  0  0  0  0  0  0  0  0  0
  140.9252   78.2834  223.1791 H   0  0  0  0  0  0  0  0  0  0  0  0
  142.0763   77.2543  222.1713 H   0  0  0  0  0  0  0  0  0  0  0  0
  139.7902   78.9565  221.2910 H   0  0  0  0  0  0  0  0  0  0  0  0
  141.5829   78.9996  220.8638 H   0  0  0  0  0  0  0  0  0  0  0  0
  139.5063   77.8722  219.4161 H   0  0  0  0  0  0  0  0  0  0  0  0
  141.3162   77.7282  219.1891 H   0  0  0  0  0  0  0  0  0  0  0  0
  139.8789   75.6435  219.2541 H   0  0  0  0  0  0  0  0  0  0  0  0
  141.0670   73.4806  220.7411 H   0  0  0  0  0  0  0  0  0  0  0  0
  143.3186   72.4878  220.8759 H   0  0  0  0  0  0  0  0  0  0  0  0
  144.9663   76.3009  219.8333 H   0  0  0  0  0  0  0  0  0  0  0  0
  142.7061   77.2762  219.7019 H   0  0  0  0  0  0  0  0  0  0  0  0
  138.1347   70.1346  221.8138 H   0  0  0  0  0  0  0  0  0  0  0  0
  137.9987   68.0434  223.1799 H   0  0  0  0  0  0  0  0  0  0  0  0
  138.6054   66.8996  225.1888 H   0  0  0  0  0  0  0  0  0  0  0  0
  139.7925   66.8838  227.3845 H   0  0  0  0  0  0  0  0  0  0  0  0
  141.1133   70.8972  226.6972 H   0  0  0  0  0  0  0  0  0  0  0  0
  1  2  2  0
  2  3  1  0
  3  4  1  0
  4  5  1  0
  5  6  2  0
  5  7  1  0
  7  8  1  0
  8  9  1  0
  9 10  1  0
 10 11  1  0
 11 12  1  0
 12 13  1  0
 13 14  2  0
 14 15  1  0
 15 16  2  0
 16 17  1  0
 16 18  1  0
 18 19  2  0
  2 20  1  0
 20 21  2  0
 21 22  1  0
 22 23  2  0
 23 24  1  0
 24 25  2  0
 25 26  1  0
 26 27  1  0
 26 28  2  0
 28 29  1  0
 29 30  2  0
 12  7  1  0
 19 13  1  0
 30 20  1  0
 29 23  1  0
  3 31  1  0
  4 32  1  0
  4 33  1  0
  8 34  1  0
  8 35  1  0
  9 36  1  0
  9 37  1  0
 10 38  1  0
 10 39  1  0
 11 40  1  0
 11 41  1  0
 12 42  1  6
 14 43  1  0
 15 44  1  0
 18 45  1  0
 19 46  1  0
 21 47  1  0
 22 48  1  0
 24 49  1  0
 25 50  1  0
 28 51  1  0
M  END
>  <smiles>  (93) 
O=C(NCC(=O)N1CCCCC1c1ccc(Cl)cc1)c1ccc2ccc(Cl)cc2n1

>  <score_type>  (93) 
oracle

>  <origin>  (93) 
autodockgpu

>  <m_score__min__energy>  (93) 
-9.0199999999999996

>  <m_primary>  (93) 
energy

>  <rmsd>  (93) 
2.645986099434533

>  <m_score__min__rmsd>  (93) 
2.645986099434533

>  <meeko>  (93) 
{"free_energy": -8.26, "intermolecular_energy": -9.75, "internal_energy": -1.52, "cluster_size": 6, "cluster_id": 5, "rank_in_cluster": 3}

>  <energy>  (93) 
-8.24

>  <cluster_rmsd>  (93) 
0.2

>  <cluster>  (93) 
5

$$$$

     RDKit          3D

 51 54  0  0  0  0  0  0  0  0999 V2000
  140.9560   74.4490  220.7230 O   0  0  0  0  0  0  0  0  0  0  0  0
  140.1900   75.0840  221.4910 C   0  0  0  0  0  0  0  0  0  0  0  0
  139.1210   74.3470  222.0810 N   0  0  0  0  0  0  0  0  0  0  0  0
  139.0030   72.9430  221.7530 C   0  0  0  0  0  0  0  0  0  0  0  0
  139.8720   72.0900  222.5720 C   0  0  0  0  0  0  0  0  0  0  0  0
  141.0760   72.3350  222.8410 O   0  0  0  0  0  0  0  0  0  0  0  0
  139.3230   70.8930  223.1080 N   0  0  0  0  0  0  0  0  0  0  0  0
  139.6160   69.6230  222.5030 C   0  0  0  0  0  0  0  0  0  0  0  0
  138.5600   68.5970  222.7500 C   0  0  0  0  0  0  0  0  0  0  0  0
  137.1890   69.1280  222.9940 C   0  0  0  0  0  0  0  0  0  0  0  0
  137.1070   70.3040  223.9120 C   0  0  0  0  0  0  0  0  0  0  0  0
  138.4490   70.8910  224.2750 C   0  0  1  0  0  0  0  0  0  0  0  0
  139.1460   70.1740  225.3610 C   0  0  0  0  0  0  0  0  0  0  0  0
  138.8530   68.9200  225.7950 C   0  0  0  0  0  0  0  0  0  0  0  0
  139.5360   68.2850  226.8210 C   0  0  0  0  0  0  0  0  0  0  0  0
  140.5790   68.9470  227.4520 C   0  0  0  0  0  0  0  0  0  0  0  0
  141.4430   68.1490  228.7460 Cl  0  0  0  0  0  0  0  0  0  0  0  0
  140.8790   70.2190  227.0130 C   0  0  0  0  0  0  0  0  0  0  0  0
  140.1880   70.8420  225.9870 C   0  0  0  0  0  0  0  0  0  0  0  0
  140.3510   76.5040  221.7920 C   0  0  0  0  0  0  0  0  0  0  0  0
  141.4590   77.1640  221.2960 C   0  0  0  0  0  0  0  0  0  0  0  0
  141.6790   78.5110  221.5400 C   0  0  0  0  0  0  0  0  0  0  0  0
  140.7230   79.1560  222.3110 C   0  0  0  0  0  0  0  0  0  0  0  0
  140.9040   80.5000  222.5790 C   0  0  0  0  0  0  0  0  0  0  0  0
  139.9510   81.1530  223.3500 C   0  0  0  0  0  0  0  0  0  0  0  0
  138.8490   80.4720  223.8370 C   0  0  0  0  0  0  0  0  0  0  0  0
  137.7080   81.3680  224.7940 Cl  0  0  0  0  0  0  0  0  0  0  0  0
  138.7150   79.1330  223.5420 C   0  0  0  0  0  0  0  0  0  0  0  0
  139.6420   78.4550  222.7800 C   0  0  0  0  0  0  0  0  0  0  0  0
  139.4520   77.1510  222.5300 N   0  0  0  0  0  0  0  0  0  0  0  0
  138.4370   74.7910  222.7310 H   0  0  0  0  0  0  0  0  0  0  0  0
  137.9592   72.6328  221.9086 H   0  0  0  0  0  0  0  0  0  0  0  0
  139.3144   72.8217  220.7050 H   0  0  0  0  0  0  0  0  0  0  0  0
  139.7159   69.7676  221.4171 H   0  0  0  0  0  0  0  0  0  0  0  0
  140.5462   69.2510  222.9573 H   0  0  0  0  0  0  0  0  0  0  0  0
  138.5159   67.9384  221.8700 H   0  0  0  0  0  0  0  0  0  0  0  0
  138.8522   68.0825  223.6773 H   0  0  0  0  0  0  0  0  0  0  0  0
  136.7634   69.4252  222.0242 H   0  0  0  0  0  0  0  0  0  0  0  0
  136.6363   68.3178  223.4921 H   0  0  0  0  0  0  0  0  0  0  0  0
  136.5085   71.0855  223.4211 H   0  0  0  0  0  0  0  0  0  0  0  0
  136.6507   69.9477  224.8474 H   0  0  0  0  0  0  0  0  0  0  0  0
  138.2363   71.9098  224.6311 H   0  0  0  0  0  0  0  0  0  0  0  0
  138.0293   68.3794  225.3058 H   0  0  0  0  0  0  0  0  0  0  0  0
  139.2540   67.2680  227.1311 H   0  0  0  0  0  0  0  0  0  0  0  0
  141.7028   70.7626  227.4986 H   0  0  0  0  0  0  0  0  0  0  0  0
  140.4635   71.8590  225.6710 H   0  0  0  0  0  0  0  0  0  0  0  0
  142.1873   76.6048  220.6903 H   0  0  0  0  0  0  0  0  0  0  0  0
  142.5604   79.0376  221.1452 H   0  0  0  0  0  0  0  0  0  0  0  0
  141.7810   81.0389  222.1912 H   0  0  0  0  0  0  0  0  0  0  0  0
  140.0734   82.2226  223.5759 H   0  0  0  0  0  0  0  0  0  0  0  0
  137.8406   78.5877  223.9268 H   0  0  0  0  0  0  0  0  0  0  0  0
  1  2  2  0
  2  3  1  0
  3  4  1  0
  4  5  1  0
  5  6  2  0
  5  7  1  0
  7  8  1  0
  8  9  1  0
  9 10  1  0
 10 11  1  0
 11 12  1  0
 12 13  1  0
 13 14  2  0
 14 15  1  0
 15 16  2  0
 16 17  1  0
 16 18  1  0
 18 19  2  0
  2 20  1  0
 20 21  2  0
 21 22  1  0
 22 23  2  0
 23 24  1  0
 24 25  2  0
 25 26  1  0
 26 27  1  0
 26 28  2  0
 28 29  1  0
 29 30  2  0
 12  7  1  0
 19 13  1  0
 30 20  1  0
 29 23  1  0
  3 31  1  0
  4 32  1  0
  4 33  1  0
  8 34  1  0
  8 35  1  0
  9 36  1  0
  9 37  1  0
 10 38  1  0
 10 39  1  0
 11 40  1  0
 11 41  1  0
 12 42  1  1
 14 43  1  0
 15 44  1  0
 18 45  1  0
 19 46  1  0
 21 47  1  0
 22 48  1  0
 24 49  1  0
 25 50  1  0
 28 51  1  0
M  END
>  <smiles>  (94) 
O=C(NCC(=O)N1CCCCC1c1ccc(Cl)cc1)c1ccc2ccc(Cl)cc2n1

>  <score_type>  (94) 
oracle

>  <origin>  (94) 
autodockgpu

>  <m_score__min__energy>  (94) 
-9.0199999999999996

>  <m_primary>  (94) 
energy

>  <rmsd>  (94) 
8.239543983640614

>  <m_score__min__rmsd>  (94) 
8.239543983640614

>  <meeko>  (94) 
{"free_energy": -8.61, "intermolecular_energy": -10.1, "internal_energy": -1.5, "cluster_size": 25, "cluster_id": 1, "rank_in_cluster": 10}

>  <energy>  (94) 
-8.2

>  <cluster_rmsd>  (94) 
0.21

>  <cluster>  (94) 
5

$$$$

     RDKit          3D

 51 54  0  0  0  0  0  0  0  0999 V2000
  140.5160   78.6250  218.2620 O   0  0  0  0  0  0  0  0  0  0  0  0
  141.3970   78.3060  219.0990 C   0  0  0  0  0  0  0  0  0  0  0  0
  142.1200   79.3750  219.7050 N   0  0  0  0  0  0  0  0  0  0  0  0
  141.7880   80.7280  219.3130 C   0  0  0  0  0  0  0  0  0  0  0  0
  141.3430   81.5570  220.4400 C   0  0  0  0  0  0  0  0  0  0  0  0
  141.1230   82.7930  220.3830 O   0  0  0  0  0  0  0  0  0  0  0  0
  141.1410   80.9230  221.6970 N   0  0  0  0  0  0  0  0  0  0  0  0
  141.9750   81.2520  222.8200 C   0  0  0  0  0  0  0  0  0  0  0  0
  142.0680   80.1520  223.8240 C   0  0  0  0  0  0  0  0  0  0  0  0
  141.8570   78.7750  223.2950 C   0  0  0  0  0  0  0  0  0  0  0  0
  140.7170   78.6190  222.3410 C   0  0  0  0  0  0  0  0  0  0  0  0
  140.0990   79.9260  221.9080 C   0  0  1  0  0  0  0  0  0  0  0  0
  139.1290   80.4810  222.8740 C   0  0  0  0  0  0  0  0  0  0  0  0
  138.8420   79.9570  224.0940 C   0  0  0  0  0  0  0  0  0  0  0  0
  137.9210   80.5150  224.9690 C   0  0  0  0  0  0  0  0  0  0  0  0
  137.2480   81.6710  224.5990 C   0  0  0  0  0  0  0  0  0  0  0  0
  136.0880   82.3750  225.7010 Cl  0  0  0  0  0  0  0  0  0  0  0  0
  137.5390   82.2040  223.3620 C   0  0  0  0  0  0  0  0  0  0  0  0
  138.4600   81.6370  222.4970 C   0  0  0  0  0  0  0  0  0  0  0  0
  141.6970   76.9240  219.4640 C   0  0  0  0  0  0  0  0  0  0  0  0
  140.6670   76.0030  219.4690 C   0  0  0  0  0  0  0  0  0  0  0  0
  140.8750   74.6740  219.8030 C   0  0  0  0  0  0  0  0  0  0  0  0
  142.1770   74.3240  220.1320 C   0  0  0  0  0  0  0  0  0  0  0  0
  142.4280   73.0080  220.4730 C   0  0  0  0  0  0  0  0  0  0  0  0
  143.7280   72.6490  220.8040 C   0  0  0  0  0  0  0  0  0  0  0  0
  144.7450   73.5890  220.7930 C   0  0  0  0  0  0  0  0  0  0  0  0
  146.3420   73.0510  221.2220 Cl  0  0  0  0  0  0  0  0  0  0  0  0
  144.4420   74.8870  220.4470 C   0  0  0  0  0  0  0  0  0  0  0  0
  143.1620   75.2760  220.1130 C   0  0  0  0  0  0  0  0  0  0  0  0
  142.9350   76.5560  219.7860 N   0  0  0  0  0  0  0  0  0  0  0  0
  142.8700   79.2060  220.4110 H   0  0  0  0  0  0  0  0  0  0  0  0
  142.6793   81.1926  218.8661 H   0  0  0  0  0  0  0  0  0  0  0  0
  140.9545   80.6690  218.5976 H   0  0  0  0  0  0  0  0  0  0  0  0
  142.9869   81.4751  222.4508 H   0  0  0  0  0  0  0  0  0  0  0  0
  141.5195   82.1173  223.3237 H   0  0  0  0  0  0  0  0  0  0  0  0
  143.0702   80.1906  224.2758 H   0  0  0  0  0  0  0  0  0  0  0  0
  141.2498   80.3276  224.5380 H   0  0  0  0  0  0  0  0  0  0  0  0
  142.7770   78.4665  222.7768 H   0  0  0  0  0  0  0  0  0  0  0  0
  141.6083   78.1518  224.1667 H   0  0  0  0  0  0  0  0  0  0  0  0
  141.0838   78.0958  221.4456 H   0  0  0  0  0  0  0  0  0  0  0  0
  139.9339   78.0547  222.8686 H   0  0  0  0  0  0  0  0  0  0  0  0
  139.5536   79.7001  220.9798 H   0  0  0  0  0  0  0  0  0  0  0  0
  139.3675   79.0419  224.4046 H   0  0  0  0  0  0  0  0  0  0  0  0
  137.7265   80.0464  225.9450 H   0  0  0  0  0  0  0  0  0  0  0  0
  137.0169   83.1199  223.0479 H   0  0  0  0  0  0  0  0  0  0  0  0
  138.6597   82.0992  221.5190 H   0  0  0  0  0  0  0  0  0  0  0  0
  139.6530   76.3340  219.2002 H   0  0  0  0  0  0  0  0  0  0  0  0
  140.0560   73.9397  219.8070 H   0  0  0  0  0  0  0  0  0  0  0  0
  141.6181   72.2637  220.4819 H   0  0  0  0  0  0  0  0  0  0  0  0
  143.9523   71.6075  221.0777 H   0  0  0  0  0  0  0  0  0  0  0  0
  145.2465   75.6372  220.4368 H   0  0  0  0  0  0  0  0  0  0  0  0
  1  2  2  0
  2  3  1  0
  3  4  1  0
  4  5  1  0
  5  6  2  0
  5  7  1  0
  7  8  1  0
  8  9  1  0
  9 10  1  0
 10 11  1  0
 11 12  1  0
 12 13  1  0
 13 14  2  0
 14 15  1  0
 15 16  2  0
 16 17  1  0
 16 18  1  0
 18 19  2  0
  2 20  1  0
 20 21  2  0
 21 22  1  0
 22 23  2  0
 23 24  1  0
 24 25  2  0
 25 26  1  0
 26 27  1  0
 26 28  2  0
 28 29  1  0
 29 30  2  0
 12  7  1  0
 19 13  1  0
 30 20  1  0
 29 23  1  0
  3 31  1  0
  4 32  1  0
  4 33  1  0
  8 34  1  0
  8 35  1  0
  9 36  1  0
  9 37  1  0
 10 38  1  0
 10 39  1  0
 11 40  1  0
 11 41  1  0
 12 42  1  6
 14 43  1  0
 15 44  1  0
 18 45  1  0
 19 46  1  0
 21 47  1  0
 22 48  1  0
 24 49  1  0
 25 50  1  0
 28 51  1  0
M  END
>  <smiles>  (95) 
O=C(NCC(=O)N1CCCCC1c1ccc(Cl)cc1)c1ccc2ccc(Cl)cc2n1

>  <score_type>  (95) 
oracle

>  <origin>  (95) 
autodockgpu

>  <m_score__min__energy>  (95) 
-9.0199999999999996

>  <m_primary>  (95) 
energy

>  <rmsd>  (95) 
7.556961005474322

>  <m_score__min__rmsd>  (95) 
7.556961005474322

>  <meeko>  (95) 
{"free_energy": -7.61, "intermolecular_energy": -9.1, "internal_energy": -2.13, "cluster_size": 1, "cluster_id": 6, "rank_in_cluster": 1}

>  <energy>  (95) 
-7.61

>  <cluster_rmsd>  (95) 
0.0

>  <cluster>  (95) 
6

$$$$

     RDKit          3D

 51 54  0  0  0  0  0  0  0  0999 V2000
  137.9100   73.9510  221.9260 O   0  0  0  0  0  0  0  0  0  0  0  0
  138.9590   74.6260  221.7710 C   0  0  0  0  0  0  0  0  0  0  0  0
  140.0650   73.9600  221.1650 N   0  0  0  0  0  0  0  0  0  0  0  0
  139.8950   72.5750  220.7800 C   0  0  0  0  0  0  0  0  0  0  0  0
  140.5000   71.6380  221.7340 C   0  0  0  0  0  0  0  0  0  0  0  0
  141.7320   71.5470  221.9720 O   0  0  0  0  0  0  0  0  0  0  0  0
  139.6380   70.7640  222.4510 N   0  0  0  0  0  0  0  0  0  0  0  0
  139.5120   69.3860  222.0630 C   0  0  0  0  0  0  0  0  0  0  0  0
  138.2080   68.7810  222.4630 C   0  0  0  0  0  0  0  0  0  0  0  0
  137.0710   69.7330  222.6040 C   0  0  0  0  0  0  0  0  0  0  0  0
  137.3820   71.0080  223.3190 C   0  0  0  0  0  0  0  0  0  0  0  0
  138.8520   71.2110  223.5950 C   0  0  1  0  0  0  0  0  0  0  0  0
  139.3440   70.4960  224.7900 C   0  0  0  0  0  0  0  0  0  0  0  0
  138.6970   69.4850  225.4270 C   0  0  0  0  0  0  0  0  0  0  0  0
  139.1990   68.8420  226.5490 C   0  0  0  0  0  0  0  0  0  0  0  0
  140.4260   69.2370  227.0640 C   0  0  0  0  0  0  0  0  0  0  0  0
  141.0610   68.4270  228.4780 Cl  0  0  0  0  0  0  0  0  0  0  0  0
  141.0830   70.2610  226.4180 C   0  0  0  0  0  0  0  0  0  0  0  0
  140.5710   70.8950  225.2990 C   0  0  0  0  0  0  0  0  0  0  0  0
  139.0830   76.0240  222.1770 C   0  0  0  0  0  0  0  0  0  0  0  0
  137.9300   76.7600  222.3720 C   0  0  0  0  0  0  0  0  0  0  0  0
  137.9690   78.0910  222.7580 C   0  0  0  0  0  0  0  0  0  0  0  0
  139.2310   78.6390  222.9360 C   0  0  0  0  0  0  0  0  0  0  0  0
  139.3140   79.9650  223.3190 C   0  0  0  0  0  0  0  0  0  0  0  0
  140.5740   80.5210  223.4990 C   0  0  0  0  0  0  0  0  0  0  0  0
  141.7160   79.7640  223.2970 C   0  0  0  0  0  0  0  0  0  0  0  0
  143.2510   80.5420  223.5450 Cl  0  0  0  0  0  0  0  0  0  0  0  0
  141.5780   78.4480  222.9150 C   0  0  0  0  0  0  0  0  0  0  0  0
  140.3430   77.8650  222.7280 C   0  0  0  0  0  0  0  0  0  0  0  0
  140.2790   76.5790  222.3550 N   0  0  0  0  0  0  0  0  0  0  0  0
  140.9750   74.4400  220.9970 H   0  0  0  0  0  0  0  0  0  0  0  0
  138.8185   72.3595  220.7113 H   0  0  0  0  0  0  0  0  0  0  0  0
  140.4031   72.4364  219.8142 H   0  0  0  0  0  0  0  0  0  0  0  0
  139.6072   69.3204  220.9691 H   0  0  0  0  0  0  0  0  0  0  0  0
  140.3051   68.8263  222.5804 H   0  0  0  0  0  0  0  0  0  0  0  0
  137.9330   68.0364  221.7014 H   0  0  0  0  0  0  0  0  0  0  0  0
  138.3692   68.3557  223.4645 H   0  0  0  0  0  0  0  0  0  0  0  0
  136.7164   69.9887  221.5946 H   0  0  0  0  0  0  0  0  0  0  0  0
  136.3208   69.2169  223.2211 H   0  0  0  0  0  0  0  0  0  0  0  0
  137.0262   71.8466  222.7024 H   0  0  0  0  0  0  0  0  0  0  0  0
  136.8775   70.9581  224.2952 H   0  0  0  0  0  0  0  0  0  0  0  0
  138.9706   72.2889  223.7794 H   0  0  0  0  0  0  0  0  0  0  0  0
  137.7235   69.1592  225.0320 H   0  0  0  0  0  0  0  0  0  0  0  0
  138.6315   68.0288  227.0249 H   0  0  0  0  0  0  0  0  0  0  0  0
  142.0575   70.5894  226.8086 H   0  0  0  0  0  0  0  0  0  0  0  0
  141.1328   71.7088  224.8173 H   0  0  0  0  0  0  0  0  0  0  0  0
  136.9542   76.2766  222.2167 H   0  0  0  0  0  0  0  0  0  0  0  0
  137.0523   78.6786  222.9141 H   0  0  0  0  0  0  0  0  0  0  0  0
  138.4052   80.5643  223.4771 H   0  0  0  0  0  0  0  0  0  0  0  0
  140.6658   81.5735  223.8052 H   0  0  0  0  0  0  0  0  0  0  0  0
  142.4823   77.8428  222.7540 H   0  0  0  0  0  0  0  0  0  0  0  0
  1  2  2  0
  2  3  1  0
  3  4  1  0
  4  5  1  0
  5  6  2  0
  5  7  1  0
  7  8  1  0
  8  9  1  0
  9 10  1  0
 10 11  1  0
 11 12  1  0
 12 13  1  0
 13 14  2  0
 14 15  1  0
 15 16  2  0
 16 17  1  0
 16 18  1  0
 18 19  2  0
  2 20  1  0
 20 21  2  0
 21 22  1  0
 22 23  2  0
 23 24  1  0
 24 25  2  0
 25 26  1  0
 26 27  1  0
 26 28  2  0
 28 29  1  0
 29 30  2  0
 12  7  1  0
 19 13  1  0
 30 20  1  0
 29 23  1  0
  3 31  1  0
  4 32  1  0
  4 33  1  0
  8 34  1  0
  8 35  1  0
  9 36  1  0
  9 37  1  0
 10 38  1  0
 10 39  1  0
 11 40  1  0
 11 41  1  0
 12 42  1  1
 14 43  1  0
 15 44  1  0
 18 45  1  0
 19 46  1  0
 21 47  1  0
 22 48  1  0
 24 49  1  0
 25 50  1  0
 28 51  1  0
M  END
>  <smiles>  (96) 
O=C(NCC(=O)N1CCCCC1c1ccc(Cl)cc1)c1ccc2ccc(Cl)cc2n1

>  <score_type>  (96) 
oracle

>  <origin>  (96) 
autodockgpu

>  <m_score__min__energy>  (96) 
-9.0199999999999996

>  <m_primary>  (96) 
energy

>  <rmsd>  (96) 
7.711205495506446

>  <m_score__min__rmsd>  (96) 
7.711205495506446

>  <meeko>  (96) 
{"free_energy": -8.18, "intermolecular_energy": -9.67, "internal_energy": -1.77, "cluster_size": 25, "cluster_id": 1, "rank_in_cluster": 20}

>  <energy>  (96) 
-7.51

>  <cluster_rmsd>  (96) 
0.0

>  <cluster>  (96) 
7

$$$$

     RDKit          3D

 51 54  0  0  0  0  0  0  0  0999 V2000
  139.7100   73.2940  220.3070 O   0  0  0  0  0  0  0  0  0  0  0  0
  139.6460   73.3650  221.5600 C   0  0  0  0  0  0  0  0  0  0  0  0
  139.5860   74.6730  222.1240 N   0  0  0  0  0  0  0  0  0  0  0  0
  139.6030   75.8040  221.2210 C   0  0  0  0  0  0  0  0  0  0  0  0
  140.8980   76.4950  221.1970 C   0  0  0  0  0  0  0  0  0  0  0  0
  141.9850   75.9790  220.8310 O   0  0  0  0  0  0  0  0  0  0  0  0
  140.9390   77.8540  221.6150 N   0  0  0  0  0  0  0  0  0  0  0  0
  141.0510   78.9100  220.6470 C   0  0  0  0  0  0  0  0  0  0  0  0
  141.6720   80.1490  221.2000 C   0  0  0  0  0  0  0  0  0  0  0  0
  142.5940   79.9500  222.3540 C   0  0  0  0  0  0  0  0  0  0  0  0
  142.1150   79.0000  223.4050 C   0  0  0  0  0  0  0  0  0  0  0  0
  140.8710   78.2390  223.0190 C   0  0  1  0  0  0  0  0  0  0  0  0
  139.6180   78.9930  223.2220 C   0  0  0  0  0  0  0  0  0  0  0  0
  138.3790   78.5840  222.8410 C   0  0  0  0  0  0  0  0  0  0  0  0
  137.2270   79.3270  223.0530 C   0  0  0  0  0  0  0  0  0  0  0  0
  137.3230   80.5580  223.6880 C   0  0  0  0  0  0  0  0  0  0  0  0
  135.8720   81.4960  223.9570 Cl  0  0  0  0  0  0  0  0  0  0  0  0
  138.5780   80.9730  224.0760 C   0  0  0  0  0  0  0  0  0  0  0  0
  139.7200   80.2220  223.8580 C   0  0  0  0  0  0  0  0  0  0  0  0
  139.6310   72.1930  222.4320 C   0  0  0  0  0  0  0  0  0  0  0  0
  139.1520   70.9990  221.9270 C   0  0  0  0  0  0  0  0  0  0  0  0
  139.1070   69.8460  222.6940 C   0  0  0  0  0  0  0  0  0  0  0  0
  139.5710   69.9600  223.9970 C   0  0  0  0  0  0  0  0  0  0  0  0
  139.5430   68.8330  224.7970 C   0  0  0  0  0  0  0  0  0  0  0  0
  140.0050   68.9400  226.1020 C   0  0  0  0  0  0  0  0  0  0  0  0
  140.4800   70.1460  226.5870 C   0  0  0  0  0  0  0  0  0  0  0  0
  141.0390   70.1870  228.2330 Cl  0  0  0  0  0  0  0  0  0  0  0  0
  140.4870   71.2390  225.7490 C   0  0  0  0  0  0  0  0  0  0  0  0
  140.0350   71.1680  224.4490 C   0  0  0  0  0  0  0  0  0  0  0  0
  140.0680   72.2710  223.6870 N   0  0  0  0  0  0  0  0  0  0  0  0
  139.5310   74.8300  223.1540 H   0  0  0  0  0  0  0  0  0  0  0  0
  139.3770   75.4462  220.2057 H   0  0  0  0  0  0  0  0  0  0  0  0
  138.8510   76.5232  221.5778 H   0  0  0  0  0  0  0  0  0  0  0  0
  141.6684   78.5529  219.8096 H   0  0  0  0  0  0  0  0  0  0  0  0
  140.0314   79.1698  220.3263 H   0  0  0  0  0  0  0  0  0  0  0  0
  142.2413   80.6314  220.3918 H   0  0  0  0  0  0  0  0  0  0  0  0
  140.8390   80.7568  221.5830 H   0  0  0  0  0  0  0  0  0  0  0  0
  143.5490   79.5692  221.9629 H   0  0  0  0  0  0  0  0  0  0  0  0
  142.6757   80.9297  222.8474 H   0  0  0  0  0  0  0  0  0  0  0  0
  142.9164   78.2742  223.6072 H   0  0  0  0  0  0  0  0  0  0  0  0
  141.8593   79.6033  224.2886 H   0  0  0  0  0  0  0  0  0  0  0  0
  140.8446   77.3630  223.6838 H   0  0  0  0  0  0  0  0  0  0  0  0
  138.2847   77.6108  222.3371 H   0  0  0  0  0  0  0  0  0  0  0  0
  136.2497   78.9457  222.7222 H   0  0  0  0  0  0  0  0  0  0  0  0
  138.6769   81.9448  224.5818 H   0  0  0  0  0  0  0  0  0  0  0  0
  140.7008   80.5965  224.1864 H   0  0  0  0  0  0  0  0  0  0  0  0
  138.7964   70.9631  220.8867 H   0  0  0  0  0  0  0  0  0  0  0  0
  138.7256   68.8952  222.2933 H   0  0  0  0  0  0  0  0  0  0  0  0
  139.1643   67.8757  224.4096 H   0  0  0  0  0  0  0  0  0  0  0  0
  139.9934   68.0567  226.7574 H   0  0  0  0  0  0  0  0  0  0  0  0
  140.8654   72.1992  226.1294 H   0  0  0  0  0  0  0  0  0  0  0  0
  1  2  2  0
  2  3  1  0
  3  4  1  0
  4  5  1  0
  5  6  2  0
  5  7  1  0
  7  8  1  0
  8  9  1  0
  9 10  1  0
 10 11  1  0
 11 12  1  0
 12 13  1  0
 13 14  2  0
 14 15  1  0
 15 16  2  0
 16 17  1  0
 16 18  1  0
 18 19  2  0
  2 20  1  0
 20 21  2  0
 21 22  1  0
 22 23  2  0
 23 24  1  0
 24 25  2  0
 25 26  1  0
 26 27  1  0
 26 28  2  0
 28 29  1  0
 29 30  2  0
 12  7  1  0
 19 13  1  0
 30 20  1  0
 29 23  1  0
  3 31  1  0
  4 32  1  0
  4 33  1  0
  8 34  1  0
  8 35  1  0
  9 36  1  0
  9 37  1  0
 10 38  1  0
 10 39  1  0
 11 40  1  0
 11 41  1  0
 12 42  1  1
 14 43  1  0
 15 44  1  0
 18 45  1  0
 19 46  1  0
 21 47  1  0
 22 48  1  0
 24 49  1  0
 25 50  1  0
 28 51  1  0
M  END
>  <smiles>  (97) 
O=C(NCC(=O)N1CCCCC1c1ccc(Cl)cc1)c1ccc2ccc(Cl)cc2n1

>  <score_type>  (97) 
oracle

>  <origin>  (97) 
autodockgpu

>  <m_score__min__energy>  (97) 
-9.0199999999999996

>  <m_primary>  (97) 
energy

>  <rmsd>  (97) 
3.5531974932325623

>  <m_score__min__rmsd>  (97) 
3.5531974932325623

>  <meeko>  (97) 
{"free_energy": -8.39, "intermolecular_energy": -9.88, "internal_energy": -1.55, "cluster_size": 7, "cluster_id": 2, "rank_in_cluster": 6}

>  <energy>  (97) 
-7.5

>  <cluster_rmsd>  (97) 
0.14

>  <cluster>  (97) 
7

$$$$

     RDKit          3D

 51 54  0  0  0  0  0  0  0  0999 V2000
  141.0310   74.3370  221.5990 O   0  0  0  0  0  0  0  0  0  0  0  0
  139.9000   74.7830  221.9160 C   0  0  0  0  0  0  0  0  0  0  0  0
  138.8100   73.8660  221.8560 N   0  0  0  0  0  0  0  0  0  0  0  0
  139.0880   72.5090  221.4380 C   0  0  0  0  0  0  0  0  0  0  0  0
  139.8900   71.7630  222.4160 C   0  0  0  0  0  0  0  0  0  0  0  0
  141.0690   72.0480  222.7490 O   0  0  0  0  0  0  0  0  0  0  0  0
  139.2990   70.6320  223.0430 N   0  0  0  0  0  0  0  0  0  0  0  0
  139.5150   69.3130  222.5160 C   0  0  0  0  0  0  0  0  0  0  0  0
  138.4180   68.3590  222.8550 C   0  0  0  0  0  0  0  0  0  0  0  0
  137.0820   68.9710  223.0980 C   0  0  0  0  0  0  0  0  0  0  0  0
  137.0810   70.2060  223.9390 C   0  0  0  0  0  0  0  0  0  0  0  0
  138.4590   70.7490  224.2280 C   0  0  1  0  0  0  0  0  0  0  0  0
  139.1510   70.0690  225.3420 C   0  0  0  0  0  0  0  0  0  0  0  0
  138.8590   68.8280  225.8130 C   0  0  0  0  0  0  0  0  0  0  0  0
  139.5380   68.2290  226.8650 C   0  0  0  0  0  0  0  0  0  0  0  0
  140.5740   68.9160  227.4820 C   0  0  0  0  0  0  0  0  0  0  0  0
  141.4310   68.1630  228.8060 Cl  0  0  0  0  0  0  0  0  0  0  0  0
  140.8710   70.1740  227.0050 C   0  0  0  0  0  0  0  0  0  0  0  0
  140.1860   70.7620  225.9540 C   0  0  0  0  0  0  0  0  0  0  0  0
  139.6690   76.1650  222.3320 C   0  0  0  0  0  0  0  0  0  0  0  0
  138.3690   76.6320  222.3790 C   0  0  0  0  0  0  0  0  0  0  0  0
  138.0720   77.9300  222.7640 C   0  0  0  0  0  0  0  0  0  0  0  0
  139.1550   78.7310  223.0980 C   0  0  0  0  0  0  0  0  0  0  0  0
  138.9030   80.0340  223.4870 C   0  0  0  0  0  0  0  0  0  0  0  0
  139.9810   80.8420  223.8230 C   0  0  0  0  0  0  0  0  0  0  0  0
  141.2750   80.3520  223.7680 C   0  0  0  0  0  0  0  0  0  0  0  0
  142.5630   81.4340  224.2060 Cl  0  0  0  0  0  0  0  0  0  0  0  0
  141.4720   79.0470  223.3740 C   0  0  0  0  0  0  0  0  0  0  0  0
  140.4240   78.2180  223.0340 C   0  0  0  0  0  0  0  0  0  0  0  0
  140.6860   76.9580  222.6580 N   0  0  0  0  0  0  0  0  0  0  0  0
  137.8360   74.1470  222.1010 H   0  0  0  0  0  0  0  0  0  0  0  0
  138.1325   71.9835  221.2936 H   0  0  0  0  0  0  0  0  0  0  0  0
  139.6701   72.5632  220.5062 H   0  0  0  0  0  0  0  0  0  0  0  0
  139.5926   69.3821  221.4209 H   0  0  0  0  0  0  0  0  0  0  0  0
  140.4384   68.9255  222.9713 H   0  0  0  0  0  0  0  0  0  0  0  0
  138.3178   67.6490  222.0208 H   0  0  0  0  0  0  0  0  0  0  0  0
  138.7110   67.8910  223.8064 H   0  0  0  0  0  0  0  0  0  0  0  0
  136.6439   69.2260  222.1218 H   0  0  0  0  0  0  0  0  0  0  0  0
  136.5062   68.2224  223.6620 H   0  0  0  0  0  0  0  0  0  0  0  0
  136.5057   70.9825  223.4136 H   0  0  0  0  0  0  0  0  0  0  0  0
  136.6354   69.9333  224.9070 H   0  0  0  0  0  0  0  0  0  0  0  0
  138.3055   71.7984  224.5200 H   0  0  0  0  0  0  0  0  0  0  0  0
  138.0412   68.2687  225.3352 H   0  0  0  0  0  0  0  0  0  0  0  0
  139.2581   67.2213  227.2058 H   0  0  0  0  0  0  0  0  0  0  0  0
  141.6884   70.7366  227.4798 H   0  0  0  0  0  0  0  0  0  0  0  0
  140.4601   71.7694  225.6076 H   0  0  0  0  0  0  0  0  0  0  0  0
  137.5472   75.9548  222.1032 H   0  0  0  0  0  0  0  0  0  0  0  0
  137.0381   78.3035  222.8026 H   0  0  0  0  0  0  0  0  0  0  0  0
  137.8741   80.4207  223.5292 H   0  0  0  0  0  0  0  0  0  0  0  0
  139.8054   81.8818  224.1360 H   0  0  0  0  0  0  0  0  0  0  0  0
  142.4982   78.6535  223.3291 H   0  0  0  0  0  0  0  0  0  0  0  0
  1  2  2  0
  2  3  1  0
  3  4  1  0
  4  5  1  0
  5  6  2  0
  5  7  1  0
  7  8  1  0
  8  9  1  0
  9 10  1  0
 10 11  1  0
 11 12  1  0
 12 13  1  0
 13 14  2  0
 14 15  1  0
 15 16  2  0
 16 17  1  0
 16 18  1  0
 18 19  2  0
  2 20  1  0
 20 21  2  0
 21 22  1  0
 22 23  2  0
 23 24  1  0
 24 25  2  0
 25 26  1  0
 26 27  1  0
 26 28  2  0
 28 29  1  0
 29 30  2  0
 12  7  1  0
 19 13  1  0
 30 20  1  0
 29 23  1  0
  3 31  1  0
  4 32  1  0
  4 33  1  0
  8 34  1  0
  8 35  1  0
  9 36  1  0
  9 37  1  0
 10 38  1  0
 10 39  1  0
 11 40  1  0
 11 41  1  0
 12 42  1  1
 14 43  1  0
 15 44  1  0
 18 45  1  0
 19 46  1  0
 21 47  1  0
 22 48  1  0
 24 49  1  0
 25 50  1  0
 28 51  1  0
M  END
>  <smiles>  (98) 
O=C(NCC(=O)N1CCCCC1c1ccc(Cl)cc1)c1ccc2ccc(Cl)cc2n1

>  <score_type>  (98) 
oracle

>  <origin>  (98) 
autodockgpu

>  <m_score__min__energy>  (98) 
-9.0199999999999996

>  <m_primary>  (98) 
energy

>  <rmsd>  (98) 
7.966751261492183

>  <m_score__min__rmsd>  (98) 
7.966751261492183

>  <meeko>  (98) 
{"free_energy": -8.93, "intermolecular_energy": -10.43, "internal_energy": -1.17, "cluster_size": 25, "cluster_id": 1, "rank_in_cluster": 4}

>  <energy>  (98) 
-7.1

>  <cluster_rmsd>  (98) 
0.41

>  <cluster>  (98) 
7

$$$$

     RDKit          3D

 51 54  0  0  0  0  0  0  0  0999 V2000
  136.8330   75.1080  222.3380 O   0  0  0  0  0  0  0  0  0  0  0  0
  138.0370   75.4680  222.3500 C   0  0  0  0  0  0  0  0  0  0  0  0
  139.0120   74.4450  222.1590 N   0  0  0  0  0  0  0  0  0  0  0  0
  138.5450   73.0880  221.9690 C   0  0  0  0  0  0  0  0  0  0  0  0
  139.5570   72.0820  222.3120 C   0  0  0  0  0  0  0  0  0  0  0  0
  140.8000   72.2510  222.2240 O   0  0  0  0  0  0  0  0  0  0  0  0
  139.1100   70.8170  222.7840 N   0  0  0  0  0  0  0  0  0  0  0  0
  139.5900   69.6050  222.1810 C   0  0  0  0  0  0  0  0  0  0  0  0
  138.6430   68.4610  222.3290 C   0  0  0  0  0  0  0  0  0  0  0  0
  137.2060   68.8270  222.4790 C   0  0  0  0  0  0  0  0  0  0  0  0
  136.9240   69.9620  223.4090 C   0  0  0  0  0  0  0  0  0  0  0  0
  138.1600   70.6870  223.8820 C   0  0  1  0  0  0  0  0  0  0  0  0
  138.8530   70.0240  225.0050 C   0  0  0  0  0  0  0  0  0  0  0  0
  138.5760   68.7820  225.4820 C   0  0  0  0  0  0  0  0  0  0  0  0
  139.2550   68.1990  226.5420 C   0  0  0  0  0  0  0  0  0  0  0  0
  140.2770   68.9050  227.1620 C   0  0  0  0  0  0  0  0  0  0  0  0
  141.1360   68.1720  228.4970 Cl  0  0  0  0  0  0  0  0  0  0  0  0
  140.5610   70.1630  226.6780 C   0  0  0  0  0  0  0  0  0  0  0  0
  139.8740   70.7350  225.6190 C   0  0  0  0  0  0  0  0  0  0  0  0
  138.4600   76.8520  222.5450 C   0  0  0  0  0  0  0  0  0  0  0  0
  137.4990   77.8440  222.5410 C   0  0  0  0  0  0  0  0  0  0  0  0
  137.8250   79.1790  222.7200 C   0  0  0  0  0  0  0  0  0  0  0  0
  139.1710   79.4610  222.9020 C   0  0  0  0  0  0  0  0  0  0  0  0
  139.5400   80.7810  223.0830 C   0  0  0  0  0  0  0  0  0  0  0  0
  140.8850   81.0700  223.2660 C   0  0  0  0  0  0  0  0  0  0  0  0
  141.8320   80.0600  223.2660 C   0  0  0  0  0  0  0  0  0  0  0  0
  143.4940   80.5140  223.5010 Cl  0  0  0  0  0  0  0  0  0  0  0  0
  141.4130   78.7610  223.0810 C   0  0  0  0  0  0  0  0  0  0  0  0
  140.0850   78.4390  222.8960 C   0  0  0  0  0  0  0  0  0  0  0  0
  139.7440   77.1540  222.7210 N   0  0  0  0  0  0  0  0  0  0  0  0
  140.0350   74.6500  222.1530 H   0  0  0  0  0  0  0  0  0  0  0  0
  137.6619   72.9285  222.6052 H   0  0  0  0  0  0  0  0  0  0  0  0
  138.3081   72.9670  220.9016 H   0  0  0  0  0  0  0  0  0  0  0  0
  139.7523   69.7883  221.1086 H   0  0  0  0  0  0  0  0  0  0  0  0
  140.5208   69.3285  222.6978 H   0  0  0  0  0  0  0  0  0  0  0  0
  138.7385   67.8255  221.4362 H   0  0  0  0  0  0  0  0  0  0  0  0
  138.9239   67.9584  223.2663 H   0  0  0  0  0  0  0  0  0  0  0  0
  136.8203   69.0994  221.4855 H   0  0  0  0  0  0  0  0  0  0  0  0
  136.7151   67.9468  222.9198 H   0  0  0  0  0  0  0  0  0  0  0  0
  136.2772   70.6836  222.8885 H   0  0  0  0  0  0  0  0  0  0  0  0
  136.4451   69.5321  224.3011 H   0  0  0  0  0  0  0  0  0  0  0  0
  137.8082   71.6662  224.2389 H   0  0  0  0  0  0  0  0  0  0  0  0
  137.7699   68.2080  225.0017 H   0  0  0  0  0  0  0  0  0  0  0  0
  138.9869   67.1895  226.8871 H   0  0  0  0  0  0  0  0  0  0  0  0
  141.3688   70.7390  227.1530 H   0  0  0  0  0  0  0  0  0  0  0  0
  140.1359   71.7441  225.2682 H   0  0  0  0  0  0  0  0  0  0  0  0
  136.4451   77.5666  222.3915 H   0  0  0  0  0  0  0  0  0  0  0  0
  137.0603   79.9697  222.7179 H   0  0  0  0  0  0  0  0  0  0  0  0
  138.7863   81.5822  223.0820 H   0  0  0  0  0  0  0  0  0  0  0  0
  141.2022   82.1130  223.4127 H   0  0  0  0  0  0  0  0  0  0  0  0
  142.1615   77.9549  223.0808 H   0  0  0  0  0  0  0  0  0  0  0  0
  1  2  2  0
  2  3  1  0
  3  4  1  0
  4  5  1  0
  5  6  2  0
  5  7  1  0
  7  8  1  0
  8  9  1  0
  9 10  1  0
 10 11  1  0
 11 12  1  0
 12 13  1  0
 13 14  2  0
 14 15  1  0
 15 16  2  0
 16 17  1  0
 16 18  1  0
 18 19  2  0
  2 20  1  0
 20 21  2  0
 21 22  1  0
 22 23  2  0
 23 24  1  0
 24 25  2  0
 25 26  1  0
 26 27  1  0
 26 28  2  0
 28 29  1  0
 29 30  2  0
 12  7  1  0
 19 13  1  0
 30 20  1  0
 29 23  1  0
  3 31  1  0
  4 32  1  0
  4 33  1  0
  8 34  1  0
  8 35  1  0
  9 36  1  0
  9 37  1  0
 10 38  1  0
 10 39  1  0
 11 40  1  0
 11 41  1  0
 12 42  1  1
 14 43  1  0
 15 44  1  0
 18 45  1  0
 19 46  1  0
 21 47  1  0
 22 48  1  0
 24 49  1  0
 25 50  1  0
 28 51  1  0
M  END
>  <smiles>  (99) 
O=C(NCC(=O)N1CCCCC1c1ccc(Cl)cc1)c1ccc2ccc(Cl)cc2n1

>  <score_type>  (99) 
oracle

>  <origin>  (99) 
autodockgpu

>  <m_score__min__energy>  (99) 
-9.0199999999999996

>  <m_primary>  (99) 
energy

>  <rmsd>  (99) 
8.245242484862077

>  <m_score__min__rmsd>  (99) 
8.245242484862077

>  <meeko>  (99) 
{"free_energy": -8.06, "intermolecular_energy": -9.55, "internal_energy": -1.78, "cluster_size": 25, "cluster_id": 1, "rank_in_cluster": 23}

>  <energy>  (99) 
-7.18

>  <cluster_rmsd>  (99) 
0.0

>  <cluster>  (99) 
8

$$$$

     RDKit          3D

 51 54  0  0  0  0  0  0  0  0999 V2000
  139.7710   73.8100  222.4130 O   0  0  0  0  0  0  0  0  0  0  0  0
  140.7170   74.1800  221.6740 C   0  0  0  0  0  0  0  0  0  0  0  0
  141.5590   73.1550  221.1510 N   0  0  0  0  0  0  0  0  0  0  0  0
  141.2610   71.7840  221.5080 C   0  0  0  0  0  0  0  0  0  0  0  0
  139.9150   71.3660  221.0950 C   0  0  0  0  0  0  0  0  0  0  0  0
  139.3590   71.6910  220.0150 O   0  0  0  0  0  0  0  0  0  0  0  0
  139.1760   70.5280  221.9740 N   0  0  0  0  0  0  0  0  0  0  0  0
  139.1700   69.1040  221.7880 C   0  0  0  0  0  0  0  0  0  0  0  0
  137.9500   68.4450  222.3410 C   0  0  0  0  0  0  0  0  0  0  0  0
  136.7320   69.2990  222.4140 C   0  0  0  0  0  0  0  0  0  0  0  0
  136.9470   70.6860  222.9270 C   0  0  0  0  0  0  0  0  0  0  0  0
  138.4000   71.0600  223.0870 C   0  0  1  0  0  0  0  0  0  0  0  0
  139.0110   70.5720  224.3400 C   0  0  0  0  0  0  0  0  0  0  0  0
  138.4950   69.6080  225.1480 C   0  0  0  0  0  0  0  0  0  0  0  0
  139.1060   69.1810  226.3170 C   0  0  0  0  0  0  0  0  0  0  0  0
  140.3110   69.7540  226.7010 C   0  0  0  0  0  0  0  0  0  0  0  0
  141.0830   69.2170  228.1750 Cl  0  0  0  0  0  0  0  0  0  0  0  0
  140.8360   70.7300  225.8830 C   0  0  0  0  0  0  0  0  0  0  0  0
  140.2150   71.1490  224.7170 C   0  0  0  0  0  0  0  0  0  0  0  0
  140.9790   75.5780  221.3420 C   0  0  0  0  0  0  0  0  0  0  0  0
  141.1090   75.9290  220.0120 C   0  0  0  0  0  0  0  0  0  0  0  0
  141.3570   77.2350  219.6200 C   0  0  0  0  0  0  0  0  0  0  0  0
  141.4670   78.1680  220.6410 C   0  0  0  0  0  0  0  0  0  0  0  0
  141.7150   79.4830  220.2940 C   0  0  0  0  0  0  0  0  0  0  0  0
  141.8270   80.4230  221.3100 C   0  0  0  0  0  0  0  0  0  0  0  0
  141.6930   80.0500  222.6360 C   0  0  0  0  0  0  0  0  0  0  0  0
  141.8480   81.2930  223.8420 Cl  0  0  0  0  0  0  0  0  0  0  0  0
  141.4460   78.7270  222.9290 C   0  0  0  0  0  0  0  0  0  0  0  0
  141.3300   77.7680  221.9450 C   0  0  0  0  0  0  0  0  0  0  0  0
  141.0900   76.4970  222.2980 N   0  0  0  0  0  0  0  0  0  0  0  0
  142.3690   73.3670  220.5290 H   0  0  0  0  0  0  0  0  0  0  0  0
  141.9972   71.1268  221.0222 H   0  0  0  0  0  0  0  0  0  0  0  0
  141.3078   71.7106  222.6045 H   0  0  0  0  0  0  0  0  0  0  0  0
  139.2241   68.8918  220.7100 H   0  0  0  0  0  0  0  0  0  0  0  0
  140.0360   68.6991  222.3321 H   0  0  0  0  0  0  0  0  0  0  0  0
  137.7171   67.5776  221.7060 H   0  0  0  0  0  0  0  0  0  0  0  0
  138.1956   68.1832  223.3808 H   0  0  0  0  0  0  0  0  0  0  0  0
  136.3100   69.3743  221.4010 H   0  0  0  0  0  0  0  0  0  0  0  0
  136.0640   68.8100  223.1383 H   0  0  0  0  0  0  0  0  0  0  0  0
  136.4832   71.3918  222.2222 H   0  0  0  0  0  0  0  0  0  0  0  0
  136.4937   70.7301  223.9283 H   0  0  0  0  0  0  0  0  0  0  0  0
  138.4196   72.1595  223.1119 H   0  0  0  0  0  0  0  0  0  0  0  0
  137.5416   69.1418  224.8587 H   0  0  0  0  0  0  0  0  0  0  0  0
  138.6414   68.3972  226.9333 H   0  0  0  0  0  0  0  0  0  0  0  0
  141.7902   71.1974  226.1677 H   0  0  0  0  0  0  0  0  0  0  0  0
  140.6730   71.9326  224.0956 H   0  0  0  0  0  0  0  0  0  0  0  0
  141.0129   75.1493  219.2420 H   0  0  0  0  0  0  0  0  0  0  0  0
  141.4606   77.5154  218.5614 H   0  0  0  0  0  0  0  0  0  0  0  0
  141.8210   79.7774  219.2394 H   0  0  0  0  0  0  0  0  0  0  0  0
  142.0244   81.4754  221.0581 H   0  0  0  0  0  0  0  0  0  0  0  0
  141.3378   78.4259  223.9814 H   0  0  0  0  0  0  0  0  0  0  0  0
  1  2  2  0
  2  3  1  0
  3  4  1  0
  4  5  1  0
  5  6  2  0
  5  7  1  0
  7  8  1  0
  8  9  1  0
  9 10  1  0
 10 11  1  0
 11 12  1  0
 12 13  1  0
 13 14  2  0
 14 15  1  0
 15 16  2  0
 16 17  1  0
 16 18  1  0
 18 19  2  0
  2 20  1  0
 20 21  2  0
 21 22  1  0
 22 23  2  0
 23 24  1  0
 24 25  2  0
 25 26  1  0
 26 27  1  0
 26 28  2  0
 28 29  1  0
 29 30  2  0
 12  7  1  0
 19 13  1  0
 30 20  1  0
 29 23  1  0
  3 31  1  0
  4 32  1  0
  4 33  1  0
  8 34  1  0
  8 35  1  0
  9 36  1  0
  9 37  1  0
 10 38  1  0
 10 39  1  0
 11 40  1  0
 11 41  1  0
 12 42  1  1
 14 43  1  0
 15 44  1  0
 18 45  1  0
 19 46  1  0
 21 47  1  0
 22 48  1  0
 24 49  1  0
 25 50  1  0
 28 51  1  0
M  END
>  <smiles>  (100) 
O=C(NCC(=O)N1CCCCC1c1ccc(Cl)cc1)c1ccc2ccc(Cl)cc2n1

>  <score_type>  (100) 
oracle

>  <origin>  (100) 
autodockgpu

>  <m_score__min__energy>  (100) 
-9.0199999999999996

>  <m_primary>  (100) 
energy

>  <rmsd>  (100) 
8.068626310645051

>  <m_score__min__rmsd>  (100) 
8.068626310645051

>  <meeko>  (100) 
{"free_energy": -8.04, "intermolecular_energy": -9.53, "internal_energy": -1.5, "cluster_size": 25, "cluster_id": 1, "rank_in_cluster": 24}

>  <energy>  (100) 
-7.12

>  <cluster_rmsd>  (100) 
0.1

>  <cluster>  (100) 
8

$$$$
