
     RDKit          3D

 49 52  0  0  0  0  0  0  0  0999 V2000
  139.4940   72.5110  220.3670 O   0  0  0  0  0  0  0  0  0  0  0  0
  140.2220   72.7760  221.3580 C   0  0  0  0  0  0  0  0  0  0  0  0
  141.1350   73.8640  221.3950 N   0  0  0  0  0  0  0  0  0  0  0  0
  141.2880   74.7610  220.2680 C   0  0  0  0  0  0  0  0  0  0  0  0
  142.7220   74.9750  219.9490 C   0  0  0  0  0  0  0  0  0  0  0  0
  143.0590   76.1620  219.6660 O   0  0  0  0  0  0  0  0  0  0  0  0
  143.6790   73.8990  219.9610 N   0  0  0  0  0  0  0  0  0  0  0  0
  144.8130   73.9000  220.8510 C   0  0  0  0  0  0  0  0  0  0  0  0
  145.5940   72.7010  220.3070 C   0  0  2  0  0  0  0  0  0  0  0  0
  146.3540   73.1830  219.2410 O   0  0  0  0  0  0  0  0  0  0  0  0
  144.5080   71.7790  219.7740 C   0  0  0  0  0  0  0  0  0  0  0  0
  143.6040   72.7530  219.1050 C   0  0  1  0  0  0  0  0  0  0  0  0
  142.2370   72.2270  218.8100 C   0  0  0  0  0  0  0  0  0  0  0  0
  142.1630   70.7810  218.8950 N   0  0  0  0  0  0  0  0  0  0  0  0
  141.4970   70.0990  219.8740 C   0  0  0  0  0  0  0  0  0  0  0  0
  141.6270   68.7430  219.6590 C   0  0  0  0  0  0  0  0  0  0  0  0
  142.3950   68.6340  218.5160 C   0  0  0  0  0  0  0  0  0  0  0  0
  142.6850   69.8590  218.1040 N   0  0  0  0  0  0  0  0  0  0  0  0
  140.1250   71.9070  222.5500 C   0  0  0  0  0  0  0  0  0  0  0  0
  139.4390   70.7160  222.4970 C   0  0  0  0  0  0  0  0  0  0  0  0
  139.3070   69.8580  223.5670 C   0  0  0  0  0  0  0  0  0  0  0  0
  139.9110   70.2440  224.7490 C   0  0  0  0  0  0  0  0  0  0  0  0
  139.8020   69.4100  225.8420 C   0  0  0  0  0  0  0  0  0  0  0  0
  140.3820   69.7390  227.0460 C   0  0  0  0  0  0  0  0  0  0  0  0
  140.2080   68.6430  228.3940 Cl  0  0  0  0  0  0  0  0  0  0  0  0
  141.0700   70.9240  227.1140 C   0  0  0  0  0  0  0  0  0  0  0  0
  141.1860   71.7700  226.0200 C   0  0  0  0  0  0  0  0  0  0  0  0
  140.6020   71.4450  224.7930 C   0  0  0  0  0  0  0  0  0  0  0  0
  140.6950   72.2390  223.7190 N   0  0  0  0  0  0  0  0  0  0  0  0
  141.7370   74.0710  222.2320 H   0  0  0  0  0  0  0  0  0  0  0  0
  140.7855   74.3262  219.3914 H   0  0  0  0  0  0  0  0  0  0  0  0
  140.8385   75.7306  220.5284 H   0  0  0  0  0  0  0  0  0  0  0  0
  145.3916   74.8321  220.7708 H   0  0  0  0  0  0  0  0  0  0  0  0
  144.5581   73.8352  221.9191 H   0  0  0  0  0  0  0  0  0  0  0  0
  146.2467   72.1990  221.0364 H   0  0  0  0  0  0  0  0  0  0  0  0
  146.2200   74.1760  219.1550 H   0  0  0  0  0  0  0  0  0  0  0  0
  144.9144   71.0491  219.0584 H   0  0  0  0  0  0  0  0  0  0  0  0
  144.0189   71.1651  220.5447 H   0  0  0  0  0  0  0  0  0  0  0  0
  143.9118   73.0025  218.0788 H   0  0  0  0  0  0  0  0  0  0  0  0
  141.5301   72.6587  219.5339 H   0  0  0  0  0  0  0  0  0  0  0  0
  141.9871   72.5122  217.7774 H   0  0  0  0  0  0  0  0  0  0  0  0
  140.9430   70.5601  220.7049 H   0  0  0  0  0  0  0  0  0  0  0  0
  141.2098   67.9258  220.2658 H   0  0  0  0  0  0  0  0  0  0  0  0
  142.7097   67.6967  218.0338 H   0  0  0  0  0  0  0  0  0  0  0  0
  138.9681   70.4318  221.5444 H   0  0  0  0  0  0  0  0  0  0  0  0
  138.7492   68.9135  223.4848 H   0  0  0  0  0  0  0  0  0  0  0  0
  139.2428   68.4672  225.7500 H   0  0  0  0  0  0  0  0  0  0  0  0
  141.5438   71.2122  228.0640 H   0  0  0  0  0  0  0  0  0  0  0  0
  141.7465   72.7111  226.1204 H   0  0  0  0  0  0  0  0  0  0  0  0
  1  2  2  0
  2  3  1  0
  3  4  1  0
  4  5  1  0
  5  6  2  0
  5  7  1  0
  7  8  1  0
  8  9  1  0
  9 10  1  0
  9 11  1  0
 11 12  1  0
 12 13  1  0
 13 14  1  0
 14 15  1  0
 15 16  2  0
 16 17  1  0
 17 18  2  0
  2 19  1  0
 19 20  2  0
 20 21  1  0
 21 22  2  0
 22 23  1  0
 23 24  2  0
 24 25  1  0
 24 26  1  0
 26 27  2  0
 27 28  1  0
 28 29  2  0
 12  7  1  0
 18 14  1  0
 29 19  1  0
 28 22  1  0
  3 30  1  0
  4 31  1  0
  4 32  1  0
  8 33  1  0
  8 34  1  0
  9 35  1  1
 10 36  1  0
 11 37  1  0
 11 38  1  0
 12 39  1  6
 13 40  1  0
 13 41  1  0
 15 42  1  0
 16 43  1  0
 17 44  1  0
 20 45  1  0
 21 46  1  0
 23 47  1  0
 26 48  1  0
 27 49  1  0
M  END
>  <smiles>  (1) 
O=C(NCC(=O)N1C[C@H](O)C[C@H]1Cn1cccn1)c1ccc2cc(Cl)ccc2n1

>  <score_type>  (1) 
oracle

>  <origin>  (1) 
autodockgpu

>  <m_score__min__energy>  (1) 
-8.6699999999999999

>  <m_primary>  (1) 
energy

>  <rmsd>  (1) 
5.663072895660505

>  <m_score__min__rmsd>  (1) 
5.663072895660505

>  <meeko>  (1) 
{"free_energy": -6.81, "intermolecular_energy": -8.89, "internal_energy": -2.03, "cluster_size": 1, "cluster_id": 3, "rank_in_cluster": 1}

>  <energy>  (1) 
-8.67

>  <cluster_rmsd>  (1) 
0.0

>  <cluster>  (1) 
1

$$$$

     RDKit          3D

 49 52  0  0  0  0  0  0  0  0999 V2000
  138.9290   72.2980  220.5320 O   0  0  0  0  0  0  0  0  0  0  0  0
  138.0340   72.1430  221.4020 C   0  0  0  0  0  0  0  0  0  0  0  0
  136.7040   72.6210  221.2570 N   0  0  0  0  0  0  0  0  0  0  0  0
  136.2830   73.3340  220.0690 C   0  0  0  0  0  0  0  0  0  0  0  0
  136.9510   74.6570  219.9760 C   0  0  0  0  0  0  0  0  0  0  0  0
  136.5660   75.4110  219.0360 O   0  0  0  0  0  0  0  0  0  0  0  0
  137.9760   75.0620  220.9010 N   0  0  0  0  0  0  0  0  0  0  0  0
  139.3320   75.3050  220.4750 C   0  0  0  0  0  0  0  0  0  0  0  0
  140.0250   75.4670  221.8300 C   0  0  2  0  0  0  0  0  0  0  0  0
  140.3300   74.1780  222.2680 O   0  0  0  0  0  0  0  0  0  0  0  0
  138.9400   76.0560  222.7180 C   0  0  0  0  0  0  0  0  0  0  0  0
  137.7590   75.2520  222.3040 C   0  0  1  0  0  0  0  0  0  0  0  0
  136.4420   75.8360  222.7040 C   0  0  0  0  0  0  0  0  0  0  0  0
  135.7470   75.0270  223.6860 N   0  0  0  0  0  0  0  0  0  0  0  0
  135.3000   75.4930  224.8910 C   0  0  0  0  0  0  0  0  0  0  0  0
  134.6860   74.4680  225.5800 C   0  0  0  0  0  0  0  0  0  0  0  0
  134.7790   73.3710  224.7470 C   0  0  0  0  0  0  0  0  0  0  0  0
  135.4110   73.7490  223.6460 N   0  0  0  0  0  0  0  0  0  0  0  0
  138.3850   71.4240  222.6460 C   0  0  0  0  0  0  0  0  0  0  0  0
  137.6470   70.3430  223.0650 C   0  0  0  0  0  0  0  0  0  0  0  0
  137.9150   69.6280  224.2120 C   0  0  0  0  0  0  0  0  0  0  0  0
  138.9970   70.0460  224.9630 C   0  0  0  0  0  0  0  0  0  0  0  0
  139.2970   69.3540  226.1180 C   0  0  0  0  0  0  0  0  0  0  0  0
  140.3630   69.7210  226.9080 C   0  0  0  0  0  0  0  0  0  0  0  0
  140.6930   68.8070  228.3590 Cl  0  0  0  0  0  0  0  0  0  0  0  0
  141.1100   70.7980  226.5030 C   0  0  0  0  0  0  0  0  0  0  0  0
  140.8160   71.5010  225.3430 C   0  0  0  0  0  0  0  0  0  0  0  0
  139.7370   71.1360  224.5330 C   0  0  0  0  0  0  0  0  0  0  0  0
  139.4270   71.7930  223.4090 N   0  0  0  0  0  0  0  0  0  0  0  0
  135.9680   72.4830  221.9960 H   0  0  0  0  0  0  0  0  0  0  0  0
  136.5413   72.7377  219.1814 H   0  0  0  0  0  0  0  0  0  0  0  0
  135.1961   73.4939  220.1237 H   0  0  0  0  0  0  0  0  0  0  0  0
  139.7390   74.4535  219.9099 H   0  0  0  0  0  0  0  0  0  0  0  0
  139.4522   76.1600  219.7934 H   0  0  0  0  0  0  0  0  0  0  0  0
  140.9354   76.0842  221.8179 H   0  0  0  0  0  0  0  0  0  0  0  0
  139.5130   73.5970  222.1960 H   0  0  0  0  0  0  0  0  0  0  0  0
  139.1706   75.9139  223.7841 H   0  0  0  0  0  0  0  0  0  0  0  0
  138.8073   77.1424  222.6081 H   0  0  0  0  0  0  0  0  0  0  0  0
  137.6810   74.2878  222.8277 H   0  0  0  0  0  0  0  0  0  0  0  0
  136.6149   76.8354  223.1299 H   0  0  0  0  0  0  0  0  0  0  0  0
  135.8112   75.8813  221.8040 H   0  0  0  0  0  0  0  0  0  0  0  0
  135.4125   76.5251  225.2546 H   0  0  0  0  0  0  0  0  0  0  0  0
  134.2229   74.5145  226.5767 H   0  0  0  0  0  0  0  0  0  0  0  0
  134.3962   72.3620  224.9599 H   0  0  0  0  0  0  0  0  0  0  0  0
  136.7917   70.0300  222.4482 H   0  0  0  0  0  0  0  0  0  0  0  0
  137.2990   68.7683  224.5144 H   0  0  0  0  0  0  0  0  0  0  0  0
  138.6749   68.4958  226.4123 H   0  0  0  0  0  0  0  0  0  0  0  0
  141.9673   71.1137  227.1157 H   0  0  0  0  0  0  0  0  0  0  0  0
  141.4420   72.3589  225.0566 H   0  0  0  0  0  0  0  0  0  0  0  0
  1  2  2  0
  2  3  1  0
  3  4  1  0
  4  5  1  0
  5  6  2  0
  5  7  1  0
  7  8  1  0
  8  9  1  0
  9 10  1  0
  9 11  1  0
 11 12  1  0
 12 13  1  0
 13 14  1  0
 14 15  1  0
 15 16  2  0
 16 17  1  0
 17 18  2  0
  2 19  1  0
 19 20  2  0
 20 21  1  0
 21 22  2  0
 22 23  1  0
 23 24  2  0
 24 25  1  0
 24 26  1  0
 26 27  2  0
 27 28  1  0
 28 29  2  0
 12  7  1  0
 18 14  1  0
 29 19  1  0
 28 22  1  0
  3 30  1  0
  4 31  1  0
  4 32  1  0
  8 33  1  0
  8 34  1  0
  9 35  1  6
 10 36  1  0
 11 37  1  0
 11 38  1  0
 12 39  1  1
 13 40  1  0
 13 41  1  0
 15 42  1  0
 16 43  1  0
 17 44  1  0
 20 45  1  0
 21 46  1  0
 23 47  1  0
 26 48  1  0
 27 49  1  0
M  END
>  <smiles>  (2) 
O=C(NCC(=O)N1C[C@H](O)C[C@H]1Cn1cccn1)c1ccc2cc(Cl)ccc2n1

>  <score_type>  (2) 
oracle

>  <origin>  (2) 
autodockgpu

>  <m_score__min__energy>  (2) 
-8.6699999999999999

>  <m_primary>  (2) 
energy

>  <rmsd>  (2) 
4.376779554325824

>  <m_score__min__rmsd>  (2) 
4.376779554325824

>  <meeko>  (2) 
{"free_energy": -5.56, "intermolecular_energy": -7.65, "internal_energy": -4.0, "cluster_size": 10, "cluster_id": 6, "rank_in_cluster": 9}

>  <energy>  (2) 
-8.61

>  <cluster_rmsd>  (2) 
0.46

>  <cluster>  (2) 
1

$$$$

     RDKit          3D

 49 52  0  0  0  0  0  0  0  0999 V2000
  140.3030   73.5890  221.9730 O   0  0  0  0  0  0  0  0  0  0  0  0
  139.6800   72.4970  221.9470 C   0  0  0  0  0  0  0  0  0  0  0  0
  138.8350   72.0980  220.8760 N   0  0  0  0  0  0  0  0  0  0  0  0
  138.6330   72.9440  219.7180 C   0  0  0  0  0  0  0  0  0  0  0  0
  137.5340   73.9140  219.9520 C   0  0  0  0  0  0  0  0  0  0  0  0
  136.5910   73.9040  219.1080 O   0  0  0  0  0  0  0  0  0  0  0  0
  137.5360   74.8170  221.0740 N   0  0  0  0  0  0  0  0  0  0  0  0
  138.1290   76.1280  220.9930 C   0  0  0  0  0  0  0  0  0  0  0  0
  138.0690   76.5520  222.4640 C   0  0  2  0  0  0  0  0  0  0  0  0
  139.2030   76.0100  223.0700 O   0  0  0  0  0  0  0  0  0  0  0  0
  136.8300   75.8420  222.9890 C   0  0  0  0  0  0  0  0  0  0  0  0
  136.9700   74.5050  222.3520 C   0  0  1  0  0  0  0  0  0  0  0  0
  135.7190   73.6880  222.3480 C   0  0  0  0  0  0  0  0  0  0  0  0
  135.9680   72.2820  222.6020 N   0  0  0  0  0  0  0  0  0  0  0  0
  135.8860   71.6950  223.8340 C   0  0  0  0  0  0  0  0  0  0  0  0
  136.1830   70.3530  223.7220 C   0  0  0  0  0  0  0  0  0  0  0  0
  136.4470   70.1540  222.3820 C   0  0  0  0  0  0  0  0  0  0  0  0
  136.3080   71.3180  221.7640 N   0  0  0  0  0  0  0  0  0  0  0  0
  139.8340   71.5760  223.0930 C   0  0  0  0  0  0  0  0  0  0  0  0
  139.4780   70.2520  222.9830 C   0  0  0  0  0  0  0  0  0  0  0  0
  139.5930   69.3390  224.0090 C   0  0  0  0  0  0  0  0  0  0  0  0
  140.0990   69.8110  225.2050 C   0  0  0  0  0  0  0  0  0  0  0  0
  140.2300   68.9260  226.2550 C   0  0  0  0  0  0  0  0  0  0  0  0
  140.7280   69.3360  227.4700 C   0  0  0  0  0  0  0  0  0  0  0  0
  140.8690   68.1690  228.7620 Cl  0  0  0  0  0  0  0  0  0  0  0  0
  141.0870   70.6540  227.5950 C   0  0  0  0  0  0  0  0  0  0  0  0
  140.9600   71.5530  226.5450 C   0  0  0  0  0  0  0  0  0  0  0  0
  140.4560   71.1460  225.3070 C   0  0  0  0  0  0  0  0  0  0  0  0
  140.3200   71.9880  224.2740 N   0  0  0  0  0  0  0  0  0  0  0  0
  138.3210   71.1810  220.8700 H   0  0  0  0  0  0  0  0  0  0  0  0
  139.5614   73.4959  219.5096 H   0  0  0  0  0  0  0  0  0  0  0  0
  138.3621   72.3077  218.8626 H   0  0  0  0  0  0  0  0  0  0  0  0
  139.1647   76.0834  220.6250 H   0  0  0  0  0  0  0  0  0  0  0  0
  137.6275   76.8160  220.2965 H   0  0  0  0  0  0  0  0  0  0  0  0
  138.0330   77.6377  222.6374 H   0  0  0  0  0  0  0  0  0  0  0  0
  139.1190   75.0090  223.1050 H   0  0  0  0  0  0  0  0  0  0  0  0
  136.8423   75.7687  224.0865 H   0  0  0  0  0  0  0  0  0  0  0  0
  135.8846   76.3548  222.7582 H   0  0  0  0  0  0  0  0  0  0  0  0
  137.6173   73.8170  222.9156 H   0  0  0  0  0  0  0  0  0  0  0  0
  135.0451   74.0725  223.1277 H   0  0  0  0  0  0  0  0  0  0  0  0
  135.2714   73.7706  221.3466 H   0  0  0  0  0  0  0  0  0  0  0  0
  135.6240   72.2124  224.7687 H   0  0  0  0  0  0  0  0  0  0  0  0
  136.2048   69.6033  224.5266 H   0  0  0  0  0  0  0  0  0  0  0  0
  136.7236   69.1992  221.9109 H   0  0  0  0  0  0  0  0  0  0  0  0
  139.0782   69.9014  222.0201 H   0  0  0  0  0  0  0  0  0  0  0  0
  139.2968   68.2872  223.8821 H   0  0  0  0  0  0  0  0  0  0  0  0
  139.9316   67.8761  226.1186 H   0  0  0  0  0  0  0  0  0  0  0  0
  141.4875   71.0091  228.5560 H   0  0  0  0  0  0  0  0  0  0  0  0
  141.2606   72.6012  226.6897 H   0  0  0  0  0  0  0  0  0  0  0  0
  1  2  2  0
  2  3  1  0
  3  4  1  0
  4  5  1  0
  5  6  2  0
  5  7  1  0
  7  8  1  0
  8  9  1  0
  9 10  1  0
  9 11  1  0
 11 12  1  0
 12 13  1  0
 13 14  1  0
 14 15  1  0
 15 16  2  0
 16 17  1  0
 17 18  2  0
  2 19  1  0
 19 20  2  0
 20 21  1  0
 21 22  2  0
 22 23  1  0
 23 24  2  0
 24 25  1  0
 24 26  1  0
 26 27  2  0
 27 28  1  0
 28 29  2  0
 12  7  1  0
 18 14  1  0
 29 19  1  0
 28 22  1  0
  3 30  1  0
  4 31  1  0
  4 32  1  0
  8 33  1  0
  8 34  1  0
  9 35  1  6
 10 36  1  0
 11 37  1  0
 11 38  1  0
 12 39  1  1
 13 40  1  0
 13 41  1  0
 15 42  1  0
 16 43  1  0
 17 44  1  0
 20 45  1  0
 21 46  1  0
 23 47  1  0
 26 48  1  0
 27 49  1  0
M  END
>  <smiles>  (3) 
O=C(NCC(=O)N1C[C@H](O)C[C@H]1Cn1cccn1)c1ccc2cc(Cl)ccc2n1

>  <score_type>  (3) 
oracle

>  <origin>  (3) 
autodockgpu

>  <m_score__min__energy>  (3) 
-8.6699999999999999

>  <m_primary>  (3) 
energy

>  <rmsd>  (3) 
5.079803280365548

>  <m_score__min__rmsd>  (3) 
5.079803280365548

>  <meeko>  (3) 
{"free_energy": -5.85, "intermolecular_energy": -7.94, "internal_energy": -3.64, "cluster_size": 6, "cluster_id": 2, "rank_in_cluster": 6}

>  <energy>  (3) 
-8.53

>  <cluster_rmsd>  (3) 
0.69

>  <cluster>  (3) 
1

$$$$

     RDKit          3D

 49 52  0  0  0  0  0  0  0  0999 V2000
  139.8750   72.5790  220.8870 O   0  0  0  0  0  0  0  0  0  0  0  0
  141.0380   73.0300  220.7280 C   0  0  0  0  0  0  0  0  0  0  0  0
  142.1770   72.2080  220.5110 N   0  0  0  0  0  0  0  0  0  0  0  0
  142.0680   70.7650  220.4560 C   0  0  0  0  0  0  0  0  0  0  0  0
  142.5780   70.2410  219.1640 C   0  0  0  0  0  0  0  0  0  0  0  0
  141.8380   70.4300  218.1540 O   0  0  0  0  0  0  0  0  0  0  0  0
  143.8400   69.5560  219.0600 N   0  0  0  0  0  0  0  0  0  0  0  0
  143.9190   68.1250  218.9100 C   0  0  0  0  0  0  0  0  0  0  0  0
  145.4250   67.9090  219.0820 C   0  0  2  0  0  0  0  0  0  0  0  0
  145.6530   67.8370  220.4560 O   0  0  0  0  0  0  0  0  0  0  0  0
  146.0340   69.1930  218.5370 C   0  0  0  0  0  0  0  0  0  0  0  0
  145.1120   70.2130  219.1040 C   0  0  1  0  0  0  0  0  0  0  0  0
  145.1950   71.5540  218.4480 C   0  0  0  0  0  0  0  0  0  0  0  0
  145.2280   72.6430  219.4040 N   0  0  0  0  0  0  0  0  0  0  0  0
  146.0220   72.6690  220.5160 C   0  0  0  0  0  0  0  0  0  0  0  0
  145.8070   73.8440  221.2070 C   0  0  0  0  0  0  0  0  0  0  0  0
  144.8560   74.5220  220.4710 C   0  0  0  0  0  0  0  0  0  0  0  0
  144.5470   73.7760  219.4210 N   0  0  0  0  0  0  0  0  0  0  0  0
  141.2330   74.4950  220.7710 C   0  0  0  0  0  0  0  0  0  0  0  0
  141.6560   75.1790  219.6560 C   0  0  0  0  0  0  0  0  0  0  0  0
  141.8600   76.5420  219.6240 C   0  0  0  0  0  0  0  0  0  0  0  0
  141.6140   77.2330  220.7950 C   0  0  0  0  0  0  0  0  0  0  0  0
  141.8060   78.5990  220.8010 C   0  0  0  0  0  0  0  0  0  0  0  0
  141.5770   79.3420  221.9370 C   0  0  0  0  0  0  0  0  0  0  0  0
  141.8380   81.0680  221.8830 Cl  0  0  0  0  0  0  0  0  0  0  0  0
  141.1540   78.6730  223.0570 C   0  0  0  0  0  0  0  0  0  0  0  0
  140.9580   77.2990  223.0620 C   0  0  0  0  0  0  0  0  0  0  0  0
  141.1860   76.5350  221.9140 C   0  0  0  0  0  0  0  0  0  0  0  0
  141.0080   75.2080  221.8850 N   0  0  0  0  0  0  0  0  0  0  0  0
  143.1440   72.6020  220.3810 H   0  0  0  0  0  0  0  0  0  0  0  0
  142.6546   70.3285  221.2778 H   0  0  0  0  0  0  0  0  0  0  0  0
  141.0071   70.4902  220.5510 H   0  0  0  0  0  0  0  0  0  0  0  0
  143.3424   67.6027  219.6877 H   0  0  0  0  0  0  0  0  0  0  0  0
  143.5055   67.7395  217.9664 H   0  0  0  0  0  0  0  0  0  0  0  0
  145.8283   67.0129  218.5876 H   0  0  0  0  0  0  0  0  0  0  0  0
  146.2040   67.0220  220.6630 H   0  0  0  0  0  0  0  0  0  0  0  0
  147.0635   69.3355  218.8972 H   0  0  0  0  0  0  0  0  0  0  0  0
  146.1204   69.2220  217.4408 H   0  0  0  0  0  0  0  0  0  0  0  0
  145.3687   70.5119  220.1310 H   0  0  0  0  0  0  0  0  0  0  0  0
  146.1105   71.5920  217.8394 H   0  0  0  0  0  0  0  0  0  0  0  0
  144.2920   71.6794  217.8324 H   0  0  0  0  0  0  0  0  0  0  0  0
  146.7238   71.8761  220.8141 H   0  0  0  0  0  0  0  0  0  0  0  0
  146.2885   74.1695  222.1409 H   0  0  0  0  0  0  0  0  0  0  0  0
  144.4304   75.5069  220.7135 H   0  0  0  0  0  0  0  0  0  0  0  0
  141.8425   74.6055  218.7361 H   0  0  0  0  0  0  0  0  0  0  0  0
  142.2014   77.0537  218.7121 H   0  0  0  0  0  0  0  0  0  0  0  0
  142.1472   79.1021  219.8842 H   0  0  0  0  0  0  0  0  0  0  0  0
  140.9644   79.2424  223.9789 H   0  0  0  0  0  0  0  0  0  0  0  0
  140.6180   76.8038  223.9835 H   0  0  0  0  0  0  0  0  0  0  0  0
  1  2  2  0
  2  3  1  0
  3  4  1  0
  4  5  1  0
  5  6  2  0
  5  7  1  0
  7  8  1  0
  8  9  1  0
  9 10  1  0
  9 11  1  0
 11 12  1  0
 12 13  1  0
 13 14  1  0
 14 15  1  0
 15 16  2  0
 16 17  1  0
 17 18  2  0
  2 19  1  0
 19 20  2  0
 20 21  1  0
 21 22  2  0
 22 23  1  0
 23 24  2  0
 24 25  1  0
 24 26  1  0
 26 27  2  0
 27 28  1  0
 28 29  2  0
 12  7  1  0
 18 14  1  0
 29 19  1  0
 28 22  1  0
  3 30  1  0
  4 31  1  0
  4 32  1  0
  8 33  1  0
  8 34  1  0
  9 35  1  6
 10 36  1  0
 11 37  1  0
 11 38  1  0
 12 39  1  1
 13 40  1  0
 13 41  1  0
 15 42  1  0
 16 43  1  0
 17 44  1  0
 20 45  1  0
 21 46  1  0
 23 47  1  0
 26 48  1  0
 27 49  1  0
M  END
>  <smiles>  (4) 
O=C(NCC(=O)N1C[C@H](O)C[C@H]1Cn1cccn1)c1ccc2cc(Cl)ccc2n1

>  <score_type>  (4) 
oracle

>  <origin>  (4) 
autodockgpu

>  <m_score__min__energy>  (4) 
-8.6699999999999999

>  <m_primary>  (4) 
energy

>  <rmsd>  (4) 
8.145369246177443

>  <m_score__min__rmsd>  (4) 
8.145369246177443

>  <meeko>  (4) 
{"free_energy": -6.33, "intermolecular_energy": -8.42, "internal_energy": -2.59, "cluster_size": 2, "cluster_id": 5, "rank_in_cluster": 2}

>  <energy>  (4) 
-8.4

>  <cluster_rmsd>  (4) 
0.5

>  <cluster>  (4) 
1

$$$$

     RDKit          3D

 49 52  0  0  0  0  0  0  0  0999 V2000
  142.1920   80.6660  219.9080 O   0  0  0  0  0  0  0  0  0  0  0  0
  141.4600   79.6860  219.6190 C   0  0  0  0  0  0  0  0  0  0  0  0
  140.0500   79.6750  219.8000 N   0  0  0  0  0  0  0  0  0  0  0  0
  139.3500   80.8220  220.3400 C   0  0  0  0  0  0  0  0  0  0  0  0
  139.4490   80.8580  221.8210 C   0  0  0  0  0  0  0  0  0  0  0  0
  138.4670   81.3690  222.4340 O   0  0  0  0  0  0  0  0  0  0  0  0
  140.5950   80.3420  222.5240 N   0  0  0  0  0  0  0  0  0  0  0  0
  141.5210   81.2090  223.2090 C   0  0  0  0  0  0  0  0  0  0  0  0
  142.6260   80.2110  223.5630 C   0  0  2  0  0  0  0  0  0  0  0  0
  143.4470   80.1240  222.4380 O   0  0  0  0  0  0  0  0  0  0  0  0
  141.8780   78.8980  223.7430 C   0  0  0  0  0  0  0  0  0  0  0  0
  140.9240   78.9500  222.6030 C   0  0  1  0  0  0  0  0  0  0  0  0
  139.7790   77.9970  222.7120 C   0  0  0  0  0  0  0  0  0  0  0  0
  139.8450   76.9290  221.7330 N   0  0  0  0  0  0  0  0  0  0  0  0
  140.4210   75.7110  221.9590 C   0  0  0  0  0  0  0  0  0  0  0  0
  140.3120   74.9340  220.8240 C   0  0  0  0  0  0  0  0  0  0  0  0
  139.6510   75.7280  219.9090 C   0  0  0  0  0  0  0  0  0  0  0  0
  139.3970   76.8920  220.4900 N   0  0  0  0  0  0  0  0  0  0  0  0
  142.1000   78.4750  219.0620 C   0  0  0  0  0  0  0  0  0  0  0  0
  142.2970   78.3450  217.7080 C   0  0  0  0  0  0  0  0  0  0  0  0
  142.8860   77.2460  217.1200 C   0  0  0  0  0  0  0  0  0  0  0  0
  143.2910   76.2330  217.9670 C   0  0  0  0  0  0  0  0  0  0  0  0
  143.8850   75.1170  217.4150 C   0  0  0  0  0  0  0  0  0  0  0  0
  144.3100   74.0750  218.2070 C   0  0  0  0  0  0  0  0  0  0  0  0
  145.0540   72.6880  217.4500 Cl  0  0  0  0  0  0  0  0  0  0  0  0
  144.1200   74.1900  219.5610 C   0  0  0  0  0  0  0  0  0  0  0  0
  143.5230   75.3080  220.1260 C   0  0  0  0  0  0  0  0  0  0  0  0
  143.0890   76.3720  219.3310 C   0  0  0  0  0  0  0  0  0  0  0  0
  142.5090   77.4650  219.8450 N   0  0  0  0  0  0  0  0  0  0  0  0
  139.4530   78.8460  219.5540 H   0  0  0  0  0  0  0  0  0  0  0  0
  139.7930   81.7405  219.9276 H   0  0  0  0  0  0  0  0  0  0  0  0
  138.2884   80.7471  220.0618 H   0  0  0  0  0  0  0  0  0  0  0  0
  141.8915   82.0088  222.5509 H   0  0  0  0  0  0  0  0  0  0  0  0
  141.0956   81.7467  224.0692 H   0  0  0  0  0  0  0  0  0  0  0  0
  143.2268   80.4734  224.4463 H   0  0  0  0  0  0  0  0  0  0  0  0
  142.9410   79.6850  221.6870 H   0  0  0  0  0  0  0  0  0  0  0  0
  142.5547   78.0344  223.6632 H   0  0  0  0  0  0  0  0  0  0  0  0
  141.3998   78.7822  224.7268 H   0  0  0  0  0  0  0  0  0  0  0  0
  141.3524   78.5893  221.6562 H   0  0  0  0  0  0  0  0  0  0  0  0
  139.7853   77.5529  223.7183 H   0  0  0  0  0  0  0  0  0  0  0  0
  138.8555   78.5641  222.5236 H   0  0  0  0  0  0  0  0  0  0  0  0
  140.8977   75.3983  222.8997 H   0  0  0  0  0  0  0  0  0  0  0  0
  140.6734   73.9051  220.6798 H   0  0  0  0  0  0  0  0  0  0  0  0
  139.3826   75.4452  218.8804 H   0  0  0  0  0  0  0  0  0  0  0  0
  141.9653   79.1659  217.0553 H   0  0  0  0  0  0  0  0  0  0  0  0
  143.0264   77.1792  216.0310 H   0  0  0  0  0  0  0  0  0  0  0  0
  144.0210   75.0591  216.3250 H   0  0  0  0  0  0  0  0  0  0  0  0
  144.4506   73.3720  220.2179 H   0  0  0  0  0  0  0  0  0  0  0  0
  143.3893   75.3574  221.2167 H   0  0  0  0  0  0  0  0  0  0  0  0
  1  2  2  0
  2  3  1  0
  3  4  1  0
  4  5  1  0
  5  6  2  0
  5  7  1  0
  7  8  1  0
  8  9  1  0
  9 10  1  0
  9 11  1  0
 11 12  1  0
 12 13  1  0
 13 14  1  0
 14 15  1  0
 15 16  2  0
 16 17  1  0
 17 18  2  0
  2 19  1  0
 19 20  2  0
 20 21  1  0
 21 22  2  0
 22 23  1  0
 23 24  2  0
 24 25  1  0
 24 26  1  0
 26 27  2  0
 27 28  1  0
 28 29  2  0
 12  7  1  0
 18 14  1  0
 29 19  1  0
 28 22  1  0
  3 30  1  0
  4 31  1  0
  4 32  1  0
  8 33  1  0
  8 34  1  0
  9 35  1  1
 10 36  1  0
 11 37  1  0
 11 38  1  0
 12 39  1  6
 13 40  1  0
 13 41  1  0
 15 42  1  0
 16 43  1  0
 17 44  1  0
 20 45  1  0
 21 46  1  0
 23 47  1  0
 26 48  1  0
 27 49  1  0
M  END
>  <smiles>  (5) 
O=C(NCC(=O)N1C[C@H](O)C[C@H]1Cn1cccn1)c1ccc2cc(Cl)ccc2n1

>  <score_type>  (5) 
oracle

>  <origin>  (5) 
autodockgpu

>  <m_score__min__energy>  (5) 
-8.6699999999999999

>  <m_primary>  (5) 
energy

>  <rmsd>  (5) 
8.359396888715503

>  <m_score__min__rmsd>  (5) 
8.359396888715503

>  <meeko>  (5) 
{"free_energy": -5.22, "intermolecular_energy": -7.31, "internal_energy": -4.06, "cluster_size": 3, "cluster_id": 9, "rank_in_cluster": 2}

>  <energy>  (5) 
-8.24

>  <cluster_rmsd>  (5) 
0.75

>  <cluster>  (5) 
1

$$$$

     RDKit          3D

 49 52  0  0  0  0  0  0  0  0999 V2000
  140.4430   72.4670  220.8170 O   0  0  0  0  0  0  0  0  0  0  0  0
  139.9690   72.8400  221.9210 C   0  0  0  0  0  0  0  0  0  0  0  0
  139.3960   74.1220  222.1380 N   0  0  0  0  0  0  0  0  0  0  0  0
  139.3180   75.1040  221.0760 C   0  0  0  0  0  0  0  0  0  0  0  0
  139.0690   76.4620  221.6230 C   0  0  0  0  0  0  0  0  0  0  0  0
  138.7560   76.5220  222.8470 O   0  0  0  0  0  0  0  0  0  0  0  0
  139.1770   77.6460  220.8100 N   0  0  0  0  0  0  0  0  0  0  0  0
  138.0590   78.5340  220.6090 C   0  0  0  0  0  0  0  0  0  0  0  0
  138.6260   79.4540  219.5240 C   0  0  2  0  0  0  0  0  0  0  0  0
  138.4070   78.8040  218.3090 O   0  0  0  0  0  0  0  0  0  0  0  0
  140.1190   79.4760  219.8200 C   0  0  0  0  0  0  0  0  0  0  0  0
  140.3730   78.0440  220.1310 C   0  0  1  0  0  0  0  0  0  0  0  0
  141.6620   77.7850  220.8420 C   0  0  0  0  0  0  0  0  0  0  0  0
  141.8520   78.6500  221.9900 N   0  0  0  0  0  0  0  0  0  0  0  0
  141.4450   78.3470  223.2590 C   0  0  0  0  0  0  0  0  0  0  0  0
  141.7780   79.3820  224.1080 C   0  0  0  0  0  0  0  0  0  0  0  0
  142.3990   80.3170  223.3040 C   0  0  0  0  0  0  0  0  0  0  0  0
  142.4180   79.8420  222.0680 N   0  0  0  0  0  0  0  0  0  0  0  0
  140.0120   71.8950  223.0560 C   0  0  0  0  0  0  0  0  0  0  0  0
  139.5600   70.6050  222.9130 C   0  0  0  0  0  0  0  0  0  0  0  0
  139.5680   69.6710  223.9270 C   0  0  0  0  0  0  0  0  0  0  0  0
  140.0670   70.0850  225.1470 C   0  0  0  0  0  0  0  0  0  0  0  0
  140.0930   69.1780  226.1860 C   0  0  0  0  0  0  0  0  0  0  0  0
  140.5790   69.5320  227.4240 C   0  0  0  0  0  0  0  0  0  0  0  0
  140.5850   68.3400  228.7000 Cl  0  0  0  0  0  0  0  0  0  0  0  0
  141.0350   70.8170  227.5820 C   0  0  0  0  0  0  0  0  0  0  0  0
  141.0130   71.7370  226.5430 C   0  0  0  0  0  0  0  0  0  0  0  0
  140.5220   71.3880  225.2820 C   0  0  0  0  0  0  0  0  0  0  0  0
  140.4880   72.2520  224.2600 N   0  0  0  0  0  0  0  0  0  0  0  0
  139.0050   74.4190  223.0680 H   0  0  0  0  0  0  0  0  0  0  0  0
  140.2672   75.1087  220.5202 H   0  0  0  0  0  0  0  0  0  0  0  0
  138.4833   74.8357  220.4117 H   0  0  0  0  0  0  0  0  0  0  0  0
  137.1682   77.9926  220.2578 H   0  0  0  0  0  0  0  0  0  0  0  0
  137.7159   79.0523  221.5166 H   0  0  0  0  0  0  0  0  0  0  0  0
  138.1907   80.4637  219.4932 H   0  0  0  0  0  0  0  0  0  0  0  0
  137.4670   78.4470  218.2840 H   0  0  0  0  0  0  0  0  0  0  0  0
  140.6984   79.8076  218.9458 H   0  0  0  0  0  0  0  0  0  0  0  0
  140.4101   80.1706  220.6217 H   0  0  0  0  0  0  0  0  0  0  0  0
  140.5464   77.4267  219.2372 H   0  0  0  0  0  0  0  0  0  0  0  0
  141.6713   76.7395  221.1839 H   0  0  0  0  0  0  0  0  0  0  0  0
  142.4786   77.9890  220.1338 H   0  0  0  0  0  0  0  0  0  0  0  0
  140.9314   77.4211  223.5572 H   0  0  0  0  0  0  0  0  0  0  0  0
  141.5898   79.4480  225.1898 H   0  0  0  0  0  0  0  0  0  0  0  0
  142.8059   81.2849  223.6320 H   0  0  0  0  0  0  0  0  0  0  0  0
  139.1687   70.2997  221.9313 H   0  0  0  0  0  0  0  0  0  0  0  0
  139.1957   68.6475  223.7725 H   0  0  0  0  0  0  0  0  0  0  0  0
  139.7196   68.1563  226.0226 H   0  0  0  0  0  0  0  0  0  0  0  0
  141.4295   71.1268  228.5610 H   0  0  0  0  0  0  0  0  0  0  0  0
  141.3879   72.7568  226.7148 H   0  0  0  0  0  0  0  0  0  0  0  0
  1  2  2  0
  2  3  1  0
  3  4  1  0
  4  5  1  0
  5  6  2  0
  5  7  1  0
  7  8  1  0
  8  9  1  0
  9 10  1  0
  9 11  1  0
 11 12  1  0
 12 13  1  0
 13 14  1  0
 14 15  1  0
 15 16  2  0
 16 17  1  0
 17 18  2  0
  2 19  1  0
 19 20  2  0
 20 21  1  0
 21 22  2  0
 22 23  1  0
 23 24  2  0
 24 25  1  0
 24 26  1  0
 26 27  2  0
 27 28  1  0
 28 29  2  0
 12  7  1  0
 18 14  1  0
 29 19  1  0
 28 22  1  0
  3 30  1  0
  4 31  1  0
  4 32  1  0
  8 33  1  0
  8 34  1  0
  9 35  1  6
 10 36  1  0
 11 37  1  0
 11 38  1  0
 12 39  1  6
 13 40  1  0
 13 41  1  0
 15 42  1  0
 16 43  1  0
 17 44  1  0
 20 45  1  0
 21 46  1  0
 23 47  1  0
 26 48  1  0
 27 49  1  0
M  END
>  <smiles>  (6) 
O=C(NCC(=O)N1C[C@H](O)C[C@H]1Cn1cccn1)c1ccc2cc(Cl)ccc2n1

>  <score_type>  (6) 
oracle

>  <origin>  (6) 
autodockgpu

>  <m_score__min__energy>  (6) 
-8.6699999999999999

>  <m_primary>  (6) 
energy

>  <rmsd>  (6) 
2.4519985299575553

>  <m_score__min__rmsd>  (6) 
2.4519985299575553

>  <meeko>  (6) 
{"free_energy": -7.06, "intermolecular_energy": -9.15, "internal_energy": -2.08, "cluster_size": 24, "cluster_id": 1, "rank_in_cluster": 20}

>  <energy>  (6) 
-8.17

>  <cluster_rmsd>  (6) 
0.99

>  <cluster>  (6) 
1

$$$$

     RDKit          3D

 49 52  0  0  0  0  0  0  0  0999 V2000
  137.6680   71.8240  220.8870 O   0  0  0  0  0  0  0  0  0  0  0  0
  137.6910   72.3160  222.0440 C   0  0  0  0  0  0  0  0  0  0  0  0
  137.2860   73.6450  222.3420 N   0  0  0  0  0  0  0  0  0  0  0  0
  136.8080   74.5390  221.3070 C   0  0  0  0  0  0  0  0  0  0  0  0
  137.9180   74.9680  220.4190 C   0  0  0  0  0  0  0  0  0  0  0  0
  137.5800   75.5010  219.3220 O   0  0  0  0  0  0  0  0  0  0  0  0
  139.3000   74.7910  220.7810 N   0  0  0  0  0  0  0  0  0  0  0  0
  140.0730   73.6710  220.3040 C   0  0  0  0  0  0  0  0  0  0  0  0
  141.3430   73.8330  221.1440 C   0  0  2  0  0  0  0  0  0  0  0  0
  141.0840   73.2100  222.3650 O   0  0  0  0  0  0  0  0  0  0  0  0
  141.4420   75.3360  221.3570 C   0  0  0  0  0  0  0  0  0  0  0  0
  140.0230   75.6820  221.6380 C   0  0  1  0  0  0  0  0  0  0  0  0
  139.7050   77.1370  221.5110 C   0  0  0  0  0  0  0  0  0  0  0  0
  140.6840   77.9830  222.1630 N   0  0  0  0  0  0  0  0  0  0  0  0
  141.6660   78.6720  221.5070 C   0  0  0  0  0  0  0  0  0  0  0  0
  142.4230   79.3740  222.4220 C   0  0  0  0  0  0  0  0  0  0  0  0
  141.8610   79.0840  223.6490 C   0  0  0  0  0  0  0  0  0  0  0  0
  140.8420   78.2630  223.4450 N   0  0  0  0  0  0  0  0  0  0  0  0
  138.1670   71.4670  223.1570 C   0  0  0  0  0  0  0  0  0  0  0  0
  137.4470   70.3670  223.5580 C   0  0  0  0  0  0  0  0  0  0  0  0
  137.8300   69.5320  224.5860 C   0  0  0  0  0  0  0  0  0  0  0  0
  139.0110   69.8460  225.2320 C   0  0  0  0  0  0  0  0  0  0  0  0
  139.4270   69.0330  226.2660 C   0  0  0  0  0  0  0  0  0  0  0  0
  140.5940   69.2930  226.9460 C   0  0  0  0  0  0  0  0  0  0  0  0
  141.0680   68.2280  228.2460 Cl  0  0  0  0  0  0  0  0  0  0  0  0
  141.3240   70.3880  226.5570 C   0  0  0  0  0  0  0  0  0  0  0  0
  140.9140   71.2120  225.5180 C   0  0  0  0  0  0  0  0  0  0  0  0
  139.7310   70.9560  224.8200 C   0  0  0  0  0  0  0  0  0  0  0  0
  139.3080   71.7320  223.8140 N   0  0  0  0  0  0  0  0  0  0  0  0
  137.3120   74.0420  223.3150 H   0  0  0  0  0  0  0  0  0  0  0  0
  136.0472   74.0193  220.7061 H   0  0  0  0  0  0  0  0  0  0  0  0
  136.3781   75.4310  221.7860 H   0  0  0  0  0  0  0  0  0  0  0  0
  139.5703   72.7140  220.5077 H   0  0  0  0  0  0  0  0  0  0  0  0
  140.2401   73.6582  219.2168 H   0  0  0  0  0  0  0  0  0  0  0  0
  142.2560   73.4143  220.6955 H   0  0  0  0  0  0  0  0  0  0  0  0
  140.2610   72.6370  222.2820 H   0  0  0  0  0  0  0  0  0  0  0  0
  142.0929   75.5803  222.2094 H   0  0  0  0  0  0  0  0  0  0  0  0
  141.8812   75.8840  220.5104 H   0  0  0  0  0  0  0  0  0  0  0  0
  139.7376   75.5388  222.6907 H   0  0  0  0  0  0  0  0  0  0  0  0
  139.6705   77.3976  220.4429 H   0  0  0  0  0  0  0  0  0  0  0  0
  138.7367   77.3094  222.0036 H   0  0  0  0  0  0  0  0  0  0  0  0
  141.8273   78.6673  220.4189 H   0  0  0  0  0  0  0  0  0  0  0  0
  143.2869   80.0237  222.2181 H   0  0  0  0  0  0  0  0  0  0  0  0
  142.1994   79.4668  224.6231 H   0  0  0  0  0  0  0  0  0  0  0  0
  136.5105   70.1396  223.0277 H   0  0  0  0  0  0  0  0  0  0  0  0
  137.2262   68.6599  224.8774 H   0  0  0  0  0  0  0  0  0  0  0  0
  138.8162   68.1637  226.5510 H   0  0  0  0  0  0  0  0  0  0  0  0
  142.2614   70.6194  227.0840 H   0  0  0  0  0  0  0  0  0  0  0  0
  141.5299   72.0799  225.2398 H   0  0  0  0  0  0  0  0  0  0  0  0
  1  2  2  0
  2  3  1  0
  3  4  1  0
  4  5  1  0
  5  6  2  0
  5  7  1  0
  7  8  1  0
  8  9  1  0
  9 10  1  0
  9 11  1  0
 11 12  1  0
 12 13  1  0
 13 14  1  0
 14 15  1  0
 15 16  2  0
 16 17  1  0
 17 18  2  0
  2 19  1  0
 19 20  2  0
 20 21  1  0
 21 22  2  0
 22 23  1  0
 23 24  2  0
 24 25  1  0
 24 26  1  0
 26 27  2  0
 27 28  1  0
 28 29  2  0
 12  7  1  0
 18 14  1  0
 29 19  1  0
 28 22  1  0
  3 30  1  0
  4 31  1  0
  4 32  1  0
  8 33  1  0
  8 34  1  0
  9 35  1  6
 10 36  1  0
 11 37  1  0
 11 38  1  0
 12 39  1  1
 13 40  1  0
 13 41  1  0
 15 42  1  0
 16 43  1  0
 17 44  1  0
 20 45  1  0
 21 46  1  0
 23 47  1  0
 26 48  1  0
 27 49  1  0
M  END
>  <smiles>  (7) 
O=C(NCC(=O)N1C[C@H](O)C[C@H]1Cn1cccn1)c1ccc2cc(Cl)ccc2n1

>  <score_type>  (7) 
oracle

>  <origin>  (7) 
autodockgpu

>  <m_score__min__energy>  (7) 
-8.6699999999999999

>  <m_primary>  (7) 
energy

>  <rmsd>  (7) 
2.4806669504958556

>  <m_score__min__rmsd>  (7) 
2.4806669504958556

>  <meeko>  (7) 
{"free_energy": -6.7, "intermolecular_energy": -8.79, "internal_energy": -2.44, "cluster_size": 24, "cluster_id": 1, "rank_in_cluster": 24}

>  <energy>  (7) 
-8.14

>  <cluster_rmsd>  (7) 
0.6

>  <cluster>  (7) 
1

$$$$

     RDKit          3D

 49 52  0  0  0  0  0  0  0  0999 V2000
  139.9460   72.2850  220.8660 O   0  0  0  0  0  0  0  0  0  0  0  0
  139.7880   72.7180  222.0360 C   0  0  0  0  0  0  0  0  0  0  0  0
  139.5210   74.0800  222.3410 N   0  0  0  0  0  0  0  0  0  0  0  0
  139.4110   75.0800  221.3000 C   0  0  0  0  0  0  0  0  0  0  0  0
  140.3330   76.2170  221.5520 C   0  0  0  0  0  0  0  0  0  0  0  0
  140.3210   76.6950  222.7230 O   0  0  0  0  0  0  0  0  0  0  0  0
  141.1940   76.7460  220.5260 N   0  0  0  0  0  0  0  0  0  0  0  0
  141.5890   75.9580  219.3850 C   0  0  0  0  0  0  0  0  0  0  0  0
  142.6440   76.8780  218.7650 C   0  0  2  0  0  0  0  0  0  0  0  0
  143.8370   76.6110  219.4380 O   0  0  0  0  0  0  0  0  0  0  0  0
  142.1620   78.2740  219.1320 C   0  0  0  0  0  0  0  0  0  0  0  0
  141.7360   78.0710  220.5420 C   0  0  1  0  0  0  0  0  0  0  0  0
  140.8520   79.1490  221.0820 C   0  0  0  0  0  0  0  0  0  0  0  0
  141.4530   79.8610  222.1930 N   0  0  0  0  0  0  0  0  0  0  0  0
  142.6630   79.5460  222.7460 C   0  0  0  0  0  0  0  0  0  0  0  0
  142.9350   80.4170  223.7810 C   0  0  0  0  0  0  0  0  0  0  0  0
  141.8480   81.2660  223.8290 C   0  0  0  0  0  0  0  0  0  0  0  0
  141.0030   80.8990  222.8760 N   0  0  0  0  0  0  0  0  0  0  0  0
  139.8860   71.7590  223.1560 C   0  0  0  0  0  0  0  0  0  0  0  0
  139.4620   70.4600  223.0070 C   0  0  0  0  0  0  0  0  0  0  0  0
  139.5230   69.5130  224.0070 C   0  0  0  0  0  0  0  0  0  0  0  0
  140.0450   69.9240  225.2190 C   0  0  0  0  0  0  0  0  0  0  0  0
  140.1230   69.0040  226.2440 C   0  0  0  0  0  0  0  0  0  0  0  0
  140.6340   69.3530  227.4720 C   0  0  0  0  0  0  0  0  0  0  0  0
  140.7060   68.1440  228.7310 Cl  0  0  0  0  0  0  0  0  0  0  0  0
  141.0620   70.6460  227.6370 C   0  0  0  0  0  0  0  0  0  0  0  0
  140.9880   71.5800  226.6120 C   0  0  0  0  0  0  0  0  0  0  0  0
  140.4710   71.2350  225.3600 C   0  0  0  0  0  0  0  0  0  0  0  0
  140.3860   72.1120  224.3510 N   0  0  0  0  0  0  0  0  0  0  0  0
  139.3920   74.4260  223.3260 H   0  0  0  0  0  0  0  0  0  0  0  0
  139.6626   74.6209  220.3326 H   0  0  0  0  0  0  0  0  0  0  0  0
  138.3795   75.4620  221.2897 H   0  0  0  0  0  0  0  0  0  0  0  0
  142.0194   74.9920  219.6876 H   0  0  0  0  0  0  0  0  0  0  0  0
  140.7655   75.6830  218.7095 H   0  0  0  0  0  0  0  0  0  0  0  0
  142.7890   76.7579  217.6812 H   0  0  0  0  0  0  0  0  0  0  0  0
  144.0480   77.3700  220.0620 H   0  0  0  0  0  0  0  0  0  0  0  0
  142.9735   79.0130  219.0585 H   0  0  0  0  0  0  0  0  0  0  0  0
  141.3728   78.6667  218.4740 H   0  0  0  0  0  0  0  0  0  0  0  0
  142.5613   78.1530  221.2646 H   0  0  0  0  0  0  0  0  0  0  0  0
  140.6409   79.8676  220.2763 H   0  0  0  0  0  0  0  0  0  0  0  0
  139.9329   78.6710  221.4518 H   0  0  0  0  0  0  0  0  0  0  0  0
  143.3179   78.7257  222.4170 H   0  0  0  0  0  0  0  0  0  0  0  0
  143.8249   80.4315  224.4274 H   0  0  0  0  0  0  0  0  0  0  0  0
  141.7078   82.0994  224.5332 H   0  0  0  0  0  0  0  0  0  0  0  0
  139.0499   70.1584  222.0327 H   0  0  0  0  0  0  0  0  0  0  0  0
  139.1738   68.4821  223.8483 H   0  0  0  0  0  0  0  0  0  0  0  0
  139.7710   67.9754  226.0764 H   0  0  0  0  0  0  0  0  0  0  0  0
  141.4757   70.9517  228.6093 H   0  0  0  0  0  0  0  0  0  0  0  0
  141.3415   72.6067  226.7880 H   0  0  0  0  0  0  0  0  0  0  0  0
  1  2  2  0
  2  3  1  0
  3  4  1  0
  4  5  1  0
  5  6  2  0
  5  7  1  0
  7  8  1  0
  8  9  1  0
  9 10  1  0
  9 11  1  0
 11 12  1  0
 12 13  1  0
 13 14  1  0
 14 15  1  0
 15 16  2  0
 16 17  1  0
 17 18  2  0
  2 19  1  0
 19 20  2  0
 20 21  1  0
 21 22  2  0
 22 23  1  0
 23 24  2  0
 24 25  1  0
 24 26  1  0
 26 27  2  0
 27 28  1  0
 28 29  2  0
 12  7  1  0
 18 14  1  0
 29 19  1  0
 28 22  1  0
  3 30  1  0
  4 31  1  0
  4 32  1  0
  8 33  1  0
  8 34  1  0
  9 35  1  6
 10 36  1  0
 11 37  1  0
 11 38  1  0
 12 39  1  1
 13 40  1  0
 13 41  1  0
 15 42  1  0
 16 43  1  0
 17 44  1  0
 20 45  1  0
 21 46  1  0
 23 47  1  0
 26 48  1  0
 27 49  1  0
M  END
>  <smiles>  (8) 
O=C(NCC(=O)N1C[C@H](O)C[C@H]1Cn1cccn1)c1ccc2cc(Cl)ccc2n1

>  <score_type>  (8) 
oracle

>  <origin>  (8) 
autodockgpu

>  <m_score__min__energy>  (8) 
-8.6699999999999999

>  <m_primary>  (8) 
energy

>  <rmsd>  (8) 
2.0126488157230846

>  <m_score__min__rmsd>  (8) 
2.0126488157230846

>  <meeko>  (8) 
{"free_energy": -8.67, "intermolecular_energy": -10.76, "internal_energy": -1.57, "cluster_size": 24, "cluster_id": 1, "rank_in_cluster": 1}

>  <energy>  (8) 
-8.13

>  <cluster_rmsd>  (8) 
1.09

>  <cluster>  (8) 
1

$$$$

     RDKit          3D

 49 52  0  0  0  0  0  0  0  0999 V2000
  137.2640   71.3710  221.2490 O   0  0  0  0  0  0  0  0  0  0  0  0
  137.2740   71.9010  222.3890 C   0  0  0  0  0  0  0  0  0  0  0  0
  136.7690   73.2020  222.6570 N   0  0  0  0  0  0  0  0  0  0  0  0
  136.1960   74.0200  221.6080 C   0  0  0  0  0  0  0  0  0  0  0  0
  137.2140   74.9340  221.0280 C   0  0  0  0  0  0  0  0  0  0  0  0
  136.7730   75.8730  220.3040 O   0  0  0  0  0  0  0  0  0  0  0  0
  138.6220   74.7660  221.2750 N   0  0  0  0  0  0  0  0  0  0  0  0
  139.3550   73.6370  220.7570 C   0  0  0  0  0  0  0  0  0  0  0  0
  140.6920   73.8170  221.4820 C   0  0  2  0  0  0  0  0  0  0  0  0
  140.5390   73.2190  222.7330 O   0  0  0  0  0  0  0  0  0  0  0  0
  140.8040   75.3250  221.6560 C   0  0  0  0  0  0  0  0  0  0  0  0
  139.4130   75.6750  222.0490 C   0  0  1  0  0  0  0  0  0  0  0  0
  139.0810   77.1260  221.9200 C   0  0  0  0  0  0  0  0  0  0  0  0
  140.0210   77.9800  222.6190 N   0  0  0  0  0  0  0  0  0  0  0  0
  139.6750   79.1130  223.3000 C   0  0  0  0  0  0  0  0  0  0  0  0
  140.8060   79.6850  223.8440 C   0  0  0  0  0  0  0  0  0  0  0  0
  141.8430   78.8570  223.4660 C   0  0  0  0  0  0  0  0  0  0  0  0
  141.3320   77.8680  222.7470 N   0  0  0  0  0  0  0  0  0  0  0  0
  137.8430   71.1290  223.5150 C   0  0  0  0  0  0  0  0  0  0  0  0
  137.2540   69.9600  223.9330 C   0  0  0  0  0  0  0  0  0  0  0  0
  137.7290   69.1910  224.9750 C   0  0  0  0  0  0  0  0  0  0  0  0
  138.8650   69.6480  225.6140 C   0  0  0  0  0  0  0  0  0  0  0  0
  139.3700   68.9050  226.6610 C   0  0  0  0  0  0  0  0  0  0  0  0
  140.4990   69.3070  227.3360 C   0  0  0  0  0  0  0  0  0  0  0  0
  141.0910   68.3250  228.6530 Cl  0  0  0  0  0  0  0  0  0  0  0  0
  141.0990   70.4730  226.9290 C   0  0  0  0  0  0  0  0  0  0  0  0
  140.5980   71.2280  225.8780 C   0  0  0  0  0  0  0  0  0  0  0  0
  139.4530   70.8270  225.1850 C   0  0  0  0  0  0  0  0  0  0  0  0
  138.9450   71.5340  224.1670 N   0  0  0  0  0  0  0  0  0  0  0  0
  136.7860   73.6310  223.6170 H   0  0  0  0  0  0  0  0  0  0  0  0
  135.8064   73.3657  220.8142 H   0  0  0  0  0  0  0  0  0  0  0  0
  135.3865   74.6267  222.0400 H   0  0  0  0  0  0  0  0  0  0  0  0
  138.8740   72.6840  221.0224 H   0  0  0  0  0  0  0  0  0  0  0  0
  139.4290   73.6023  219.6600 H   0  0  0  0  0  0  0  0  0  0  0  0
  141.5646   73.3903  220.9658 H   0  0  0  0  0  0  0  0  0  0  0  0
  139.5820   73.3040  223.0310 H   0  0  0  0  0  0  0  0  0  0  0  0
  141.5239   75.5873  222.4453 H   0  0  0  0  0  0  0  0  0  0  0  0
  141.1683   75.8563  220.7644 H   0  0  0  0  0  0  0  0  0  0  0  0
  139.2189   75.5529  223.1248 H   0  0  0  0  0  0  0  0  0  0  0  0
  139.0874   77.3949  220.8534 H   0  0  0  0  0  0  0  0  0  0  0  0
  138.0908   77.2815  222.3732 H   0  0  0  0  0  0  0  0  0  0  0  0
  138.6530   79.5076  223.3990 H   0  0  0  0  0  0  0  0  0  0  0  0
  140.8679   80.6022  224.4481 H   0  0  0  0  0  0  0  0  0  0  0  0
  142.9053   78.9936  223.7169 H   0  0  0  0  0  0  0  0  0  0  0  0
  136.3512   69.6175  223.4060 H   0  0  0  0  0  0  0  0  0  0  0  0
  137.2283   68.2608  225.2816 H   0  0  0  0  0  0  0  0  0  0  0  0
  138.8618   67.9766  226.9607 H   0  0  0  0  0  0  0  0  0  0  0  0
  142.0032   70.8187  227.4513 H   0  0  0  0  0  0  0  0  0  0  0  0
  141.1103   72.1566  225.5860 H   0  0  0  0  0  0  0  0  0  0  0  0
  1  2  2  0
  2  3  1  0
  3  4  1  0
  4  5  1  0
  5  6  2  0
  5  7  1  0
  7  8  1  0
  8  9  1  0
  9 10  1  0
  9 11  1  0
 11 12  1  0
 12 13  1  0
 13 14  1  0
 14 15  1  0
 15 16  2  0
 16 17  1  0
 17 18  2  0
  2 19  1  0
 19 20  2  0
 20 21  1  0
 21 22  2  0
 22 23  1  0
 23 24  2  0
 24 25  1  0
 24 26  1  0
 26 27  2  0
 27 28  1  0
 28 29  2  0
 12  7  1  0
 18 14  1  0
 29 19  1  0
 28 22  1  0
  3 30  1  0
  4 31  1  0
  4 32  1  0
  8 33  1  0
  8 34  1  0
  9 35  1  6
 10 36  1  0
 11 37  1  0
 11 38  1  0
 12 39  1  1
 13 40  1  0
 13 41  1  0
 15 42  1  0
 16 43  1  0
 17 44  1  0
 20 45  1  0
 21 46  1  0
 23 47  1  0
 26 48  1  0
 27 49  1  0
M  END
>  <smiles>  (9) 
O=C(NCC(=O)N1C[C@H](O)C[C@H]1Cn1cccn1)c1ccc2cc(Cl)ccc2n1

>  <score_type>  (9) 
oracle

>  <origin>  (9) 
autodockgpu

>  <m_score__min__energy>  (9) 
-8.6699999999999999

>  <m_primary>  (9) 
energy

>  <rmsd>  (9) 
2.5749907235220952

>  <m_score__min__rmsd>  (9) 
2.5749907235220952

>  <meeko>  (9) 
{"free_energy": -7.38, "intermolecular_energy": -9.47, "internal_energy": -2.16, "cluster_size": 6, "cluster_id": 2, "rank_in_cluster": 1}

>  <energy>  (9) 
-8.11

>  <cluster_rmsd>  (9) 
1.15

>  <cluster>  (9) 
1

$$$$

     RDKit          3D

 49 52  0  0  0  0  0  0  0  0999 V2000
  142.3200   80.1280  219.6460 O   0  0  0  0  0  0  0  0  0  0  0  0
  141.5510   79.1440  219.5000 C   0  0  0  0  0  0  0  0  0  0  0  0
  140.1440   79.2090  219.6870 N   0  0  0  0  0  0  0  0  0  0  0  0
  139.4890   80.4430  220.0660 C   0  0  0  0  0  0  0  0  0  0  0  0
  139.5050   80.6250  221.5390 C   0  0  0  0  0  0  0  0  0  0  0  0
  138.4870   81.1840  222.0440 O   0  0  0  0  0  0  0  0  0  0  0  0
  140.6120   80.1920  222.3520 N   0  0  0  0  0  0  0  0  0  0  0  0
  141.4700   81.1310  223.0310 C   0  0  0  0  0  0  0  0  0  0  0  0
  142.5710   80.1910  223.5290 C   0  0  2  0  0  0  0  0  0  0  0  0
  143.4670   80.0460  222.4700 O   0  0  0  0  0  0  0  0  0  0  0  0
  141.8420   78.8740  223.7550 C   0  0  0  0  0  0  0  0  0  0  0  0
  140.9670   78.8190  222.5540 C   0  0  1  0  0  0  0  0  0  0  0  0
  139.8380   77.8450  222.6550 C   0  0  0  0  0  0  0  0  0  0  0  0
  139.9760   76.7300  221.7380 N   0  0  0  0  0  0  0  0  0  0  0  0
  140.8200   75.6730  221.9330 C   0  0  0  0  0  0  0  0  0  0  0  0
  140.7060   74.7950  220.8750 C   0  0  0  0  0  0  0  0  0  0  0  0
  139.7650   75.3610  220.0390 C   0  0  0  0  0  0  0  0  0  0  0  0
  139.3650   76.4980  220.5890 N   0  0  0  0  0  0  0  0  0  0  0  0
  142.1440   77.8450  219.1140 C   0  0  0  0  0  0  0  0  0  0  0  0
  141.9360   77.3240  217.8590 C   0  0  0  0  0  0  0  0  0  0  0  0
  142.4560   76.1210  217.4320 C   0  0  0  0  0  0  0  0  0  0  0  0
  143.2280   75.4220  218.3390 C   0  0  0  0  0  0  0  0  0  0  0  0
  143.7660   74.2140  217.9480 C   0  0  0  0  0  0  0  0  0  0  0  0
  144.5440   73.4720  218.8070 C   0  0  0  0  0  0  0  0  0  0  0  0
  145.1970   71.9510  218.2530 Cl  0  0  0  0  0  0  0  0  0  0  0  0
  144.7620   73.9800  220.0630 C   0  0  0  0  0  0  0  0  0  0  0  0
  144.2240   75.1950  220.4670 C   0  0  0  0  0  0  0  0  0  0  0  0
  143.4340   75.9560  219.6020 C   0  0  0  0  0  0  0  0  0  0  0  0
  142.9010   77.1310  219.9620 N   0  0  0  0  0  0  0  0  0  0  0  0
  139.5160   78.3750  219.5610 H   0  0  0  0  0  0  0  0  0  0  0  0
  140.0124   81.2874  219.5938 H   0  0  0  0  0  0  0  0  0  0  0  0
  138.4424   80.4008  219.7302 H   0  0  0  0  0  0  0  0  0  0  0  0
  141.8660   81.8915  222.3419 H   0  0  0  0  0  0  0  0  0  0  0  0
  140.9756   81.7172  223.8196 H   0  0  0  0  0  0  0  0  0  0  0  0
  143.1048   80.5322  224.4283 H   0  0  0  0  0  0  0  0  0  0  0  0
  142.9750   79.7220  221.6550 H   0  0  0  0  0  0  0  0  0  0  0  0
  142.5416   78.0256  223.7834 H   0  0  0  0  0  0  0  0  0  0  0  0
  141.3010   78.8155  224.7110 H   0  0  0  0  0  0  0  0  0  0  0  0
  141.4680   78.4038  221.6671 H   0  0  0  0  0  0  0  0  0  0  0  0
  139.8022   77.4533  223.6823 H   0  0  0  0  0  0  0  0  0  0  0  0
  138.9137   78.3797  222.3907 H   0  0  0  0  0  0  0  0  0  0  0  0
  141.4863   75.5426  222.7985 H   0  0  0  0  0  0  0  0  0  0  0  0
  141.2477   73.8488  220.7293 H   0  0  0  0  0  0  0  0  0  0  0  0
  139.4102   74.9425  219.0856 H   0  0  0  0  0  0  0  0  0  0  0  0
  141.3187   77.9007  217.1545 H   0  0  0  0  0  0  0  0  0  0  0  0
  142.2655   75.7368  216.4190 H   0  0  0  0  0  0  0  0  0  0  0  0
  143.5701   73.8375  216.9332 H   0  0  0  0  0  0  0  0  0  0  0  0
  145.3808   73.4083  220.7703 H   0  0  0  0  0  0  0  0  0  0  0  0
  144.4231   75.5638  221.4840 H   0  0  0  0  0  0  0  0  0  0  0  0
  1  2  2  0
  2  3  1  0
  3  4  1  0
  4  5  1  0
  5  6  2  0
  5  7  1  0
  7  8  1  0
  8  9  1  0
  9 10  1  0
  9 11  1  0
 11 12  1  0
 12 13  1  0
 13 14  1  0
 14 15  1  0
 15 16  2  0
 16 17  1  0
 17 18  2  0
  2 19  1  0
 19 20  2  0
 20 21  1  0
 21 22  2  0
 22 23  1  0
 23 24  2  0
 24 25  1  0
 24 26  1  0
 26 27  2  0
 27 28  1  0
 28 29  2  0
 12  7  1  0
 18 14  1  0
 29 19  1  0
 28 22  1  0
  3 30  1  0
  4 31  1  0
  4 32  1  0
  8 33  1  0
  8 34  1  0
  9 35  1  1
 10 36  1  0
 11 37  1  0
 11 38  1  0
 12 39  1  6
 13 40  1  0
 13 41  1  0
 15 42  1  0
 16 43  1  0
 17 44  1  0
 20 45  1  0
 21 46  1  0
 23 47  1  0
 26 48  1  0
 27 49  1  0
M  END
>  <smiles>  (10) 
O=C(NCC(=O)N1C[C@H](O)C[C@H]1Cn1cccn1)c1ccc2cc(Cl)ccc2n1

>  <score_type>  (10) 
oracle

>  <origin>  (10) 
autodockgpu

>  <m_score__min__energy>  (10) 
-8.6699999999999999

>  <m_primary>  (10) 
energy

>  <rmsd>  (10) 
7.959017057609867

>  <m_score__min__rmsd>  (10) 
7.959017057609867

>  <meeko>  (10) 
{"free_energy": -5.01, "intermolecular_energy": -7.09, "internal_energy": -4.12, "cluster_size": 3, "cluster_id": 9, "rank_in_cluster": 3}

>  <energy>  (10) 
-7.7

>  <cluster_rmsd>  (10) 
1.08

>  <cluster>  (10) 
1

$$$$

     RDKit          3D

 49 52  0  0  0  0  0  0  0  0999 V2000
  139.4290   71.6840  220.7170 O   0  0  0  0  0  0  0  0  0  0  0  0
  138.6550   71.6240  221.7060 C   0  0  0  0  0  0  0  0  0  0  0  0
  137.2830   71.9910  221.6550 N   0  0  0  0  0  0  0  0  0  0  0  0
  136.6740   72.4700  220.4300 C   0  0  0  0  0  0  0  0  0  0  0  0
  137.3480   73.7010  219.9460 C   0  0  0  0  0  0  0  0  0  0  0  0
  137.0350   74.0880  218.7820 O   0  0  0  0  0  0  0  0  0  0  0  0
  138.3020   74.4180  220.7510 N   0  0  0  0  0  0  0  0  0  0  0  0
  139.6380   74.6910  220.2830 C   0  0  0  0  0  0  0  0  0  0  0  0
  140.2740   75.2410  221.5630 C   0  0  2  0  0  0  0  0  0  0  0  0
  140.6930   74.1310  222.2960 O   0  0  0  0  0  0  0  0  0  0  0  0
  139.1110   75.9090  222.2810 C   0  0  0  0  0  0  0  0  0  0  0  0
  138.0280   74.9120  222.0670 C   0  0  1  0  0  0  0  0  0  0  0  0
  136.6500   75.4340  222.3120 C   0  0  0  0  0  0  0  0  0  0  0  0
  135.9710   74.7400  223.3880 N   0  0  0  0  0  0  0  0  0  0  0  0
  135.4530   75.3530  224.4950 C   0  0  0  0  0  0  0  0  0  0  0  0
  134.8790   74.4050  225.3170 C   0  0  0  0  0  0  0  0  0  0  0  0
  135.0700   73.2030  224.6660 C   0  0  0  0  0  0  0  0  0  0  0  0
  135.7160   73.4510  223.5370 N   0  0  0  0  0  0  0  0  0  0  0  0
  139.2000   71.1450  222.9940 C   0  0  0  0  0  0  0  0  0  0  0  0
  140.1310   71.8870  223.6810 C   0  0  0  0  0  0  0  0  0  0  0  0
  140.6830   71.5030  224.8850 C   0  0  0  0  0  0  0  0  0  0  0  0
  140.2530   70.2980  225.4060 C   0  0  0  0  0  0  0  0  0  0  0  0
  140.7820   69.8800  226.6100 C   0  0  0  0  0  0  0  0  0  0  0  0
  140.3930   68.6900  227.1810 C   0  0  0  0  0  0  0  0  0  0  0  0
  141.0980   68.2150  228.7060 Cl  0  0  0  0  0  0  0  0  0  0  0  0
  139.4630   67.9390  226.5070 C   0  0  0  0  0  0  0  0  0  0  0  0
  138.9250   68.3500  225.2950 C   0  0  0  0  0  0  0  0  0  0  0  0
  139.3120   69.5570  224.7080 C   0  0  0  0  0  0  0  0  0  0  0  0
  138.8130   69.9810  223.5400 N   0  0  0  0  0  0  0  0  0  0  0  0
  136.6490   71.9360  222.4920 H   0  0  0  0  0  0  0  0  0  0  0  0
  136.7544   71.6893  219.6593 H   0  0  0  0  0  0  0  0  0  0  0  0
  135.6186   72.7051  220.6323 H   0  0  0  0  0  0  0  0  0  0  0  0
  140.1429   73.7762  219.9391 H   0  0  0  0  0  0  0  0  0  0  0  0
  139.6916   75.3671  219.4170 H   0  0  0  0  0  0  0  0  0  0  0  0
  141.1185   75.9286  221.4077 H   0  0  0  0  0  0  0  0  0  0  0  0
  140.4310   73.2890  221.8120 H   0  0  0  0  0  0  0  0  0  0  0  0
  139.3246   76.0487  223.3510 H   0  0  0  0  0  0  0  0  0  0  0  0
  138.8740   76.9186  221.9142 H   0  0  0  0  0  0  0  0  0  0  0  0
  138.0318   74.0967  222.8054 H   0  0  0  0  0  0  0  0  0  0  0  0
  136.7188   76.5011  222.5700 H   0  0  0  0  0  0  0  0  0  0  0  0
  136.0663   75.2738  221.3935 H   0  0  0  0  0  0  0  0  0  0  0  0
  135.4884   76.4334  224.6985 H   0  0  0  0  0  0  0  0  0  0  0  0
  134.3778   74.5712  226.2820 H   0  0  0  0  0  0  0  0  0  0  0  0
  134.7436   72.2146  225.0218 H   0  0  0  0  0  0  0  0  0  0  0  0
  140.4548   72.8435  223.2447 H   0  0  0  0  0  0  0  0  0  0  0  0
  141.4276   72.1244  225.4040 H   0  0  0  0  0  0  0  0  0  0  0  0
  141.5264   70.5080  227.1214 H   0  0  0  0  0  0  0  0  0  0  0  0
  139.1340   66.9828  226.9400 H   0  0  0  0  0  0  0  0  0  0  0  0
  138.1825   67.7154  224.7891 H   0  0  0  0  0  0  0  0  0  0  0  0
  1  2  2  0
  2  3  1  0
  3  4  1  0
  4  5  1  0
  5  6  2  0
  5  7  1  0
  7  8  1  0
  8  9  1  0
  9 10  1  0
  9 11  1  0
 11 12  1  0
 12 13  1  0
 13 14  1  0
 14 15  1  0
 15 16  2  0
 16 17  1  0
 17 18  2  0
  2 19  1  0
 19 20  2  0
 20 21  1  0
 21 22  2  0
 22 23  1  0
 23 24  2  0
 24 25  1  0
 24 26  1  0
 26 27  2  0
 27 28  1  0
 28 29  2  0
 12  7  1  0
 18 14  1  0
 29 19  1  0
 28 22  1  0
  3 30  1  0
  4 31  1  0
  4 32  1  0
  8 33  1  0
  8 34  1  0
  9 35  1  6
 10 36  1  0
 11 37  1  0
 11 38  1  0
 12 39  1  1
 13 40  1  0
 13 41  1  0
 15 42  1  0
 16 43  1  0
 17 44  1  0
 20 45  1  0
 21 46  1  0
 23 47  1  0
 26 48  1  0
 27 49  1  0
M  END
>  <smiles>  (11) 
O=C(NCC(=O)N1C[C@H](O)C[C@H]1Cn1cccn1)c1ccc2cc(Cl)ccc2n1

>  <score_type>  (11) 
oracle

>  <origin>  (11) 
autodockgpu

>  <m_score__min__energy>  (11) 
-8.6699999999999999

>  <m_primary>  (11) 
energy

>  <rmsd>  (11) 
4.600985768186569

>  <m_score__min__rmsd>  (11) 
4.600985768186569

>  <meeko>  (11) 
{"free_energy": -5.75, "intermolecular_energy": -7.84, "internal_energy": -3.23, "cluster_size": 10, "cluster_id": 6, "rank_in_cluster": 3}

>  <energy>  (11) 
-7.66

>  <cluster_rmsd>  (11) 
1.04

>  <cluster>  (11) 
1

$$$$

     RDKit          3D

 49 52  0  0  0  0  0  0  0  0999 V2000
  142.5510   80.2370  219.6290 O   0  0  0  0  0  0  0  0  0  0  0  0
  141.7880   79.2580  219.4210 C   0  0  0  0  0  0  0  0  0  0  0  0
  140.3750   79.3190  219.5550 N   0  0  0  0  0  0  0  0  0  0  0  0
  139.7060   80.5420  219.9470 C   0  0  0  0  0  0  0  0  0  0  0  0
  139.5980   80.6410  221.4250 C   0  0  0  0  0  0  0  0  0  0  0  0
  138.5070   81.0970  221.8760 O   0  0  0  0  0  0  0  0  0  0  0  0
  140.6700   80.2410  222.2980 N   0  0  0  0  0  0  0  0  0  0  0  0
  141.5160   81.2070  222.9550 C   0  0  0  0  0  0  0  0  0  0  0  0
  142.5870   80.2840  223.5430 C   0  0  2  0  0  0  0  0  0  0  0  0
  143.5180   80.0720  222.5250 O   0  0  0  0  0  0  0  0  0  0  0  0
  141.8350   78.9900  223.8140 C   0  0  0  0  0  0  0  0  0  0  0  0
  141.0010   78.8780  222.5870 C   0  0  1  0  0  0  0  0  0  0  0  0
  139.8570   77.9230  222.7020 C   0  0  0  0  0  0  0  0  0  0  0  0
  139.9370   76.8370  221.7450 N   0  0  0  0  0  0  0  0  0  0  0  0
  140.6160   75.6700  221.9600 C   0  0  0  0  0  0  0  0  0  0  0  0
  140.4910   74.8560  220.8520 C   0  0  0  0  0  0  0  0  0  0  0  0
  139.7130   75.5750  219.9670 C   0  0  0  0  0  0  0  0  0  0  0  0
  139.4130   76.7330  220.5370 N   0  0  0  0  0  0  0  0  0  0  0  0
  142.3950   77.9720  219.0170 C   0  0  0  0  0  0  0  0  0  0  0  0
  142.5840   77.6710  217.6890 C   0  0  0  0  0  0  0  0  0  0  0  0
  143.1420   76.4930  217.2410 C   0  0  0  0  0  0  0  0  0  0  0  0
  143.5250   75.5820  218.2060 C   0  0  0  0  0  0  0  0  0  0  0  0
  144.0880   74.3920  217.7950 C   0  0  0  0  0  0  0  0  0  0  0  0
  144.4900   73.4450  218.7100 C   0  0  0  0  0  0  0  0  0  0  0  0
  145.1960   71.9570  218.1290 Cl  0  0  0  0  0  0  0  0  0  0  0  0
  144.3090   73.7310  220.0390 C   0  0  0  0  0  0  0  0  0  0  0  0
  143.7430   74.9260  220.4630 C   0  0  0  0  0  0  0  0  0  0  0  0
  143.3320   75.8940  219.5430 C   0  0  0  0  0  0  0  0  0  0  0  0
  142.7830   77.0560  219.9190 N   0  0  0  0  0  0  0  0  0  0  0  0
  139.7520   78.4910  219.3780 H   0  0  0  0  0  0  0  0  0  0  0  0
  140.2791   81.4019  219.5701 H   0  0  0  0  0  0  0  0  0  0  0  0
  138.6916   80.5377  219.5216 H   0  0  0  0  0  0  0  0  0  0  0  0
  141.9456   81.9239  222.2398 H   0  0  0  0  0  0  0  0  0  0  0  0
  141.0018   81.8411  223.6922 H   0  0  0  0  0  0  0  0  0  0  0  0
  143.0929   80.6680  224.4411 H   0  0  0  0  0  0  0  0  0  0  0  0
  143.0390   79.8120  221.6800 H   0  0  0  0  0  0  0  0  0  0  0  0
  142.5228   78.1373  223.9131 H   0  0  0  0  0  0  0  0  0  0  0  0
  141.2604   78.9897  224.7520 H   0  0  0  0  0  0  0  0  0  0  0  0
  141.5273   78.4095  221.7423 H   0  0  0  0  0  0  0  0  0  0  0  0
  139.8535   77.4984  223.7167 H   0  0  0  0  0  0  0  0  0  0  0  0
  138.9339   78.4833  222.4926 H   0  0  0  0  0  0  0  0  0  0  0  0
  141.1749   75.4188  222.8735 H   0  0  0  0  0  0  0  0  0  0  0  0
  140.9183   73.8529  220.7062 H   0  0  0  0  0  0  0  0  0  0  0  0
  139.3979   75.2451  218.9660 H   0  0  0  0  0  0  0  0  0  0  0  0
  142.2716   78.4137  216.9401 H   0  0  0  0  0  0  0  0  0  0  0  0
  143.2756   76.2886  216.1685 H   0  0  0  0  0  0  0  0  0  0  0  0
  144.2178   74.1966  216.7203 H   0  0  0  0  0  0  0  0  0  0  0  0
  144.6215   72.9919  220.7914 H   0  0  0  0  0  0  0  0  0  0  0  0
  143.6163   75.1134  221.5395 H   0  0  0  0  0  0  0  0  0  0  0  0
  1  2  2  0
  2  3  1  0
  3  4  1  0
  4  5  1  0
  5  6  2  0
  5  7  1  0
  7  8  1  0
  8  9  1  0
  9 10  1  0
  9 11  1  0
 11 12  1  0
 12 13  1  0
 13 14  1  0
 14 15  1  0
 15 16  2  0
 16 17  1  0
 17 18  2  0
  2 19  1  0
 19 20  2  0
 20 21  1  0
 21 22  2  0
 22 23  1  0
 23 24  2  0
 24 25  1  0
 24 26  1  0
 26 27  2  0
 27 28  1  0
 28 29  2  0
 12  7  1  0
 18 14  1  0
 29 19  1  0
 28 22  1  0
  3 30  1  0
  4 31  1  0
  4 32  1  0
  8 33  1  0
  8 34  1  0
  9 35  1  1
 10 36  1  0
 11 37  1  0
 11 38  1  0
 12 39  1  6
 13 40  1  0
 13 41  1  0
 15 42  1  0
 16 43  1  0
 17 44  1  0
 20 45  1  0
 21 46  1  0
 23 47  1  0
 26 48  1  0
 27 49  1  0
M  END
>  <smiles>  (12) 
O=C(NCC(=O)N1C[C@H](O)C[C@H]1Cn1cccn1)c1ccc2cc(Cl)ccc2n1

>  <score_type>  (12) 
oracle

>  <origin>  (12) 
autodockgpu

>  <m_score__min__energy>  (12) 
-8.6699999999999999

>  <m_primary>  (12) 
energy

>  <rmsd>  (12) 
8.095657462249994

>  <m_score__min__rmsd>  (12) 
8.095657462249994

>  <meeko>  (12) 
{"free_energy": -5.25, "intermolecular_energy": -7.34, "internal_energy": -4.06, "cluster_size": 3, "cluster_id": 9, "rank_in_cluster": 1}

>  <energy>  (12) 
-7.52

>  <cluster_rmsd>  (12) 
1.16

>  <cluster>  (12) 
1

$$$$

     RDKit          3D

 49 52  0  0  0  0  0  0  0  0999 V2000
  138.1850   72.3170  220.9040 O   0  0  0  0  0  0  0  0  0  0  0  0
  137.8110   72.5920  222.0730 C   0  0  0  0  0  0  0  0  0  0  0  0
  136.9890   73.7050  222.3950 N   0  0  0  0  0  0  0  0  0  0  0  0
  136.5160   74.6160  221.3730 C   0  0  0  0  0  0  0  0  0  0  0  0
  137.5280   75.6620  221.0810 C   0  0  0  0  0  0  0  0  0  0  0  0
  137.0840   76.7590  220.6340 O   0  0  0  0  0  0  0  0  0  0  0  0
  138.9360   75.4450  221.2940 N   0  0  0  0  0  0  0  0  0  0  0  0
  139.7070   74.5710  220.4450 C   0  0  0  0  0  0  0  0  0  0  0  0
  141.0250   74.5200  221.2230 C   0  0  2  0  0  0  0  0  0  0  0  0
  140.8640   73.5320  222.1950 O   0  0  0  0  0  0  0  0  0  0  0  0
  141.0950   75.8820  221.8970 C   0  0  0  0  0  0  0  0  0  0  0  0
  139.6890   76.0550  222.3490 C   0  0  1  0  0  0  0  0  0  0  0  0
  139.3220   77.4580  222.7070 C   0  0  0  0  0  0  0  0  0  0  0  0
  140.4720   78.3380  222.7710 N   0  0  0  0  0  0  0  0  0  0  0  0
  140.8860   79.1400  221.7440 C   0  0  0  0  0  0  0  0  0  0  0  0
  142.0060   79.8440  222.1360 C   0  0  0  0  0  0  0  0  0  0  0  0
  142.2490   79.4370  223.4320 C   0  0  0  0  0  0  0  0  0  0  0  0
  141.3210   78.5520  223.7610 N   0  0  0  0  0  0  0  0  0  0  0  0
  138.2530   71.7090  223.1740 C   0  0  0  0  0  0  0  0  0  0  0  0
  137.4560   70.6770  223.6090 C   0  0  0  0  0  0  0  0  0  0  0  0
  137.8030   69.8170  224.6290 C   0  0  0  0  0  0  0  0  0  0  0  0
  139.0290   70.0300  225.2290 C   0  0  0  0  0  0  0  0  0  0  0  0
  139.4110   69.1890  226.2530 C   0  0  0  0  0  0  0  0  0  0  0  0
  140.6210   69.3500  226.8900 C   0  0  0  0  0  0  0  0  0  0  0  0
  141.0480   68.2550  228.1800 Cl  0  0  0  0  0  0  0  0  0  0  0  0
  141.4270   70.3770  226.4660 C   0  0  0  0  0  0  0  0  0  0  0  0
  141.0520   71.2290  225.4370 C   0  0  0  0  0  0  0  0  0  0  0  0
  139.8260   71.0730  224.7840 C   0  0  0  0  0  0  0  0  0  0  0  0
  139.4350   71.8780  223.7870 N   0  0  0  0  0  0  0  0  0  0  0  0
  136.6870   73.9210  223.3790 H   0  0  0  0  0  0  0  0  0  0  0  0
  136.3097   74.0487  220.4534 H   0  0  0  0  0  0  0  0  0  0  0  0
  135.6013   75.1063  221.7376 H   0  0  0  0  0  0  0  0  0  0  0  0
  139.2461   73.5758  220.3608 H   0  0  0  0  0  0  0  0  0  0  0  0
  139.8020   74.9100  219.4029 H   0  0  0  0  0  0  0  0  0  0  0  0
  141.9180   74.3083  220.6166 H   0  0  0  0  0  0  0  0  0  0  0  0
  140.0140   73.0240  222.0200 H   0  0  0  0  0  0  0  0  0  0  0  0
  141.7934   75.8755  222.7468 H   0  0  0  0  0  0  0  0  0  0  0  0
  141.4617   76.6890  221.2457 H   0  0  0  0  0  0  0  0  0  0  0  0
  139.4785   75.5753  223.3163 H   0  0  0  0  0  0  0  0  0  0  0  0
  138.6253   77.8440  221.9483 H   0  0  0  0  0  0  0  0  0  0  0  0
  138.8638   77.4368  223.7068 H   0  0  0  0  0  0  0  0  0  0  0  0
  140.4018   79.2126  220.7590 H   0  0  0  0  0  0  0  0  0  0  0  0
  142.5805   80.5717  221.5440 H   0  0  0  0  0  0  0  0  0  0  0  0
  143.0685   79.7861  224.0774 H   0  0  0  0  0  0  0  0  0  0  0  0
  136.4847   70.5287  223.1144 H   0  0  0  0  0  0  0  0  0  0  0  0
  137.1371   69.0021  224.9491 H   0  0  0  0  0  0  0  0  0  0  0  0
  138.7384   68.3768  226.5658 H   0  0  0  0  0  0  0  0  0  0  0  0
  142.3996   70.5292  226.9568 H   0  0  0  0  0  0  0  0  0  0  0  0
  141.7297   72.0394  225.1305 H   0  0  0  0  0  0  0  0  0  0  0  0
  1  2  2  0
  2  3  1  0
  3  4  1  0
  4  5  1  0
  5  6  2  0
  5  7  1  0
  7  8  1  0
  8  9  1  0
  9 10  1  0
  9 11  1  0
 11 12  1  0
 12 13  1  0
 13 14  1  0
 14 15  1  0
 15 16  2  0
 16 17  1  0
 17 18  2  0
  2 19  1  0
 19 20  2  0
 20 21  1  0
 21 22  2  0
 22 23  1  0
 23 24  2  0
 24 25  1  0
 24 26  1  0
 26 27  2  0
 27 28  1  0
 28 29  2  0
 12  7  1  0
 18 14  1  0
 29 19  1  0
 28 22  1  0
  3 30  1  0
  4 31  1  0
  4 32  1  0
  8 33  1  0
  8 34  1  0
  9 35  1  6
 10 36  1  0
 11 37  1  0
 11 38  1  0
 12 39  1  1
 13 40  1  0
 13 41  1  0
 15 42  1  0
 16 43  1  0
 17 44  1  0
 20 45  1  0
 21 46  1  0
 23 47  1  0
 26 48  1  0
 27 49  1  0
M  END
>  <smiles>  (13) 
O=C(NCC(=O)N1C[C@H](O)C[C@H]1Cn1cccn1)c1ccc2cc(Cl)ccc2n1

>  <score_type>  (13) 
oracle

>  <origin>  (13) 
autodockgpu

>  <m_score__min__energy>  (13) 
-8.6699999999999999

>  <m_primary>  (13) 
energy

>  <rmsd>  (13) 
2.5141405611636194

>  <m_score__min__rmsd>  (13) 
2.5141405611636194

>  <meeko>  (13) 
{"free_energy": -6.83, "intermolecular_energy": -8.91, "internal_energy": -2.75, "cluster_size": 24, "cluster_id": 1, "rank_in_cluster": 23}

>  <energy>  (13) 
-7.36

>  <cluster_rmsd>  (13) 
1.98

>  <cluster>  (13) 
1

$$$$

     RDKit          3D

 49 52  0  0  0  0  0  0  0  0999 V2000
  138.6950   72.2420  220.8060 O   0  0  0  0  0  0  0  0  0  0  0  0
  139.5130   72.5390  221.7140 C   0  0  0  0  0  0  0  0  0  0  0  0
  140.3950   73.6510  221.6460 N   0  0  0  0  0  0  0  0  0  0  0  0
  140.4070   74.5370  220.5000 C   0  0  0  0  0  0  0  0  0  0  0  0
  141.6200   75.3920  220.5000 C   0  0  0  0  0  0  0  0  0  0  0  0
  142.6270   74.9320  221.1130 O   0  0  0  0  0  0  0  0  0  0  0  0
  141.6540   76.6720  219.8410 N   0  0  0  0  0  0  0  0  0  0  0  0
  141.5020   76.7950  218.4130 C   0  0  0  0  0  0  0  0  0  0  0  0
  141.8410   78.2770  218.2240 C   0  0  2  0  0  0  0  0  0  0  0  0
  143.2320   78.3490  218.1420 O   0  0  0  0  0  0  0  0  0  0  0  0
  141.3810   78.9170  219.5250 C   0  0  0  0  0  0  0  0  0  0  0  0
  141.8480   77.9170  220.5220 C   0  0  1  0  0  0  0  0  0  0  0  0
  141.2180   78.0470  221.8700 C   0  0  0  0  0  0  0  0  0  0  0  0
  141.7190   79.1850  222.6150 N   0  0  0  0  0  0  0  0  0  0  0  0
  140.9670   80.2750  222.9560 C   0  0  0  0  0  0  0  0  0  0  0  0
  141.7490   81.1700  223.6570 C   0  0  0  0  0  0  0  0  0  0  0  0
  142.9950   80.5800  223.7260 C   0  0  0  0  0  0  0  0  0  0  0  0
  142.9280   79.4150  223.0990 N   0  0  0  0  0  0  0  0  0  0  0  0
  139.5630   71.6830  222.9180 C   0  0  0  0  0  0  0  0  0  0  0  0
  138.8620   70.5010  222.9690 C   0  0  0  0  0  0  0  0  0  0  0  0
  138.8620   69.6550  224.0580 C   0  0  0  0  0  0  0  0  0  0  0  0
  139.6200   70.0440  225.1450 C   0  0  0  0  0  0  0  0  0  0  0  0
  139.6440   69.2230  226.2530 C   0  0  0  0  0  0  0  0  0  0  0  0
  140.3810   69.5560  227.3670 C   0  0  0  0  0  0  0  0  0  0  0  0
  140.3720   68.4760  228.7380 Cl  0  0  0  0  0  0  0  0  0  0  0  0
  141.0860   70.7330  227.3310 C   0  0  0  0  0  0  0  0  0  0  0  0
  141.0680   71.5670  226.2210 C   0  0  0  0  0  0  0  0  0  0  0  0
  140.3240   71.2370  225.0850 C   0  0  0  0  0  0  0  0  0  0  0  0
  140.2850   72.0190  223.9990 N   0  0  0  0  0  0  0  0  0  0  0  0
  141.0740   73.8840  222.4140 H   0  0  0  0  0  0  0  0  0  0  0  0
  140.3917   73.9346  219.5797 H   0  0  0  0  0  0  0  0  0  0  0  0
  139.5209   75.1868  220.5507 H   0  0  0  0  0  0  0  0  0  0  0  0
  142.2055   76.1451  217.8720 H   0  0  0  0  0  0  0  0  0  0  0  0
  140.5149   76.4975  218.0293 H   0  0  0  0  0  0  0  0  0  0  0  0
  141.3871   78.7518  217.3417 H   0  0  0  0  0  0  0  0  0  0  0  0
  143.6370   78.0170  219.0000 H   0  0  0  0  0  0  0  0  0  0  0  0
  141.8573   79.8959  219.6828 H   0  0  0  0  0  0  0  0  0  0  0  0
  140.3019   79.1260  219.5676 H   0  0  0  0  0  0  0  0  0  0  0  0
  142.8997   78.0496  220.8157 H   0  0  0  0  0  0  0  0  0  0  0  0
  140.1316   78.1617  221.7410 H   0  0  0  0  0  0  0  0  0  0  0  0
  141.4668   77.1406  222.4414 H   0  0  0  0  0  0  0  0  0  0  0  0
  139.9043   80.4163  222.7098 H   0  0  0  0  0  0  0  0  0  0  0  0
  141.4453   82.1428  224.0711 H   0  0  0  0  0  0  0  0  0  0  0  0
  143.8854   81.0022  224.2148 H   0  0  0  0  0  0  0  0  0  0  0  0
  138.2666   70.2136  222.0899 H   0  0  0  0  0  0  0  0  0  0  0  0
  138.2870   68.7172  224.0608 H   0  0  0  0  0  0  0  0  0  0  0  0
  139.0652   68.2876  226.2464 H   0  0  0  0  0  0  0  0  0  0  0  0
  141.6831   71.0243  228.2077 H   0  0  0  0  0  0  0  0  0  0  0  0
  141.6481   72.5015  226.2360 H   0  0  0  0  0  0  0  0  0  0  0  0
  1  2  2  0
  2  3  1  0
  3  4  1  0
  4  5  1  0
  5  6  2  0
  5  7  1  0
  7  8  1  0
  8  9  1  0
  9 10  1  0
  9 11  1  0
 11 12  1  0
 12 13  1  0
 13 14  1  0
 14 15  1  0
 15 16  2  0
 16 17  1  0
 17 18  2  0
  2 19  1  0
 19 20  2  0
 20 21  1  0
 21 22  2  0
 22 23  1  0
 23 24  2  0
 24 25  1  0
 24 26  1  0
 26 27  2  0
 27 28  1  0
 28 29  2  0
 12  7  1  0
 18 14  1  0
 29 19  1  0
 28 22  1  0
  3 30  1  0
  4 31  1  0
  4 32  1  0
  8 33  1  0
  8 34  1  0
  9 35  1  6
 10 36  1  0
 11 37  1  0
 11 38  1  0
 12 39  1  1
 13 40  1  0
 13 41  1  0
 15 42  1  0
 16 43  1  0
 17 44  1  0
 20 45  1  0
 21 46  1  0
 23 47  1  0
 26 48  1  0
 27 49  1  0
M  END
>  <smiles>  (14) 
O=C(NCC(=O)N1C[C@H](O)C[C@H]1Cn1cccn1)c1ccc2cc(Cl)ccc2n1

>  <score_type>  (14) 
oracle

>  <origin>  (14) 
autodockgpu

>  <m_score__min__energy>  (14) 
-8.6699999999999999

>  <m_primary>  (14) 
energy

>  <rmsd>  (14) 
2.1202965211228757

>  <m_score__min__rmsd>  (14) 
2.1202965211228757

>  <meeko>  (14) 
{"free_energy": -7.34, "intermolecular_energy": -9.42, "internal_energy": -1.81, "cluster_size": 24, "cluster_id": 1, "rank_in_cluster": 15}

>  <energy>  (14) 
-7.34

>  <cluster_rmsd>  (14) 
1.93

>  <cluster>  (14) 
1

$$$$

     RDKit          3D

 49 52  0  0  0  0  0  0  0  0999 V2000
  139.7860   71.9640  220.7300 O   0  0  0  0  0  0  0  0  0  0  0  0
  139.7420   72.4570  221.8860 C   0  0  0  0  0  0  0  0  0  0  0  0
  139.6010   73.8470  222.1440 N   0  0  0  0  0  0  0  0  0  0  0  0
  139.4940   74.8080  221.0660 C   0  0  0  0  0  0  0  0  0  0  0  0
  140.3750   75.9790  221.3060 C   0  0  0  0  0  0  0  0  0  0  0  0
  140.3880   76.4360  222.4850 O   0  0  0  0  0  0  0  0  0  0  0  0
  141.1730   76.5630  220.2590 N   0  0  0  0  0  0  0  0  0  0  0  0
  141.5040   75.8340  219.0590 C   0  0  0  0  0  0  0  0  0  0  0  0
  142.5180   76.7900  218.4250 C   0  0  2  0  0  0  0  0  0  0  0  0
  143.7490   76.4980  219.0140 O   0  0  0  0  0  0  0  0  0  0  0  0
  142.0530   78.1630  218.8870 C   0  0  0  0  0  0  0  0  0  0  0  0
  141.7110   77.8890  220.3080 C   0  0  1  0  0  0  0  0  0  0  0  0
  140.8560   78.9340  220.9510 C   0  0  0  0  0  0  0  0  0  0  0  0
  141.4880   79.5400  222.1060 N   0  0  0  0  0  0  0  0  0  0  0  0
  141.4790   79.0010  223.3620 C   0  0  0  0  0  0  0  0  0  0  0  0
  142.1680   79.8300  224.2220 C   0  0  0  0  0  0  0  0  0  0  0  0
  142.5910   80.8860  223.4400 C   0  0  0  0  0  0  0  0  0  0  0  0
  142.1670   80.6710  222.2040 N   0  0  0  0  0  0  0  0  0  0  0  0
  139.8460   71.5410  223.0420 C   0  0  0  0  0  0  0  0  0  0  0  0
  139.4330   70.2340  222.9410 C   0  0  0  0  0  0  0  0  0  0  0  0
  139.4990   69.3260  223.9760 C   0  0  0  0  0  0  0  0  0  0  0  0
  140.0160   69.7850  225.1720 C   0  0  0  0  0  0  0  0  0  0  0  0
  140.0990   68.9050  226.2310 C   0  0  0  0  0  0  0  0  0  0  0  0
  140.6060   69.3040  227.4460 C   0  0  0  0  0  0  0  0  0  0  0  0
  140.6850   68.1440  228.7490 Cl  0  0  0  0  0  0  0  0  0  0  0  0
  141.0230   70.6060  227.5620 C   0  0  0  0  0  0  0  0  0  0  0  0
  140.9440   71.5000  226.5030 C   0  0  0  0  0  0  0  0  0  0  0  0
  140.4320   71.1050  225.2650 C   0  0  0  0  0  0  0  0  0  0  0  0
  140.3410   71.9420  224.2230 N   0  0  0  0  0  0  0  0  0  0  0  0
  139.5680   74.2430  223.1180 H   0  0  0  0  0  0  0  0  0  0  0  0
  139.7879   74.3243  220.1227 H   0  0  0  0  0  0  0  0  0  0  0  0
  138.4528   75.1587  221.0119 H   0  0  0  0  0  0  0  0  0  0  0  0
  141.9547   74.8571  219.2882 H   0  0  0  0  0  0  0  0  0  0  0  0
  140.6436   75.5872  218.4196 H   0  0  0  0  0  0  0  0  0  0  0  0
  142.6005   76.7239  217.3301 H   0  0  0  0  0  0  0  0  0  0  0  0
  143.9440   77.1700  219.7360 H   0  0  0  0  0  0  0  0  0  0  0  0
  142.8559   78.9101  218.8024 H   0  0  0  0  0  0  0  0  0  0  0  0
  141.2251   78.5818  218.2960 H   0  0  0  0  0  0  0  0  0  0  0  0
  142.5773   77.9410  220.9839 H   0  0  0  0  0  0  0  0  0  0  0  0
  140.6457   79.7207  220.2115 H   0  0  0  0  0  0  0  0  0  0  0  0
  139.9339   78.4433  221.2958 H   0  0  0  0  0  0  0  0  0  0  0  0
  140.9970   78.0531  223.6432 H   0  0  0  0  0  0  0  0  0  0  0  0
  142.3427   79.6819  225.2979 H   0  0  0  0  0  0  0  0  0  0  0  0
  143.1762   81.7521  223.7826 H   0  0  0  0  0  0  0  0  0  0  0  0
  139.0260   69.8926  221.9778 H   0  0  0  0  0  0  0  0  0  0  0  0
  139.1570   68.2875  223.8556 H   0  0  0  0  0  0  0  0  0  0  0  0
  139.7545   67.8683  226.1020 H   0  0  0  0  0  0  0  0  0  0  0  0
  141.4321   70.9517  228.5228 H   0  0  0  0  0  0  0  0  0  0  0  0
  141.2898   72.5351  226.6409 H   0  0  0  0  0  0  0  0  0  0  0  0
  1  2  2  0
  2  3  1  0
  3  4  1  0
  4  5  1  0
  5  6  2  0
  5  7  1  0
  7  8  1  0
  8  9  1  0
  9 10  1  0
  9 11  1  0
 11 12  1  0
 12 13  1  0
 13 14  1  0
 14 15  1  0
 15 16  2  0
 16 17  1  0
 17 18  2  0
  2 19  1  0
 19 20  2  0
 20 21  1  0
 21 22  2  0
 22 23  1  0
 23 24  2  0
 24 25  1  0
 24 26  1  0
 26 27  2  0
 27 28  1  0
 28 29  2  0
 12  7  1  0
 18 14  1  0
 29 19  1  0
 28 22  1  0
  3 30  1  0
  4 31  1  0
  4 32  1  0
  8 33  1  0
  8 34  1  0
  9 35  1  6
 10 36  1  0
 11 37  1  0
 11 38  1  0
 12 39  1  1
 13 40  1  0
 13 41  1  0
 15 42  1  0
 16 43  1  0
 17 44  1  0
 20 45  1  0
 21 46  1  0
 23 47  1  0
 26 48  1  0
 27 49  1  0
M  END
>  <smiles>  (15) 
O=C(NCC(=O)N1C[C@H](O)C[C@H]1Cn1cccn1)c1ccc2cc(Cl)ccc2n1

>  <score_type>  (15) 
oracle

>  <origin>  (15) 
autodockgpu

>  <m_score__min__energy>  (15) 
-8.6699999999999999

>  <m_primary>  (15) 
energy

>  <rmsd>  (15) 
1.7846237670082428

>  <m_score__min__rmsd>  (15) 
1.7846237670082428

>  <meeko>  (15) 
{"free_energy": -8.4, "intermolecular_energy": -10.49, "internal_energy": -1.64, "cluster_size": 24, "cluster_id": 1, "rank_in_cluster": 4}

>  <energy>  (15) 
-7.34

>  <cluster_rmsd>  (15) 
1.17

>  <cluster>  (15) 
1

$$$$

     RDKit          3D

 49 52  0  0  0  0  0  0  0  0999 V2000
  140.7000   73.4070  222.0390 O   0  0  0  0  0  0  0  0  0  0  0  0
  141.5960   73.7810  221.2400 C   0  0  0  0  0  0  0  0  0  0  0  0
  142.5920   72.9160  220.7130 N   0  0  0  0  0  0  0  0  0  0  0  0
  142.6390   71.5120  221.0700 C   0  0  0  0  0  0  0  0  0  0  0  0
  142.6180   70.6540  219.8590 C   0  0  0  0  0  0  0  0  0  0  0  0
  141.5550   70.6810  219.1730 O   0  0  0  0  0  0  0  0  0  0  0  0
  143.7410   69.8360  219.4810 N   0  0  0  0  0  0  0  0  0  0  0  0
  143.6100   68.4160  219.2660 C   0  0  0  0  0  0  0  0  0  0  0  0
  145.0820   68.0180  219.1280 C   0  0  2  0  0  0  0  0  0  0  0  0
  145.5590   67.8380  220.4260 O   0  0  0  0  0  0  0  0  0  0  0  0
  145.7300   69.2530  218.5210 C   0  0  0  0  0  0  0  0  0  0  0  0
  145.0700   70.3380  219.2960 C   0  0  1  0  0  0  0  0  0  0  0  0
  145.1920   71.6970  218.6870 C   0  0  0  0  0  0  0  0  0  0  0  0
  145.4230   72.7330  219.6730 N   0  0  0  0  0  0  0  0  0  0  0  0
  146.2590   72.6030  220.7470 C   0  0  0  0  0  0  0  0  0  0  0  0
  146.2460   73.7710  221.4820 C   0  0  0  0  0  0  0  0  0  0  0  0
  145.3730   74.6050  220.8130 C   0  0  0  0  0  0  0  0  0  0  0  0
  144.9150   73.9510  219.7570 N   0  0  0  0  0  0  0  0  0  0  0  0
  141.6170   75.2010  220.8270 C   0  0  0  0  0  0  0  0  0  0  0  0
  140.9990   76.1630  221.5900 C   0  0  0  0  0  0  0  0  0  0  0  0
  140.9780   77.5030  221.2660 C   0  0  0  0  0  0  0  0  0  0  0  0
  141.6250   77.8690  220.1010 C   0  0  0  0  0  0  0  0  0  0  0  0
  141.6260   79.2010  219.7440 C   0  0  0  0  0  0  0  0  0  0  0  0
  142.2550   79.6280  218.5970 C   0  0  0  0  0  0  0  0  0  0  0  0
  142.2210   81.3270  218.1980 Cl  0  0  0  0  0  0  0  0  0  0  0  0
  142.8770   78.6780  217.8250 C   0  0  0  0  0  0  0  0  0  0  0  0
  142.8810   77.3350  218.1750 C   0  0  0  0  0  0  0  0  0  0  0  0
  142.2470   76.8920  219.3390 C   0  0  0  0  0  0  0  0  0  0  0  0
  142.2330   75.6040  219.7040 N   0  0  0  0  0  0  0  0  0  0  0  0
  143.3360   73.2450  220.0470 H   0  0  0  0  0  0  0  0  0  0  0  0
  143.5625   71.3151  221.6343 H   0  0  0  0  0  0  0  0  0  0  0  0
  141.7557   71.2763  221.6818 H   0  0  0  0  0  0  0  0  0  0  0  0
  143.1332   67.9178  220.1230 H   0  0  0  0  0  0  0  0  0  0  0  0
  142.9778   68.1383  218.4098 H   0  0  0  0  0  0  0  0  0  0  0  0
  145.2676   67.1129  218.5311 H   0  0  0  0  0  0  0  0  0  0  0  0
  146.1460   67.0220  220.4580 H   0  0  0  0  0  0  0  0  0  0  0  0
  146.8192   69.2533  218.6748 H   0  0  0  0  0  0  0  0  0  0  0  0
  145.6061   69.3377  217.4313 H   0  0  0  0  0  0  0  0  0  0  0  0
  145.5559   70.5435  220.2612 H   0  0  0  0  0  0  0  0  0  0  0  0
  146.0338   71.6910  217.9790 H   0  0  0  0  0  0  0  0  0  0  0  0
  144.2397   71.9227  218.1849 H   0  0  0  0  0  0  0  0  0  0  0  0
  146.8499   71.7070  220.9878 H   0  0  0  0  0  0  0  0  0  0  0  0
  146.8091   73.9898  222.4013 H   0  0  0  0  0  0  0  0  0  0  0  0
  145.1053   75.6311  221.1054 H   0  0  0  0  0  0  0  0  0  0  0  0
  140.4916   75.8452  222.5128 H   0  0  0  0  0  0  0  0  0  0  0  0
  140.4717   78.2434  221.9028 H   0  0  0  0  0  0  0  0  0  0  0  0
  141.1159   79.9339  220.3864 H   0  0  0  0  0  0  0  0  0  0  0  0
  143.3871   78.9906  216.9019 H   0  0  0  0  0  0  0  0  0  0  0  0
  143.3911   76.6079  217.5261 H   0  0  0  0  0  0  0  0  0  0  0  0
  1  2  2  0
  2  3  1  0
  3  4  1  0
  4  5  1  0
  5  6  2  0
  5  7  1  0
  7  8  1  0
  8  9  1  0
  9 10  1  0
  9 11  1  0
 11 12  1  0
 12 13  1  0
 13 14  1  0
 14 15  1  0
 15 16  2  0
 16 17  1  0
 17 18  2  0
  2 19  1  0
 19 20  2  0
 20 21  1  0
 21 22  2  0
 22 23  1  0
 23 24  2  0
 24 25  1  0
 24 26  1  0
 26 27  2  0
 27 28  1  0
 28 29  2  0
 12  7  1  0
 18 14  1  0
 29 19  1  0
 28 22  1  0
  3 30  1  0
  4 31  1  0
  4 32  1  0
  8 33  1  0
  8 34  1  0
  9 35  1  6
 10 36  1  0
 11 37  1  0
 11 38  1  0
 12 39  1  1
 13 40  1  0
 13 41  1  0
 15 42  1  0
 16 43  1  0
 17 44  1  0
 20 45  1  0
 21 46  1  0
 23 47  1  0
 26 48  1  0
 27 49  1  0
M  END
>  <smiles>  (16) 
O=C(NCC(=O)N1C[C@H](O)C[C@H]1Cn1cccn1)c1ccc2cc(Cl)ccc2n1

>  <score_type>  (16) 
oracle

>  <origin>  (16) 
autodockgpu

>  <m_score__min__energy>  (16) 
-8.6699999999999999

>  <m_primary>  (16) 
energy

>  <rmsd>  (16) 
8.795161494040107

>  <m_score__min__rmsd>  (16) 
8.795161494040107

>  <meeko>  (16) 
{"free_energy": -6.35, "intermolecular_energy": -8.43, "internal_energy": -2.71, "cluster_size": 2, "cluster_id": 5, "rank_in_cluster": 1}

>  <energy>  (16) 
-7.25

>  <cluster_rmsd>  (16) 
1.97

>  <cluster>  (16) 
1

$$$$

     RDKit          3D

 49 52  0  0  0  0  0  0  0  0999 V2000
  139.4180   72.5310  221.5330 O   0  0  0  0  0  0  0  0  0  0  0  0
  138.7240   71.7550  222.2380 C   0  0  0  0  0  0  0  0  0  0  0  0
  137.4040   71.3520  221.8990 N   0  0  0  0  0  0  0  0  0  0  0  0
  136.7590   71.8190  220.6890 C   0  0  0  0  0  0  0  0  0  0  0  0
  136.0580   73.1080  220.9220 C   0  0  0  0  0  0  0  0  0  0  0  0
  134.8610   73.1730  220.5180 O   0  0  0  0  0  0  0  0  0  0  0  0
  136.7000   74.2210  221.5710 N   0  0  0  0  0  0  0  0  0  0  0  0
  137.5930   75.1030  220.8600 C   0  0  0  0  0  0  0  0  0  0  0  0
  138.1530   75.9270  222.0230 C   0  0  2  0  0  0  0  0  0  0  0  0
  139.2100   75.1840  222.5510 O   0  0  0  0  0  0  0  0  0  0  0  0
  137.0090   75.9550  223.0260 C   0  0  0  0  0  0  0  0  0  0  0  0
  136.5270   74.5500  222.9540 C   0  0  1  0  0  0  0  0  0  0  0  0
  135.1640   74.3330  223.5270 C   0  0  0  0  0  0  0  0  0  0  0  0
  135.0230   73.0380  224.1630 N   0  0  0  0  0  0  0  0  0  0  0  0
  134.2590   72.8030  225.2710 C   0  0  0  0  0  0  0  0  0  0  0  0
  134.3470   71.4690  225.6150 C   0  0  0  0  0  0  0  0  0  0  0  0
  135.1910   70.9130  224.6740 C   0  0  0  0  0  0  0  0  0  0  0  0
  135.5620   71.8740  223.8420 N   0  0  0  0  0  0  0  0  0  0  0  0
  139.3110   71.2340  223.4910 C   0  0  0  0  0  0  0  0  0  0  0  0
  140.3090   71.9230  224.1380 C   0  0  0  0  0  0  0  0  0  0  0  0
  140.9030   71.4970  225.3070 C   0  0  0  0  0  0  0  0  0  0  0  0
  140.4450   70.3050  225.8360 C   0  0  0  0  0  0  0  0  0  0  0  0
  141.0140   69.8470  227.0060 C   0  0  0  0  0  0  0  0  0  0  0  0
  140.6000   68.6680  227.5810 C   0  0  0  0  0  0  0  0  0  0  0  0
  141.3590   68.1390  229.0620 Cl  0  0  0  0  0  0  0  0  0  0  0  0
  139.6040   67.9690  226.9470 C   0  0  0  0  0  0  0  0  0  0  0  0
  139.0250   68.4210  225.7690 C   0  0  0  0  0  0  0  0  0  0  0  0
  139.4370   69.6180  225.1780 C   0  0  0  0  0  0  0  0  0  0  0  0
  138.8990   70.0810  224.0420 N   0  0  0  0  0  0  0  0  0  0  0  0
  136.8360   70.7030  222.5010 H   0  0  0  0  0  0  0  0  0  0  0  0
  137.5199   71.9597  219.9072 H   0  0  0  0  0  0  0  0  0  0  0  0
  136.0179   71.0691  220.3754 H   0  0  0  0  0  0  0  0  0  0  0  0
  138.3850   74.5454  220.3386 H   0  0  0  0  0  0  0  0  0  0  0  0
  137.1165   75.6956  220.0652 H   0  0  0  0  0  0  0  0  0  0  0  0
  138.4987   76.9366  221.7562 H   0  0  0  0  0  0  0  0  0  0  0  0
  138.9050   74.2420  222.7260 H   0  0  0  0  0  0  0  0  0  0  0  0
  137.3644   76.2080  224.0358 H   0  0  0  0  0  0  0  0  0  0  0  0
  136.2374   76.7086  222.8097 H   0  0  0  0  0  0  0  0  0  0  0  0
  137.0917   73.8611  223.5994 H   0  0  0  0  0  0  0  0  0  0  0  0
  134.9683   75.1154  224.2751 H   0  0  0  0  0  0  0  0  0  0  0  0
  134.4443   74.3747  222.6961 H   0  0  0  0  0  0  0  0  0  0  0  0
  133.6659   73.5593  225.8059 H   0  0  0  0  0  0  0  0  0  0  0  0
  133.8526   70.9599  226.4555 H   0  0  0  0  0  0  0  0  0  0  0  0
  135.5003   69.8586  224.6244 H   0  0  0  0  0  0  0  0  0  0  0  0
  140.6540   72.8699  223.6972 H   0  0  0  0  0  0  0  0  0  0  0  0
  141.7011   72.0765  225.7941 H   0  0  0  0  0  0  0  0  0  0  0  0
  141.8110   70.4335  227.4866 H   0  0  0  0  0  0  0  0  0  0  0  0
  139.2540   67.0226  227.3850 H   0  0  0  0  0  0  0  0  0  0  0  0
  138.2299   67.8278  225.2938 H   0  0  0  0  0  0  0  0  0  0  0  0
  1  2  2  0
  2  3  1  0
  3  4  1  0
  4  5  1  0
  5  6  2  0
  5  7  1  0
  7  8  1  0
  8  9  1  0
  9 10  1  0
  9 11  1  0
 11 12  1  0
 12 13  1  0
 13 14  1  0
 14 15  1  0
 15 16  2  0
 16 17  1  0
 17 18  2  0
  2 19  1  0
 19 20  2  0
 20 21  1  0
 21 22  2  0
 22 23  1  0
 23 24  2  0
 24 25  1  0
 24 26  1  0
 26 27  2  0
 27 28  1  0
 28 29  2  0
 12  7  1  0
 18 14  1  0
 29 19  1  0
 28 22  1  0
  3 30  1  0
  4 31  1  0
  4 32  1  0
  8 33  1  0
  8 34  1  0
  9 35  1  6
 10 36  1  0
 11 37  1  0
 11 38  1  0
 12 39  1  1
 13 40  1  0
 13 41  1  0
 15 42  1  0
 16 43  1  0
 17 44  1  0
 20 45  1  0
 21 46  1  0
 23 47  1  0
 26 48  1  0
 27 49  1  0
M  END
>  <smiles>  (17) 
O=C(NCC(=O)N1C[C@H](O)C[C@H]1Cn1cccn1)c1ccc2cc(Cl)ccc2n1

>  <score_type>  (17) 
oracle

>  <origin>  (17) 
autodockgpu

>  <m_score__min__energy>  (17) 
-8.6699999999999999

>  <m_primary>  (17) 
energy

>  <rmsd>  (17) 
5.607710062891539

>  <m_score__min__rmsd>  (17) 
5.607710062891539

>  <meeko>  (17) 
{"free_energy": -5.73, "intermolecular_energy": -7.81, "internal_energy": -3.6, "cluster_size": 10, "cluster_id": 6, "rank_in_cluster": 4}

>  <energy>  (17) 
-7.24

>  <cluster_rmsd>  (17) 
1.97

>  <cluster>  (17) 
1

$$$$

     RDKit          3D

 49 52  0  0  0  0  0  0  0  0999 V2000
  137.5630   71.4400  221.2450 O   0  0  0  0  0  0  0  0  0  0  0  0
  137.4770   71.8980  222.4130 C   0  0  0  0  0  0  0  0  0  0  0  0
  136.8840   73.1510  222.7250 N   0  0  0  0  0  0  0  0  0  0  0  0
  136.3270   74.0010  221.6930 C   0  0  0  0  0  0  0  0  0  0  0  0
  137.2960   75.0500  221.2850 C   0  0  0  0  0  0  0  0  0  0  0  0
  136.8030   76.0960  220.7720 O   0  0  0  0  0  0  0  0  0  0  0  0
  138.7160   74.8890  221.4610 N   0  0  0  0  0  0  0  0  0  0  0  0
  139.4450   73.8200  220.8250 C   0  0  0  0  0  0  0  0  0  0  0  0
  140.8070   73.9680  221.5090 C   0  0  2  0  0  0  0  0  0  0  0  0
  140.7160   73.2690  222.7130 O   0  0  0  0  0  0  0  0  0  0  0  0
  140.9020   75.4590  221.7980 C   0  0  0  0  0  0  0  0  0  0  0  0
  139.5230   75.7500  222.2740 C   0  0  1  0  0  0  0  0  0  0  0  0
  139.1620   77.2000  222.2750 C   0  0  0  0  0  0  0  0  0  0  0  0
  140.3140   78.0620  222.4550 N   0  0  0  0  0  0  0  0  0  0  0  0
  140.7530   78.9650  221.5270 C   0  0  0  0  0  0  0  0  0  0  0  0
  141.8660   79.6180  222.0130 C   0  0  0  0  0  0  0  0  0  0  0  0
  142.0800   79.0770  223.2650 C   0  0  0  0  0  0  0  0  0  0  0  0
  141.1420   78.1670  223.4800 N   0  0  0  0  0  0  0  0  0  0  0  0
  138.0230   71.0900  223.5240 C   0  0  0  0  0  0  0  0  0  0  0  0
  137.4860   69.8620  223.8290 C   0  0  0  0  0  0  0  0  0  0  0  0
  137.9430   69.0560  224.8500 C   0  0  0  0  0  0  0  0  0  0  0  0
  139.0050   69.5380  225.5910 C   0  0  0  0  0  0  0  0  0  0  0  0
  139.4910   68.7590  226.6200 C   0  0  0  0  0  0  0  0  0  0  0  0
  140.5480   69.1840  227.3930 C   0  0  0  0  0  0  0  0  0  0  0  0
  141.1180   68.1540  228.6830 Cl  0  0  0  0  0  0  0  0  0  0  0  0
  141.0950   70.4070  227.1000 C   0  0  0  0  0  0  0  0  0  0  0  0
  140.6130   71.1990  226.0670 C   0  0  0  0  0  0  0  0  0  0  0  0
  139.5420   70.7760  225.2750 C   0  0  0  0  0  0  0  0  0  0  0  0
  139.0530   71.5160  224.2710 N   0  0  0  0  0  0  0  0  0  0  0  0
  136.8210   73.5200  223.7080 H   0  0  0  0  0  0  0  0  0  0  0  0
  136.0744   73.3849  220.8174 H   0  0  0  0  0  0  0  0  0  0  0  0
  135.4272   74.4921  222.0921 H   0  0  0  0  0  0  0  0  0  0  0  0
  138.9910   72.8395  221.0313 H   0  0  0  0  0  0  0  0  0  0  0  0
  139.4745   73.8744  219.7267 H   0  0  0  0  0  0  0  0  0  0  0  0
  141.6647   73.6007  220.9263 H   0  0  0  0  0  0  0  0  0  0  0  0
  139.7510   73.2010  222.9890 H   0  0  0  0  0  0  0  0  0  0  0  0
  141.6501   75.6719  222.5758 H   0  0  0  0  0  0  0  0  0  0  0  0
  141.2199   76.0661  220.9376 H   0  0  0  0  0  0  0  0  0  0  0  0
  139.3755   75.5402  223.3437 H   0  0  0  0  0  0  0  0  0  0  0  0
  138.6856   77.4450  221.3143 H   0  0  0  0  0  0  0  0  0  0  0  0
  138.4813   77.3730  223.1216 H   0  0  0  0  0  0  0  0  0  0  0  0
  140.2902   79.1429  220.5451 H   0  0  0  0  0  0  0  0  0  0  0  0
  142.4553   80.4001  221.5120 H   0  0  0  0  0  0  0  0  0  0  0  0
  142.8864   79.3528  223.9605 H   0  0  0  0  0  0  0  0  0  0  0  0
  136.6420   69.5011  223.2228 H   0  0  0  0  0  0  0  0  0  0  0  0
  137.4854   68.0788  225.0638 H   0  0  0  0  0  0  0  0  0  0  0  0
  139.0270   67.7832  226.8263 H   0  0  0  0  0  0  0  0  0  0  0  0
  141.9409   70.7712  227.7015 H   0  0  0  0  0  0  0  0  0  0  0  0
  141.0811   72.1745  225.8687 H   0  0  0  0  0  0  0  0  0  0  0  0
  1  2  2  0
  2  3  1  0
  3  4  1  0
  4  5  1  0
  5  6  2  0
  5  7  1  0
  7  8  1  0
  8  9  1  0
  9 10  1  0
  9 11  1  0
 11 12  1  0
 12 13  1  0
 13 14  1  0
 14 15  1  0
 15 16  2  0
 16 17  1  0
 17 18  2  0
  2 19  1  0
 19 20  2  0
 20 21  1  0
 21 22  2  0
 22 23  1  0
 23 24  2  0
 24 25  1  0
 24 26  1  0
 26 27  2  0
 27 28  1  0
 28 29  2  0
 12  7  1  0
 18 14  1  0
 29 19  1  0
 28 22  1  0
  3 30  1  0
  4 31  1  0
  4 32  1  0
  8 33  1  0
  8 34  1  0
  9 35  1  6
 10 36  1  0
 11 37  1  0
 11 38  1  0
 12 39  1  1
 13 40  1  0
 13 41  1  0
 15 42  1  0
 16 43  1  0
 17 44  1  0
 20 45  1  0
 21 46  1  0
 23 47  1  0
 26 48  1  0
 27 49  1  0
M  END
>  <smiles>  (18) 
O=C(NCC(=O)N1C[C@H](O)C[C@H]1Cn1cccn1)c1ccc2cc(Cl)ccc2n1

>  <score_type>  (18) 
oracle

>  <origin>  (18) 
autodockgpu

>  <m_score__min__energy>  (18) 
-8.6699999999999999

>  <m_primary>  (18) 
energy

>  <rmsd>  (18) 
2.5008652453805635

>  <m_score__min__rmsd>  (18) 
2.5008652453805635

>  <meeko>  (18) 
{"free_energy": -7.34, "intermolecular_energy": -9.43, "internal_energy": -2.32, "cluster_size": 24, "cluster_id": 1, "rank_in_cluster": 14}

>  <energy>  (18) 
-7.21

>  <cluster_rmsd>  (18) 
1.66

>  <cluster>  (18) 
1

$$$$

     RDKit          3D

 49 52  0  0  0  0  0  0  0  0999 V2000
  138.4910   72.3490  221.1690 O   0  0  0  0  0  0  0  0  0  0  0  0
  139.4530   72.5340  221.9580 C   0  0  0  0  0  0  0  0  0  0  0  0
  140.3990   73.5840  221.8120 N   0  0  0  0  0  0  0  0  0  0  0  0
  140.3150   74.5310  220.7190 C   0  0  0  0  0  0  0  0  0  0  0  0
  141.5580   75.3360  220.6140 C   0  0  0  0  0  0  0  0  0  0  0  0
  142.5990   74.8250  221.1210 O   0  0  0  0  0  0  0  0  0  0  0  0
  141.5830   76.6250  219.9720 N   0  0  0  0  0  0  0  0  0  0  0  0
  141.3760   76.7710  218.5530 C   0  0  0  0  0  0  0  0  0  0  0  0
  141.7270   78.2510  218.3720 C   0  0  2  0  0  0  0  0  0  0  0  0
  143.1140   78.3070  218.2360 O   0  0  0  0  0  0  0  0  0  0  0  0
  141.3260   78.8780  219.6990 C   0  0  0  0  0  0  0  0  0  0  0  0
  141.8190   77.8580  220.6620 C   0  0  1  0  0  0  0  0  0  0  0  0
  141.2450   77.9750  222.0370 C   0  0  0  0  0  0  0  0  0  0  0  0
  141.7220   79.1470  222.7440 N   0  0  0  0  0  0  0  0  0  0  0  0
  140.9210   80.1690  223.1710 C   0  0  0  0  0  0  0  0  0  0  0  0
  141.6910   81.1220  223.8050 C   0  0  0  0  0  0  0  0  0  0  0  0
  142.9820   80.6360  223.7440 C   0  0  0  0  0  0  0  0  0  0  0  0
  142.9490   79.4730  223.1110 N   0  0  0  0  0  0  0  0  0  0  0  0
  139.6090   71.6090  223.1000 C   0  0  0  0  0  0  0  0  0  0  0  0
  139.1210   70.3260  223.0360 C   0  0  0  0  0  0  0  0  0  0  0  0
  139.2300   69.4110  224.0620 C   0  0  0  0  0  0  0  0  0  0  0  0
  139.8720   69.8380  225.2070 C   0  0  0  0  0  0  0  0  0  0  0  0
  140.0010   68.9500  226.2550 C   0  0  0  0  0  0  0  0  0  0  0  0
  140.6320   69.3170  227.4220 C   0  0  0  0  0  0  0  0  0  0  0  0
  140.7630   68.1490  228.7130 Cl  0  0  0  0  0  0  0  0  0  0  0  0
  141.1240   70.5950  227.5010 C   0  0  0  0  0  0  0  0  0  0  0  0
  141.0000   71.4970  226.4530 C   0  0  0  0  0  0  0  0  0  0  0  0
  140.3620   71.1340  225.2630 C   0  0  0  0  0  0  0  0  0  0  0  0
  140.2250   71.9800  224.2340 N   0  0  0  0  0  0  0  0  0  0  0  0
  141.1990   73.7240  222.4800 H   0  0  0  0  0  0  0  0  0  0  0  0
  140.1620   73.9816  219.7784 H   0  0  0  0  0  0  0  0  0  0  0  0
  139.4724   75.2118  220.9099 H   0  0  0  0  0  0  0  0  0  0  0  0
  142.0488   76.1202  217.9751 H   0  0  0  0  0  0  0  0  0  0  0  0
  140.3706   76.4919  218.2047 H   0  0  0  0  0  0  0  0  0  0  0  0
  141.2454   78.7444  217.5149 H   0  0  0  0  0  0  0  0  0  0  0  0
  143.5480   77.9850  219.0840 H   0  0  0  0  0  0  0  0  0  0  0  0
  141.8204   79.8487  219.8518 H   0  0  0  0  0  0  0  0  0  0  0  0
  140.2522   79.0997  219.7870 H   0  0  0  0  0  0  0  0  0  0  0  0
  142.8831   77.9746  220.9151 H   0  0  0  0  0  0  0  0  0  0  0  0
  140.1495   78.0337  221.9573 H   0  0  0  0  0  0  0  0  0  0  0  0
  141.5644   77.0900  222.6070 H   0  0  0  0  0  0  0  0  0  0  0  0
  139.8313   80.2231  223.0308 H   0  0  0  0  0  0  0  0  0  0  0  0
  141.3507   82.0639  224.2600 H   0  0  0  0  0  0  0  0  0  0  0  0
  143.8788   81.1275  224.1492 H   0  0  0  0  0  0  0  0  0  0  0  0
  138.6138   70.0104  222.1124 H   0  0  0  0  0  0  0  0  0  0  0  0
  138.8256   68.3920  223.9725 H   0  0  0  0  0  0  0  0  0  0  0  0
  139.5934   67.9331  226.1565 H   0  0  0  0  0  0  0  0  0  0  0  0
  141.6322   70.9148  228.4227 H   0  0  0  0  0  0  0  0  0  0  0  0
  141.4097   72.5122  226.5604 H   0  0  0  0  0  0  0  0  0  0  0  0
  1  2  2  0
  2  3  1  0
  3  4  1  0
  4  5  1  0
  5  6  2  0
  5  7  1  0
  7  8  1  0
  8  9  1  0
  9 10  1  0
  9 11  1  0
 11 12  1  0
 12 13  1  0
 13 14  1  0
 14 15  1  0
 15 16  2  0
 16 17  1  0
 17 18  2  0
  2 19  1  0
 19 20  2  0
 20 21  1  0
 21 22  2  0
 22 23  1  0
 23 24  2  0
 24 25  1  0
 24 26  1  0
 26 27  2  0
 27 28  1  0
 28 29  2  0
 12  7  1  0
 18 14  1  0
 29 19  1  0
 28 22  1  0
  3 30  1  0
  4 31  1  0
  4 32  1  0
  8 33  1  0
  8 34  1  0
  9 35  1  6
 10 36  1  0
 11 37  1  0
 11 38  1  0
 12 39  1  1
 13 40  1  0
 13 41  1  0
 15 42  1  0
 16 43  1  0
 17 44  1  0
 20 45  1  0
 21 46  1  0
 23 47  1  0
 26 48  1  0
 27 49  1  0
M  END
>  <smiles>  (19) 
O=C(NCC(=O)N1C[C@H](O)C[C@H]1Cn1cccn1)c1ccc2cc(Cl)ccc2n1

>  <score_type>  (19) 
oracle

>  <origin>  (19) 
autodockgpu

>  <m_score__min__energy>  (19) 
-8.6699999999999999

>  <m_primary>  (19) 
energy

>  <rmsd>  (19) 
2.063755502354381

>  <m_score__min__rmsd>  (19) 
2.063755502354381

>  <meeko>  (19) 
{"free_energy": -7.52, "intermolecular_energy": -9.6, "internal_energy": -1.79, "cluster_size": 24, "cluster_id": 1, "rank_in_cluster": 12}

>  <energy>  (19) 
-7.07

>  <cluster_rmsd>  (19) 
1.87

>  <cluster>  (19) 
1

$$$$

     RDKit          3D

 49 52  0  0  0  0  0  0  0  0999 V2000
  138.2910   71.1370  220.7070 O   0  0  0  0  0  0  0  0  0  0  0  0
  138.5860   71.7770  221.7480 C   0  0  0  0  0  0  0  0  0  0  0  0
  138.5800   73.1960  221.8280 N   0  0  0  0  0  0  0  0  0  0  0  0
  138.2240   74.0150  220.6870 C   0  0  0  0  0  0  0  0  0  0  0  0
  139.3680   74.1520  219.7510 C   0  0  0  0  0  0  0  0  0  0  0  0
  139.2970   75.1010  218.9170 O   0  0  0  0  0  0  0  0  0  0  0  0
  140.4970   73.2590  219.7860 N   0  0  0  0  0  0  0  0  0  0  0  0
  140.5450   72.0620  218.9830 C   0  0  0  0  0  0  0  0  0  0  0  0
  141.7970   71.3920  219.5580 C   0  0  2  0  0  0  0  0  0  0  0  0
  141.3760   70.6890  220.6870 O   0  0  0  0  0  0  0  0  0  0  0  0
  142.6640   72.5650  219.9900 C   0  0  0  0  0  0  0  0  0  0  0  0
  141.6520   73.4610  220.6100 C   0  0  1  0  0  0  0  0  0  0  0  0
  142.1040   74.8730  220.7920 C   0  0  0  0  0  0  0  0  0  0  0  0
  141.1110   75.6980  221.4530 N   0  0  0  0  0  0  0  0  0  0  0  0
  140.9670   77.0420  221.2500 C   0  0  0  0  0  0  0  0  0  0  0  0
  139.9350   77.5160  222.0330 C   0  0  0  0  0  0  0  0  0  0  0  0
  139.4640   76.4100  222.7120 C   0  0  0  0  0  0  0  0  0  0  0  0
  140.1880   75.3650  222.3380 N   0  0  0  0  0  0  0  0  0  0  0  0
  138.9620   71.0130  222.9560 C   0  0  0  0  0  0  0  0  0  0  0  0
  138.5890   69.6970  223.0990 C   0  0  0  0  0  0  0  0  0  0  0  0
  138.9030   68.9250  224.1970 C   0  0  0  0  0  0  0  0  0  0  0  0
  139.6370   69.5370  225.1950 C   0  0  0  0  0  0  0  0  0  0  0  0
  139.9720   68.7960  226.3090 C   0  0  0  0  0  0  0  0  0  0  0  0
  140.7020   69.3490  227.3360 C   0  0  0  0  0  0  0  0  0  0  0  0
  141.0930   68.3610  228.7210 Cl  0  0  0  0  0  0  0  0  0  0  0  0
  141.0820   70.6620  227.2080 C   0  0  0  0  0  0  0  0  0  0  0  0
  140.7500   71.4160  226.0910 C   0  0  0  0  0  0  0  0  0  0  0  0
  140.0100   70.8630  225.0420 C   0  0  0  0  0  0  0  0  0  0  0  0
  139.6740   71.5640  223.9520 N   0  0  0  0  0  0  0  0  0  0  0  0
  138.8310   73.7160  222.7070 H   0  0  0  0  0  0  0  0  0  0  0  0
  137.3807   73.5472  220.1579 H   0  0  0  0  0  0  0  0  0  0  0  0
  137.9457   75.0161  221.0482 H   0  0  0  0  0  0  0  0  0  0  0  0
  139.6491   71.4402  219.1266 H   0  0  0  0  0  0  0  0  0  0  0  0
  140.5762   72.2383  217.8977 H   0  0  0  0  0  0  0  0  0  0  0  0
  142.3241   70.7158  218.8688 H   0  0  0  0  0  0  0  0  0  0  0  0
  140.3770   70.5790  220.6620 H   0  0  0  0  0  0  0  0  0  0  0  0
  143.4276   72.2548  220.7185 H   0  0  0  0  0  0  0  0  0  0  0  0
  143.2359   73.0282  219.1725 H   0  0  0  0  0  0  0  0  0  0  0  0
  141.4379   73.2172  221.6611 H   0  0  0  0  0  0  0  0  0  0  0  0
  143.0218   74.8733  221.3984 H   0  0  0  0  0  0  0  0  0  0  0  0
  142.2767   75.2980  219.7922 H   0  0  0  0  0  0  0  0  0  0  0  0
  141.5789   77.6509  220.5683 H   0  0  0  0  0  0  0  0  0  0  0  0
  139.5672   78.5504  222.1015 H   0  0  0  0  0  0  0  0  0  0  0  0
  138.6351   76.3983  223.4350 H   0  0  0  0  0  0  0  0  0  0  0  0
  138.0059   69.2333  222.2897 H   0  0  0  0  0  0  0  0  0  0  0  0
  138.5853   67.8748  224.2748 H   0  0  0  0  0  0  0  0  0  0  0  0
  139.6505   67.7463  226.3776 H   0  0  0  0  0  0  0  0  0  0  0  0
  141.6664   71.1299  228.0139 H   0  0  0  0  0  0  0  0  0  0  0  0
  141.0744   72.4653  226.0303 H   0  0  0  0  0  0  0  0  0  0  0  0
  1  2  2  0
  2  3  1  0
  3  4  1  0
  4  5  1  0
  5  6  2  0
  5  7  1  0
  7  8  1  0
  8  9  1  0
  9 10  1  0
  9 11  1  0
 11 12  1  0
 12 13  1  0
 13 14  1  0
 14 15  1  0
 15 16  2  0
 16 17  1  0
 17 18  2  0
  2 19  1  0
 19 20  2  0
 20 21  1  0
 21 22  2  0
 22 23  1  0
 23 24  2  0
 24 25  1  0
 24 26  1  0
 26 27  2  0
 27 28  1  0
 28 29  2  0
 12  7  1  0
 18 14  1  0
 29 19  1  0
 28 22  1  0
  3 30  1  0
  4 31  1  0
  4 32  1  0
  8 33  1  0
  8 34  1  0
  9 35  1  6
 10 36  1  0
 11 37  1  0
 11 38  1  0
 12 39  1  1
 13 40  1  0
 13 41  1  0
 15 42  1  0
 16 43  1  0
 17 44  1  0
 20 45  1  0
 21 46  1  0
 23 47  1  0
 26 48  1  0
 27 49  1  0
M  END
>  <smiles>  (20) 
O=C(NCC(=O)N1C[C@H](O)C[C@H]1Cn1cccn1)c1ccc2cc(Cl)ccc2n1

>  <score_type>  (20) 
oracle

>  <origin>  (20) 
autodockgpu

>  <m_score__min__energy>  (20) 
-8.6699999999999999

>  <m_primary>  (20) 
energy

>  <rmsd>  (20) 
2.9178228431293385

>  <m_score__min__rmsd>  (20) 
2.9178228431293385

>  <meeko>  (20) 
{"free_energy": -5.94, "intermolecular_energy": -8.03, "internal_energy": -3.42, "cluster_size": 2, "cluster_id": 8, "rank_in_cluster": 2}

>  <energy>  (20) 
-7.06

>  <cluster_rmsd>  (20) 
1.93

>  <cluster>  (20) 
1

$$$$

     RDKit          3D

 49 52  0  0  0  0  0  0  0  0999 V2000
  140.3320   72.3490  220.7260 O   0  0  0  0  0  0  0  0  0  0  0  0
  140.0720   72.8160  221.8650 C   0  0  0  0  0  0  0  0  0  0  0  0
  139.7800   74.1860  222.1050 N   0  0  0  0  0  0  0  0  0  0  0  0
  139.7600   75.1550  221.0290 C   0  0  0  0  0  0  0  0  0  0  0  0
  141.1300   75.6390  220.7220 C   0  0  0  0  0  0  0  0  0  0  0  0
  142.0830   74.9480  221.1870 O   0  0  0  0  0  0  0  0  0  0  0  0
  141.3650   76.8250  219.9410 N   0  0  0  0  0  0  0  0  0  0  0  0
  141.3510   76.8000  218.4990 C   0  0  0  0  0  0  0  0  0  0  0  0
  141.8710   78.2070  218.1920 C   0  0  2  0  0  0  0  0  0  0  0  0
  143.2630   78.1260  218.2390 O   0  0  0  0  0  0  0  0  0  0  0  0
  141.3750   79.0360  219.3670 C   0  0  0  0  0  0  0  0  0  0  0  0
  141.6390   78.1130  220.5040 C   0  0  1  0  0  0  0  0  0  0  0  0
  140.9130   78.4600  221.7630 C   0  0  0  0  0  0  0  0  0  0  0  0
  141.6090   79.4560  222.5530 N   0  0  0  0  0  0  0  0  0  0  0  0
  142.9620   79.4770  222.7500 C   0  0  0  0  0  0  0  0  0  0  0  0
  143.2920   80.5530  223.5480 C   0  0  0  0  0  0  0  0  0  0  0  0
  142.0920   81.1770  223.8220 C   0  0  0  0  0  0  0  0  0  0  0  0
  141.1320   80.4960  223.2160 N   0  0  0  0  0  0  0  0  0  0  0  0
  140.0730   71.8910  223.0170 C   0  0  0  0  0  0  0  0  0  0  0  0
  139.5630   70.6200  222.8970 C   0  0  0  0  0  0  0  0  0  0  0  0
  139.5300   69.7050  223.9280 C   0  0  0  0  0  0  0  0  0  0  0  0
  140.0480   70.1190  225.1410 C   0  0  0  0  0  0  0  0  0  0  0  0
  140.0330   69.2310  226.1960 C   0  0  0  0  0  0  0  0  0  0  0  0
  140.5350   69.5850  227.4280 C   0  0  0  0  0  0  0  0  0  0  0  0
  140.4880   68.4180  228.7250 Cl  0  0  0  0  0  0  0  0  0  0  0  0
  141.0480   70.8510  227.5630 C   0  0  0  0  0  0  0  0  0  0  0  0
  141.0670   71.7520  226.5070 C   0  0  0  0  0  0  0  0  0  0  0  0
  140.5610   71.4020  225.2530 C   0  0  0  0  0  0  0  0  0  0  0  0
  140.5640   72.2480  224.2140 N   0  0  0  0  0  0  0  0  0  0  0  0
  139.5650   74.5600  223.0650 H   0  0  0  0  0  0  0  0  0  0  0  0
  139.3347   74.6852  220.1299 H   0  0  0  0  0  0  0  0  0  0  0  0
  139.1475   76.0133  221.3422 H   0  0  0  0  0  0  0  0  0  0  0  0
  142.0199   76.0234  218.0995 H   0  0  0  0  0  0  0  0  0  0  0  0
  140.3731   76.5648  218.0535 H   0  0  0  0  0  0  0  0  0  0  0  0
  141.5519   78.6222  217.2246 H   0  0  0  0  0  0  0  0  0  0  0  0
  143.6570   78.6870  217.5040 H   0  0  0  0  0  0  0  0  0  0  0  0
  141.9430   79.9726  219.4678 H   0  0  0  0  0  0  0  0  0  0  0  0
  140.3268   79.3585  219.2814 H   0  0  0  0  0  0  0  0  0  0  0  0
  142.6699   78.1695  220.8835 H   0  0  0  0  0  0  0  0  0  0  0  0
  139.9191   78.8510  221.4999 H   0  0  0  0  0  0  0  0  0  0  0  0
  140.8423   77.5448  222.3691 H   0  0  0  0  0  0  0  0  0  0  0  0
  143.6760   78.7494  222.3367 H   0  0  0  0  0  0  0  0  0  0  0  0
  144.2942   80.8492  223.8913 H   0  0  0  0  0  0  0  0  0  0  0  0
  141.9571   82.0802  224.4353 H   0  0  0  0  0  0  0  0  0  0  0  0
  139.1574   70.3150  221.9211 H   0  0  0  0  0  0  0  0  0  0  0  0
  139.1125   68.6964  223.7921 H   0  0  0  0  0  0  0  0  0  0  0  0
  139.6135   68.2245  226.0509 H   0  0  0  0  0  0  0  0  0  0  0  0
  141.4560   71.1607  228.5365 H   0  0  0  0  0  0  0  0  0  0  0  0
  141.4870   72.7570  226.6602 H   0  0  0  0  0  0  0  0  0  0  0  0
  1  2  2  0
  2  3  1  0
  3  4  1  0
  4  5  1  0
  5  6  2  0
  5  7  1  0
  7  8  1  0
  8  9  1  0
  9 10  1  0
  9 11  1  0
 11 12  1  0
 12 13  1  0
 13 14  1  0
 14 15  1  0
 15 16  2  0
 16 17  1  0
 17 18  2  0
  2 19  1  0
 19 20  2  0
 20 21  1  0
 21 22  2  0
 22 23  1  0
 23 24  2  0
 24 25  1  0
 24 26  1  0
 26 27  2  0
 27 28  1  0
 28 29  2  0
 12  7  1  0
 18 14  1  0
 29 19  1  0
 28 22  1  0
  3 30  1  0
  4 31  1  0
  4 32  1  0
  8 33  1  0
  8 34  1  0
  9 35  1  6
 10 36  1  0
 11 37  1  0
 11 38  1  0
 12 39  1  1
 13 40  1  0
 13 41  1  0
 15 42  1  0
 16 43  1  0
 17 44  1  0
 20 45  1  0
 21 46  1  0
 23 47  1  0
 26 48  1  0
 27 49  1  0
M  END
>  <smiles>  (21) 
O=C(NCC(=O)N1C[C@H](O)C[C@H]1Cn1cccn1)c1ccc2cc(Cl)ccc2n1

>  <score_type>  (21) 
oracle

>  <origin>  (21) 
autodockgpu

>  <m_score__min__energy>  (21) 
-8.6699999999999999

>  <m_primary>  (21) 
energy

>  <rmsd>  (21) 
2.148187253253213

>  <m_score__min__rmsd>  (21) 
2.148187253253213

>  <meeko>  (21) 
{"free_energy": -8.17, "intermolecular_energy": -10.26, "internal_energy": -1.27, "cluster_size": 24, "cluster_id": 1, "rank_in_cluster": 6}

>  <energy>  (21) 
-7.05

>  <cluster_rmsd>  (21) 
1.86

>  <cluster>  (21) 
1

$$$$

     RDKit          3D

 49 52  0  0  0  0  0  0  0  0999 V2000
  139.1510   70.8240  221.0830 O   0  0  0  0  0  0  0  0  0  0  0  0
  139.1260   71.6130  222.0610 C   0  0  0  0  0  0  0  0  0  0  0  0
  138.6440   72.9480  221.9830 N   0  0  0  0  0  0  0  0  0  0  0  0
  138.1380   73.4970  220.7420 C   0  0  0  0  0  0  0  0  0  0  0  0
  139.2490   73.9490  219.8660 C   0  0  0  0  0  0  0  0  0  0  0  0
  138.9350   74.7380  218.9280 O   0  0  0  0  0  0  0  0  0  0  0  0
  140.6080   73.5170  220.0700 N   0  0  0  0  0  0  0  0  0  0  0  0
  141.1450   72.3570  219.4030 C   0  0  0  0  0  0  0  0  0  0  0  0
  142.4870   72.2180  220.1260 C   0  0  2  0  0  0  0  0  0  0  0  0
  142.2270   71.5000  221.2940 O   0  0  0  0  0  0  0  0  0  0  0  0
  142.8490   73.6510  220.4860 C   0  0  0  0  0  0  0  0  0  0  0  0
  141.5340   74.1760  220.9410 C   0  0  1  0  0  0  0  0  0  0  0  0
  141.4510   75.6670  221.0010 C   0  0  0  0  0  0  0  0  0  0  0  0
  140.2370   76.1340  221.6410 N   0  0  0  0  0  0  0  0  0  0  0  0
  139.6260   77.3240  221.3600 C   0  0  0  0  0  0  0  0  0  0  0  0
  138.5000   77.4580  222.1460 C   0  0  0  0  0  0  0  0  0  0  0  0
  138.4560   76.3080  222.9080 C   0  0  0  0  0  0  0  0  0  0  0  0
  139.4980   75.5610  222.5750 N   0  0  0  0  0  0  0  0  0  0  0  0
  139.6260   71.1280  223.3650 C   0  0  0  0  0  0  0  0  0  0  0  0
  140.4720   71.9010  224.1240 C   0  0  0  0  0  0  0  0  0  0  0  0
  140.9770   71.5130  225.3470 C   0  0  0  0  0  0  0  0  0  0  0  0
  140.5910   70.2700  225.8100 C   0  0  0  0  0  0  0  0  0  0  0  0
  141.0760   69.8470  227.0300 C   0  0  0  0  0  0  0  0  0  0  0  0
  140.7270   68.6200  227.5450 C   0  0  0  0  0  0  0  0  0  0  0  0
  141.3730   68.1400  229.0950 Cl  0  0  0  0  0  0  0  0  0  0  0  0
  139.8830   67.8370  226.7990 C   0  0  0  0  0  0  0  0  0  0  0  0
  139.3900   68.2530  225.5700 C   0  0  0  0  0  0  0  0  0  0  0  0
  139.7370   69.4980  225.0390 C   0  0  0  0  0  0  0  0  0  0  0  0
  139.2790   69.9280  223.8560 N   0  0  0  0  0  0  0  0  0  0  0  0
  138.6310   73.5960  222.8110 H   0  0  0  0  0  0  0  0  0  0  0  0
  137.5581   72.7237  220.2169 H   0  0  0  0  0  0  0  0  0  0  0  0
  137.5025   74.3638  220.9764 H   0  0  0  0  0  0  0  0  0  0  0  0
  140.5093   71.4718  219.5523 H   0  0  0  0  0  0  0  0  0  0  0  0
  141.2202   72.4500  218.3095 H   0  0  0  0  0  0  0  0  0  0  0  0
  143.2797   71.7201  219.5483 H   0  0  0  0  0  0  0  0  0  0  0  0
  141.3030   71.1070  221.2480 H   0  0  0  0  0  0  0  0  0  0  0  0
  143.5979   73.6875  221.2909 H   0  0  0  0  0  0  0  0  0  0  0  0
  143.3026   74.2223  219.6627 H   0  0  0  0  0  0  0  0  0  0  0  0
  141.3144   73.9535  221.9956 H   0  0  0  0  0  0  0  0  0  0  0  0
  142.3151   76.0451  221.5669 H   0  0  0  0  0  0  0  0  0  0  0  0
  141.4469   76.0416  219.9668 H   0  0  0  0  0  0  0  0  0  0  0  0
  139.9773   78.0602  220.6221 H   0  0  0  0  0  0  0  0  0  0  0  0
  137.7911   78.2990  222.1619 H   0  0  0  0  0  0  0  0  0  0  0  0
  137.6918   76.0566  223.6582 H   0  0  0  0  0  0  0  0  0  0  0  0
  140.7632   72.8870  223.7328 H   0  0  0  0  0  0  0  0  0  0  0  0
  141.6530   72.1605  225.9247 H   0  0  0  0  0  0  0  0  0  0  0  0
  141.7524   70.5009  227.6000 H   0  0  0  0  0  0  0  0  0  0  0  0
  139.5883   66.8505  227.1862 H   0  0  0  0  0  0  0  0  0  0  0  0
  138.7157   67.5924  225.0053 H   0  0  0  0  0  0  0  0  0  0  0  0
  1  2  2  0
  2  3  1  0
  3  4  1  0
  4  5  1  0
  5  6  2  0
  5  7  1  0
  7  8  1  0
  8  9  1  0
  9 10  1  0
  9 11  1  0
 11 12  1  0
 12 13  1  0
 13 14  1  0
 14 15  1  0
 15 16  2  0
 16 17  1  0
 17 18  2  0
  2 19  1  0
 19 20  2  0
 20 21  1  0
 21 22  2  0
 22 23  1  0
 23 24  2  0
 24 25  1  0
 24 26  1  0
 26 27  2  0
 27 28  1  0
 28 29  2  0
 12  7  1  0
 18 14  1  0
 29 19  1  0
 28 22  1  0
  3 30  1  0
  4 31  1  0
  4 32  1  0
  8 33  1  0
  8 34  1  0
  9 35  1  6
 10 36  1  0
 11 37  1  0
 11 38  1  0
 12 39  1  1
 13 40  1  0
 13 41  1  0
 15 42  1  0
 16 43  1  0
 17 44  1  0
 20 45  1  0
 21 46  1  0
 23 47  1  0
 26 48  1  0
 27 49  1  0
M  END
>  <smiles>  (22) 
O=C(NCC(=O)N1C[C@H](O)C[C@H]1Cn1cccn1)c1ccc2cc(Cl)ccc2n1

>  <score_type>  (22) 
oracle

>  <origin>  (22) 
autodockgpu

>  <m_score__min__energy>  (22) 
-8.6699999999999999

>  <m_primary>  (22) 
energy

>  <rmsd>  (22) 
3.484461540495309

>  <m_score__min__rmsd>  (22) 
3.484461540495309

>  <meeko>  (22) 
{"free_energy": -6.11, "intermolecular_energy": -8.2, "internal_energy": -3.39, "cluster_size": 6, "cluster_id": 2, "rank_in_cluster": 4}

>  <energy>  (22) 
-6.85

>  <cluster_rmsd>  (22) 
1.83

>  <cluster>  (22) 
1

$$$$

     RDKit          3D

 49 52  0  0  0  0  0  0  0  0999 V2000
  140.2880   72.4710  220.8630 O   0  0  0  0  0  0  0  0  0  0  0  0
  139.9720   72.8740  222.0110 C   0  0  0  0  0  0  0  0  0  0  0  0
  139.5590   74.2040  222.2940 N   0  0  0  0  0  0  0  0  0  0  0  0
  139.4730   75.2060  221.2510 C   0  0  0  0  0  0  0  0  0  0  0  0
  138.8870   76.4670  221.7700 C   0  0  0  0  0  0  0  0  0  0  0  0
  138.2850   76.3870  222.8800 O   0  0  0  0  0  0  0  0  0  0  0  0
  138.9950   77.7120  221.0550 N   0  0  0  0  0  0  0  0  0  0  0  0
  137.8910   78.6360  220.9680 C   0  0  0  0  0  0  0  0  0  0  0  0
  138.4430   79.6320  219.9440 C   0  0  2  0  0  0  0  0  0  0  0  0
  138.1670   79.0910  218.6880 O   0  0  0  0  0  0  0  0  0  0  0  0
  139.9450   79.5990  220.1860 C   0  0  0  0  0  0  0  0  0  0  0  0
  140.1760   78.1410  220.3690 C   0  0  1  0  0  0  0  0  0  0  0  0
  141.4820   77.7970  221.0080 C   0  0  0  0  0  0  0  0  0  0  0  0
  141.8100   78.6720  222.1170 N   0  0  0  0  0  0  0  0  0  0  0  0
  141.4240   78.4540  223.4100 C   0  0  0  0  0  0  0  0  0  0  0  0
  141.9000   79.4740  224.2090 C   0  0  0  0  0  0  0  0  0  0  0  0
  142.5850   80.3100  223.3510 C   0  0  0  0  0  0  0  0  0  0  0  0
  142.5030   79.7970  222.1320 N   0  0  0  0  0  0  0  0  0  0  0  0
  140.0340   71.9110  223.1320 C   0  0  0  0  0  0  0  0  0  0  0  0
  139.6020   70.6160  222.9690 C   0  0  0  0  0  0  0  0  0  0  0  0
  139.6290   69.6670  223.9680 C   0  0  0  0  0  0  0  0  0  0  0  0
  140.1260   70.0700  225.1920 C   0  0  0  0  0  0  0  0  0  0  0  0
  140.1710   69.1470  226.2170 C   0  0  0  0  0  0  0  0  0  0  0  0
  140.6560   69.4880  227.4580 C   0  0  0  0  0  0  0  0  0  0  0  0
  140.6860   68.2760  228.7150 Cl  0  0  0  0  0  0  0  0  0  0  0  0
  141.0910   70.7780  227.6360 C   0  0  0  0  0  0  0  0  0  0  0  0
  141.0510   71.7140  226.6120 C   0  0  0  0  0  0  0  0  0  0  0  0
  140.5610   71.3770  225.3470 C   0  0  0  0  0  0  0  0  0  0  0  0
  140.5080   72.2570  224.3390 N   0  0  0  0  0  0  0  0  0  0  0  0
  139.2990   74.5240  223.2610 H   0  0  0  0  0  0  0  0  0  0  0  0
  140.4826   75.4109  220.8652 H   0  0  0  0  0  0  0  0  0  0  0  0
  138.8241   74.8223  220.4499 H   0  0  0  0  0  0  0  0  0  0  0  0
  136.9769   78.1439  220.6044 H   0  0  0  0  0  0  0  0  0  0  0  0
  137.5899   79.0830  221.9269 H   0  0  0  0  0  0  0  0  0  0  0  0
  138.0313   80.6497  220.0137 H   0  0  0  0  0  0  0  0  0  0  0  0
  138.1210   78.0880  218.7570 H   0  0  0  0  0  0  0  0  0  0  0  0
  140.5014   79.9899  219.3213 H   0  0  0  0  0  0  0  0  0  0  0  0
  140.2800   80.2188  221.0308 H   0  0  0  0  0  0  0  0  0  0  0  0
  140.3043   77.5968  219.4217 H   0  0  0  0  0  0  0  0  0  0  0  0
  141.4307   76.7627  221.3790 H   0  0  0  0  0  0  0  0  0  0  0  0
  142.2665   77.9174  220.2464 H   0  0  0  0  0  0  0  0  0  0  0  0
  140.8269   77.5988  223.7595 H   0  0  0  0  0  0  0  0  0  0  0  0
  141.7631   79.5943  225.2938 H   0  0  0  0  0  0  0  0  0  0  0  0
  143.1065   81.2376  223.6296 H   0  0  0  0  0  0  0  0  0  0  0  0
  139.2121   70.3201  221.9839 H   0  0  0  0  0  0  0  0  0  0  0  0
  139.2726   68.6401  223.7990 H   0  0  0  0  0  0  0  0  0  0  0  0
  139.8133   68.1222  226.0386 H   0  0  0  0  0  0  0  0  0  0  0  0
  141.4827   71.0785  228.6190 H   0  0  0  0  0  0  0  0  0  0  0  0
  141.4104   72.7367  226.7988 H   0  0  0  0  0  0  0  0  0  0  0  0
  1  2  2  0
  2  3  1  0
  3  4  1  0
  4  5  1  0
  5  6  2  0
  5  7  1  0
  7  8  1  0
  8  9  1  0
  9 10  1  0
  9 11  1  0
 11 12  1  0
 12 13  1  0
 13 14  1  0
 14 15  1  0
 15 16  2  0
 16 17  1  0
 17 18  2  0
  2 19  1  0
 19 20  2  0
 20 21  1  0
 21 22  2  0
 22 23  1  0
 23 24  2  0
 24 25  1  0
 24 26  1  0
 26 27  2  0
 27 28  1  0
 28 29  2  0
 12  7  1  0
 18 14  1  0
 29 19  1  0
 28 22  1  0
  3 30  1  0
  4 31  1  0
  4 32  1  0
  8 33  1  0
  8 34  1  0
  9 35  1  6
 10 36  1  0
 11 37  1  0
 11 38  1  0
 12 39  1  6
 13 40  1  0
 13 41  1  0
 15 42  1  0
 16 43  1  0
 17 44  1  0
 20 45  1  0
 21 46  1  0
 23 47  1  0
 26 48  1  0
 27 49  1  0
M  END
>  <smiles>  (23) 
O=C(NCC(=O)N1C[C@H](O)C[C@H]1Cn1cccn1)c1ccc2cc(Cl)ccc2n1

>  <score_type>  (23) 
oracle

>  <origin>  (23) 
autodockgpu

>  <m_score__min__energy>  (23) 
-8.6699999999999999

>  <m_primary>  (23) 
energy

>  <rmsd>  (23) 
2.6190859300728593

>  <m_score__min__rmsd>  (23) 
2.6190859300728593

>  <meeko>  (23) 
{"free_energy": -7.05, "intermolecular_energy": -9.14, "internal_energy": -2.07, "cluster_size": 24, "cluster_id": 1, "rank_in_cluster": 21}

>  <energy>  (23) 
-6.83

>  <cluster_rmsd>  (23) 
1.82

>  <cluster>  (23) 
1

$$$$

     RDKit          3D

 49 52  0  0  0  0  0  0  0  0999 V2000
  140.6200   72.5830  220.9280 O   0  0  0  0  0  0  0  0  0  0  0  0
  140.0130   72.8770  221.9890 C   0  0  0  0  0  0  0  0  0  0  0  0
  139.2850   74.0830  222.1700 N   0  0  0  0  0  0  0  0  0  0  0  0
  139.1910   75.0750  221.1190 C   0  0  0  0  0  0  0  0  0  0  0  0
  140.1890   76.1570  221.3160 C   0  0  0  0  0  0  0  0  0  0  0  0
  139.9990   76.9170  222.3100 O   0  0  0  0  0  0  0  0  0  0  0  0
  141.3110   76.3340  220.4310 N   0  0  0  0  0  0  0  0  0  0  0  0
  141.7920   75.2650  219.5910 C   0  0  0  0  0  0  0  0  0  0  0  0
  143.0850   75.8900  219.0590 C   0  0  2  0  0  0  0  0  0  0  0  0
  144.0600   75.6490  220.0280 O   0  0  0  0  0  0  0  0  0  0  0  0
  142.7720   77.3790  219.0210 C   0  0  0  0  0  0  0  0  0  0  0  0
  142.0470   77.5560  220.3070 C   0  0  1  0  0  0  0  0  0  0  0  0
  141.2610   78.8230  220.4040 C   0  0  0  0  0  0  0  0  0  0  0  0
  141.4360   79.4940  221.6780 N   0  0  0  0  0  0  0  0  0  0  0  0
  142.5600   79.3990  222.4500 C   0  0  0  0  0  0  0  0  0  0  0  0
  142.3970   80.1570  223.5920 C   0  0  0  0  0  0  0  0  0  0  0  0
  141.1370   80.7090  223.4770 C   0  0  0  0  0  0  0  0  0  0  0  0
  140.6120   80.2900  222.3360 N   0  0  0  0  0  0  0  0  0  0  0  0
  140.0610   71.9160  223.1110 C   0  0  0  0  0  0  0  0  0  0  0  0
  139.6220   70.6240  222.9480 C   0  0  0  0  0  0  0  0  0  0  0  0
  139.6350   69.6760  223.9490 C   0  0  0  0  0  0  0  0  0  0  0  0
  140.1260   70.0780  225.1760 C   0  0  0  0  0  0  0  0  0  0  0  0
  140.1570   69.1570  226.2030 C   0  0  0  0  0  0  0  0  0  0  0  0
  140.6360   69.4970  227.4470 C   0  0  0  0  0  0  0  0  0  0  0  0
  140.6480   68.2880  228.7060 Cl  0  0  0  0  0  0  0  0  0  0  0  0
  141.0780   70.7840  227.6250 C   0  0  0  0  0  0  0  0  0  0  0  0
  141.0520   71.7180  226.5990 C   0  0  0  0  0  0  0  0  0  0  0  0
  140.5690   71.3820  225.3320 C   0  0  0  0  0  0  0  0  0  0  0  0
  140.5290   72.2610  224.3210 N   0  0  0  0  0  0  0  0  0  0  0  0
  138.7830   74.3140  223.0660 H   0  0  0  0  0  0  0  0  0  0  0  0
  139.3738   74.5895  220.1490 H   0  0  0  0  0  0  0  0  0  0  0  0
  138.1846   75.5182  221.1452 H   0  0  0  0  0  0  0  0  0  0  0  0
  141.9908   74.3512  220.1702 H   0  0  0  0  0  0  0  0  0  0  0  0
  141.0857   74.9395  218.8130 H   0  0  0  0  0  0  0  0  0  0  0  0
  143.4220   75.5087  218.0838 H   0  0  0  0  0  0  0  0  0  0  0  0
  143.9430   76.2940  220.7900 H   0  0  0  0  0  0  0  0  0  0  0  0
  143.6907   77.9831  218.9900 H   0  0  0  0  0  0  0  0  0  0  0  0
  142.2032   77.6978  218.1351 H   0  0  0  0  0  0  0  0  0  0  0  0
  142.7142   77.7063  221.1686 H   0  0  0  0  0  0  0  0  0  0  0  0
  141.5863   79.5013  219.6014 H   0  0  0  0  0  0  0  0  0  0  0  0
  140.1966   78.5618  220.3094 H   0  0  0  0  0  0  0  0  0  0  0  0
  143.4549   78.8102  222.2001 H   0  0  0  0  0  0  0  0  0  0  0  0
  143.1148   80.2918  224.4145 H   0  0  0  0  0  0  0  0  0  0  0  0
  140.6546   81.3784  224.2045 H   0  0  0  0  0  0  0  0  0  0  0  0
  139.2375   70.3287  221.9606 H   0  0  0  0  0  0  0  0  0  0  0  0
  139.2727   68.6514  223.7792 H   0  0  0  0  0  0  0  0  0  0  0  0
  139.7929   68.1345  226.0242 H   0  0  0  0  0  0  0  0  0  0  0  0
  141.4644   71.0841  228.6102 H   0  0  0  0  0  0  0  0  0  0  0  0
  141.4173   72.7385  226.7862 H   0  0  0  0  0  0  0  0  0  0  0  0
  1  2  2  0
  2  3  1  0
  3  4  1  0
  4  5  1  0
  5  6  2  0
  5  7  1  0
  7  8  1  0
  8  9  1  0
  9 10  1  0
  9 11  1  0
 11 12  1  0
 12 13  1  0
 13 14  1  0
 14 15  1  0
 15 16  2  0
 16 17  1  0
 17 18  2  0
  2 19  1  0
 19 20  2  0
 20 21  1  0
 21 22  2  0
 22 23  1  0
 23 24  2  0
 24 25  1  0
 24 26  1  0
 26 27  2  0
 27 28  1  0
 28 29  2  0
 12  7  1  0
 18 14  1  0
 29 19  1  0
 28 22  1  0
  3 30  1  0
  4 31  1  0
  4 32  1  0
  8 33  1  0
  8 34  1  0
  9 35  1  6
 10 36  1  0
 11 37  1  0
 11 38  1  0
 12 39  1  1
 13 40  1  0
 13 41  1  0
 15 42  1  0
 16 43  1  0
 17 44  1  0
 20 45  1  0
 21 46  1  0
 23 47  1  0
 26 48  1  0
 27 49  1  0
M  END
>  <smiles>  (24) 
O=C(NCC(=O)N1C[C@H](O)C[C@H]1Cn1cccn1)c1ccc2cc(Cl)ccc2n1

>  <score_type>  (24) 
oracle

>  <origin>  (24) 
autodockgpu

>  <m_score__min__energy>  (24) 
-8.6699999999999999

>  <m_primary>  (24) 
energy

>  <rmsd>  (24) 
2.038506029450635

>  <m_score__min__rmsd>  (24) 
2.038506029450635

>  <meeko>  (24) 
{"free_energy": -8.14, "intermolecular_energy": -10.23, "internal_energy": -1.43, "cluster_size": 24, "cluster_id": 1, "rank_in_cluster": 7}

>  <energy>  (24) 
-6.7

>  <cluster_rmsd>  (24) 
1.84

>  <cluster>  (24) 
1

$$$$

     RDKit          3D

 49 52  0  0  0  0  0  0  0  0999 V2000
  136.6150   71.8420  221.5600 O   0  0  0  0  0  0  0  0  0  0  0  0
  137.0870   72.7260  222.3200 C   0  0  0  0  0  0  0  0  0  0  0  0
  138.4590   73.0950  222.3400 N   0  0  0  0  0  0  0  0  0  0  0  0
  139.4250   72.4630  221.4650 C   0  0  0  0  0  0  0  0  0  0  0  0
  139.6860   71.0620  221.8830 C   0  0  0  0  0  0  0  0  0  0  0  0
  140.5620   70.4360  221.2180 O   0  0  0  0  0  0  0  0  0  0  0  0
  138.9870   70.4480  222.9820 N   0  0  0  0  0  0  0  0  0  0  0  0
  137.9740   69.4440  222.7720 C   0  0  0  0  0  0  0  0  0  0  0  0
  137.4140   69.3130  224.1910 C   0  0  2  0  0  0  0  0  0  0  0  0
  136.4660   70.3270  224.3310 O   0  0  0  0  0  0  0  0  0  0  0  0
  138.6130   69.6200  225.0770 C   0  0  0  0  0  0  0  0  0  0  0  0
  139.2170   70.7730  224.3580 C   0  0  1  0  0  0  0  0  0  0  0  0
  140.6280   71.0740  224.7470 C   0  0  0  0  0  0  0  0  0  0  0  0
  140.8210   71.0890  226.1840 N   0  0  0  0  0  0  0  0  0  0  0  0
  141.0660   72.2160  226.9170 C   0  0  0  0  0  0  0  0  0  0  0  0
  141.2000   71.8780  228.2480 C   0  0  0  0  0  0  0  0  0  0  0  0
  141.0270   70.5090  228.2880 C   0  0  0  0  0  0  0  0  0  0  0  0
  140.8070   70.0910  227.0500 N   0  0  0  0  0  0  0  0  0  0  0  0
  136.1660   73.4190  223.2450 C   0  0  0  0  0  0  0  0  0  0  0  0
  136.0310   74.7860  223.2090 C   0  0  0  0  0  0  0  0  0  0  0  0
  135.1920   75.4970  224.0400 C   0  0  0  0  0  0  0  0  0  0  0  0
  134.4570   74.7650  224.9520 C   0  0  0  0  0  0  0  0  0  0  0  0
  133.6060   75.4420  225.8010 C   0  0  0  0  0  0  0  0  0  0  0  0
  132.8470   74.7680  226.7300 C   0  0  0  0  0  0  0  0  0  0  0  0
  131.7890   75.6810  227.7770 Cl  0  0  0  0  0  0  0  0  0  0  0  0
  132.9700   73.4020  226.7780 C   0  0  0  0  0  0  0  0  0  0  0  0
  133.8240   72.7120  225.9290 C   0  0  0  0  0  0  0  0  0  0  0  0
  134.5980   73.3870  224.9810 C   0  0  0  0  0  0  0  0  0  0  0  0
  135.4310   72.7500  224.1480 N   0  0  0  0  0  0  0  0  0  0  0  0
  138.8380   73.8360  222.9830 H   0  0  0  0  0  0  0  0  0  0  0  0
  139.0340   72.4646  220.4368 H   0  0  0  0  0  0  0  0  0  0  0  0
  140.3682   73.0263  221.5198 H   0  0  0  0  0  0  0  0  0  0  0  0
  137.2059   69.7842  222.0619 H   0  0  0  0  0  0  0  0  0  0  0  0
  138.3432   68.5040  222.3359 H   0  0  0  0  0  0  0  0  0  0  0  0
  136.9589   68.3394  224.4256 H   0  0  0  0  0  0  0  0  0  0  0  0
  136.5070   70.9370  223.5320 H   0  0  0  0  0  0  0  0  0  0  0  0
  138.3014   69.8981  226.0946 H   0  0  0  0  0  0  0  0  0  0  0  0
  139.2965   68.7703  225.2214 H   0  0  0  0  0  0  0  0  0  0  0  0
  138.7614   71.7394  224.6196 H   0  0  0  0  0  0  0  0  0  0  0  0
  141.2845   70.3062  224.3117 H   0  0  0  0  0  0  0  0  0  0  0  0
  140.8701   72.0781  224.3686 H   0  0  0  0  0  0  0  0  0  0  0  0
  141.1442   73.2346  226.5092 H   0  0  0  0  0  0  0  0  0  0  0  0
  141.4010   72.5526  229.0933 H   0  0  0  0  0  0  0  0  0  0  0  0
  141.0650   69.8774  229.1878 H   0  0  0  0  0  0  0  0  0  0  0  0
  136.6276   75.3459  222.4737 H   0  0  0  0  0  0  0  0  0  0  0  0
  135.1118   76.5924  223.9799 H   0  0  0  0  0  0  0  0  0  0  0  0
  133.5331   76.5376  225.7342 H   0  0  0  0  0  0  0  0  0  0  0  0
  132.3744   72.8376  227.5106 H   0  0  0  0  0  0  0  0  0  0  0  0
  133.8928   71.6167  226.0034 H   0  0  0  0  0  0  0  0  0  0  0  0
  1  2  2  0
  2  3  1  0
  3  4  1  0
  4  5  1  0
  5  6  2  0
  5  7  1  0
  7  8  1  0
  8  9  1  0
  9 10  1  0
  9 11  1  0
 11 12  1  0
 12 13  1  0
 13 14  1  0
 14 15  1  0
 15 16  2  0
 16 17  1  0
 17 18  2  0
  2 19  1  0
 19 20  2  0
 20 21  1  0
 21 22  2  0
 22 23  1  0
 23 24  2  0
 24 25  1  0
 24 26  1  0
 26 27  2  0
 27 28  1  0
 28 29  2  0
 12  7  1  0
 18 14  1  0
 29 19  1  0
 28 22  1  0
  3 30  1  0
  4 31  1  0
  4 32  1  0
  8 33  1  0
  8 34  1  0
  9 35  1  1
 10 36  1  0
 11 37  1  0
 11 38  1  0
 12 39  1  1
 13 40  1  0
 13 41  1  0
 15 42  1  0
 16 43  1  0
 17 44  1  0
 20 45  1  0
 21 46  1  0
 23 47  1  0
 26 48  1  0
 27 49  1  0
M  END
>  <smiles>  (25) 
O=C(NCC(=O)N1C[C@H](O)C[C@H]1Cn1cccn1)c1ccc2cc(Cl)ccc2n1

>  <score_type>  (25) 
oracle

>  <origin>  (25) 
autodockgpu

>  <m_score__min__energy>  (25) 
-8.6699999999999999

>  <m_primary>  (25) 
energy

>  <rmsd>  (25) 
7.9039261693813

>  <m_score__min__rmsd>  (25) 
7.9039261693813

>  <meeko>  (25) 
{"free_energy": -6.14, "intermolecular_energy": -8.22, "internal_energy": -2.92, "cluster_size": 1, "cluster_id": 7, "rank_in_cluster": 1}

>  <energy>  (25) 
-7.38

>  <cluster_rmsd>  (25) 
0.0

>  <cluster>  (25) 
2

$$$$

     RDKit          3D

 49 52  0  0  0  0  0  0  0  0999 V2000
  142.0510   73.5340  220.5680 O   0  0  0  0  0  0  0  0  0  0  0  0
  141.1530   74.2120  221.1290 C   0  0  0  0  0  0  0  0  0  0  0  0
  140.0030   73.6440  221.7400 N   0  0  0  0  0  0  0  0  0  0  0  0
  139.7870   72.2120  221.7580 C   0  0  0  0  0  0  0  0  0  0  0  0
  138.6010   71.8620  222.5790 C   0  0  0  0  0  0  0  0  0  0  0  0
  137.6920   72.7400  222.6500 O   0  0  0  0  0  0  0  0  0  0  0  0
  138.4850   70.5970  223.2570 N   0  0  0  0  0  0  0  0  0  0  0  0
  137.6990   69.5150  222.7180 C   0  0  0  0  0  0  0  0  0  0  0  0
  137.7240   68.5390  223.8970 C   0  0  2  0  0  0  0  0  0  0  0  0
  136.6980   68.9380  224.7540 O   0  0  0  0  0  0  0  0  0  0  0  0
  139.0660   68.8120  224.5590 C   0  0  0  0  0  0  0  0  0  0  0  0
  139.1170   70.2980  224.5070 C   0  0  1  0  0  0  0  0  0  0  0  0
  140.4770   70.8790  224.7240 C   0  0  0  0  0  0  0  0  0  0  0  0
  140.7220   71.2260  226.1100 N   0  0  0  0  0  0  0  0  0  0  0  0
  140.2270   70.5310  227.1780 C   0  0  0  0  0  0  0  0  0  0  0  0
  140.6480   71.1270  228.3480 C   0  0  0  0  0  0  0  0  0  0  0  0
  141.4140   72.2030  227.9460 C   0  0  0  0  0  0  0  0  0  0  0  0
  141.4280   72.2190  226.6220 N   0  0  0  0  0  0  0  0  0  0  0  0
  141.2990   75.6830  221.1520 C   0  0  0  0  0  0  0  0  0  0  0  0
  142.0040   76.3350  220.1680 C   0  0  0  0  0  0  0  0  0  0  0  0
  142.1820   77.7010  220.1270 C   0  0  0  0  0  0  0  0  0  0  0  0
  141.6050   78.4320  221.1480 C   0  0  0  0  0  0  0  0  0  0  0  0
  141.7600   79.8020  221.1410 C   0  0  0  0  0  0  0  0  0  0  0  0
  141.2080   80.5840  222.1300 C   0  0  0  0  0  0  0  0  0  0  0  0
  141.4400   82.3130  222.0670 Cl  0  0  0  0  0  0  0  0  0  0  0  0
  140.5010   79.9480  223.1200 C   0  0  0  0  0  0  0  0  0  0  0  0
  140.3390   78.5690  223.1360 C   0  0  0  0  0  0  0  0  0  0  0  0
  140.8950   77.7670  222.1360 C   0  0  0  0  0  0  0  0  0  0  0  0
  140.7570   76.4350  222.1240 N   0  0  0  0  0  0  0  0  0  0  0  0
  139.2600   74.2260  222.2030 H   0  0  0  0  0  0  0  0  0  0  0  0
  139.6281   71.8594  220.7282 H   0  0  0  0  0  0  0  0  0  0  0  0
  140.6722   71.7301  222.1987 H   0  0  0  0  0  0  0  0  0  0  0  0
  136.6747   69.8369  222.4787 H   0  0  0  0  0  0  0  0  0  0  0  0
  138.0767   69.1008  221.7715 H   0  0  0  0  0  0  0  0  0  0  0  0
  137.5987   67.4796  223.6288 H   0  0  0  0  0  0  0  0  0  0  0  0
  136.3410   69.8300  224.4580 H   0  0  0  0  0  0  0  0  0  0  0  0
  139.0865   68.4440  225.5954 H   0  0  0  0  0  0  0  0  0  0  0  0
  139.9183   68.3138  224.0739 H   0  0  0  0  0  0  0  0  0  0  0  0
  138.5924   70.7827  225.3436 H   0  0  0  0  0  0  0  0  0  0  0  0
  141.2294   70.1416  224.4075 H   0  0  0  0  0  0  0  0  0  0  0  0
  140.5412   71.8046  224.1332 H   0  0  0  0  0  0  0  0  0  0  0  0
  139.5916   69.6354  227.1140 H   0  0  0  0  0  0  0  0  0  0  0  0
  140.4225   70.8133  229.3779 H   0  0  0  0  0  0  0  0  0  0  0  0
  141.9223   72.9196  228.6079 H   0  0  0  0  0  0  0  0  0  0  0  0
  142.4526   75.7305  219.3659 H   0  0  0  0  0  0  0  0  0  0  0  0
  142.7546   78.1851  219.3221 H   0  0  0  0  0  0  0  0  0  0  0  0
  142.3340   80.2776  220.3321 H   0  0  0  0  0  0  0  0  0  0  0  0
  140.0498   80.5481  223.9239 H   0  0  0  0  0  0  0  0  0  0  0  0
  139.7641   78.1007  223.9485 H   0  0  0  0  0  0  0  0  0  0  0  0
  1  2  2  0
  2  3  1  0
  3  4  1  0
  4  5  1  0
  5  6  2  0
  5  7  1  0
  7  8  1  0
  8  9  1  0
  9 10  1  0
  9 11  1  0
 11 12  1  0
 12 13  1  0
 13 14  1  0
 14 15  1  0
 15 16  2  0
 16 17  1  0
 17 18  2  0
  2 19  1  0
 19 20  2  0
 20 21  1  0
 21 22  2  0
 22 23  1  0
 23 24  2  0
 24 25  1  0
 24 26  1  0
 26 27  2  0
 27 28  1  0
 28 29  2  0
 12  7  1  0
 18 14  1  0
 29 19  1  0
 28 22  1  0
  3 30  1  0
  4 31  1  0
  4 32  1  0
  8 33  1  0
  8 34  1  0
  9 35  1  6
 10 36  1  0
 11 37  1  0
 11 38  1  0
 12 39  1  1
 13 40  1  0
 13 41  1  0
 15 42  1  0
 16 43  1  0
 17 44  1  0
 20 45  1  0
 21 46  1  0
 23 47  1  0
 26 48  1  0
 27 49  1  0
M  END
>  <smiles>  (26) 
O=C(NCC(=O)N1C[C@H](O)C[C@H]1Cn1cccn1)c1ccc2cc(Cl)ccc2n1

>  <score_type>  (26) 
oracle

>  <origin>  (26) 
autodockgpu

>  <m_score__min__energy>  (26) 
-8.6699999999999999

>  <m_primary>  (26) 
energy

>  <rmsd>  (26) 
8.803683585948072

>  <m_score__min__rmsd>  (26) 
8.803683585948072

>  <meeko>  (26) 
{"free_energy": -6.78, "intermolecular_energy": -8.87, "internal_energy": -1.89, "cluster_size": 1, "cluster_id": 4, "rank_in_cluster": 1}

>  <energy>  (26) 
-7.31

>  <cluster_rmsd>  (26) 
0.55

>  <cluster>  (26) 
2

$$$$

     RDKit          3D

 49 52  0  0  0  0  0  0  0  0999 V2000
  138.6260   72.2580  220.5850 O   0  0  0  0  0  0  0  0  0  0  0  0
  137.7840   72.1570  221.5130 C   0  0  0  0  0  0  0  0  0  0  0  0
  136.4690   72.6920  221.4450 N   0  0  0  0  0  0  0  0  0  0  0  0
  136.0040   73.4050  220.2730 C   0  0  0  0  0  0  0  0  0  0  0  0
  136.7960   74.6410  220.0510 C   0  0  0  0  0  0  0  0  0  0  0  0
  136.4960   75.3200  219.0270 O   0  0  0  0  0  0  0  0  0  0  0  0
  137.8470   75.0480  220.9480 N   0  0  0  0  0  0  0  0  0  0  0  0
  139.2050   75.2250  220.4970 C   0  0  0  0  0  0  0  0  0  0  0  0
  139.9200   75.4180  221.8370 C   0  0  2  0  0  0  0  0  0  0  0  0
  140.1860   74.1370  222.3230 O   0  0  0  0  0  0  0  0  0  0  0  0
  138.8660   76.0790  222.7130 C   0  0  0  0  0  0  0  0  0  0  0  0
  137.6540   75.3010  222.3440 C   0  0  1  0  0  0  0  0  0  0  0  0
  136.3630   75.9450  222.7340 C   0  0  0  0  0  0  0  0  0  0  0  0
  135.6600   75.2100  223.7680 N   0  0  0  0  0  0  0  0  0  0  0  0
  135.0860   75.7840  224.8670 C   0  0  0  0  0  0  0  0  0  0  0  0
  134.5040   74.8050  225.6450 C   0  0  0  0  0  0  0  0  0  0  0  0
  134.7490   73.6230  224.9750 C   0  0  0  0  0  0  0  0  0  0  0  0
  135.4320   73.9120  223.8770 N   0  0  0  0  0  0  0  0  0  0  0  0
  138.1820   71.4430  222.7450 C   0  0  0  0  0  0  0  0  0  0  0  0
  137.4520   70.3720  223.2030 C   0  0  0  0  0  0  0  0  0  0  0  0
  137.7650   69.6610  224.3420 C   0  0  0  0  0  0  0  0  0  0  0  0
  138.8830   70.0720  225.0420 C   0  0  0  0  0  0  0  0  0  0  0  0
  139.2280   69.3840  226.1870 C   0  0  0  0  0  0  0  0  0  0  0  0
  140.3310   69.7450  226.9260 C   0  0  0  0  0  0  0  0  0  0  0  0
  140.7160   68.8370  228.3660 Cl  0  0  0  0  0  0  0  0  0  0  0  0
  141.0700   70.8120  226.4810 C   0  0  0  0  0  0  0  0  0  0  0  0
  140.7320   71.5110  225.3300 C   0  0  0  0  0  0  0  0  0  0  0  0
  139.6140   71.1520  224.5720 C   0  0  0  0  0  0  0  0  0  0  0  0
  139.2610   71.8060  223.4580 N   0  0  0  0  0  0  0  0  0  0  0  0
  135.7770   72.5990  222.2320 H   0  0  0  0  0  0  0  0  0  0  0  0
  136.1020   72.7524  219.3929 H   0  0  0  0  0  0  0  0  0  0  0  0
  134.9523   73.6870  220.4296 H   0  0  0  0  0  0  0  0  0  0  0  0
  139.5749   74.3371  219.9633 H   0  0  0  0  0  0  0  0  0  0  0  0
  139.3466   76.0462  219.7790 H   0  0  0  0  0  0  0  0  0  0  0  0
  140.8503   76.0031  221.7903 H   0  0  0  0  0  0  0  0  0  0  0  0
  139.3850   73.5480  222.1720 H   0  0  0  0  0  0  0  0  0  0  0  0
  139.1044   75.9711  223.7814 H   0  0  0  0  0  0  0  0  0  0  0  0
  138.7691   77.1642  222.5615 H   0  0  0  0  0  0  0  0  0  0  0  0
  137.5499   74.3616  222.9068 H   0  0  0  0  0  0  0  0  0  0  0  0
  136.5736   76.9591  223.1046 H   0  0  0  0  0  0  0  0  0  0  0  0
  135.7184   75.9628  221.8428 H   0  0  0  0  0  0  0  0  0  0  0  0
  135.0877   76.8599  225.0958 H   0  0  0  0  0  0  0  0  0  0  0  0
  133.9624   74.9373  226.5932 H   0  0  0  0  0  0  0  0  0  0  0  0
  134.4332   72.6193  225.2958 H   0  0  0  0  0  0  0  0  0  0  0  0
  136.5666   70.0644  222.6273 H   0  0  0  0  0  0  0  0  0  0  0  0
  137.1550   68.8090  224.6767 H   0  0  0  0  0  0  0  0  0  0  0  0
  138.6117   68.5336  226.5142 H   0  0  0  0  0  0  0  0  0  0  0  0
  141.9566   71.1228  227.0532 H   0  0  0  0  0  0  0  0  0  0  0  0
  141.3535   72.3602  225.0098 H   0  0  0  0  0  0  0  0  0  0  0  0
  1  2  2  0
  2  3  1  0
  3  4  1  0
  4  5  1  0
  5  6  2  0
  5  7  1  0
  7  8  1  0
  8  9  1  0
  9 10  1  0
  9 11  1  0
 11 12  1  0
 12 13  1  0
 13 14  1  0
 14 15  1  0
 15 16  2  0
 16 17  1  0
 17 18  2  0
  2 19  1  0
 19 20  2  0
 20 21  1  0
 21 22  2  0
 22 23  1  0
 23 24  2  0
 24 25  1  0
 24 26  1  0
 26 27  2  0
 27 28  1  0
 28 29  2  0
 12  7  1  0
 18 14  1  0
 29 19  1  0
 28 22  1  0
  3 30  1  0
  4 31  1  0
  4 32  1  0
  8 33  1  0
  8 34  1  0
  9 35  1  6
 10 36  1  0
 11 37  1  0
 11 38  1  0
 12 39  1  1
 13 40  1  0
 13 41  1  0
 15 42  1  0
 16 43  1  0
 17 44  1  0
 20 45  1  0
 21 46  1  0
 23 47  1  0
 26 48  1  0
 27 49  1  0
M  END
>  <smiles>  (27) 
O=C(NCC(=O)N1C[C@H](O)C[C@H]1Cn1cccn1)c1ccc2cc(Cl)ccc2n1

>  <score_type>  (27) 
oracle

>  <origin>  (27) 
autodockgpu

>  <m_score__min__energy>  (27) 
-8.6699999999999999

>  <m_primary>  (27) 
energy

>  <rmsd>  (27) 
4.400045768261622

>  <m_score__min__rmsd>  (27) 
4.400045768261622

>  <meeko>  (27) 
{"free_energy": -5.61, "intermolecular_energy": -7.7, "internal_energy": -3.97, "cluster_size": 10, "cluster_id": 6, "rank_in_cluster": 8}

>  <energy>  (27) 
-7.29

>  <cluster_rmsd>  (27) 
0.31

>  <cluster>  (27) 
2

$$$$

     RDKit          3D

 49 52  0  0  0  0  0  0  0  0999 V2000
  139.9150   71.6730  220.8660 O   0  0  0  0  0  0  0  0  0  0  0  0
  139.8150   72.2030  222.0020 C   0  0  0  0  0  0  0  0  0  0  0  0
  139.6140   73.5940  222.2070 N   0  0  0  0  0  0  0  0  0  0  0  0
  139.5080   74.5140  221.0930 C   0  0  0  0  0  0  0  0  0  0  0  0
  139.9070   75.8870  221.4950 C   0  0  0  0  0  0  0  0  0  0  0  0
  139.4380   76.3050  222.5930 O   0  0  0  0  0  0  0  0  0  0  0  0
  140.7780   76.6990  220.6850 N   0  0  0  0  0  0  0  0  0  0  0  0
  141.0830   76.3560  219.3180 C   0  0  0  0  0  0  0  0  0  0  0  0
  142.1880   77.3720  219.0160 C   0  0  2  0  0  0  0  0  0  0  0  0
  143.3740   76.8070  219.4860 O   0  0  0  0  0  0  0  0  0  0  0  0
  141.8220   78.5660  219.8850 C   0  0  0  0  0  0  0  0  0  0  0  0
  141.4190   77.8920  221.1490 C   0  0  1  0  0  0  0  0  0  0  0  0
  140.6330   78.7520  222.0850 C   0  0  0  0  0  0  0  0  0  0  0  0
  141.4680   79.6670  222.8390 N   0  0  0  0  0  0  0  0  0  0  0  0
  141.1980   80.9960  223.0070 C   0  0  0  0  0  0  0  0  0  0  0  0
  142.1910   81.5720  223.7720 C   0  0  0  0  0  0  0  0  0  0  0  0
  143.0660   80.5430  224.0580 C   0  0  0  0  0  0  0  0  0  0  0  0
  142.5980   79.4430  223.4870 N   0  0  0  0  0  0  0  0  0  0  0  0
  139.9120   71.3310  223.1920 C   0  0  0  0  0  0  0  0  0  0  0  0
  139.4880   70.0240  223.1420 C   0  0  0  0  0  0  0  0  0  0  0  0
  139.5480   69.1560  224.2110 C   0  0  0  0  0  0  0  0  0  0  0  0
  140.0720   69.6570  225.3870 C   0  0  0  0  0  0  0  0  0  0  0  0
  140.1490   68.8170  226.4790 C   0  0  0  0  0  0  0  0  0  0  0  0
  140.6610   69.2570  227.6780 C   0  0  0  0  0  0  0  0  0  0  0  0
  140.7320   68.1470  229.0240 Cl  0  0  0  0  0  0  0  0  0  0  0  0
  141.0890   70.5590  227.7430 C   0  0  0  0  0  0  0  0  0  0  0  0
  141.0160   71.4130  226.6510 C   0  0  0  0  0  0  0  0  0  0  0  0
  140.4980   70.9750  225.4290 C   0  0  0  0  0  0  0  0  0  0  0  0
  140.4130   71.7730  224.3570 N   0  0  0  0  0  0  0  0  0  0  0  0
  139.5330   74.0220  223.1640 H   0  0  0  0  0  0  0  0  0  0  0  0
  140.1658   74.1719  220.2804 H   0  0  0  0  0  0  0  0  0  0  0  0
  138.4606   74.5381  220.7576 H   0  0  0  0  0  0  0  0  0  0  0  0
  141.4471   75.3217  219.2302 H   0  0  0  0  0  0  0  0  0  0  0  0
  140.2236   76.3957  218.6325 H   0  0  0  0  0  0  0  0  0  0  0  0
  142.2957   77.6442  217.9557 H   0  0  0  0  0  0  0  0  0  0  0  0
  143.8230   77.4460  220.1190 H   0  0  0  0  0  0  0  0  0  0  0  0
  142.6845   79.2309  220.0401 H   0  0  0  0  0  0  0  0  0  0  0  0
  141.0471   79.2170  219.4540 H   0  0  0  0  0  0  0  0  0  0  0  0
  142.2669   77.6567  221.8091 H   0  0  0  0  0  0  0  0  0  0  0  0
  139.9082   79.3375  221.5003 H   0  0  0  0  0  0  0  0  0  0  0  0
  140.1328   78.0881  222.8055 H   0  0  0  0  0  0  0  0  0  0  0  0
  140.3249   81.5242  222.5962 H   0  0  0  0  0  0  0  0  0  0  0  0
  142.2688   82.6233  224.0861 H   0  0  0  0  0  0  0  0  0  0  0  0
  143.9873   80.6224  224.6537 H   0  0  0  0  0  0  0  0  0  0  0  0
  139.0768   69.6491  222.1931 H   0  0  0  0  0  0  0  0  0  0  0  0
  139.1964   68.1167  224.1318 H   0  0  0  0  0  0  0  0  0  0  0  0
  139.7955   67.7792  226.3896 H   0  0  0  0  0  0  0  0  0  0  0  0
  141.5026   70.9377  228.6893 H   0  0  0  0  0  0  0  0  0  0  0  0
  141.3710   72.4495  226.7489 H   0  0  0  0  0  0  0  0  0  0  0  0
  1  2  2  0
  2  3  1  0
  3  4  1  0
  4  5  1  0
  5  6  2  0
  5  7  1  0
  7  8  1  0
  8  9  1  0
  9 10  1  0
  9 11  1  0
 11 12  1  0
 12 13  1  0
 13 14  1  0
 14 15  1  0
 15 16  2  0
 16 17  1  0
 17 18  2  0
  2 19  1  0
 19 20  2  0
 20 21  1  0
 21 22  2  0
 22 23  1  0
 23 24  2  0
 24 25  1  0
 24 26  1  0
 26 27  2  0
 27 28  1  0
 28 29  2  0
 12  7  1  0
 18 14  1  0
 29 19  1  0
 28 22  1  0
  3 30  1  0
  4 31  1  0
  4 32  1  0
  8 33  1  0
  8 34  1  0
  9 35  1  6
 10 36  1  0
 11 37  1  0
 11 38  1  0
 12 39  1  1
 13 40  1  0
 13 41  1  0
 15 42  1  0
 16 43  1  0
 17 44  1  0
 20 45  1  0
 21 46  1  0
 23 47  1  0
 26 48  1  0
 27 49  1  0
M  END
>  <smiles>  (28) 
O=C(NCC(=O)N1C[C@H](O)C[C@H]1Cn1cccn1)c1ccc2cc(Cl)ccc2n1

>  <score_type>  (28) 
oracle

>  <origin>  (28) 
autodockgpu

>  <m_score__min__energy>  (28) 
-8.6699999999999999

>  <m_primary>  (28) 
energy

>  <rmsd>  (28) 
1.9760291411338862

>  <m_score__min__rmsd>  (28) 
1.9760291411338862

>  <meeko>  (28) 
{"free_energy": -8.53, "intermolecular_energy": -10.62, "internal_energy": -1.53, "cluster_size": 24, "cluster_id": 1, "rank_in_cluster": 3}

>  <energy>  (28) 
-6.11

>  <cluster_rmsd>  (28) 
1.98

>  <cluster>  (28) 
2

$$$$

     RDKit          3D

 49 52  0  0  0  0  0  0  0  0999 V2000
  139.1520   72.4350  220.4930 O   0  0  0  0  0  0  0  0  0  0  0  0
  139.7870   72.8110  221.5100 C   0  0  0  0  0  0  0  0  0  0  0  0
  140.4530   74.0630  221.6040 N   0  0  0  0  0  0  0  0  0  0  0  0
  140.4420   75.0090  220.5070 C   0  0  0  0  0  0  0  0  0  0  0  0
  141.0140   76.3140  220.9220 C   0  0  0  0  0  0  0  0  0  0  0  0
  141.2530   76.4510  222.1570 O   0  0  0  0  0  0  0  0  0  0  0  0
  141.2830   77.3670  219.9780 N   0  0  0  0  0  0  0  0  0  0  0  0
  141.3730   77.1130  218.5610 C   0  0  0  0  0  0  0  0  0  0  0  0
  141.8880   78.4680  218.0670 C   0  0  2  0  0  0  0  0  0  0  0  0
  143.2740   78.4360  218.2220 O   0  0  0  0  0  0  0  0  0  0  0  0
  141.2940   79.4580  219.0580 C   0  0  0  0  0  0  0  0  0  0  0  0
  141.4920   78.7360  220.3430 C   0  0  1  0  0  0  0  0  0  0  0  0
  140.6720   79.2570  221.4790 C   0  0  0  0  0  0  0  0  0  0  0  0
  141.4590   80.0050  222.4400 N   0  0  0  0  0  0  0  0  0  0  0  0
  142.7170   79.6560  222.8440 C   0  0  0  0  0  0  0  0  0  0  0  0
  143.1760   80.5770  223.7620 C   0  0  0  0  0  0  0  0  0  0  0  0
  142.1500   81.4910  223.8950 C   0  0  0  0  0  0  0  0  0  0  0  0
  141.1630   81.1120  223.0980 N   0  0  0  0  0  0  0  0  0  0  0  0
  139.8460   71.9020  222.6740 C   0  0  0  0  0  0  0  0  0  0  0  0
  139.3100   70.6380  222.6060 C   0  0  0  0  0  0  0  0  0  0  0  0
  139.3280   69.7390  223.6510 C   0  0  0  0  0  0  0  0  0  0  0  0
  139.9290   70.1610  224.8210 C   0  0  0  0  0  0  0  0  0  0  0  0
  139.9680   69.2880  225.8880 C   0  0  0  0  0  0  0  0  0  0  0  0
  140.5530   69.6500  227.0800 C   0  0  0  0  0  0  0  0  0  0  0  0
  140.5700   68.5020  228.3950 Cl  0  0  0  0  0  0  0  0  0  0  0  0
  141.0940   70.9090  227.1640 C   0  0  0  0  0  0  0  0  0  0  0  0
  141.0600   71.7950  226.0950 C   0  0  0  0  0  0  0  0  0  0  0  0
  140.4690   71.4360  224.8810 C   0  0  0  0  0  0  0  0  0  0  0  0
  140.4190   72.2680  223.8320 N   0  0  0  0  0  0  0  0  0  0  0  0
  140.9810   74.3620  222.4630 H   0  0  0  0  0  0  0  0  0  0  0  0
  141.0382   74.6031  219.6764 H   0  0  0  0  0  0  0  0  0  0  0  0
  139.3999   75.1680  220.1929 H   0  0  0  0  0  0  0  0  0  0  0  0
  142.0828   76.3028  218.3379 H   0  0  0  0  0  0  0  0  0  0  0  0
  140.4338   76.7816  218.0941 H   0  0  0  0  0  0  0  0  0  0  0  0
  141.6320   78.7146  217.0260 H   0  0  0  0  0  0  0  0  0  0  0  0
  143.7040   79.0010  217.5090 H   0  0  0  0  0  0  0  0  0  0  0  0
  141.8364   80.4149  219.0458 H   0  0  0  0  0  0  0  0  0  0  0  0
  140.2489   79.7317  218.8507 H   0  0  0  0  0  0  0  0  0  0  0  0
  142.4921   78.8833  220.7767 H   0  0  0  0  0  0  0  0  0  0  0  0
  139.8899   79.9166  221.0750 H   0  0  0  0  0  0  0  0  0  0  0  0
  140.2424   78.3908  222.0035 H   0  0  0  0  0  0  0  0  0  0  0  0
  143.2765   78.7769  222.4916 H   0  0  0  0  0  0  0  0  0  0  0  0
  144.1483   80.5822  224.2764 H   0  0  0  0  0  0  0  0  0  0  0  0
  142.1521   82.3768  224.5472 H   0  0  0  0  0  0  0  0  0  0  0  0
  138.8390   70.3255  221.6623 H   0  0  0  0  0  0  0  0  0  0  0  0
  138.8860   68.7360  223.5578 H   0  0  0  0  0  0  0  0  0  0  0  0
  139.5246   68.2867  225.7847 H   0  0  0  0  0  0  0  0  0  0  0  0
  141.5680   71.2251  228.1050 H   0  0  0  0  0  0  0  0  0  0  0  0
  141.5052   72.7947  226.2059 H   0  0  0  0  0  0  0  0  0  0  0  0
  1  2  2  0
  2  3  1  0
  3  4  1  0
  4  5  1  0
  5  6  2  0
  5  7  1  0
  7  8  1  0
  8  9  1  0
  9 10  1  0
  9 11  1  0
 11 12  1  0
 12 13  1  0
 13 14  1  0
 14 15  1  0
 15 16  2  0
 16 17  1  0
 17 18  2  0
  2 19  1  0
 19 20  2  0
 20 21  1  0
 21 22  2  0
 22 23  1  0
 23 24  2  0
 24 25  1  0
 24 26  1  0
 26 27  2  0
 27 28  1  0
 28 29  2  0
 12  7  1  0
 18 14  1  0
 29 19  1  0
 28 22  1  0
  3 30  1  0
  4 31  1  0
  4 32  1  0
  8 33  1  0
  8 34  1  0
  9 35  1  6
 10 36  1  0
 11 37  1  0
 11 38  1  0
 12 39  1  1
 13 40  1  0
 13 41  1  0
 15 42  1  0
 16 43  1  0
 17 44  1  0
 20 45  1  0
 21 46  1  0
 23 47  1  0
 26 48  1  0
 27 49  1  0
M  END
>  <smiles>  (29) 
O=C(NCC(=O)N1C[C@H](O)C[C@H]1Cn1cccn1)c1ccc2cc(Cl)ccc2n1

>  <score_type>  (29) 
oracle

>  <origin>  (29) 
autodockgpu

>  <m_score__min__energy>  (29) 
-8.6699999999999999

>  <m_primary>  (29) 
energy

>  <rmsd>  (29) 
2.3315832689907854

>  <m_score__min__rmsd>  (29) 
2.3315832689907854

>  <meeko>  (29) 
{"free_energy": -7.66, "intermolecular_energy": -9.75, "internal_energy": -1.96, "cluster_size": 24, "cluster_id": 1, "rank_in_cluster": 11}

>  <energy>  (29) 
-5.86

>  <cluster_rmsd>  (29) 
1.93

>  <cluster>  (29) 
2

$$$$

     RDKit          3D

 49 52  0  0  0  0  0  0  0  0999 V2000
  137.4820   71.3760  221.2470 O   0  0  0  0  0  0  0  0  0  0  0  0
  137.4210   71.8450  222.4120 C   0  0  0  0  0  0  0  0  0  0  0  0
  136.8330   73.1000  222.7260 N   0  0  0  0  0  0  0  0  0  0  0  0
  136.2520   73.9400  221.6990 C   0  0  0  0  0  0  0  0  0  0  0  0
  137.2170   74.9730  221.2450 C   0  0  0  0  0  0  0  0  0  0  0  0
  136.7220   75.9820  220.6650 O   0  0  0  0  0  0  0  0  0  0  0  0
  138.6360   74.8380  221.4520 N   0  0  0  0  0  0  0  0  0  0  0  0
  139.4040   73.8060  220.8020 C   0  0  0  0  0  0  0  0  0  0  0  0
  140.7450   73.9610  221.5230 C   0  0  2  0  0  0  0  0  0  0  0  0
  140.6400   73.2230  222.7030 O   0  0  0  0  0  0  0  0  0  0  0  0
  140.8000   75.4440  221.8610 C   0  0  0  0  0  0  0  0  0  0  0  0
  139.4030   75.6900  222.3100 C   0  0  1  0  0  0  0  0  0  0  0  0
  139.0100   77.1310  222.3480 C   0  0  0  0  0  0  0  0  0  0  0  0
  140.1520   78.0230  222.3340 N   0  0  0  0  0  0  0  0  0  0  0  0
  140.6820   78.6140  223.4470 C   0  0  0  0  0  0  0  0  0  0  0  0
  141.7560   79.3990  223.0820 C   0  0  0  0  0  0  0  0  0  0  0  0
  141.8530   79.2580  221.7130 C   0  0  0  0  0  0  0  0  0  0  0  0
  140.8890   78.4400  221.3190 N   0  0  0  0  0  0  0  0  0  0  0  0
  137.9940   71.0480  223.5170 C   0  0  0  0  0  0  0  0  0  0  0  0
  137.5080   69.7940  223.8040 C   0  0  0  0  0  0  0  0  0  0  0  0
  137.9920   68.9970  224.8190 C   0  0  0  0  0  0  0  0  0  0  0  0
  139.0270   69.5140  225.5730 C   0  0  0  0  0  0  0  0  0  0  0  0
  139.5390   68.7450  226.5970 C   0  0  0  0  0  0  0  0  0  0  0  0
  140.5700   69.2050  227.3830 C   0  0  0  0  0  0  0  0  0  0  0  0
  141.1750   68.1850  228.6650 Cl  0  0  0  0  0  0  0  0  0  0  0  0
  141.0670   70.4540  227.1090 C   0  0  0  0  0  0  0  0  0  0  0  0
  140.5590   71.2370  226.0810 C   0  0  0  0  0  0  0  0  0  0  0  0
  139.5120   70.7780  225.2770 C   0  0  0  0  0  0  0  0  0  0  0  0
  139.0000   71.5090  224.2780 N   0  0  0  0  0  0  0  0  0  0  0  0
  136.7920   73.4780  223.7060 H   0  0  0  0  0  0  0  0  0  0  0  0
  135.9663   73.3134  220.8413 H   0  0  0  0  0  0  0  0  0  0  0  0
  135.3700   74.4459  222.1187 H   0  0  0  0  0  0  0  0  0  0  0  0
  138.9671   72.8100  220.9665 H   0  0  0  0  0  0  0  0  0  0  0  0
  139.4590   73.8961  219.7071 H   0  0  0  0  0  0  0  0  0  0  0  0
  141.6240   73.6303  220.9503 H   0  0  0  0  0  0  0  0  0  0  0  0
  139.6800   73.2030  223.0010 H   0  0  0  0  0  0  0  0  0  0  0  0
  141.5234   75.6478  222.6642 H   0  0  0  0  0  0  0  0  0  0  0  0
  141.1262   76.0850  221.0287 H   0  0  0  0  0  0  0  0  0  0  0  0
  139.2334   75.4433  223.3685 H   0  0  0  0  0  0  0  0  0  0  0  0
  138.3832   77.3480  221.4705 H   0  0  0  0  0  0  0  0  0  0  0  0
  138.4663   77.3023  223.2888 H   0  0  0  0  0  0  0  0  0  0  0  0
  140.3099   78.4838  224.4739 H   0  0  0  0  0  0  0  0  0  0  0  0
  142.3960   80.0056  223.7396 H   0  0  0  0  0  0  0  0  0  0  0  0
  142.5989   79.7397  221.0638 H   0  0  0  0  0  0  0  0  0  0  0  0
  136.6847   69.4042  223.1874 H   0  0  0  0  0  0  0  0  0  0  0  0
  137.5747   67.9990  225.0185 H   0  0  0  0  0  0  0  0  0  0  0  0
  139.1161   67.7477  226.7883 H   0  0  0  0  0  0  0  0  0  0  0  0
  141.8920   70.8466  227.7216 H   0  0  0  0  0  0  0  0  0  0  0  0
  140.9870   72.2334  225.8966 H   0  0  0  0  0  0  0  0  0  0  0  0
  1  2  2  0
  2  3  1  0
  3  4  1  0
  4  5  1  0
  5  6  2  0
  5  7  1  0
  7  8  1  0
  8  9  1  0
  9 10  1  0
  9 11  1  0
 11 12  1  0
 12 13  1  0
 13 14  1  0
 14 15  1  0
 15 16  2  0
 16 17  1  0
 17 18  2  0
  2 19  1  0
 19 20  2  0
 20 21  1  0
 21 22  2  0
 22 23  1  0
 23 24  2  0
 24 25  1  0
 24 26  1  0
 26 27  2  0
 27 28  1  0
 28 29  2  0
 12  7  1  0
 18 14  1  0
 29 19  1  0
 28 22  1  0
  3 30  1  0
  4 31  1  0
  4 32  1  0
  8 33  1  0
  8 34  1  0
  9 35  1  6
 10 36  1  0
 11 37  1  0
 11 38  1  0
 12 39  1  1
 13 40  1  0
 13 41  1  0
 15 42  1  0
 16 43  1  0
 17 44  1  0
 20 45  1  0
 21 46  1  0
 23 47  1  0
 26 48  1  0
 27 49  1  0
M  END
>  <smiles>  (30) 
O=C(NCC(=O)N1C[C@H](O)C[C@H]1Cn1cccn1)c1ccc2cc(Cl)ccc2n1

>  <score_type>  (30) 
oracle

>  <origin>  (30) 
autodockgpu

>  <m_score__min__energy>  (30) 
-8.6699999999999999

>  <m_primary>  (30) 
energy

>  <rmsd>  (30) 
2.4038006727121806

>  <m_score__min__rmsd>  (30) 
2.4038006727121806

>  <meeko>  (30) 
{"free_energy": -7.25, "intermolecular_energy": -9.34, "internal_energy": -2.36, "cluster_size": 24, "cluster_id": 1, "rank_in_cluster": 16}

>  <energy>  (30) 
-5.85

>  <cluster_rmsd>  (30) 
1.77

>  <cluster>  (30) 
2

$$$$

     RDKit          3D

 49 52  0  0  0  0  0  0  0  0999 V2000
  139.9130   72.0170  220.7310 O   0  0  0  0  0  0  0  0  0  0  0  0
  139.8250   72.5010  221.8880 C   0  0  0  0  0  0  0  0  0  0  0  0
  139.6450   73.8860  222.1510 N   0  0  0  0  0  0  0  0  0  0  0  0
  139.5470   74.8520  221.0760 C   0  0  0  0  0  0  0  0  0  0  0  0
  140.5590   75.9280  221.2320 C   0  0  0  0  0  0  0  0  0  0  0  0
  140.7480   76.3490  222.4100 O   0  0  0  0  0  0  0  0  0  0  0  0
  141.2870   76.4630  220.1100 N   0  0  0  0  0  0  0  0  0  0  0  0
  141.5380   75.6810  218.9250 C   0  0  0  0  0  0  0  0  0  0  0  0
  142.5090   76.6050  218.1840 C   0  0  2  0  0  0  0  0  0  0  0  0
  143.7750   76.3350  218.7040 O   0  0  0  0  0  0  0  0  0  0  0  0
  142.0750   77.9980  218.6150 C   0  0  0  0  0  0  0  0  0  0  0  0
  141.8270   77.7880  220.0660 C   0  0  1  0  0  0  0  0  0  0  0  0
  141.0160   78.8620  220.7160 C   0  0  0  0  0  0  0  0  0  0  0  0
  141.6530   79.4040  221.9010 N   0  0  0  0  0  0  0  0  0  0  0  0
  141.3200   79.0570  223.1810 C   0  0  0  0  0  0  0  0  0  0  0  0
  142.1160   79.7550  224.0660 C   0  0  0  0  0  0  0  0  0  0  0  0
  142.9360   80.5320  223.2740 C   0  0  0  0  0  0  0  0  0  0  0  0
  142.6270   80.2910  222.0090 N   0  0  0  0  0  0  0  0  0  0  0  0
  139.9160   71.5800  223.0410 C   0  0  0  0  0  0  0  0  0  0  0  0
  139.4890   70.2780  222.9340 C   0  0  0  0  0  0  0  0  0  0  0  0
  139.5420   69.3650  223.9660 C   0  0  0  0  0  0  0  0  0  0  0  0
  140.0620   69.8150  225.1650 C   0  0  0  0  0  0  0  0  0  0  0  0
  140.1330   68.9300  226.2200 C   0  0  0  0  0  0  0  0  0  0  0  0
  140.6420   69.3180  227.4390 C   0  0  0  0  0  0  0  0  0  0  0  0
  140.7050   68.1530  228.7370 Cl  0  0  0  0  0  0  0  0  0  0  0  0
  141.0730   70.6150  227.5600 C   0  0  0  0  0  0  0  0  0  0  0  0
  141.0060   71.5140  226.5040 C   0  0  0  0  0  0  0  0  0  0  0  0
  140.4920   71.1290  225.2630 C   0  0  0  0  0  0  0  0  0  0  0  0
  140.4140   71.9710  224.2250 N   0  0  0  0  0  0  0  0  0  0  0  0
  139.5750   74.2750  223.1250 H   0  0  0  0  0  0  0  0  0  0  0  0
  139.7116   74.3400  220.1164 H   0  0  0  0  0  0  0  0  0  0  0  0
  138.5457   75.3065  221.1041 H   0  0  0  0  0  0  0  0  0  0  0  0
  142.0022   74.7136  219.1672 H   0  0  0  0  0  0  0  0  0  0  0  0
  140.6374   75.4091  218.3549 H   0  0  0  0  0  0  0  0  0  0  0  0
  142.5203   76.4910  217.0900 H   0  0  0  0  0  0  0  0  0  0  0  0
  144.4420   76.2810  217.9530 H   0  0  0  0  0  0  0  0  0  0  0  0
  142.8705   78.7385  218.4452 H   0  0  0  0  0  0  0  0  0  0  0  0
  141.2098   78.3924  218.0618 H   0  0  0  0  0  0  0  0  0  0  0  0
  142.7353   77.8673  220.6813 H   0  0  0  0  0  0  0  0  0  0  0  0
  140.8668   79.6771  219.9925 H   0  0  0  0  0  0  0  0  0  0  0  0
  140.0604   78.4148  221.0273 H   0  0  0  0  0  0  0  0  0  0  0  0
  140.5395   78.3343  223.4614 H   0  0  0  0  0  0  0  0  0  0  0  0
  142.1002   79.7032  225.1647 H   0  0  0  0  0  0  0  0  0  0  0  0
  143.7095   81.2283  223.6302 H   0  0  0  0  0  0  0  0  0  0  0  0
  139.0810   69.9447  221.9684 H   0  0  0  0  0  0  0  0  0  0  0  0
  139.1884   68.3309  223.8414 H   0  0  0  0  0  0  0  0  0  0  0  0
  139.7774   67.8978  226.0856 H   0  0  0  0  0  0  0  0  0  0  0  0
  141.4841   70.9528  228.5228 H   0  0  0  0  0  0  0  0  0  0  0  0
  141.3629   72.5447  226.6465 H   0  0  0  0  0  0  0  0  0  0  0  0
  1  2  2  0
  2  3  1  0
  3  4  1  0
  4  5  1  0
  5  6  2  0
  5  7  1  0
  7  8  1  0
  8  9  1  0
  9 10  1  0
  9 11  1  0
 11 12  1  0
 12 13  1  0
 13 14  1  0
 14 15  1  0
 15 16  2  0
 16 17  1  0
 17 18  2  0
  2 19  1  0
 19 20  2  0
 20 21  1  0
 21 22  2  0
 22 23  1  0
 23 24  2  0
 24 25  1  0
 24 26  1  0
 26 27  2  0
 27 28  1  0
 28 29  2  0
 12  7  1  0
 18 14  1  0
 29 19  1  0
 28 22  1  0
  3 30  1  0
  4 31  1  0
  4 32  1  0
  8 33  1  0
  8 34  1  0
  9 35  1  6
 10 36  1  0
 11 37  1  0
 11 38  1  0
 12 39  1  1
 13 40  1  0
 13 41  1  0
 15 42  1  0
 16 43  1  0
 17 44  1  0
 20 45  1  0
 21 46  1  0
 23 47  1  0
 26 48  1  0
 27 49  1  0
M  END
>  <smiles>  (31) 
O=C(NCC(=O)N1C[C@H](O)C[C@H]1Cn1cccn1)c1ccc2cc(Cl)ccc2n1

>  <score_type>  (31) 
oracle

>  <origin>  (31) 
autodockgpu

>  <m_score__min__energy>  (31) 
-8.6699999999999999

>  <m_primary>  (31) 
energy

>  <rmsd>  (31) 
1.7622710224869729

>  <m_score__min__rmsd>  (31) 
1.7622710224869729

>  <meeko>  (31) 
{"free_energy": -8.24, "intermolecular_energy": -10.33, "internal_energy": -1.59, "cluster_size": 24, "cluster_id": 1, "rank_in_cluster": 5}

>  <energy>  (31) 
-6.81

>  <cluster_rmsd>  (31) 
0.0

>  <cluster>  (31) 
3

$$$$

     RDKit          3D

 49 52  0  0  0  0  0  0  0  0999 V2000
  140.2300   72.4670  220.8720 O   0  0  0  0  0  0  0  0  0  0  0  0
  139.9300   72.8650  222.0260 C   0  0  0  0  0  0  0  0  0  0  0  0
  139.5230   74.1940  222.3200 N   0  0  0  0  0  0  0  0  0  0  0  0
  139.4250   75.2010  221.2820 C   0  0  0  0  0  0  0  0  0  0  0  0
  138.8030   76.4440  221.8030 C   0  0  0  0  0  0  0  0  0  0  0  0
  138.2400   76.3560  222.9330 O   0  0  0  0  0  0  0  0  0  0  0  0
  138.8350   77.6820  221.0680 N   0  0  0  0  0  0  0  0  0  0  0  0
  138.0140   77.8950  219.9020 C   0  0  0  0  0  0  0  0  0  0  0  0
  138.5900   79.2200  219.3950 C   0  0  2  0  0  0  0  0  0  0  0  0
  139.7040   78.8900  218.6240 O   0  0  0  0  0  0  0  0  0  0  0  0
  139.0470   79.9200  220.6660 C   0  0  0  0  0  0  0  0  0  0  0  0
  139.6720   78.7930  221.4090 C   0  0  1  0  0  0  0  0  0  0  0  0
  139.8790   79.0520  222.8660 C   0  0  0  0  0  0  0  0  0  0  0  0
  141.1130   79.7620  223.1380 N   0  0  0  0  0  0  0  0  0  0  0  0
  142.3430   79.3700  222.6890 C   0  0  0  0  0  0  0  0  0  0  0  0
  143.2980   80.2640  223.1270 C   0  0  0  0  0  0  0  0  0  0  0  0
  142.5990   81.2060  223.8540 C   0  0  0  0  0  0  0  0  0  0  0  0
  141.3180   80.8680  223.8330 N   0  0  0  0  0  0  0  0  0  0  0  0
  140.0040   71.8970  223.1410 C   0  0  0  0  0  0  0  0  0  0  0  0
  139.5860   70.5980  222.9730 C   0  0  0  0  0  0  0  0  0  0  0  0
  139.6260   69.6440  223.9670 C   0  0  0  0  0  0  0  0  0  0  0  0
  140.1220   70.0460  225.1920 C   0  0  0  0  0  0  0  0  0  0  0  0
  140.1780   69.1180  226.2110 C   0  0  0  0  0  0  0  0  0  0  0  0
  140.6630   69.4580  227.4540 C   0  0  0  0  0  0  0  0  0  0  0  0
  140.7080   68.2400  228.7040 Cl  0  0  0  0  0  0  0  0  0  0  0  0
  141.0840   70.7510  227.6370 C   0  0  0  0  0  0  0  0  0  0  0  0
  141.0320   71.6930  226.6180 C   0  0  0  0  0  0  0  0  0  0  0  0
  140.5430   71.3570  225.3530 C   0  0  0  0  0  0  0  0  0  0  0  0
  140.4780   72.2410  224.3490 N   0  0  0  0  0  0  0  0  0  0  0  0
  139.2760   74.5110  223.2920 H   0  0  0  0  0  0  0  0  0  0  0  0
  140.4337   75.4325  220.9092 H   0  0  0  0  0  0  0  0  0  0  0  0
  138.7949   74.8075  220.4707 H   0  0  0  0  0  0  0  0  0  0  0  0
  138.1391   77.0888  219.1642 H   0  0  0  0  0  0  0  0  0  0  0  0
  136.9320   77.9106  220.0993 H   0  0  0  0  0  0  0  0  0  0  0  0
  137.8954   79.8365  218.8056 H   0  0  0  0  0  0  0  0  0  0  0  0
  140.0770   78.0080  218.9320 H   0  0  0  0  0  0  0  0  0  0  0  0
  139.7771   80.7135  220.4487 H   0  0  0  0  0  0  0  0  0  0  0  0
  138.2415   80.4303  221.2145 H   0  0  0  0  0  0  0  0  0  0  0  0
  140.7173   78.6056  221.1223 H   0  0  0  0  0  0  0  0  0  0  0  0
  139.0372   79.6535  223.2396 H   0  0  0  0  0  0  0  0  0  0  0  0
  139.9382   78.0769  223.3717 H   0  0  0  0  0  0  0  0  0  0  0  0
  142.5407   78.4798  222.0738 H   0  0  0  0  0  0  0  0  0  0  0  0
  144.3812   80.2328  222.9379 H   0  0  0  0  0  0  0  0  0  0  0  0
  143.0291   82.0823  224.3611 H   0  0  0  0  0  0  0  0  0  0  0  0
  139.1968   70.3028  221.9874 H   0  0  0  0  0  0  0  0  0  0  0  0
  139.2803   68.6142  223.7935 H   0  0  0  0  0  0  0  0  0  0  0  0
  139.8299   68.0907  226.0278 H   0  0  0  0  0  0  0  0  0  0  0  0
  141.4746   71.0505  228.6207 H   0  0  0  0  0  0  0  0  0  0  0  0
  141.3808   72.7185  226.8095 H   0  0  0  0  0  0  0  0  0  0  0  0
  1  2  2  0
  2  3  1  0
  3  4  1  0
  4  5  1  0
  5  6  2  0
  5  7  1  0
  7  8  1  0
  8  9  1  0
  9 10  1  0
  9 11  1  0
 11 12  1  0
 12 13  1  0
 13 14  1  0
 14 15  1  0
 15 16  2  0
 16 17  1  0
 17 18  2  0
  2 19  1  0
 19 20  2  0
 20 21  1  0
 21 22  2  0
 22 23  1  0
 23 24  2  0
 24 25  1  0
 24 26  1  0
 26 27  2  0
 27 28  1  0
 28 29  2  0
 12  7  1  0
 18 14  1  0
 29 19  1  0
 28 22  1  0
  3 30  1  0
  4 31  1  0
  4 32  1  0
  8 33  1  0
  8 34  1  0
  9 35  1  6
 10 36  1  0
 11 37  1  0
 11 38  1  0
 12 39  1  6
 13 40  1  0
 13 41  1  0
 15 42  1  0
 16 43  1  0
 17 44  1  0
 20 45  1  0
 21 46  1  0
 23 47  1  0
 26 48  1  0
 27 49  1  0
M  END
>  <smiles>  (32) 
O=C(NCC(=O)N1C[C@H](O)C[C@H]1Cn1cccn1)c1ccc2cc(Cl)ccc2n1

>  <score_type>  (32) 
oracle

>  <origin>  (32) 
autodockgpu

>  <m_score__min__energy>  (32) 
-8.6699999999999999

>  <m_primary>  (32) 
energy

>  <rmsd>  (32) 
2.597788940973136

>  <m_score__min__rmsd>  (32) 
2.597788940973136

>  <meeko>  (32) 
{"free_energy": -7.21, "intermolecular_energy": -9.3, "internal_energy": -1.85, "cluster_size": 24, "cluster_id": 1, "rank_in_cluster": 18}

>  <energy>  (32) 
-6.78

>  <cluster_rmsd>  (32) 
0.0

>  <cluster>  (32) 
4

$$$$

     RDKit          3D

 49 52  0  0  0  0  0  0  0  0999 V2000
  138.9280   72.3120  220.5620 O   0  0  0  0  0  0  0  0  0  0  0  0
  138.0330   72.1390  221.4290 C   0  0  0  0  0  0  0  0  0  0  0  0
  136.6990   72.6060  221.2870 N   0  0  0  0  0  0  0  0  0  0  0  0
  136.2730   73.3270  220.1050 C   0  0  0  0  0  0  0  0  0  0  0  0
  136.8370   74.7000  220.0860 C   0  0  0  0  0  0  0  0  0  0  0  0
  136.2950   75.5150  219.2850 O   0  0  0  0  0  0  0  0  0  0  0  0
  137.9390   75.0860  220.9290 N   0  0  0  0  0  0  0  0  0  0  0  0
  139.2700   75.2660  220.4060 C   0  0  0  0  0  0  0  0  0  0  0  0
  140.0600   75.4320  221.7070 C   0  0  2  0  0  0  0  0  0  0  0  0
  140.3460   74.1420  222.1550 O   0  0  0  0  0  0  0  0  0  0  0  0
  139.0610   76.0820  222.6510 C   0  0  0  0  0  0  0  0  0  0  0  0
  137.8250   75.3160  222.3380 C   0  0  1  0  0  0  0  0  0  0  0  0
  136.5620   75.9580  222.8110 C   0  0  0  0  0  0  0  0  0  0  0  0
  135.8090   75.1130  223.7170 N   0  0  0  0  0  0  0  0  0  0  0  0
  135.3200   75.5210  224.9260 C   0  0  0  0  0  0  0  0  0  0  0  0
  134.6560   74.4740  225.5300 C   0  0  0  0  0  0  0  0  0  0  0  0
  134.7630   73.4230  224.6420 C   0  0  0  0  0  0  0  0  0  0  0  0
  135.4490   73.8470  223.5910 N   0  0  0  0  0  0  0  0  0  0  0  0
  138.3890   71.4110  222.6660 C   0  0  0  0  0  0  0  0  0  0  0  0
  137.6720   70.3080  223.0620 C   0  0  0  0  0  0  0  0  0  0  0  0
  137.9460   69.5820  224.2020 C   0  0  0  0  0  0  0  0  0  0  0  0
  139.0100   70.0140  224.9700 C   0  0  0  0  0  0  0  0  0  0  0  0
  139.3160   69.3130  226.1180 C   0  0  0  0  0  0  0  0  0  0  0  0
  140.3640   69.6940  226.9230 C   0  0  0  0  0  0  0  0  0  0  0  0
  140.7010   68.7670  228.3640 Cl  0  0  0  0  0  0  0  0  0  0  0  0
  141.0900   70.7940  226.5410 C   0  0  0  0  0  0  0  0  0  0  0  0
  140.7910   71.5060  225.3880 C   0  0  0  0  0  0  0  0  0  0  0  0
  139.7290   71.1270  224.5630 C   0  0  0  0  0  0  0  0  0  0  0  0
  139.4140   71.7940  223.4440 N   0  0  0  0  0  0  0  0  0  0  0  0
  135.9630   72.4530  222.0220 H   0  0  0  0  0  0  0  0  0  0  0  0
  136.6150   72.7854  219.2107 H   0  0  0  0  0  0  0  0  0  0  0  0
  135.1754   73.3996  220.1159 H   0  0  0  0  0  0  0  0  0  0  0  0
  139.6051   74.3865  219.8366 H   0  0  0  0  0  0  0  0  0  0  0  0
  139.3750   76.0996  219.6960 H   0  0  0  0  0  0  0  0  0  0  0  0
  140.9896   76.0134  221.6184 H   0  0  0  0  0  0  0  0  0  0  0  0
  139.4920   73.6160  222.2320 H   0  0  0  0  0  0  0  0  0  0  0  0
  139.3585   75.9547  223.7023 H   0  0  0  0  0  0  0  0  0  0  0  0
  138.9618   77.1700  222.5231 H   0  0  0  0  0  0  0  0  0  0  0  0
  137.7464   74.3679  222.8902 H   0  0  0  0  0  0  0  0  0  0  0  0
  136.8163   76.8930  223.3316 H   0  0  0  0  0  0  0  0  0  0  0  0
  135.9323   76.1417  221.9280 H   0  0  0  0  0  0  0  0  0  0  0  0
  135.4378   76.5285  225.3515 H   0  0  0  0  0  0  0  0  0  0  0  0
  134.1509   74.4761  226.5072 H   0  0  0  0  0  0  0  0  0  0  0  0
  134.3516   72.4125  224.7821 H   0  0  0  0  0  0  0  0  0  0  0  0
  136.8297   69.9849  222.4326 H   0  0  0  0  0  0  0  0  0  0  0  0
  137.3477   68.7035  224.4854 H   0  0  0  0  0  0  0  0  0  0  0  0
  138.7124   68.4357  226.3938 H   0  0  0  0  0  0  0  0  0  0  0  0
  141.9334   71.1209  227.1669 H   0  0  0  0  0  0  0  0  0  0  0  0
  141.3994   72.3822  225.1195 H   0  0  0  0  0  0  0  0  0  0  0  0
  1  2  2  0
  2  3  1  0
  3  4  1  0
  4  5  1  0
  5  6  2  0
  5  7  1  0
  7  8  1  0
  8  9  1  0
  9 10  1  0
  9 11  1  0
 11 12  1  0
 12 13  1  0
 13 14  1  0
 14 15  1  0
 15 16  2  0
 16 17  1  0
 17 18  2  0
  2 19  1  0
 19 20  2  0
 20 21  1  0
 21 22  2  0
 22 23  1  0
 23 24  2  0
 24 25  1  0
 24 26  1  0
 26 27  2  0
 27 28  1  0
 28 29  2  0
 12  7  1  0
 18 14  1  0
 29 19  1  0
 28 22  1  0
  3 30  1  0
  4 31  1  0
  4 32  1  0
  8 33  1  0
  8 34  1  0
  9 35  1  6
 10 36  1  0
 11 37  1  0
 11 38  1  0
 12 39  1  1
 13 40  1  0
 13 41  1  0
 15 42  1  0
 16 43  1  0
 17 44  1  0
 20 45  1  0
 21 46  1  0
 23 47  1  0
 26 48  1  0
 27 49  1  0
M  END
>  <smiles>  (33) 
O=C(NCC(=O)N1C[C@H](O)C[C@H]1Cn1cccn1)c1ccc2cc(Cl)ccc2n1

>  <score_type>  (33) 
oracle

>  <origin>  (33) 
autodockgpu

>  <m_score__min__energy>  (33) 
-8.6699999999999999

>  <m_primary>  (33) 
energy

>  <rmsd>  (33) 
4.3345075397554025

>  <m_score__min__rmsd>  (33) 
4.3345075397554025

>  <meeko>  (33) 
{"free_energy": -5.62, "intermolecular_energy": -7.71, "internal_energy": -4.0, "cluster_size": 10, "cluster_id": 6, "rank_in_cluster": 6}

>  <energy>  (33) 
-6.35

>  <cluster_rmsd>  (33) 
0.0

>  <cluster>  (33) 
5

$$$$

     RDKit          3D

 49 52  0  0  0  0  0  0  0  0999 V2000
  137.2320   71.5160  221.1700 O   0  0  0  0  0  0  0  0  0  0  0  0
  137.2940   72.0350  222.3140 C   0  0  0  0  0  0  0  0  0  0  0  0
  136.8670   73.3590  222.6020 N   0  0  0  0  0  0  0  0  0  0  0  0
  136.3180   74.2170  221.5720 C   0  0  0  0  0  0  0  0  0  0  0  0
  137.3960   74.9410  220.8520 C   0  0  0  0  0  0  0  0  0  0  0  0
  137.0220   75.7340  219.9390 O   0  0  0  0  0  0  0  0  0  0  0  0
  138.7880   74.7560  221.1710 N   0  0  0  0  0  0  0  0  0  0  0  0
  139.5370   73.6270  220.6790 C   0  0  0  0  0  0  0  0  0  0  0  0
  140.8350   73.7860  221.4760 C   0  0  2  0  0  0  0  0  0  0  0  0
  140.6100   73.1750  222.7100 O   0  0  0  0  0  0  0  0  0  0  0  0
  140.9510   75.2900  221.6730 C   0  0  0  0  0  0  0  0  0  0  0  0
  139.5450   75.6490  221.9960 C   0  0  1  0  0  0  0  0  0  0  0  0
  139.2330   77.1050  221.8670 C   0  0  0  0  0  0  0  0  0  0  0  0
  140.3390   77.9520  222.2680 N   0  0  0  0  0  0  0  0  0  0  0  0
  141.2800   78.4480  221.4100 C   0  0  0  0  0  0  0  0  0  0  0  0
  142.1870   79.2120  222.1160 C   0  0  0  0  0  0  0  0  0  0  0  0
  141.7580   79.1570  223.4260 C   0  0  0  0  0  0  0  0  0  0  0  0
  140.6680   78.4050  223.4660 N   0  0  0  0  0  0  0  0  0  0  0  0
  137.8430   71.2230  223.4210 C   0  0  0  0  0  0  0  0  0  0  0  0
  137.1710   70.1150  223.8800 C   0  0  0  0  0  0  0  0  0  0  0  0
  137.6220   69.3140  224.9070 C   0  0  0  0  0  0  0  0  0  0  0  0
  138.8230   69.6710  225.4890 C   0  0  0  0  0  0  0  0  0  0  0  0
  139.3080   68.8920  226.5190 C   0  0  0  0  0  0  0  0  0  0  0  0
  140.4990   69.1960  227.1380 C   0  0  0  0  0  0  0  0  0  0  0  0
  141.0600   68.1730  228.4370 Cl  0  0  0  0  0  0  0  0  0  0  0  0
  141.1820   70.2990  226.6910 C   0  0  0  0  0  0  0  0  0  0  0  0
  140.7030   71.0890  225.6550 C   0  0  0  0  0  0  0  0  0  0  0  0
  139.4950   70.7880  225.0200 C   0  0  0  0  0  0  0  0  0  0  0  0
  139.0060   71.5310  224.0180 N   0  0  0  0  0  0  0  0  0  0  0  0
  136.9270   73.7780  223.5650 H   0  0  0  0  0  0  0  0  0  0  0  0
  135.7557   73.6023  220.8537 H   0  0  0  0  0  0  0  0  0  0  0  0
  135.6565   74.9562  222.0475 H   0  0  0  0  0  0  0  0  0  0  0  0
  139.0343   72.6755  220.9068 H   0  0  0  0  0  0  0  0  0  0  0  0
  139.6688   73.6045  219.5872 H   0  0  0  0  0  0  0  0  0  0  0  0
  141.7303   73.3570  221.0022 H   0  0  0  0  0  0  0  0  0  0  0  0
  139.6570   73.3290  222.9930 H   0  0  0  0  0  0  0  0  0  0  0  0
  141.6305   75.5366  222.5021 H   0  0  0  0  0  0  0  0  0  0  0  0
  141.3666   75.8276  220.8080 H   0  0  0  0  0  0  0  0  0  0  0  0
  139.2932   75.5172  223.0586 H   0  0  0  0  0  0  0  0  0  0  0  0
  138.9876   77.3206  220.8166 H   0  0  0  0  0  0  0  0  0  0  0  0
  138.3875   77.3240  222.5357 H   0  0  0  0  0  0  0  0  0  0  0  0
  141.3099   78.2665  220.3255 H   0  0  0  0  0  0  0  0  0  0  0  0
  143.0620   79.7483  221.7201 H   0  0  0  0  0  0  0  0  0  0  0  0
  142.2362   79.6502  224.2851 H   0  0  0  0  0  0  0  0  0  0  0  0
  136.2171   69.8522  223.3993 H   0  0  0  0  0  0  0  0  0  0  0  0
  137.0543   68.4349  225.2461 H   0  0  0  0  0  0  0  0  0  0  0  0
  138.7339   68.0143  226.8507 H   0  0  0  0  0  0  0  0  0  0  0  0
  142.1371   70.5650  227.1676 H   0  0  0  0  0  0  0  0  0  0  0  0
  141.2829   71.9650  225.3290 H   0  0  0  0  0  0  0  0  0  0  0  0
  1  2  2  0
  2  3  1  0
  3  4  1  0
  4  5  1  0
  5  6  2  0
  5  7  1  0
  7  8  1  0
  8  9  1  0
  9 10  1  0
  9 11  1  0
 11 12  1  0
 12 13  1  0
 13 14  1  0
 14 15  1  0
 15 16  2  0
 16 17  1  0
 17 18  2  0
  2 19  1  0
 19 20  2  0
 20 21  1  0
 21 22  2  0
 22 23  1  0
 23 24  2  0
 24 25  1  0
 24 26  1  0
 26 27  2  0
 27 28  1  0
 28 29  2  0
 12  7  1  0
 18 14  1  0
 29 19  1  0
 28 22  1  0
  3 30  1  0
  4 31  1  0
  4 32  1  0
  8 33  1  0
  8 34  1  0
  9 35  1  6
 10 36  1  0
 11 37  1  0
 11 38  1  0
 12 39  1  1
 13 40  1  0
 13 41  1  0
 15 42  1  0
 16 43  1  0
 17 44  1  0
 20 45  1  0
 21 46  1  0
 23 47  1  0
 26 48  1  0
 27 49  1  0
M  END
>  <smiles>  (34) 
O=C(NCC(=O)N1C[C@H](O)C[C@H]1Cn1cccn1)c1ccc2cc(Cl)ccc2n1

>  <score_type>  (34) 
oracle

>  <origin>  (34) 
autodockgpu

>  <m_score__min__energy>  (34) 
-8.6699999999999999

>  <m_primary>  (34) 
energy

>  <rmsd>  (34) 
2.6001423124424576

>  <m_score__min__rmsd>  (34) 
2.6001423124424576

>  <meeko>  (34) 
{"free_energy": -7.24, "intermolecular_energy": -9.33, "internal_energy": -2.33, "cluster_size": 24, "cluster_id": 1, "rank_in_cluster": 17}

>  <energy>  (34) 
-6.33

>  <cluster_rmsd>  (34) 
1.22

>  <cluster>  (34) 
5

$$$$

     RDKit          3D

 49 52  0  0  0  0  0  0  0  0999 V2000
  139.9940   72.3340  220.7030 O   0  0  0  0  0  0  0  0  0  0  0  0
  139.8700   72.8120  221.8590 C   0  0  0  0  0  0  0  0  0  0  0  0
  139.6680   74.1940  222.1220 N   0  0  0  0  0  0  0  0  0  0  0  0
  139.5880   75.1630  221.0490 C   0  0  0  0  0  0  0  0  0  0  0  0
  140.9410   75.5230  220.5540 C   0  0  0  0  0  0  0  0  0  0  0  0
  141.8290   74.6280  220.6550 O   0  0  0  0  0  0  0  0  0  0  0  0
  141.2300   76.8160  219.9900 N   0  0  0  0  0  0  0  0  0  0  0  0
  141.0410   77.0930  218.5880 C   0  0  0  0  0  0  0  0  0  0  0  0
  141.6950   78.4740  218.4870 C   0  0  2  0  0  0  0  0  0  0  0  0
  143.0610   78.2450  218.3190 O   0  0  0  0  0  0  0  0  0  0  0  0
  141.4530   79.0860  219.8590 C   0  0  0  0  0  0  0  0  0  0  0  0
  141.7300   77.9250  220.7460 C   0  0  1  0  0  0  0  0  0  0  0  0
  141.2110   78.0730  222.1390 C   0  0  0  0  0  0  0  0  0  0  0  0
  141.7200   79.2570  222.8040 N   0  0  0  0  0  0  0  0  0  0  0  0
  140.9400   80.2890  223.2440 C   0  0  0  0  0  0  0  0  0  0  0  0
  141.7390   81.2520  223.8270 C   0  0  0  0  0  0  0  0  0  0  0  0
  143.0250   80.7610  223.7210 C   0  0  0  0  0  0  0  0  0  0  0  0
  142.9630   79.5860  223.1130 N   0  0  0  0  0  0  0  0  0  0  0  0
  139.9410   71.8870  223.0100 C   0  0  0  0  0  0  0  0  0  0  0  0
  139.5020   70.5890  222.8960 C   0  0  0  0  0  0  0  0  0  0  0  0
  139.5370   69.6730  223.9260 C   0  0  0  0  0  0  0  0  0  0  0  0
  140.0490   70.1150  225.1300 C   0  0  0  0  0  0  0  0  0  0  0  0
  140.1010   69.2260  226.1840 C   0  0  0  0  0  0  0  0  0  0  0  0
  140.6010   69.6070  227.4090 C   0  0  0  0  0  0  0  0  0  0  0  0
  140.6400   68.4370  228.7050 Cl  0  0  0  0  0  0  0  0  0  0  0  0
  141.0430   70.8990  227.5380 C   0  0  0  0  0  0  0  0  0  0  0  0
  140.9960   71.8010  226.4840 C   0  0  0  0  0  0  0  0  0  0  0  0
  140.4910   71.4240  225.2370 C   0  0  0  0  0  0  0  0  0  0  0  0
  140.4300   72.2710  224.2000 N   0  0  0  0  0  0  0  0  0  0  0  0
  139.5670   74.5770  223.0960 H   0  0  0  0  0  0  0  0  0  0  0  0
  139.0042   74.7350  220.2207 H   0  0  0  0  0  0  0  0  0  0  0  0
  139.1026   76.0721  221.4337 H   0  0  0  0  0  0  0  0  0  0  0  0
  141.5534   76.3535  217.9551 H   0  0  0  0  0  0  0  0  0  0  0  0
  139.9950   77.0548  218.2497 H   0  0  0  0  0  0  0  0  0  0  0  0
  141.3177   79.1113  217.6736 H   0  0  0  0  0  0  0  0  0  0  0  0
  143.4190   78.8600  217.6080 H   0  0  0  0  0  0  0  0  0  0  0  0
  142.1444   79.9184  220.0567 H   0  0  0  0  0  0  0  0  0  0  0  0
  140.4522   79.5240  219.9878 H   0  0  0  0  0  0  0  0  0  0  0  0
  142.7977   77.7974  220.9780 H   0  0  0  0  0  0  0  0  0  0  0  0
  140.1134   78.1355  222.1007 H   0  0  0  0  0  0  0  0  0  0  0  0
  141.5492   77.1983  222.7138 H   0  0  0  0  0  0  0  0  0  0  0  0
  139.8455   80.3439  223.1485 H   0  0  0  0  0  0  0  0  0  0  0  0
  141.4204   82.2034  224.2779 H   0  0  0  0  0  0  0  0  0  0  0  0
  143.9392   81.2577  224.0782 H   0  0  0  0  0  0  0  0  0  0  0  0
  139.0992   70.2621  221.9260 H   0  0  0  0  0  0  0  0  0  0  0  0
  139.1754   68.6424  223.7953 H   0  0  0  0  0  0  0  0  0  0  0  0
  139.7375   68.1973  226.0435 H   0  0  0  0  0  0  0  0  0  0  0  0
  141.4469   71.2304  228.5060 H   0  0  0  0  0  0  0  0  0  0  0  0
  141.3617   72.8277  226.6327 H   0  0  0  0  0  0  0  0  0  0  0  0
  1  2  2  0
  2  3  1  0
  3  4  1  0
  4  5  1  0
  5  6  2  0
  5  7  1  0
  7  8  1  0
  8  9  1  0
  9 10  1  0
  9 11  1  0
 11 12  1  0
 12 13  1  0
 13 14  1  0
 14 15  1  0
 15 16  2  0
 16 17  1  0
 17 18  2  0
  2 19  1  0
 19 20  2  0
 20 21  1  0
 21 22  2  0
 22 23  1  0
 23 24  2  0
 24 25  1  0
 24 26  1  0
 26 27  2  0
 27 28  1  0
 28 29  2  0
 12  7  1  0
 18 14  1  0
 29 19  1  0
 28 22  1  0
  3 30  1  0
  4 31  1  0
  4 32  1  0
  8 33  1  0
  8 34  1  0
  9 35  1  6
 10 36  1  0
 11 37  1  0
 11 38  1  0
 12 39  1  1
 13 40  1  0
 13 41  1  0
 15 42  1  0
 16 43  1  0
 17 44  1  0
 20 45  1  0
 21 46  1  0
 23 47  1  0
 26 48  1  0
 27 49  1  0
M  END
>  <smiles>  (35) 
O=C(NCC(=O)N1C[C@H](O)C[C@H]1Cn1cccn1)c1ccc2cc(Cl)ccc2n1

>  <score_type>  (35) 
oracle

>  <origin>  (35) 
autodockgpu

>  <m_score__min__energy>  (35) 
-8.6699999999999999

>  <m_primary>  (35) 
energy

>  <rmsd>  (35) 
2.1162449996162715

>  <m_score__min__rmsd>  (35) 
2.1162449996162715

>  <meeko>  (35) 
{"free_energy": -8.11, "intermolecular_energy": -10.2, "internal_energy": -1.23, "cluster_size": 24, "cluster_id": 1, "rank_in_cluster": 9}

>  <energy>  (35) 
-6.18

>  <cluster_rmsd>  (35) 
0.0

>  <cluster>  (35) 
6

$$$$

     RDKit          3D

 49 52  0  0  0  0  0  0  0  0999 V2000
  138.6200   71.1300  220.5360 O   0  0  0  0  0  0  0  0  0  0  0  0
  138.7140   71.7790  221.6090 C   0  0  0  0  0  0  0  0  0  0  0  0
  138.5030   73.1800  221.7020 N   0  0  0  0  0  0  0  0  0  0  0  0
  138.1550   73.9710  220.5400 C   0  0  0  0  0  0  0  0  0  0  0  0
  139.3410   74.1970  219.6750 C   0  0  0  0  0  0  0  0  0  0  0  0
  139.2000   75.0410  218.7430 O   0  0  0  0  0  0  0  0  0  0  0  0
  140.5830   73.4980  219.8810 N   0  0  0  0  0  0  0  0  0  0  0  0
  140.9090   72.2970  219.1520 C   0  0  0  0  0  0  0  0  0  0  0  0
  142.1740   71.8560  219.8940 C   0  0  2  0  0  0  0  0  0  0  0  0
  141.7390   71.1340  221.0060 O   0  0  0  0  0  0  0  0  0  0  0  0
  142.7920   73.1670  220.3570 C   0  0  0  0  0  0  0  0  0  0  0  0
  141.5880   73.9100  220.8140 C   0  0  1  0  0  0  0  0  0  0  0  0
  141.7910   75.3820  220.9700 C   0  0  0  0  0  0  0  0  0  0  0  0
  140.6610   76.0400  221.5960 N   0  0  0  0  0  0  0  0  0  0  0  0
  140.3740   77.3700  221.4640 C   0  0  0  0  0  0  0  0  0  0  0  0
  139.2370   77.6670  222.1860 C   0  0  0  0  0  0  0  0  0  0  0  0
  138.8510   76.4700  222.7550 C   0  0  0  0  0  0  0  0  0  0  0  0
  139.7190   75.5430  222.3790 N   0  0  0  0  0  0  0  0  0  0  0  0
  139.0660   71.0430  222.8420 C   0  0  0  0  0  0  0  0  0  0  0  0
  138.7070   69.7260  223.0010 C   0  0  0  0  0  0  0  0  0  0  0  0
  139.0000   68.9800  224.1230 C   0  0  0  0  0  0  0  0  0  0  0  0
  139.6980   69.6210  225.1280 C   0  0  0  0  0  0  0  0  0  0  0  0
  140.0110   68.9070  226.2660 C   0  0  0  0  0  0  0  0  0  0  0  0
  140.7060   69.4900  227.3010 C   0  0  0  0  0  0  0  0  0  0  0  0
  141.0710   68.5340  228.7160 Cl  0  0  0  0  0  0  0  0  0  0  0  0
  141.0720   70.8050  227.1570 C   0  0  0  0  0  0  0  0  0  0  0  0
  140.7620   71.5320  226.0160 C   0  0  0  0  0  0  0  0  0  0  0  0
  140.0580   70.9490  224.9590 C   0  0  0  0  0  0  0  0  0  0  0  0
  139.7430   71.6240  223.8460 N   0  0  0  0  0  0  0  0  0  0  0  0
  138.5870   73.7080  222.6080 H   0  0  0  0  0  0  0  0  0  0  0  0
  137.3839   73.4408  219.9618 H   0  0  0  0  0  0  0  0  0  0  0  0
  137.7786   74.9469  220.8805 H   0  0  0  0  0  0  0  0  0  0  0  0
  140.1097   71.5452  219.2293 H   0  0  0  0  0  0  0  0  0  0  0  0
  141.0383   72.4387  218.0689 H   0  0  0  0  0  0  0  0  0  0  0  0
  142.8757   71.2496  219.3025 H   0  0  0  0  0  0  0  0  0  0  0  0
  140.7490   70.9680  220.9330 H   0  0  0  0  0  0  0  0  0  0  0  0
  143.5040   73.0082  221.1803 H   0  0  0  0  0  0  0  0  0  0  0  0
  143.3768   73.6876  219.5843 H   0  0  0  0  0  0  0  0  0  0  0  0
  141.2934   73.6711  221.8465 H   0  0  0  0  0  0  0  0  0  0  0  0
  142.6838   75.5502  221.5901 H   0  0  0  0  0  0  0  0  0  0  0  0
  141.9081   75.8095  219.9633 H   0  0  0  0  0  0  0  0  0  0  0  0
  140.9587   78.0910  220.8739 H   0  0  0  0  0  0  0  0  0  0  0  0
  138.7446   78.6455  222.2866 H   0  0  0  0  0  0  0  0  0  0  0  0
  137.9776   76.3138  223.4052 H   0  0  0  0  0  0  0  0  0  0  0  0
  138.1533   69.2383  222.1852 H   0  0  0  0  0  0  0  0  0  0  0  0
  138.6934   67.9275  224.2132 H   0  0  0  0  0  0  0  0  0  0  0  0
  139.7002   67.8550  226.3475 H   0  0  0  0  0  0  0  0  0  0  0  0
  141.6271   71.2969  227.9693 H   0  0  0  0  0  0  0  0  0  0  0  0
  141.0755   72.5838  225.9426 H   0  0  0  0  0  0  0  0  0  0  0  0
  1  2  2  0
  2  3  1  0
  3  4  1  0
  4  5  1  0
  5  6  2  0
  5  7  1  0
  7  8  1  0
  8  9  1  0
  9 10  1  0
  9 11  1  0
 11 12  1  0
 12 13  1  0
 13 14  1  0
 14 15  1  0
 15 16  2  0
 16 17  1  0
 17 18  2  0
  2 19  1  0
 19 20  2  0
 20 21  1  0
 21 22  2  0
 22 23  1  0
 23 24  2  0
 24 25  1  0
 24 26  1  0
 26 27  2  0
 27 28  1  0
 28 29  2  0
 12  7  1  0
 18 14  1  0
 29 19  1  0
 28 22  1  0
  3 30  1  0
  4 31  1  0
  4 32  1  0
  8 33  1  0
  8 34  1  0
  9 35  1  6
 10 36  1  0
 11 37  1  0
 11 38  1  0
 12 39  1  1
 13 40  1  0
 13 41  1  0
 15 42  1  0
 16 43  1  0
 17 44  1  0
 20 45  1  0
 21 46  1  0
 23 47  1  0
 26 48  1  0
 27 49  1  0
M  END
>  <smiles>  (36) 
O=C(NCC(=O)N1C[C@H](O)C[C@H]1Cn1cccn1)c1ccc2cc(Cl)ccc2n1

>  <score_type>  (36) 
oracle

>  <origin>  (36) 
autodockgpu

>  <m_score__min__energy>  (36) 
-8.6699999999999999

>  <m_primary>  (36) 
energy

>  <rmsd>  (36) 
2.8448981597121463

>  <m_score__min__rmsd>  (36) 
2.8448981597121463

>  <meeko>  (36) 
{"free_energy": -5.86, "intermolecular_energy": -7.95, "internal_energy": -3.39, "cluster_size": 6, "cluster_id": 2, "rank_in_cluster": 5}

>  <energy>  (36) 
-6.02

>  <cluster_rmsd>  (36) 
0.56

>  <cluster>  (36) 
6

$$$$

     RDKit          3D

 49 52  0  0  0  0  0  0  0  0999 V2000
  137.3960   71.5840  221.2330 O   0  0  0  0  0  0  0  0  0  0  0  0
  137.3100   72.0360  222.4030 C   0  0  0  0  0  0  0  0  0  0  0  0
  136.7150   73.2870  222.7220 N   0  0  0  0  0  0  0  0  0  0  0  0
  136.1570   74.1420  221.6950 C   0  0  0  0  0  0  0  0  0  0  0  0
  137.1550   75.1390  221.2310 C   0  0  0  0  0  0  0  0  0  0  0  0
  136.6930   76.1490  220.6240 O   0  0  0  0  0  0  0  0  0  0  0  0
  138.5670   74.9710  221.4580 N   0  0  0  0  0  0  0  0  0  0  0  0
  139.3230   73.9330  220.8030 C   0  0  0  0  0  0  0  0  0  0  0  0
  140.6560   74.0490  221.5470 C   0  0  2  0  0  0  0  0  0  0  0  0
  140.5170   73.2950  222.7130 O   0  0  0  0  0  0  0  0  0  0  0  0
  140.7360   75.5250  221.9090 C   0  0  0  0  0  0  0  0  0  0  0  0
  139.3380   75.7930  222.3410 C   0  0  1  0  0  0  0  0  0  0  0  0
  138.9740   77.2410  222.3960 C   0  0  0  0  0  0  0  0  0  0  0  0
  140.1330   78.1110  222.3520 N   0  0  0  0  0  0  0  0  0  0  0  0
  140.7280   78.6580  223.4550 C   0  0  0  0  0  0  0  0  0  0  0  0
  141.8000   79.4330  223.0610 C   0  0  0  0  0  0  0  0  0  0  0  0
  141.8280   79.3310  221.6850 C   0  0  0  0  0  0  0  0  0  0  0  0
  140.8290   78.5440  221.3150 N   0  0  0  0  0  0  0  0  0  0  0  0
  137.8570   71.2220  223.5100 C   0  0  0  0  0  0  0  0  0  0  0  0
  137.1840   70.1140  223.9650 C   0  0  0  0  0  0  0  0  0  0  0  0
  137.6340   69.3110  224.9920 C   0  0  0  0  0  0  0  0  0  0  0  0
  138.8350   69.6660  225.5750 C   0  0  0  0  0  0  0  0  0  0  0  0
  139.3180   68.8850  226.6050 C   0  0  0  0  0  0  0  0  0  0  0  0
  140.5090   69.1870  227.2250 C   0  0  0  0  0  0  0  0  0  0  0  0
  141.0680   68.1620  228.5230 Cl  0  0  0  0  0  0  0  0  0  0  0  0
  141.1920   70.2910  226.7810 C   0  0  0  0  0  0  0  0  0  0  0  0
  140.7150   71.0830  225.7460 C   0  0  0  0  0  0  0  0  0  0  0  0
  139.5080   70.7840  225.1080 C   0  0  0  0  0  0  0  0  0  0  0  0
  139.0190   71.5280  224.1070 N   0  0  0  0  0  0  0  0  0  0  0  0
  136.6520   73.6500  223.7070 H   0  0  0  0  0  0  0  0  0  0  0  0
  135.8446   73.5221  220.8417 H   0  0  0  0  0  0  0  0  0  0  0  0
  135.2953   74.6797  222.1173 H   0  0  0  0  0  0  0  0  0  0  0  0
  138.8630   72.9440  220.9452 H   0  0  0  0  0  0  0  0  0  0  0  0
  139.3965   74.0385  219.7105 H   0  0  0  0  0  0  0  0  0  0  0  0
  141.5372   73.7093  220.9830 H   0  0  0  0  0  0  0  0  0  0  0  0
  139.5710   73.3650  223.0470 H   0  0  0  0  0  0  0  0  0  0  0  0
  141.4512   75.7015  222.7259 H   0  0  0  0  0  0  0  0  0  0  0  0
  141.0877   76.1718  221.0917 H   0  0  0  0  0  0  0  0  0  0  0  0
  139.1475   75.5333  223.3928 H   0  0  0  0  0  0  0  0  0  0  0  0
  138.3263   77.4739  221.5380 H   0  0  0  0  0  0  0  0  0  0  0  0
  138.4611   77.4187  223.3527 H   0  0  0  0  0  0  0  0  0  0  0  0
  140.4029   78.5043  224.4946 H   0  0  0  0  0  0  0  0  0  0  0  0
  142.4834   80.0071  223.7039 H   0  0  0  0  0  0  0  0  0  0  0  0
  142.5518   79.8172  221.0143 H   0  0  0  0  0  0  0  0  0  0  0  0
  136.2310   69.8522  223.4821 H   0  0  0  0  0  0  0  0  0  0  0  0
  137.0653   68.4322  225.3299 H   0  0  0  0  0  0  0  0  0  0  0  0
  138.7424   68.0078  226.9355 H   0  0  0  0  0  0  0  0  0  0  0  0
  142.1462   70.5563  227.2597 H   0  0  0  0  0  0  0  0  0  0  0  0
  141.2958   71.9595  225.4228 H   0  0  0  0  0  0  0  0  0  0  0  0
  1  2  2  0
  2  3  1  0
  3  4  1  0
  4  5  1  0
  5  6  2  0
  5  7  1  0
  7  8  1  0
  8  9  1  0
  9 10  1  0
  9 11  1  0
 11 12  1  0
 12 13  1  0
 13 14  1  0
 14 15  1  0
 15 16  2  0
 16 17  1  0
 17 18  2  0
  2 19  1  0
 19 20  2  0
 20 21  1  0
 21 22  2  0
 22 23  1  0
 23 24  2  0
 24 25  1  0
 24 26  1  0
 26 27  2  0
 27 28  1  0
 28 29  2  0
 12  7  1  0
 18 14  1  0
 29 19  1  0
 28 22  1  0
  3 30  1  0
  4 31  1  0
  4 32  1  0
  8 33  1  0
  8 34  1  0
  9 35  1  6
 10 36  1  0
 11 37  1  0
 11 38  1  0
 12 39  1  1
 13 40  1  0
 13 41  1  0
 15 42  1  0
 16 43  1  0
 17 44  1  0
 20 45  1  0
 21 46  1  0
 23 47  1  0
 26 48  1  0
 27 49  1  0
M  END
>  <smiles>  (37) 
O=C(NCC(=O)N1C[C@H](O)C[C@H]1Cn1cccn1)c1ccc2cc(Cl)ccc2n1

>  <score_type>  (37) 
oracle

>  <origin>  (37) 
autodockgpu

>  <m_score__min__energy>  (37) 
-8.6699999999999999

>  <m_primary>  (37) 
energy

>  <rmsd>  (37) 
2.4966630428820245

>  <m_score__min__rmsd>  (37) 
2.4966630428820245

>  <meeko>  (37) 
{"free_energy": -7.31, "intermolecular_energy": -9.4, "internal_energy": -2.34, "cluster_size": 6, "cluster_id": 2, "rank_in_cluster": 2}

>  <energy>  (37) 
-5.75

>  <cluster_rmsd>  (37) 
1.25

>  <cluster>  (37) 
6

$$$$

     RDKit          3D

 49 52  0  0  0  0  0  0  0  0999 V2000
  138.8540   72.3720  220.5680 O   0  0  0  0  0  0  0  0  0  0  0  0
  137.9650   72.2010  221.4400 C   0  0  0  0  0  0  0  0  0  0  0  0
  136.6300   72.6680  221.3050 N   0  0  0  0  0  0  0  0  0  0  0  0
  136.1980   73.3880  220.1240 C   0  0  0  0  0  0  0  0  0  0  0  0
  136.7760   74.7560  220.0930 C   0  0  0  0  0  0  0  0  0  0  0  0
  136.2390   75.5700  219.2870 O   0  0  0  0  0  0  0  0  0  0  0  0
  137.8840   75.1380  220.9300 N   0  0  0  0  0  0  0  0  0  0  0  0
  139.2130   75.3100  220.3990 C   0  0  0  0  0  0  0  0  0  0  0  0
  140.0110   75.4740  221.6950 C   0  0  2  0  0  0  0  0  0  0  0  0
  140.2930   74.1830  222.1430 O   0  0  0  0  0  0  0  0  0  0  0  0
  139.0190   76.1300  222.6450 C   0  0  0  0  0  0  0  0  0  0  0  0
  137.7790   75.3690  222.3390 C   0  0  1  0  0  0  0  0  0  0  0  0
  136.5210   76.0190  222.8180 C   0  0  0  0  0  0  0  0  0  0  0  0
  135.7710   75.1800  223.7320 N   0  0  0  0  0  0  0  0  0  0  0  0
  135.1680   75.6300  224.8730 C   0  0  0  0  0  0  0  0  0  0  0  0
  134.5430   74.5760  225.5080 C   0  0  0  0  0  0  0  0  0  0  0  0
  134.7920   73.4790  224.7090 C   0  0  0  0  0  0  0  0  0  0  0  0
  135.5170   73.8830  223.6770 N   0  0  0  0  0  0  0  0  0  0  0  0
  138.3270   71.4740  222.6760 C   0  0  0  0  0  0  0  0  0  0  0  0
  137.6030   70.3790  223.0840 C   0  0  0  0  0  0  0  0  0  0  0  0
  137.8820   69.6560  224.2240 C   0  0  0  0  0  0  0  0  0  0  0  0
  138.9600   70.0790  224.9780 C   0  0  0  0  0  0  0  0  0  0  0  0
  139.2710   69.3800  226.1250 C   0  0  0  0  0  0  0  0  0  0  0  0
  140.3320   69.7520  226.9170 C   0  0  0  0  0  0  0  0  0  0  0  0
  140.6760   68.8280  228.3580 Cl  0  0  0  0  0  0  0  0  0  0  0  0
  141.0650   70.8440  226.5220 C   0  0  0  0  0  0  0  0  0  0  0  0
  140.7600   71.5550  225.3700 C   0  0  0  0  0  0  0  0  0  0  0  0
  139.6850   71.1830  224.5580 C   0  0  0  0  0  0  0  0  0  0  0  0
  139.3640   71.8490  223.4410 N   0  0  0  0  0  0  0  0  0  0  0  0
  135.8980   72.5180  222.0440 H   0  0  0  0  0  0  0  0  0  0  0  0
  136.5248   72.8391  219.2285 H   0  0  0  0  0  0  0  0  0  0  0  0
  135.1014   73.4715  220.1462 H   0  0  0  0  0  0  0  0  0  0  0  0
  139.5402   74.4277  219.8293 H   0  0  0  0  0  0  0  0  0  0  0  0
  139.3184   76.1418  219.6869 H   0  0  0  0  0  0  0  0  0  0  0  0
  140.9427   76.0511  221.6004 H   0  0  0  0  0  0  0  0  0  0  0  0
  139.4370   73.6620  222.2270 H   0  0  0  0  0  0  0  0  0  0  0  0
  139.3215   76.0023  223.6948 H   0  0  0  0  0  0  0  0  0  0  0  0
  138.9237   77.2184  222.5171 H   0  0  0  0  0  0  0  0  0  0  0  0
  137.6996   74.4212  222.8916 H   0  0  0  0  0  0  0  0  0  0  0  0
  136.7826   76.9549  223.3335 H   0  0  0  0  0  0  0  0  0  0  0  0
  135.8862   76.2028  221.9386 H   0  0  0  0  0  0  0  0  0  0  0  0
  135.1791   76.6705  225.2298 H   0  0  0  0  0  0  0  0  0  0  0  0
  133.9707   74.6043  226.4470 H   0  0  0  0  0  0  0  0  0  0  0  0
  134.4490   72.4507  224.8961 H   0  0  0  0  0  0  0  0  0  0  0  0
  136.7513   70.0612  222.4646 H   0  0  0  0  0  0  0  0  0  0  0  0
  137.2769   68.7860  224.5187 H   0  0  0  0  0  0  0  0  0  0  0  0
  138.6607   68.5108  226.4112 H   0  0  0  0  0  0  0  0  0  0  0  0
  141.9190   71.1645  227.1368 H   0  0  0  0  0  0  0  0  0  0  0  0
  141.3736   72.4245  225.0917 H   0  0  0  0  0  0  0  0  0  0  0  0
  1  2  2  0
  2  3  1  0
  3  4  1  0
  4  5  1  0
  5  6  2  0
  5  7  1  0
  7  8  1  0
  8  9  1  0
  9 10  1  0
  9 11  1  0
 11 12  1  0
 12 13  1  0
 13 14  1  0
 14 15  1  0
 15 16  2  0
 16 17  1  0
 17 18  2  0
  2 19  1  0
 19 20  2  0
 20 21  1  0
 21 22  2  0
 22 23  1  0
 23 24  2  0
 24 25  1  0
 24 26  1  0
 26 27  2  0
 27 28  1  0
 28 29  2  0
 12  7  1  0
 18 14  1  0
 29 19  1  0
 28 22  1  0
  3 30  1  0
  4 31  1  0
  4 32  1  0
  8 33  1  0
  8 34  1  0
  9 35  1  6
 10 36  1  0
 11 37  1  0
 11 38  1  0
 12 39  1  1
 13 40  1  0
 13 41  1  0
 15 42  1  0
 16 43  1  0
 17 44  1  0
 20 45  1  0
 21 46  1  0
 23 47  1  0
 26 48  1  0
 27 49  1  0
M  END
>  <smiles>  (38) 
O=C(NCC(=O)N1C[C@H](O)C[C@H]1Cn1cccn1)c1ccc2cc(Cl)ccc2n1

>  <score_type>  (38) 
oracle

>  <origin>  (38) 
autodockgpu

>  <m_score__min__energy>  (38) 
-8.6699999999999999

>  <m_primary>  (38) 
energy

>  <rmsd>  (38) 
4.3510391579726555

>  <m_score__min__rmsd>  (38) 
4.3510391579726555

>  <meeko>  (38) 
{"free_energy": -5.62, "intermolecular_energy": -7.7, "internal_energy": -3.99, "cluster_size": 10, "cluster_id": 6, "rank_in_cluster": 7}

>  <energy>  (38) 
-5.73

>  <cluster_rmsd>  (38) 
1.56

>  <cluster>  (38) 
6

$$$$

     RDKit          3D

 49 52  0  0  0  0  0  0  0  0999 V2000
  138.3270   72.0170  220.6030 O   0  0  0  0  0  0  0  0  0  0  0  0
  137.6030   72.0230  221.6310 C   0  0  0  0  0  0  0  0  0  0  0  0
  136.3350   72.6610  221.6960 N   0  0  0  0  0  0  0  0  0  0  0  0
  135.7810   73.3600  220.5550 C   0  0  0  0  0  0  0  0  0  0  0  0
  136.3860   74.7090  220.4120 C   0  0  0  0  0  0  0  0  0  0  0  0
  135.8080   75.4970  219.6080 O   0  0  0  0  0  0  0  0  0  0  0  0
  137.5620   75.1020  221.1440 N   0  0  0  0  0  0  0  0  0  0  0  0
  138.8580   75.1760  220.5170 C   0  0  0  0  0  0  0  0  0  0  0  0
  139.7470   75.3990  221.7430 C   0  0  2  0  0  0  0  0  0  0  0  0
  140.0080   74.1330  222.2700 O   0  0  0  0  0  0  0  0  0  0  0  0
  138.8490   76.1670  222.7010 C   0  0  0  0  0  0  0  0  0  0  0  0
  137.5610   75.4410  222.5350 C   0  0  1  0  0  0  0  0  0  0  0  0
  136.3650   76.1800  223.0430 C   0  0  0  0  0  0  0  0  0  0  0  0
  135.6050   75.4140  224.0110 N   0  0  0  0  0  0  0  0  0  0  0  0
  134.8710   75.9650  225.0250 C   0  0  0  0  0  0  0  0  0  0  0  0
  134.2760   74.9590  225.7580 C   0  0  0  0  0  0  0  0  0  0  0  0
  134.6770   73.7870  225.1500 C   0  0  0  0  0  0  0  0  0  0  0  0
  135.4560   74.1050  224.1280 N   0  0  0  0  0  0  0  0  0  0  0  0
  138.0970   71.3300  222.8390 C   0  0  0  0  0  0  0  0  0  0  0  0
  137.4730   70.1970  223.3040 C   0  0  0  0  0  0  0  0  0  0  0  0
  137.8790   69.5010  224.4230 C   0  0  0  0  0  0  0  0  0  0  0  0
  138.9800   69.9960  225.0950 C   0  0  0  0  0  0  0  0  0  0  0  0
  139.4160   69.3260  226.2190 C   0  0  0  0  0  0  0  0  0  0  0  0
  140.5080   69.7690  226.9300 C   0  0  0  0  0  0  0  0  0  0  0  0
  141.0110   68.8780  228.3450 Cl  0  0  0  0  0  0  0  0  0  0  0  0
  141.1420   70.8990  226.4780 C   0  0  0  0  0  0  0  0  0  0  0  0
  140.7110   71.5800  225.3480 C   0  0  0  0  0  0  0  0  0  0  0  0
  139.6040   71.1380  224.6190 C   0  0  0  0  0  0  0  0  0  0  0  0
  139.1630   71.7730  223.5250 N   0  0  0  0  0  0  0  0  0  0  0  0
  135.7420   72.6570  222.5640 H   0  0  0  0  0  0  0  0  0  0  0  0
  135.9819   72.7773  219.6439 H   0  0  0  0  0  0  0  0  0  0  0  0
  134.6978   73.4761  220.7072 H   0  0  0  0  0  0  0  0  0  0  0  0
  139.1114   74.2409  219.9960 H   0  0  0  0  0  0  0  0  0  0  0  0
  138.9478   75.9479  219.7385 H   0  0  0  0  0  0  0  0  0  0  0  0
  140.6924   75.9252  221.5447 H   0  0  0  0  0  0  0  0  0  0  0  0
  139.1880   73.7900  222.7400 H   0  0  0  0  0  0  0  0  0  0  0  0
  139.2166   76.1043  223.7359 H   0  0  0  0  0  0  0  0  0  0  0  0
  138.7886   77.2460  222.4960 H   0  0  0  0  0  0  0  0  0  0  0  0
  137.4810   74.5413  223.1627 H   0  0  0  0  0  0  0  0  0  0  0  0
  136.7031   77.1123  223.5189 H   0  0  0  0  0  0  0  0  0  0  0  0
  135.7066   76.3778  222.1843 H   0  0  0  0  0  0  0  0  0  0  0  0
  134.7707   77.0420  225.2249 H   0  0  0  0  0  0  0  0  0  0  0  0
  133.6233   75.0676  226.6367 H   0  0  0  0  0  0  0  0  0  0  0  0
  134.3987   72.7688  225.4597 H   0  0  0  0  0  0  0  0  0  0  0  0
  136.5985   69.8236  222.7510 H   0  0  0  0  0  0  0  0  0  0  0  0
  137.3527   68.5971  224.7635 H   0  0  0  0  0  0  0  0  0  0  0  0
  138.8827   68.4235  226.5523 H   0  0  0  0  0  0  0  0  0  0  0  0
  142.0173   71.2761  227.0273 H   0  0  0  0  0  0  0  0  0  0  0  0
  141.2494   72.4819  225.0212 H   0  0  0  0  0  0  0  0  0  0  0  0
  1  2  2  0
  2  3  1  0
  3  4  1  0
  4  5  1  0
  5  6  2  0
  5  7  1  0
  7  8  1  0
  8  9  1  0
  9 10  1  0
  9 11  1  0
 11 12  1  0
 12 13  1  0
 13 14  1  0
 14 15  1  0
 15 16  2  0
 16 17  1  0
 17 18  2  0
  2 19  1  0
 19 20  2  0
 20 21  1  0
 21 22  2  0
 22 23  1  0
 23 24  2  0
 24 25  1  0
 24 26  1  0
 26 27  2  0
 27 28  1  0
 28 29  2  0
 12  7  1  0
 18 14  1  0
 29 19  1  0
 28 22  1  0
  3 30  1  0
  4 31  1  0
  4 32  1  0
  8 33  1  0
  8 34  1  0
  9 35  1  6
 10 36  1  0
 11 37  1  0
 11 38  1  0
 12 39  1  1
 13 40  1  0
 13 41  1  0
 15 42  1  0
 16 43  1  0
 17 44  1  0
 20 45  1  0
 21 46  1  0
 23 47  1  0
 26 48  1  0
 27 49  1  0
M  END
>  <smiles>  (39) 
O=C(NCC(=O)N1C[C@H](O)C[C@H]1Cn1cccn1)c1ccc2cc(Cl)ccc2n1

>  <score_type>  (39) 
oracle

>  <origin>  (39) 
autodockgpu

>  <m_score__min__energy>  (39) 
-8.6699999999999999

>  <m_primary>  (39) 
energy

>  <rmsd>  (39) 
4.425699251461185

>  <m_score__min__rmsd>  (39) 
4.425699251461185

>  <meeko>  (39) 
{"free_energy": -6.02, "intermolecular_energy": -8.11, "internal_energy": -3.48, "cluster_size": 10, "cluster_id": 6, "rank_in_cluster": 2}

>  <energy>  (39) 
-5.62

>  <cluster_rmsd>  (39) 
0.66

>  <cluster>  (39) 
6

$$$$

     RDKit          3D

 49 52  0  0  0  0  0  0  0  0999 V2000
  141.1870   72.7810  221.5090 O   0  0  0  0  0  0  0  0  0  0  0  0
  140.2510   72.8630  222.3450 C   0  0  0  0  0  0  0  0  0  0  0  0
  139.2260   73.8450  222.2850 N   0  0  0  0  0  0  0  0  0  0  0  0
  139.1920   74.8380  221.2320 C   0  0  0  0  0  0  0  0  0  0  0  0
  140.0650   75.9940  221.5600 C   0  0  0  0  0  0  0  0  0  0  0  0
  139.9300   76.4830  222.7190 O   0  0  0  0  0  0  0  0  0  0  0  0
  141.0130   76.5290  220.6180 N   0  0  0  0  0  0  0  0  0  0  0  0
  141.4620   75.7700  219.4770 C   0  0  0  0  0  0  0  0  0  0  0  0
  142.5880   76.6740  218.9670 C   0  0  2  0  0  0  0  0  0  0  0  0
  143.7200   76.3400  219.7110 O   0  0  0  0  0  0  0  0  0  0  0  0
  142.1270   78.0710  219.3530 C   0  0  0  0  0  0  0  0  0  0  0  0
  141.5960   77.8330  220.7220 C   0  0  1  0  0  0  0  0  0  0  0  0
  140.7120   78.9210  221.2410 C   0  0  0  0  0  0  0  0  0  0  0  0
  141.3570   79.7280  222.2590 N   0  0  0  0  0  0  0  0  0  0  0  0
  142.5960   79.4700  222.7760 C   0  0  0  0  0  0  0  0  0  0  0  0
  142.9060   80.4270  223.7200 C   0  0  0  0  0  0  0  0  0  0  0  0
  141.8110   81.2670  223.7510 C   0  0  0  0  0  0  0  0  0  0  0  0
  140.9270   80.8150  222.8750 N   0  0  0  0  0  0  0  0  0  0  0  0
  140.2140   71.8840  223.4520 C   0  0  0  0  0  0  0  0  0  0  0  0
  139.7180   70.6180  223.2540 C   0  0  0  0  0  0  0  0  0  0  0  0
  139.6520   69.6560  224.2400 C   0  0  0  0  0  0  0  0  0  0  0  0
  140.1220   70.0150  225.4880 C   0  0  0  0  0  0  0  0  0  0  0  0
  140.0740   69.0780  226.5000 C   0  0  0  0  0  0  0  0  0  0  0  0
  140.5290   69.3760  227.7640 C   0  0  0  0  0  0  0  0  0  0  0  0
  140.4410   68.1490  229.0030 Cl  0  0  0  0  0  0  0  0  0  0  0  0
  141.0280   70.6360  227.9770 C   0  0  0  0  0  0  0  0  0  0  0  0
  141.0810   71.5860  226.9660 C   0  0  0  0  0  0  0  0  0  0  0  0
  140.6230   71.2930  225.6790 C   0  0  0  0  0  0  0  0  0  0  0  0
  140.6600   72.1870  224.6820 N   0  0  0  0  0  0  0  0  0  0  0  0
  138.4510   73.9000  222.9930 H   0  0  0  0  0  0  0  0  0  0  0  0
  139.5397   74.3797  220.2944 H   0  0  0  0  0  0  0  0  0  0  0  0
  138.1585   75.1993  221.1252 H   0  0  0  0  0  0  0  0  0  0  0  0
  141.8383   74.7790  219.7709 H   0  0  0  0  0  0  0  0  0  0  0  0
  140.6795   75.5496  218.7360 H   0  0  0  0  0  0  0  0  0  0  0  0
  142.8058   76.5888  217.8922 H   0  0  0  0  0  0  0  0  0  0  0  0
  144.0670   77.1590  220.1810 H   0  0  0  0  0  0  0  0  0  0  0  0
  142.9652   78.7832  219.3641 H   0  0  0  0  0  0  0  0  0  0  0  0
  141.3990   78.5141  218.6575 H   0  0  0  0  0  0  0  0  0  0  0  0
  142.3710   77.8604  221.5022 H   0  0  0  0  0  0  0  0  0  0  0  0
  140.4276   79.5736  220.4024 H   0  0  0  0  0  0  0  0  0  0  0  0
  139.8339   78.4446  221.7014 H   0  0  0  0  0  0  0  0  0  0  0  0
  143.2444   78.6305  222.4848 H   0  0  0  0  0  0  0  0  0  0  0  0
  143.8260   80.5040  224.3181 H   0  0  0  0  0  0  0  0  0  0  0  0
  141.6937   82.1545  224.3902 H   0  0  0  0  0  0  0  0  0  0  0  0
  139.3521   70.3564  222.2502 H   0  0  0  0  0  0  0  0  0  0  0  0
  139.2454   68.6532  224.0424 H   0  0  0  0  0  0  0  0  0  0  0  0
  139.6658   68.0777  226.2931 H   0  0  0  0  0  0  0  0  0  0  0  0
  141.3971   70.9015  228.9786 H   0  0  0  0  0  0  0  0  0  0  0  0
  141.4897   72.5843  227.1815 H   0  0  0  0  0  0  0  0  0  0  0  0
  1  2  2  0
  2  3  1  0
  3  4  1  0
  4  5  1  0
  5  6  2  0
  5  7  1  0
  7  8  1  0
  8  9  1  0
  9 10  1  0
  9 11  1  0
 11 12  1  0
 12 13  1  0
 13 14  1  0
 14 15  1  0
 15 16  2  0
 16 17  1  0
 17 18  2  0
  2 19  1  0
 19 20  2  0
 20 21  1  0
 21 22  2  0
 22 23  1  0
 23 24  2  0
 24 25  1  0
 24 26  1  0
 26 27  2  0
 27 28  1  0
 28 29  2  0
 12  7  1  0
 18 14  1  0
 29 19  1  0
 28 22  1  0
  3 30  1  0
  4 31  1  0
  4 32  1  0
  8 33  1  0
  8 34  1  0
  9 35  1  6
 10 36  1  0
 11 37  1  0
 11 38  1  0
 12 39  1  1
 13 40  1  0
 13 41  1  0
 15 42  1  0
 16 43  1  0
 17 44  1  0
 20 45  1  0
 21 46  1  0
 23 47  1  0
 26 48  1  0
 27 49  1  0
M  END
>  <smiles>  (40) 
O=C(NCC(=O)N1C[C@H](O)C[C@H]1Cn1cccn1)c1ccc2cc(Cl)ccc2n1

>  <score_type>  (40) 
oracle

>  <origin>  (40) 
autodockgpu

>  <m_score__min__energy>  (40) 
-8.6699999999999999

>  <m_primary>  (40) 
energy

>  <rmsd>  (40) 
1.990996697708681

>  <m_score__min__rmsd>  (40) 
1.990996697708681

>  <meeko>  (40) 
{"free_energy": -8.61, "intermolecular_energy": -10.7, "internal_energy": -1.31, "cluster_size": 24, "cluster_id": 1, "rank_in_cluster": 2}

>  <energy>  (40) 
-5.62

>  <cluster_rmsd>  (40) 
0.7

>  <cluster>  (40) 
6

$$$$

     RDKit          3D

 49 52  0  0  0  0  0  0  0  0999 V2000
  138.8160   72.2810  220.5490 O   0  0  0  0  0  0  0  0  0  0  0  0
  137.9450   72.1300  221.4440 C   0  0  0  0  0  0  0  0  0  0  0  0
  136.6160   72.6210  221.3400 N   0  0  0  0  0  0  0  0  0  0  0  0
  136.1670   73.3430  220.1670 C   0  0  0  0  0  0  0  0  0  0  0  0
  136.7400   74.7120  220.1310 C   0  0  0  0  0  0  0  0  0  0  0  0
  136.1820   75.5310  219.3440 O   0  0  0  0  0  0  0  0  0  0  0  0
  137.8650   75.0920  220.9460 N   0  0  0  0  0  0  0  0  0  0  0  0
  139.1890   75.2380  220.3920 C   0  0  0  0  0  0  0  0  0  0  0  0
  140.0080   75.4110  221.6740 C   0  0  2  0  0  0  0  0  0  0  0  0
  140.2800   74.1230  222.1380 O   0  0  0  0  0  0  0  0  0  0  0  0
  139.0400   76.0950  222.6280 C   0  0  0  0  0  0  0  0  0  0  0  0
  137.7850   75.3460  222.3530 C   0  0  1  0  0  0  0  0  0  0  0  0
  136.5440   76.0200  222.8400 C   0  0  0  0  0  0  0  0  0  0  0  0
  135.7750   75.1890  223.7460 N   0  0  0  0  0  0  0  0  0  0  0  0
  135.1070   75.6570  224.8430 C   0  0  0  0  0  0  0  0  0  0  0  0
  134.4820   74.6060  225.4820 C   0  0  0  0  0  0  0  0  0  0  0  0
  134.7980   73.4920  224.7320 C   0  0  0  0  0  0  0  0  0  0  0  0
  135.5600   73.8850  223.7220 N   0  0  0  0  0  0  0  0  0  0  0  0
  138.3250   71.4040  222.6740 C   0  0  0  0  0  0  0  0  0  0  0  0
  137.6510   70.2690  223.0560 C   0  0  0  0  0  0  0  0  0  0  0  0
  137.9490   69.5420  224.1890 C   0  0  0  0  0  0  0  0  0  0  0  0
  138.9940   70.0070  224.9650 C   0  0  0  0  0  0  0  0  0  0  0  0
  139.3230   69.3060  226.1070 C   0  0  0  0  0  0  0  0  0  0  0  0
  140.3530   69.7190  226.9200 C   0  0  0  0  0  0  0  0  0  0  0  0
  140.7220   68.7900  228.3520 Cl  0  0  0  0  0  0  0  0  0  0  0  0
  141.0370   70.8500  226.5520 C   0  0  0  0  0  0  0  0  0  0  0  0
  140.7130   71.5630  225.4050 C   0  0  0  0  0  0  0  0  0  0  0  0
  139.6690   71.1520  224.5720 C   0  0  0  0  0  0  0  0  0  0  0  0
  139.3320   71.8170  223.4600 N   0  0  0  0  0  0  0  0  0  0  0  0
  135.9000   72.4880  222.0980 H   0  0  0  0  0  0  0  0  0  0  0  0
  136.4835   72.7971  219.2660 H   0  0  0  0  0  0  0  0  0  0  0  0
  135.0706   73.4237  220.2045 H   0  0  0  0  0  0  0  0  0  0  0  0
  139.4960   74.3428  219.8313 H   0  0  0  0  0  0  0  0  0  0  0  0
  139.2950   76.0570  219.6653 H   0  0  0  0  0  0  0  0  0  0  0  0
  140.9457   75.9741  221.5567 H   0  0  0  0  0  0  0  0  0  0  0  0
  139.4220   73.6020  222.2040 H   0  0  0  0  0  0  0  0  0  0  0  0
  139.3569   75.9797  223.6750 H   0  0  0  0  0  0  0  0  0  0  0  0
  138.9573   77.1824  222.4842 H   0  0  0  0  0  0  0  0  0  0  0  0
  137.7018   74.4082  222.9219 H   0  0  0  0  0  0  0  0  0  0  0  0
  136.8282   76.9438  223.3652 H   0  0  0  0  0  0  0  0  0  0  0  0
  135.9130   76.2283  221.9634 H   0  0  0  0  0  0  0  0  0  0  0  0
  135.0730   76.7080  225.1660 H   0  0  0  0  0  0  0  0  0  0  0  0
  133.8655   74.6473  226.3920 H   0  0  0  0  0  0  0  0  0  0  0  0
  134.4747   72.4606  224.9363 H   0  0  0  0  0  0  0  0  0  0  0  0
  136.8244   69.9196  222.4199 H   0  0  0  0  0  0  0  0  0  0  0  0
  137.3841   68.6383  224.4614 H   0  0  0  0  0  0  0  0  0  0  0  0
  138.7530   68.4031  226.3714 H   0  0  0  0  0  0  0  0  0  0  0  0
  141.8659   71.2022  227.1836 H   0  0  0  0  0  0  0  0  0  0  0  0
  141.2872   72.4654  225.1482 H   0  0  0  0  0  0  0  0  0  0  0  0
  1  2  2  0
  2  3  1  0
  3  4  1  0
  4  5  1  0
  5  6  2  0
  5  7  1  0
  7  8  1  0
  8  9  1  0
  9 10  1  0
  9 11  1  0
 11 12  1  0
 12 13  1  0
 13 14  1  0
 14 15  1  0
 15 16  2  0
 16 17  1  0
 17 18  2  0
  2 19  1  0
 19 20  2  0
 20 21  1  0
 21 22  2  0
 22 23  1  0
 23 24  2  0
 24 25  1  0
 24 26  1  0
 26 27  2  0
 27 28  1  0
 28 29  2  0
 12  7  1  0
 18 14  1  0
 29 19  1  0
 28 22  1  0
  3 30  1  0
  4 31  1  0
  4 32  1  0
  8 33  1  0
  8 34  1  0
  9 35  1  6
 10 36  1  0
 11 37  1  0
 11 38  1  0
 12 39  1  1
 13 40  1  0
 13 41  1  0
 15 42  1  0
 16 43  1  0
 17 44  1  0
 20 45  1  0
 21 46  1  0
 23 47  1  0
 26 48  1  0
 27 49  1  0
M  END
>  <smiles>  (41) 
O=C(NCC(=O)N1C[C@H](O)C[C@H]1Cn1cccn1)c1ccc2cc(Cl)ccc2n1

>  <score_type>  (41) 
oracle

>  <origin>  (41) 
autodockgpu

>  <m_score__min__energy>  (41) 
-8.6699999999999999

>  <m_primary>  (41) 
energy

>  <rmsd>  (41) 
4.340598175470463

>  <m_score__min__rmsd>  (41) 
4.340598175470463

>  <meeko>  (41) 
{"free_energy": -5.62, "intermolecular_energy": -7.71, "internal_energy": -3.98, "cluster_size": 10, "cluster_id": 6, "rank_in_cluster": 5}

>  <energy>  (41) 
-5.62

>  <cluster_rmsd>  (41) 
0.67

>  <cluster>  (41) 
6

$$$$

     RDKit          3D

 49 52  0  0  0  0  0  0  0  0999 V2000
  140.2380   72.4020  220.7980 O   0  0  0  0  0  0  0  0  0  0  0  0
  139.9390   72.8280  221.9430 C   0  0  0  0  0  0  0  0  0  0  0  0
  139.5500   74.1680  222.2070 N   0  0  0  0  0  0  0  0  0  0  0  0
  139.4690   75.1540  221.1490 C   0  0  0  0  0  0  0  0  0  0  0  0
  139.0140   76.4660  221.6760 C   0  0  0  0  0  0  0  0  0  0  0  0
  138.5300   76.4600  222.8450 O   0  0  0  0  0  0  0  0  0  0  0  0
  139.1170   77.6770  220.9050 N   0  0  0  0  0  0  0  0  0  0  0  0
  138.0010   78.5760  220.7490 C   0  0  0  0  0  0  0  0  0  0  0  0
  138.5590   79.5320  219.6910 C   0  0  2  0  0  0  0  0  0  0  0  0
  138.3210   78.9270  218.4570 O   0  0  0  0  0  0  0  0  0  0  0  0
  140.0550   79.5380  219.9680 C   0  0  0  0  0  0  0  0  0  0  0  0
  140.3070   78.0950  220.2260 C   0  0  1  0  0  0  0  0  0  0  0  0
  141.6040   77.8060  220.9100 C   0  0  0  0  0  0  0  0  0  0  0  0
  141.8180   78.6390  222.0770 N   0  0  0  0  0  0  0  0  0  0  0  0
  141.4240   78.3090  223.3430 C   0  0  0  0  0  0  0  0  0  0  0  0
  141.7800   79.3190  224.2130 C   0  0  0  0  0  0  0  0  0  0  0  0
  142.4020   80.2660  223.4250 C   0  0  0  0  0  0  0  0  0  0  0  0
  142.4000   79.8220  222.1770 N   0  0  0  0  0  0  0  0  0  0  0  0
  139.9970   71.8820  223.0780 C   0  0  0  0  0  0  0  0  0  0  0  0
  139.5470   70.5900  222.9390 C   0  0  0  0  0  0  0  0  0  0  0  0
  139.5690   69.6570  223.9530 C   0  0  0  0  0  0  0  0  0  0  0  0
  140.0800   70.0730  225.1680 C   0  0  0  0  0  0  0  0  0  0  0  0
  140.1200   69.1660  226.2060 C   0  0  0  0  0  0  0  0  0  0  0  0
  140.6180   69.5210  227.4390 C   0  0  0  0  0  0  0  0  0  0  0  0
  140.6420   68.3290  228.7150 Cl  0  0  0  0  0  0  0  0  0  0  0  0
  141.0710   70.8070  227.5930 C   0  0  0  0  0  0  0  0  0  0  0  0
  141.0360   71.7270  226.5540 C   0  0  0  0  0  0  0  0  0  0  0  0
  140.5330   71.3760  225.2990 C   0  0  0  0  0  0  0  0  0  0  0  0
  140.4840   72.2410  224.2760 N   0  0  0  0  0  0  0  0  0  0  0  0
  139.3040   74.5080  223.1720 H   0  0  0  0  0  0  0  0  0  0  0  0
  140.4629   75.2748  220.6933 H   0  0  0  0  0  0  0  0  0  0  0  0
  138.7412   74.8059  220.4013 H   0  0  0  0  0  0  0  0  0  0  0  0
  137.1038   78.0510  220.3893 H   0  0  0  0  0  0  0  0  0  0  0  0
  137.6710   79.0629  221.6785 H   0  0  0  0  0  0  0  0  0  0  0  0
  138.1286   80.5442  219.7022 H   0  0  0  0  0  0  0  0  0  0  0  0
  137.8610   78.0440  218.5980 H   0  0  0  0  0  0  0  0  0  0  0  0
  140.6245   79.8974  219.0983 H   0  0  0  0  0  0  0  0  0  0  0  0
  140.3593   80.2033  220.7895 H   0  0  0  0  0  0  0  0  0  0  0  0
  140.4670   77.5086  219.3092 H   0  0  0  0  0  0  0  0  0  0  0  0
  141.6091   76.7518  221.2242 H   0  0  0  0  0  0  0  0  0  0  0  0
  142.4121   78.0209  220.1953 H   0  0  0  0  0  0  0  0  0  0  0  0
  140.9036   77.3818  223.6249 H   0  0  0  0  0  0  0  0  0  0  0  0
  141.6060   79.3604  225.2984 H   0  0  0  0  0  0  0  0  0  0  0  0
  142.8246   81.2205  223.7719 H   0  0  0  0  0  0  0  0  0  0  0  0
  139.1462   70.2834  221.9616 H   0  0  0  0  0  0  0  0  0  0  0  0
  139.1983   68.6323  223.8029 H   0  0  0  0  0  0  0  0  0  0  0  0
  139.7482   68.1432  226.0461 H   0  0  0  0  0  0  0  0  0  0  0  0
  141.4737   71.1181  228.5682 H   0  0  0  0  0  0  0  0  0  0  0  0
  141.4100   72.7478  226.7215 H   0  0  0  0  0  0  0  0  0  0  0  0
  1  2  2  0
  2  3  1  0
  3  4  1  0
  4  5  1  0
  5  6  2  0
  5  7  1  0
  7  8  1  0
  8  9  1  0
  9 10  1  0
  9 11  1  0
 11 12  1  0
 12 13  1  0
 13 14  1  0
 14 15  1  0
 15 16  2  0
 16 17  1  0
 17 18  2  0
  2 19  1  0
 19 20  2  0
 20 21  1  0
 21 22  2  0
 22 23  1  0
 23 24  2  0
 24 25  1  0
 24 26  1  0
 26 27  2  0
 27 28  1  0
 28 29  2  0
 12  7  1  0
 18 14  1  0
 29 19  1  0
 28 22  1  0
  3 30  1  0
  4 31  1  0
  4 32  1  0
  8 33  1  0
  8 34  1  0
  9 35  1  6
 10 36  1  0
 11 37  1  0
 11 38  1  0
 12 39  1  6
 13 40  1  0
 13 41  1  0
 15 42  1  0
 16 43  1  0
 17 44  1  0
 20 45  1  0
 21 46  1  0
 23 47  1  0
 26 48  1  0
 27 49  1  0
M  END
>  <smiles>  (42) 
O=C(NCC(=O)N1C[C@H](O)C[C@H]1Cn1cccn1)c1ccc2cc(Cl)ccc2n1

>  <score_type>  (42) 
oracle

>  <origin>  (42) 
autodockgpu

>  <m_score__min__energy>  (42) 
-8.6699999999999999

>  <m_primary>  (42) 
energy

>  <rmsd>  (42) 
2.5304288575880007

>  <m_score__min__rmsd>  (42) 
2.5304288575880007

>  <meeko>  (42) 
{"free_energy": -7.07, "intermolecular_energy": -9.16, "internal_energy": -2.12, "cluster_size": 24, "cluster_id": 1, "rank_in_cluster": 19}

>  <energy>  (42) 
-5.61

>  <cluster_rmsd>  (42) 
0.68

>  <cluster>  (42) 
6

$$$$

     RDKit          3D

 49 52  0  0  0  0  0  0  0  0999 V2000
  139.0270   70.8460  221.0750 O   0  0  0  0  0  0  0  0  0  0  0  0
  139.0840   71.6550  222.0350 C   0  0  0  0  0  0  0  0  0  0  0  0
  138.6960   73.0190  221.9410 N   0  0  0  0  0  0  0  0  0  0  0  0
  138.1950   73.5770  220.7020 C   0  0  0  0  0  0  0  0  0  0  0  0
  139.3080   73.8810  219.7660 C   0  0  0  0  0  0  0  0  0  0  0  0
  139.0280   74.6400  218.7930 O   0  0  0  0  0  0  0  0  0  0  0  0
  140.6310   73.3450  219.9520 N   0  0  0  0  0  0  0  0  0  0  0  0
  141.0470   72.1140  219.3270 C   0  0  0  0  0  0  0  0  0  0  0  0
  142.3970   71.8940  220.0170 C   0  0  2  0  0  0  0  0  0  0  0  0
  142.1150   71.2560  221.2260 O   0  0  0  0  0  0  0  0  0  0  0  0
  142.8890   73.3060  220.2970 C   0  0  0  0  0  0  0  0  0  0  0  0
  141.6380   73.9620  220.7630 C   0  0  1  0  0  0  0  0  0  0  0  0
  141.6820   75.4560  220.7520 C   0  0  0  0  0  0  0  0  0  0  0  0
  140.5490   76.0540  221.4310 N   0  0  0  0  0  0  0  0  0  0  0  0
  140.1210   77.3370  221.2340 C   0  0  0  0  0  0  0  0  0  0  0  0
  139.0250   77.5830  222.0340 C   0  0  0  0  0  0  0  0  0  0  0  0
  138.8100   76.4040  222.7190 C   0  0  0  0  0  0  0  0  0  0  0  0
  139.7310   75.5350  222.3310 N   0  0  0  0  0  0  0  0  0  0  0  0
  139.5850   71.1620  223.3360 C   0  0  0  0  0  0  0  0  0  0  0  0
  140.4630   71.9130  224.0810 C   0  0  0  0  0  0  0  0  0  0  0  0
  140.9710   71.5160  225.3000 C   0  0  0  0  0  0  0  0  0  0  0  0
  140.5530   70.2870  225.7740 C   0  0  0  0  0  0  0  0  0  0  0  0
  141.0390   69.8570  226.9910 C   0  0  0  0  0  0  0  0  0  0  0  0
  140.6590   68.6430  227.5170 C   0  0  0  0  0  0  0  0  0  0  0  0
  141.3090   68.1520  229.0610 Cl  0  0  0  0  0  0  0  0  0  0  0  0
  139.7830   67.8820  226.7850 C   0  0  0  0  0  0  0  0  0  0  0  0
  139.2880   68.3060  225.5590 C   0  0  0  0  0  0  0  0  0  0  0  0
  139.6670   69.5370  225.0180 C   0  0  0  0  0  0  0  0  0  0  0  0
  139.2080   69.9750  223.8380 N   0  0  0  0  0  0  0  0  0  0  0  0
  138.7510   73.6820  222.7550 H   0  0  0  0  0  0  0  0  0  0  0  0
  137.5158   72.8520  220.2297 H   0  0  0  0  0  0  0  0  0  0  0  0
  137.6629   74.5126  220.9291 H   0  0  0  0  0  0  0  0  0  0  0  0
  140.3447   71.2939  219.5375 H   0  0  0  0  0  0  0  0  0  0  0  0
  141.0937   72.1501  218.2286 H   0  0  0  0  0  0  0  0  0  0  0  0
  143.1259   71.3043  219.4416 H   0  0  0  0  0  0  0  0  0  0  0  0
  141.1880   70.8690  221.1940 H   0  0  0  0  0  0  0  0  0  0  0  0
  143.6638   73.3153  221.0778 H   0  0  0  0  0  0  0  0  0  0  0  0
  143.3620   73.7981  219.4344 H   0  0  0  0  0  0  0  0  0  0  0  0
  141.4357   73.8077  221.8332 H   0  0  0  0  0  0  0  0  0  0  0  0
  142.6053   75.7846  221.2516 H   0  0  0  0  0  0  0  0  0  0  0  0
  141.6499   75.7817  219.7018 H   0  0  0  0  0  0  0  0  0  0  0  0
  140.5796   78.0610  220.5444 H   0  0  0  0  0  0  0  0  0  0  0  0
  138.4475   78.5161  222.1098 H   0  0  0  0  0  0  0  0  0  0  0  0
  138.0148   76.2191  223.4562 H   0  0  0  0  0  0  0  0  0  0  0  0
  140.7789   72.8879  223.6812 H   0  0  0  0  0  0  0  0  0  0  0  0
  141.6732   72.1455  225.8663 H   0  0  0  0  0  0  0  0  0  0  0  0
  141.7408   70.4937  227.5497 H   0  0  0  0  0  0  0  0  0  0  0  0
  139.4633   66.9069  227.1812 H   0  0  0  0  0  0  0  0  0  0  0  0
  138.5873   67.6634  225.0057 H   0  0  0  0  0  0  0  0  0  0  0  0
  1  2  2  0
  2  3  1  0
  3  4  1  0
  4  5  1  0
  5  6  2  0
  5  7  1  0
  7  8  1  0
  8  9  1  0
  9 10  1  0
  9 11  1  0
 11 12  1  0
 12 13  1  0
 13 14  1  0
 14 15  1  0
 15 16  2  0
 16 17  1  0
 17 18  2  0
  2 19  1  0
 19 20  2  0
 20 21  1  0
 21 22  2  0
 22 23  1  0
 23 24  2  0
 24 25  1  0
 24 26  1  0
 26 27  2  0
 27 28  1  0
 28 29  2  0
 12  7  1  0
 18 14  1  0
 29 19  1  0
 28 22  1  0
  3 30  1  0
  4 31  1  0
  4 32  1  0
  8 33  1  0
  8 34  1  0
  9 35  1  6
 10 36  1  0
 11 37  1  0
 11 38  1  0
 12 39  1  1
 13 40  1  0
 13 41  1  0
 15 42  1  0
 16 43  1  0
 17 44  1  0
 20 45  1  0
 21 46  1  0
 23 47  1  0
 26 48  1  0
 27 49  1  0
M  END
>  <smiles>  (43) 
O=C(NCC(=O)N1C[C@H](O)C[C@H]1Cn1cccn1)c1ccc2cc(Cl)ccc2n1

>  <score_type>  (43) 
oracle

>  <origin>  (43) 
autodockgpu

>  <m_score__min__energy>  (43) 
-8.6699999999999999

>  <m_primary>  (43) 
energy

>  <rmsd>  (43) 
3.496751820599272

>  <m_score__min__rmsd>  (43) 
3.496751820599272

>  <meeko>  (43) 
{"free_energy": -6.09, "intermolecular_energy": -8.17, "internal_energy": -3.32, "cluster_size": 2, "cluster_id": 8, "rank_in_cluster": 1}

>  <energy>  (43) 
-5.56

>  <cluster_rmsd>  (43) 
0.74

>  <cluster>  (43) 
6

$$$$

     RDKit          3D

 49 52  0  0  0  0  0  0  0  0999 V2000
  140.7190   72.3320  220.6930 O   0  0  0  0  0  0  0  0  0  0  0  0
  140.2330   72.7790  221.7630 C   0  0  0  0  0  0  0  0  0  0  0  0
  139.7310   74.1000  221.9080 N   0  0  0  0  0  0  0  0  0  0  0  0
  139.7470   75.0400  220.8060 C   0  0  0  0  0  0  0  0  0  0  0  0
  141.1010   75.6200  220.6200 C   0  0  0  0  0  0  0  0  0  0  0  0
  142.0730   74.8980  220.9850 O   0  0  0  0  0  0  0  0  0  0  0  0
  141.3010   76.9300  220.0560 N   0  0  0  0  0  0  0  0  0  0  0  0
  141.0730   77.1980  218.6570 C   0  0  0  0  0  0  0  0  0  0  0  0
  141.6400   78.6170  218.5500 C   0  0  2  0  0  0  0  0  0  0  0  0
  143.0140   78.4730  218.3610 O   0  0  0  0  0  0  0  0  0  0  0  0
  141.3810   79.2090  219.9280 C   0  0  0  0  0  0  0  0  0  0  0  0
  141.7440   78.0660  220.8070 C   0  0  1  0  0  0  0  0  0  0  0  0
  141.2370   78.1790  222.2090 C   0  0  0  0  0  0  0  0  0  0  0  0
  141.6740   79.3950  222.8660 N   0  0  0  0  0  0  0  0  0  0  0  0
  142.9810   79.7050  223.1230 C   0  0  0  0  0  0  0  0  0  0  0  0
  143.0460   80.9280  223.7570 C   0  0  0  0  0  0  0  0  0  0  0  0
  141.7340   81.3420  223.8710 C   0  0  0  0  0  0  0  0  0  0  0  0
  140.9650   80.4070  223.3330 N   0  0  0  0  0  0  0  0  0  0  0  0
  140.1810   71.8810  222.9370 C   0  0  0  0  0  0  0  0  0  0  0  0
  139.6140   70.6330  222.8410 C   0  0  0  0  0  0  0  0  0  0  0  0
  139.5300   69.7450  223.8920 C   0  0  0  0  0  0  0  0  0  0  0  0
  140.0560   70.1620  225.0990 C   0  0  0  0  0  0  0  0  0  0  0  0
  139.9920   69.3010  226.1740 C   0  0  0  0  0  0  0  0  0  0  0  0
  140.4990   69.6590  227.4020 C   0  0  0  0  0  0  0  0  0  0  0  0
  140.3870   68.5250  228.7250 Cl  0  0  0  0  0  0  0  0  0  0  0  0
  141.0680   70.9030  227.5140 C   0  0  0  0  0  0  0  0  0  0  0  0
  141.1380   71.7780  226.4380 C   0  0  0  0  0  0  0  0  0  0  0  0
  140.6270   71.4220  225.1870 C   0  0  0  0  0  0  0  0  0  0  0  0
  140.6780   72.2440  224.1300 N   0  0  0  0  0  0  0  0  0  0  0  0
  139.3280   74.4590  222.8110 H   0  0  0  0  0  0  0  0  0  0  0  0
  139.4494   74.5186  219.8843 H   0  0  0  0  0  0  0  0  0  0  0  0
  139.0446   75.8559  221.0316 H   0  0  0  0  0  0  0  0  0  0  0  0
  141.6195   76.4925  218.0138 H   0  0  0  0  0  0  0  0  0  0  0  0
  140.0261   77.0967  218.3350 H   0  0  0  0  0  0  0  0  0  0  0  0
  141.2129   79.2319  217.7441 H   0  0  0  0  0  0  0  0  0  0  0  0
  143.3070   79.0400  217.5830 H   0  0  0  0  0  0  0  0  0  0  0  0
  142.0215   80.0828  220.1181 H   0  0  0  0  0  0  0  0  0  0  0  0
  140.3566   79.5824  220.0734 H   0  0  0  0  0  0  0  0  0  0  0  0
  142.8211   78.0044  221.0217 H   0  0  0  0  0  0  0  0  0  0  0  0
  140.1373   78.1664  222.1875 H   0  0  0  0  0  0  0  0  0  0  0  0
  141.6427   77.3297  222.7783 H   0  0  0  0  0  0  0  0  0  0  0  0
  143.8459   79.0766  222.8642 H   0  0  0  0  0  0  0  0  0  0  0  0
  143.9474   81.4584  224.0978 H   0  0  0  0  0  0  0  0  0  0  0  0
  141.3885   82.2813  224.3274 H   0  0  0  0  0  0  0  0  0  0  0  0
  139.2030   70.3245  221.8684 H   0  0  0  0  0  0  0  0  0  0  0  0
  139.0672   68.7539  223.7752 H   0  0  0  0  0  0  0  0  0  0  0  0
  139.5280   68.3117  226.0478 H   0  0  0  0  0  0  0  0  0  0  0  0
  141.4806   71.2160  228.4845 H   0  0  0  0  0  0  0  0  0  0  0  0
  141.6026   72.7660  226.5724 H   0  0  0  0  0  0  0  0  0  0  0  0
  1  2  2  0
  2  3  1  0
  3  4  1  0
  4  5  1  0
  5  6  2  0
  5  7  1  0
  7  8  1  0
  8  9  1  0
  9 10  1  0
  9 11  1  0
 11 12  1  0
 12 13  1  0
 13 14  1  0
 14 15  1  0
 15 16  2  0
 16 17  1  0
 17 18  2  0
  2 19  1  0
 19 20  2  0
 20 21  1  0
 21 22  2  0
 22 23  1  0
 23 24  2  0
 24 25  1  0
 24 26  1  0
 26 27  2  0
 27 28  1  0
 28 29  2  0
 12  7  1  0
 18 14  1  0
 29 19  1  0
 28 22  1  0
  3 30  1  0
  4 31  1  0
  4 32  1  0
  8 33  1  0
  8 34  1  0
  9 35  1  6
 10 36  1  0
 11 37  1  0
 11 38  1  0
 12 39  1  1
 13 40  1  0
 13 41  1  0
 15 42  1  0
 16 43  1  0
 17 44  1  0
 20 45  1  0
 21 46  1  0
 23 47  1  0
 26 48  1  0
 27 49  1  0
M  END
>  <smiles>  (44) 
O=C(NCC(=O)N1C[C@H](O)C[C@H]1Cn1cccn1)c1ccc2cc(Cl)ccc2n1

>  <score_type>  (44) 
oracle

>  <origin>  (44) 
autodockgpu

>  <m_score__min__energy>  (44) 
-8.6699999999999999

>  <m_primary>  (44) 
energy

>  <rmsd>  (44) 
2.245898915403815

>  <m_score__min__rmsd>  (44) 
2.245898915403815

>  <meeko>  (44) 
{"free_energy": -8.13, "intermolecular_energy": -10.22, "internal_energy": -1.19, "cluster_size": 24, "cluster_id": 1, "rank_in_cluster": 8}

>  <energy>  (44) 
-5.42

>  <cluster_rmsd>  (44) 
1.17

>  <cluster>  (44) 
6

$$$$

     RDKit          3D

 49 52  0  0  0  0  0  0  0  0999 V2000
  137.1980   71.1700  221.4000 O   0  0  0  0  0  0  0  0  0  0  0  0
  137.2950   71.7140  222.5290 C   0  0  0  0  0  0  0  0  0  0  0  0
  136.8410   73.0310  222.8110 N   0  0  0  0  0  0  0  0  0  0  0  0
  136.2210   73.8500  221.7900 C   0  0  0  0  0  0  0  0  0  0  0  0
  137.2440   74.5610  220.9820 C   0  0  0  0  0  0  0  0  0  0  0  0
  136.8070   75.2930  220.0470 O   0  0  0  0  0  0  0  0  0  0  0  0
  138.6540   74.4280  221.2440 N   0  0  0  0  0  0  0  0  0  0  0  0
  139.4030   73.2770  220.8050 C   0  0  0  0  0  0  0  0  0  0  0  0
  140.7340   73.5230  221.5210 C   0  0  2  0  0  0  0  0  0  0  0  0
  140.5840   73.0070  222.8080 O   0  0  0  0  0  0  0  0  0  0  0  0
  140.8260   75.0400  221.5940 C   0  0  0  0  0  0  0  0  0  0  0  0
  139.4290   75.3970  221.9580 C   0  0  1  0  0  0  0  0  0  0  0  0
  139.0790   76.8320  221.7320 C   0  0  0  0  0  0  0  0  0  0  0  0
  139.8940   77.7380  222.5180 N   0  0  0  0  0  0  0  0  0  0  0  0
  139.4160   78.8500  223.1520 C   0  0  0  0  0  0  0  0  0  0  0  0
  140.4520   79.4860  223.8060 C   0  0  0  0  0  0  0  0  0  0  0  0
  141.5670   78.7160  223.5410 C   0  0  0  0  0  0  0  0  0  0  0  0
  141.1890   77.7000  222.7800 N   0  0  0  0  0  0  0  0  0  0  0  0
  137.9180   70.9420  223.6260 C   0  0  0  0  0  0  0  0  0  0  0  0
  137.4720   69.6800  223.9370 C   0  0  0  0  0  0  0  0  0  0  0  0
  138.0040   68.9050  224.9460 C   0  0  0  0  0  0  0  0  0  0  0  0
  139.0450   69.4560  225.6670 C   0  0  0  0  0  0  0  0  0  0  0  0
  139.6040   68.7100  226.6840 C   0  0  0  0  0  0  0  0  0  0  0  0
  140.6440   69.2050  227.4380 C   0  0  0  0  0  0  0  0  0  0  0  0
  141.3090   68.2130  228.7120 Cl  0  0  0  0  0  0  0  0  0  0  0  0
  141.1000   70.4640  227.1390 C   0  0  0  0  0  0  0  0  0  0  0  0
  140.5450   71.2230  226.1180 C   0  0  0  0  0  0  0  0  0  0  0  0
  139.4890   70.7290  225.3460 C   0  0  0  0  0  0  0  0  0  0  0  0
  138.9310   71.4370  224.3550 N   0  0  0  0  0  0  0  0  0  0  0  0
  136.9310   73.4710  223.7610 H   0  0  0  0  0  0  0  0  0  0  0  0
  135.6230   73.2070  221.1275 H   0  0  0  0  0  0  0  0  0  0  0  0
  135.5820   74.5981  222.2820 H   0  0  0  0  0  0  0  0  0  0  0  0
  138.9332   72.3376  221.1318 H   0  0  0  0  0  0  0  0  0  0  0  0
  139.4820   73.1698  219.7131 H   0  0  0  0  0  0  0  0  0  0  0  0
  141.6145   73.0748  221.0375 H   0  0  0  0  0  0  0  0  0  0  0  0
  139.6230   73.0900  223.0930 H   0  0  0  0  0  0  0  0  0  0  0  0
  141.5391   75.3639  222.3664 H   0  0  0  0  0  0  0  0  0  0  0  0
  141.1873   75.5153  220.6701 H   0  0  0  0  0  0  0  0  0  0  0  0
  139.2312   75.3446  223.0388 H   0  0  0  0  0  0  0  0  0  0  0  0
  139.2214   77.0652  220.6665 H   0  0  0  0  0  0  0  0  0  0  0  0
  138.0332   76.9716  222.0431 H   0  0  0  0  0  0  0  0  0  0  0  0
  138.3686   79.1861  223.1427 H   0  0  0  0  0  0  0  0  0  0  0  0
  140.4005   80.4057  224.4072 H   0  0  0  0  0  0  0  0  0  0  0  0
  142.5886   78.9117  223.8987 H   0  0  0  0  0  0  0  0  0  0  0  0
  136.6423   69.2637  223.3468 H   0  0  0  0  0  0  0  0  0  0  0  0
  137.6185   67.8984  225.1655 H   0  0  0  0  0  0  0  0  0  0  0  0
  139.2126   67.7040  226.8957 H   0  0  0  0  0  0  0  0  0  0  0  0
  141.9300   70.8843  227.7258 H   0  0  0  0  0  0  0  0  0  0  0  0
  140.9419   72.2282  225.9131 H   0  0  0  0  0  0  0  0  0  0  0  0
  1  2  2  0
  2  3  1  0
  3  4  1  0
  4  5  1  0
  5  6  2  0
  5  7  1  0
  7  8  1  0
  8  9  1  0
  9 10  1  0
  9 11  1  0
 11 12  1  0
 12 13  1  0
 13 14  1  0
 14 15  1  0
 15 16  2  0
 16 17  1  0
 17 18  2  0
  2 19  1  0
 19 20  2  0
 20 21  1  0
 21 22  2  0
 22 23  1  0
 23 24  2  0
 24 25  1  0
 24 26  1  0
 26 27  2  0
 27 28  1  0
 28 29  2  0
 12  7  1  0
 18 14  1  0
 29 19  1  0
 28 22  1  0
  3 30  1  0
  4 31  1  0
  4 32  1  0
  8 33  1  0
  8 34  1  0
  9 35  1  6
 10 36  1  0
 11 37  1  0
 11 38  1  0
 12 39  1  1
 13 40  1  0
 13 41  1  0
 15 42  1  0
 16 43  1  0
 17 44  1  0
 20 45  1  0
 21 46  1  0
 23 47  1  0
 26 48  1  0
 27 49  1  0
M  END
>  <smiles>  (45) 
O=C(NCC(=O)N1C[C@H](O)C[C@H]1Cn1cccn1)c1ccc2cc(Cl)ccc2n1

>  <score_type>  (45) 
oracle

>  <origin>  (45) 
autodockgpu

>  <m_score__min__energy>  (45) 
-8.6699999999999999

>  <m_primary>  (45) 
energy

>  <rmsd>  (45) 
2.601500272207197

>  <m_score__min__rmsd>  (45) 
2.601500272207197

>  <meeko>  (45) 
{"free_energy": -7.29, "intermolecular_energy": -9.38, "internal_energy": -2.3, "cluster_size": 6, "cluster_id": 2, "rank_in_cluster": 3}

>  <energy>  (45) 
-6.14

>  <cluster_rmsd>  (45) 
0.0

>  <cluster>  (45) 
7

$$$$

     RDKit          3D

 49 52  0  0  0  0  0  0  0  0999 V2000
  139.0200   72.5480  220.6520 O   0  0  0  0  0  0  0  0  0  0  0  0
  139.8080   72.8240  221.5920 C   0  0  0  0  0  0  0  0  0  0  0  0
  140.6620   73.9590  221.5960 N   0  0  0  0  0  0  0  0  0  0  0  0
  140.6800   74.8950  220.4910 C   0  0  0  0  0  0  0  0  0  0  0  0
  141.1840   76.2230  220.9250 C   0  0  0  0  0  0  0  0  0  0  0  0
  141.4160   76.3540  222.1620 O   0  0  0  0  0  0  0  0  0  0  0  0
  141.3980   77.3010  219.9950 N   0  0  0  0  0  0  0  0  0  0  0  0
  141.4610   77.0760  218.5720 C   0  0  0  0  0  0  0  0  0  0  0  0
  141.9230   78.4550  218.0940 C   0  0  2  0  0  0  0  0  0  0  0  0
  143.3130   78.4640  218.2150 O   0  0  0  0  0  0  0  0  0  0  0  0
  141.3230   79.4080  219.1170 C   0  0  0  0  0  0  0  0  0  0  0  0
  141.5740   78.6680  220.3830 C   0  0  1  0  0  0  0  0  0  0  0  0
  140.7660   79.1430  221.5470 C   0  0  0  0  0  0  0  0  0  0  0  0
  141.5440   79.9270  222.4860 N   0  0  0  0  0  0  0  0  0  0  0  0
  142.8430   79.6620  222.8210 C   0  0  0  0  0  0  0  0  0  0  0  0
  143.2800   80.5970  223.7360 C   0  0  0  0  0  0  0  0  0  0  0  0
  142.1990   81.4320  223.9390 C   0  0  0  0  0  0  0  0  0  0  0  0
  141.2020   80.9970  223.1820 N   0  0  0  0  0  0  0  0  0  0  0  0
  139.8490   71.9160  222.7580 C   0  0  0  0  0  0  0  0  0  0  0  0
  139.2850   70.6640  222.6940 C   0  0  0  0  0  0  0  0  0  0  0  0
  139.2860   69.7670  223.7410 C   0  0  0  0  0  0  0  0  0  0  0  0
  139.8980   70.1780  224.9090 C   0  0  0  0  0  0  0  0  0  0  0  0
  139.9200   69.3070  225.9780 C   0  0  0  0  0  0  0  0  0  0  0  0
  140.5150   69.6600  227.1680 C   0  0  0  0  0  0  0  0  0  0  0  0
  140.5100   68.5140  228.4860 Cl  0  0  0  0  0  0  0  0  0  0  0  0
  141.0830   70.9060  227.2470 C   0  0  0  0  0  0  0  0  0  0  0  0
  141.0670   71.7900  226.1770 C   0  0  0  0  0  0  0  0  0  0  0  0
  140.4660   71.4420  224.9650 C   0  0  0  0  0  0  0  0  0  0  0  0
  140.4320   72.2720  223.9140 N   0  0  0  0  0  0  0  0  0  0  0  0
  141.3160   74.1740  222.3910 H   0  0  0  0  0  0  0  0  0  0  0  0
  141.3349   74.5033  219.6987 H   0  0  0  0  0  0  0  0  0  0  0  0
  139.6523   75.0156  220.1178 H   0  0  0  0  0  0  0  0  0  0  0  0
  142.1892   76.2922  218.3163 H   0  0  0  0  0  0  0  0  0  0  0  0
  140.5215   76.7245  218.1206 H   0  0  0  0  0  0  0  0  0  0  0  0
  141.6346   78.7126  217.0642 H   0  0  0  0  0  0  0  0  0  0  0  0
  143.7100   79.0320  217.4860 H   0  0  0  0  0  0  0  0  0  0  0  0
  141.8355   80.3813  219.1105 H   0  0  0  0  0  0  0  0  0  0  0  0
  140.2655   79.6536  218.9396 H   0  0  0  0  0  0  0  0  0  0  0  0
  142.5790   78.8364  220.7972 H   0  0  0  0  0  0  0  0  0  0  0  0
  139.9388   79.7632  221.1714 H   0  0  0  0  0  0  0  0  0  0  0  0
  140.3985   78.2542  222.0809 H   0  0  0  0  0  0  0  0  0  0  0  0
  143.4456   78.8324  222.4228 H   0  0  0  0  0  0  0  0  0  0  0  0
  144.2739   80.6632  224.2027 H   0  0  0  0  0  0  0  0  0  0  0  0
  142.1705   82.3033  224.6098 H   0  0  0  0  0  0  0  0  0  0  0  0
  138.8047   70.3600  221.7522 H   0  0  0  0  0  0  0  0  0  0  0  0
  138.8225   68.7735  223.6506 H   0  0  0  0  0  0  0  0  0  0  0  0
  139.4550   68.3151  225.8782 H   0  0  0  0  0  0  0  0  0  0  0  0
  141.5656   71.2139  228.1863 H   0  0  0  0  0  0  0  0  0  0  0  0
  141.5347   72.7797  226.2851 H   0  0  0  0  0  0  0  0  0  0  0  0
  1  2  2  0
  2  3  1  0
  3  4  1  0
  4  5  1  0
  5  6  2  0
  5  7  1  0
  7  8  1  0
  8  9  1  0
  9 10  1  0
  9 11  1  0
 11 12  1  0
 12 13  1  0
 13 14  1  0
 14 15  1  0
 15 16  2  0
 16 17  1  0
 17 18  2  0
  2 19  1  0
 19 20  2  0
 20 21  1  0
 21 22  2  0
 22 23  1  0
 23 24  2  0
 24 25  1  0
 24 26  1  0
 26 27  2  0
 27 28  1  0
 28 29  2  0
 12  7  1  0
 18 14  1  0
 29 19  1  0
 28 22  1  0
  3 30  1  0
  4 31  1  0
  4 32  1  0
  8 33  1  0
  8 34  1  0
  9 35  1  6
 10 36  1  0
 11 37  1  0
 11 38  1  0
 12 39  1  1
 13 40  1  0
 13 41  1  0
 15 42  1  0
 16 43  1  0
 17 44  1  0
 20 45  1  0
 21 46  1  0
 23 47  1  0
 26 48  1  0
 27 49  1  0
M  END
>  <smiles>  (46) 
O=C(NCC(=O)N1C[C@H](O)C[C@H]1Cn1cccn1)c1ccc2cc(Cl)ccc2n1

>  <score_type>  (46) 
oracle

>  <origin>  (46) 
autodockgpu

>  <m_score__min__energy>  (46) 
-8.6699999999999999

>  <m_primary>  (46) 
energy

>  <rmsd>  (46) 
2.36770724529212

>  <m_score__min__rmsd>  (46) 
2.36770724529212

>  <meeko>  (46) 
{"free_energy": -7.7, "intermolecular_energy": -9.78, "internal_energy": -1.92, "cluster_size": 24, "cluster_id": 1, "rank_in_cluster": 10}

>  <energy>  (46) 
-6.09

>  <cluster_rmsd>  (46) 
0.0

>  <cluster>  (46) 
8

$$$$

     RDKit          3D

 49 52  0  0  0  0  0  0  0  0999 V2000
  138.8320   72.6010  220.9530 O   0  0  0  0  0  0  0  0  0  0  0  0
  137.9340   72.2100  221.7420 C   0  0  0  0  0  0  0  0  0  0  0  0
  136.5500   72.4700  221.5510 N   0  0  0  0  0  0  0  0  0  0  0  0
  136.0740   73.2190  220.4060 C   0  0  0  0  0  0  0  0  0  0  0  0
  136.3250   74.6720  220.5790 C   0  0  0  0  0  0  0  0  0  0  0  0
  135.4550   75.4510  220.0910 O   0  0  0  0  0  0  0  0  0  0  0  0
  137.4900   75.1720  221.2620 N   0  0  0  0  0  0  0  0  0  0  0  0
  138.7600   75.3150  220.5950 C   0  0  0  0  0  0  0  0  0  0  0  0
  139.6650   75.6420  221.7860 C   0  0  2  0  0  0  0  0  0  0  0  0
  140.0280   74.4170  222.3450 O   0  0  0  0  0  0  0  0  0  0  0  0
  138.7410   76.3780  222.7450 C   0  0  0  0  0  0  0  0  0  0  0  0
  137.5040   75.5590  222.6410 C   0  0  1  0  0  0  0  0  0  0  0  0
  136.2730   76.2290  223.1600 C   0  0  0  0  0  0  0  0  0  0  0  0
  135.5450   75.4060  224.1070 N   0  0  0  0  0  0  0  0  0  0  0  0
  135.4460   74.0450  224.0290 C   0  0  0  0  0  0  0  0  0  0  0  0
  134.6860   73.5790  225.0810 C   0  0  0  0  0  0  0  0  0  0  0  0
  134.3330   74.7070  225.7940 C   0  0  0  0  0  0  0  0  0  0  0  0
  134.8610   75.7570  225.1820 N   0  0  0  0  0  0  0  0  0  0  0  0
  138.3390   71.4380  222.9360 C   0  0  0  0  0  0  0  0  0  0  0  0
  137.6750   70.2870  223.2870 C   0  0  0  0  0  0  0  0  0  0  0  0
  137.9970   69.5190  224.3860 C   0  0  0  0  0  0  0  0  0  0  0  0
  139.0550   69.9560  225.1580 C   0  0  0  0  0  0  0  0  0  0  0  0
  139.4080   69.2130  226.2660 C   0  0  0  0  0  0  0  0  0  0  0  0
  140.4530   69.5960  227.0740 C   0  0  0  0  0  0  0  0  0  0  0  0
  140.8520   68.6150  228.4620 Cl  0  0  0  0  0  0  0  0  0  0  0  0
  141.1280   70.7430  226.7360 C   0  0  0  0  0  0  0  0  0  0  0  0
  140.7810   71.4980  225.6240 C   0  0  0  0  0  0  0  0  0  0  0  0
  139.7210   71.1160  224.7970 C   0  0  0  0  0  0  0  0  0  0  0  0
  139.3610   71.8230  223.7170 N   0  0  0  0  0  0  0  0  0  0  0  0
  135.8120   72.1360  222.2210 H   0  0  0  0  0  0  0  0  0  0  0  0
  136.5972   72.8685  219.5041 H   0  0  0  0  0  0  0  0  0  0  0  0
  134.9899   73.0597  220.3091 H   0  0  0  0  0  0  0  0  0  0  0  0
  139.0647   74.3825  220.0973 H   0  0  0  0  0  0  0  0  0  0  0  0
  138.7732   76.0643  219.7898 H   0  0  0  0  0  0  0  0  0  0  0  0
  140.5651   76.2257  221.5430 H   0  0  0  0  0  0  0  0  0  0  0  0
  139.2070   73.9450  222.6840 H   0  0  0  0  0  0  0  0  0  0  0  0
  139.1402   76.3767  223.7700 H   0  0  0  0  0  0  0  0  0  0  0  0
  138.5987   77.4425  222.5069 H   0  0  0  0  0  0  0  0  0  0  0  0
  137.5060   74.6784  223.3002 H   0  0  0  0  0  0  0  0  0  0  0  0
  136.5653   77.1648  223.6589 H   0  0  0  0  0  0  0  0  0  0  0  0
  135.6094   76.4153  222.3027 H   0  0  0  0  0  0  0  0  0  0  0  0
  135.9019   73.4186  223.2481 H   0  0  0  0  0  0  0  0  0  0  0  0
  134.4191   72.5353  225.3036 H   0  0  0  0  0  0  0  0  0  0  0  0
  133.7217   74.7301  226.7082 H   0  0  0  0  0  0  0  0  0  0  0  0
  136.8373   69.9591  222.6539 H   0  0  0  0  0  0  0  0  0  0  0  0
  137.4391   68.6043  224.6351 H   0  0  0  0  0  0  0  0  0  0  0  0
  138.8444   68.2996  226.5069 H   0  0  0  0  0  0  0  0  0  0  0  0
  141.9681   71.0732  227.3646 H   0  0  0  0  0  0  0  0  0  0  0  0
  141.3488   72.4106  225.3902 H   0  0  0  0  0  0  0  0  0  0  0  0
  1  2  2  0
  2  3  1  0
  3  4  1  0
  4  5  1  0
  5  6  2  0
  5  7  1  0
  7  8  1  0
  8  9  1  0
  9 10  1  0
  9 11  1  0
 11 12  1  0
 12 13  1  0
 13 14  1  0
 14 15  1  0
 15 16  2  0
 16 17  1  0
 17 18  2  0
  2 19  1  0
 19 20  2  0
 20 21  1  0
 21 22  2  0
 22 23  1  0
 23 24  2  0
 24 25  1  0
 24 26  1  0
 26 27  2  0
 27 28  1  0
 28 29  2  0
 12  7  1  0
 18 14  1  0
 29 19  1  0
 28 22  1  0
  3 30  1  0
  4 31  1  0
  4 32  1  0
  8 33  1  0
  8 34  1  0
  9 35  1  6
 10 36  1  0
 11 37  1  0
 11 38  1  0
 12 39  1  1
 13 40  1  0
 13 41  1  0
 15 42  1  0
 16 43  1  0
 17 44  1  0
 20 45  1  0
 21 46  1  0
 23 47  1  0
 26 48  1  0
 27 49  1  0
M  END
>  <smiles>  (47) 
O=C(NCC(=O)N1C[C@H](O)C[C@H]1Cn1cccn1)c1ccc2cc(Cl)ccc2n1

>  <score_type>  (47) 
oracle

>  <origin>  (47) 
autodockgpu

>  <m_score__min__energy>  (47) 
-8.6699999999999999

>  <m_primary>  (47) 
energy

>  <rmsd>  (47) 
4.473165922588025

>  <m_score__min__rmsd>  (47) 
4.473165922588025

>  <meeko>  (47) 
{"free_energy": -6.18, "intermolecular_energy": -8.27, "internal_energy": -2.96, "cluster_size": 10, "cluster_id": 6, "rank_in_cluster": 1}

>  <energy>  (47) 
-5.94

>  <cluster_rmsd>  (47) 
0.84

>  <cluster>  (47) 
8

$$$$

     RDKit          3D

 49 52  0  0  0  0  0  0  0  0999 V2000
  138.1790   72.1280  220.9880 O   0  0  0  0  0  0  0  0  0  0  0  0
  137.8080   72.4220  222.1530 C   0  0  0  0  0  0  0  0  0  0  0  0
  136.9800   73.5360  222.4580 N   0  0  0  0  0  0  0  0  0  0  0  0
  136.4990   74.4250  221.4210 C   0  0  0  0  0  0  0  0  0  0  0  0
  137.4990   75.4790  221.1150 C   0  0  0  0  0  0  0  0  0  0  0  0
  137.0410   76.5720  220.6710 O   0  0  0  0  0  0  0  0  0  0  0  0
  138.9110   75.2740  221.3110 N   0  0  0  0  0  0  0  0  0  0  0  0
  139.6730   74.3820  220.4730 C   0  0  0  0  0  0  0  0  0  0  0  0
  141.0030   74.3560  221.2320 C   0  0  2  0  0  0  0  0  0  0  0  0
  140.8610   73.3920  222.2310 O   0  0  0  0  0  0  0  0  0  0  0  0
  141.0770   75.7350  221.8700 C   0  0  0  0  0  0  0  0  0  0  0  0
  139.6770   75.9120  222.3390 C   0  0  1  0  0  0  0  0  0  0  0  0
  139.3090   77.3230  222.6690 C   0  0  0  0  0  0  0  0  0  0  0  0
  140.4510   78.2150  222.6610 N   0  0  0  0  0  0  0  0  0  0  0  0
  140.7650   79.0570  221.6310 C   0  0  0  0  0  0  0  0  0  0  0  0
  141.9090   79.7620  221.9470 C   0  0  0  0  0  0  0  0  0  0  0  0
  142.2700   79.3140  223.2020 C   0  0  0  0  0  0  0  0  0  0  0  0
  141.3830   78.4060  223.5800 N   0  0  0  0  0  0  0  0  0  0  0  0
  138.2580   71.5620  223.2690 C   0  0  0  0  0  0  0  0  0  0  0  0
  137.4840   70.5130  223.7020 C   0  0  0  0  0  0  0  0  0  0  0  0
  137.8400   69.6720  224.7360 C   0  0  0  0  0  0  0  0  0  0  0  0
  139.0510   69.9240  225.3500 C   0  0  0  0  0  0  0  0  0  0  0  0
  139.4410   69.1030  226.3880 C   0  0  0  0  0  0  0  0  0  0  0  0
  140.6370   69.3040  227.0390 C   0  0  0  0  0  0  0  0  0  0  0  0
  141.0760   68.2320  228.3460 Cl  0  0  0  0  0  0  0  0  0  0  0  0
  141.4210   70.3480  226.6170 C   0  0  0  0  0  0  0  0  0  0  0  0
  141.0370   71.1800  225.5740 C   0  0  0  0  0  0  0  0  0  0  0  0
  139.8250   70.9840  224.9060 C   0  0  0  0  0  0  0  0  0  0  0  0
  139.4260   71.7690  223.8970 N   0  0  0  0  0  0  0  0  0  0  0  0
  136.6800   73.7690  223.4390 H   0  0  0  0  0  0  0  0  0  0  0  0
  136.3021   73.8410  220.5098 H   0  0  0  0  0  0  0  0  0  0  0  0
  135.5775   74.9098  221.7758 H   0  0  0  0  0  0  0  0  0  0  0  0
  139.2153   73.3831  220.4210 H   0  0  0  0  0  0  0  0  0  0  0  0
  139.7509   74.6949  219.4213 H   0  0  0  0  0  0  0  0  0  0  0  0
  141.8878   74.1326  220.6178 H   0  0  0  0  0  0  0  0  0  0  0  0
  139.9990   72.8920  222.0950 H   0  0  0  0  0  0  0  0  0  0  0  0
  141.7884   75.7534  222.7087 H   0  0  0  0  0  0  0  0  0  0  0  0
  141.4299   76.5271  221.1932 H   0  0  0  0  0  0  0  0  0  0  0  0
  139.4833   75.4541  223.3202 H   0  0  0  0  0  0  0  0  0  0  0  0
  138.5791   77.6791  221.9271 H   0  0  0  0  0  0  0  0  0  0  0  0
  138.8904   77.3281  223.6862 H   0  0  0  0  0  0  0  0  0  0  0  0
  140.1947   79.1572  220.6957 H   0  0  0  0  0  0  0  0  0  0  0  0
  142.4216   80.5167  221.3324 H   0  0  0  0  0  0  0  0  0  0  0  0
  143.1399   79.6513  223.7846 H   0  0  0  0  0  0  0  0  0  0  0  0
  136.5246   70.3331  223.1948 H   0  0  0  0  0  0  0  0  0  0  0  0
  137.1919   68.8425  225.0553 H   0  0  0  0  0  0  0  0  0  0  0  0
  138.7866   68.2757  226.6999 H   0  0  0  0  0  0  0  0  0  0  0  0
  142.3820   70.5311  227.1199 H   0  0  0  0  0  0  0  0  0  0  0  0
  141.6965   72.0058  225.2688 H   0  0  0  0  0  0  0  0  0  0  0  0
  1  2  2  0
  2  3  1  0
  3  4  1  0
  4  5  1  0
  5  6  2  0
  5  7  1  0
  7  8  1  0
  8  9  1  0
  9 10  1  0
  9 11  1  0
 11 12  1  0
 12 13  1  0
 13 14  1  0
 14 15  1  0
 15 16  2  0
 16 17  1  0
 17 18  2  0
  2 19  1  0
 19 20  2  0
 20 21  1  0
 21 22  2  0
 22 23  1  0
 23 24  2  0
 24 25  1  0
 24 26  1  0
 26 27  2  0
 27 28  1  0
 28 29  2  0
 12  7  1  0
 18 14  1  0
 29 19  1  0
 28 22  1  0
  3 30  1  0
  4 31  1  0
  4 32  1  0
  8 33  1  0
  8 34  1  0
  9 35  1  6
 10 36  1  0
 11 37  1  0
 11 38  1  0
 12 39  1  1
 13 40  1  0
 13 41  1  0
 15 42  1  0
 16 43  1  0
 17 44  1  0
 20 45  1  0
 21 46  1  0
 23 47  1  0
 26 48  1  0
 27 49  1  0
M  END
>  <smiles>  (48) 
O=C(NCC(=O)N1C[C@H](O)C[C@H]1Cn1cccn1)c1ccc2cc(Cl)ccc2n1

>  <score_type>  (48) 
oracle

>  <origin>  (48) 
autodockgpu

>  <m_score__min__energy>  (48) 
-8.6699999999999999

>  <m_primary>  (48) 
energy

>  <rmsd>  (48) 
2.4760516632650886

>  <m_score__min__rmsd>  (48) 
2.4760516632650886

>  <meeko>  (48) 
{"free_energy": -6.85, "intermolecular_energy": -8.94, "internal_energy": -2.74, "cluster_size": 24, "cluster_id": 1, "rank_in_cluster": 22}

>  <energy>  (48) 
-5.25

>  <cluster_rmsd>  (48) 
0.0

>  <cluster>  (48) 
9

$$$$

     RDKit          3D

 49 52  0  0  0  0  0  0  0  0999 V2000
  137.1060   71.4730  221.2610 O   0  0  0  0  0  0  0  0  0  0  0  0
  137.2080   71.9970  222.4000 C   0  0  0  0  0  0  0  0  0  0  0  0
  136.8000   73.3250  222.6950 N   0  0  0  0  0  0  0  0  0  0  0  0
  136.2250   74.1820  221.6790 C   0  0  0  0  0  0  0  0  0  0  0  0
  137.2490   75.0950  221.1090 C   0  0  0  0  0  0  0  0  0  0  0  0
  136.8110   76.0810  220.4470 O   0  0  0  0  0  0  0  0  0  0  0  0
  138.6590   74.8750  221.2970 N   0  0  0  0  0  0  0  0  0  0  0  0
  139.3190   73.6970  220.7900 C   0  0  0  0  0  0  0  0  0  0  0  0
  140.6950   73.8460  221.4450 C   0  0  2  0  0  0  0  0  0  0  0  0
  140.5770   73.3030  222.7240 O   0  0  0  0  0  0  0  0  0  0  0  0
  140.8780   75.3530  221.5530 C   0  0  0  0  0  0  0  0  0  0  0  0
  139.5230   75.7780  221.9970 C   0  0  1  0  0  0  0  0  0  0  0  0
  139.2460   77.2360  221.8260 C   0  0  0  0  0  0  0  0  0  0  0  0
  140.3180   78.0720  222.3290 N   0  0  0  0  0  0  0  0  0  0  0  0
  141.3900   78.4800  221.5850 C   0  0  0  0  0  0  0  0  0  0  0  0
  142.2190   79.2600  222.3640 C   0  0  0  0  0  0  0  0  0  0  0  0
  141.6080   79.3060  223.6010 C   0  0  0  0  0  0  0  0  0  0  0  0
  140.4940   78.5930  223.5310 N   0  0  0  0  0  0  0  0  0  0  0  0
  137.7870   71.1870  223.4930 C   0  0  0  0  0  0  0  0  0  0  0  0
  137.1490   70.0540  223.9400 C   0  0  0  0  0  0  0  0  0  0  0  0
  137.6290   69.2520  224.9540 C   0  0  0  0  0  0  0  0  0  0  0  0
  138.8230   69.6350  225.5340 C   0  0  0  0  0  0  0  0  0  0  0  0
  139.3360   68.8570  226.5510 C   0  0  0  0  0  0  0  0  0  0  0  0
  140.5220   69.1860  227.1670 C   0  0  0  0  0  0  0  0  0  0  0  0
  141.1190   68.1630  228.4490 Cl  0  0  0  0  0  0  0  0  0  0  0  0
  141.1700   70.3140  226.7310 C   0  0  0  0  0  0  0  0  0  0  0  0
  140.6630   71.1040  225.7080 C   0  0  0  0  0  0  0  0  0  0  0  0
  139.4600   70.7780  225.0760 C   0  0  0  0  0  0  0  0  0  0  0  0
  138.9440   71.5190  224.0870 N   0  0  0  0  0  0  0  0  0  0  0  0
  136.8940   73.7480  223.6540 H   0  0  0  0  0  0  0  0  0  0  0  0
  135.8120   73.5572  220.8733 H   0  0  0  0  0  0  0  0  0  0  0  0
  135.4328   74.7895  222.1410 H   0  0  0  0  0  0  0  0  0  0  0  0
  138.8123   72.7761  221.1142 H   0  0  0  0  0  0  0  0  0  0  0  0
  139.3391   73.6185  219.6930 H   0  0  0  0  0  0  0  0  0  0  0  0
  141.5237   73.3625  220.9069 H   0  0  0  0  0  0  0  0  0  0  0  0
  139.6110   73.3080  223.0040 H   0  0  0  0  0  0  0  0  0  0  0  0
  141.6459   75.6135  222.2963 H   0  0  0  0  0  0  0  0  0  0  0  0
  141.2202   75.8337  220.6247 H   0  0  0  0  0  0  0  0  0  0  0  0
  139.3757   75.7057  223.0847 H   0  0  0  0  0  0  0  0  0  0  0  0
  139.1099   77.4450  220.7547 H   0  0  0  0  0  0  0  0  0  0  0  0
  138.3410   77.4723  222.4049 H   0  0  0  0  0  0  0  0  0  0  0  0
  141.5643   78.2257  220.5291 H   0  0  0  0  0  0  0  0  0  0  0  0
  143.1620   79.7408  222.0646 H   0  0  0  0  0  0  0  0  0  0  0  0
  141.9803   79.8401  224.4876 H   0  0  0  0  0  0  0  0  0  0  0  0
  136.2003   69.7707  223.4608 H   0  0  0  0  0  0  0  0  0  0  0  0
  137.0885   68.3527  225.2843 H   0  0  0  0  0  0  0  0  0  0  0  0
  138.7886   67.9595  226.8748 H   0  0  0  0  0  0  0  0  0  0  0  0
  142.1196   70.6011  227.2062 H   0  0  0  0  0  0  0  0  0  0  0  0
  141.2165   71.9999  225.3902 H   0  0  0  0  0  0  0  0  0  0  0  0
  1  2  2  0
  2  3  1  0
  3  4  1  0
  4  5  1  0
  5  6  2  0
  5  7  1  0
  7  8  1  0
  8  9  1  0
  9 10  1  0
  9 11  1  0
 11 12  1  0
 12 13  1  0
 13 14  1  0
 14 15  1  0
 15 16  2  0
 16 17  1  0
 17 18  2  0
  2 19  1  0
 19 20  2  0
 20 21  1  0
 21 22  2  0
 22 23  1  0
 23 24  2  0
 24 25  1  0
 24 26  1  0
 26 27  2  0
 27 28  1  0
 28 29  2  0
 12  7  1  0
 18 14  1  0
 29 19  1  0
 28 22  1  0
  3 30  1  0
  4 31  1  0
  4 32  1  0
  8 33  1  0
  8 34  1  0
  9 35  1  6
 10 36  1  0
 11 37  1  0
 11 38  1  0
 12 39  1  1
 13 40  1  0
 13 41  1  0
 15 42  1  0
 16 43  1  0
 17 44  1  0
 20 45  1  0
 21 46  1  0
 23 47  1  0
 26 48  1  0
 27 49  1  0
M  END
>  <smiles>  (49) 
O=C(NCC(=O)N1C[C@H](O)C[C@H]1Cn1cccn1)c1ccc2cc(Cl)ccc2n1

>  <score_type>  (49) 
oracle

>  <origin>  (49) 
autodockgpu

>  <m_score__min__energy>  (49) 
-8.6699999999999999

>  <m_primary>  (49) 
energy

>  <rmsd>  (49) 
2.58887124199837

>  <m_score__min__rmsd>  (49) 
2.58887124199837

>  <meeko>  (49) 
{"free_energy": -7.36, "intermolecular_energy": -9.44, "internal_energy": -2.27, "cluster_size": 24, "cluster_id": 1, "rank_in_cluster": 13}

>  <energy>  (49) 
-5.22

>  <cluster_rmsd>  (49) 
0.51

>  <cluster>  (49) 
9

$$$$

     RDKit          3D

 49 52  0  0  0  0  0  0  0  0999 V2000
  138.5090   72.0980  220.6240 O   0  0  0  0  0  0  0  0  0  0  0  0
  137.8940   72.3040  221.7020 C   0  0  0  0  0  0  0  0  0  0  0  0
  136.8060   73.2080  221.8260 N   0  0  0  0  0  0  0  0  0  0  0  0
  136.3230   73.9690  220.6920 C   0  0  0  0  0  0  0  0  0  0  0  0
  137.2400   75.0920  220.3730 C   0  0  0  0  0  0  0  0  0  0  0  0
  136.8280   75.9220  219.5110 O   0  0  0  0  0  0  0  0  0  0  0  0
  138.5260   75.2330  221.0060 N   0  0  0  0  0  0  0  0  0  0  0  0
  139.7450   74.8330  220.3490 C   0  0  0  0  0  0  0  0  0  0  0  0
  140.7410   74.9710  221.5030 C   0  0  2  0  0  0  0  0  0  0  0  0
  140.6680   73.7790  222.2240 O   0  0  0  0  0  0  0  0  0  0  0  0
  140.1630   76.1020  222.3410 C   0  0  0  0  0  0  0  0  0  0  0  0
  138.7150   75.7640  222.3230 C   0  0  1  0  0  0  0  0  0  0  0  0
  137.8130   76.8850  222.7280 C   0  0  0  0  0  0  0  0  0  0  0  0
  136.5420   76.4200  223.2480 N   0  0  0  0  0  0  0  0  0  0  0  0
  135.3950   77.1640  223.2560 C   0  0  0  0  0  0  0  0  0  0  0  0
  134.3740   76.4260  223.8190 C   0  0  0  0  0  0  0  0  0  0  0  0
  134.9480   75.2140  224.1480 C   0  0  0  0  0  0  0  0  0  0  0  0
  136.2230   75.2590  223.7930 N   0  0  0  0  0  0  0  0  0  0  0  0
  138.3280   71.5650  222.9070 C   0  0  0  0  0  0  0  0  0  0  0  0
  137.5700   70.5340  223.4090 C   0  0  0  0  0  0  0  0  0  0  0  0
  137.9120   69.8040  224.5270 C   0  0  0  0  0  0  0  0  0  0  0  0
  139.0910   70.1510  225.1570 C   0  0  0  0  0  0  0  0  0  0  0  0
  139.4670   69.4420  226.2790 C   0  0  0  0  0  0  0  0  0  0  0  0
  140.6310   69.7410  226.9500 C   0  0  0  0  0  0  0  0  0  0  0  0
  141.0530   68.8080  228.3640 Cl  0  0  0  0  0  0  0  0  0  0  0  0
  141.3990   70.7670  226.4600 C   0  0  0  0  0  0  0  0  0  0  0  0
  141.0300   71.4870  225.3320 C   0  0  0  0  0  0  0  0  0  0  0  0
  139.8500   71.1910  224.6440 C   0  0  0  0  0  0  0  0  0  0  0  0
  139.4660   71.8670  223.5530 N   0  0  0  0  0  0  0  0  0  0  0  0
  136.3030   73.3700  222.7360 H   0  0  0  0  0  0  0  0  0  0  0  0
  136.2506   73.3049  219.8181 H   0  0  0  0  0  0  0  0  0  0  0  0
  135.3362   74.3843  220.9444 H   0  0  0  0  0  0  0  0  0  0  0  0
  139.6882   73.7972  219.9830 H   0  0  0  0  0  0  0  0  0  0  0  0
  139.9969   75.4193  219.4530 H   0  0  0  0  0  0  0  0  0  0  0  0
  141.7811   75.1644  221.2018 H   0  0  0  0  0  0  0  0  0  0  0  0
  139.8770   73.2440  221.9100 H   0  0  0  0  0  0  0  0  0  0  0  0
  140.5665   76.0924  223.3643 H   0  0  0  0  0  0  0  0  0  0  0  0
  140.3964   77.1084  221.9634 H   0  0  0  0  0  0  0  0  0  0  0  0
  138.4271   75.0314  223.0914 H   0  0  0  0  0  0  0  0  0  0  0  0
  138.3160   77.4779  223.5061 H   0  0  0  0  0  0  0  0  0  0  0  0
  137.6052   77.4854  221.8301 H   0  0  0  0  0  0  0  0  0  0  0  0
  135.3008   78.1909  222.8732 H   0  0  0  0  0  0  0  0  0  0  0  0
  133.3297   76.7359  223.9724 H   0  0  0  0  0  0  0  0  0  0  0  0
  134.4370   74.3624  224.6209 H   0  0  0  0  0  0  0  0  0  0  0  0
  136.6360   70.2765  222.8881 H   0  0  0  0  0  0  0  0  0  0  0  0
  137.2776   68.9859  224.8989 H   0  0  0  0  0  0  0  0  0  0  0  0
  138.8267   68.6250  226.6431 H   0  0  0  0  0  0  0  0  0  0  0  0
  142.3349   71.0267  226.9764 H   0  0  0  0  0  0  0  0  0  0  0  0
  141.6758   72.3025  224.9744 H   0  0  0  0  0  0  0  0  0  0  0  0
  1  2  2  0
  2  3  1  0
  3  4  1  0
  4  5  1  0
  5  6  2  0
  5  7  1  0
  7  8  1  0
  8  9  1  0
  9 10  1  0
  9 11  1  0
 11 12  1  0
 12 13  1  0
 13 14  1  0
 14 15  1  0
 15 16  2  0
 16 17  1  0
 17 18  2  0
  2 19  1  0
 19 20  2  0
 20 21  1  0
 21 22  2  0
 22 23  1  0
 23 24  2  0
 24 25  1  0
 24 26  1  0
 26 27  2  0
 27 28  1  0
 28 29  2  0
 12  7  1  0
 18 14  1  0
 29 19  1  0
 28 22  1  0
  3 30  1  0
  4 31  1  0
  4 32  1  0
  8 33  1  0
  8 34  1  0
  9 35  1  6
 10 36  1  0
 11 37  1  0
 11 38  1  0
 12 39  1  1
 13 40  1  0
 13 41  1  0
 15 42  1  0
 16 43  1  0
 17 44  1  0
 20 45  1  0
 21 46  1  0
 23 47  1  0
 26 48  1  0
 27 49  1  0
M  END
>  <smiles>  (50) 
O=C(NCC(=O)N1C[C@H](O)C[C@H]1Cn1cccn1)c1ccc2cc(Cl)ccc2n1

>  <score_type>  (50) 
oracle

>  <origin>  (50) 
autodockgpu

>  <m_score__min__energy>  (50) 
-8.6699999999999999

>  <m_primary>  (50) 
energy

>  <rmsd>  (50) 
3.8001431656665488

>  <m_score__min__rmsd>  (50) 
3.8001431656665488

>  <meeko>  (50) 
{"free_energy": -5.42, "intermolecular_energy": -7.51, "internal_energy": -3.95, "cluster_size": 10, "cluster_id": 6, "rank_in_cluster": 10}

>  <energy>  (50) 
-5.01

>  <cluster_rmsd>  (50) 
0.31

>  <cluster>  (50) 
9

$$$$
