
     RDKit          3D

 53 56  0  0  0  0  0  0  0  0999 V2000
  137.0430   72.0800  221.2910 O   0  0  0  0  0  0  0  0  0  0  0  0
  137.1570   72.9310  222.2280 C   0  0  0  0  0  0  0  0  0  0  0  0
  138.2450   73.8530  222.2710 N   0  0  0  0  0  0  0  0  0  0  0  0
  139.2620   73.8460  221.2380 C   0  0  0  0  0  0  0  0  0  0  0  0
  140.2360   72.7800  221.5660 C   0  0  0  0  0  0  0  0  0  0  0  0
  141.4620   72.9550  221.3340 O   0  0  0  0  0  0  0  0  0  0  0  0
  139.8550   71.5480  222.1400 N   0  0  0  0  0  0  0  0  0  0  0  0
  139.6260   71.3780  223.5720 C   0  0  0  0  0  0  0  0  0  0  0  0
  139.5230   69.8910  223.6790 C   0  0  1  0  0  0  0  0  0  0  0  0
  138.6690   69.4680  224.8390 C   0  0  2  0  0  0  0  0  0  0  0  0
  137.5800   70.3120  224.9640 O   0  0  0  0  0  0  0  0  0  0  0  0
  139.5190   69.3830  226.0480 C   0  0  0  0  0  0  0  0  0  0  0  0
  139.9630   70.5550  226.6730 C   0  0  0  0  0  0  0  0  0  0  0  0
  140.7630   70.5260  227.7940 C   0  0  0  0  0  0  0  0  0  0  0  0
  141.1650   69.3330  228.3570 C   0  0  0  0  0  0  0  0  0  0  0  0
  140.7410   68.1660  227.7590 C   0  0  0  0  0  0  0  0  0  0  0  0
  139.9350   68.2090  226.6270 C   0  0  0  0  0  0  0  0  0  0  0  0
  138.9310   69.4290  222.3640 C   0  0  1  0  0  0  0  0  0  0  0  0
  137.5700   69.7270  222.3840 O   0  0  0  0  0  0  0  0  0  0  0  0
  139.6520   70.3350  221.4020 C   0  0  0  0  0  0  0  0  0  0  0  0
  136.1510   72.9870  223.3090 C   0  0  0  0  0  0  0  0  0  0  0  0
  135.6240   74.2260  223.6530 C   0  0  0  0  0  0  0  0  0  0  0  0
  134.6810   74.2340  224.6740 C   0  0  0  0  0  0  0  0  0  0  0  0
  134.2930   73.0510  225.3100 C   0  0  0  0  0  0  0  0  0  0  0  0
  133.3500   73.0840  226.3250 C   0  0  0  0  0  0  0  0  0  0  0  0
  132.9760   71.8950  226.9460 C   0  0  0  0  0  0  0  0  0  0  0  0
  133.5490   70.6880  226.5450 C   0  0  0  0  0  0  0  0  0  0  0  0
  134.4900   70.6520  225.5330 C   0  0  0  0  0  0  0  0  0  0  0  0
  134.8450   71.8470  224.9300 C   0  0  0  0  0  0  0  0  0  0  0  0
  135.7550   71.8650  223.9400 N   0  0  0  0  0  0  0  0  0  0  0  0
  138.2740   74.5340  223.0850 H   0  0  0  0  0  0  0  0  0  0  0  0
  138.8005   73.6428  220.2604 H   0  0  0  0  0  0  0  0  0  0  0  0
  139.7651   74.8230  221.1887 H   0  0  0  0  0  0  0  0  0  0  0  0
  140.4683   71.7666  224.1632 H   0  0  0  0  0  0  0  0  0  0  0  0
  138.7476   71.9185  223.9545 H   0  0  0  0  0  0  0  0  0  0  0  0
  140.5087   69.4393  223.8641 H   0  0  0  0  0  0  0  0  0  0  0  0
  138.2421   68.4671  224.6778 H   0  0  0  0  0  0  0  0  0  0  0  0
  136.8870   70.0880  224.3170 H   0  0  0  0  0  0  0  0  0  0  0  0
  139.6639   71.5280  226.2562 H   0  0  0  0  0  0  0  0  0  0  0  0
  141.0877   71.4733  228.2492 H   0  0  0  0  0  0  0  0  0  0  0  0
  141.8026   69.3135  229.2532 H   0  0  0  0  0  0  0  0  0  0  0  0
  141.0419   67.1952  228.1796 H   0  0  0  0  0  0  0  0  0  0  0  0
  139.6157   67.2588  226.1741 H   0  0  0  0  0  0  0  0  0  0  0  0
  139.0331   68.3588  222.1313 H   0  0  0  0  0  0  0  0  0  0  0  0
  137.3540   70.5830  222.8360 H   0  0  0  0  0  0  0  0  0  0  0  0
  140.6149   69.8964  221.1012 H   0  0  0  0  0  0  0  0  0  0  0  0
  139.0847   70.4983  220.4738 H   0  0  0  0  0  0  0  0  0  0  0  0
  135.9362   75.1503  223.1448 H   0  0  0  0  0  0  0  0  0  0  0  0
  134.2320   75.1881  224.9872 H   0  0  0  0  0  0  0  0  0  0  0  0
  132.9018   74.0390  226.6367 H   0  0  0  0  0  0  0  0  0  0  0  0
  132.2285   71.9076  227.7529 H   0  0  0  0  0  0  0  0  0  0  0  0
  133.2482   69.7530  227.0404 H   0  0  0  0  0  0  0  0  0  0  0  0
  134.9438   69.7015  225.2158 H   0  0  0  0  0  0  0  0  0  0  0  0
  1  2  2  0
  2  3  1  0
  3  4  1  0
  4  5  1  0
  5  6  2  0
  5  7  1  0
  7  8  1  0
  8  9  1  0
  9 10  1  0
 10 11  1  0
 10 12  1  0
 12 13  2  0
 13 14  1  0
 14 15  2  0
 15 16  1  0
 16 17  2  0
  9 18  1  0
 18 19  1  0
 18 20  1  0
  2 21  1  0
 21 22  2  0
 22 23  1  0
 23 24  2  0
 24 25  1  0
 25 26  2  0
 26 27  1  0
 27 28  2  0
 28 29  1  0
 29 30  2  0
 20  7  1  0
 30 21  1  0
 17 12  1  0
 29 24  1  0
  3 31  1  0
  4 32  1  0
  4 33  1  0
  8 34  1  0
  8 35  1  0
  9 36  1  1
 10 37  1  6
 11 38  1  0
 13 39  1  0
 14 40  1  0
 15 41  1  0
 16 42  1  0
 17 43  1  0
 18 44  1  6
 19 45  1  0
 20 46  1  0
 20 47  1  0
 22 48  1  0
 23 49  1  0
 25 50  1  0
 26 51  1  0
 27 52  1  0
 28 53  1  0
M  END
>  <smiles>  (1) 
O=C(NCC(=O)N1C[C@@H]([C@H](O)c2ccccc2)[C@@H](O)C1)c1ccc2ccccc2n1

>  <score_type>  (1) 
oracle

>  <origin>  (1) 
autodockgpu

>  <m_score__min__energy>  (1) 
-8.6999999999999993

>  <m_primary>  (1) 
energy

>  <rmsd>  (1) 
6.800255273809506

>  <m_score__min__rmsd>  (1) 
6.800255273809506

>  <meeko>  (1) 
{"free_energy": -6.06, "intermolecular_energy": -8.45, "internal_energy": -4.77, "cluster_size": 18, "cluster_id": 6, "rank_in_cluster": 9}

>  <energy>  (1) 
-8.7

>  <cluster_rmsd>  (1) 
0.0

>  <cluster>  (1) 
1

$$$$

     RDKit          3D

 53 56  0  0  0  0  0  0  0  0999 V2000
  133.5270   70.0570  226.7060 O   0  0  0  0  0  0  0  0  0  0  0  0
  133.5250   71.1190  226.0070 C   0  0  0  0  0  0  0  0  0  0  0  0
  134.0180   71.1330  224.6690 N   0  0  0  0  0  0  0  0  0  0  0  0
  134.5420   69.9260  224.0600 C   0  0  0  0  0  0  0  0  0  0  0  0
  135.5860   70.3240  223.0880 C   0  0  0  0  0  0  0  0  0  0  0  0
  135.2950   71.0910  222.1320 O   0  0  0  0  0  0  0  0  0  0  0  0
  136.9230   69.8800  223.1780 N   0  0  0  0  0  0  0  0  0  0  0  0
  137.6750   69.8780  224.4300 C   0  0  0  0  0  0  0  0  0  0  0  0
  139.0580   69.5890  223.9420 C   0  0  1  0  0  0  0  0  0  0  0  0
  139.8890   68.8960  224.9820 C   0  0  2  0  0  0  0  0  0  0  0  0
  139.2150   67.7920  225.4750 O   0  0  0  0  0  0  0  0  0  0  0  0
  140.2810   69.8840  226.0120 C   0  0  0  0  0  0  0  0  0  0  0  0
  139.8490   69.7220  227.3350 C   0  0  0  0  0  0  0  0  0  0  0  0
  140.1800   70.6200  228.3250 C   0  0  0  0  0  0  0  0  0  0  0  0
  140.9590   71.7260  228.0580 C   0  0  0  0  0  0  0  0  0  0  0  0
  141.3950   71.9070  226.7640 C   0  0  0  0  0  0  0  0  0  0  0  0
  141.0520   70.9940  225.7730 C   0  0  0  0  0  0  0  0  0  0  0  0
  138.8810   68.7220  222.7120 C   0  0  1  0  0  0  0  0  0  0  0  0
  138.5470   67.4390  223.1430 O   0  0  0  0  0  0  0  0  0  0  0  0
  137.6920   69.3860  222.0720 C   0  0  0  0  0  0  0  0  0  0  0  0
  133.0020   72.3800  226.5720 C   0  0  0  0  0  0  0  0  0  0  0  0
  131.8430   72.3270  227.3390 C   0  0  0  0  0  0  0  0  0  0  0  0
  131.3860   73.5350  227.8520 C   0  0  0  0  0  0  0  0  0  0  0  0
  132.0660   74.7310  227.6020 C   0  0  0  0  0  0  0  0  0  0  0  0
  131.5920   75.9240  228.1240 C   0  0  0  0  0  0  0  0  0  0  0  0
  132.2830   77.1040  227.8640 C   0  0  0  0  0  0  0  0  0  0  0  0
  133.4410   77.0780  227.0860 C   0  0  0  0  0  0  0  0  0  0  0  0
  133.9160   75.8900  226.5630 C   0  0  0  0  0  0  0  0  0  0  0  0
  133.2120   74.7290  226.8360 C   0  0  0  0  0  0  0  0  0  0  0  0
  133.6340   73.5480  226.3500 N   0  0  0  0  0  0  0  0  0  0  0  0
  133.9840   72.0570  224.1470 H   0  0  0  0  0  0  0  0  0  0  0  0
  134.9788   69.2765  224.8329 H   0  0  0  0  0  0  0  0  0  0  0  0
  133.7380   69.3716  223.5538 H   0  0  0  0  0  0  0  0  0  0  0  0
  137.6216   70.8547  224.9331 H   0  0  0  0  0  0  0  0  0  0  0  0
  137.3027   69.1619  225.1774 H   0  0  0  0  0  0  0  0  0  0  0  0
  139.5984   70.5192  223.7122 H   0  0  0  0  0  0  0  0  0  0  0  0
  140.8196   68.4981  224.5512 H   0  0  0  0  0  0  0  0  0  0  0  0
  138.2680   67.8310  225.2530 H   0  0  0  0  0  0  0  0  0  0  0  0
  139.2269   68.8515  227.5904 H   0  0  0  0  0  0  0  0  0  0  0  0
  139.8157   70.4517  229.3492 H   0  0  0  0  0  0  0  0  0  0  0  0
  141.2234   72.4400  228.8519 H   0  0  0  0  0  0  0  0  0  0  0  0
  142.0178   72.7784  226.5133 H   0  0  0  0  0  0  0  0  0  0  0  0
  141.4155   71.1695  224.7497 H   0  0  0  0  0  0  0  0  0  0  0  0
  139.7531   68.6330  222.0475 H   0  0  0  0  0  0  0  0  0  0  0  0
  137.8380   67.4210  223.8360 H   0  0  0  0  0  0  0  0  0  0  0  0
  138.0115   70.2122  221.4198 H   0  0  0  0  0  0  0  0  0  0  0  0
  137.1177   68.6963  221.4359 H   0  0  0  0  0  0  0  0  0  0  0  0
  131.3165   71.3801  227.5293 H   0  0  0  0  0  0  0  0  0  0  0  0
  130.4732   73.5506  228.4656 H   0  0  0  0  0  0  0  0  0  0  0  0
  130.6791   75.9383  228.7375 H   0  0  0  0  0  0  0  0  0  0  0  0
  131.9161   78.0573  228.2720 H   0  0  0  0  0  0  0  0  0  0  0  0
  133.9825   78.0144  226.8864 H   0  0  0  0  0  0  0  0  0  0  0  0
  134.8273   75.8673  225.9474 H   0  0  0  0  0  0  0  0  0  0  0  0
  1  2  2  0
  2  3  1  0
  3  4  1  0
  4  5  1  0
  5  6  2  0
  5  7  1  0
  7  8  1  0
  8  9  1  0
  9 10  1  0
 10 11  1  0
 10 12  1  0
 12 13  2  0
 13 14  1  0
 14 15  2  0
 15 16  1  0
 16 17  2  0
  9 18  1  0
 18 19  1  0
 18 20  1  0
  2 21  1  0
 21 22  2  0
 22 23  1  0
 23 24  2  0
 24 25  1  0
 25 26  2  0
 26 27  1  0
 27 28  2  0
 28 29  1  0
 29 30  2  0
 20  7  1  0
 30 21  1  0
 17 12  1  0
 29 24  1  0
  3 31  1  0
  4 32  1  0
  4 33  1  0
  8 34  1  0
  8 35  1  0
  9 36  1  6
 10 37  1  6
 11 38  1  0
 13 39  1  0
 14 40  1  0
 15 41  1  0
 16 42  1  0
 17 43  1  0
 18 44  1  6
 19 45  1  0
 20 46  1  0
 20 47  1  0
 22 48  1  0
 23 49  1  0
 25 50  1  0
 26 51  1  0
 27 52  1  0
 28 53  1  0
M  END
>  <smiles>  (2) 
O=C(NCC(=O)N1C[C@@H]([C@H](O)c2ccccc2)[C@@H](O)C1)c1ccc2ccccc2n1

>  <score_type>  (2) 
oracle

>  <origin>  (2) 
autodockgpu

>  <m_score__min__energy>  (2) 
-8.6999999999999993

>  <m_primary>  (2) 
energy

>  <rmsd>  (2) 
8.85902523356687

>  <m_score__min__rmsd>  (2) 
8.85902523356687

>  <meeko>  (2) 
{"free_energy": -7.96, "intermolecular_energy": -10.35, "internal_energy": -2.36, "cluster_size": 1, "cluster_id": 2, "rank_in_cluster": 1}

>  <energy>  (2) 
-8.63

>  <cluster_rmsd>  (2) 
0.58

>  <cluster>  (2) 
1

$$$$

     RDKit          3D

 53 56  0  0  0  0  0  0  0  0999 V2000
  136.5950   71.3360  222.5950 O   0  0  0  0  0  0  0  0  0  0  0  0
  136.3760   72.4840  223.0950 C   0  0  0  0  0  0  0  0  0  0  0  0
  137.0580   73.6450  222.6250 N   0  0  0  0  0  0  0  0  0  0  0  0
  138.0300   73.5510  221.5540 C   0  0  0  0  0  0  0  0  0  0  0  0
  139.2630   72.9500  222.1110 C   0  0  0  0  0  0  0  0  0  0  0  0
  140.2930   73.6590  222.2670 O   0  0  0  0  0  0  0  0  0  0  0  0
  139.3490   71.5920  222.4880 N   0  0  0  0  0  0  0  0  0  0  0  0
  139.0840   71.1300  223.8480 C   0  0  0  0  0  0  0  0  0  0  0  0
  139.5640   69.7160  223.7750 C   0  0  1  0  0  0  0  0  0  0  0  0
  138.8490   68.8280  224.7530 C   0  0  2  0  0  0  0  0  0  0  0  0
  137.5270   69.2190  224.8750 O   0  0  0  0  0  0  0  0  0  0  0  0
  139.6060   68.8180  226.0250 C   0  0  0  0  0  0  0  0  0  0  0  0
  139.6150   69.9570  226.8400 C   0  0  0  0  0  0  0  0  0  0  0  0
  140.3120   69.9980  228.0280 C   0  0  0  0  0  0  0  0  0  0  0  0
  141.0350   68.9110  228.4720 C   0  0  0  0  0  0  0  0  0  0  0  0
  141.0410   67.7790  227.6870 C   0  0  0  0  0  0  0  0  0  0  0  0
  140.3350   67.7510  226.4890 C   0  0  0  0  0  0  0  0  0  0  0  0
  139.3140   69.2750  222.3480 C   0  0  1  0  0  0  0  0  0  0  0  0
  137.9480   69.0320  222.2130 O   0  0  0  0  0  0  0  0  0  0  0  0
  139.7010   70.5220  221.6000 C   0  0  0  0  0  0  0  0  0  0  0  0
  135.3950   72.6440  224.1890 C   0  0  0  0  0  0  0  0  0  0  0  0
  134.8120   71.5000  224.7220 C   0  0  0  0  0  0  0  0  0  0  0  0
  133.8960   71.6960  225.7490 C   0  0  0  0  0  0  0  0  0  0  0  0
  133.5890   72.9790  226.2100 C   0  0  0  0  0  0  0  0  0  0  0  0
  132.6730   73.1490  227.2350 C   0  0  0  0  0  0  0  0  0  0  0  0
  132.3810   74.4350  227.6820 C   0  0  0  0  0  0  0  0  0  0  0  0
  133.0080   75.5360  227.0970 C   0  0  0  0  0  0  0  0  0  0  0  0
  133.9220   75.3700  226.0740 C   0  0  0  0  0  0  0  0  0  0  0  0
  134.1970   74.0810  225.6480 C   0  0  0  0  0  0  0  0  0  0  0  0
  135.0790   73.8670  224.6560 N   0  0  0  0  0  0  0  0  0  0  0  0
  136.8230   74.5700  223.0910 H   0  0  0  0  0  0  0  0  0  0  0  0
  137.6364   72.9161  220.7465 H   0  0  0  0  0  0  0  0  0  0  0  0
  138.2424   74.5479  221.1403 H   0  0  0  0  0  0  0  0  0  0  0  0
  139.6531   71.7108  224.5888 H   0  0  0  0  0  0  0  0  0  0  0  0
  138.0353   71.2343  224.1632 H   0  0  0  0  0  0  0  0  0  0  0  0
  140.6285   69.6459  224.0431 H   0  0  0  0  0  0  0  0  0  0  0  0
  138.8104   67.7878  224.3974 H   0  0  0  0  0  0  0  0  0  0  0  0
  137.2560   69.7790  224.1260 H   0  0  0  0  0  0  0  0  0  0  0  0
  139.0490   70.8451  226.5224 H   0  0  0  0  0  0  0  0  0  0  0  0
  140.2912   70.9158  228.6340 H   0  0  0  0  0  0  0  0  0  0  0  0
  141.5888   68.9466  229.4218 H   0  0  0  0  0  0  0  0  0  0  0  0
  141.6071   66.8926  228.0093 H   0  0  0  0  0  0  0  0  0  0  0  0
  140.3619   66.8317  225.8855 H   0  0  0  0  0  0  0  0  0  0  0  0
  139.8466   68.3719  222.0153 H   0  0  0  0  0  0  0  0  0  0  0  0
  137.3780   69.6470  222.7420 H   0  0  0  0  0  0  0  0  0  0  0  0
  140.7805   70.5303  221.3886 H   0  0  0  0  0  0  0  0  0  0  0  0
  139.1963   70.6013  220.6258 H   0  0  0  0  0  0  0  0  0  0  0  0
  135.0619   70.4949  224.3514 H   0  0  0  0  0  0  0  0  0  0  0  0
  133.4039   70.8254  226.2071 H   0  0  0  0  0  0  0  0  0  0  0  0
  132.1813   72.2771  227.6912 H   0  0  0  0  0  0  0  0  0  0  0  0
  131.6562   74.5831  228.4961 H   0  0  0  0  0  0  0  0  0  0  0  0
  132.7716   76.5490  227.4548 H   0  0  0  0  0  0  0  0  0  0  0  0
  134.4169   76.2366  225.6113 H   0  0  0  0  0  0  0  0  0  0  0  0
  1  2  2  0
  2  3  1  0
  3  4  1  0
  4  5  1  0
  5  6  2  0
  5  7  1  0
  7  8  1  0
  8  9  1  0
  9 10  1  0
 10 11  1  0
 10 12  1  0
 12 13  2  0
 13 14  1  0
 14 15  2  0
 15 16  1  0
 16 17  2  0
  9 18  1  0
 18 19  1  0
 18 20  1  0
  2 21  1  0
 21 22  2  0
 22 23  1  0
 23 24  2  0
 24 25  1  0
 25 26  2  0
 26 27  1  0
 27 28  2  0
 28 29  1  0
 29 30  2  0
 20  7  1  0
 30 21  1  0
 17 12  1  0
 29 24  1  0
  3 31  1  0
  4 32  1  0
  4 33  1  0
  8 34  1  0
  8 35  1  0
  9 36  1  1
 10 37  1  6
 11 38  1  0
 13 39  1  0
 14 40  1  0
 15 41  1  0
 16 42  1  0
 17 43  1  0
 18 44  1  6
 19 45  1  0
 20 46  1  0
 20 47  1  0
 22 48  1  0
 23 49  1  0
 25 50  1  0
 26 51  1  0
 27 52  1  0
 28 53  1  0
M  END
>  <smiles>  (3) 
O=C(NCC(=O)N1C[C@@H]([C@H](O)c2ccccc2)[C@@H](O)C1)c1ccc2ccccc2n1

>  <score_type>  (3) 
oracle

>  <origin>  (3) 
autodockgpu

>  <m_score__min__energy>  (3) 
-8.6999999999999993

>  <m_primary>  (3) 
energy

>  <rmsd>  (3) 
7.029357128461392

>  <m_score__min__rmsd>  (3) 
7.029357128461392

>  <meeko>  (3) 
{"free_energy": -6.89, "intermolecular_energy": -9.28, "internal_energy": -4.05, "cluster_size": 18, "cluster_id": 6, "rank_in_cluster": 1}

>  <energy>  (3) 
-8.59

>  <cluster_rmsd>  (3) 
0.45

>  <cluster>  (3) 
1

$$$$

     RDKit          3D

 53 56  0  0  0  0  0  0  0  0999 V2000
  140.1350   71.0000  221.3180 O   0  0  0  0  0  0  0  0  0  0  0  0
  139.9480   71.6230  222.4100 C   0  0  0  0  0  0  0  0  0  0  0  0
  139.7390   73.0340  222.4380 N   0  0  0  0  0  0  0  0  0  0  0  0
  139.7340   73.8060  221.2110 C   0  0  0  0  0  0  0  0  0  0  0  0
  139.9070   75.2320  221.5700 C   0  0  0  0  0  0  0  0  0  0  0  0
  139.6040   75.6310  222.7260 O   0  0  0  0  0  0  0  0  0  0  0  0
  140.4080   76.1930  220.6640 N   0  0  0  0  0  0  0  0  0  0  0  0
  140.3200   77.6310  220.9070 C   0  0  0  0  0  0  0  0  0  0  0  0
  140.7280   78.1780  219.5770 C   0  0  1  0  0  0  0  0  0  0  0  0
  141.3530   79.5380  219.6960 C   0  0  2  0  0  0  0  0  0  0  0  0
  142.5720   79.5630  219.0410 O   0  0  0  0  0  0  0  0  0  0  0  0
  141.4190   79.9060  221.1280 C   0  0  0  0  0  0  0  0  0  0  0  0
  142.5340   79.5390  221.8920 C   0  0  0  0  0  0  0  0  0  0  0  0
  142.6360   79.8510  223.2300 C   0  0  0  0  0  0  0  0  0  0  0  0
  141.6380   80.5450  223.8820 C   0  0  0  0  0  0  0  0  0  0  0  0
  140.5320   80.9170  223.1500 C   0  0  0  0  0  0  0  0  0  0  0  0
  140.4400   80.5940  221.8010 C   0  0  0  0  0  0  0  0  0  0  0  0
  141.7070   77.1710  219.0070 C   0  0  1  0  0  0  0  0  0  0  0  0
  142.9200   77.3350  219.6740 O   0  0  0  0  0  0  0  0  0  0  0  0
  141.0510   75.8810  219.4210 C   0  0  0  0  0  0  0  0  0  0  0  0
  139.9420   70.8910  223.6940 C   0  0  0  0  0  0  0  0  0  0  0  0
  139.4640   69.5860  223.7040 C   0  0  0  0  0  0  0  0  0  0  0  0
  139.4760   68.9330  224.9310 C   0  0  0  0  0  0  0  0  0  0  0  0
  139.9460   69.5680  226.0840 C   0  0  0  0  0  0  0  0  0  0  0  0
  139.9480   68.8980  227.2960 C   0  0  0  0  0  0  0  0  0  0  0  0
  140.4220   69.5470  228.4330 C   0  0  0  0  0  0  0  0  0  0  0  0
  140.8870   70.8600  228.3440 C   0  0  0  0  0  0  0  0  0  0  0  0
  140.8850   71.5320  227.1370 C   0  0  0  0  0  0  0  0  0  0  0  0
  140.4110   70.8640  226.0200 C   0  0  0  0  0  0  0  0  0  0  0  0
  140.3890   71.4750  224.8220 N   0  0  0  0  0  0  0  0  0  0  0  0
  139.5900   73.4860  223.3870 H   0  0  0  0  0  0  0  0  0  0  0  0
  140.5603   73.4811  220.5616 H   0  0  0  0  0  0  0  0  0  0  0  0
  138.7877   73.6592  220.6697 H   0  0  0  0  0  0  0  0  0  0  0  0
  139.2954   77.9331  221.1696 H   0  0  0  0  0  0  0  0  0  0  0  0
  140.9353   77.9844  221.7475 H   0  0  0  0  0  0  0  0  0  0  0  0
  139.8554   78.3157  218.9215 H   0  0  0  0  0  0  0  0  0  0  0  0
  140.7419   80.3051  219.1978 H   0  0  0  0  0  0  0  0  0  0  0  0
  143.1940   78.9240  219.4340 H   0  0  0  0  0  0  0  0  0  0  0  0
  143.3527   78.9851  221.4093 H   0  0  0  0  0  0  0  0  0  0  0  0
  143.5309   79.5406  223.7894 H   0  0  0  0  0  0  0  0  0  0  0  0
  141.7225   80.7930  224.9504 H   0  0  0  0  0  0  0  0  0  0  0  0
  139.7166   81.4730  223.6358 H   0  0  0  0  0  0  0  0  0  0  0  0
  139.5414   80.9039  221.2473 H   0  0  0  0  0  0  0  0  0  0  0  0
  141.9090   77.2426  217.9281 H   0  0  0  0  0  0  0  0  0  0  0  0
  142.8670   77.9420  220.4570 H   0  0  0  0  0  0  0  0  0  0  0  0
  140.3134   75.5606  218.6705 H   0  0  0  0  0  0  0  0  0  0  0  0
  141.7713   75.0551  219.5163 H   0  0  0  0  0  0  0  0  0  0  0  0
  139.0961   69.0964  222.7903 H   0  0  0  0  0  0  0  0  0  0  0  0
  139.1091   67.8980  224.9957 H   0  0  0  0  0  0  0  0  0  0  0  0
  139.5789   67.8637  227.3598 H   0  0  0  0  0  0  0  0  0  0  0  0
  140.4300   69.0250  229.4012 H   0  0  0  0  0  0  0  0  0  0  0  0
  141.2599   71.3662  229.2466 H   0  0  0  0  0  0  0  0  0  0  0  0
  141.2492   72.5674  227.0651 H   0  0  0  0  0  0  0  0  0  0  0  0
  1  2  2  0
  2  3  1  0
  3  4  1  0
  4  5  1  0
  5  6  2  0
  5  7  1  0
  7  8  1  0
  8  9  1  0
  9 10  1  0
 10 11  1  0
 10 12  1  0
 12 13  2  0
 13 14  1  0
 14 15  2  0
 15 16  1  0
 16 17  2  0
  9 18  1  0
 18 19  1  0
 18 20  1  0
  2 21  1  0
 21 22  2  0
 22 23  1  0
 23 24  2  0
 24 25  1  0
 25 26  2  0
 26 27  1  0
 27 28  2  0
 28 29  1  0
 29 30  2  0
 20  7  1  0
 30 21  1  0
 17 12  1  0
 29 24  1  0
  3 31  1  0
  4 32  1  0
  4 33  1  0
  8 34  1  0
  8 35  1  0
  9 36  1  6
 10 37  1  6
 11 38  1  0
 13 39  1  0
 14 40  1  0
 15 41  1  0
 16 42  1  0
 17 43  1  0
 18 44  1  6
 19 45  1  0
 20 46  1  0
 20 47  1  0
 22 48  1  0
 23 49  1  0
 25 50  1  0
 26 51  1  0
 27 52  1  0
 28 53  1  0
M  END
>  <smiles>  (4) 
O=C(NCC(=O)N1C[C@@H]([C@H](O)c2ccccc2)[C@@H](O)C1)c1ccc2ccccc2n1

>  <score_type>  (4) 
oracle

>  <origin>  (4) 
autodockgpu

>  <m_score__min__energy>  (4) 
-8.6999999999999993

>  <m_primary>  (4) 
energy

>  <rmsd>  (4) 
2.3506448710918275

>  <m_score__min__rmsd>  (4) 
2.3506448710918275

>  <meeko>  (4) 
{"free_energy": -8.47, "intermolecular_energy": -10.86, "internal_energy": -2.62, "cluster_size": 15, "cluster_id": 1, "rank_in_cluster": 7}

>  <energy>  (4) 
-8.56

>  <cluster_rmsd>  (4) 
0.56

>  <cluster>  (4) 
1

$$$$

     RDKit          3D

 53 56  0  0  0  0  0  0  0  0999 V2000
  136.9060   71.4910  221.3940 O   0  0  0  0  0  0  0  0  0  0  0  0
  137.1370   72.3660  222.2870 C   0  0  0  0  0  0  0  0  0  0  0  0
  138.3130   73.1730  222.2550 N   0  0  0  0  0  0  0  0  0  0  0  0
  139.2890   73.0180  221.1950 C   0  0  0  0  0  0  0  0  0  0  0  0
  140.1530   71.8660  221.5380 C   0  0  0  0  0  0  0  0  0  0  0  0
  141.3630   71.8590  221.1840 O   0  0  0  0  0  0  0  0  0  0  0  0
  139.6850   70.7470  222.2600 N   0  0  0  0  0  0  0  0  0  0  0  0
  139.6010   70.7240  223.7180 C   0  0  0  0  0  0  0  0  0  0  0  0
  139.3190   69.2780  223.9730 C   0  0  1  0  0  0  0  0  0  0  0  0
  138.5550   69.0700  225.2490 C   0  0  2  0  0  0  0  0  0  0  0  0
  137.5010   69.9630  225.3260 O   0  0  0  0  0  0  0  0  0  0  0  0
  139.5020   69.1400  226.3850 C   0  0  0  0  0  0  0  0  0  0  0  0
  139.9330   70.3860  226.8590 C   0  0  0  0  0  0  0  0  0  0  0  0
  140.8190   70.5000  227.9070 C   0  0  0  0  0  0  0  0  0  0  0  0
  141.3260   69.3860  228.5420 C   0  0  0  0  0  0  0  0  0  0  0  0
  140.9170   68.1500  228.0930 C   0  0  0  0  0  0  0  0  0  0  0  0
  140.0220   68.0470  227.0330 C   0  0  0  0  0  0  0  0  0  0  0  0
  138.5250   68.8020  222.7740 C   0  0  1  0  0  0  0  0  0  0  0  0
  137.2260   69.2870  222.9060 O   0  0  0  0  0  0  0  0  0  0  0  0
  139.2430   69.5200  221.6630 C   0  0  0  0  0  0  0  0  0  0  0  0
  136.1780   72.5730  223.3930 C   0  0  0  0  0  0  0  0  0  0  0  0
  135.7780   73.8720  223.6820 C   0  0  0  0  0  0  0  0  0  0  0  0
  134.8750   74.0210  224.7290 C   0  0  0  0  0  0  0  0  0  0  0  0
  134.4050   72.9150  225.4420 C   0  0  0  0  0  0  0  0  0  0  0  0
  133.5050   73.0880  226.4810 C   0  0  0  0  0  0  0  0  0  0  0  0
  133.0480   71.9740  227.1800 C   0  0  0  0  0  0  0  0  0  0  0  0
  133.4960   70.7000  226.8300 C   0  0  0  0  0  0  0  0  0  0  0  0
  134.3930   70.5230  225.7940 C   0  0  0  0  0  0  0  0  0  0  0  0
  134.8330   71.6470  225.1140 C   0  0  0  0  0  0  0  0  0  0  0  0
  135.7060   71.5270  224.0980 N   0  0  0  0  0  0  0  0  0  0  0  0
  138.4380   73.8840  223.0350 H   0  0  0  0  0  0  0  0  0  0  0  0
  138.7769   72.8300  220.2398 H   0  0  0  0  0  0  0  0  0  0  0  0
  139.8919   73.9323  221.0921 H   0  0  0  0  0  0  0  0  0  0  0  0
  140.5485   71.0371  224.1808 H   0  0  0  0  0  0  0  0  0  0  0  0
  138.8498   71.4099  224.1366 H   0  0  0  0  0  0  0  0  0  0  0  0
  140.2524   68.7093  224.0972 H   0  0  0  0  0  0  0  0  0  0  0  0
  138.0913   68.0730  225.2811 H   0  0  0  0  0  0  0  0  0  0  0  0
  136.8350   69.7800  224.6400 H   0  0  0  0  0  0  0  0  0  0  0  0
  139.5524   71.3001  226.3799 H   0  0  0  0  0  0  0  0  0  0  0  0
  141.1286   71.5001  228.2444 H   0  0  0  0  0  0  0  0  0  0  0  0
  142.0333   69.4813  229.3790 H   0  0  0  0  0  0  0  0  0  0  0  0
  141.3003   67.2388  228.5754 H   0  0  0  0  0  0  0  0  0  0  0  0
  139.7171   67.0443  226.6989 H   0  0  0  0  0  0  0  0  0  0  0  0
  138.4594   67.7131  222.6324 H   0  0  0  0  0  0  0  0  0  0  0  0
  137.1800   70.2410  223.1740 H   0  0  0  0  0  0  0  0  0  0  0  0
  140.0999   68.9291  221.3073 H   0  0  0  0  0  0  0  0  0  0  0  0
  138.5996   69.6874  220.7867 H   0  0  0  0  0  0  0  0  0  0  0  0
  136.1550   74.7351  223.1137 H   0  0  0  0  0  0  0  0  0  0  0  0
  134.5244   75.0276  225.0008 H   0  0  0  0  0  0  0  0  0  0  0  0
  133.1550   74.0953  226.7510 H   0  0  0  0  0  0  0  0  0  0  0  0
  132.3342   72.0983  228.0076 H   0  0  0  0  0  0  0  0  0  0  0  0
  133.1302   69.8244  227.3864 H   0  0  0  0  0  0  0  0  0  0  0  0
  134.7474   69.5191  225.5173 H   0  0  0  0  0  0  0  0  0  0  0  0
  1  2  2  0
  2  3  1  0
  3  4  1  0
  4  5  1  0
  5  6  2  0
  5  7  1  0
  7  8  1  0
  8  9  1  0
  9 10  1  0
 10 11  1  0
 10 12  1  0
 12 13  2  0
 13 14  1  0
 14 15  2  0
 15 16  1  0
 16 17  2  0
  9 18  1  0
 18 19  1  0
 18 20  1  0
  2 21  1  0
 21 22  2  0
 22 23  1  0
 23 24  2  0
 24 25  1  0
 25 26  2  0
 26 27  1  0
 27 28  2  0
 28 29  1  0
 29 30  2  0
 20  7  1  0
 30 21  1  0
 17 12  1  0
 29 24  1  0
  3 31  1  0
  4 32  1  0
  4 33  1  0
  8 34  1  0
  8 35  1  0
  9 36  1  1
 10 37  1  6
 11 38  1  0
 13 39  1  0
 14 40  1  0
 15 41  1  0
 16 42  1  0
 17 43  1  0
 18 44  1  6
 19 45  1  0
 20 46  1  0
 20 47  1  0
 22 48  1  0
 23 49  1  0
 25 50  1  0
 26 51  1  0
 27 52  1  0
 28 53  1  0
M  END
>  <smiles>  (5) 
O=C(NCC(=O)N1C[C@@H]([C@H](O)c2ccccc2)[C@@H](O)C1)c1ccc2ccccc2n1

>  <score_type>  (5) 
oracle

>  <origin>  (5) 
autodockgpu

>  <m_score__min__energy>  (5) 
-8.6999999999999993

>  <m_primary>  (5) 
energy

>  <rmsd>  (5) 
7.0396084902210525

>  <m_score__min__rmsd>  (5) 
7.0396084902210525

>  <meeko>  (5) 
{"free_energy": -6.03, "intermolecular_energy": -8.42, "internal_energy": -4.94, "cluster_size": 18, "cluster_id": 6, "rank_in_cluster": 13}

>  <energy>  (5) 
-8.49

>  <cluster_rmsd>  (5) 
0.52

>  <cluster>  (5) 
1

$$$$

     RDKit          3D

 53 56  0  0  0  0  0  0  0  0999 V2000
  136.8410   71.5690  221.3670 O   0  0  0  0  0  0  0  0  0  0  0  0
  137.0760   72.4150  222.2870 C   0  0  0  0  0  0  0  0  0  0  0  0
  138.2570   73.2140  222.2830 N   0  0  0  0  0  0  0  0  0  0  0  0
  139.2350   73.0860  221.2210 C   0  0  0  0  0  0  0  0  0  0  0  0
  140.0920   71.9190  221.5310 C   0  0  0  0  0  0  0  0  0  0  0  0
  141.3100   71.9300  221.2070 O   0  0  0  0  0  0  0  0  0  0  0  0
  139.6070   70.7670  222.1870 N   0  0  0  0  0  0  0  0  0  0  0  0
  139.5180   70.6630  223.6410 C   0  0  0  0  0  0  0  0  0  0  0  0
  139.2180   69.2090  223.8130 C   0  0  1  0  0  0  0  0  0  0  0  0
  138.4470   68.9380  225.0730 C   0  0  2  0  0  0  0  0  0  0  0  0
  137.3950   69.8290  225.1910 O   0  0  0  0  0  0  0  0  0  0  0  0
  139.3890   68.9470  226.2150 C   0  0  0  0  0  0  0  0  0  0  0  0
  140.1250   67.7950  226.5220 C   0  0  0  0  0  0  0  0  0  0  0  0
  141.0060   67.7520  227.5800 C   0  0  0  0  0  0  0  0  0  0  0  0
  141.2050   68.8490  228.3900 C   0  0  0  0  0  0  0  0  0  0  0  0
  140.4920   69.9940  228.1090 C   0  0  0  0  0  0  0  0  0  0  0  0
  139.6050   70.0240  227.0390 C   0  0  0  0  0  0  0  0  0  0  0  0
  138.4220   68.8110  222.5870 C   0  0  1  0  0  0  0  0  0  0  0  0
  137.1280   69.3030  222.7430 O   0  0  0  0  0  0  0  0  0  0  0  0
  139.1520   69.5820  221.5200 C   0  0  0  0  0  0  0  0  0  0  0  0
  136.1160   72.5920  223.3970 C   0  0  0  0  0  0  0  0  0  0  0  0
  135.6810   73.8800  223.6900 C   0  0  0  0  0  0  0  0  0  0  0  0
  134.7790   74.0020  224.7410 C   0  0  0  0  0  0  0  0  0  0  0  0
  134.3410   72.8820  225.4530 C   0  0  0  0  0  0  0  0  0  0  0  0
  133.4410   73.0280  226.4960 C   0  0  0  0  0  0  0  0  0  0  0  0
  133.0160   71.9000  227.1940 C   0  0  0  0  0  0  0  0  0  0  0  0
  133.4970   70.6390  226.8400 C   0  0  0  0  0  0  0  0  0  0  0  0
  134.3960   70.4890  225.8000 C   0  0  0  0  0  0  0  0  0  0  0  0
  134.8020   71.6260  225.1210 C   0  0  0  0  0  0  0  0  0  0  0  0
  135.6750   71.5330  224.1020 N   0  0  0  0  0  0  0  0  0  0  0  0
  138.3850   73.8990  223.0850 H   0  0  0  0  0  0  0  0  0  0  0  0
  138.7244   72.9300  220.2593 H   0  0  0  0  0  0  0  0  0  0  0  0
  139.8431   73.9997  221.1474 H   0  0  0  0  0  0  0  0  0  0  0  0
  140.4677   70.9380  224.1232 H   0  0  0  0  0  0  0  0  0  0  0  0
  138.7738   71.3333  224.0958 H   0  0  0  0  0  0  0  0  0  0  0  0
  140.1444   68.6235  223.9074 H   0  0  0  0  0  0  0  0  0  0  0  0
  137.9801   67.9422  225.0518 H   0  0  0  0  0  0  0  0  0  0  0  0
  136.7470   69.7030  224.4750 H   0  0  0  0  0  0  0  0  0  0  0  0
  139.9953   66.8976  225.8992 H   0  0  0  0  0  0  0  0  0  0  0  0
  141.5613   66.8243  227.7822 H   0  0  0  0  0  0  0  0  0  0  0  0
  141.9101   68.8117  229.2334 H   0  0  0  0  0  0  0  0  0  0  0  0
  140.6253   70.8890  228.7345 H   0  0  0  0  0  0  0  0  0  0  0  0
  139.0504   70.9536  226.8434 H   0  0  0  0  0  0  0  0  0  0  0  0
  138.3440   67.7327  222.3840 H   0  0  0  0  0  0  0  0  0  0  0  0
  137.0930   70.2400  223.0680 H   0  0  0  0  0  0  0  0  0  0  0  0
  140.0026   69.0017  221.1331 H   0  0  0  0  0  0  0  0  0  0  0  0
  138.5134   69.8069  220.6530 H   0  0  0  0  0  0  0  0  0  0  0  0
  136.0313   74.7541  223.1215 H   0  0  0  0  0  0  0  0  0  0  0  0
  134.4033   74.9983  225.0172 H   0  0  0  0  0  0  0  0  0  0  0  0
  133.0657   74.0249  226.7703 H   0  0  0  0  0  0  0  0  0  0  0  0
  132.3015   72.0033  228.0239 H   0  0  0  0  0  0  0  0  0  0  0  0
  133.1566   69.7526  227.3954 H   0  0  0  0  0  0  0  0  0  0  0  0
  134.7775   69.4959  225.5202 H   0  0  0  0  0  0  0  0  0  0  0  0
  1  2  2  0
  2  3  1  0
  3  4  1  0
  4  5  1  0
  5  6  2  0
  5  7  1  0
  7  8  1  0
  8  9  1  0
  9 10  1  0
 10 11  1  0
 10 12  1  0
 12 13  2  0
 13 14  1  0
 14 15  2  0
 15 16  1  0
 16 17  2  0
  9 18  1  0
 18 19  1  0
 18 20  1  0
  2 21  1  0
 21 22  2  0
 22 23  1  0
 23 24  2  0
 24 25  1  0
 25 26  2  0
 26 27  1  0
 27 28  2  0
 28 29  1  0
 29 30  2  0
 20  7  1  0
 30 21  1  0
 17 12  1  0
 29 24  1  0
  3 31  1  0
  4 32  1  0
  4 33  1  0
  8 34  1  0
  8 35  1  0
  9 36  1  1
 10 37  1  6
 11 38  1  0
 13 39  1  0
 14 40  1  0
 15 41  1  0
 16 42  1  0
 17 43  1  0
 18 44  1  6
 19 45  1  0
 20 46  1  0
 20 47  1  0
 22 48  1  0
 23 49  1  0
 25 50  1  0
 26 51  1  0
 27 52  1  0
 28 53  1  0
M  END
>  <smiles>  (6) 
O=C(NCC(=O)N1C[C@@H]([C@H](O)c2ccccc2)[C@@H](O)C1)c1ccc2ccccc2n1

>  <score_type>  (6) 
oracle

>  <origin>  (6) 
autodockgpu

>  <m_score__min__energy>  (6) 
-8.6999999999999993

>  <m_primary>  (6) 
energy

>  <rmsd>  (6) 
7.025273866813744

>  <m_score__min__rmsd>  (6) 
7.025273866813744

>  <meeko>  (6) 
{"free_energy": -6.06, "intermolecular_energy": -8.45, "internal_energy": -4.96, "cluster_size": 18, "cluster_id": 6, "rank_in_cluster": 10}

>  <energy>  (6) 
-8.48

>  <cluster_rmsd>  (6) 
0.44

>  <cluster>  (6) 
1

$$$$

     RDKit          3D

 53 56  0  0  0  0  0  0  0  0999 V2000
  140.8650   71.1860  221.3640 O   0  0  0  0  0  0  0  0  0  0  0  0
  140.2670   71.7330  222.3430 C   0  0  0  0  0  0  0  0  0  0  0  0
  139.7050   73.0410  222.2390 N   0  0  0  0  0  0  0  0  0  0  0  0
  139.8010   73.7910  221.0030 C   0  0  0  0  0  0  0  0  0  0  0  0
  140.8400   74.8300  221.1810 C   0  0  0  0  0  0  0  0  0  0  0  0
  140.5620   75.9010  221.7840 O   0  0  0  0  0  0  0  0  0  0  0  0
  142.1600   74.6820  220.7020 N   0  0  0  0  0  0  0  0  0  0  0  0
  142.9080   73.4330  220.8170 C   0  0  0  0  0  0  0  0  0  0  0  0
  144.2810   73.8760  220.4240 C   0  0  1  0  0  0  0  0  0  0  0  0
  145.0830   72.7570  219.8250 C   0  0  2  0  0  0  0  0  0  0  0  0
  145.9430   73.2500  218.8590 O   0  0  0  0  0  0  0  0  0  0  0  0
  144.1530   71.7120  219.3410 C   0  0  0  0  0  0  0  0  0  0  0  0
  143.9000   70.5830  220.1310 C   0  0  0  0  0  0  0  0  0  0  0  0
  143.0500   69.5810  219.7200 C   0  0  0  0  0  0  0  0  0  0  0  0
  142.4030   69.6440  218.5030 C   0  0  0  0  0  0  0  0  0  0  0  0
  142.6360   70.7450  217.7090 C   0  0  0  0  0  0  0  0  0  0  0  0
  143.4980   71.7500  218.1350 C   0  0  0  0  0  0  0  0  0  0  0  0
  144.0750   74.9990  219.4280 C   0  0  1  0  0  0  0  0  0  0  0  0
  143.6940   74.4270  218.2160 O   0  0  0  0  0  0  0  0  0  0  0  0
  142.9130   75.7190  220.0580 C   0  0  0  0  0  0  0  0  0  0  0  0
  140.1360   71.0170  223.6300 C   0  0  0  0  0  0  0  0  0  0  0  0
  139.5290   69.7670  223.6270 C   0  0  0  0  0  0  0  0  0  0  0  0
  139.4270   69.1280  224.8580 C   0  0  0  0  0  0  0  0  0  0  0  0
  139.9140   69.7230  226.0250 C   0  0  0  0  0  0  0  0  0  0  0  0
  139.8010   69.0670  227.2400 C   0  0  0  0  0  0  0  0  0  0  0  0
  140.2930   69.6760  228.3920 C   0  0  0  0  0  0  0  0  0  0  0  0
  140.8910   70.9340  228.3140 C   0  0  0  0  0  0  0  0  0  0  0  0
  141.0050   71.5920  227.1040 C   0  0  0  0  0  0  0  0  0  0  0  0
  140.5090   70.9650  225.9730 C   0  0  0  0  0  0  0  0  0  0  0  0
  140.5960   71.5640  224.7720 N   0  0  0  0  0  0  0  0  0  0  0  0
  139.2210   73.4330  223.0990 H   0  0  0  0  0  0  0  0  0  0  0  0
  140.0819   73.1188  220.1788 H   0  0  0  0  0  0  0  0  0  0  0  0
  138.8334   74.2543  220.7598 H   0  0  0  0  0  0  0  0  0  0  0  0
  142.8891   73.0457  221.8464 H   0  0  0  0  0  0  0  0  0  0  0  0
  142.5080   72.6106  220.2057 H   0  0  0  0  0  0  0  0  0  0  0  0
  144.8558   74.2080  221.3011 H   0  0  0  0  0  0  0  0  0  0  0  0
  145.7320   72.2826  220.5758 H   0  0  0  0  0  0  0  0  0  0  0  0
  145.7900   74.1990  218.7040 H   0  0  0  0  0  0  0  0  0  0  0  0
  144.3954   70.4945  221.1091 H   0  0  0  0  0  0  0  0  0  0  0  0
  142.8834   68.7130  220.3748 H   0  0  0  0  0  0  0  0  0  0  0  0
  141.7240   68.8420  218.1779 H   0  0  0  0  0  0  0  0  0  0  0  0
  142.1374   70.8300  216.7322 H   0  0  0  0  0  0  0  0  0  0  0  0
  143.6625   72.6148  217.4755 H   0  0  0  0  0  0  0  0  0  0  0  0
  144.9448   75.6430  219.2309 H   0  0  0  0  0  0  0  0  0  0  0  0
  144.4550   74.2060  217.6200 H   0  0  0  0  0  0  0  0  0  0  0  0
  143.2648   76.4585  220.7924 H   0  0  0  0  0  0  0  0  0  0  0  0
  142.3154   76.2768  219.3220 H   0  0  0  0  0  0  0  0  0  0  0  0
  139.1500   69.3082  222.7019 H   0  0  0  0  0  0  0  0  0  0  0  0
  138.9544   68.1363  224.9141 H   0  0  0  0  0  0  0  0  0  0  0  0
  139.3277   68.0755  227.2944 H   0  0  0  0  0  0  0  0  0  0  0  0
  140.2101   69.1653  229.3627 H   0  0  0  0  0  0  0  0  0  0  0  0
  141.2771   71.4087  229.2281 H   0  0  0  0  0  0  0  0  0  0  0  0
  141.4757   72.5842  227.0411 H   0  0  0  0  0  0  0  0  0  0  0  0
  1  2  2  0
  2  3  1  0
  3  4  1  0
  4  5  1  0
  5  6  2  0
  5  7  1  0
  7  8  1  0
  8  9  1  0
  9 10  1  0
 10 11  1  0
 10 12  1  0
 12 13  2  0
 13 14  1  0
 14 15  2  0
 15 16  1  0
 16 17  2  0
  9 18  1  0
 18 19  1  0
 18 20  1  0
  2 21  1  0
 21 22  2  0
 22 23  1  0
 23 24  2  0
 24 25  1  0
 25 26  2  0
 26 27  1  0
 27 28  2  0
 28 29  1  0
 29 30  2  0
 20  7  1  0
 30 21  1  0
 17 12  1  0
 29 24  1  0
  3 31  1  0
  4 32  1  0
  4 33  1  0
  8 34  1  0
  8 35  1  0
  9 36  1  1
 10 37  1  1
 11 38  1  0
 13 39  1  0
 14 40  1  0
 15 41  1  0
 16 42  1  0
 17 43  1  0
 18 44  1  6
 19 45  1  0
 20 46  1  0
 20 47  1  0
 22 48  1  0
 23 49  1  0
 25 50  1  0
 26 51  1  0
 27 52  1  0
 28 53  1  0
M  END
>  <smiles>  (7) 
O=C(NCC(=O)N1C[C@@H]([C@H](O)c2ccccc2)[C@@H](O)C1)c1ccc2ccccc2n1

>  <score_type>  (7) 
oracle

>  <origin>  (7) 
autodockgpu

>  <m_score__min__energy>  (7) 
-8.6999999999999993

>  <m_primary>  (7) 
energy

>  <rmsd>  (7) 
2.9696413891759623

>  <m_score__min__rmsd>  (7) 
2.9696413891759623

>  <meeko>  (7) 
{"free_energy": -7.95, "intermolecular_energy": -10.34, "internal_energy": -2.58, "cluster_size": 1, "cluster_id": 3, "rank_in_cluster": 1}

>  <energy>  (7) 
-8.47

>  <cluster_rmsd>  (7) 
0.52

>  <cluster>  (7) 
1

$$$$

     RDKit          3D

 53 56  0  0  0  0  0  0  0  0999 V2000
  137.8950   75.7600  223.0680 O   0  0  0  0  0  0  0  0  0  0  0  0
  137.6860   76.8480  222.4450 C   0  0  0  0  0  0  0  0  0  0  0  0
  136.6470   76.9640  221.4740 N   0  0  0  0  0  0  0  0  0  0  0  0
  135.7920   75.8350  221.1650 C   0  0  0  0  0  0  0  0  0  0  0  0
  136.5290   74.9460  220.2390 C   0  0  0  0  0  0  0  0  0  0  0  0
  135.9790   74.5490  219.1770 O   0  0  0  0  0  0  0  0  0  0  0  0
  137.8490   74.5100  220.4860 N   0  0  0  0  0  0  0  0  0  0  0  0
  139.0060   75.3980  220.4020 C   0  0  0  0  0  0  0  0  0  0  0  0
  140.1330   74.4200  220.4780 C   0  0  1  0  0  0  0  0  0  0  0  0
  141.3720   75.0330  221.0630 C   0  0  2  0  0  0  0  0  0  0  0  0
  141.0940   75.5840  222.3010 O   0  0  0  0  0  0  0  0  0  0  0  0
  141.9380   75.9860  220.0810 C   0  0  0  0  0  0  0  0  0  0  0  0
  141.5740   77.3380  220.1320 C   0  0  0  0  0  0  0  0  0  0  0  0
  142.0680   78.2590  219.2350 C   0  0  0  0  0  0  0  0  0  0  0  0
  142.9490   77.8910  218.2400 C   0  0  0  0  0  0  0  0  0  0  0  0
  143.3210   76.5660  218.1700 C   0  0  0  0  0  0  0  0  0  0  0  0
  142.8150   75.6450  219.0810 C   0  0  0  0  0  0  0  0  0  0  0  0
  139.6250   73.2810  221.3390 C   0  0  1  0  0  0  0  0  0  0  0  0
  139.6420   73.7110  222.6640 O   0  0  0  0  0  0  0  0  0  0  0  0
  138.2090   73.1680  220.8420 C   0  0  0  0  0  0  0  0  0  0  0  0
  138.5240   78.0350  222.7160 C   0  0  0  0  0  0  0  0  0  0  0  0
  137.8890   79.2530  222.9270 C   0  0  0  0  0  0  0  0  0  0  0  0
  138.7140   80.3430  223.1800 C   0  0  0  0  0  0  0  0  0  0  0  0
  140.1050   80.2050  223.2170 C   0  0  0  0  0  0  0  0  0  0  0  0
  140.9070   81.3060  223.4710 C   0  0  0  0  0  0  0  0  0  0  0  0
  142.2900   81.1480  223.5050 C   0  0  0  0  0  0  0  0  0  0  0  0
  142.8540   79.8910  223.2840 C   0  0  0  0  0  0  0  0  0  0  0  0
  142.0570   78.7910  223.0300 C   0  0  0  0  0  0  0  0  0  0  0  0
  140.6850   78.9740  223.0020 C   0  0  0  0  0  0  0  0  0  0  0  0
  139.8660   77.9340  222.7600 N   0  0  0  0  0  0  0  0  0  0  0  0
  136.5320   77.9040  220.9930 H   0  0  0  0  0  0  0  0  0  0  0  0
  135.5441   75.2903  222.0880 H   0  0  0  0  0  0  0  0  0  0  0  0
  134.8556   76.1791  220.7017 H   0  0  0  0  0  0  0  0  0  0  0  0
  139.0187   75.9539  219.4529 H   0  0  0  0  0  0  0  0  0  0  0  0
  139.0329   76.1769  221.1782 H   0  0  0  0  0  0  0  0  0  0  0  0
  140.4250   74.0756  219.4749 H   0  0  0  0  0  0  0  0  0  0  0  0
  142.1446   74.2732  221.2524 H   0  0  0  0  0  0  0  0  0  0  0  0
  140.1480   75.7960  222.3870 H   0  0  0  0  0  0  0  0  0  0  0  0
  140.8735   77.6736  220.9109 H   0  0  0  0  0  0  0  0  0  0  0  0
  141.7532   79.3100  219.3139 H   0  0  0  0  0  0  0  0  0  0  0  0
  143.3416   78.6302  217.5263 H   0  0  0  0  0  0  0  0  0  0  0  0
  144.0219   76.2350  217.3895 H   0  0  0  0  0  0  0  0  0  0  0  0
  143.1319   74.5950  218.9965 H   0  0  0  0  0  0  0  0  0  0  0  0
  140.1920   72.3398  221.2886 H   0  0  0  0  0  0  0  0  0  0  0  0
  139.2040   74.5900  222.8050 H   0  0  0  0  0  0  0  0  0  0  0  0
  138.1555   72.5050  219.9659 H   0  0  0  0  0  0  0  0  0  0  0  0
  137.5327   72.7378  221.5954 H   0  0  0  0  0  0  0  0  0  0  0  0
  136.7937   79.3494  222.8956 H   0  0  0  0  0  0  0  0  0  0  0  0
  138.2645   81.3317  223.3542 H   0  0  0  0  0  0  0  0  0  0  0  0
  140.4560   82.2943  223.6439 H   0  0  0  0  0  0  0  0  0  0  0  0
  142.9378   82.0140  223.7061 H   0  0  0  0  0  0  0  0  0  0  0  0
  143.9474   79.7741  223.3123 H   0  0  0  0  0  0  0  0  0  0  0  0
  142.4997   77.7993  222.8552 H   0  0  0  0  0  0  0  0  0  0  0  0
  1  2  2  0
  2  3  1  0
  3  4  1  0
  4  5  1  0
  5  6  2  0
  5  7  1  0
  7  8  1  0
  8  9  1  0
  9 10  1  0
 10 11  1  0
 10 12  1  0
 12 13  2  0
 13 14  1  0
 14 15  2  0
 15 16  1  0
 16 17  2  0
  9 18  1  0
 18 19  1  0
 18 20  1  0
  2 21  1  0
 21 22  2  0
 22 23  1  0
 23 24  2  0
 24 25  1  0
 25 26  2  0
 26 27  1  0
 27 28  2  0
 28 29  1  0
 29 30  2  0
 20  7  1  0
 30 21  1  0
 17 12  1  0
 29 24  1  0
  3 31  1  0
  4 32  1  0
  4 33  1  0
  8 34  1  0
  8 35  1  0
  9 36  1  6
 10 37  1  1
 11 38  1  0
 13 39  1  0
 14 40  1  0
 15 41  1  0
 16 42  1  0
 17 43  1  0
 18 44  1  1
 19 45  1  0
 20 46  1  0
 20 47  1  0
 22 48  1  0
 23 49  1  0
 25 50  1  0
 26 51  1  0
 27 52  1  0
 28 53  1  0
M  END
>  <smiles>  (8) 
O=C(NCC(=O)N1C[C@@H]([C@H](O)c2ccccc2)[C@@H](O)C1)c1ccc2ccccc2n1

>  <score_type>  (8) 
oracle

>  <origin>  (8) 
autodockgpu

>  <m_score__min__energy>  (8) 
-8.6999999999999993

>  <m_primary>  (8) 
energy

>  <rmsd>  (8) 
7.760125068428239

>  <m_score__min__rmsd>  (8) 
7.760125068428239

>  <meeko>  (8) 
{"free_energy": -5.88, "intermolecular_energy": -8.26, "internal_energy": -4.69, "cluster_size": 6, "cluster_id": 9, "rank_in_cluster": 4}

>  <energy>  (8) 
-8.47

>  <cluster_rmsd>  (8) 
0.51

>  <cluster>  (8) 
1

$$$$

     RDKit          3D

 53 56  0  0  0  0  0  0  0  0999 V2000
  136.8260   71.5900  221.3600 O   0  0  0  0  0  0  0  0  0  0  0  0
  137.0640   72.4440  222.2720 C   0  0  0  0  0  0  0  0  0  0  0  0
  138.2540   73.2300  222.2670 N   0  0  0  0  0  0  0  0  0  0  0  0
  139.2370   73.0790  221.2130 C   0  0  0  0  0  0  0  0  0  0  0  0
  140.0770   71.9040  221.5400 C   0  0  0  0  0  0  0  0  0  0  0  0
  141.3020   71.9060  221.2470 O   0  0  0  0  0  0  0  0  0  0  0  0
  139.5660   70.7530  222.1790 N   0  0  0  0  0  0  0  0  0  0  0  0
  139.4370   70.6450  223.6300 C   0  0  0  0  0  0  0  0  0  0  0  0
  139.1220   69.1920  223.7890 C   0  0  1  0  0  0  0  0  0  0  0  0
  138.3160   68.9230  225.0270 C   0  0  2  0  0  0  0  0  0  0  0  0
  137.3150   69.8700  225.1610 O   0  0  0  0  0  0  0  0  0  0  0  0
  139.2370   68.8370  226.1820 C   0  0  0  0  0  0  0  0  0  0  0  0
  140.2300   67.8500  226.2110 C   0  0  0  0  0  0  0  0  0  0  0  0
  141.1040   67.7250  227.2680 C   0  0  0  0  0  0  0  0  0  0  0  0
  141.0410   68.5730  228.3540 C   0  0  0  0  0  0  0  0  0  0  0  0
  140.0720   69.5520  228.3480 C   0  0  0  0  0  0  0  0  0  0  0  0
  139.1950   69.6670  227.2750 C   0  0  0  0  0  0  0  0  0  0  0  0
  138.3560   68.8050  222.5400 C   0  0  1  0  0  0  0  0  0  0  0  0
  137.0620   69.3070  222.6630 O   0  0  0  0  0  0  0  0  0  0  0  0
  139.1200   69.5740  221.4960 C   0  0  0  0  0  0  0  0  0  0  0  0
  136.0980   72.6440  223.3730 C   0  0  0  0  0  0  0  0  0  0  0  0
  135.6780   73.9400  223.6510 C   0  0  0  0  0  0  0  0  0  0  0  0
  134.7700   74.0840  224.6930 C   0  0  0  0  0  0  0  0  0  0  0  0
  134.3130   72.9760  225.4130 C   0  0  0  0  0  0  0  0  0  0  0  0
  133.4070   73.1440  226.4480 C   0  0  0  0  0  0  0  0  0  0  0  0
  132.9630   72.0290  227.1530 C   0  0  0  0  0  0  0  0  0  0  0  0
  133.4290   70.7580  226.8140 C   0  0  0  0  0  0  0  0  0  0  0  0
  134.3330   70.5870  225.7820 C   0  0  0  0  0  0  0  0  0  0  0  0
  134.7590   71.7120  225.0960 C   0  0  0  0  0  0  0  0  0  0  0  0
  135.6380   71.5970  224.0840 N   0  0  0  0  0  0  0  0  0  0  0  0
  138.3830   73.9220  223.0620 H   0  0  0  0  0  0  0  0  0  0  0  0
  138.7307   72.9201  220.2495 H   0  0  0  0  0  0  0  0  0  0  0  0
  139.8573   73.9840  221.1346 H   0  0  0  0  0  0  0  0  0  0  0  0
  140.3752   70.9116  224.1386 H   0  0  0  0  0  0  0  0  0  0  0  0
  138.6855   71.3192  224.0668 H   0  0  0  0  0  0  0  0  0  0  0  0
  140.0407   68.5985  223.9062 H   0  0  0  0  0  0  0  0  0  0  0  0
  137.7929   67.9574  224.9636 H   0  0  0  0  0  0  0  0  0  0  0  0
  136.6260   69.7500  224.4830 H   0  0  0  0  0  0  0  0  0  0  0  0
  140.3145   67.1534  225.3639 H   0  0  0  0  0  0  0  0  0  0  0  0
  141.8674   66.9333  227.2457 H   0  0  0  0  0  0  0  0  0  0  0  0
  141.7409   68.4709  229.1964 H   0  0  0  0  0  0  0  0  0  0  0  0
  139.9915   70.2469  229.1969 H   0  0  0  0  0  0  0  0  0  0  0  0
  138.4325   70.4594  227.3031 H   0  0  0  0  0  0  0  0  0  0  0  0
  138.2753   67.7281  222.3309 H   0  0  0  0  0  0  0  0  0  0  0  0
  137.0230   70.2230  223.0400 H   0  0  0  0  0  0  0  0  0  0  0  0
  139.9763   68.9885  221.1299 H   0  0  0  0  0  0  0  0  0  0  0  0
  138.5065   69.8069  220.6132 H   0  0  0  0  0  0  0  0  0  0  0  0
  136.0445   74.8041  223.0774 H   0  0  0  0  0  0  0  0  0  0  0  0
  134.4043   75.0875  224.9561 H   0  0  0  0  0  0  0  0  0  0  0  0
  133.0424   74.1483  226.7098 H   0  0  0  0  0  0  0  0  0  0  0  0
  132.2448   72.1497  227.9774 H   0  0  0  0  0  0  0  0  0  0  0  0
  133.0727   69.8814  227.3748 H   0  0  0  0  0  0  0  0  0  0  0  0
  134.7031   69.5865  225.5136 H   0  0  0  0  0  0  0  0  0  0  0  0
  1  2  2  0
  2  3  1  0
  3  4  1  0
  4  5  1  0
  5  6  2  0
  5  7  1  0
  7  8  1  0
  8  9  1  0
  9 10  1  0
 10 11  1  0
 10 12  1  0
 12 13  2  0
 13 14  1  0
 14 15  2  0
 15 16  1  0
 16 17  2  0
  9 18  1  0
 18 19  1  0
 18 20  1  0
  2 21  1  0
 21 22  2  0
 22 23  1  0
 23 24  2  0
 24 25  1  0
 25 26  2  0
 26 27  1  0
 27 28  2  0
 28 29  1  0
 29 30  2  0
 20  7  1  0
 30 21  1  0
 17 12  1  0
 29 24  1  0
  3 31  1  0
  4 32  1  0
  4 33  1  0
  8 34  1  0
  8 35  1  0
  9 36  1  1
 10 37  1  6
 11 38  1  0
 13 39  1  0
 14 40  1  0
 15 41  1  0
 16 42  1  0
 17 43  1  0
 18 44  1  6
 19 45  1  0
 20 46  1  0
 20 47  1  0
 22 48  1  0
 23 49  1  0
 25 50  1  0
 26 51  1  0
 27 52  1  0
 28 53  1  0
M  END
>  <smiles>  (9) 
O=C(NCC(=O)N1C[C@@H]([C@H](O)c2ccccc2)[C@@H](O)C1)c1ccc2ccccc2n1

>  <score_type>  (9) 
oracle

>  <origin>  (9) 
autodockgpu

>  <m_score__min__energy>  (9) 
-8.6999999999999993

>  <m_primary>  (9) 
energy

>  <rmsd>  (9) 
7.055860833155506

>  <m_score__min__rmsd>  (9) 
7.055860833155506

>  <meeko>  (9) 
{"free_energy": -6.07, "intermolecular_energy": -8.46, "internal_energy": -4.94, "cluster_size": 18, "cluster_id": 6, "rank_in_cluster": 4}

>  <energy>  (9) 
-8.41

>  <cluster_rmsd>  (9) 
0.71

>  <cluster>  (9) 
1

$$$$

     RDKit          3D

 53 56  0  0  0  0  0  0  0  0999 V2000
  140.0870   71.0270  221.2720 O   0  0  0  0  0  0  0  0  0  0  0  0
  139.9250   71.6420  222.3730 C   0  0  0  0  0  0  0  0  0  0  0  0
  139.7180   73.0520  222.4170 N   0  0  0  0  0  0  0  0  0  0  0  0
  139.6880   73.8350  221.1980 C   0  0  0  0  0  0  0  0  0  0  0  0
  139.8820   75.2560  221.5640 C   0  0  0  0  0  0  0  0  0  0  0  0
  139.5710   75.6560  222.7180 O   0  0  0  0  0  0  0  0  0  0  0  0
  140.4110   76.2110  220.6690 N   0  0  0  0  0  0  0  0  0  0  0  0
  140.3110   77.6510  220.8970 C   0  0  0  0  0  0  0  0  0  0  0  0
  140.7640   78.1890  219.5780 C   0  0  1  0  0  0  0  0  0  0  0  0
  141.3810   79.5510  219.7070 C   0  0  2  0  0  0  0  0  0  0  0  0
  142.5690   79.6070  219.0000 O   0  0  0  0  0  0  0  0  0  0  0  0
  141.5080   79.8790  221.1450 C   0  0  0  0  0  0  0  0  0  0  0  0
  140.5710   80.7250  221.7530 C   0  0  0  0  0  0  0  0  0  0  0  0
  140.6530   81.0660  223.0850 C   0  0  0  0  0  0  0  0  0  0  0  0
  141.6670   80.5860  223.8870 C   0  0  0  0  0  0  0  0  0  0  0  0
  142.6010   79.7530  223.3110 C   0  0  0  0  0  0  0  0  0  0  0  0
  142.5080   79.4170  221.9640 C   0  0  0  0  0  0  0  0  0  0  0  0
  141.7640   77.1810  219.0500 C   0  0  1  0  0  0  0  0  0  0  0  0
  142.9520   77.3530  219.7560 O   0  0  0  0  0  0  0  0  0  0  0  0
  141.0970   75.8920  219.4510 C   0  0  0  0  0  0  0  0  0  0  0  0
  139.9450   70.8980  223.6500 C   0  0  0  0  0  0  0  0  0  0  0  0
  139.4750   69.5900  223.6560 C   0  0  0  0  0  0  0  0  0  0  0  0
  139.5120   68.9260  224.8770 C   0  0  0  0  0  0  0  0  0  0  0  0
  139.9990   69.5540  226.0270 C   0  0  0  0  0  0  0  0  0  0  0  0
  140.0260   68.8730  227.2330 C   0  0  0  0  0  0  0  0  0  0  0  0
  140.5160   69.5150  228.3680 C   0  0  0  0  0  0  0  0  0  0  0  0
  140.9720   70.8300  228.2820 C   0  0  0  0  0  0  0  0  0  0  0  0
  140.9460   71.5130  227.0810 C   0  0  0  0  0  0  0  0  0  0  0  0
  140.4550   70.8530  225.9670 C   0  0  0  0  0  0  0  0  0  0  0  0
  140.4090   71.4740  224.7750 N   0  0  0  0  0  0  0  0  0  0  0  0
  139.5910   73.4960  223.3740 H   0  0  0  0  0  0  0  0  0  0  0  0
  140.4946   73.5092  220.5248 H   0  0  0  0  0  0  0  0  0  0  0  0
  138.7267   73.7008  220.6805 H   0  0  0  0  0  0  0  0  0  0  0  0
  139.2771   77.9523  221.1211 H   0  0  0  0  0  0  0  0  0  0  0  0
  140.8958   78.0126  221.7557 H   0  0  0  0  0  0  0  0  0  0  0  0
  139.9140   78.3194  218.8921 H   0  0  0  0  0  0  0  0  0  0  0  0
  140.7414   80.3251  219.2580 H   0  0  0  0  0  0  0  0  0  0  0  0
  143.2460   79.0370  219.4050 H   0  0  0  0  0  0  0  0  0  0  0  0
  139.7454   81.1288  221.1486 H   0  0  0  0  0  0  0  0  0  0  0  0
  139.8944   81.7347  223.5178 H   0  0  0  0  0  0  0  0  0  0  0  0
  141.7280   80.8590  224.9508 H   0  0  0  0  0  0  0  0  0  0  0  0
  143.4248   79.3513  223.9193 H   0  0  0  0  0  0  0  0  0  0  0  0
  143.2710   78.7504  221.5357 H   0  0  0  0  0  0  0  0  0  0  0  0
  142.0029   77.2452  217.9782 H   0  0  0  0  0  0  0  0  0  0  0  0
  143.6820   77.7590  219.2200 H   0  0  0  0  0  0  0  0  0  0  0  0
  140.3863   75.5643  218.6780 H   0  0  0  0  0  0  0  0  0  0  0  0
  141.8157   75.0688  219.5771 H   0  0  0  0  0  0  0  0  0  0  0  0
  139.0944   69.1064  222.7443 H   0  0  0  0  0  0  0  0  0  0  0  0
  139.1518   67.8885  224.9391 H   0  0  0  0  0  0  0  0  0  0  0  0
  139.6642   67.8360  227.2938 H   0  0  0  0  0  0  0  0  0  0  0  0
  140.5432   68.9850  229.3315 H   0  0  0  0  0  0  0  0  0  0  0  0
  141.3577   71.3305  229.1825 H   0  0  0  0  0  0  0  0  0  0  0  0
  141.3048   72.5505  227.0119 H   0  0  0  0  0  0  0  0  0  0  0  0
  1  2  2  0
  2  3  1  0
  3  4  1  0
  4  5  1  0
  5  6  2  0
  5  7  1  0
  7  8  1  0
  8  9  1  0
  9 10  1  0
 10 11  1  0
 10 12  1  0
 12 13  2  0
 13 14  1  0
 14 15  2  0
 15 16  1  0
 16 17  2  0
  9 18  1  0
 18 19  1  0
 18 20  1  0
  2 21  1  0
 21 22  2  0
 22 23  1  0
 23 24  2  0
 24 25  1  0
 25 26  2  0
 26 27  1  0
 27 28  2  0
 28 29  1  0
 29 30  2  0
 20  7  1  0
 30 21  1  0
 17 12  1  0
 29 24  1  0
  3 31  1  0
  4 32  1  0
  4 33  1  0
  8 34  1  0
  8 35  1  0
  9 36  1  6
 10 37  1  6
 11 38  1  0
 13 39  1  0
 14 40  1  0
 15 41  1  0
 16 42  1  0
 17 43  1  0
 18 44  1  6
 19 45  1  0
 20 46  1  0
 20 47  1  0
 22 48  1  0
 23 49  1  0
 25 50  1  0
 26 51  1  0
 27 52  1  0
 28 53  1  0
M  END
>  <smiles>  (10) 
O=C(NCC(=O)N1C[C@@H]([C@H](O)c2ccccc2)[C@@H](O)C1)c1ccc2ccccc2n1

>  <score_type>  (10) 
oracle

>  <origin>  (10) 
autodockgpu

>  <m_score__min__energy>  (10) 
-8.6999999999999993

>  <m_primary>  (10) 
energy

>  <rmsd>  (10) 
2.3477132219307713

>  <m_score__min__rmsd>  (10) 
2.3477132219307713

>  <meeko>  (10) 
{"free_energy": -8.59, "intermolecular_energy": -10.98, "internal_energy": -2.71, "cluster_size": 15, "cluster_id": 1, "rank_in_cluster": 3}

>  <energy>  (10) 
-8.36

>  <cluster_rmsd>  (10) 
0.6

>  <cluster>  (10) 
1

$$$$

     RDKit          3D

 53 56  0  0  0  0  0  0  0  0999 V2000
  140.4140   71.3150  221.2650 O   0  0  0  0  0  0  0  0  0  0  0  0
  140.1230   71.9090  222.3500 C   0  0  0  0  0  0  0  0  0  0  0  0
  139.8180   73.3020  222.3800 N   0  0  0  0  0  0  0  0  0  0  0  0
  139.8320   74.0900  221.1630 C   0  0  0  0  0  0  0  0  0  0  0  0
  139.8440   75.5190  221.5470 C   0  0  0  0  0  0  0  0  0  0  0  0
  139.4680   75.8650  222.6990 O   0  0  0  0  0  0  0  0  0  0  0  0
  140.2670   76.5430  220.6710 N   0  0  0  0  0  0  0  0  0  0  0  0
  140.2380   77.9580  221.0330 C   0  0  0  0  0  0  0  0  0  0  0  0
  140.5140   78.6040  219.7140 C   0  0  1  0  0  0  0  0  0  0  0  0
  141.1790   79.9410  219.8700 C   0  0  2  0  0  0  0  0  0  0  0  0
  142.2690   80.0340  219.0230 O   0  0  0  0  0  0  0  0  0  0  0  0
  141.4940   80.1490  221.3010 C   0  0  0  0  0  0  0  0  0  0  0  0
  140.6580   80.9490  222.0900 C   0  0  0  0  0  0  0  0  0  0  0  0
  140.9150   81.1780  223.4240 C   0  0  0  0  0  0  0  0  0  0  0  0
  142.0150   80.6280  224.0460 C   0  0  0  0  0  0  0  0  0  0  0  0
  142.8530   79.8380  223.2900 C   0  0  0  0  0  0  0  0  0  0  0  0
  142.5830   79.6150  221.9440 C   0  0  0  0  0  0  0  0  0  0  0  0
  141.4020   77.6330  218.9640 C   0  0  1  0  0  0  0  0  0  0  0  0
  142.6830   77.7250  219.5050 O   0  0  0  0  0  0  0  0  0  0  0  0
  140.7660   76.3230  219.3440 C   0  0  0  0  0  0  0  0  0  0  0  0
  140.0910   71.1590  223.6240 C   0  0  0  0  0  0  0  0  0  0  0  0
  139.5630   69.8730  223.6160 C   0  0  0  0  0  0  0  0  0  0  0  0
  139.5530   69.2030  224.8340 C   0  0  0  0  0  0  0  0  0  0  0  0
  140.0500   69.8040  225.9940 C   0  0  0  0  0  0  0  0  0  0  0  0
  140.0290   69.1160  227.1970 C   0  0  0  0  0  0  0  0  0  0  0  0
  140.5300   69.7310  228.3420 C   0  0  0  0  0  0  0  0  0  0  0  0
  141.0450   71.0250  228.2700 C   0  0  0  0  0  0  0  0  0  0  0  0
  141.0670   71.7140  227.0720 C   0  0  0  0  0  0  0  0  0  0  0  0
  140.5640   71.0810  225.9480 C   0  0  0  0  0  0  0  0  0  0  0  0
  140.5640   71.7090  224.7580 N   0  0  0  0  0  0  0  0  0  0  0  0
  139.5840   73.7300  223.3240 H   0  0  0  0  0  0  0  0  0  0  0  0
  140.7309   73.8534  220.5748 H   0  0  0  0  0  0  0  0  0  0  0  0
  138.9464   73.8651  220.5505 H   0  0  0  0  0  0  0  0  0  0  0  0
  139.2544   78.2525  221.4276 H   0  0  0  0  0  0  0  0  0  0  0  0
  140.9475   78.2343  221.8269 H   0  0  0  0  0  0  0  0  0  0  0  0
  139.5794   78.8064  219.1703 H   0  0  0  0  0  0  0  0  0  0  0  0
  140.5096   80.7604  219.5690 H   0  0  0  0  0  0  0  0  0  0  0  0
  142.1690   79.4450  218.2540 H   0  0  0  0  0  0  0  0  0  0  0  0
  139.7700   81.4081  221.6310 H   0  0  0  0  0  0  0  0  0  0  0  0
  140.2287   81.8124  224.0041 H   0  0  0  0  0  0  0  0  0  0  0  0
  142.2172   80.8137  225.1112 H   0  0  0  0  0  0  0  0  0  0  0  0
  143.7401   79.3813  223.7532 H   0  0  0  0  0  0  0  0  0  0  0  0
  143.2738   78.9816  221.3682 H   0  0  0  0  0  0  0  0  0  0  0  0
  141.4877   77.7891  217.8785 H   0  0  0  0  0  0  0  0  0  0  0  0
  143.1110   78.6100  219.3710 H   0  0  0  0  0  0  0  0  0  0  0  0
  139.9452   76.0740  218.6553 H   0  0  0  0  0  0  0  0  0  0  0  0
  141.4738   75.4824  219.2951 H   0  0  0  0  0  0  0  0  0  0  0  0
  139.1745   69.4110  222.6964 H   0  0  0  0  0  0  0  0  0  0  0  0
  139.1468   68.1820  224.8858 H   0  0  0  0  0  0  0  0  0  0  0  0
  139.6212   68.0956  227.2470 H   0  0  0  0  0  0  0  0  0  0  0  0
  140.5194   69.1960  229.3031 H   0  0  0  0  0  0  0  0  0  0  0  0
  141.4389   71.5037  229.1787 H   0  0  0  0  0  0  0  0  0  0  0  0
  141.4721   72.7350  227.0133 H   0  0  0  0  0  0  0  0  0  0  0  0
  1  2  2  0
  2  3  1  0
  3  4  1  0
  4  5  1  0
  5  6  2  0
  5  7  1  0
  7  8  1  0
  8  9  1  0
  9 10  1  0
 10 11  1  0
 10 12  1  0
 12 13  2  0
 13 14  1  0
 14 15  2  0
 15 16  1  0
 16 17  2  0
  9 18  1  0
 18 19  1  0
 18 20  1  0
  2 21  1  0
 21 22  2  0
 22 23  1  0
 23 24  2  0
 24 25  1  0
 25 26  2  0
 26 27  1  0
 27 28  2  0
 28 29  1  0
 29 30  2  0
 20  7  1  0
 30 21  1  0
 17 12  1  0
 29 24  1  0
  3 31  1  0
  4 32  1  0
  4 33  1  0
  8 34  1  0
  8 35  1  0
  9 36  1  6
 10 37  1  6
 11 38  1  0
 13 39  1  0
 14 40  1  0
 15 41  1  0
 16 42  1  0
 17 43  1  0
 18 44  1  6
 19 45  1  0
 20 46  1  0
 20 47  1  0
 22 48  1  0
 23 49  1  0
 25 50  1  0
 26 51  1  0
 27 52  1  0
 28 53  1  0
M  END
>  <smiles>  (11) 
O=C(NCC(=O)N1C[C@@H]([C@H](O)c2ccccc2)[C@@H](O)C1)c1ccc2ccccc2n1

>  <score_type>  (11) 
oracle

>  <origin>  (11) 
autodockgpu

>  <m_score__min__energy>  (11) 
-8.6999999999999993

>  <m_primary>  (11) 
energy

>  <rmsd>  (11) 
2.482343313984299

>  <m_score__min__rmsd>  (11) 
2.482343313984299

>  <meeko>  (11) 
{"free_energy": -8.2, "intermolecular_energy": -10.59, "internal_energy": -2.64, "cluster_size": 15, "cluster_id": 1, "rank_in_cluster": 12}

>  <energy>  (11) 
-8.24

>  <cluster_rmsd>  (11) 
0.72

>  <cluster>  (11) 
1

$$$$

     RDKit          3D

 53 56  0  0  0  0  0  0  0  0999 V2000
  136.7970   71.6760  221.3590 O   0  0  0  0  0  0  0  0  0  0  0  0
  137.0550   72.5190  222.2750 C   0  0  0  0  0  0  0  0  0  0  0  0
  138.2740   73.2600  222.2860 N   0  0  0  0  0  0  0  0  0  0  0  0
  139.2640   73.0720  221.2440 C   0  0  0  0  0  0  0  0  0  0  0  0
  140.0630   71.8740  221.5870 C   0  0  0  0  0  0  0  0  0  0  0  0
  141.2970   71.8460  221.3330 O   0  0  0  0  0  0  0  0  0  0  0  0
  139.5030   70.7320  222.2010 N   0  0  0  0  0  0  0  0  0  0  0  0
  139.4340   70.5650  223.6510 C   0  0  0  0  0  0  0  0  0  0  0  0
  139.0260   69.1320  223.7620 C   0  0  1  0  0  0  0  0  0  0  0  0
  138.2610   68.8610  225.0250 C   0  0  2  0  0  0  0  0  0  0  0  0
  137.2730   69.8140  225.2000 O   0  0  0  0  0  0  0  0  0  0  0  0
  139.2210   68.7610  226.1480 C   0  0  0  0  0  0  0  0  0  0  0  0
  139.1640   69.6850  227.1990 C   0  0  0  0  0  0  0  0  0  0  0  0
  140.0410   69.6370  228.2600 C   0  0  0  0  0  0  0  0  0  0  0  0
  141.0210   68.6700  228.3370 C   0  0  0  0  0  0  0  0  0  0  0  0
  141.0960   67.7500  227.3150 C   0  0  0  0  0  0  0  0  0  0  0  0
  140.2060   67.8090  226.2480 C   0  0  0  0  0  0  0  0  0  0  0  0
  138.1790   68.8540  222.5370 C   0  0  1  0  0  0  0  0  0  0  0  0
  136.9300   69.4360  222.7450 O   0  0  0  0  0  0  0  0  0  0  0  0
  138.9460   69.6170  221.4910 C   0  0  0  0  0  0  0  0  0  0  0  0
  136.0840   72.7560  223.3640 C   0  0  0  0  0  0  0  0  0  0  0  0
  135.6750   74.0620  223.6080 C   0  0  0  0  0  0  0  0  0  0  0  0
  134.7610   74.2400  224.6400 C   0  0  0  0  0  0  0  0  0  0  0  0
  134.2880   73.1550  225.3820 C   0  0  0  0  0  0  0  0  0  0  0  0
  133.3770   73.3570  226.4070 C   0  0  0  0  0  0  0  0  0  0  0  0
  132.9160   72.2630  227.1340 C   0  0  0  0  0  0  0  0  0  0  0  0
  133.3720   70.9800  226.8300 C   0  0  0  0  0  0  0  0  0  0  0  0
  134.2810   70.7750  225.8090 C   0  0  0  0  0  0  0  0  0  0  0  0
  134.7230   71.8790  225.0990 C   0  0  0  0  0  0  0  0  0  0  0  0
  135.6080   71.7310  224.0970 N   0  0  0  0  0  0  0  0  0  0  0  0
  138.4200   73.9460  223.0830 H   0  0  0  0  0  0  0  0  0  0  0  0
  138.7639   72.9231  220.2756 H   0  0  0  0  0  0  0  0  0  0  0  0
  139.9131   73.9568  221.1678 H   0  0  0  0  0  0  0  0  0  0  0  0
  140.4111   70.7432  224.1237 H   0  0  0  0  0  0  0  0  0  0  0  0
  138.7526   71.2674  224.1533 H   0  0  0  0  0  0  0  0  0  0  0  0
  139.9061   68.4737  223.8080 H   0  0  0  0  0  0  0  0  0  0  0  0
  137.7287   67.8998  224.9728 H   0  0  0  0  0  0  0  0  0  0  0  0
  137.3240   70.5020  224.5120 H   0  0  0  0  0  0  0  0  0  0  0  0
  138.3961   70.4723  227.1765 H   0  0  0  0  0  0  0  0  0  0  0  0
  139.9580   70.3852  229.0621 H   0  0  0  0  0  0  0  0  0  0  0  0
  141.7193   68.6346  229.1862 H   0  0  0  0  0  0  0  0  0  0  0  0
  141.8646   66.9636  227.3428 H   0  0  0  0  0  0  0  0  0  0  0  0
  140.2949   67.0593  225.4479 H   0  0  0  0  0  0  0  0  0  0  0  0
  138.0143   67.7957  222.2861 H   0  0  0  0  0  0  0  0  0  0  0  0
  136.9730   70.3580  223.1090 H   0  0  0  0  0  0  0  0  0  0  0  0
  139.7424   68.9929  221.0595 H   0  0  0  0  0  0  0  0  0  0  0  0
  138.3104   69.9303  220.6496 H   0  0  0  0  0  0  0  0  0  0  0  0
  136.0540   74.9085  223.0166 H   0  0  0  0  0  0  0  0  0  0  0  0
  134.4038   75.2531  224.8766 H   0  0  0  0  0  0  0  0  0  0  0  0
  133.0221   74.3710  226.6434 H   0  0  0  0  0  0  0  0  0  0  0  0
  132.1917   72.4102  227.9487 H   0  0  0  0  0  0  0  0  0  0  0  0
  133.0036   70.1210  227.4099 H   0  0  0  0  0  0  0  0  0  0  0  0
  134.6427   69.7646  225.5675 H   0  0  0  0  0  0  0  0  0  0  0  0
  1  2  2  0
  2  3  1  0
  3  4  1  0
  4  5  1  0
  5  6  2  0
  5  7  1  0
  7  8  1  0
  8  9  1  0
  9 10  1  0
 10 11  1  0
 10 12  1  0
 12 13  2  0
 13 14  1  0
 14 15  2  0
 15 16  1  0
 16 17  2  0
  9 18  1  0
 18 19  1  0
 18 20  1  0
  2 21  1  0
 21 22  2  0
 22 23  1  0
 23 24  2  0
 24 25  1  0
 25 26  2  0
 26 27  1  0
 27 28  2  0
 28 29  1  0
 29 30  2  0
 20  7  1  0
 30 21  1  0
 17 12  1  0
 29 24  1  0
  3 31  1  0
  4 32  1  0
  4 33  1  0
  8 34  1  0
  8 35  1  0
  9 36  1  6
 10 37  1  6
 11 38  1  0
 13 39  1  0
 14 40  1  0
 15 41  1  0
 16 42  1  0
 17 43  1  0
 18 44  1  6
 19 45  1  0
 20 46  1  0
 20 47  1  0
 22 48  1  0
 23 49  1  0
 25 50  1  0
 26 51  1  0
 27 52  1  0
 28 53  1  0
M  END
>  <smiles>  (12) 
O=C(NCC(=O)N1C[C@@H]([C@H](O)c2ccccc2)[C@@H](O)C1)c1ccc2ccccc2n1

>  <score_type>  (12) 
oracle

>  <origin>  (12) 
autodockgpu

>  <m_score__min__energy>  (12) 
-8.6999999999999993

>  <m_primary>  (12) 
energy

>  <rmsd>  (12) 
7.082438568424478

>  <m_score__min__rmsd>  (12) 
7.082438568424478

>  <meeko>  (12) 
{"free_energy": -6.06, "intermolecular_energy": -8.45, "internal_energy": -4.81, "cluster_size": 18, "cluster_id": 6, "rank_in_cluster": 8}

>  <energy>  (12) 
-8.2

>  <cluster_rmsd>  (12) 
0.48

>  <cluster>  (12) 
1

$$$$

     RDKit          3D

 53 56  0  0  0  0  0  0  0  0999 V2000
  140.1880   71.0580  221.2630 O   0  0  0  0  0  0  0  0  0  0  0  0
  139.9800   71.6690  222.3580 C   0  0  0  0  0  0  0  0  0  0  0  0
  139.7650   73.0790  222.3980 N   0  0  0  0  0  0  0  0  0  0  0  0
  139.7790   73.8650  221.1800 C   0  0  0  0  0  0  0  0  0  0  0  0
  139.9220   75.2880  221.5590 C   0  0  0  0  0  0  0  0  0  0  0  0
  139.5850   75.6690  222.7120 O   0  0  0  0  0  0  0  0  0  0  0  0
  140.4300   76.2670  220.6770 N   0  0  0  0  0  0  0  0  0  0  0  0
  140.3300   77.7000  220.9420 C   0  0  0  0  0  0  0  0  0  0  0  0
  140.7540   78.2710  219.6280 C   0  0  1  0  0  0  0  0  0  0  0  0
  141.3690   79.6330  219.7780 C   0  0  2  0  0  0  0  0  0  0  0  0
  142.5750   79.6900  219.1000 O   0  0  0  0  0  0  0  0  0  0  0  0
  141.4610   79.9550  221.2190 C   0  0  0  0  0  0  0  0  0  0  0  0
  142.5710   79.5300  221.9610 C   0  0  0  0  0  0  0  0  0  0  0  0
  142.6960   79.7990  223.3050 C   0  0  0  0  0  0  0  0  0  0  0  0
  141.7280   80.5040  223.9890 C   0  0  0  0  0  0  0  0  0  0  0  0
  140.6270   80.9320  223.2810 C   0  0  0  0  0  0  0  0  0  0  0  0
  140.5110   80.6530  221.9230 C   0  0  0  0  0  0  0  0  0  0  0  0
  141.7460   77.2800  219.0550 C   0  0  1  0  0  0  0  0  0  0  0  0
  142.9490   77.4390  219.7410 O   0  0  0  0  0  0  0  0  0  0  0  0
  141.0920   75.9800  219.4380 C   0  0  0  0  0  0  0  0  0  0  0  0
  139.9540   70.9220  223.6340 C   0  0  0  0  0  0  0  0  0  0  0  0
  139.4610   69.6220  223.6240 C   0  0  0  0  0  0  0  0  0  0  0  0
  139.4550   68.9550  224.8430 C   0  0  0  0  0  0  0  0  0  0  0  0
  139.9230   69.5720  226.0070 C   0  0  0  0  0  0  0  0  0  0  0  0
  139.9080   68.8870  227.2120 C   0  0  0  0  0  0  0  0  0  0  0  0
  140.3790   69.5180  228.3600 C   0  0  0  0  0  0  0  0  0  0  0  0
  140.8610   70.8250  228.2910 C   0  0  0  0  0  0  0  0  0  0  0  0
  140.8770   71.5110  227.0910 C   0  0  0  0  0  0  0  0  0  0  0  0
  140.4040   70.8620  225.9630 C   0  0  0  0  0  0  0  0  0  0  0  0
  140.3990   71.4870  224.7720 N   0  0  0  0  0  0  0  0  0  0  0  0
  139.5990   73.5190  223.3500 H   0  0  0  0  0  0  0  0  0  0  0  0
  140.6258   73.5596  220.5478 H   0  0  0  0  0  0  0  0  0  0  0  0
  138.8487   73.7108  220.6136 H   0  0  0  0  0  0  0  0  0  0  0  0
  139.2999   77.9919  221.1944 H   0  0  0  0  0  0  0  0  0  0  0  0
  140.9309   78.0430  221.7972 H   0  0  0  0  0  0  0  0  0  0  0  0
  139.8899   78.4144  218.9627 H   0  0  0  0  0  0  0  0  0  0  0  0
  140.7413   80.4098  219.3170 H   0  0  0  0  0  0  0  0  0  0  0  0
  143.2260   79.0790  219.4900 H   0  0  0  0  0  0  0  0  0  0  0  0
  143.3666   78.9642  221.4540 H   0  0  0  0  0  0  0  0  0  0  0  0
  143.5864   79.4443  223.8447 H   0  0  0  0  0  0  0  0  0  0  0  0
  141.8317   80.7171  225.0632 H   0  0  0  0  0  0  0  0  0  0  0  0
  139.8344   81.4979  223.7924 H   0  0  0  0  0  0  0  0  0  0  0  0
  139.6173   81.0078  221.3888 H   0  0  0  0  0  0  0  0  0  0  0  0
  141.9624   77.3713  217.9804 H   0  0  0  0  0  0  0  0  0  0  0  0
  143.6770   77.8240  219.1880 H   0  0  0  0  0  0  0  0  0  0  0  0
  140.3667   75.6683  218.6720 H   0  0  0  0  0  0  0  0  0  0  0  0
  141.8158   75.1568  219.5295 H   0  0  0  0  0  0  0  0  0  0  0  0
  139.0956   69.1474  222.7014 H   0  0  0  0  0  0  0  0  0  0  0  0
  139.0755   67.9238  224.8930 H   0  0  0  0  0  0  0  0  0  0  0  0
  139.5280   67.8559  227.2606 H   0  0  0  0  0  0  0  0  0  0  0  0
  140.3710   68.9853  229.3224 H   0  0  0  0  0  0  0  0  0  0  0  0
  141.2329   71.3158  229.2025 H   0  0  0  0  0  0  0  0  0  0  0  0
  141.2546   72.5426  227.0339 H   0  0  0  0  0  0  0  0  0  0  0  0
  1  2  2  0
  2  3  1  0
  3  4  1  0
  4  5  1  0
  5  6  2  0
  5  7  1  0
  7  8  1  0
  8  9  1  0
  9 10  1  0
 10 11  1  0
 10 12  1  0
 12 13  2  0
 13 14  1  0
 14 15  2  0
 15 16  1  0
 16 17  2  0
  9 18  1  0
 18 19  1  0
 18 20  1  0
  2 21  1  0
 21 22  2  0
 22 23  1  0
 23 24  2  0
 24 25  1  0
 25 26  2  0
 26 27  1  0
 27 28  2  0
 28 29  1  0
 29 30  2  0
 20  7  1  0
 30 21  1  0
 17 12  1  0
 29 24  1  0
  3 31  1  0
  4 32  1  0
  4 33  1  0
  8 34  1  0
  8 35  1  0
  9 36  1  6
 10 37  1  6
 11 38  1  0
 13 39  1  0
 14 40  1  0
 15 41  1  0
 16 42  1  0
 17 43  1  0
 18 44  1  6
 19 45  1  0
 20 46  1  0
 20 47  1  0
 22 48  1  0
 23 49  1  0
 25 50  1  0
 26 51  1  0
 27 52  1  0
 28 53  1  0
M  END
>  <smiles>  (13) 
O=C(NCC(=O)N1C[C@@H]([C@H](O)c2ccccc2)[C@@H](O)C1)c1ccc2ccccc2n1

>  <score_type>  (13) 
oracle

>  <origin>  (13) 
autodockgpu

>  <m_score__min__energy>  (13) 
-8.6999999999999993

>  <m_primary>  (13) 
energy

>  <rmsd>  (13) 
2.3924198001613908

>  <m_score__min__rmsd>  (13) 
2.3924198001613908

>  <meeko>  (13) 
{"free_energy": -8.48, "intermolecular_energy": -10.86, "internal_energy": -2.71, "cluster_size": 15, "cluster_id": 1, "rank_in_cluster": 6}

>  <energy>  (13) 
-8.18

>  <cluster_rmsd>  (13) 
0.52

>  <cluster>  (13) 
1

$$$$

     RDKit          3D

 53 56  0  0  0  0  0  0  0  0999 V2000
  137.8300   72.5490  222.6600 O   0  0  0  0  0  0  0  0  0  0  0  0
  138.0680   71.3020  222.7330 C   0  0  0  0  0  0  0  0  0  0  0  0
  137.7970   70.4250  221.6410 N   0  0  0  0  0  0  0  0  0  0  0  0
  137.2370   70.9330  220.4050 C   0  0  0  0  0  0  0  0  0  0  0  0
  138.3270   71.5880  219.6470 C   0  0  0  0  0  0  0  0  0  0  0  0
  138.3540   71.5100  218.3890 O   0  0  0  0  0  0  0  0  0  0  0  0
  139.3640   72.3140  220.2720 N   0  0  0  0  0  0  0  0  0  0  0  0
  139.2540   73.7340  220.5930 C   0  0  0  0  0  0  0  0  0  0  0  0
  140.6630   74.0600  220.9720 C   0  0  1  0  0  0  0  0  0  0  0  0
  140.7350   75.2040  221.9410 C   0  0  2  0  0  0  0  0  0  0  0  0
  139.5780   75.2650  222.6970 O   0  0  0  0  0  0  0  0  0  0  0  0
  141.0430   76.4420  221.1900 C   0  0  0  0  0  0  0  0  0  0  0  0
  141.8260   76.3790  220.0300 C   0  0  0  0  0  0  0  0  0  0  0  0
  142.1450   77.5040  219.3040 C   0  0  0  0  0  0  0  0  0  0  0  0
  141.7050   78.7540  219.6870 C   0  0  0  0  0  0  0  0  0  0  0  0
  140.9330   78.8410  220.8250 C   0  0  0  0  0  0  0  0  0  0  0  0
  140.6180   77.6970  221.5500 C   0  0  0  0  0  0  0  0  0  0  0  0
  141.2240   72.7900  221.5790 C   0  0  1  0  0  0  0  0  0  0  0  0
  140.6940   72.6630  222.8610 O   0  0  0  0  0  0  0  0  0  0  0  0
  140.6270   71.7570  220.6610 C   0  0  0  0  0  0  0  0  0  0  0  0
  138.6390   70.7240  223.9680 C   0  0  0  0  0  0  0  0  0  0  0  0
  138.3530   69.3970  224.2660 C   0  0  0  0  0  0  0  0  0  0  0  0
  138.9110   68.8940  225.4360 C   0  0  0  0  0  0  0  0  0  0  0  0
  139.7140   69.6910  226.2560 C   0  0  0  0  0  0  0  0  0  0  0  0
  140.2590   69.1670  227.4170 C   0  0  0  0  0  0  0  0  0  0  0  0
  141.0580   69.9760  228.2210 C   0  0  0  0  0  0  0  0  0  0  0  0
  141.3010   71.3000  227.8540 C   0  0  0  0  0  0  0  0  0  0  0  0
  140.7580   71.8260  226.6970 C   0  0  0  0  0  0  0  0  0  0  0  0
  139.9690   71.0010  225.9140 C   0  0  0  0  0  0  0  0  0  0  0  0
  139.4180   71.4660  224.7790 N   0  0  0  0  0  0  0  0  0  0  0  0
  138.0210   69.3950  221.7760 H   0  0  0  0  0  0  0  0  0  0  0  0
  136.8180   70.1039  219.8159 H   0  0  0  0  0  0  0  0  0  0  0  0
  136.4315   71.6517  220.6161 H   0  0  0  0  0  0  0  0  0  0  0  0
  138.9260   74.3194  219.7214 H   0  0  0  0  0  0  0  0  0  0  0  0
  138.5136   73.9628  221.3737 H   0  0  0  0  0  0  0  0  0  0  0  0
  141.2427   74.3851  220.0955 H   0  0  0  0  0  0  0  0  0  0  0  0
  141.5471   75.0621  222.6692 H   0  0  0  0  0  0  0  0  0  0  0  0
  139.2260   74.3740  222.8720 H   0  0  0  0  0  0  0  0  0  0  0  0
  142.1970   75.4011  219.6892 H   0  0  0  0  0  0  0  0  0  0  0  0
  142.7635   77.4042  218.3998 H   0  0  0  0  0  0  0  0  0  0  0  0
  141.9617   79.6507  219.1039 H   0  0  0  0  0  0  0  0  0  0  0  0
  140.5638   79.8209  221.1618 H   0  0  0  0  0  0  0  0  0  0  0  0
  139.9997   77.8023  222.4537 H   0  0  0  0  0  0  0  0  0  0  0  0
  142.3191   72.7320  221.6650 H   0  0  0  0  0  0  0  0  0  0  0  0
  139.8110   73.0990  222.9750 H   0  0  0  0  0  0  0  0  0  0  0  0
  141.2699   71.5987  219.7826 H   0  0  0  0  0  0  0  0  0  0  0  0
  140.5212   70.7755  221.1462 H   0  0  0  0  0  0  0  0  0  0  0  0
  137.7201   68.7788  223.6123 H   0  0  0  0  0  0  0  0  0  0  0  0
  138.7167   67.8496  225.7213 H   0  0  0  0  0  0  0  0  0  0  0  0
  140.0626   68.1226  227.7008 H   0  0  0  0  0  0  0  0  0  0  0  0
  141.4973   69.5715  229.1448 H   0  0  0  0  0  0  0  0  0  0  0  0
  141.9330   71.9334  228.4938 H   0  0  0  0  0  0  0  0  0  0  0  0
  140.9473   72.8700  226.4068 H   0  0  0  0  0  0  0  0  0  0  0  0
  1  2  2  0
  2  3  1  0
  3  4  1  0
  4  5  1  0
  5  6  2  0
  5  7  1  0
  7  8  1  0
  8  9  1  0
  9 10  1  0
 10 11  1  0
 10 12  1  0
 12 13  2  0
 13 14  1  0
 14 15  2  0
 15 16  1  0
 16 17  2  0
  9 18  1  0
 18 19  1  0
 18 20  1  0
  2 21  1  0
 21 22  2  0
 22 23  1  0
 23 24  2  0
 24 25  1  0
 25 26  2  0
 26 27  1  0
 27 28  2  0
 28 29  1  0
 29 30  2  0
 20  7  1  0
 30 21  1  0
 17 12  1  0
 29 24  1  0
  3 31  1  0
  4 32  1  0
  4 33  1  0
  8 34  1  0
  8 35  1  0
  9 36  1  6
 10 37  1  1
 11 38  1  0
 13 39  1  0
 14 40  1  0
 15 41  1  0
 16 42  1  0
 17 43  1  0
 18 44  1  1
 19 45  1  0
 20 46  1  0
 20 47  1  0
 22 48  1  0
 23 49  1  0
 25 50  1  0
 26 51  1  0
 27 52  1  0
 28 53  1  0
M  END
>  <smiles>  (14) 
O=C(NCC(=O)N1C[C@@H]([C@H](O)c2ccccc2)[C@@H](O)C1)c1ccc2ccccc2n1

>  <score_type>  (14) 
oracle

>  <origin>  (14) 
autodockgpu

>  <m_score__min__energy>  (14) 
-8.6999999999999993

>  <m_primary>  (14) 
energy

>  <rmsd>  (14) 
3.4090091456297325

>  <m_score__min__rmsd>  (14) 
3.4090091456297325

>  <meeko>  (14) 
{"free_energy": -6.76, "intermolecular_energy": -9.14, "internal_energy": -3.98, "cluster_size": 4, "cluster_id": 7, "rank_in_cluster": 1}

>  <energy>  (14) 
-8.13

>  <cluster_rmsd>  (14) 
1.21

>  <cluster>  (14) 
1

$$$$

     RDKit          3D

 53 56  0  0  0  0  0  0  0  0999 V2000
  135.3890   71.0370  222.6190 O   0  0  0  0  0  0  0  0  0  0  0  0
  136.0860   71.6040  223.5190 C   0  0  0  0  0  0  0  0  0  0  0  0
  135.8300   72.9470  223.9250 N   0  0  0  0  0  0  0  0  0  0  0  0
  134.7600   73.7140  223.3170 C   0  0  0  0  0  0  0  0  0  0  0  0
  135.2190   74.1550  221.9810 C   0  0  0  0  0  0  0  0  0  0  0  0
  134.4590   74.8460  221.2520 O   0  0  0  0  0  0  0  0  0  0  0  0
  136.4950   73.8380  221.4670 N   0  0  0  0  0  0  0  0  0  0  0  0
  137.7170   74.5010  221.9160 C   0  0  0  0  0  0  0  0  0  0  0  0
  138.7040   74.0130  220.9050 C   0  0  1  0  0  0  0  0  0  0  0  0
  140.1010   73.9770  221.4530 C   0  0  2  0  0  0  0  0  0  0  0  0
  140.1060   73.4020  222.7120 O   0  0  0  0  0  0  0  0  0  0  0  0
  140.6650   75.3440  221.4030 C   0  0  0  0  0  0  0  0  0  0  0  0
  141.4990   75.7160  220.3400 C   0  0  0  0  0  0  0  0  0  0  0  0
  142.0540   76.9740  220.2540 C   0  0  0  0  0  0  0  0  0  0  0  0
  141.8120   77.9310  221.2170 C   0  0  0  0  0  0  0  0  0  0  0  0
  140.9960   77.5880  222.2720 C   0  0  0  0  0  0  0  0  0  0  0  0
  140.4420   76.3150  222.3480 C   0  0  0  0  0  0  0  0  0  0  0  0
  138.2320   72.6280  220.5130 C   0  0  1  0  0  0  0  0  0  0  0  0
  138.5600   71.7580  221.5510 O   0  0  0  0  0  0  0  0  0  0  0  0
  136.7430   72.8450  220.4620 C   0  0  0  0  0  0  0  0  0  0  0  0
  137.1900   70.8740  224.1760 C   0  0  0  0  0  0  0  0  0  0  0  0
  136.9560   69.5700  224.6000 C   0  0  0  0  0  0  0  0  0  0  0  0
  138.0210   68.9200  225.2120 C   0  0  0  0  0  0  0  0  0  0  0  0
  139.2540   69.5550  225.3850 C   0  0  0  0  0  0  0  0  0  0  0  0
  140.3020   68.8870  225.9980 C   0  0  0  0  0  0  0  0  0  0  0  0
  141.5230   69.5360  226.1600 C   0  0  0  0  0  0  0  0  0  0  0  0
  141.6820   70.8460  225.7070 C   0  0  0  0  0  0  0  0  0  0  0  0
  140.6390   71.5160  225.0960 C   0  0  0  0  0  0  0  0  0  0  0  0
  139.4350   70.8490  224.9450 C   0  0  0  0  0  0  0  0  0  0  0  0
  138.3900   71.4580  224.3560 N   0  0  0  0  0  0  0  0  0  0  0  0
  136.4540   73.3550  224.6820 H   0  0  0  0  0  0  0  0  0  0  0  0
  133.8618   73.0872  223.2155 H   0  0  0  0  0  0  0  0  0  0  0  0
  134.5087   74.5835  223.9422 H   0  0  0  0  0  0  0  0  0  0  0  0
  137.6160   75.5959  221.8842 H   0  0  0  0  0  0  0  0  0  0  0  0
  137.9926   74.2797  222.9577 H   0  0  0  0  0  0  0  0  0  0  0  0
  138.7496   74.6899  220.0391 H   0  0  0  0  0  0  0  0  0  0  0  0
  140.7552   73.3389  220.8409 H   0  0  0  0  0  0  0  0  0  0  0  0
  139.2010   73.1900  223.0050 H   0  0  0  0  0  0  0  0  0  0  0  0
  141.7170   74.9816  219.5506 H   0  0  0  0  0  0  0  0  0  0  0  0
  142.7029   77.2199  219.4005 H   0  0  0  0  0  0  0  0  0  0  0  0
  142.2559   78.9348  221.1448 H   0  0  0  0  0  0  0  0  0  0  0  0
  140.7812   78.3256  223.0593 H   0  0  0  0  0  0  0  0  0  0  0  0
  139.7952   76.0746  223.2047 H   0  0  0  0  0  0  0  0  0  0  0  0
  138.6545   72.2130  219.5860 H   0  0  0  0  0  0  0  0  0  0  0  0
  138.3780   72.1270  222.4540 H   0  0  0  0  0  0  0  0  0  0  0  0
  136.4360   73.2090  219.4704 H   0  0  0  0  0  0  0  0  0  0  0  0
  136.1769   71.9184  220.6380 H   0  0  0  0  0  0  0  0  0  0  0  0
  135.9813   69.0801  224.4586 H   0  0  0  0  0  0  0  0  0  0  0  0
  137.8912   67.8869  225.5667 H   0  0  0  0  0  0  0  0  0  0  0  0
  140.1705   67.8542  226.3531 H   0  0  0  0  0  0  0  0  0  0  0  0
  142.3622   69.0160  226.6451 H   0  0  0  0  0  0  0  0  0  0  0  0
  142.6499   71.3520  225.8378 H   0  0  0  0  0  0  0  0  0  0  0  0
  140.7618   72.5495  224.7398 H   0  0  0  0  0  0  0  0  0  0  0  0
  1  2  2  0
  2  3  1  0
  3  4  1  0
  4  5  1  0
  5  6  2  0
  5  7  1  0
  7  8  1  0
  8  9  1  0
  9 10  1  0
 10 11  1  0
 10 12  1  0
 12 13  2  0
 13 14  1  0
 14 15  2  0
 15 16  1  0
 16 17  2  0
  9 18  1  0
 18 19  1  0
 18 20  1  0
  2 21  1  0
 21 22  2  0
 22 23  1  0
 23 24  2  0
 24 25  1  0
 25 26  2  0
 26 27  1  0
 27 28  2  0
 28 29  1  0
 29 30  2  0
 20  7  1  0
 30 21  1  0
 17 12  1  0
 29 24  1  0
  3 31  1  0
  4 32  1  0
  4 33  1  0
  8 34  1  0
  8 35  1  0
  9 36  1  6
 10 37  1  6
 11 38  1  0
 13 39  1  0
 14 40  1  0
 15 41  1  0
 16 42  1  0
 17 43  1  0
 18 44  1  6
 19 45  1  0
 20 46  1  0
 20 47  1  0
 22 48  1  0
 23 49  1  0
 25 50  1  0
 26 51  1  0
 27 52  1  0
 28 53  1  0
M  END
>  <smiles>  (15) 
O=C(NCC(=O)N1C[C@@H]([C@H](O)c2ccccc2)[C@@H](O)C1)c1ccc2ccccc2n1

>  <score_type>  (15) 
oracle

>  <origin>  (15) 
autodockgpu

>  <m_score__min__energy>  (15) 
-8.6999999999999993

>  <m_primary>  (15) 
energy

>  <rmsd>  (15) 
4.025181608274653

>  <m_score__min__rmsd>  (15) 
4.025181608274653

>  <meeko>  (15) 
{"free_energy": -5.97, "intermolecular_energy": -8.36, "internal_energy": -4.3, "cluster_size": 1, "cluster_id": 8, "rank_in_cluster": 1}

>  <energy>  (15) 
-7.55

>  <cluster_rmsd>  (15) 
1.12

>  <cluster>  (15) 
1

$$$$

     RDKit          3D

 53 56  0  0  0  0  0  0  0  0999 V2000
  140.8180   71.4100  221.3530 O   0  0  0  0  0  0  0  0  0  0  0  0
  140.3270   71.9650  222.3860 C   0  0  0  0  0  0  0  0  0  0  0  0
  139.9090   73.3290  222.3740 N   0  0  0  0  0  0  0  0  0  0  0  0
  140.0330   74.1300  221.1720 C   0  0  0  0  0  0  0  0  0  0  0  0
  139.9130   75.5540  221.5600 C   0  0  0  0  0  0  0  0  0  0  0  0
  139.4820   75.8600  222.7040 O   0  0  0  0  0  0  0  0  0  0  0  0
  140.2670   76.6140  220.6980 N   0  0  0  0  0  0  0  0  0  0  0  0
  140.2320   78.0150  221.1090 C   0  0  0  0  0  0  0  0  0  0  0  0
  140.4210   78.7100  219.7990 C   0  0  1  0  0  0  0  0  0  0  0  0
  141.0690   80.0550  219.9640 C   0  0  2  0  0  0  0  0  0  0  0  0
  142.1760   80.1570  219.1400 O   0  0  0  0  0  0  0  0  0  0  0  0
  141.3520   80.2720  221.4010 C   0  0  0  0  0  0  0  0  0  0  0  0
  142.5710   79.8440  221.9440 C   0  0  0  0  0  0  0  0  0  0  0  0
  142.8760   80.0160  223.2760 C   0  0  0  0  0  0  0  0  0  0  0  0
  141.9900   80.6220  224.1410 C   0  0  0  0  0  0  0  0  0  0  0  0
  140.7850   81.0500  223.6300 C   0  0  0  0  0  0  0  0  0  0  0  0
  140.4880   80.8700  222.2840 C   0  0  0  0  0  0  0  0  0  0  0  0
  141.2850   77.7830  218.9690 C   0  0  1  0  0  0  0  0  0  0  0  0
  142.5920   77.8840  219.4410 O   0  0  0  0  0  0  0  0  0  0  0  0
  140.6950   76.4490  219.3390 C   0  0  0  0  0  0  0  0  0  0  0  0
  140.1750   71.1990  223.6410 C   0  0  0  0  0  0  0  0  0  0  0  0
  139.5530   69.9570  223.5820 C   0  0  0  0  0  0  0  0  0  0  0  0
  139.4310   69.2710  224.7840 C   0  0  0  0  0  0  0  0  0  0  0  0
  139.9120   69.8120  225.9800 C   0  0  0  0  0  0  0  0  0  0  0  0
  139.7790   69.1090  227.1660 C   0  0  0  0  0  0  0  0  0  0  0  0
  140.2660   69.6650  228.3460 C   0  0  0  0  0  0  0  0  0  0  0  0
  140.8790   70.9180  228.3260 C   0  0  0  0  0  0  0  0  0  0  0  0
  141.0140   71.6220  227.1440 C   0  0  0  0  0  0  0  0  0  0  0  0
  140.5220   71.0480  225.9840 C   0  0  0  0  0  0  0  0  0  0  0  0
  140.6290   71.6940  224.8090 N   0  0  0  0  0  0  0  0  0  0  0  0
  139.5090   73.7240  223.2750 H   0  0  0  0  0  0  0  0  0  0  0  0
  141.0120   73.9515  220.7032 H   0  0  0  0  0  0  0  0  0  0  0  0
  139.2476   73.8619  220.4500 H   0  0  0  0  0  0  0  0  0  0  0  0
  139.2668   78.2760  221.5676 H   0  0  0  0  0  0  0  0  0  0  0  0
  140.9799   78.2795  221.8710 H   0  0  0  0  0  0  0  0  0  0  0  0
  139.4539   78.9104  219.3148 H   0  0  0  0  0  0  0  0  0  0  0  0
  140.3970   80.8656  219.6456 H   0  0  0  0  0  0  0  0  0  0  0  0
  142.0420   79.6640  218.3110 H   0  0  0  0  0  0  0  0  0  0  0  0
  143.3060   79.3562  221.2869 H   0  0  0  0  0  0  0  0  0  0  0  0
  143.8456   79.6629  223.6571 H   0  0  0  0  0  0  0  0  0  0  0  0
  142.2374   80.7591  225.2040 H   0  0  0  0  0  0  0  0  0  0  0  0
  140.0531   81.5373  224.2909 H   0  0  0  0  0  0  0  0  0  0  0  0
  139.5159   81.2230  221.9094 H   0  0  0  0  0  0  0  0  0  0  0  0
  141.3083   77.9761  217.8863 H   0  0  0  0  0  0  0  0  0  0  0  0
  143.0220   78.7560  219.2440 H   0  0  0  0  0  0  0  0  0  0  0  0
  139.8416   76.2067  218.6886 H   0  0  0  0  0  0  0  0  0  0  0  0
  141.4144   75.6251  219.2226 H   0  0  0  0  0  0  0  0  0  0  0  0
  139.1780   69.5403  222.6355 H   0  0  0  0  0  0  0  0  0  0  0  0
  138.9467   68.2834  224.7948 H   0  0  0  0  0  0  0  0  0  0  0  0
  139.2938   68.1219  227.1756 H   0  0  0  0  0  0  0  0  0  0  0  0
  140.1674   69.1161  229.2942 H   0  0  0  0  0  0  0  0  0  0  0  0
  141.2597   71.3513  229.2627 H   0  0  0  0  0  0  0  0  0  0  0  0
  141.4982   72.6095  227.1255 H   0  0  0  0  0  0  0  0  0  0  0  0
  1  2  2  0
  2  3  1  0
  3  4  1  0
  4  5  1  0
  5  6  2  0
  5  7  1  0
  7  8  1  0
  8  9  1  0
  9 10  1  0
 10 11  1  0
 10 12  1  0
 12 13  2  0
 13 14  1  0
 14 15  2  0
 15 16  1  0
 16 17  2  0
  9 18  1  0
 18 19  1  0
 18 20  1  0
  2 21  1  0
 21 22  2  0
 22 23  1  0
 23 24  2  0
 24 25  1  0
 25 26  2  0
 26 27  1  0
 27 28  2  0
 28 29  1  0
 29 30  2  0
 20  7  1  0
 30 21  1  0
 17 12  1  0
 29 24  1  0
  3 31  1  0
  4 32  1  0
  4 33  1  0
  8 34  1  0
  8 35  1  0
  9 36  1  6
 10 37  1  6
 11 38  1  0
 13 39  1  0
 14 40  1  0
 15 41  1  0
 16 42  1  0
 17 43  1  0
 18 44  1  6
 19 45  1  0
 20 46  1  0
 20 47  1  0
 22 48  1  0
 23 49  1  0
 25 50  1  0
 26 51  1  0
 27 52  1  0
 28 53  1  0
M  END
>  <smiles>  (16) 
O=C(NCC(=O)N1C[C@@H]([C@H](O)c2ccccc2)[C@@H](O)C1)c1ccc2ccccc2n1

>  <score_type>  (16) 
oracle

>  <origin>  (16) 
autodockgpu

>  <m_score__min__energy>  (16) 
-8.6999999999999993

>  <m_primary>  (16) 
energy

>  <rmsd>  (16) 
2.569838210520198

>  <m_score__min__rmsd>  (16) 
2.569838210520198

>  <meeko>  (16) 
{"free_energy": -8.18, "intermolecular_energy": -10.57, "internal_energy": -2.57, "cluster_size": 15, "cluster_id": 1, "rank_in_cluster": 13}

>  <energy>  (16) 
-7.96

>  <cluster_rmsd>  (16) 
0.0

>  <cluster>  (16) 
2

$$$$

     RDKit          3D

 53 56  0  0  0  0  0  0  0  0999 V2000
  136.9120   71.7850  221.2490 O   0  0  0  0  0  0  0  0  0  0  0  0
  137.1130   72.6230  222.1840 C   0  0  0  0  0  0  0  0  0  0  0  0
  138.2640   73.4670  222.1950 N   0  0  0  0  0  0  0  0  0  0  0  0
  139.2470   73.3930  221.1330 C   0  0  0  0  0  0  0  0  0  0  0  0
  140.1480   72.2560  221.4250 C   0  0  0  0  0  0  0  0  0  0  0  0
  141.3610   72.3110  221.0890 O   0  0  0  0  0  0  0  0  0  0  0  0
  139.7110   71.0820  222.0790 N   0  0  0  0  0  0  0  0  0  0  0  0
  139.5870   70.9840  223.5310 C   0  0  0  0  0  0  0  0  0  0  0  0
  139.3650   69.5160  223.7070 C   0  0  1  0  0  0  0  0  0  0  0  0
  138.5760   69.2120  224.9480 C   0  0  2  0  0  0  0  0  0  0  0  0
  137.4660   70.0350  225.0220 O   0  0  0  0  0  0  0  0  0  0  0  0
  139.4800   69.2940  226.1170 C   0  0  0  0  0  0  0  0  0  0  0  0
  139.8970   68.1220  226.7600 C   0  0  0  0  0  0  0  0  0  0  0  0
  140.7300   68.1490  227.8570 C   0  0  0  0  0  0  0  0  0  0  0  0
  141.1950   69.3390  228.3740 C   0  0  0  0  0  0  0  0  0  0  0  0
  140.7980   70.5060  227.7580 C   0  0  0  0  0  0  0  0  0  0  0  0
  139.9560   70.4650  226.6520 C   0  0  0  0  0  0  0  0  0  0  0  0
  138.6290   69.0640  222.4630 C   0  0  1  0  0  0  0  0  0  0  0  0
  137.3050   69.4840  222.5780 O   0  0  0  0  0  0  0  0  0  0  0  0
  139.3440   69.8680  221.4100 C   0  0  0  0  0  0  0  0  0  0  0  0
  136.1460   72.7460  223.2950 C   0  0  0  0  0  0  0  0  0  0  0  0
  135.6760   74.0130  223.6200 C   0  0  0  0  0  0  0  0  0  0  0  0
  134.7680   74.0830  224.6700 C   0  0  0  0  0  0  0  0  0  0  0  0
  134.3590   72.9330  225.3520 C   0  0  0  0  0  0  0  0  0  0  0  0
  133.4530   73.0280  226.3960 C   0  0  0  0  0  0  0  0  0  0  0  0
  133.0570   71.8710  227.0620 C   0  0  0  0  0  0  0  0  0  0  0  0
  133.5730   70.6330  226.6760 C   0  0  0  0  0  0  0  0  0  0  0  0
  134.4770   70.5350  225.6360 C   0  0  0  0  0  0  0  0  0  0  0  0
  134.8550   71.7000  224.9890 C   0  0  0  0  0  0  0  0  0  0  0  0
  135.7320   71.6570  223.9700 N   0  0  0  0  0  0  0  0  0  0  0  0
  138.3650   74.1420  223.0090 H   0  0  0  0  0  0  0  0  0  0  0  0
  138.7434   73.2325  220.1683 H   0  0  0  0  0  0  0  0  0  0  0  0
  139.8197   74.3304  221.0752 H   0  0  0  0  0  0  0  0  0  0  0  0
  140.5056   71.3160  224.0370 H   0  0  0  0  0  0  0  0  0  0  0  0
  138.7937   71.6143  223.9592 H   0  0  0  0  0  0  0  0  0  0  0  0
  140.3196   68.9839  223.8317 H   0  0  0  0  0  0  0  0  0  0  0  0
  138.1748   68.1880  224.9277 H   0  0  0  0  0  0  0  0  0  0  0  0
  136.8370   69.8420  224.3040 H   0  0  0  0  0  0  0  0  0  0  0  0
  139.5491   67.1509  226.3778 H   0  0  0  0  0  0  0  0  0  0  0  0
  141.0299   67.2021  228.3296 H   0  0  0  0  0  0  0  0  0  0  0  0
  141.8610   69.3566  229.2493 H   0  0  0  0  0  0  0  0  0  0  0  0
  141.1489   71.4748  228.1430 H   0  0  0  0  0  0  0  0  0  0  0  0
  139.6577   71.4149  226.1843 H   0  0  0  0  0  0  0  0  0  0  0  0
  138.6185   67.9815  222.2678 H   0  0  0  0  0  0  0  0  0  0  0  0
  137.2070   70.4160  222.9010 H   0  0  0  0  0  0  0  0  0  0  0  0
  140.2372   69.3348  221.0525 H   0  0  0  0  0  0  0  0  0  0  0  0
  138.7187   70.0494  220.5234 H   0  0  0  0  0  0  0  0  0  0  0  0
  136.0045   74.9109  223.0761 H   0  0  0  0  0  0  0  0  0  0  0  0
  134.3638   75.0611  224.9699 H   0  0  0  0  0  0  0  0  0  0  0  0
  133.0508   74.0070  226.6955 H   0  0  0  0  0  0  0  0  0  0  0  0
  132.3378   71.9327  227.8920 H   0  0  0  0  0  0  0  0  0  0  0  0
  133.2557   69.7233  227.2069 H   0  0  0  0  0  0  0  0  0  0  0  0
  134.8848   69.5601  225.3306 H   0  0  0  0  0  0  0  0  0  0  0  0
  1  2  2  0
  2  3  1  0
  3  4  1  0
  4  5  1  0
  5  6  2  0
  5  7  1  0
  7  8  1  0
  8  9  1  0
  9 10  1  0
 10 11  1  0
 10 12  1  0
 12 13  2  0
 13 14  1  0
 14 15  2  0
 15 16  1  0
 16 17  2  0
  9 18  1  0
 18 19  1  0
 18 20  1  0
  2 21  1  0
 21 22  2  0
 22 23  1  0
 23 24  2  0
 24 25  1  0
 25 26  2  0
 26 27  1  0
 27 28  2  0
 28 29  1  0
 29 30  2  0
 20  7  1  0
 30 21  1  0
 17 12  1  0
 29 24  1  0
  3 31  1  0
  4 32  1  0
  4 33  1  0
  8 34  1  0
  8 35  1  0
  9 36  1  1
 10 37  1  6
 11 38  1  0
 13 39  1  0
 14 40  1  0
 15 41  1  0
 16 42  1  0
 17 43  1  0
 18 44  1  6
 19 45  1  0
 20 46  1  0
 20 47  1  0
 22 48  1  0
 23 49  1  0
 25 50  1  0
 26 51  1  0
 27 52  1  0
 28 53  1  0
M  END
>  <smiles>  (17) 
O=C(NCC(=O)N1C[C@@H]([C@H](O)c2ccccc2)[C@@H](O)C1)c1ccc2ccccc2n1

>  <score_type>  (17) 
oracle

>  <origin>  (17) 
autodockgpu

>  <m_score__min__energy>  (17) 
-8.6999999999999993

>  <m_primary>  (17) 
energy

>  <rmsd>  (17) 
6.892280699664121

>  <m_score__min__rmsd>  (17) 
6.892280699664121

>  <meeko>  (17) 
{"free_energy": -6.07, "intermolecular_energy": -8.45, "internal_energy": -4.9, "cluster_size": 18, "cluster_id": 6, "rank_in_cluster": 6}

>  <energy>  (17) 
-7.95

>  <cluster_rmsd>  (17) 
0.0

>  <cluster>  (17) 
3

$$$$

     RDKit          3D

 53 56  0  0  0  0  0  0  0  0999 V2000
  137.8600   72.6020  222.4090 O   0  0  0  0  0  0  0  0  0  0  0  0
  138.1200   71.3600  222.4800 C   0  0  0  0  0  0  0  0  0  0  0  0
  137.9300   70.4920  221.3630 N   0  0  0  0  0  0  0  0  0  0  0  0
  137.4290   71.0060  220.1030 C   0  0  0  0  0  0  0  0  0  0  0  0
  138.5420   71.7050  219.4220 C   0  0  0  0  0  0  0  0  0  0  0  0
  138.6400   71.6580  218.1670 O   0  0  0  0  0  0  0  0  0  0  0  0
  139.5240   72.4410  220.1210 N   0  0  0  0  0  0  0  0  0  0  0  0
  139.3470   73.8410  220.4960 C   0  0  0  0  0  0  0  0  0  0  0  0
  140.7250   74.2010  220.9470 C   0  0  1  0  0  0  0  0  0  0  0  0
  140.7150   75.3040  221.9650 C   0  0  2  0  0  0  0  0  0  0  0  0
  139.5330   75.2790  222.6850 O   0  0  0  0  0  0  0  0  0  0  0  0
  140.9860   76.5870  221.2770 C   0  0  0  0  0  0  0  0  0  0  0  0
  140.8610   77.7940  221.9770 C   0  0  0  0  0  0  0  0  0  0  0  0
  141.0940   79.0120  221.3780 C   0  0  0  0  0  0  0  0  0  0  0  0
  141.4650   79.0990  220.0530 C   0  0  0  0  0  0  0  0  0  0  0  0
  141.5940   77.9250  219.3440 C   0  0  0  0  0  0  0  0  0  0  0  0
  141.3540   76.7010  219.9600 C   0  0  0  0  0  0  0  0  0  0  0  0
  141.3100   72.9280  221.5230 C   0  0  1  0  0  0  0  0  0  0  0  0
  140.7340   72.7260  222.7760 O   0  0  0  0  0  0  0  0  0  0  0  0
  140.7910   71.9140  220.5390 C   0  0  0  0  0  0  0  0  0  0  0  0
  138.6340   70.7770  223.7370 C   0  0  0  0  0  0  0  0  0  0  0  0
  138.3000   69.4610  224.0360 C   0  0  0  0  0  0  0  0  0  0  0  0
  138.8040   68.9520  225.2270 C   0  0  0  0  0  0  0  0  0  0  0  0
  139.6030   69.7330  226.0680 C   0  0  0  0  0  0  0  0  0  0  0  0
  140.0940   69.2050  227.2500 C   0  0  0  0  0  0  0  0  0  0  0  0
  140.8880   69.9980  228.0740 C   0  0  0  0  0  0  0  0  0  0  0  0
  141.1810   71.3120  227.7050 C   0  0  0  0  0  0  0  0  0  0  0  0
  140.6920   71.8430  226.5270 C   0  0  0  0  0  0  0  0  0  0  0  0
  139.9060   71.0330  225.7240 C   0  0  0  0  0  0  0  0  0  0  0  0
  139.4060   71.5040  224.5670 N   0  0  0  0  0  0  0  0  0  0  0  0
  138.1680   69.4660  221.4970 H   0  0  0  0  0  0  0  0  0  0  0  0
  137.0702   70.1758  219.4769 H   0  0  0  0  0  0  0  0  0  0  0  0
  136.5916   71.6976  220.2771 H   0  0  0  0  0  0  0  0  0  0  0  0
  139.0325   74.4512  219.6365 H   0  0  0  0  0  0  0  0  0  0  0  0
  138.5673   74.0088  221.2536 H   0  0  0  0  0  0  0  0  0  0  0  0
  141.3260   74.5846  220.1094 H   0  0  0  0  0  0  0  0  0  0  0  0
  141.5113   75.1679  222.7115 H   0  0  0  0  0  0  0  0  0  0  0  0
  139.2150   74.3670  222.8060 H   0  0  0  0  0  0  0  0  0  0  0  0
  140.5679   77.7681  223.0369 H   0  0  0  0  0  0  0  0  0  0  0  0
  140.9819   79.9334  221.9682 H   0  0  0  0  0  0  0  0  0  0  0  0
  141.6518   80.0734  219.5779 H   0  0  0  0  0  0  0  0  0  0  0  0
  141.8885   77.9556  218.2846 H   0  0  0  0  0  0  0  0  0  0  0  0
  141.4643   75.7829  219.3643 H   0  0  0  0  0  0  0  0  0  0  0  0
  142.4022   72.9072  221.6518 H   0  0  0  0  0  0  0  0  0  0  0  0
  139.8210   73.1030  222.8620 H   0  0  0  0  0  0  0  0  0  0  0  0
  141.4743   71.8172  219.6825 H   0  0  0  0  0  0  0  0  0  0  0  0
  140.7037   70.9092  220.9780 H   0  0  0  0  0  0  0  0  0  0  0  0
  137.6712   68.8557  223.3665 H   0  0  0  0  0  0  0  0  0  0  0  0
  138.5702   67.9160  225.5133 H   0  0  0  0  0  0  0  0  0  0  0  0
  139.8590   68.1690  227.5353 H   0  0  0  0  0  0  0  0  0  0  0  0
  141.2842   69.5894  229.0153 H   0  0  0  0  0  0  0  0  0  0  0  0
  141.8094   71.9327  228.3606 H   0  0  0  0  0  0  0  0  0  0  0  0
  140.9202   72.8788  226.2353 H   0  0  0  0  0  0  0  0  0  0  0  0
  1  2  2  0
  2  3  1  0
  3  4  1  0
  4  5  1  0
  5  6  2  0
  5  7  1  0
  7  8  1  0
  8  9  1  0
  9 10  1  0
 10 11  1  0
 10 12  1  0
 12 13  2  0
 13 14  1  0
 14 15  2  0
 15 16  1  0
 16 17  2  0
  9 18  1  0
 18 19  1  0
 18 20  1  0
  2 21  1  0
 21 22  2  0
 22 23  1  0
 23 24  2  0
 24 25  1  0
 25 26  2  0
 26 27  1  0
 27 28  2  0
 28 29  1  0
 29 30  2  0
 20  7  1  0
 30 21  1  0
 17 12  1  0
 29 24  1  0
  3 31  1  0
  4 32  1  0
  4 33  1  0
  8 34  1  0
  8 35  1  0
  9 36  1  6
 10 37  1  1
 11 38  1  0
 13 39  1  0
 14 40  1  0
 15 41  1  0
 16 42  1  0
 17 43  1  0
 18 44  1  1
 19 45  1  0
 20 46  1  0
 20 47  1  0
 22 48  1  0
 23 49  1  0
 25 50  1  0
 26 51  1  0
 27 52  1  0
 28 53  1  0
M  END
>  <smiles>  (18) 
O=C(NCC(=O)N1C[C@@H]([C@H](O)c2ccccc2)[C@@H](O)C1)c1ccc2ccccc2n1

>  <score_type>  (18) 
oracle

>  <origin>  (18) 
autodockgpu

>  <m_score__min__energy>  (18) 
-8.6999999999999993

>  <m_primary>  (18) 
energy

>  <rmsd>  (18) 
3.340828009969503

>  <m_score__min__rmsd>  (18) 
3.340828009969503

>  <meeko>  (18) 
{"free_energy": -6.68, "intermolecular_energy": -9.07, "internal_energy": -4.07, "cluster_size": 4, "cluster_id": 7, "rank_in_cluster": 2}

>  <energy>  (18) 
-7.91

>  <cluster_rmsd>  (18) 
0.0

>  <cluster>  (18) 
4

$$$$

     RDKit          3D

 53 56  0  0  0  0  0  0  0  0999 V2000
  136.8460   71.5740  221.3440 O   0  0  0  0  0  0  0  0  0  0  0  0
  137.1020   72.4120  222.2650 C   0  0  0  0  0  0  0  0  0  0  0  0
  138.3080   73.1730  222.2680 N   0  0  0  0  0  0  0  0  0  0  0  0
  139.2880   73.0120  221.2120 C   0  0  0  0  0  0  0  0  0  0  0  0
  140.1030   71.8170  221.5260 C   0  0  0  0  0  0  0  0  0  0  0  0
  141.3250   71.7910  221.2190 O   0  0  0  0  0  0  0  0  0  0  0  0
  139.5730   70.6770  222.1690 N   0  0  0  0  0  0  0  0  0  0  0  0
  139.4820   70.5580  223.6220 C   0  0  0  0  0  0  0  0  0  0  0  0
  139.1230   69.1160  223.7760 C   0  0  1  0  0  0  0  0  0  0  0  0
  138.3440   68.8600  225.0340 C   0  0  2  0  0  0  0  0  0  0  0  0
  137.3550   69.8170  225.1860 O   0  0  0  0  0  0  0  0  0  0  0  0
  139.2910   68.7720  226.1680 C   0  0  0  0  0  0  0  0  0  0  0  0
  139.2460   69.7290  227.1910 C   0  0  0  0  0  0  0  0  0  0  0  0
  140.1120   69.6930  228.2610 C   0  0  0  0  0  0  0  0  0  0  0  0
  141.0680   68.7060  228.3760 C   0  0  0  0  0  0  0  0  0  0  0  0
  141.1320   67.7550  227.3830 C   0  0  0  0  0  0  0  0  0  0  0  0
  140.2530   67.8020  226.3060 C   0  0  0  0  0  0  0  0  0  0  0  0
  138.3110   68.7660  222.5460 C   0  0  1  0  0  0  0  0  0  0  0  0
  137.0380   69.3080  222.7110 O   0  0  0  0  0  0  0  0  0  0  0  0
  139.0700   69.5200  221.4880 C   0  0  0  0  0  0  0  0  0  0  0  0
  136.1410   72.6210  223.3690 C   0  0  0  0  0  0  0  0  0  0  0  0
  135.7260   73.9200  223.6410 C   0  0  0  0  0  0  0  0  0  0  0  0
  134.8220   74.0720  224.6860 C   0  0  0  0  0  0  0  0  0  0  0  0
  134.3650   72.9690  225.4140 C   0  0  0  0  0  0  0  0  0  0  0  0
  133.4630   73.1450  226.4510 C   0  0  0  0  0  0  0  0  0  0  0  0
  133.0190   72.0350  227.1640 C   0  0  0  0  0  0  0  0  0  0  0  0
  133.4810   70.7610  226.8300 C   0  0  0  0  0  0  0  0  0  0  0  0
  134.3800   70.5820  225.7960 C   0  0  0  0  0  0  0  0  0  0  0  0
  134.8060   71.7020  225.1020 C   0  0  0  0  0  0  0  0  0  0  0  0
  135.6810   71.5790  224.0870 N   0  0  0  0  0  0  0  0  0  0  0  0
  138.4530   73.8530  223.0710 H   0  0  0  0  0  0  0  0  0  0  0  0
  138.7783   72.8738  220.2470 H   0  0  0  0  0  0  0  0  0  0  0  0
  139.9273   73.9045  221.1432 H   0  0  0  0  0  0  0  0  0  0  0  0
  140.4429   70.7876  224.1057 H   0  0  0  0  0  0  0  0  0  0  0  0
  138.7666   71.2523  224.0868 H   0  0  0  0  0  0  0  0  0  0  0  0
  140.0248   68.4919  223.8616 H   0  0  0  0  0  0  0  0  0  0  0  0
  137.8115   67.8986  224.9882 H   0  0  0  0  0  0  0  0  0  0  0  0
  136.6560   69.7080  224.5170 H   0  0  0  0  0  0  0  0  0  0  0  0
  138.4968   70.5326  227.1375 H   0  0  0  0  0  0  0  0  0  0  0  0
  140.0397   70.4669  229.0394 H   0  0  0  0  0  0  0  0  0  0  0  0
  141.7569   68.6795  229.2332 H   0  0  0  0  0  0  0  0  0  0  0  0
  141.8827   66.9531  227.4415 H   0  0  0  0  0  0  0  0  0  0  0  0
  140.3321   67.0269  225.5295 H   0  0  0  0  0  0  0  0  0  0  0  0
  138.1898   67.6945  222.3288 H   0  0  0  0  0  0  0  0  0  0  0  0
  137.0410   70.2380  223.0590 H   0  0  0  0  0  0  0  0  0  0  0  0
  139.8962   68.9109  221.0925 H   0  0  0  0  0  0  0  0  0  0  0  0
  138.4401   69.7813  220.6249 H   0  0  0  0  0  0  0  0  0  0  0  0
  136.0928   74.7798  223.0612 H   0  0  0  0  0  0  0  0  0  0  0  0
  134.4597   75.0778  224.9449 H   0  0  0  0  0  0  0  0  0  0  0  0
  133.1015   74.1516  226.7082 H   0  0  0  0  0  0  0  0  0  0  0  0
  132.3042   72.1619  227.9904 H   0  0  0  0  0  0  0  0  0  0  0  0
  133.1249   69.8883  227.3971 H   0  0  0  0  0  0  0  0  0  0  0  0
  134.7466   69.5791  225.5319 H   0  0  0  0  0  0  0  0  0  0  0  0
  1  2  2  0
  2  3  1  0
  3  4  1  0
  4  5  1  0
  5  6  2  0
  5  7  1  0
  7  8  1  0
  8  9  1  0
  9 10  1  0
 10 11  1  0
 10 12  1  0
 12 13  2  0
 13 14  1  0
 14 15  2  0
 15 16  1  0
 16 17  2  0
  9 18  1  0
 18 19  1  0
 18 20  1  0
  2 21  1  0
 21 22  2  0
 22 23  1  0
 23 24  2  0
 24 25  1  0
 25 26  2  0
 26 27  1  0
 27 28  2  0
 28 29  1  0
 29 30  2  0
 20  7  1  0
 30 21  1  0
 17 12  1  0
 29 24  1  0
  3 31  1  0
  4 32  1  0
  4 33  1  0
  8 34  1  0
  8 35  1  0
  9 36  1  1
 10 37  1  6
 11 38  1  0
 13 39  1  0
 14 40  1  0
 15 41  1  0
 16 42  1  0
 17 43  1  0
 18 44  1  6
 19 45  1  0
 20 46  1  0
 20 47  1  0
 22 48  1  0
 23 49  1  0
 25 50  1  0
 26 51  1  0
 27 52  1  0
 28 53  1  0
M  END
>  <smiles>  (19) 
O=C(NCC(=O)N1C[C@@H]([C@H](O)c2ccccc2)[C@@H](O)C1)c1ccc2ccccc2n1

>  <score_type>  (19) 
oracle

>  <origin>  (19) 
autodockgpu

>  <m_score__min__energy>  (19) 
-8.6999999999999993

>  <m_primary>  (19) 
energy

>  <rmsd>  (19) 
7.061312726365314

>  <m_score__min__rmsd>  (19) 
7.061312726365314

>  <meeko>  (19) 
{"free_energy": -6.03, "intermolecular_energy": -8.41, "internal_energy": -4.98, "cluster_size": 18, "cluster_id": 6, "rank_in_cluster": 14}

>  <energy>  (19) 
-7.88

>  <cluster_rmsd>  (19) 
0.38

>  <cluster>  (19) 
4

$$$$

     RDKit          3D

 53 56  0  0  0  0  0  0  0  0999 V2000
  140.1660   74.6310  222.3270 O   0  0  0  0  0  0  0  0  0  0  0  0
  139.4470   75.5960  221.9180 C   0  0  0  0  0  0  0  0  0  0  0  0
  138.3790   75.3930  220.9940 N   0  0  0  0  0  0  0  0  0  0  0  0
  138.0780   74.0680  220.4900 C   0  0  0  0  0  0  0  0  0  0  0  0
  139.0430   73.7630  219.4100 C   0  0  0  0  0  0  0  0  0  0  0  0
  138.7020   73.0160  218.4540 O   0  0  0  0  0  0  0  0  0  0  0  0
  140.3580   74.2770  219.3920 N   0  0  0  0  0  0  0  0  0  0  0  0
  140.6590   75.6710  219.0740 C   0  0  0  0  0  0  0  0  0  0  0  0
  142.1460   75.6240  218.9300 C   0  0  1  0  0  0  0  0  0  0  0  0
  142.7850   76.9440  219.2530 C   0  0  2  0  0  0  0  0  0  0  0  0
  142.3180   77.4160  220.4670 O   0  0  0  0  0  0  0  0  0  0  0  0
  142.5710   77.8650  218.1140 C   0  0  0  0  0  0  0  0  0  0  0  0
  142.5860   77.3700  216.8040 C   0  0  0  0  0  0  0  0  0  0  0  0
  142.4020   78.1890  215.7130 C   0  0  0  0  0  0  0  0  0  0  0  0
  142.1910   79.5440  215.8610 C   0  0  0  0  0  0  0  0  0  0  0  0
  142.1720   80.0540  217.1410 C   0  0  0  0  0  0  0  0  0  0  0  0
  142.3610   79.2160  218.2350 C   0  0  0  0  0  0  0  0  0  0  0  0
  142.6120   74.5410  219.8810 C   0  0  1  0  0  0  0  0  0  0  0  0
  142.5520   75.0570  221.1740 O   0  0  0  0  0  0  0  0  0  0  0  0
  141.5360   73.5090  219.6770 C   0  0  0  0  0  0  0  0  0  0  0  0
  139.7050   76.9710  222.3970 C   0  0  0  0  0  0  0  0  0  0  0  0
  138.6130   77.7730  222.7080 C   0  0  0  0  0  0  0  0  0  0  0  0
  138.8990   79.0580  223.1550 C   0  0  0  0  0  0  0  0  0  0  0  0
  140.2180   79.5040  223.2800 C   0  0  0  0  0  0  0  0  0  0  0  0
  140.4790   80.7890  223.7280 C   0  0  0  0  0  0  0  0  0  0  0  0
  141.8000   81.2140  223.8470 C   0  0  0  0  0  0  0  0  0  0  0  0
  142.8440   80.3490  223.5160 C   0  0  0  0  0  0  0  0  0  0  0  0
  142.5870   79.0670  223.0690 C   0  0  0  0  0  0  0  0  0  0  0  0
  141.2660   78.6670  222.9600 C   0  0  0  0  0  0  0  0  0  0  0  0
  140.9640   77.4290  222.5290 N   0  0  0  0  0  0  0  0  0  0  0  0
  137.8220   76.2480  220.6970 H   0  0  0  0  0  0  0  0  0  0  0  0
  138.1762   73.3290  221.2989 H   0  0  0  0  0  0  0  0  0  0  0  0
  137.0478   74.0284  220.1063 H   0  0  0  0  0  0  0  0  0  0  0  0
  140.1735   75.9844  218.1380 H   0  0  0  0  0  0  0  0  0  0  0  0
  140.3016   76.3915  219.8244 H   0  0  0  0  0  0  0  0  0  0  0  0
  142.4355   75.4078  217.8910 H   0  0  0  0  0  0  0  0  0  0  0  0
  143.8728   76.8430  219.3815 H   0  0  0  0  0  0  0  0  0  0  0  0
  142.5790   76.8270  221.1970 H   0  0  0  0  0  0  0  0  0  0  0  0
  142.7497   76.2944  216.6420 H   0  0  0  0  0  0  0  0  0  0  0  0
  142.4237   77.7541  214.7029 H   0  0  0  0  0  0  0  0  0  0  0  0
  142.0429   80.1953  214.9870 H   0  0  0  0  0  0  0  0  0  0  0  0
  142.0064   81.1300  217.2985 H   0  0  0  0  0  0  0  0  0  0  0  0
  142.3413   79.6560  219.2430 H   0  0  0  0  0  0  0  0  0  0  0  0
  143.6314   74.1589  219.7236 H   0  0  0  0  0  0  0  0  0  0  0  0
  141.7840   75.6660  221.3260 H   0  0  0  0  0  0  0  0  0  0  0  0
  141.7843   72.8486  218.8331 H   0  0  0  0  0  0  0  0  0  0  0  0
  141.4097   72.8547  220.5522 H   0  0  0  0  0  0  0  0  0  0  0  0
  137.5794   77.4108  222.6060 H   0  0  0  0  0  0  0  0  0  0  0  0
  138.0726   79.7359  223.4150 H   0  0  0  0  0  0  0  0  0  0  0  0
  139.6517   81.4662  223.9869 H   0  0  0  0  0  0  0  0  0  0  0  0
  142.0205   82.2316  224.2019 H   0  0  0  0  0  0  0  0  0  0  0  0
  143.8847   80.6921  223.6122 H   0  0  0  0  0  0  0  0  0  0  0  0
  143.4084   78.3838  222.8072 H   0  0  0  0  0  0  0  0  0  0  0  0
  1  2  2  0
  2  3  1  0
  3  4  1  0
  4  5  1  0
  5  6  2  0
  5  7  1  0
  7  8  1  0
  8  9  1  0
  9 10  1  0
 10 11  1  0
 10 12  1  0
 12 13  2  0
 13 14  1  0
 14 15  2  0
 15 16  1  0
 16 17  2  0
  9 18  1  0
 18 19  1  0
 18 20  1  0
  2 21  1  0
 21 22  2  0
 22 23  1  0
 23 24  2  0
 24 25  1  0
 25 26  2  0
 26 27  1  0
 27 28  2  0
 28 29  1  0
 29 30  2  0
 20  7  1  0
 30 21  1  0
 17 12  1  0
 29 24  1  0
  3 31  1  0
  4 32  1  0
  4 33  1  0
  8 34  1  0
  8 35  1  0
  9 36  1  6
 10 37  1  1
 11 38  1  0
 13 39  1  0
 14 40  1  0
 15 41  1  0
 16 42  1  0
 17 43  1  0
 18 44  1  6
 19 45  1  0
 20 46  1  0
 20 47  1  0
 22 48  1  0
 23 49  1  0
 25 50  1  0
 26 51  1  0
 27 52  1  0
 28 53  1  0
M  END
>  <smiles>  (20) 
O=C(NCC(=O)N1C[C@@H]([C@H](O)c2ccccc2)[C@@H](O)C1)c1ccc2ccccc2n1

>  <score_type>  (20) 
oracle

>  <origin>  (20) 
autodockgpu

>  <m_score__min__energy>  (20) 
-8.6999999999999993

>  <m_primary>  (20) 
energy

>  <rmsd>  (20) 
7.05346606498896

>  <m_score__min__rmsd>  (20) 
7.05346606498896

>  <meeko>  (20) 
{"free_energy": -5.95, "intermolecular_energy": -8.33, "internal_energy": -4.73, "cluster_size": 6, "cluster_id": 9, "rank_in_cluster": 1}

>  <energy>  (20) 
-7.87

>  <cluster_rmsd>  (20) 
0.12

>  <cluster>  (20) 
4

$$$$

     RDKit          3D

 53 56  0  0  0  0  0  0  0  0999 V2000
  137.1640   76.2250  222.3310 O   0  0  0  0  0  0  0  0  0  0  0  0
  138.4290   76.3400  222.3840 C   0  0  0  0  0  0  0  0  0  0  0  0
  139.2910   75.2280  222.1480 N   0  0  0  0  0  0  0  0  0  0  0  0
  138.7450   73.9210  221.8380 C   0  0  0  0  0  0  0  0  0  0  0  0
  139.7350   72.9040  222.2570 C   0  0  0  0  0  0  0  0  0  0  0  0
  140.9520   73.2130  222.3550 O   0  0  0  0  0  0  0  0  0  0  0  0
  139.3790   71.5710  222.5630 N   0  0  0  0  0  0  0  0  0  0  0  0
  139.2750   71.0740  223.9330 C   0  0  0  0  0  0  0  0  0  0  0  0
  139.1490   69.6030  223.7010 C   0  0  1  0  0  0  0  0  0  0  0  0
  138.3920   68.9220  224.8050 C   0  0  2  0  0  0  0  0  0  0  0  0
  137.2070   69.5930  225.0560 O   0  0  0  0  0  0  0  0  0  0  0  0
  139.2830   68.7910  225.9800 C   0  0  0  0  0  0  0  0  0  0  0  0
  139.1820   69.7040  227.0380 C   0  0  0  0  0  0  0  0  0  0  0  0
  139.9950   69.6280  228.1470 C   0  0  0  0  0  0  0  0  0  0  0  0
  140.9510   68.6410  228.2680 C   0  0  0  0  0  0  0  0  0  0  0  0
  141.0690   67.7320  227.2400 C   0  0  0  0  0  0  0  0  0  0  0  0
  140.2430   67.8210  226.1250 C   0  0  0  0  0  0  0  0  0  0  0  0
  138.4310   69.4600  222.3750 C   0  0  1  0  0  0  0  0  0  0  0  0
  137.0850   69.7470  222.5880 O   0  0  0  0  0  0  0  0  0  0  0  0
  139.0840   70.5640  221.5860 C   0  0  0  0  0  0  0  0  0  0  0  0
  139.0450   77.6470  222.6950 C   0  0  0  0  0  0  0  0  0  0  0  0
  138.2060   78.7180  222.9790 C   0  0  0  0  0  0  0  0  0  0  0  0
  138.8260   79.9290  223.2660 C   0  0  0  0  0  0  0  0  0  0  0  0
  140.2190   80.0460  223.2660 C   0  0  0  0  0  0  0  0  0  0  0  0
  140.8150   81.2630  223.5550 C   0  0  0  0  0  0  0  0  0  0  0  0
  142.2040   81.3600  223.5510 C   0  0  0  0  0  0  0  0  0  0  0  0
  142.9800   80.2390  223.2570 C   0  0  0  0  0  0  0  0  0  0  0  0
  142.3900   79.0240  222.9670 C   0  0  0  0  0  0  0  0  0  0  0  0
  141.0070   78.9530  222.9790 C   0  0  0  0  0  0  0  0  0  0  0  0
  140.3840   77.7920  222.7030 N   0  0  0  0  0  0  0  0  0  0  0  0
  140.3370   75.4000  222.2100 H   0  0  0  0  0  0  0  0  0  0  0  0
  137.8015   73.7711  222.3832 H   0  0  0  0  0  0  0  0  0  0  0  0
  138.5411   73.8364  220.7604 H   0  0  0  0  0  0  0  0  0  0  0  0
  140.1751   71.3139  224.5180 H   0  0  0  0  0  0  0  0  0  0  0  0
  138.4471   71.5120  224.5099 H   0  0  0  0  0  0  0  0  0  0  0  0
  140.1373   69.1204  223.6846 H   0  0  0  0  0  0  0  0  0  0  0  0
  138.0921   67.9035  224.5174 H   0  0  0  0  0  0  0  0  0  0  0  0
  136.9300   70.1170  224.2840 H   0  0  0  0  0  0  0  0  0  0  0  0
  138.4308   70.5055  226.9811 H   0  0  0  0  0  0  0  0  0  0  0  0
  139.8798   70.3688  228.9520 H   0  0  0  0  0  0  0  0  0  0  0  0
  141.5976   68.5819  229.1559 H   0  0  0  0  0  0  0  0  0  0  0  0
  141.8207   66.9313  227.3014 H   0  0  0  0  0  0  0  0  0  0  0  0
  140.3647   67.0794  225.3217 H   0  0  0  0  0  0  0  0  0  0  0  0
  138.4872   68.4727  221.8932 H   0  0  0  0  0  0  0  0  0  0  0  0
  136.5930   69.0300  223.0660 H   0  0  0  0  0  0  0  0  0  0  0  0
  140.0061   70.2061  221.1046 H   0  0  0  0  0  0  0  0  0  0  0  0
  138.4406   70.9394  220.7766 H   0  0  0  0  0  0  0  0  0  0  0  0
  137.1110   78.6133  222.9768 H   0  0  0  0  0  0  0  0  0  0  0  0
  138.2096   80.8103  223.4971 H   0  0  0  0  0  0  0  0  0  0  0  0
  140.1972   82.1435  223.7852 H   0  0  0  0  0  0  0  0  0  0  0  0
  142.6891   82.3204  223.7796 H   0  0  0  0  0  0  0  0  0  0  0  0
  144.0767   80.3235  223.2560 H   0  0  0  0  0  0  0  0  0  0  0  0
  143.0005   78.1393  222.7335 H   0  0  0  0  0  0  0  0  0  0  0  0
  1  2  2  0
  2  3  1  0
  3  4  1  0
  4  5  1  0
  5  6  2  0
  5  7  1  0
  7  8  1  0
  8  9  1  0
  9 10  1  0
 10 11  1  0
 10 12  1  0
 12 13  2  0
 13 14  1  0
 14 15  2  0
 15 16  1  0
 16 17  2  0
  9 18  1  0
 18 19  1  0
 18 20  1  0
  2 21  1  0
 21 22  2  0
 22 23  1  0
 23 24  2  0
 24 25  1  0
 25 26  2  0
 26 27  1  0
 27 28  2  0
 28 29  1  0
 29 30  2  0
 20  7  1  0
 30 21  1  0
 17 12  1  0
 29 24  1  0
  3 31  1  0
  4 32  1  0
  4 33  1  0
  8 34  1  0
  8 35  1  0
  9 36  1  6
 10 37  1  6
 11 38  1  0
 13 39  1  0
 14 40  1  0
 15 41  1  0
 16 42  1  0
 17 43  1  0
 18 44  1  6
 19 45  1  0
 20 46  1  0
 20 47  1  0
 22 48  1  0
 23 49  1  0
 25 50  1  0
 26 51  1  0
 27 52  1  0
 28 53  1  0
M  END
>  <smiles>  (21) 
O=C(NCC(=O)N1C[C@@H]([C@H](O)c2ccccc2)[C@@H](O)C1)c1ccc2ccccc2n1

>  <score_type>  (21) 
oracle

>  <origin>  (21) 
autodockgpu

>  <m_score__min__energy>  (21) 
-8.6999999999999993

>  <m_primary>  (21) 
energy

>  <rmsd>  (21) 
8.703507198786706

>  <m_score__min__rmsd>  (21) 
8.703507198786706

>  <meeko>  (21) 
{"free_energy": -7.91, "intermolecular_energy": -10.29, "internal_energy": -2.96, "cluster_size": 3, "cluster_id": 4, "rank_in_cluster": 1}

>  <energy>  (21) 
-7.81

>  <cluster_rmsd>  (21) 
0.0

>  <cluster>  (21) 
5

$$$$

     RDKit          3D

 53 56  0  0  0  0  0  0  0  0999 V2000
  140.4960   71.1390  221.3620 O   0  0  0  0  0  0  0  0  0  0  0  0
  140.0630   71.6600  222.4380 C   0  0  0  0  0  0  0  0  0  0  0  0
  139.6200   73.0150  222.4850 N   0  0  0  0  0  0  0  0  0  0  0  0
  139.6520   73.8460  221.2970 C   0  0  0  0  0  0  0  0  0  0  0  0
  139.5390   75.2580  221.7270 C   0  0  0  0  0  0  0  0  0  0  0  0
  138.8290   75.5580  222.7240 O   0  0  0  0  0  0  0  0  0  0  0  0
  140.2030   76.3140  221.0660 N   0  0  0  0  0  0  0  0  0  0  0  0
  140.4600   77.6070  221.6960 C   0  0  0  0  0  0  0  0  0  0  0  0
  140.9180   78.4170  220.5270 C   0  0  1  0  0  0  0  0  0  0  0  0
  141.8440   79.5250  220.9380 C   0  0  2  0  0  0  0  0  0  0  0  0
  142.6200   79.1260  222.0120 O   0  0  0  0  0  0  0  0  0  0  0  0
  141.0430   80.7460  221.1810 C   0  0  0  0  0  0  0  0  0  0  0  0
  141.3770   81.9410  220.5300 C   0  0  0  0  0  0  0  0  0  0  0  0
  140.6680   83.1040  220.7310 C   0  0  0  0  0  0  0  0  0  0  0  0
  139.5880   83.1460  221.5880 C   0  0  0  0  0  0  0  0  0  0  0  0
  139.2410   81.9830  222.2400 C   0  0  0  0  0  0  0  0  0  0  0  0
  139.9660   80.8150  222.0290 C   0  0  0  0  0  0  0  0  0  0  0  0
  141.6100   77.4390  219.6010 C   0  0  1  0  0  0  0  0  0  0  0  0
  142.8590   77.1490  220.1470 O   0  0  0  0  0  0  0  0  0  0  0  0
  140.6970   76.2490  219.7210 C   0  0  0  0  0  0  0  0  0  0  0  0
  140.0060   70.8630  223.6810 C   0  0  0  0  0  0  0  0  0  0  0  0
  139.4850   69.5750  223.6130 C   0  0  0  0  0  0  0  0  0  0  0  0
  139.4500   68.8600  224.8040 C   0  0  0  0  0  0  0  0  0  0  0  0
  139.9170   69.4180  225.9970 C   0  0  0  0  0  0  0  0  0  0  0  0
  139.8720   68.6860  227.1730 C   0  0  0  0  0  0  0  0  0  0  0  0
  140.3430   69.2600  228.3510 C   0  0  0  0  0  0  0  0  0  0  0  0
  140.8520   70.5580  228.3400 C   0  0  0  0  0  0  0  0  0  0  0  0
  140.8980   71.2920  227.1700 C   0  0  0  0  0  0  0  0  0  0  0  0
  140.4250   70.6990  226.0110 C   0  0  0  0  0  0  0  0  0  0  0  0
  140.4480   71.3720  224.8460 N   0  0  0  0  0  0  0  0  0  0  0  0
  139.2710   73.3820  223.4190 H   0  0  0  0  0  0  0  0  0  0  0  0
  140.5996   73.6936  220.7595 H   0  0  0  0  0  0  0  0  0  0  0  0
  138.8236   73.5831  220.6227 H   0  0  0  0  0  0  0  0  0  0  0  0
  139.5463   78.0259  222.1428 H   0  0  0  0  0  0  0  0  0  0  0  0
  141.1802   77.5680  222.5266 H   0  0  0  0  0  0  0  0  0  0  0  0
  140.0693   78.9148  220.0352 H   0  0  0  0  0  0  0  0  0  0  0  0
  142.5600   79.7667  220.1387 H   0  0  0  0  0  0  0  0  0  0  0  0
  143.3500   78.5490  221.7230 H   0  0  0  0  0  0  0  0  0  0  0  0
  142.2315   81.9502  219.8374 H   0  0  0  0  0  0  0  0  0  0  0  0
  140.9688   84.0178  220.1976 H   0  0  0  0  0  0  0  0  0  0  0  0
  139.0229   84.0765  221.7455 H   0  0  0  0  0  0  0  0  0  0  0  0
  138.3855   81.9782  222.9315 H   0  0  0  0  0  0  0  0  0  0  0  0
  139.6623   79.9046  222.5665 H   0  0  0  0  0  0  0  0  0  0  0  0
  141.7701   77.7763  218.5663 H   0  0  0  0  0  0  0  0  0  0  0  0
  142.8780   77.1720  221.1380 H   0  0  0  0  0  0  0  0  0  0  0  0
  139.8703   76.3180  218.9987 H   0  0  0  0  0  0  0  0  0  0  0  0
  141.2129   75.3010  219.5087 H   0  0  0  0  0  0  0  0  0  0  0  0
  139.1206   69.1459  222.6680 H   0  0  0  0  0  0  0  0  0  0  0  0
  139.0474   67.8363  224.8078 H   0  0  0  0  0  0  0  0  0  0  0  0
  139.4686   67.6627  227.1758 H   0  0  0  0  0  0  0  0  0  0  0  0
  140.3135   68.6891  229.2908 H   0  0  0  0  0  0  0  0  0  0  0  0
  141.2219   71.0038  229.2751 H   0  0  0  0  0  0  0  0  0  0  0  0
  141.2983   72.3165  227.1594 H   0  0  0  0  0  0  0  0  0  0  0  0
  1  2  2  0
  2  3  1  0
  3  4  1  0
  4  5  1  0
  5  6  2  0
  5  7  1  0
  7  8  1  0
  8  9  1  0
  9 10  1  0
 10 11  1  0
 10 12  1  0
 12 13  2  0
 13 14  1  0
 14 15  2  0
 15 16  1  0
 16 17  2  0
  9 18  1  0
 18 19  1  0
 18 20  1  0
  2 21  1  0
 21 22  2  0
 22 23  1  0
 23 24  2  0
 24 25  1  0
 25 26  2  0
 26 27  1  0
 27 28  2  0
 28 29  1  0
 29 30  2  0
 20  7  1  0
 30 21  1  0
 17 12  1  0
 29 24  1  0
  3 31  1  0
  4 32  1  0
  4 33  1  0
  8 34  1  0
  8 35  1  0
  9 36  1  6
 10 37  1  6
 11 38  1  0
 13 39  1  0
 14 40  1  0
 15 41  1  0
 16 42  1  0
 17 43  1  0
 18 44  1  6
 19 45  1  0
 20 46  1  0
 20 47  1  0
 22 48  1  0
 23 49  1  0
 25 50  1  0
 26 51  1  0
 27 52  1  0
 28 53  1  0
M  END
>  <smiles>  (22) 
O=C(NCC(=O)N1C[C@@H]([C@H](O)c2ccccc2)[C@@H](O)C1)c1ccc2ccccc2n1

>  <score_type>  (22) 
oracle

>  <origin>  (22) 
autodockgpu

>  <m_score__min__energy>  (22) 
-8.6999999999999993

>  <m_primary>  (22) 
energy

>  <rmsd>  (22) 
2.810236852022531

>  <m_score__min__rmsd>  (22) 
2.810236852022531

>  <meeko>  (22) 
{"free_energy": -8.13, "intermolecular_energy": -10.52, "internal_energy": -2.66, "cluster_size": 15, "cluster_id": 1, "rank_in_cluster": 14}

>  <energy>  (22) 
-6.89

>  <cluster_rmsd>  (22) 
0.0

>  <cluster>  (22) 
6

$$$$

     RDKit          3D

 53 56  0  0  0  0  0  0  0  0999 V2000
  139.4490   70.8220  221.2840 O   0  0  0  0  0  0  0  0  0  0  0  0
  139.4570   71.4580  222.3850 C   0  0  0  0  0  0  0  0  0  0  0  0
  139.2720   72.8720  222.4310 N   0  0  0  0  0  0  0  0  0  0  0  0
  139.0680   73.6330  221.2140 C   0  0  0  0  0  0  0  0  0  0  0  0
  138.6680   75.0050  221.5970 C   0  0  0  0  0  0  0  0  0  0  0  0
  137.8330   75.1810  222.5250 O   0  0  0  0  0  0  0  0  0  0  0  0
  139.1850   76.1570  220.9650 N   0  0  0  0  0  0  0  0  0  0  0  0
  140.2750   76.9480  221.5300 C   0  0  0  0  0  0  0  0  0  0  0  0
  140.2490   78.1550  220.6480 C   0  0  1  0  0  0  0  0  0  0  0  0
  141.5980   78.8070  220.5470 C   0  0  2  0  0  0  0  0  0  0  0  0
  142.5820   77.8480  220.3880 O   0  0  0  0  0  0  0  0  0  0  0  0
  141.7870   79.6900  221.7200 C   0  0  0  0  0  0  0  0  0  0  0  0
  142.7390   79.3620  222.6940 C   0  0  0  0  0  0  0  0  0  0  0  0
  142.9440   80.1480  223.8060 C   0  0  0  0  0  0  0  0  0  0  0  0
  142.2170   81.3010  224.0130 C   0  0  0  0  0  0  0  0  0  0  0  0
  141.2750   81.6440  223.0690 C   0  0  0  0  0  0  0  0  0  0  0  0
  141.0760   80.8420  221.9500 C   0  0  0  0  0  0  0  0  0  0  0  0
  139.7750   77.6600  219.2970 C   0  0  1  0  0  0  0  0  0  0  0  0
  140.8390   76.9920  218.6930 O   0  0  0  0  0  0  0  0  0  0  0  0
  138.7120   76.6820  219.7170 C   0  0  0  0  0  0  0  0  0  0  0  0
  139.6600   70.7380  223.6590 C   0  0  0  0  0  0  0  0  0  0  0  0
  139.3280   69.3890  223.7120 C   0  0  0  0  0  0  0  0  0  0  0  0
  139.5340   68.7500  224.9290 C   0  0  0  0  0  0  0  0  0  0  0  0
  140.0500   69.4390  226.0300 C   0  0  0  0  0  0  0  0  0  0  0  0
  140.2470   68.7810  227.2330 C   0  0  0  0  0  0  0  0  0  0  0  0
  140.7620   69.4840  228.3190 C   0  0  0  0  0  0  0  0  0  0  0  0
  141.0730   70.8380  228.1880 C   0  0  0  0  0  0  0  0  0  0  0  0
  140.8770   71.4980  226.9900 C   0  0  0  0  0  0  0  0  0  0  0  0
  140.3640   70.7770  225.9250 C   0  0  0  0  0  0  0  0  0  0  0  0
  140.1560   71.3740  224.7380 N   0  0  0  0  0  0  0  0  0  0  0  0
  139.2920   73.3350  223.3870 H   0  0  0  0  0  0  0  0  0  0  0  0
  140.0009   73.6644  220.6321 H   0  0  0  0  0  0  0  0  0  0  0  0
  138.2877   73.1650  220.5958 H   0  0  0  0  0  0  0  0  0  0  0  0
  140.0788   77.2120  222.5797 H   0  0  0  0  0  0  0  0  0  0  0  0
  141.2440   76.4279  221.5532 H   0  0  0  0  0  0  0  0  0  0  0  0
  139.5824   78.9289  221.0562 H   0  0  0  0  0  0  0  0  0  0  0  0
  141.6691   79.4443  219.6532 H   0  0  0  0  0  0  0  0  0  0  0  0
  142.7860   77.7070  219.4460 H   0  0  0  0  0  0  0  0  0  0  0  0
  143.3404   78.4498  222.5668 H   0  0  0  0  0  0  0  0  0  0  0  0
  143.7032   79.8499  224.5441 H   0  0  0  0  0  0  0  0  0  0  0  0
  142.3839   81.9261  224.9026 H   0  0  0  0  0  0  0  0  0  0  0  0
  140.6764   82.5574  223.2005 H   0  0  0  0  0  0  0  0  0  0  0  0
  140.3145   81.1444  221.2160 H   0  0  0  0  0  0  0  0  0  0  0  0
  139.4219   78.4270  218.5920 H   0  0  0  0  0  0  0  0  0  0  0  0
  141.3700   76.4370  219.3200 H   0  0  0  0  0  0  0  0  0  0  0  0
  137.7456   77.1903  219.8496 H   0  0  0  0  0  0  0  0  0  0  0  0
  138.5455   75.8951  218.9667 H   0  0  0  0  0  0  0  0  0  0  0  0
  138.9243   68.8564  222.8383 H   0  0  0  0  0  0  0  0  0  0  0  0
  139.2864   67.6827  225.0274 H   0  0  0  0  0  0  0  0  0  0  0  0
  139.9990   67.7137  227.3294 H   0  0  0  0  0  0  0  0  0  0  0  0
  140.9235   68.9725  229.2793 H   0  0  0  0  0  0  0  0  0  0  0  0
  141.4796   71.3873  229.0500 H   0  0  0  0  0  0  0  0  0  0  0  0
  141.1214   72.5654  226.8854 H   0  0  0  0  0  0  0  0  0  0  0  0
  1  2  2  0
  2  3  1  0
  3  4  1  0
  4  5  1  0
  5  6  2  0
  5  7  1  0
  7  8  1  0
  8  9  1  0
  9 10  1  0
 10 11  1  0
 10 12  1  0
 12 13  2  0
 13 14  1  0
 14 15  2  0
 15 16  1  0
 16 17  2  0
  9 18  1  0
 18 19  1  0
 18 20  1  0
  2 21  1  0
 21 22  2  0
 22 23  1  0
 23 24  2  0
 24 25  1  0
 25 26  2  0
 26 27  1  0
 27 28  2  0
 28 29  1  0
 29 30  2  0
 20  7  1  0
 30 21  1  0
 17 12  1  0
 29 24  1  0
  3 31  1  0
  4 32  1  0
  4 33  1  0
  8 34  1  0
  8 35  1  0
  9 36  1  1
 10 37  1  6
 11 38  1  0
 13 39  1  0
 14 40  1  0
 15 41  1  0
 16 42  1  0
 17 43  1  0
 18 44  1  6
 19 45  1  0
 20 46  1  0
 20 47  1  0
 22 48  1  0
 23 49  1  0
 25 50  1  0
 26 51  1  0
 27 52  1  0
 28 53  1  0
M  END
>  <smiles>  (23) 
O=C(NCC(=O)N1C[C@@H]([C@H](O)c2ccccc2)[C@@H](O)C1)c1ccc2ccccc2n1

>  <score_type>  (23) 
oracle

>  <origin>  (23) 
autodockgpu

>  <m_score__min__energy>  (23) 
-8.6999999999999993

>  <m_primary>  (23) 
energy

>  <rmsd>  (23) 
2.47922811927088

>  <m_score__min__rmsd>  (23) 
2.47922811927088

>  <meeko>  (23) 
{"free_energy": -7.55, "intermolecular_energy": -9.93, "internal_energy": -2.63, "cluster_size": 15, "cluster_id": 1, "rank_in_cluster": 15}

>  <energy>  (23) 
-6.1

>  <cluster_rmsd>  (23) 
1.1

>  <cluster>  (23) 
6

$$$$

     RDKit          3D

 53 56  0  0  0  0  0  0  0  0999 V2000
  140.2040   74.5960  222.3100 O   0  0  0  0  0  0  0  0  0  0  0  0
  139.4840   75.5570  221.8940 C   0  0  0  0  0  0  0  0  0  0  0  0
  138.4190   75.3470  220.9680 N   0  0  0  0  0  0  0  0  0  0  0  0
  138.1240   74.0190  220.4690 C   0  0  0  0  0  0  0  0  0  0  0  0
  139.1190   73.6940  219.4230 C   0  0  0  0  0  0  0  0  0  0  0  0
  138.8280   72.8770  218.5080 O   0  0  0  0  0  0  0  0  0  0  0  0
  140.4100   74.2660  219.3910 N   0  0  0  0  0  0  0  0  0  0  0  0
  140.6480   75.6660  219.0480 C   0  0  0  0  0  0  0  0  0  0  0  0
  142.1350   75.6830  218.9010 C   0  0  1  0  0  0  0  0  0  0  0  0
  142.7150   77.0360  219.1980 C   0  0  2  0  0  0  0  0  0  0  0  0
  142.1810   77.5370  220.3720 O   0  0  0  0  0  0  0  0  0  0  0  0
  142.5200   77.9060  218.0160 C   0  0  0  0  0  0  0  0  0  0  0  0
  142.3780   79.2890  218.1840 C   0  0  0  0  0  0  0  0  0  0  0  0
  142.1860   80.1370  217.1160 C   0  0  0  0  0  0  0  0  0  0  0  0
  142.1250   79.6600  215.8240 C   0  0  0  0  0  0  0  0  0  0  0  0
  142.2630   78.3020  215.6340 C   0  0  0  0  0  0  0  0  0  0  0  0
  142.4550   77.4560  216.7210 C   0  0  0  0  0  0  0  0  0  0  0  0
  142.6510   74.6390  219.8690 C   0  0  1  0  0  0  0  0  0  0  0  0
  142.5700   75.1750  221.1530 O   0  0  0  0  0  0  0  0  0  0  0  0
  141.6210   73.5570  219.6860 C   0  0  0  0  0  0  0  0  0  0  0  0
  139.7360   76.9350  222.3670 C   0  0  0  0  0  0  0  0  0  0  0  0
  138.6410   77.7490  222.6330 C   0  0  0  0  0  0  0  0  0  0  0  0
  138.9230   79.0360  223.0760 C   0  0  0  0  0  0  0  0  0  0  0  0
  140.2400   79.4730  223.2420 C   0  0  0  0  0  0  0  0  0  0  0  0
  140.4960   80.7600  223.6860 C   0  0  0  0  0  0  0  0  0  0  0  0
  141.8150   81.1760  223.8450 C   0  0  0  0  0  0  0  0  0  0  0  0
  142.8630   80.3000  223.5590 C   0  0  0  0  0  0  0  0  0  0  0  0
  142.6110   79.0150  223.1160 C   0  0  0  0  0  0  0  0  0  0  0  0
  141.2910   78.6250  222.9660 C   0  0  0  0  0  0  0  0  0  0  0  0
  140.9940   77.3850  222.5380 N   0  0  0  0  0  0  0  0  0  0  0  0
  137.8620   76.1990  220.6650 H   0  0  0  0  0  0  0  0  0  0  0  0
  138.1913   73.2884  221.2886 H   0  0  0  0  0  0  0  0  0  0  0  0
  137.1061   73.9835  220.0534 H   0  0  0  0  0  0  0  0  0  0  0  0
  140.1473   75.9410  218.1080 H   0  0  0  0  0  0  0  0  0  0  0  0
  140.2602   76.3829  219.7867 H   0  0  0  0  0  0  0  0  0  0  0  0
  142.4319   75.4613  217.8653 H   0  0  0  0  0  0  0  0  0  0  0  0
  143.7991   76.9775  219.3751 H   0  0  0  0  0  0  0  0  0  0  0  0
  142.6310   77.1630  221.1500 H   0  0  0  0  0  0  0  0  0  0  0  0
  142.4211   79.7105  219.1991 H   0  0  0  0  0  0  0  0  0  0  0  0
  142.0792   81.2167  217.2975 H   0  0  0  0  0  0  0  0  0  0  0  0
  141.9714   80.3404  214.9734 H   0  0  0  0  0  0  0  0  0  0  0  0
  142.2211   77.8849  214.6170 H   0  0  0  0  0  0  0  0  0  0  0  0
  142.5595   76.3770  216.5343 H   0  0  0  0  0  0  0  0  0  0  0  0
  143.6861   74.2997  219.7157 H   0  0  0  0  0  0  0  0  0  0  0  0
  141.7700   75.7430  221.3000 H   0  0  0  0  0  0  0  0  0  0  0  0
  141.8967   72.8935  218.8531 H   0  0  0  0  0  0  0  0  0  0  0  0
  141.5256   72.9136  220.5731 H   0  0  0  0  0  0  0  0  0  0  0  0
  137.6083   77.3942  222.5002 H   0  0  0  0  0  0  0  0  0  0  0  0
  138.0940   79.7234  223.3001 H   0  0  0  0  0  0  0  0  0  0  0  0
  139.6659   81.4460  223.9105 H   0  0  0  0  0  0  0  0  0  0  0  0
  142.0312   82.1957  224.1963 H   0  0  0  0  0  0  0  0  0  0  0  0
  143.9024   80.6362  223.6877 H   0  0  0  0  0  0  0  0  0  0  0  0
  143.4351   78.3226  222.8893 H   0  0  0  0  0  0  0  0  0  0  0  0
  1  2  2  0
  2  3  1  0
  3  4  1  0
  4  5  1  0
  5  6  2  0
  5  7  1  0
  7  8  1  0
  8  9  1  0
  9 10  1  0
 10 11  1  0
 10 12  1  0
 12 13  2  0
 13 14  1  0
 14 15  2  0
 15 16  1  0
 16 17  2  0
  9 18  1  0
 18 19  1  0
 18 20  1  0
  2 21  1  0
 21 22  2  0
 22 23  1  0
 23 24  2  0
 24 25  1  0
 25 26  2  0
 26 27  1  0
 27 28  2  0
 28 29  1  0
 29 30  2  0
 20  7  1  0
 30 21  1  0
 17 12  1  0
 29 24  1  0
  3 31  1  0
  4 32  1  0
  4 33  1  0
  8 34  1  0
  8 35  1  0
  9 36  1  6
 10 37  1  1
 11 38  1  0
 13 39  1  0
 14 40  1  0
 15 41  1  0
 16 42  1  0
 17 43  1  0
 18 44  1  6
 19 45  1  0
 20 46  1  0
 20 47  1  0
 22 48  1  0
 23 49  1  0
 25 50  1  0
 26 51  1  0
 27 52  1  0
 28 53  1  0
M  END
>  <smiles>  (24) 
O=C(NCC(=O)N1C[C@@H]([C@H](O)c2ccccc2)[C@@H](O)C1)c1ccc2ccccc2n1

>  <score_type>  (24) 
oracle

>  <origin>  (24) 
autodockgpu

>  <m_score__min__energy>  (24) 
-8.6999999999999993

>  <m_primary>  (24) 
energy

>  <rmsd>  (24) 
7.027756367600504

>  <m_score__min__rmsd>  (24) 
7.027756367600504

>  <meeko>  (24) 
{"free_energy": -5.86, "intermolecular_energy": -8.25, "internal_energy": -4.85, "cluster_size": 6, "cluster_id": 9, "rank_in_cluster": 5}

>  <energy>  (24) 
-6.07

>  <cluster_rmsd>  (24) 
1.09

>  <cluster>  (24) 
6

$$$$

     RDKit          3D

 53 56  0  0  0  0  0  0  0  0999 V2000
  139.9260   70.8620  221.3370 O   0  0  0  0  0  0  0  0  0  0  0  0
  139.7580   71.4820  222.4340 C   0  0  0  0  0  0  0  0  0  0  0  0
  139.5260   72.8890  222.4690 N   0  0  0  0  0  0  0  0  0  0  0  0
  139.4760   73.6620  221.2440 C   0  0  0  0  0  0  0  0  0  0  0  0
  139.7070   75.0820  221.5920 C   0  0  0  0  0  0  0  0  0  0  0  0
  139.3500   75.5190  222.7190 O   0  0  0  0  0  0  0  0  0  0  0  0
  140.3230   75.9950  220.7090 N   0  0  0  0  0  0  0  0  0  0  0  0
  140.1740   77.4430  220.8360 C   0  0  0  0  0  0  0  0  0  0  0  0
  140.7700   77.9130  219.5480 C   0  0  1  0  0  0  0  0  0  0  0  0
  141.3460   79.2940  219.6660 C   0  0  2  0  0  0  0  0  0  0  0  0
  142.5560   79.3670  218.9990 O   0  0  0  0  0  0  0  0  0  0  0  0
  141.4130   79.6590  221.0990 C   0  0  0  0  0  0  0  0  0  0  0  0
  140.4740   80.5490  221.6370 C   0  0  0  0  0  0  0  0  0  0  0  0
  140.5020   80.9250  222.9620 C   0  0  0  0  0  0  0  0  0  0  0  0
  141.4610   80.4390  223.8250 C   0  0  0  0  0  0  0  0  0  0  0  0
  142.3950   79.5620  223.3180 C   0  0  0  0  0  0  0  0  0  0  0  0
  142.3570   79.1910  221.9790 C   0  0  0  0  0  0  0  0  0  0  0  0
  141.8420   76.8990  219.2030 C   0  0  1  0  0  0  0  0  0  0  0  0
  142.9360   77.1400  220.0320 O   0  0  0  0  0  0  0  0  0  0  0  0
  141.1540   75.6210  219.6010 C   0  0  0  0  0  0  0  0  0  0  0  0
  139.7980   70.7480  223.7170 C   0  0  0  0  0  0  0  0  0  0  0  0
  139.2610   69.4660  223.7580 C   0  0  0  0  0  0  0  0  0  0  0  0
  139.3190   68.8120  224.9830 C   0  0  0  0  0  0  0  0  0  0  0  0
  139.8910   69.4220  226.1030 C   0  0  0  0  0  0  0  0  0  0  0  0
  139.9380   68.7500  227.3140 C   0  0  0  0  0  0  0  0  0  0  0  0
  140.5120   69.3740  228.4180 C   0  0  0  0  0  0  0  0  0  0  0  0
  141.0320   70.6630  228.2980 C   0  0  0  0  0  0  0  0  0  0  0  0
  140.9860   71.3370  227.0920 C   0  0  0  0  0  0  0  0  0  0  0  0
  140.4110   70.6950  226.0090 C   0  0  0  0  0  0  0  0  0  0  0  0
  140.3430   71.3080  224.8140 N   0  0  0  0  0  0  0  0  0  0  0  0
  139.3950   73.3370  223.4230 H   0  0  0  0  0  0  0  0  0  0  0  0
  140.2569   73.3152  220.5512 H   0  0  0  0  0  0  0  0  0  0  0  0
  138.4981   73.5417  220.7548 H   0  0  0  0  0  0  0  0  0  0  0  0
  139.1163   77.7331  220.9198 H   0  0  0  0  0  0  0  0  0  0  0  0
  140.6481   77.8676  221.7332 H   0  0  0  0  0  0  0  0  0  0  0  0
  140.0049   77.9831  218.7608 H   0  0  0  0  0  0  0  0  0  0  0  0
  140.7021   80.0396  219.1767 H   0  0  0  0  0  0  0  0  0  0  0  0
  143.2510   78.8840  219.4800 H   0  0  0  0  0  0  0  0  0  0  0  0
  139.6914   80.9596  220.9820 H   0  0  0  0  0  0  0  0  0  0  0  0
  139.7439   81.6272  223.3390 H   0  0  0  0  0  0  0  0  0  0  0  0
  141.4799   80.7411  224.8825 H   0  0  0  0  0  0  0  0  0  0  0  0
  143.1753   79.1531  223.9767 H   0  0  0  0  0  0  0  0  0  0  0  0
  143.1187   78.4899  221.6072 H   0  0  0  0  0  0  0  0  0  0  0  0
  142.2046   76.9058  218.1645 H   0  0  0  0  0  0  0  0  0  0  0  0
  143.6900   77.5960  219.5770 H   0  0  0  0  0  0  0  0  0  0  0  0
  140.5453   75.2317  218.7716 H   0  0  0  0  0  0  0  0  0  0  0  0
  141.8662   74.8239  219.8605 H   0  0  0  0  0  0  0  0  0  0  0  0
  138.8147   68.9953  222.8696 H   0  0  0  0  0  0  0  0  0  0  0  0
  138.9073   67.7959  225.0727 H   0  0  0  0  0  0  0  0  0  0  0  0
  139.5260   67.7339  227.4020 H   0  0  0  0  0  0  0  0  0  0  0  0
  140.5556   68.8509  229.3847 H   0  0  0  0  0  0  0  0  0  0  0  0
  141.4846   71.1494  229.1747 H   0  0  0  0  0  0  0  0  0  0  0  0
  141.3944   72.3538  226.9958 H   0  0  0  0  0  0  0  0  0  0  0  0
  1  2  2  0
  2  3  1  0
  3  4  1  0
  4  5  1  0
  5  6  2  0
  5  7  1  0
  7  8  1  0
  8  9  1  0
  9 10  1  0
 10 11  1  0
 10 12  1  0
 12 13  2  0
 13 14  1  0
 14 15  2  0
 15 16  1  0
 16 17  2  0
  9 18  1  0
 18 19  1  0
 18 20  1  0
  2 21  1  0
 21 22  2  0
 22 23  1  0
 23 24  2  0
 24 25  1  0
 25 26  2  0
 26 27  1  0
 27 28  2  0
 28 29  1  0
 29 30  2  0
 20  7  1  0
 30 21  1  0
 17 12  1  0
 29 24  1  0
  3 31  1  0
  4 32  1  0
  4 33  1  0
  8 34  1  0
  8 35  1  0
  9 36  1  6
 10 37  1  6
 11 38  1  0
 13 39  1  0
 14 40  1  0
 15 41  1  0
 16 42  1  0
 17 43  1  0
 18 44  1  6
 19 45  1  0
 20 46  1  0
 20 47  1  0
 22 48  1  0
 23 49  1  0
 25 50  1  0
 26 51  1  0
 27 52  1  0
 28 53  1  0
M  END
>  <smiles>  (25) 
O=C(NCC(=O)N1C[C@@H]([C@H](O)c2ccccc2)[C@@H](O)C1)c1ccc2ccccc2n1

>  <score_type>  (25) 
oracle

>  <origin>  (25) 
autodockgpu

>  <m_score__min__energy>  (25) 
-8.6999999999999993

>  <m_primary>  (25) 
energy

>  <rmsd>  (25) 
2.2459853669657948

>  <m_score__min__rmsd>  (25) 
2.2459853669657948

>  <meeko>  (25) 
{"free_energy": -8.63, "intermolecular_energy": -11.01, "internal_energy": -2.66, "cluster_size": 15, "cluster_id": 1, "rank_in_cluster": 2}

>  <energy>  (25) 
-6.07

>  <cluster_rmsd>  (25) 
1.1

>  <cluster>  (25) 
6

$$$$

     RDKit          3D

 53 56  0  0  0  0  0  0  0  0999 V2000
  139.8800   70.8060  221.3240 O   0  0  0  0  0  0  0  0  0  0  0  0
  139.8280   71.4510  222.4180 C   0  0  0  0  0  0  0  0  0  0  0  0
  139.7730   72.8770  222.4420 N   0  0  0  0  0  0  0  0  0  0  0  0
  139.7740   73.6390  221.2080 C   0  0  0  0  0  0  0  0  0  0  0  0
  139.9080   75.0700  221.5590 C   0  0  0  0  0  0  0  0  0  0  0  0
  139.5530   75.4750  222.6980 O   0  0  0  0  0  0  0  0  0  0  0  0
  140.4260   76.0320  220.6630 N   0  0  0  0  0  0  0  0  0  0  0  0
  140.2700   77.4690  220.8670 C   0  0  0  0  0  0  0  0  0  0  0  0
  140.7370   78.0050  219.5520 C   0  0  1  0  0  0  0  0  0  0  0  0
  141.3020   79.3900  219.6770 C   0  0  2  0  0  0  0  0  0  0  0  0
  142.5120   79.4750  219.0100 O   0  0  0  0  0  0  0  0  0  0  0  0
  141.3670   79.7480  221.1120 C   0  0  0  0  0  0  0  0  0  0  0  0
  142.4420   79.3040  221.8940 C   0  0  0  0  0  0  0  0  0  0  0  0
  142.5410   79.6040  223.2340 C   0  0  0  0  0  0  0  0  0  0  0  0
  141.5810   80.3610  223.8720 C   0  0  0  0  0  0  0  0  0  0  0  0
  140.5150   80.8090  223.1240 C   0  0  0  0  0  0  0  0  0  0  0  0
  140.4260   80.4980  221.7710 C   0  0  0  0  0  0  0  0  0  0  0  0
  141.7850   77.0260  219.0650 C   0  0  1  0  0  0  0  0  0  0  0  0
  142.9480   77.2500  219.7980 O   0  0  0  0  0  0  0  0  0  0  0  0
  141.1540   75.7200  219.4680 C   0  0  0  0  0  0  0  0  0  0  0  0
  139.8240   70.7300  223.7080 C   0  0  0  0  0  0  0  0  0  0  0  0
  139.2580   69.4610  223.7490 C   0  0  0  0  0  0  0  0  0  0  0  0
  139.2740   68.8180  224.9810 C   0  0  0  0  0  0  0  0  0  0  0  0
  139.8340   69.4270  226.1080 C   0  0  0  0  0  0  0  0  0  0  0  0
  139.8390   68.7670  227.3260 C   0  0  0  0  0  0  0  0  0  0  0  0
  140.4020   69.3900  228.4370 C   0  0  0  0  0  0  0  0  0  0  0  0
  140.9520   70.6660  228.3170 C   0  0  0  0  0  0  0  0  0  0  0  0
  140.9480   71.3280  227.1040 C   0  0  0  0  0  0  0  0  0  0  0  0
  140.3840   70.6870  226.0140 C   0  0  0  0  0  0  0  0  0  0  0  0
  140.3560   71.2900  224.8110 N   0  0  0  0  0  0  0  0  0  0  0  0
  139.7320   73.3470  223.3930 H   0  0  0  0  0  0  0  0  0  0  0  0
  140.6196   73.3279  220.5770 H   0  0  0  0  0  0  0  0  0  0  0  0
  138.8421   73.4664  220.6496 H   0  0  0  0  0  0  0  0  0  0  0  0
  139.2208   77.7365  221.0610 H   0  0  0  0  0  0  0  0  0  0  0  0
  140.8200   77.8628  221.7344 H   0  0  0  0  0  0  0  0  0  0  0  0
  139.9011   78.0959  218.8428 H   0  0  0  0  0  0  0  0  0  0  0  0
  140.6522   80.1333  219.1920 H   0  0  0  0  0  0  0  0  0  0  0  0
  143.2450   79.1650  219.5720 H   0  0  0  0  0  0  0  0  0  0  0  0
  143.2300   78.6979  221.4232 H   0  0  0  0  0  0  0  0  0  0  0  0
  143.4032   79.2324  223.8072 H   0  0  0  0  0  0  0  0  0  0  0  0
  141.6639   80.5991  224.9427 H   0  0  0  0  0  0  0  0  0  0  0  0
  139.7299   81.4158  223.5988 H   0  0  0  0  0  0  0  0  0  0  0  0
  139.5608   80.8708  221.2031 H   0  0  0  0  0  0  0  0  0  0  0  0
  142.0490   77.0837  217.9987 H   0  0  0  0  0  0  0  0  0  0  0  0
  143.6080   77.8290  219.3360 H   0  0  0  0  0  0  0  0  0  0  0  0
  140.4756   75.3562  218.6822 H   0  0  0  0  0  0  0  0  0  0  0  0
  141.8976   74.9247  219.6245 H   0  0  0  0  0  0  0  0  0  0  0  0
  138.8213   68.9914  222.8552 H   0  0  0  0  0  0  0  0  0  0  0  0
  138.8383   67.8120  225.0710 H   0  0  0  0  0  0  0  0  0  0  0  0
  139.4027   67.7611  227.4147 H   0  0  0  0  0  0  0  0  0  0  0  0
  140.4129   68.8756  229.4093 H   0  0  0  0  0  0  0  0  0  0  0  0
  141.3946   71.1516  229.1992 H   0  0  0  0  0  0  0  0  0  0  0  0
  141.3803   72.3349  227.0072 H   0  0  0  0  0  0  0  0  0  0  0  0
  1  2  2  0
  2  3  1  0
  3  4  1  0
  4  5  1  0
  5  6  2  0
  5  7  1  0
  7  8  1  0
  8  9  1  0
  9 10  1  0
 10 11  1  0
 10 12  1  0
 12 13  2  0
 13 14  1  0
 14 15  2  0
 15 16  1  0
 16 17  2  0
  9 18  1  0
 18 19  1  0
 18 20  1  0
  2 21  1  0
 21 22  2  0
 22 23  1  0
 23 24  2  0
 24 25  1  0
 25 26  2  0
 26 27  1  0
 27 28  2  0
 28 29  1  0
 29 30  2  0
 20  7  1  0
 30 21  1  0
 17 12  1  0
 29 24  1  0
  3 31  1  0
  4 32  1  0
  4 33  1  0
  8 34  1  0
  8 35  1  0
  9 36  1  6
 10 37  1  6
 11 38  1  0
 13 39  1  0
 14 40  1  0
 15 41  1  0
 16 42  1  0
 17 43  1  0
 18 44  1  6
 19 45  1  0
 20 46  1  0
 20 47  1  0
 22 48  1  0
 23 49  1  0
 25 50  1  0
 26 51  1  0
 27 52  1  0
 28 53  1  0
M  END
>  <smiles>  (26) 
O=C(NCC(=O)N1C[C@@H]([C@H](O)c2ccccc2)[C@@H](O)C1)c1ccc2ccccc2n1

>  <score_type>  (26) 
oracle

>  <origin>  (26) 
autodockgpu

>  <m_score__min__energy>  (26) 
-8.6999999999999993

>  <m_primary>  (26) 
energy

>  <rmsd>  (26) 
2.307819159557438

>  <m_score__min__rmsd>  (26) 
2.307819159557438

>  <meeko>  (26) 
{"free_energy": -8.36, "intermolecular_energy": -10.74, "internal_energy": -2.72, "cluster_size": 15, "cluster_id": 1, "rank_in_cluster": 10}

>  <energy>  (26) 
-6.07

>  <cluster_rmsd>  (26) 
1.33

>  <cluster>  (26) 
6

$$$$

     RDKit          3D

 53 56  0  0  0  0  0  0  0  0999 V2000
  137.3560   72.5000  221.0300 O   0  0  0  0  0  0  0  0  0  0  0  0
  137.4240   73.2980  222.0170 C   0  0  0  0  0  0  0  0  0  0  0  0
  138.4810   74.2490  222.1370 N   0  0  0  0  0  0  0  0  0  0  0  0
  139.5170   74.3350  221.1270 C   0  0  0  0  0  0  0  0  0  0  0  0
  140.5200   73.2850  221.4140 C   0  0  0  0  0  0  0  0  0  0  0  0
  141.7310   73.4740  221.1220 O   0  0  0  0  0  0  0  0  0  0  0  0
  140.1840   72.0510  222.0140 N   0  0  0  0  0  0  0  0  0  0  0  0
  139.9630   71.9040  223.4500 C   0  0  0  0  0  0  0  0  0  0  0  0
  139.9130   70.4160  223.5880 C   0  0  1  0  0  0  0  0  0  0  0  0
  139.0760   69.9870  224.7580 C   0  0  2  0  0  0  0  0  0  0  0  0
  137.8650   70.6570  224.7510 O   0  0  0  0  0  0  0  0  0  0  0  0
  139.8660   70.1620  225.9970 C   0  0  0  0  0  0  0  0  0  0  0  0
  140.3350   71.4340  226.3510 C   0  0  0  0  0  0  0  0  0  0  0  0
  141.0810   71.6450  227.4890 C   0  0  0  0  0  0  0  0  0  0  0  0
  141.4030   70.6080  228.3380 C   0  0  0  0  0  0  0  0  0  0  0  0
  140.9540   69.3470  228.0100 C   0  0  0  0  0  0  0  0  0  0  0  0
  140.2020   69.1470  226.8570 C   0  0  0  0  0  0  0  0  0  0  0  0
  139.3370   69.9060  222.2830 C   0  0  1  0  0  0  0  0  0  0  0  0
  137.9660   70.1560  222.2990 O   0  0  0  0  0  0  0  0  0  0  0  0
  140.0240   70.8170  221.3010 C   0  0  0  0  0  0  0  0  0  0  0  0
  136.3960   73.2590  223.0790 C   0  0  0  0  0  0  0  0  0  0  0  0
  135.8170   74.4590  223.4770 C   0  0  0  0  0  0  0  0  0  0  0  0
  134.8550   74.3770  224.4770 C   0  0  0  0  0  0  0  0  0  0  0  0
  134.5000   73.1490  225.0410 C   0  0  0  0  0  0  0  0  0  0  0  0
  133.5370   73.0920  226.0360 C   0  0  0  0  0  0  0  0  0  0  0  0
  133.1960   71.8580  226.5850 C   0  0  0  0  0  0  0  0  0  0  0  0
  133.8210   70.6960  226.1320 C   0  0  0  0  0  0  0  0  0  0  0  0
  134.7820   70.7490  225.1390 C   0  0  0  0  0  0  0  0  0  0  0  0
  135.1030   71.9870  224.6090 C   0  0  0  0  0  0  0  0  0  0  0  0
  136.0310   72.0910  223.6410 N   0  0  0  0  0  0  0  0  0  0  0  0
  138.4720   74.8830  222.9890 H   0  0  0  0  0  0  0  0  0  0  0  0
  139.0814   74.1733  220.1300 H   0  0  0  0  0  0  0  0  0  0  0  0
  139.9873   75.3292  221.1440 H   0  0  0  0  0  0  0  0  0  0  0  0
  140.7917   72.3347  224.0311 H   0  0  0  0  0  0  0  0  0  0  0  0
  139.0668   72.4213  223.8231 H   0  0  0  0  0  0  0  0  0  0  0  0
  140.9142   70.0033  223.7810 H   0  0  0  0  0  0  0  0  0  0  0  0
  138.8160   68.9200  224.6945 H   0  0  0  0  0  0  0  0  0  0  0  0
  137.3340   70.4130  223.9720 H   0  0  0  0  0  0  0  0  0  0  0  0
  140.1003   72.2894  225.7005 H   0  0  0  0  0  0  0  0  0  0  0  0
  141.4271   72.6620  227.7254 H   0  0  0  0  0  0  0  0  0  0  0  0
  141.9983   70.7811  229.2467 H   0  0  0  0  0  0  0  0  0  0  0  0
  141.1915   68.4944  228.6632 H   0  0  0  0  0  0  0  0  0  0  0  0
  139.8608   68.1276  226.6238 H   0  0  0  0  0  0  0  0  0  0  0  0
  139.4775   68.8355  222.0724 H   0  0  0  0  0  0  0  0  0  0  0  0
  137.7280   71.0610  222.6290 H   0  0  0  0  0  0  0  0  0  0  0  0
  141.0016   70.4071  221.0074 H   0  0  0  0  0  0  0  0  0  0  0  0
  139.4505   70.9407  220.3705 H   0  0  0  0  0  0  0  0  0  0  0  0
  136.1044   75.4200  223.0255 H   0  0  0  0  0  0  0  0  0  0  0  0
  134.3642   75.2957  224.8308 H   0  0  0  0  0  0  0  0  0  0  0  0
  133.0470   74.0116  226.3885 H   0  0  0  0  0  0  0  0  0  0  0  0
  132.4337   71.7998  227.3759 H   0  0  0  0  0  0  0  0  0  0  0  0
  133.5459   69.7253  226.5702 H   0  0  0  0  0  0  0  0  0  0  0  0
  135.2769   69.8343  224.7808 H   0  0  0  0  0  0  0  0  0  0  0  0
  1  2  2  0
  2  3  1  0
  3  4  1  0
  4  5  1  0
  5  6  2  0
  5  7  1  0
  7  8  1  0
  8  9  1  0
  9 10  1  0
 10 11  1  0
 10 12  1  0
 12 13  2  0
 13 14  1  0
 14 15  2  0
 15 16  1  0
 16 17  2  0
  9 18  1  0
 18 19  1  0
 18 20  1  0
  2 21  1  0
 21 22  2  0
 22 23  1  0
 23 24  2  0
 24 25  1  0
 25 26  2  0
 26 27  1  0
 27 28  2  0
 28 29  1  0
 29 30  2  0
 20  7  1  0
 30 21  1  0
 17 12  1  0
 29 24  1  0
  3 31  1  0
  4 32  1  0
  4 33  1  0
  8 34  1  0
  8 35  1  0
  9 36  1  1
 10 37  1  6
 11 38  1  0
 13 39  1  0
 14 40  1  0
 15 41  1  0
 16 42  1  0
 17 43  1  0
 18 44  1  6
 19 45  1  0
 20 46  1  0
 20 47  1  0
 22 48  1  0
 23 49  1  0
 25 50  1  0
 26 51  1  0
 27 52  1  0
 28 53  1  0
M  END
>  <smiles>  (27) 
O=C(NCC(=O)N1C[C@@H]([C@H](O)c2ccccc2)[C@@H](O)C1)c1ccc2ccccc2n1

>  <score_type>  (27) 
oracle

>  <origin>  (27) 
autodockgpu

>  <m_score__min__energy>  (27) 
-8.6999999999999993

>  <m_primary>  (27) 
energy

>  <rmsd>  (27) 
6.576607891058317

>  <m_score__min__rmsd>  (27) 
6.576607891058317

>  <meeko>  (27) 
{"free_energy": -5.92, "intermolecular_energy": -8.31, "internal_energy": -4.77, "cluster_size": 18, "cluster_id": 6, "rank_in_cluster": 17}

>  <energy>  (27) 
-6.07

>  <cluster_rmsd>  (27) 
1.1

>  <cluster>  (27) 
6

$$$$

     RDKit          3D

 53 56  0  0  0  0  0  0  0  0999 V2000
  137.1590   72.8890  221.0760 O   0  0  0  0  0  0  0  0  0  0  0  0
  137.2790   73.6610  222.0790 C   0  0  0  0  0  0  0  0  0  0  0  0
  138.4010   74.5310  222.2210 N   0  0  0  0  0  0  0  0  0  0  0  0
  139.4470   74.5610  221.2190 C   0  0  0  0  0  0  0  0  0  0  0  0
  140.3790   73.4470  221.5020 C   0  0  0  0  0  0  0  0  0  0  0  0
  141.6180   73.6020  221.3260 O   0  0  0  0  0  0  0  0  0  0  0  0
  139.9460   72.1870  221.9720 N   0  0  0  0  0  0  0  0  0  0  0  0
  139.7500   71.8960  223.3890 C   0  0  0  0  0  0  0  0  0  0  0  0
  139.5650   70.4130  223.3610 C   0  0  1  0  0  0  0  0  0  0  0  0
  138.7230   69.9280  224.5050 C   0  0  2  0  0  0  0  0  0  0  0  0
  137.5720   70.6900  224.6080 O   0  0  0  0  0  0  0  0  0  0  0  0
  139.5540   69.9050  225.7290 C   0  0  0  0  0  0  0  0  0  0  0  0
  139.8110   68.6890  226.3750 C   0  0  0  0  0  0  0  0  0  0  0  0
  140.5720   68.6180  227.5210 C   0  0  0  0  0  0  0  0  0  0  0  0
  141.1190   69.7500  228.0890 C   0  0  0  0  0  0  0  0  0  0  0  0
  140.8800   70.9580  227.4710 C   0  0  0  0  0  0  0  0  0  0  0  0
  140.1090   71.0160  226.3150 C   0  0  0  0  0  0  0  0  0  0  0  0
  138.9090   70.1110  222.0290 C   0  0  1  0  0  0  0  0  0  0  0  0
  137.5680   70.4790  222.1240 O   0  0  0  0  0  0  0  0  0  0  0  0
  139.6520   71.0630  221.1310 C   0  0  0  0  0  0  0  0  0  0  0  0
  136.2440   73.6770  223.1340 C   0  0  0  0  0  0  0  0  0  0  0  0
  135.6550   74.8940  223.4590 C   0  0  0  0  0  0  0  0  0  0  0  0
  134.6870   74.8640  224.4560 C   0  0  0  0  0  0  0  0  0  0  0  0
  134.3350   73.6680  225.0870 C   0  0  0  0  0  0  0  0  0  0  0  0
  133.3660   73.6630  226.0780 C   0  0  0  0  0  0  0  0  0  0  0  0
  133.0290   72.4610  226.6950 C   0  0  0  0  0  0  0  0  0  0  0  0
  133.6640   71.2790  226.3140 C   0  0  0  0  0  0  0  0  0  0  0  0
  134.6310   71.2800  225.3260 C   0  0  0  0  0  0  0  0  0  0  0  0
  134.9480   72.4880  224.7270 C   0  0  0  0  0  0  0  0  0  0  0  0
  135.8820   72.5410  223.7610 N   0  0  0  0  0  0  0  0  0  0  0  0
  138.4320   75.1470  223.0860 H   0  0  0  0  0  0  0  0  0  0  0  0
  139.0091   74.4369  220.2176 H   0  0  0  0  0  0  0  0  0  0  0  0
  139.9792   75.5232  221.2489 H   0  0  0  0  0  0  0  0  0  0  0  0
  140.6303   72.1808  223.9840 H   0  0  0  0  0  0  0  0  0  0  0  0
  138.9160   72.4452  223.8504 H   0  0  0  0  0  0  0  0  0  0  0  0
  140.5283   69.8931  223.4697 H   0  0  0  0  0  0  0  0  0  0  0  0
  138.3738   68.8984  224.3377 H   0  0  0  0  0  0  0  0  0  0  0  0
  137.6180   71.4740  224.0320 H   0  0  0  0  0  0  0  0  0  0  0  0
  139.3925   67.7627  225.9544 H   0  0  0  0  0  0  0  0  0  0  0  0
  140.7470   67.6397  227.9924 H   0  0  0  0  0  0  0  0  0  0  0  0
  141.7256   69.6902  229.0046 H   0  0  0  0  0  0  0  0  0  0  0  0
  141.3014   71.8817  227.8943 H   0  0  0  0  0  0  0  0  0  0  0  0
  139.9357   71.9970  225.8486 H   0  0  0  0  0  0  0  0  0  0  0  0
  138.9429   69.0638  221.6941 H   0  0  0  0  0  0  0  0  0  0  0  0
  137.4240   71.3580  222.5630 H   0  0  0  0  0  0  0  0  0  0  0  0
  140.5787   70.6031  220.7571 H   0  0  0  0  0  0  0  0  0  0  0  0
  139.0683   71.3445  220.2421 H   0  0  0  0  0  0  0  0  0  0  0  0
  135.9396   75.8292  222.9547 H   0  0  0  0  0  0  0  0  0  0  0  0
  134.1891   75.7986  224.7536 H   0  0  0  0  0  0  0  0  0  0  0  0
  132.8686   74.5984  226.3739 H   0  0  0  0  0  0  0  0  0  0  0  0
  132.2618   72.4436  227.4831 H   0  0  0  0  0  0  0  0  0  0  0  0
  133.3918   70.3336  226.8061 H   0  0  0  0  0  0  0  0  0  0  0  0
  135.1337   70.3492  225.0246 H   0  0  0  0  0  0  0  0  0  0  0  0
  1  2  2  0
  2  3  1  0
  3  4  1  0
  4  5  1  0
  5  6  2  0
  5  7  1  0
  7  8  1  0
  8  9  1  0
  9 10  1  0
 10 11  1  0
 10 12  1  0
 12 13  2  0
 13 14  1  0
 14 15  2  0
 15 16  1  0
 16 17  2  0
  9 18  1  0
 18 19  1  0
 18 20  1  0
  2 21  1  0
 21 22  2  0
 22 23  1  0
 23 24  2  0
 24 25  1  0
 25 26  2  0
 26 27  1  0
 27 28  2  0
 28 29  1  0
 29 30  2  0
 20  7  1  0
 30 21  1  0
 17 12  1  0
 29 24  1  0
  3 31  1  0
  4 32  1  0
  4 33  1  0
  8 34  1  0
  8 35  1  0
  9 36  1  6
 10 37  1  6
 11 38  1  0
 13 39  1  0
 14 40  1  0
 15 41  1  0
 16 42  1  0
 17 43  1  0
 18 44  1  6
 19 45  1  0
 20 46  1  0
 20 47  1  0
 22 48  1  0
 23 49  1  0
 25 50  1  0
 26 51  1  0
 27 52  1  0
 28 53  1  0
M  END
>  <smiles>  (28) 
O=C(NCC(=O)N1C[C@@H]([C@H](O)c2ccccc2)[C@@H](O)C1)c1ccc2ccccc2n1

>  <score_type>  (28) 
oracle

>  <origin>  (28) 
autodockgpu

>  <m_score__min__energy>  (28) 
-8.6999999999999993

>  <m_primary>  (28) 
energy

>  <rmsd>  (28) 
6.658907709203968

>  <m_score__min__rmsd>  (28) 
6.658907709203968

>  <meeko>  (28) 
{"free_energy": -6.07, "intermolecular_energy": -8.46, "internal_energy": -4.65, "cluster_size": 18, "cluster_id": 6, "rank_in_cluster": 5}

>  <energy>  (28) 
-6.07

>  <cluster_rmsd>  (28) 
1.08

>  <cluster>  (28) 
6

$$$$

     RDKit          3D

 53 56  0  0  0  0  0  0  0  0999 V2000
  139.4830   70.8000  221.3610 O   0  0  0  0  0  0  0  0  0  0  0  0
  139.5470   71.4320  222.4620 C   0  0  0  0  0  0  0  0  0  0  0  0
  139.5050   72.8580  222.5070 N   0  0  0  0  0  0  0  0  0  0  0  0
  139.3870   73.6350  221.2890 C   0  0  0  0  0  0  0  0  0  0  0  0
  139.6960   75.0440  221.6180 C   0  0  0  0  0  0  0  0  0  0  0  0
  139.3870   75.5090  222.7470 O   0  0  0  0  0  0  0  0  0  0  0  0
  140.3350   75.9190  220.7110 N   0  0  0  0  0  0  0  0  0  0  0  0
  140.1270   77.3640  220.7250 C   0  0  0  0  0  0  0  0  0  0  0  0
  140.7880   77.7680  219.4470 C   0  0  1  0  0  0  0  0  0  0  0  0
  141.3060   79.1760  219.5010 C   0  0  2  0  0  0  0  0  0  0  0  0
  142.5670   79.2440  218.9360 O   0  0  0  0  0  0  0  0  0  0  0  0
  141.2350   79.6540  220.9000 C   0  0  0  0  0  0  0  0  0  0  0  0
  142.2150   79.2610  221.8220 C   0  0  0  0  0  0  0  0  0  0  0  0
  142.1860   79.6720  223.1360 C   0  0  0  0  0  0  0  0  0  0  0  0
  141.1860   80.4960  223.6080 C   0  0  0  0  0  0  0  0  0  0  0  0
  140.2110   80.8950  222.7200 C   0  0  0  0  0  0  0  0  0  0  0  0
  140.2510   80.4720  221.3950 C   0  0  0  0  0  0  0  0  0  0  0  0
  141.9140   76.7760  219.2410 C   0  0  1  0  0  0  0  0  0  0  0  0
  142.9440   77.1160  220.1160 O   0  0  0  0  0  0  0  0  0  0  0  0
  141.2470   75.5020  219.6860 C   0  0  0  0  0  0  0  0  0  0  0  0
  139.6680   70.6960  223.7370 C   0  0  0  0  0  0  0  0  0  0  0  0
  139.2570   69.3680  223.7710 C   0  0  0  0  0  0  0  0  0  0  0  0
  139.3870   68.7120  224.9890 C   0  0  0  0  0  0  0  0  0  0  0  0
  139.9060   69.3660  226.1110 C   0  0  0  0  0  0  0  0  0  0  0  0
  140.0270   68.6910  227.3150 C   0  0  0  0  0  0  0  0  0  0  0  0
  140.5470   69.3590  228.4210 C   0  0  0  0  0  0  0  0  0  0  0  0
  140.9390   70.6930  228.3090 C   0  0  0  0  0  0  0  0  0  0  0  0
  140.8190   71.3690  227.1100 C   0  0  0  0  0  0  0  0  0  0  0  0
  140.3000   70.6830  226.0250 C   0  0  0  0  0  0  0  0  0  0  0  0
  140.1640   71.2970  224.8350 N   0  0  0  0  0  0  0  0  0  0  0  0
  139.5650   73.3160  223.4640 H   0  0  0  0  0  0  0  0  0  0  0  0
  140.0980   73.2620  220.5371 H   0  0  0  0  0  0  0  0  0  0  0  0
  138.3703   73.5512  220.8775 H   0  0  0  0  0  0  0  0  0  0  0  0
  139.0564   77.6167  220.7219 H   0  0  0  0  0  0  0  0  0  0  0  0
  140.5266   77.8678  221.6175 H   0  0  0  0  0  0  0  0  0  0  0  0
  140.0729   77.7540  218.6113 H   0  0  0  0  0  0  0  0  0  0  0  0
  140.6837   79.8552  218.8998 H   0  0  0  0  0  0  0  0  0  0  0  0
  143.2330   78.8290  219.5120 H   0  0  0  0  0  0  0  0  0  0  0  0
  143.0314   78.6048  221.4860 H   0  0  0  0  0  0  0  0  0  0  0  0
  142.9766   79.3362  223.8231 H   0  0  0  0  0  0  0  0  0  0  0  0
  141.1674   80.8236  224.6579 H   0  0  0  0  0  0  0  0  0  0  0  0
  139.3966   81.5514  223.0603 H   0  0  0  0  0  0  0  0  0  0  0  0
  139.4568   80.8091  220.7127 H   0  0  0  0  0  0  0  0  0  0  0  0
  142.3415   76.7258  218.2287 H   0  0  0  0  0  0  0  0  0  0  0  0
  143.7160   77.5550  219.6750 H   0  0  0  0  0  0  0  0  0  0  0  0
  140.7064   75.0328  218.8507 H   0  0  0  0  0  0  0  0  0  0  0  0
  141.9683   74.7529  220.0446 H   0  0  0  0  0  0  0  0  0  0  0  0
  138.8509   68.8640  222.8816 H   0  0  0  0  0  0  0  0  0  0  0  0
  139.0763   67.6601  225.0722 H   0  0  0  0  0  0  0  0  0  0  0  0
  139.7158   67.6391  227.3964 H   0  0  0  0  0  0  0  0  0  0  0  0
  140.6485   68.8347  229.3827 H   0  0  0  0  0  0  0  0  0  0  0  0
  141.3491   71.2137  229.1869 H   0  0  0  0  0  0  0  0  0  0  0  0
  141.1267   72.4212  227.0200 H   0  0  0  0  0  0  0  0  0  0  0  0
  1  2  2  0
  2  3  1  0
  3  4  1  0
  4  5  1  0
  5  6  2  0
  5  7  1  0
  7  8  1  0
  8  9  1  0
  9 10  1  0
 10 11  1  0
 10 12  1  0
 12 13  2  0
 13 14  1  0
 14 15  2  0
 15 16  1  0
 16 17  2  0
  9 18  1  0
 18 19  1  0
 18 20  1  0
  2 21  1  0
 21 22  2  0
 22 23  1  0
 23 24  2  0
 24 25  1  0
 25 26  2  0
 26 27  1  0
 27 28  2  0
 28 29  1  0
 29 30  2  0
 20  7  1  0
 30 21  1  0
 17 12  1  0
 29 24  1  0
  3 31  1  0
  4 32  1  0
  4 33  1  0
  8 34  1  0
  8 35  1  0
  9 36  1  6
 10 37  1  6
 11 38  1  0
 13 39  1  0
 14 40  1  0
 15 41  1  0
 16 42  1  0
 17 43  1  0
 18 44  1  6
 19 45  1  0
 20 46  1  0
 20 47  1  0
 22 48  1  0
 23 49  1  0
 25 50  1  0
 26 51  1  0
 27 52  1  0
 28 53  1  0
M  END
>  <smiles>  (29) 
O=C(NCC(=O)N1C[C@@H]([C@H](O)c2ccccc2)[C@@H](O)C1)c1ccc2ccccc2n1

>  <score_type>  (29) 
oracle

>  <origin>  (29) 
autodockgpu

>  <m_score__min__energy>  (29) 
-8.6999999999999993

>  <m_primary>  (29) 
energy

>  <rmsd>  (29) 
2.180536550821735

>  <m_score__min__rmsd>  (29) 
2.180536550821735

>  <meeko>  (29) 
{"free_energy": -8.41, "intermolecular_energy": -10.8, "internal_energy": -2.73, "cluster_size": 15, "cluster_id": 1, "rank_in_cluster": 9}

>  <energy>  (29) 
-6.06

>  <cluster_rmsd>  (29) 
1.1

>  <cluster>  (29) 
6

$$$$

     RDKit          3D

 53 56  0  0  0  0  0  0  0  0999 V2000
  139.6650   70.7620  221.2820 O   0  0  0  0  0  0  0  0  0  0  0  0
  139.6560   71.3860  222.3890 C   0  0  0  0  0  0  0  0  0  0  0  0
  139.5900   72.8100  222.4430 N   0  0  0  0  0  0  0  0  0  0  0  0
  139.5310   73.5950  221.2260 C   0  0  0  0  0  0  0  0  0  0  0  0
  139.7800   75.0090  221.5840 C   0  0  0  0  0  0  0  0  0  0  0  0
  139.4500   75.4380  222.7220 O   0  0  0  0  0  0  0  0  0  0  0  0
  140.3850   75.9280  220.6980 N   0  0  0  0  0  0  0  0  0  0  0  0
  140.1910   77.3720  220.8010 C   0  0  0  0  0  0  0  0  0  0  0  0
  140.7960   77.8410  219.5170 C   0  0  1  0  0  0  0  0  0  0  0  0
  141.3290   79.2400  219.6240 C   0  0  2  0  0  0  0  0  0  0  0  0
  142.5760   79.3240  219.0310 O   0  0  0  0  0  0  0  0  0  0  0  0
  141.2980   79.6520  221.0460 C   0  0  0  0  0  0  0  0  0  0  0  0
  142.3150   79.2360  221.9150 C   0  0  0  0  0  0  0  0  0  0  0  0
  142.3240   79.5860  223.2470 C   0  0  0  0  0  0  0  0  0  0  0  0
  141.3260   80.3690  223.7890 C   0  0  0  0  0  0  0  0  0  0  0  0
  140.3150   80.7900  222.9540 C   0  0  0  0  0  0  0  0  0  0  0  0
  140.3170   80.4280  221.6110 C   0  0  0  0  0  0  0  0  0  0  0  0
  141.9030   76.8540  219.2060 C   0  0  1  0  0  0  0  0  0  0  0  0
  142.9750   77.1390  220.0500 O   0  0  0  0  0  0  0  0  0  0  0  0
  141.2450   75.5620  219.6110 C   0  0  0  0  0  0  0  0  0  0  0  0
  139.7140   70.6410  223.6640 C   0  0  0  0  0  0  0  0  0  0  0  0
  139.2290   69.3380  223.6860 C   0  0  0  0  0  0  0  0  0  0  0  0
  139.3030   68.6730  224.9050 C   0  0  0  0  0  0  0  0  0  0  0  0
  139.8380   69.2930  226.0370 C   0  0  0  0  0  0  0  0  0  0  0  0
  139.9020   68.6110  227.2410 C   0  0  0  0  0  0  0  0  0  0  0  0
  140.4390   69.2460  228.3570 C   0  0  0  0  0  0  0  0  0  0  0  0
  140.9070   70.5560  228.2560 C   0  0  0  0  0  0  0  0  0  0  0  0
  140.8450   71.2410  227.0570 C   0  0  0  0  0  0  0  0  0  0  0  0
  140.3070   70.5870  225.9610 C   0  0  0  0  0  0  0  0  0  0  0  0
  140.2250   71.2100  224.7720 N   0  0  0  0  0  0  0  0  0  0  0  0
  139.5870   73.2620  223.4040 H   0  0  0  0  0  0  0  0  0  0  0  0
  140.2993   73.2475  220.5196 H   0  0  0  0  0  0  0  0  0  0  0  0
  138.5456   73.4885  220.7488 H   0  0  0  0  0  0  0  0  0  0  0  0
  139.1238   77.6316  220.8618 H   0  0  0  0  0  0  0  0  0  0  0  0
  140.6359   77.8234  221.7000 H   0  0  0  0  0  0  0  0  0  0  0  0
  140.0434   77.8774  218.7156 H   0  0  0  0  0  0  0  0  0  0  0  0
  140.6983   79.9520  219.0714 H   0  0  0  0  0  0  0  0  0  0  0  0
  142.7310   78.5720  218.4320 H   0  0  0  0  0  0  0  0  0  0  0  0
  143.1306   78.6113  221.5218 H   0  0  0  0  0  0  0  0  0  0  0  0
  143.1432   79.2342  223.8914 H   0  0  0  0  0  0  0  0  0  0  0  0
  141.3373   80.6479  224.8530 H   0  0  0  0  0  0  0  0  0  0  0  0
  139.5020   81.4156  223.3510 H   0  0  0  0  0  0  0  0  0  0  0  0
  139.4939   80.7801  220.9718 H   0  0  0  0  0  0  0  0  0  0  0  0
  142.2838   76.8563  218.1740 H   0  0  0  0  0  0  0  0  0  0  0  0
  143.5700   77.8580  219.7130 H   0  0  0  0  0  0  0  0  0  0  0  0
  140.6624   75.1433  218.7772 H   0  0  0  0  0  0  0  0  0  0  0  0
  141.9749   74.7894  219.8944 H   0  0  0  0  0  0  0  0  0  0  0  0
  138.8099   68.8596  222.7885 H   0  0  0  0  0  0  0  0  0  0  0  0
  138.9334   67.6396  224.9794 H   0  0  0  0  0  0  0  0  0  0  0  0
  139.5320   67.5777  227.3143 H   0  0  0  0  0  0  0  0  0  0  0  0
  140.4943   68.7148  229.3186 H   0  0  0  0  0  0  0  0  0  0  0  0
  141.3311   71.0506  229.1423 H   0  0  0  0  0  0  0  0  0  0  0  0
  141.2120   72.2748  226.9757 H   0  0  0  0  0  0  0  0  0  0  0  0
  1  2  2  0
  2  3  1  0
  3  4  1  0
  4  5  1  0
  5  6  2  0
  5  7  1  0
  7  8  1  0
  8  9  1  0
  9 10  1  0
 10 11  1  0
 10 12  1  0
 12 13  2  0
 13 14  1  0
 14 15  2  0
 15 16  1  0
 16 17  2  0
  9 18  1  0
 18 19  1  0
 18 20  1  0
  2 21  1  0
 21 22  2  0
 22 23  1  0
 23 24  2  0
 24 25  1  0
 25 26  2  0
 26 27  1  0
 27 28  2  0
 28 29  1  0
 29 30  2  0
 20  7  1  0
 30 21  1  0
 17 12  1  0
 29 24  1  0
  3 31  1  0
  4 32  1  0
  4 33  1  0
  8 34  1  0
  8 35  1  0
  9 36  1  6
 10 37  1  6
 11 38  1  0
 13 39  1  0
 14 40  1  0
 15 41  1  0
 16 42  1  0
 17 43  1  0
 18 44  1  6
 19 45  1  0
 20 46  1  0
 20 47  1  0
 22 48  1  0
 23 49  1  0
 25 50  1  0
 26 51  1  0
 27 52  1  0
 28 53  1  0
M  END
>  <smiles>  (30) 
O=C(NCC(=O)N1C[C@@H]([C@H](O)c2ccccc2)[C@@H](O)C1)c1ccc2ccccc2n1

>  <score_type>  (30) 
oracle

>  <origin>  (30) 
autodockgpu

>  <m_score__min__energy>  (30) 
-8.6999999999999993

>  <m_primary>  (30) 
energy

>  <rmsd>  (30) 
2.1477887481165783

>  <m_score__min__rmsd>  (30) 
2.1477887481165783

>  <meeko>  (30) 
{"free_energy": -8.24, "intermolecular_energy": -10.63, "internal_energy": -2.65, "cluster_size": 15, "cluster_id": 1, "rank_in_cluster": 11}

>  <energy>  (30) 
-6.06

>  <cluster_rmsd>  (30) 
1.06

>  <cluster>  (30) 
6

$$$$

     RDKit          3D

 53 56  0  0  0  0  0  0  0  0999 V2000
  136.8960   71.7020  221.3560 O   0  0  0  0  0  0  0  0  0  0  0  0
  137.1060   72.5600  222.2710 C   0  0  0  0  0  0  0  0  0  0  0  0
  138.2670   73.3890  222.2650 N   0  0  0  0  0  0  0  0  0  0  0  0
  139.2520   73.2760  221.2070 C   0  0  0  0  0  0  0  0  0  0  0  0
  140.1390   72.1370  221.5300 C   0  0  0  0  0  0  0  0  0  0  0  0
  141.3580   72.1790  221.2150 O   0  0  0  0  0  0  0  0  0  0  0  0
  139.6820   70.9760  222.1910 N   0  0  0  0  0  0  0  0  0  0  0  0
  139.5780   70.8810  223.6450 C   0  0  0  0  0  0  0  0  0  0  0  0
  139.3210   69.4200  223.8260 C   0  0  1  0  0  0  0  0  0  0  0  0
  138.5440   69.1360  225.0790 C   0  0  2  0  0  0  0  0  0  0  0  0
  137.4620   69.9940  225.1760 O   0  0  0  0  0  0  0  0  0  0  0  0
  139.4700   69.1860  226.2330 C   0  0  0  0  0  0  0  0  0  0  0  0
  139.9120   70.4230  226.7200 C   0  0  0  0  0  0  0  0  0  0  0  0
  140.7800   70.5190  227.7850 C   0  0  0  0  0  0  0  0  0  0  0  0
  141.2570   69.3950  228.4250 C   0  0  0  0  0  0  0  0  0  0  0  0
  140.8360   68.1670  227.9630 C   0  0  0  0  0  0  0  0  0  0  0  0
  139.9600   68.0830  226.8870 C   0  0  0  0  0  0  0  0  0  0  0  0
  138.5530   68.9870  222.5940 C   0  0  1  0  0  0  0  0  0  0  0  0
  137.2430   69.4410  222.7300 O   0  0  0  0  0  0  0  0  0  0  0  0
  139.2720   69.7710  221.5290 C   0  0  0  0  0  0  0  0  0  0  0  0
  136.1380   72.7210  223.3760 C   0  0  0  0  0  0  0  0  0  0  0  0
  135.6700   74.0000  223.6570 C   0  0  0  0  0  0  0  0  0  0  0  0
  134.7610   74.1080  224.7040 C   0  0  0  0  0  0  0  0  0  0  0  0
  134.3490   72.9820  225.4230 C   0  0  0  0  0  0  0  0  0  0  0  0
  133.4410   73.1140  226.4620 C   0  0  0  0  0  0  0  0  0  0  0  0
  133.0430   71.9810  227.1660 C   0  0  0  0  0  0  0  0  0  0  0  0
  133.5560   70.7300  226.8240 C   0  0  0  0  0  0  0  0  0  0  0  0
  134.4620   70.5950  225.7890 C   0  0  0  0  0  0  0  0  0  0  0  0
  134.8420   71.7360  225.1030 C   0  0  0  0  0  0  0  0  0  0  0  0
  135.7210   71.6570  224.0870 N   0  0  0  0  0  0  0  0  0  0  0  0
  138.3740   74.0820  223.0620 H   0  0  0  0  0  0  0  0  0  0  0  0
  138.7486   73.0965  220.2456 H   0  0  0  0  0  0  0  0  0  0  0  0
  139.8357   74.2049  221.1266 H   0  0  0  0  0  0  0  0  0  0  0  0
  140.5126   71.1893  224.1365 H   0  0  0  0  0  0  0  0  0  0  0  0
  138.8076   71.5315  224.0847 H   0  0  0  0  0  0  0  0  0  0  0  0
  140.2638   68.8641  223.9364 H   0  0  0  0  0  0  0  0  0  0  0  0
  138.1106   68.1252  225.0609 H   0  0  0  0  0  0  0  0  0  0  0  0
  136.8240   69.8360  224.4570 H   0  0  0  0  0  0  0  0  0  0  0  0
  139.5552   71.3449  226.2375 H   0  0  0  0  0  0  0  0  0  0  0  0
  141.0992   71.5128  228.1320 H   0  0  0  0  0  0  0  0  0  0  0  0
  141.9500   69.4757  229.2754 H   0  0  0  0  0  0  0  0  0  0  0  0
  141.1953   67.2477  228.4486 H   0  0  0  0  0  0  0  0  0  0  0  0
  139.6449   67.0866  226.5437 H   0  0  0  0  0  0  0  0  0  0  0  0
  138.5107   67.9051  222.3998 H   0  0  0  0  0  0  0  0  0  0  0  0
  137.1740   70.3750  223.0570 H   0  0  0  0  0  0  0  0  0  0  0  0
  140.1450   69.2141  221.1578 H   0  0  0  0  0  0  0  0  0  0  0  0
  138.6376   69.9684  220.6523 H   0  0  0  0  0  0  0  0  0  0  0  0
  136.0006   74.8780  223.0827 H   0  0  0  0  0  0  0  0  0  0  0  0
  134.3592   75.0966  224.9710 H   0  0  0  0  0  0  0  0  0  0  0  0
  133.0394   74.1031  226.7273 H   0  0  0  0  0  0  0  0  0  0  0  0
  132.3232   72.0724  227.9928 H   0  0  0  0  0  0  0  0  0  0  0  0
  133.2356   69.8397  227.3850 H   0  0  0  0  0  0  0  0  0  0  0  0
  134.8693   69.6097  225.5182 H   0  0  0  0  0  0  0  0  0  0  0  0
  1  2  2  0
  2  3  1  0
  3  4  1  0
  4  5  1  0
  5  6  2  0
  5  7  1  0
  7  8  1  0
  8  9  1  0
  9 10  1  0
 10 11  1  0
 10 12  1  0
 12 13  2  0
 13 14  1  0
 14 15  2  0
 15 16  1  0
 16 17  2  0
  9 18  1  0
 18 19  1  0
 18 20  1  0
  2 21  1  0
 21 22  2  0
 22 23  1  0
 23 24  2  0
 24 25  1  0
 25 26  2  0
 26 27  1  0
 27 28  2  0
 28 29  1  0
 29 30  2  0
 20  7  1  0
 30 21  1  0
 17 12  1  0
 29 24  1  0
  3 31  1  0
  4 32  1  0
  4 33  1  0
  8 34  1  0
  8 35  1  0
  9 36  1  1
 10 37  1  6
 11 38  1  0
 13 39  1  0
 14 40  1  0
 15 41  1  0
 16 42  1  0
 17 43  1  0
 18 44  1  6
 19 45  1  0
 20 46  1  0
 20 47  1  0
 22 48  1  0
 23 49  1  0
 25 50  1  0
 26 51  1  0
 27 52  1  0
 28 53  1  0
M  END
>  <smiles>  (31) 
O=C(NCC(=O)N1C[C@@H]([C@H](O)c2ccccc2)[C@@H](O)C1)c1ccc2ccccc2n1

>  <score_type>  (31) 
oracle

>  <origin>  (31) 
autodockgpu

>  <m_score__min__energy>  (31) 
-8.6999999999999993

>  <m_primary>  (31) 
energy

>  <rmsd>  (31) 
6.963070599510439

>  <m_score__min__rmsd>  (31) 
6.963070599510439

>  <meeko>  (31) 
{"free_energy": -6.07, "intermolecular_energy": -8.46, "internal_energy": -4.91, "cluster_size": 18, "cluster_id": 6, "rank_in_cluster": 3}

>  <energy>  (31) 
-6.06

>  <cluster_rmsd>  (31) 
1.09

>  <cluster>  (31) 
6

$$$$

     RDKit          3D

 53 56  0  0  0  0  0  0  0  0999 V2000
  136.9040   71.4970  221.3760 O   0  0  0  0  0  0  0  0  0  0  0  0
  137.1290   72.3710  222.2710 C   0  0  0  0  0  0  0  0  0  0  0  0
  138.3000   73.1860  222.2410 N   0  0  0  0  0  0  0  0  0  0  0  0
  139.2760   73.0400  221.1800 C   0  0  0  0  0  0  0  0  0  0  0  0
  140.1510   71.8950  221.5200 C   0  0  0  0  0  0  0  0  0  0  0  0
  141.3590   71.8980  221.1620 O   0  0  0  0  0  0  0  0  0  0  0  0
  139.6940   70.7730  222.2440 N   0  0  0  0  0  0  0  0  0  0  0  0
  139.6100   70.7510  223.7030 C   0  0  0  0  0  0  0  0  0  0  0  0
  139.3430   69.3030  223.9600 C   0  0  1  0  0  0  0  0  0  0  0  0
  138.5820   69.0900  225.2360 C   0  0  2  0  0  0  0  0  0  0  0  0
  137.4950   69.9440  225.2940 O   0  0  0  0  0  0  0  0  0  0  0  0
  139.5200   69.2140  226.3740 C   0  0  0  0  0  0  0  0  0  0  0  0
  140.0020   68.0630  227.0110 C   0  0  0  0  0  0  0  0  0  0  0  0
  140.8690   68.1290  228.0780 C   0  0  0  0  0  0  0  0  0  0  0  0
  141.3060   69.3400  228.5730 C   0  0  0  0  0  0  0  0  0  0  0  0
  140.8450   70.4860  227.9640 C   0  0  0  0  0  0  0  0  0  0  0  0
  139.9690   70.4060  226.8870 C   0  0  0  0  0  0  0  0  0  0  0  0
  138.5540   68.8170  222.7620 C   0  0  1  0  0  0  0  0  0  0  0  0
  137.2500   69.2890  222.8930 O   0  0  0  0  0  0  0  0  0  0  0  0
  139.2640   69.5400  221.6490 C   0  0  0  0  0  0  0  0  0  0  0  0
  136.1700   72.5670  223.3790 C   0  0  0  0  0  0  0  0  0  0  0  0
  135.7550   73.8620  223.6670 C   0  0  0  0  0  0  0  0  0  0  0  0
  134.8530   74.0020  224.7150 C   0  0  0  0  0  0  0  0  0  0  0  0
  134.3970   72.8910  225.4310 C   0  0  0  0  0  0  0  0  0  0  0  0
  133.4970   73.0540  226.4720 C   0  0  0  0  0  0  0  0  0  0  0  0
  133.0540   71.9360  227.1720 C   0  0  0  0  0  0  0  0  0  0  0  0
  133.5170   70.6660  226.8240 C   0  0  0  0  0  0  0  0  0  0  0  0
  134.4140   70.4990  225.7860 C   0  0  0  0  0  0  0  0  0  0  0  0
  134.8390   71.6270  225.1040 C   0  0  0  0  0  0  0  0  0  0  0  0
  135.7120   71.5170  224.0870 N   0  0  0  0  0  0  0  0  0  0  0  0
  138.4210   73.8940  223.0230 H   0  0  0  0  0  0  0  0  0  0  0  0
  138.7642   72.8485  220.2253 H   0  0  0  0  0  0  0  0  0  0  0  0
  139.8710   73.9595  221.0779 H   0  0  0  0  0  0  0  0  0  0  0  0
  140.5542   71.0745  224.1655 H   0  0  0  0  0  0  0  0  0  0  0  0
  138.8516   71.4296  224.1205 H   0  0  0  0  0  0  0  0  0  0  0  0
  140.2819   68.7437  224.0847 H   0  0  0  0  0  0  0  0  0  0  0  0
  138.1553   68.0772  225.2832 H   0  0  0  0  0  0  0  0  0  0  0  0
  137.4770   70.5420  224.5250 H   0  0  0  0  0  0  0  0  0  0  0  0
  139.6777   67.0768  226.6474 H   0  0  0  0  0  0  0  0  0  0  0  0
  141.2204   67.1973  228.5453 H   0  0  0  0  0  0  0  0  0  0  0  0
  141.9994   69.3888  229.4255 H   0  0  0  0  0  0  0  0  0  0  0  0
  141.1715   71.4700  228.3316 H   0  0  0  0  0  0  0  0  0  0  0  0
  139.6195   71.3409  226.4246 H   0  0  0  0  0  0  0  0  0  0  0  0
  138.5000   67.7272  222.6228 H   0  0  0  0  0  0  0  0  0  0  0  0
  137.1940   70.2480  223.1390 H   0  0  0  0  0  0  0  0  0  0  0  0
  140.1267   68.9572  221.2939 H   0  0  0  0  0  0  0  0  0  0  0  0
  138.6186   69.6992  220.7726 H   0  0  0  0  0  0  0  0  0  0  0  0
  136.1206   74.7286  223.0966 H   0  0  0  0  0  0  0  0  0  0  0  0
  134.4913   75.0049  224.9860 H   0  0  0  0  0  0  0  0  0  0  0  0
  133.1363   74.0574  226.7423 H   0  0  0  0  0  0  0  0  0  0  0  0
  132.3389   72.0530  227.9996 H   0  0  0  0  0  0  0  0  0  0  0  0
  133.1635   69.7870  227.3830 H   0  0  0  0  0  0  0  0  0  0  0  0
  134.7798   69.4991  225.5095 H   0  0  0  0  0  0  0  0  0  0  0  0
  1  2  2  0
  2  3  1  0
  3  4  1  0
  4  5  1  0
  5  6  2  0
  5  7  1  0
  7  8  1  0
  8  9  1  0
  9 10  1  0
 10 11  1  0
 10 12  1  0
 12 13  2  0
 13 14  1  0
 14 15  2  0
 15 16  1  0
 16 17  2  0
  9 18  1  0
 18 19  1  0
 18 20  1  0
  2 21  1  0
 21 22  2  0
 22 23  1  0
 23 24  2  0
 24 25  1  0
 25 26  2  0
 26 27  1  0
 27 28  2  0
 28 29  1  0
 29 30  2  0
 20  7  1  0
 30 21  1  0
 17 12  1  0
 29 24  1  0
  3 31  1  0
  4 32  1  0
  4 33  1  0
  8 34  1  0
  8 35  1  0
  9 36  1  1
 10 37  1  6
 11 38  1  0
 13 39  1  0
 14 40  1  0
 15 41  1  0
 16 42  1  0
 17 43  1  0
 18 44  1  6
 19 45  1  0
 20 46  1  0
 20 47  1  0
 22 48  1  0
 23 49  1  0
 25 50  1  0
 26 51  1  0
 27 52  1  0
 28 53  1  0
M  END
>  <smiles>  (32) 
O=C(NCC(=O)N1C[C@@H]([C@H](O)c2ccccc2)[C@@H](O)C1)c1ccc2ccccc2n1

>  <score_type>  (32) 
oracle

>  <origin>  (32) 
autodockgpu

>  <m_score__min__energy>  (32) 
-8.6999999999999993

>  <m_primary>  (32) 
energy

>  <rmsd>  (32) 
6.992023177584894

>  <m_score__min__rmsd>  (32) 
6.992023177584894

>  <meeko>  (32) 
{"free_energy": -6.05, "intermolecular_energy": -8.44, "internal_energy": -4.8, "cluster_size": 18, "cluster_id": 6, "rank_in_cluster": 12}

>  <energy>  (32) 
-6.05

>  <cluster_rmsd>  (32) 
1.53

>  <cluster>  (32) 
6

$$$$

     RDKit          3D

 53 56  0  0  0  0  0  0  0  0999 V2000
  137.6780   73.3650  222.0960 O   0  0  0  0  0  0  0  0  0  0  0  0
  137.9100   72.1260  221.9330 C   0  0  0  0  0  0  0  0  0  0  0  0
  137.7860   71.5050  220.6550 N   0  0  0  0  0  0  0  0  0  0  0  0
  137.3870   72.2750  219.4930 C   0  0  0  0  0  0  0  0  0  0  0  0
  138.5710   73.0220  219.0140 C   0  0  0  0  0  0  0  0  0  0  0  0
  138.7650   73.1680  217.7780 O   0  0  0  0  0  0  0  0  0  0  0  0
  139.5190   73.5960  219.8900 N   0  0  0  0  0  0  0  0  0  0  0  0
  139.3130   74.8870  220.5430 C   0  0  0  0  0  0  0  0  0  0  0  0
  140.6700   75.1460  221.1140 C   0  0  1  0  0  0  0  0  0  0  0  0
  140.6090   76.0110  222.3390 C   0  0  2  0  0  0  0  0  0  0  0  0
  139.3880   75.8590  222.9720 O   0  0  0  0  0  0  0  0  0  0  0  0
  140.9310   77.4030  221.9540 C   0  0  0  0  0  0  0  0  0  0  0  0
  141.0780   78.3850  222.9420 C   0  0  0  0  0  0  0  0  0  0  0  0
  141.3680   79.6950  222.6310 C   0  0  0  0  0  0  0  0  0  0  0  0
  141.5290   80.1020  221.3240 C   0  0  0  0  0  0  0  0  0  0  0  0
  141.3880   79.1550  220.3340 C   0  0  0  0  0  0  0  0  0  0  0  0
  141.0940   77.8350  220.6610 C   0  0  0  0  0  0  0  0  0  0  0  0
  141.2440   73.7810  221.4320 C   0  0  1  0  0  0  0  0  0  0  0  0
  140.6230   73.3200  222.5910 O   0  0  0  0  0  0  0  0  0  0  0  0
  140.7740   72.9960  220.2380 C   0  0  0  0  0  0  0  0  0  0  0  0
  138.3220   71.2890  223.0800 C   0  0  0  0  0  0  0  0  0  0  0  0
  137.6970   70.0580  223.2520 C   0  0  0  0  0  0  0  0  0  0  0  0
  138.1140   69.3030  224.3420 C   0  0  0  0  0  0  0  0  0  0  0  0
  139.1080   69.7680  225.2080 C   0  0  0  0  0  0  0  0  0  0  0  0
  139.5070   68.9970  226.2870 C   0  0  0  0  0  0  0  0  0  0  0  0
  140.4990   69.4770  227.1380 C   0  0  0  0  0  0  0  0  0  0  0  0
  141.0800   70.7230  226.8990 C   0  0  0  0  0  0  0  0  0  0  0  0
  140.6840   71.4950  225.8230 C   0  0  0  0  0  0  0  0  0  0  0  0
  139.6970   70.9950  224.9910 C   0  0  0  0  0  0  0  0  0  0  0  0
  139.2770   71.7080  223.9310 N   0  0  0  0  0  0  0  0  0  0  0  0
  137.9960   70.4650  220.5960 H   0  0  0  0  0  0  0  0  0  0  0  0
  137.0263   71.5998  218.7030 H   0  0  0  0  0  0  0  0  0  0  0  0
  136.5753   72.9700  219.7541 H   0  0  0  0  0  0  0  0  0  0  0  0
  139.0260   75.6635  219.8186 H   0  0  0  0  0  0  0  0  0  0  0  0
  138.5028   74.8914  221.2870 H   0  0  0  0  0  0  0  0  0  0  0  0
  141.3003   75.6975  220.4009 H   0  0  0  0  0  0  0  0  0  0  0  0
  141.3593   75.7050  223.0830 H   0  0  0  0  0  0  0  0  0  0  0  0
  139.1170   74.9240  222.9910 H   0  0  0  0  0  0  0  0  0  0  0  0
  140.9582   78.1014  223.9980 H   0  0  0  0  0  0  0  0  0  0  0  0
  141.4732   80.4310  223.4417 H   0  0  0  0  0  0  0  0  0  0  0  0
  141.7625   81.1488  221.0797 H   0  0  0  0  0  0  0  0  0  0  0  0
  141.5084   79.4437  219.2794 H   0  0  0  0  0  0  0  0  0  0  0  0
  140.9872   77.1039  219.8461 H   0  0  0  0  0  0  0  0  0  0  0  0
  142.3307   73.7346  221.5963 H   0  0  0  0  0  0  0  0  0  0  0  0
  139.7080   73.6800  222.7260 H   0  0  0  0  0  0  0  0  0  0  0  0
  141.4907   73.0829  219.4081 H   0  0  0  0  0  0  0  0  0  0  0  0
  140.6804   71.9212  220.4525 H   0  0  0  0  0  0  0  0  0  0  0  0
  136.9163   69.7020  222.5637 H   0  0  0  0  0  0  0  0  0  0  0  0
  137.6533   68.3213  224.5266 H   0  0  0  0  0  0  0  0  0  0  0  0
  139.0450   68.0156  226.4698 H   0  0  0  0  0  0  0  0  0  0  0  0
  140.8246   68.8741  227.9985 H   0  0  0  0  0  0  0  0  0  0  0  0
  141.8632   71.0956  227.5756 H   0  0  0  0  0  0  0  0  0  0  0  0
  141.1398   72.4780  225.6333 H   0  0  0  0  0  0  0  0  0  0  0  0
  1  2  2  0
  2  3  1  0
  3  4  1  0
  4  5  1  0
  5  6  2  0
  5  7  1  0
  7  8  1  0
  8  9  1  0
  9 10  1  0
 10 11  1  0
 10 12  1  0
 12 13  2  0
 13 14  1  0
 14 15  2  0
 15 16  1  0
 16 17  2  0
  9 18  1  0
 18 19  1  0
 18 20  1  0
  2 21  1  0
 21 22  2  0
 22 23  1  0
 23 24  2  0
 24 25  1  0
 25 26  2  0
 26 27  1  0
 27 28  2  0
 28 29  1  0
 29 30  2  0
 20  7  1  0
 30 21  1  0
 17 12  1  0
 29 24  1  0
  3 31  1  0
  4 32  1  0
  4 33  1  0
  8 34  1  0
  8 35  1  0
  9 36  1  6
 10 37  1  1
 11 38  1  0
 13 39  1  0
 14 40  1  0
 15 41  1  0
 16 42  1  0
 17 43  1  0
 18 44  1  1
 19 45  1  0
 20 46  1  0
 20 47  1  0
 22 48  1  0
 23 49  1  0
 25 50  1  0
 26 51  1  0
 27 52  1  0
 28 53  1  0
M  END
>  <smiles>  (33) 
O=C(NCC(=O)N1C[C@@H]([C@H](O)c2ccccc2)[C@@H](O)C1)c1ccc2ccccc2n1

>  <score_type>  (33) 
oracle

>  <origin>  (33) 
autodockgpu

>  <m_score__min__energy>  (33) 
-8.6999999999999993

>  <m_primary>  (33) 
energy

>  <rmsd>  (33) 
3.159291110471716

>  <m_score__min__rmsd>  (33) 
3.159291110471716

>  <meeko>  (33) 
{"free_energy": -6.47, "intermolecular_energy": -8.86, "internal_energy": -4.03, "cluster_size": 4, "cluster_id": 7, "rank_in_cluster": 3}

>  <energy>  (33) 
-6.05

>  <cluster_rmsd>  (33) 
1.14

>  <cluster>  (33) 
6

$$$$

     RDKit          3D

 53 56  0  0  0  0  0  0  0  0999 V2000
  136.9360   71.8470  221.2730 O   0  0  0  0  0  0  0  0  0  0  0  0
  137.1240   72.6760  222.2180 C   0  0  0  0  0  0  0  0  0  0  0  0
  138.2760   73.5180  222.2550 N   0  0  0  0  0  0  0  0  0  0  0  0
  139.2750   73.4510  221.2080 C   0  0  0  0  0  0  0  0  0  0  0  0
  140.1750   72.3150  221.5090 C   0  0  0  0  0  0  0  0  0  0  0  0
  141.3950   72.3800  221.2020 O   0  0  0  0  0  0  0  0  0  0  0  0
  139.7290   71.1330  222.1390 N   0  0  0  0  0  0  0  0  0  0  0  0
  139.6000   71.0090  223.5890 C   0  0  0  0  0  0  0  0  0  0  0  0
  139.3690   69.5400  223.7380 C   0  0  1  0  0  0  0  0  0  0  0  0
  138.5740   69.2170  224.9710 C   0  0  2  0  0  0  0  0  0  0  0  0
  137.4610   70.0350  225.0490 O   0  0  0  0  0  0  0  0  0  0  0  0
  139.4720   69.2890  226.1450 C   0  0  0  0  0  0  0  0  0  0  0  0
  139.9120   68.1100  226.7610 C   0  0  0  0  0  0  0  0  0  0  0  0
  140.7400   68.1270  227.8610 C   0  0  0  0  0  0  0  0  0  0  0  0
  141.1780   69.3140  228.4100 C   0  0  0  0  0  0  0  0  0  0  0  0
  140.7580   70.4870  227.8220 C   0  0  0  0  0  0  0  0  0  0  0  0
  139.9210   70.4560  226.7120 C   0  0  0  0  0  0  0  0  0  0  0  0
  138.6330   69.1150  222.4840 C   0  0  1  0  0  0  0  0  0  0  0  0
  137.3110   69.5410  222.6030 O   0  0  0  0  0  0  0  0  0  0  0  0
  139.3550   69.9330  221.4470 C   0  0  0  0  0  0  0  0  0  0  0  0
  136.1390   72.7910  223.3150 C   0  0  0  0  0  0  0  0  0  0  0  0
  135.6570   74.0550  223.6350 C   0  0  0  0  0  0  0  0  0  0  0  0
  134.7330   74.1170  224.6720 C   0  0  0  0  0  0  0  0  0  0  0  0
  134.3210   72.9640  225.3450 C   0  0  0  0  0  0  0  0  0  0  0  0
  133.3980   73.0510  226.3750 C   0  0  0  0  0  0  0  0  0  0  0  0
  132.9990   71.8900  227.0320 C   0  0  0  0  0  0  0  0  0  0  0  0
  133.5280   70.6560  226.6520 C   0  0  0  0  0  0  0  0  0  0  0  0
  134.4480   70.5650  225.6260 C   0  0  0  0  0  0  0  0  0  0  0  0
  134.8290   71.7330  224.9870 C   0  0  0  0  0  0  0  0  0  0  0  0
  135.7210   71.6980  223.9810 N   0  0  0  0  0  0  0  0  0  0  0  0
  138.3650   74.1850  223.0770 H   0  0  0  0  0  0  0  0  0  0  0  0
  138.7866   73.2931  220.2351 H   0  0  0  0  0  0  0  0  0  0  0  0
  139.8458   74.3902  221.1628 H   0  0  0  0  0  0  0  0  0  0  0  0
  140.5190   71.3263  224.1036 H   0  0  0  0  0  0  0  0  0  0  0  0
  138.8089   71.6360  224.0261 H   0  0  0  0  0  0  0  0  0  0  0  0
  140.3206   69.0010  223.8560 H   0  0  0  0  0  0  0  0  0  0  0  0
  138.1765   68.1919  224.9363 H   0  0  0  0  0  0  0  0  0  0  0  0
  136.8600   69.8820  224.2990 H   0  0  0  0  0  0  0  0  0  0  0  0
  139.5861   67.1416  226.3536 H   0  0  0  0  0  0  0  0  0  0  0  0
  141.0585   67.1750  228.3108 H   0  0  0  0  0  0  0  0  0  0  0  0
  141.8405   69.3238  229.2880 H   0  0  0  0  0  0  0  0  0  0  0  0
  141.0865   71.4531  228.2327 H   0  0  0  0  0  0  0  0  0  0  0  0
  139.6039   71.4109  226.2675 H   0  0  0  0  0  0  0  0  0  0  0  0
  138.6166   68.0362  222.2698 H   0  0  0  0  0  0  0  0  0  0  0  0
  137.2180   70.4690  222.9420 H   0  0  0  0  0  0  0  0  0  0  0  0
  140.2454   69.4005  221.0813 H   0  0  0  0  0  0  0  0  0  0  0  0
  138.7325   70.1345  220.5627 H   0  0  0  0  0  0  0  0  0  0  0  0
  135.9882   74.9559  223.0977 H   0  0  0  0  0  0  0  0  0  0  0  0
  134.3186   75.0920  224.9681 H   0  0  0  0  0  0  0  0  0  0  0  0
  132.9850   74.0268  226.6704 H   0  0  0  0  0  0  0  0  0  0  0  0
  132.2666   71.9456  227.8508 H   0  0  0  0  0  0  0  0  0  0  0  0
  133.2080   69.7436  227.1765 H   0  0  0  0  0  0  0  0  0  0  0  0
  134.8660   69.5930  225.3251 H   0  0  0  0  0  0  0  0  0  0  0  0
  1  2  2  0
  2  3  1  0
  3  4  1  0
  4  5  1  0
  5  6  2  0
  5  7  1  0
  7  8  1  0
  8  9  1  0
  9 10  1  0
 10 11  1  0
 10 12  1  0
 12 13  2  0
 13 14  1  0
 14 15  2  0
 15 16  1  0
 16 17  2  0
  9 18  1  0
 18 19  1  0
 18 20  1  0
  2 21  1  0
 21 22  2  0
 22 23  1  0
 23 24  2  0
 24 25  1  0
 25 26  2  0
 26 27  1  0
 27 28  2  0
 28 29  1  0
 29 30  2  0
 20  7  1  0
 30 21  1  0
 17 12  1  0
 29 24  1  0
  3 31  1  0
  4 32  1  0
  4 33  1  0
  8 34  1  0
  8 35  1  0
  9 36  1  1
 10 37  1  6
 11 38  1  0
 13 39  1  0
 14 40  1  0
 15 41  1  0
 16 42  1  0
 17 43  1  0
 18 44  1  6
 19 45  1  0
 20 46  1  0
 20 47  1  0
 22 48  1  0
 23 49  1  0
 25 50  1  0
 26 51  1  0
 27 52  1  0
 28 53  1  0
M  END
>  <smiles>  (34) 
O=C(NCC(=O)N1C[C@@H]([C@H](O)c2ccccc2)[C@@H](O)C1)c1ccc2ccccc2n1

>  <score_type>  (34) 
oracle

>  <origin>  (34) 
autodockgpu

>  <m_score__min__energy>  (34) 
-8.6999999999999993

>  <m_primary>  (34) 
energy

>  <rmsd>  (34) 
6.906849094739222

>  <m_score__min__rmsd>  (34) 
6.906849094739222

>  <meeko>  (34) 
{"free_energy": -6.07, "intermolecular_energy": -8.45, "internal_energy": -4.9, "cluster_size": 18, "cluster_id": 6, "rank_in_cluster": 7}

>  <energy>  (34) 
-6.03

>  <cluster_rmsd>  (34) 
1.13

>  <cluster>  (34) 
6

$$$$

     RDKit          3D

 53 56  0  0  0  0  0  0  0  0999 V2000
  140.2720   74.5040  222.3400 O   0  0  0  0  0  0  0  0  0  0  0  0
  139.5090   75.4370  221.9340 C   0  0  0  0  0  0  0  0  0  0  0  0
  138.4270   75.1810  221.0400 N   0  0  0  0  0  0  0  0  0  0  0  0
  138.1630   73.8380  220.5620 C   0  0  0  0  0  0  0  0  0  0  0  0
  139.1330   73.5400  219.4840 C   0  0  0  0  0  0  0  0  0  0  0  0
  138.8080   72.7710  218.5410 O   0  0  0  0  0  0  0  0  0  0  0  0
  140.4340   74.0870  219.4540 N   0  0  0  0  0  0  0  0  0  0  0  0
  140.7090   75.4540  219.0180 C   0  0  0  0  0  0  0  0  0  0  0  0
  142.2000   75.4360  218.9190 C   0  0  1  0  0  0  0  0  0  0  0  0
  142.7960   76.7970  219.1360 C   0  0  2  0  0  0  0  0  0  0  0  0
  142.2850   77.3630  220.2910 O   0  0  0  0  0  0  0  0  0  0  0  0
  142.5880   77.6060  217.9140 C   0  0  0  0  0  0  0  0  0  0  0  0
  142.1790   78.9410  218.0220 C   0  0  0  0  0  0  0  0  0  0  0  0
  141.9650   79.7300  216.9140 C   0  0  0  0  0  0  0  0  0  0  0  0
  142.1450   79.2390  215.6390 C   0  0  0  0  0  0  0  0  0  0  0  0
  142.5470   77.9280  215.5070 C   0  0  0  0  0  0  0  0  0  0  0  0
  142.7590   77.1410  216.6340 C   0  0  0  0  0  0  0  0  0  0  0  0
  142.6660   74.4570  219.9770 C   0  0  1  0  0  0  0  0  0  0  0  0
  142.5540   75.0870  221.2150 O   0  0  0  0  0  0  0  0  0  0  0  0
  141.6220   73.3820  219.8400 C   0  0  0  0  0  0  0  0  0  0  0  0
  139.7270   76.8270  222.3870 C   0  0  0  0  0  0  0  0  0  0  0  0
  138.6140   77.5950  222.7080 C   0  0  0  0  0  0  0  0  0  0  0  0
  138.8630   78.8960  223.1290 C   0  0  0  0  0  0  0  0  0  0  0  0
  140.1680   79.3890  223.2220 C   0  0  0  0  0  0  0  0  0  0  0  0
  140.3920   80.6900  223.6450 C   0  0  0  0  0  0  0  0  0  0  0  0
  141.6990   81.1620  223.7320 C   0  0  0  0  0  0  0  0  0  0  0  0
  142.7660   80.3290  223.3940 C   0  0  0  0  0  0  0  0  0  0  0  0
  142.5460   79.0320  222.9710 C   0  0  0  0  0  0  0  0  0  0  0  0
  141.2370   78.5850  222.8940 C   0  0  0  0  0  0  0  0  0  0  0  0
  140.9710   77.3310  222.4880 N   0  0  0  0  0  0  0  0  0  0  0  0
  137.8320   76.0100  220.7450 H   0  0  0  0  0  0  0  0  0  0  0  0
  138.2852   73.1178  221.3844 H   0  0  0  0  0  0  0  0  0  0  0  0
  137.1332   73.7616  220.1829 H   0  0  0  0  0  0  0  0  0  0  0  0
  140.2434   75.6674  218.0445 H   0  0  0  0  0  0  0  0  0  0  0  0
  140.3117   76.2293  219.6896 H   0  0  0  0  0  0  0  0  0  0  0  0
  142.5247   75.1345  217.9122 H   0  0  0  0  0  0  0  0  0  0  0  0
  143.8824   76.7382  219.2984 H   0  0  0  0  0  0  0  0  0  0  0  0
  142.5780   76.8730  221.0810 H   0  0  0  0  0  0  0  0  0  0  0  0
  142.0241   79.3723  219.0220 H   0  0  0  0  0  0  0  0  0  0  0  0
  141.6439   80.7733  217.0493 H   0  0  0  0  0  0  0  0  0  0  0  0
  141.9735   79.8726  214.7563 H   0  0  0  0  0  0  0  0  0  0  0  0
  142.7011   77.5013  214.5049 H   0  0  0  0  0  0  0  0  0  0  0  0
  143.0784   76.0979  216.4930 H   0  0  0  0  0  0  0  0  0  0  0  0
  143.6988   74.0905  219.8826 H   0  0  0  0  0  0  0  0  0  0  0  0
  141.7650   75.6820  221.2920 H   0  0  0  0  0  0  0  0  0  0  0  0
  141.9114   72.6543  219.0675 H   0  0  0  0  0  0  0  0  0  0  0  0
  141.4864   72.8079  220.7684 H   0  0  0  0  0  0  0  0  0  0  0  0
  137.5920   77.1951  222.6330 H   0  0  0  0  0  0  0  0  0  0  0  0
  138.0185   79.5492  223.3937 H   0  0  0  0  0  0  0  0  0  0  0  0
  139.5465   81.3423  223.9090 H   0  0  0  0  0  0  0  0  0  0  0  0
  141.8904   82.1920  224.0673 H   0  0  0  0  0  0  0  0  0  0  0  0
  143.7956   80.7096  223.4652 H   0  0  0  0  0  0  0  0  0  0  0  0
  143.3857   78.3737  222.7032 H   0  0  0  0  0  0  0  0  0  0  0  0
  1  2  2  0
  2  3  1  0
  3  4  1  0
  4  5  1  0
  5  6  2  0
  5  7  1  0
  7  8  1  0
  8  9  1  0
  9 10  1  0
 10 11  1  0
 10 12  1  0
 12 13  2  0
 13 14  1  0
 14 15  2  0
 15 16  1  0
 16 17  2  0
  9 18  1  0
 18 19  1  0
 18 20  1  0
  2 21  1  0
 21 22  2  0
 22 23  1  0
 23 24  2  0
 24 25  1  0
 25 26  2  0
 26 27  1  0
 27 28  2  0
 28 29  1  0
 29 30  2  0
 20  7  1  0
 30 21  1  0
 17 12  1  0
 29 24  1  0
  3 31  1  0
  4 32  1  0
  4 33  1  0
  8 34  1  0
  8 35  1  0
  9 36  1  6
 10 37  1  1
 11 38  1  0
 13 39  1  0
 14 40  1  0
 15 41  1  0
 16 42  1  0
 17 43  1  0
 18 44  1  6
 19 45  1  0
 20 46  1  0
 20 47  1  0
 22 48  1  0
 23 49  1  0
 25 50  1  0
 26 51  1  0
 27 52  1  0
 28 53  1  0
M  END
>  <smiles>  (35) 
O=C(NCC(=O)N1C[C@@H]([C@H](O)c2ccccc2)[C@@H](O)C1)c1ccc2ccccc2n1

>  <score_type>  (35) 
oracle

>  <origin>  (35) 
autodockgpu

>  <m_score__min__energy>  (35) 
-8.6999999999999993

>  <m_primary>  (35) 
energy

>  <rmsd>  (35) 
6.997853025040431

>  <m_score__min__rmsd>  (35) 
6.997853025040431

>  <meeko>  (35) 
{"free_energy": -5.85, "intermolecular_energy": -8.23, "internal_energy": -4.9, "cluster_size": 6, "cluster_id": 9, "rank_in_cluster": 6}

>  <energy>  (35) 
-6.03

>  <cluster_rmsd>  (35) 
1.12

>  <cluster>  (35) 
6

$$$$

     RDKit          3D

 53 56  0  0  0  0  0  0  0  0999 V2000
  137.1940   76.2140  222.4430 O   0  0  0  0  0  0  0  0  0  0  0  0
  138.4580   76.3470  222.4540 C   0  0  0  0  0  0  0  0  0  0  0  0
  139.3270   75.2430  222.2050 N   0  0  0  0  0  0  0  0  0  0  0  0
  138.7910   73.9250  221.9300 C   0  0  0  0  0  0  0  0  0  0  0  0
  139.8660   72.9370  222.1730 C   0  0  0  0  0  0  0  0  0  0  0  0
  141.0730   73.2810  222.0630 O   0  0  0  0  0  0  0  0  0  0  0  0
  139.6050   71.5960  222.5320 N   0  0  0  0  0  0  0  0  0  0  0  0
  139.4200   71.1690  223.9160 C   0  0  0  0  0  0  0  0  0  0  0  0
  139.4490   69.6810  223.7700 C   0  0  1  0  0  0  0  0  0  0  0  0
  138.6570   68.9950  224.8450 C   0  0  2  0  0  0  0  0  0  0  0  0
  137.4400   69.6290  225.0220 O   0  0  0  0  0  0  0  0  0  0  0  0
  139.4890   68.9140  226.0670 C   0  0  0  0  0  0  0  0  0  0  0  0
  139.5710   70.0150  226.9300 C   0  0  0  0  0  0  0  0  0  0  0  0
  140.3390   69.9900  228.0730 C   0  0  0  0  0  0  0  0  0  0  0  0
  141.0650   68.8720  228.4240 C   0  0  0  0  0  0  0  0  0  0  0  0
  141.0000   67.7760  227.5910 C   0  0  0  0  0  0  0  0  0  0  0  0
  140.2230   67.8150  226.4390 C   0  0  0  0  0  0  0  0  0  0  0  0
  138.8730   69.3970  222.3980 C   0  0  1  0  0  0  0  0  0  0  0  0
  137.4920   69.5650  222.4750 O   0  0  0  0  0  0  0  0  0  0  0  0
  139.4930   70.5120  221.6000 C   0  0  0  0  0  0  0  0  0  0  0  0
  139.0650   77.6670  222.7280 C   0  0  0  0  0  0  0  0  0  0  0  0
  138.2180   78.7530  222.9160 C   0  0  0  0  0  0  0  0  0  0  0  0
  138.8300   79.9750  223.1720 C   0  0  0  0  0  0  0  0  0  0  0  0
  140.2210   80.0890  223.2330 C   0  0  0  0  0  0  0  0  0  0  0  0
  140.8090   81.3170  223.4890 C   0  0  0  0  0  0  0  0  0  0  0  0
  142.1970   81.4100  223.5470 C   0  0  0  0  0  0  0  0  0  0  0  0
  142.9810   80.2740  223.3480 C   0  0  0  0  0  0  0  0  0  0  0  0
  142.3990   79.0470  223.0920 C   0  0  0  0  0  0  0  0  0  0  0  0
  141.0170   78.9800  223.0400 C   0  0  0  0  0  0  0  0  0  0  0  0
  140.4030   77.8090  222.7940 N   0  0  0  0  0  0  0  0  0  0  0  0
  140.3730   75.4310  222.2320 H   0  0  0  0  0  0  0  0  0  0  0  0
  137.9391   73.7217  222.5955 H   0  0  0  0  0  0  0  0  0  0  0  0
  138.4417   73.8630  220.8888 H   0  0  0  0  0  0  0  0  0  0  0  0
  140.2368   71.5264  224.5603 H   0  0  0  0  0  0  0  0  0  0  0  0
  138.5060   71.5575  224.3889 H   0  0  0  0  0  0  0  0  0  0  0  0
  140.4735   69.2936  223.8716 H   0  0  0  0  0  0  0  0  0  0  0  0
  138.4051   67.9627  224.5605 H   0  0  0  0  0  0  0  0  0  0  0  0
  136.7510   69.2280  224.4620 H   0  0  0  0  0  0  0  0  0  0  0  0
  139.0051   70.9265  226.6873 H   0  0  0  0  0  0  0  0  0  0  0  0
  140.3737   70.8799  228.7187 H   0  0  0  0  0  0  0  0  0  0  0  0
  141.6759   68.8552  229.3386 H   0  0  0  0  0  0  0  0  0  0  0  0
  141.5658   66.8658  227.8390 H   0  0  0  0  0  0  0  0  0  0  0  0
  140.1949   66.9235  225.7952 H   0  0  0  0  0  0  0  0  0  0  0  0
  139.0631   68.3947  221.9865 H   0  0  0  0  0  0  0  0  0  0  0  0
  137.2130   70.3550  223.0060 H   0  0  0  0  0  0  0  0  0  0  0  0
  140.4839   70.2176  221.2240 H   0  0  0  0  0  0  0  0  0  0  0  0
  138.8952   70.7784  220.7159 H   0  0  0  0  0  0  0  0  0  0  0  0
  137.1239   78.6513  222.8651 H   0  0  0  0  0  0  0  0  0  0  0  0
  138.2076   80.8682  223.3293 H   0  0  0  0  0  0  0  0  0  0  0  0
  140.1855   82.2097  223.6449 H   0  0  0  0  0  0  0  0  0  0  0  0
  142.6752   82.3796  223.7498 H   0  0  0  0  0  0  0  0  0  0  0  0
  144.0769   80.3557  223.3954 H   0  0  0  0  0  0  0  0  0  0  0  0
  143.0156   78.1498  222.9342 H   0  0  0  0  0  0  0  0  0  0  0  0
  1  2  2  0
  2  3  1  0
  3  4  1  0
  4  5  1  0
  5  6  2  0
  5  7  1  0
  7  8  1  0
  8  9  1  0
  9 10  1  0
 10 11  1  0
 10 12  1  0
 12 13  2  0
 13 14  1  0
 14 15  2  0
 15 16  1  0
 16 17  2  0
  9 18  1  0
 18 19  1  0
 18 20  1  0
  2 21  1  0
 21 22  2  0
 22 23  1  0
 23 24  2  0
 24 25  1  0
 25 26  2  0
 26 27  1  0
 27 28  2  0
 28 29  1  0
 29 30  2  0
 20  7  1  0
 30 21  1  0
 17 12  1  0
 29 24  1  0
  3 31  1  0
  4 32  1  0
  4 33  1  0
  8 34  1  0
  8 35  1  0
  9 36  1  6
 10 37  1  6
 11 38  1  0
 13 39  1  0
 14 40  1  0
 15 41  1  0
 16 42  1  0
 17 43  1  0
 18 44  1  6
 19 45  1  0
 20 46  1  0
 20 47  1  0
 22 48  1  0
 23 49  1  0
 25 50  1  0
 26 51  1  0
 27 52  1  0
 28 53  1  0
M  END
>  <smiles>  (36) 
O=C(NCC(=O)N1C[C@@H]([C@H](O)c2ccccc2)[C@@H](O)C1)c1ccc2ccccc2n1

>  <score_type>  (36) 
oracle

>  <origin>  (36) 
autodockgpu

>  <m_score__min__energy>  (36) 
-8.6999999999999993

>  <m_primary>  (36) 
energy

>  <rmsd>  (36) 
8.727383504514773

>  <m_score__min__rmsd>  (36) 
8.727383504514773

>  <meeko>  (36) 
{"free_energy": -7.88, "intermolecular_energy": -10.27, "internal_energy": -2.98, "cluster_size": 3, "cluster_id": 4, "rank_in_cluster": 2}

>  <energy>  (36) 
-5.96

>  <cluster_rmsd>  (36) 
1.14

>  <cluster>  (36) 
6

$$$$

     RDKit          3D

 53 56  0  0  0  0  0  0  0  0999 V2000
  137.4080   73.3180  220.9370 O   0  0  0  0  0  0  0  0  0  0  0  0
  137.6020   73.9950  221.9960 C   0  0  0  0  0  0  0  0  0  0  0  0
  138.8120   74.7200  222.2070 N   0  0  0  0  0  0  0  0  0  0  0  0
  139.8680   74.7050  221.2140 C   0  0  0  0  0  0  0  0  0  0  0  0
  140.6590   73.4690  221.4090 C   0  0  0  0  0  0  0  0  0  0  0  0
  141.8910   73.4630  221.1460 O   0  0  0  0  0  0  0  0  0  0  0  0
  140.0940   72.2670  221.8890 N   0  0  0  0  0  0  0  0  0  0  0  0
  139.8630   72.0120  223.3080 C   0  0  0  0  0  0  0  0  0  0  0  0
  139.5240   70.5560  223.2930 C   0  0  1  0  0  0  0  0  0  0  0  0
  138.6300   70.1740  224.4370 C   0  0  2  0  0  0  0  0  0  0  0  0
  137.6000   71.0890  224.5660 O   0  0  0  0  0  0  0  0  0  0  0  0
  139.4600   70.0110  225.6520 C   0  0  0  0  0  0  0  0  0  0  0  0
  140.0110   71.1370  226.2770 C   0  0  0  0  0  0  0  0  0  0  0  0
  140.7960   71.0340  227.4040 C   0  0  0  0  0  0  0  0  0  0  0  0
  141.0770   69.8100  227.9730 C   0  0  0  0  0  0  0  0  0  0  0  0
  140.5460   68.6880  227.3750 C   0  0  0  0  0  0  0  0  0  0  0  0
  139.7550   68.8050  226.2370 C   0  0  0  0  0  0  0  0  0  0  0  0
  138.8450   70.3120  221.9610 C   0  0  1  0  0  0  0  0  0  0  0  0
  137.5500   70.8190  222.0450 O   0  0  0  0  0  0  0  0  0  0  0  0
  139.6870   71.1710  221.0570 C   0  0  0  0  0  0  0  0  0  0  0  0
  136.5620   74.0490  223.0450 C   0  0  0  0  0  0  0  0  0  0  0  0
  136.1320   75.2980  223.4790 C   0  0  0  0  0  0  0  0  0  0  0  0
  135.1530   75.3040  224.4670 C   0  0  0  0  0  0  0  0  0  0  0  0
  134.6400   74.1120  224.9840 C   0  0  0  0  0  0  0  0  0  0  0  0
  133.6650   74.1430  225.9680 C   0  0  0  0  0  0  0  0  0  0  0  0
  133.1650   72.9440  226.4700 C   0  0  0  0  0  0  0  0  0  0  0  0
  133.6470   71.7290  225.9830 C   0  0  0  0  0  0  0  0  0  0  0  0
  134.6200   71.6940  225.0020 C   0  0  0  0  0  0  0  0  0  0  0  0
  135.1000   72.8990  224.5180 C   0  0  0  0  0  0  0  0  0  0  0  0
  136.0470   72.9180  223.5630 N   0  0  0  0  0  0  0  0  0  0  0  0
  138.9030   75.2630  223.1160 H   0  0  0  0  0  0  0  0  0  0  0  0
  139.4316   74.7140  220.2043 H   0  0  0  0  0  0  0  0  0  0  0  0
  140.5097   75.5917  221.3239 H   0  0  0  0  0  0  0  0  0  0  0  0
  140.7659   72.2090  223.9047 H   0  0  0  0  0  0  0  0  0  0  0  0
  139.0892   72.6499  223.7600 H   0  0  0  0  0  0  0  0  0  0  0  0
  140.4269   69.9389  223.4115 H   0  0  0  0  0  0  0  0  0  0  0  0
  138.1363   69.2081  224.2548 H   0  0  0  0  0  0  0  0  0  0  0  0
  137.7180   71.8390  223.9560 H   0  0  0  0  0  0  0  0  0  0  0  0
  139.8108   72.1330  225.8552 H   0  0  0  0  0  0  0  0  0  0  0  0
  141.2072   71.9470  227.8595 H   0  0  0  0  0  0  0  0  0  0  0  0
  141.7037   69.7319  228.8736 H   0  0  0  0  0  0  0  0  0  0  0  0
  140.7489   67.6939  227.8001 H   0  0  0  0  0  0  0  0  0  0  0  0
  139.3471   67.8888  225.7851 H   0  0  0  0  0  0  0  0  0  0  0  0
  138.7701   69.2635  221.6369 H   0  0  0  0  0  0  0  0  0  0  0  0
  137.4990   71.7190  222.4590 H   0  0  0  0  0  0  0  0  0  0  0  0
  140.5618   70.6126  220.6923 H   0  0  0  0  0  0  0  0  0  0  0  0
  139.1398   71.5027  220.1623 H   0  0  0  0  0  0  0  0  0  0  0  0
  136.5434   76.2299  223.0639 H   0  0  0  0  0  0  0  0  0  0  0  0
  134.7760   76.2646  224.8480 H   0  0  0  0  0  0  0  0  0  0  0  0
  133.2898   75.1044  226.3487 H   0  0  0  0  0  0  0  0  0  0  0  0
  132.3900   72.9551  227.2505 H   0  0  0  0  0  0  0  0  0  0  0  0
  133.2475   70.7863  226.3850 H   0  0  0  0  0  0  0  0  0  0  0  0
  135.0018   70.7369  224.6171 H   0  0  0  0  0  0  0  0  0  0  0  0
  1  2  2  0
  2  3  1  0
  3  4  1  0
  4  5  1  0
  5  6  2  0
  5  7  1  0
  7  8  1  0
  8  9  1  0
  9 10  1  0
 10 11  1  0
 10 12  1  0
 12 13  2  0
 13 14  1  0
 14 15  2  0
 15 16  1  0
 16 17  2  0
  9 18  1  0
 18 19  1  0
 18 20  1  0
  2 21  1  0
 21 22  2  0
 22 23  1  0
 23 24  2  0
 24 25  1  0
 25 26  2  0
 26 27  1  0
 27 28  2  0
 28 29  1  0
 29 30  2  0
 20  7  1  0
 30 21  1  0
 17 12  1  0
 29 24  1  0
  3 31  1  0
  4 32  1  0
  4 33  1  0
  8 34  1  0
  8 35  1  0
  9 36  1  6
 10 37  1  6
 11 38  1  0
 13 39  1  0
 14 40  1  0
 15 41  1  0
 16 42  1  0
 17 43  1  0
 18 44  1  6
 19 45  1  0
 20 46  1  0
 20 47  1  0
 22 48  1  0
 23 49  1  0
 25 50  1  0
 26 51  1  0
 27 52  1  0
 28 53  1  0
M  END
>  <smiles>  (37) 
O=C(NCC(=O)N1C[C@@H]([C@H](O)c2ccccc2)[C@@H](O)C1)c1ccc2ccccc2n1

>  <score_type>  (37) 
oracle

>  <origin>  (37) 
autodockgpu

>  <m_score__min__energy>  (37) 
-8.6999999999999993

>  <m_primary>  (37) 
energy

>  <rmsd>  (37) 
6.674732281321113

>  <m_score__min__rmsd>  (37) 
6.674732281321113

>  <meeko>  (37) 
{"free_energy": -6.05, "intermolecular_energy": -8.44, "internal_energy": -4.75, "cluster_size": 18, "cluster_id": 6, "rank_in_cluster": 11}

>  <energy>  (37) 
-5.95

>  <cluster_rmsd>  (37) 
1.13

>  <cluster>  (37) 
6

$$$$

     RDKit          3D

 53 56  0  0  0  0  0  0  0  0999 V2000
  141.3340   72.9250  222.0570 O   0  0  0  0  0  0  0  0  0  0  0  0
  140.2300   72.7010  222.6470 C   0  0  0  0  0  0  0  0  0  0  0  0
  139.0570   73.4570  222.3470 N   0  0  0  0  0  0  0  0  0  0  0  0
  139.0890   74.5110  221.3540 C   0  0  0  0  0  0  0  0  0  0  0  0
  137.8720   75.3350  221.5260 C   0  0  0  0  0  0  0  0  0  0  0  0
  136.7370   74.8390  221.2910 O   0  0  0  0  0  0  0  0  0  0  0  0
  137.9130   76.6810  221.9530 N   0  0  0  0  0  0  0  0  0  0  0  0
  139.0380   77.5680  221.6680 C   0  0  0  0  0  0  0  0  0  0  0  0
  138.7170   78.7390  222.5390 C   0  0  1  0  0  0  0  0  0  0  0  0
  139.2860   80.0170  221.9960 C   0  0  2  0  0  0  0  0  0  0  0  0
  139.2690   79.9990  220.6130 O   0  0  0  0  0  0  0  0  0  0  0  0
  140.6250   80.2300  222.5890 C   0  0  0  0  0  0  0  0  0  0  0  0
  141.6730   79.3520  222.2810 C   0  0  0  0  0  0  0  0  0  0  0  0
  142.9330   79.5030  222.8150 C   0  0  0  0  0  0  0  0  0  0  0  0
  143.2240   80.5340  223.6830 C   0  0  0  0  0  0  0  0  0  0  0  0
  142.2100   81.4100  224.0020 C   0  0  0  0  0  0  0  0  0  0  0  0
  140.9410   81.2460  223.4570 C   0  0  0  0  0  0  0  0  0  0  0  0
  137.2040   78.7940  222.6030 C   0  0  1  0  0  0  0  0  0  0  0  0
  136.7480   79.3120  221.3920 O   0  0  0  0  0  0  0  0  0  0  0  0
  136.8760   77.3290  222.7030 C   0  0  0  0  0  0  0  0  0  0  0  0
  140.1340   71.6380  223.6690 C   0  0  0  0  0  0  0  0  0  0  0  0
  139.5640   70.4240  223.3040 C   0  0  0  0  0  0  0  0  0  0  0  0
  139.4940   69.4520  224.2950 C   0  0  0  0  0  0  0  0  0  0  0  0
  139.9760   69.6970  225.5840 C   0  0  0  0  0  0  0  0  0  0  0  0
  139.8960   68.7120  226.5560 C   0  0  0  0  0  0  0  0  0  0  0  0
  140.3820   68.9750  227.8340 C   0  0  0  0  0  0  0  0  0  0  0  0
  140.9420   70.2190  228.1250 C   0  0  0  0  0  0  0  0  0  0  0  0
  141.0230   71.2040  227.1580 C   0  0  0  0  0  0  0  0  0  0  0  0
  140.5340   70.9180  225.8950 C   0  0  0  0  0  0  0  0  0  0  0  0
  140.5900   71.8430  224.9200 N   0  0  0  0  0  0  0  0  0  0  0  0
  138.1710   73.2130  222.8810 H   0  0  0  0  0  0  0  0  0  0  0  0
  139.9848   75.1329  221.4978 H   0  0  0  0  0  0  0  0  0  0  0  0
  139.1217   74.0826  220.3414 H   0  0  0  0  0  0  0  0  0  0  0  0
  139.9958   77.1068  221.9506 H   0  0  0  0  0  0  0  0  0  0  0  0
  139.1555   77.8179  220.6032 H   0  0  0  0  0  0  0  0  0  0  0  0
  139.1644   78.6236  223.5373 H   0  0  0  0  0  0  0  0  0  0  0  0
  138.6696   80.8824  222.2809 H   0  0  0  0  0  0  0  0  0  0  0  0
  138.3770   80.1920  220.2700 H   0  0  0  0  0  0  0  0  0  0  0  0
  141.4830   78.5164  221.5913 H   0  0  0  0  0  0  0  0  0  0  0  0
  143.7229   78.7871  222.5439 H   0  0  0  0  0  0  0  0  0  0  0  0
  144.2322   80.6530  224.1066 H   0  0  0  0  0  0  0  0  0  0  0  0
  142.4051   82.2443  224.6919 H   0  0  0  0  0  0  0  0  0  0  0  0
  140.1543   81.9632  223.7340 H   0  0  0  0  0  0  0  0  0  0  0  0
  136.7710   79.4037  223.4097 H   0  0  0  0  0  0  0  0  0  0  0  0
  137.3140   79.0700  220.6150 H   0  0  0  0  0  0  0  0  0  0  0  0
  136.8887   76.9977  223.7518 H   0  0  0  0  0  0  0  0  0  0  0  0
  135.8718   77.0962  222.3190 H   0  0  0  0  0  0  0  0  0  0  0  0
  139.1887   70.2424  222.2861 H   0  0  0  0  0  0  0  0  0  0  0  0
  139.0515   68.4726  224.0608 H   0  0  0  0  0  0  0  0  0  0  0  0
  139.4533   67.7330  226.3202 H   0  0  0  0  0  0  0  0  0  0  0  0
  140.3244   68.2017  228.6142 H   0  0  0  0  0  0  0  0  0  0  0  0
  141.3241   70.4190  229.1369 H   0  0  0  0  0  0  0  0  0  0  0  0
  141.4631   72.1861  227.3857 H   0  0  0  0  0  0  0  0  0  0  0  0
  1  2  2  0
  2  3  1  0
  3  4  1  0
  4  5  1  0
  5  6  2  0
  5  7  1  0
  7  8  1  0
  8  9  1  0
  9 10  1  0
 10 11  1  0
 10 12  1  0
 12 13  2  0
 13 14  1  0
 14 15  2  0
 15 16  1  0
 16 17  2  0
  9 18  1  0
 18 19  1  0
 18 20  1  0
  2 21  1  0
 21 22  2  0
 22 23  1  0
 23 24  2  0
 24 25  1  0
 25 26  2  0
 26 27  1  0
 27 28  2  0
 28 29  1  0
 29 30  2  0
 20  7  1  0
 30 21  1  0
 17 12  1  0
 29 24  1  0
  3 31  1  0
  4 32  1  0
  4 33  1  0
  8 34  1  0
  8 35  1  0
  9 36  1  1
 10 37  1  1
 11 38  1  0
 13 39  1  0
 14 40  1  0
 15 41  1  0
 16 42  1  0
 17 43  1  0
 18 44  1  1
 19 45  1  0
 20 46  1  0
 20 47  1  0
 22 48  1  0
 23 49  1  0
 25 50  1  0
 26 51  1  0
 27 52  1  0
 28 53  1  0
M  END
>  <smiles>  (38) 
O=C(NCC(=O)N1C[C@@H]([C@H](O)c2ccccc2)[C@@H](O)C1)c1ccc2ccccc2n1

>  <score_type>  (38) 
oracle

>  <origin>  (38) 
autodockgpu

>  <m_score__min__energy>  (38) 
-8.6999999999999993

>  <m_primary>  (38) 
energy

>  <rmsd>  (38) 
3.67842976082297

>  <m_score__min__rmsd>  (38) 
3.67842976082297

>  <meeko>  (38) 
{"free_energy": -7.81, "intermolecular_energy": -10.19, "internal_energy": -2.24, "cluster_size": 1, "cluster_id": 5, "rank_in_cluster": 1}

>  <energy>  (38) 
-5.92

>  <cluster_rmsd>  (38) 
1.34

>  <cluster>  (38) 
6

$$$$

     RDKit          3D

 53 56  0  0  0  0  0  0  0  0999 V2000
  140.2330   74.5780  222.3300 O   0  0  0  0  0  0  0  0  0  0  0  0
  139.5030   75.5330  221.9180 C   0  0  0  0  0  0  0  0  0  0  0  0
  138.4360   75.3150  220.9970 N   0  0  0  0  0  0  0  0  0  0  0  0
  138.1490   73.9840  220.4980 C   0  0  0  0  0  0  0  0  0  0  0  0
  139.1340   73.6740  219.4380 C   0  0  0  0  0  0  0  0  0  0  0  0
  138.8260   72.8860  218.5040 O   0  0  0  0  0  0  0  0  0  0  0  0
  140.4320   74.2280  219.4150 N   0  0  0  0  0  0  0  0  0  0  0  0
  140.6910   75.6240  219.0720 C   0  0  0  0  0  0  0  0  0  0  0  0
  142.1800   75.6210  218.9340 C   0  0  1  0  0  0  0  0  0  0  0  0
  142.7760   76.9660  219.2340 C   0  0  2  0  0  0  0  0  0  0  0  0
  142.2550   77.4670  220.4140 O   0  0  0  0  0  0  0  0  0  0  0  0
  142.5830   77.8440  218.0580 C   0  0  0  0  0  0  0  0  0  0  0  0
  142.4080   79.2220  218.2370 C   0  0  0  0  0  0  0  0  0  0  0  0
  142.2160   80.0770  217.1740 C   0  0  0  0  0  0  0  0  0  0  0  0
  142.1890   79.6110  215.8760 C   0  0  0  0  0  0  0  0  0  0  0  0
  142.3580   78.2590  215.6750 C   0  0  0  0  0  0  0  0  0  0  0  0
  142.5490   77.4060  216.7570 C   0  0  0  0  0  0  0  0  0  0  0  0
  142.6760   74.5710  219.9070 C   0  0  1  0  0  0  0  0  0  0  0  0
  142.5930   75.1090  221.1900 O   0  0  0  0  0  0  0  0  0  0  0  0
  141.6320   73.5030  219.7180 C   0  0  0  0  0  0  0  0  0  0  0  0
  139.7460   76.9130  222.3910 C   0  0  0  0  0  0  0  0  0  0  0  0
  138.6450   77.7120  222.6790 C   0  0  0  0  0  0  0  0  0  0  0  0
  138.9180   79.0010  223.1210 C   0  0  0  0  0  0  0  0  0  0  0  0
  140.2330   79.4540  223.2640 C   0  0  0  0  0  0  0  0  0  0  0  0
  140.4800   80.7440  223.7070 C   0  0  0  0  0  0  0  0  0  0  0  0
  141.7970   81.1760  223.8440 C   0  0  0  0  0  0  0  0  0  0  0  0
  142.8500   80.3150  223.5350 C   0  0  0  0  0  0  0  0  0  0  0  0
  142.6070   79.0280  223.0930 C   0  0  0  0  0  0  0  0  0  0  0  0
  141.2890   78.6210  222.9660 C   0  0  0  0  0  0  0  0  0  0  0  0
  141.0010   77.3780  222.5400 N   0  0  0  0  0  0  0  0  0  0  0  0
  137.8690   76.1620  220.6980 H   0  0  0  0  0  0  0  0  0  0  0  0
  138.2356   73.2519  221.3145 H   0  0  0  0  0  0  0  0  0  0  0  0
  137.1260   73.9375  220.0963 H   0  0  0  0  0  0  0  0  0  0  0  0
  140.1998   75.9046  218.1286 H   0  0  0  0  0  0  0  0  0  0  0  0
  140.3084   76.3468  219.8076 H   0  0  0  0  0  0  0  0  0  0  0  0
  142.4802   75.3945  217.9003 H   0  0  0  0  0  0  0  0  0  0  0  0
  143.8605   76.8948  219.4038 H   0  0  0  0  0  0  0  0  0  0  0  0
  142.6480   77.0250  221.1870 H   0  0  0  0  0  0  0  0  0  0  0  0
  142.4244   79.6339  219.2568 H   0  0  0  0  0  0  0  0  0  0  0  0
  142.0816   81.1521  217.3640 H   0  0  0  0  0  0  0  0  0  0  0  0
  142.0375   80.2966  215.0293 H   0  0  0  0  0  0  0  0  0  0  0  0
  142.3419   77.8516  214.6534 H   0  0  0  0  0  0  0  0  0  0  0  0
  142.6787   76.3313  216.5615 H   0  0  0  0  0  0  0  0  0  0  0  0
  143.7076   74.2181  219.7611 H   0  0  0  0  0  0  0  0  0  0  0  0
  141.8090   75.7010  221.3260 H   0  0  0  0  0  0  0  0  0  0  0  0
  141.9039   72.8354  218.8871 H   0  0  0  0  0  0  0  0  0  0  0  0
  141.5222   72.8618  220.6050 H   0  0  0  0  0  0  0  0  0  0  0  0
  137.6148   77.3441  222.5634 H   0  0  0  0  0  0  0  0  0  0  0  0
  138.0846   79.6770  223.3627 H   0  0  0  0  0  0  0  0  0  0  0  0
  139.6453   81.4189  223.9476 H   0  0  0  0  0  0  0  0  0  0  0  0
  142.0068   82.1968  224.1961 H   0  0  0  0  0  0  0  0  0  0  0  0
  143.8872   80.6647  223.6445 H   0  0  0  0  0  0  0  0  0  0  0  0
  143.4358   78.3471  222.8493 H   0  0  0  0  0  0  0  0  0  0  0  0
  1  2  2  0
  2  3  1  0
  3  4  1  0
  4  5  1  0
  5  6  2  0
  5  7  1  0
  7  8  1  0
  8  9  1  0
  9 10  1  0
 10 11  1  0
 10 12  1  0
 12 13  2  0
 13 14  1  0
 14 15  2  0
 15 16  1  0
 16 17  2  0
  9 18  1  0
 18 19  1  0
 18 20  1  0
  2 21  1  0
 21 22  2  0
 22 23  1  0
 23 24  2  0
 24 25  1  0
 25 26  2  0
 26 27  1  0
 27 28  2  0
 28 29  1  0
 29 30  2  0
 20  7  1  0
 30 21  1  0
 17 12  1  0
 29 24  1  0
  3 31  1  0
  4 32  1  0
  4 33  1  0
  8 34  1  0
  8 35  1  0
  9 36  1  6
 10 37  1  1
 11 38  1  0
 13 39  1  0
 14 40  1  0
 15 41  1  0
 16 42  1  0
 17 43  1  0
 18 44  1  6
 19 45  1  0
 20 46  1  0
 20 47  1  0
 22 48  1  0
 23 49  1  0
 25 50  1  0
 26 51  1  0
 27 52  1  0
 28 53  1  0
M  END
>  <smiles>  (39) 
O=C(NCC(=O)N1C[C@@H]([C@H](O)c2ccccc2)[C@@H](O)C1)c1ccc2ccccc2n1

>  <score_type>  (39) 
oracle

>  <origin>  (39) 
autodockgpu

>  <m_score__min__energy>  (39) 
-8.6999999999999993

>  <m_primary>  (39) 
energy

>  <rmsd>  (39) 
7.024778806449237

>  <m_score__min__rmsd>  (39) 
7.024778806449237

>  <meeko>  (39) 
{"free_energy": -5.92, "intermolecular_energy": -8.31, "internal_energy": -4.84, "cluster_size": 6, "cluster_id": 9, "rank_in_cluster": 2}

>  <energy>  (39) 
-5.58

>  <cluster_rmsd>  (39) 
1.55

>  <cluster>  (39) 
6

$$$$

     RDKit          3D

 53 56  0  0  0  0  0  0  0  0999 V2000
  141.1220   71.9930  221.5910 O   0  0  0  0  0  0  0  0  0  0  0  0
  140.2280   72.2370  222.4610 C   0  0  0  0  0  0  0  0  0  0  0  0
  139.2810   73.2890  222.2840 N   0  0  0  0  0  0  0  0  0  0  0  0
  139.3090   74.1190  221.0960 C   0  0  0  0  0  0  0  0  0  0  0  0
  139.6570   75.4960  221.5120 C   0  0  0  0  0  0  0  0  0  0  0  0
  139.4290   75.8730  222.6930 O   0  0  0  0  0  0  0  0  0  0  0  0
  140.2470   76.4340  220.6360 N   0  0  0  0  0  0  0  0  0  0  0  0
  140.2110   77.8740  220.8770 C   0  0  0  0  0  0  0  0  0  0  0  0
  140.7120   78.4020  219.5720 C   0  0  1  0  0  0  0  0  0  0  0  0
  141.3910   79.7320  219.7260 C   0  0  2  0  0  0  0  0  0  0  0  0
  142.5770   79.7500  219.0130 O   0  0  0  0  0  0  0  0  0  0  0  0
  141.5390   80.0250  221.1690 C   0  0  0  0  0  0  0  0  0  0  0  0
  140.6570   80.9150  221.7950 C   0  0  0  0  0  0  0  0  0  0  0  0
  140.7610   81.2240  223.1330 C   0  0  0  0  0  0  0  0  0  0  0  0
  141.7450   80.6670  223.9230 C   0  0  0  0  0  0  0  0  0  0  0  0
  142.6240   79.7900  223.3290 C   0  0  0  0  0  0  0  0  0  0  0  0
  142.5100   79.4860  221.9770 C   0  0  0  0  0  0  0  0  0  0  0  0
  141.6730   77.3520  219.0510 C   0  0  1  0  0  0  0  0  0  0  0  0
  142.8550   77.4610  219.7790 O   0  0  0  0  0  0  0  0  0  0  0  0
  140.9390   76.0930  219.4270 C   0  0  0  0  0  0  0  0  0  0  0  0
  140.1480   71.4240  223.6930 C   0  0  0  0  0  0  0  0  0  0  0  0
  139.5780   70.1590  223.6100 C   0  0  0  0  0  0  0  0  0  0  0  0
  139.5220   69.4280  224.7910 C   0  0  0  0  0  0  0  0  0  0  0  0
  140.0170   69.9500  225.9890 C   0  0  0  0  0  0  0  0  0  0  0  0
  139.9510   69.2030  227.1540 C   0  0  0  0  0  0  0  0  0  0  0  0
  140.4510   69.7410  228.3380 C   0  0  0  0  0  0  0  0  0  0  0  0
  141.0100   71.0190  228.3420 C   0  0  0  0  0  0  0  0  0  0  0  0
  141.0770   71.7670  227.1820 C   0  0  0  0  0  0  0  0  0  0  0  0
  140.5750   71.2110  226.0180 C   0  0  0  0  0  0  0  0  0  0  0  0
  140.6170   71.8990  224.8630 N   0  0  0  0  0  0  0  0  0  0  0  0
  138.5640   73.4330  223.0540 H   0  0  0  0  0  0  0  0  0  0  0  0
  140.0641   73.7390  220.3922 H   0  0  0  0  0  0  0  0  0  0  0  0
  138.3295   74.1056  220.5957 H   0  0  0  0  0  0  0  0  0  0  0  0
  139.1886   78.2218  221.0863 H   0  0  0  0  0  0  0  0  0  0  0  0
  140.7968   78.1995  221.7493 H   0  0  0  0  0  0  0  0  0  0  0  0
  139.8814   78.5791  218.8729 H   0  0  0  0  0  0  0  0  0  0  0  0
  140.7845   80.5431  219.2966 H   0  0  0  0  0  0  0  0  0  0  0  0
  143.2430   79.1720  219.4260 H   0  0  0  0  0  0  0  0  0  0  0  0
  139.8575   81.3810  221.2002 H   0  0  0  0  0  0  0  0  0  0  0  0
  140.0451   81.9291  223.5806 H   0  0  0  0  0  0  0  0  0  0  0  0
  141.8246   80.9153  224.9917 H   0  0  0  0  0  0  0  0  0  0  0  0
  143.4219   79.3266  223.9278 H   0  0  0  0  0  0  0  0  0  0  0  0
  143.2301   78.7819  221.5346 H   0  0  0  0  0  0  0  0  0  0  0  0
  141.9338   77.4146  217.9842 H   0  0  0  0  0  0  0  0  0  0  0  0
  143.6060   77.8580  219.2670 H   0  0  0  0  0  0  0  0  0  0  0  0
  140.2277   75.8064  218.6384 H   0  0  0  0  0  0  0  0  0  0  0  0
  141.6152   75.2353  219.5574 H   0  0  0  0  0  0  0  0  0  0  0  0
  139.1921   69.7581  222.6611 H   0  0  0  0  0  0  0  0  0  0  0  0
  139.0802   68.4207  224.7824 H   0  0  0  0  0  0  0  0  0  0  0  0
  139.5086   68.1959  227.1443 H   0  0  0  0  0  0  0  0  0  0  0  0
  140.4049   69.1579  229.2696 H   0  0  0  0  0  0  0  0  0  0  0  0
  141.4026   71.4368  229.2808 H   0  0  0  0  0  0  0  0  0  0  0  0
  141.5166   72.7753  227.1836 H   0  0  0  0  0  0  0  0  0  0  0  0
  1  2  2  0
  2  3  1  0
  3  4  1  0
  4  5  1  0
  5  6  2  0
  5  7  1  0
  7  8  1  0
  8  9  1  0
  9 10  1  0
 10 11  1  0
 10 12  1  0
 12 13  2  0
 13 14  1  0
 14 15  2  0
 15 16  1  0
 16 17  2  0
  9 18  1  0
 18 19  1  0
 18 20  1  0
  2 21  1  0
 21 22  2  0
 22 23  1  0
 23 24  2  0
 24 25  1  0
 25 26  2  0
 26 27  1  0
 27 28  2  0
 28 29  1  0
 29 30  2  0
 20  7  1  0
 30 21  1  0
 17 12  1  0
 29 24  1  0
  3 31  1  0
  4 32  1  0
  4 33  1  0
  8 34  1  0
  8 35  1  0
  9 36  1  6
 10 37  1  6
 11 38  1  0
 13 39  1  0
 14 40  1  0
 15 41  1  0
 16 42  1  0
 17 43  1  0
 18 44  1  6
 19 45  1  0
 20 46  1  0
 20 47  1  0
 22 48  1  0
 23 49  1  0
 25 50  1  0
 26 51  1  0
 27 52  1  0
 28 53  1  0
M  END
>  <smiles>  (40) 
O=C(NCC(=O)N1C[C@@H]([C@H](O)c2ccccc2)[C@@H](O)C1)c1ccc2ccccc2n1

>  <score_type>  (40) 
oracle

>  <origin>  (40) 
autodockgpu

>  <m_score__min__energy>  (40) 
-8.6999999999999993

>  <m_primary>  (40) 
energy

>  <rmsd>  (40) 
2.457565579815534

>  <m_score__min__rmsd>  (40) 
2.457565579815534

>  <meeko>  (40) 
{"free_energy": -8.7, "intermolecular_energy": -11.08, "internal_energy": -2.24, "cluster_size": 15, "cluster_id": 1, "rank_in_cluster": 1}

>  <energy>  (40) 
-6.76

>  <cluster_rmsd>  (40) 
0.0

>  <cluster>  (40) 
7

$$$$

     RDKit          3D

 53 56  0  0  0  0  0  0  0  0999 V2000
  140.2570   71.0360  221.2670 O   0  0  0  0  0  0  0  0  0  0  0  0
  140.0190   71.6500  222.3540 C   0  0  0  0  0  0  0  0  0  0  0  0
  139.7930   73.0590  222.3810 N   0  0  0  0  0  0  0  0  0  0  0  0
  139.8300   73.8390  221.1600 C   0  0  0  0  0  0  0  0  0  0  0  0
  139.9870   75.2620  221.5340 C   0  0  0  0  0  0  0  0  0  0  0  0
  139.7000   75.6410  222.7010 O   0  0  0  0  0  0  0  0  0  0  0  0
  140.4540   76.2420  220.6320 N   0  0  0  0  0  0  0  0  0  0  0  0
  140.3740   77.6750  220.9070 C   0  0  0  0  0  0  0  0  0  0  0  0
  140.7340   78.2500  219.5750 C   0  0  1  0  0  0  0  0  0  0  0  0
  141.3620   79.6080  219.7000 C   0  0  2  0  0  0  0  0  0  0  0  0
  142.5770   79.6360  219.0390 O   0  0  0  0  0  0  0  0  0  0  0  0
  141.4360   79.9660  221.1340 C   0  0  0  0  0  0  0  0  0  0  0  0
  142.5650   79.6110  221.8840 C   0  0  0  0  0  0  0  0  0  0  0  0
  142.6760   79.9150  223.2230 C   0  0  0  0  0  0  0  0  0  0  0  0
  141.6740   80.5870  223.8910 C   0  0  0  0  0  0  0  0  0  0  0  0
  140.5540   80.9460  223.1740 C   0  0  0  0  0  0  0  0  0  0  0  0
  140.4540   80.6330  221.8230 C   0  0  0  0  0  0  0  0  0  0  0  0
  141.6930   77.2570  218.9500 C   0  0  1  0  0  0  0  0  0  0  0  0
  142.9280   77.4090  219.5760 O   0  0  0  0  0  0  0  0  0  0  0  0
  141.0530   75.9580  219.3600 C   0  0  0  0  0  0  0  0  0  0  0  0
  139.9680   70.9090  223.6320 C   0  0  0  0  0  0  0  0  0  0  0  0
  139.4640   69.6140  223.6210 C   0  0  0  0  0  0  0  0  0  0  0  0
  139.4340   68.9530  224.8430 C   0  0  0  0  0  0  0  0  0  0  0  0
  139.8900   69.5710  226.0110 C   0  0  0  0  0  0  0  0  0  0  0  0
  139.8510   68.8920  227.2190 C   0  0  0  0  0  0  0  0  0  0  0  0
  140.3100   69.5240  228.3710 C   0  0  0  0  0  0  0  0  0  0  0  0
  140.8030   70.8280  228.3020 C   0  0  0  0  0  0  0  0  0  0  0  0
  140.8430   71.5080  227.1000 C   0  0  0  0  0  0  0  0  0  0  0  0
  140.3820   70.8580  225.9680 C   0  0  0  0  0  0  0  0  0  0  0  0
  140.4000   71.4770  224.7740 N   0  0  0  0  0  0  0  0  0  0  0  0
  139.6000   73.5030  223.3270 H   0  0  0  0  0  0  0  0  0  0  0  0
  140.6796   73.5200  220.5383 H   0  0  0  0  0  0  0  0  0  0  0  0
  138.9039   73.6940  220.5845 H   0  0  0  0  0  0  0  0  0  0  0  0
  139.3592   77.9704  221.2120 H   0  0  0  0  0  0  0  0  0  0  0  0
  141.0189   78.0118  221.7320 H   0  0  0  0  0  0  0  0  0  0  0  0
  139.8385   78.3997  218.9540 H   0  0  0  0  0  0  0  0  0  0  0  0
  140.7496   80.3794  219.2101 H   0  0  0  0  0  0  0  0  0  0  0  0
  143.2070   79.0070  219.4340 H   0  0  0  0  0  0  0  0  0  0  0  0
  143.3872   79.0736  221.3889 H   0  0  0  0  0  0  0  0  0  0  0  0
  143.5820   79.6157  223.7704 H   0  0  0  0  0  0  0  0  0  0  0  0
  141.7660   80.8282  224.9603 H   0  0  0  0  0  0  0  0  0  0  0  0
  139.7341   81.4833  223.6731 H   0  0  0  0  0  0  0  0  0  0  0  0
  139.5454   80.9340  221.2810 H   0  0  0  0  0  0  0  0  0  0  0  0
  141.8568   77.3513  217.8664 H   0  0  0  0  0  0  0  0  0  0  0  0
  142.8960   77.9670  220.3960 H   0  0  0  0  0  0  0  0  0  0  0  0
  140.2894   75.6526  218.6295 H   0  0  0  0  0  0  0  0  0  0  0  0
  141.7772   75.1317  219.4124 H   0  0  0  0  0  0  0  0  0  0  0  0
  139.1082   69.1380  222.6953 H   0  0  0  0  0  0  0  0  0  0  0  0
  139.0446   67.9254  224.8921 H   0  0  0  0  0  0  0  0  0  0  0  0
  139.4613   67.8644  227.2666 H   0  0  0  0  0  0  0  0  0  0  0  0
  140.2842   68.9959  229.3356 H   0  0  0  0  0  0  0  0  0  0  0  0
  141.1644   71.3207  229.2167 H   0  0  0  0  0  0  0  0  0  0  0  0
  141.2300   72.5362  227.0441 H   0  0  0  0  0  0  0  0  0  0  0  0
  1  2  2  0
  2  3  1  0
  3  4  1  0
  4  5  1  0
  5  6  2  0
  5  7  1  0
  7  8  1  0
  8  9  1  0
  9 10  1  0
 10 11  1  0
 10 12  1  0
 12 13  2  0
 13 14  1  0
 14 15  2  0
 15 16  1  0
 16 17  2  0
  9 18  1  0
 18 19  1  0
 18 20  1  0
  2 21  1  0
 21 22  2  0
 22 23  1  0
 23 24  2  0
 24 25  1  0
 25 26  2  0
 26 27  1  0
 27 28  2  0
 28 29  1  0
 29 30  2  0
 20  7  1  0
 30 21  1  0
 17 12  1  0
 29 24  1  0
  3 31  1  0
  4 32  1  0
  4 33  1  0
  8 34  1  0
  8 35  1  0
  9 36  1  6
 10 37  1  6
 11 38  1  0
 13 39  1  0
 14 40  1  0
 15 41  1  0
 16 42  1  0
 17 43  1  0
 18 44  1  6
 19 45  1  0
 20 46  1  0
 20 47  1  0
 22 48  1  0
 23 49  1  0
 25 50  1  0
 26 51  1  0
 27 52  1  0
 28 53  1  0
M  END
>  <smiles>  (41) 
O=C(NCC(=O)N1C[C@@H]([C@H](O)c2ccccc2)[C@@H](O)C1)c1ccc2ccccc2n1

>  <score_type>  (41) 
oracle

>  <origin>  (41) 
autodockgpu

>  <m_score__min__energy>  (41) 
-8.6999999999999993

>  <m_primary>  (41) 
energy

>  <rmsd>  (41) 
2.375984633496543

>  <m_score__min__rmsd>  (41) 
2.375984633496543

>  <meeko>  (41) 
{"free_energy": -8.47, "intermolecular_energy": -10.86, "internal_energy": -2.61, "cluster_size": 15, "cluster_id": 1, "rank_in_cluster": 8}

>  <energy>  (41) 
-6.68

>  <cluster_rmsd>  (41) 
0.31

>  <cluster>  (41) 
7

$$$$

     RDKit          3D

 53 56  0  0  0  0  0  0  0  0999 V2000
  136.9050   71.6350  221.3470 O   0  0  0  0  0  0  0  0  0  0  0  0
  137.1430   72.4860  222.2610 C   0  0  0  0  0  0  0  0  0  0  0  0
  138.3430   73.2560  222.2700 N   0  0  0  0  0  0  0  0  0  0  0  0
  139.3380   73.0890  221.2290 C   0  0  0  0  0  0  0  0  0  0  0  0
  140.1620   71.9080  221.5720 C   0  0  0  0  0  0  0  0  0  0  0  0
  141.3920   71.8990  221.3000 O   0  0  0  0  0  0  0  0  0  0  0  0
  139.6310   70.7630  222.2050 N   0  0  0  0  0  0  0  0  0  0  0  0
  139.5640   70.6200  223.6570 C   0  0  0  0  0  0  0  0  0  0  0  0
  139.1930   69.1790  223.7930 C   0  0  1  0  0  0  0  0  0  0  0  0
  138.4330   68.9100  225.0600 C   0  0  2  0  0  0  0  0  0  0  0  0
  137.3790   69.7980  225.1830 O   0  0  0  0  0  0  0  0  0  0  0  0
  139.3840   68.9270  226.1950 C   0  0  0  0  0  0  0  0  0  0  0  0
  140.1680   67.7980  226.4640 C   0  0  0  0  0  0  0  0  0  0  0  0
  141.0600   67.7630  227.5130 C   0  0  0  0  0  0  0  0  0  0  0  0
  141.2220   68.8460  228.3520 C   0  0  0  0  0  0  0  0  0  0  0  0
  140.4610   69.9670  228.1070 C   0  0  0  0  0  0  0  0  0  0  0  0
  139.5630   69.9900  227.0450 C   0  0  0  0  0  0  0  0  0  0  0  0
  138.3550   68.8590  222.5720 C   0  0  1  0  0  0  0  0  0  0  0  0
  137.0910   69.4120  222.7680 O   0  0  0  0  0  0  0  0  0  0  0  0
  139.1030   69.6230  221.5130 C   0  0  0  0  0  0  0  0  0  0  0  0
  136.1660   72.7010  223.3500 C   0  0  0  0  0  0  0  0  0  0  0  0
  135.7210   73.9970  223.5860 C   0  0  0  0  0  0  0  0  0  0  0  0
  134.8030   74.1550  224.6190 C   0  0  0  0  0  0  0  0  0  0  0  0
  134.3610   73.0610  225.3680 C   0  0  0  0  0  0  0  0  0  0  0  0
  133.4460   73.2430  226.3920 C   0  0  0  0  0  0  0  0  0  0  0  0
  133.0170   72.1400  227.1270 C   0  0  0  0  0  0  0  0  0  0  0  0
  133.5090   70.8690  226.8290 C   0  0  0  0  0  0  0  0  0  0  0  0
  134.4230   70.6840  225.8090 C   0  0  0  0  0  0  0  0  0  0  0  0
  134.8330   71.7960  225.0920 C   0  0  0  0  0  0  0  0  0  0  0  0
  135.7210   71.6670  224.0890 N   0  0  0  0  0  0  0  0  0  0  0  0
  138.4730   73.9470  223.0660 H   0  0  0  0  0  0  0  0  0  0  0  0
  138.8421   72.9300  220.2601 H   0  0  0  0  0  0  0  0  0  0  0  0
  139.9685   73.9873  221.1541 H   0  0  0  0  0  0  0  0  0  0  0  0
  140.5354   70.8318  224.1276 H   0  0  0  0  0  0  0  0  0  0  0  0
  138.8638   71.3133  224.1459 H   0  0  0  0  0  0  0  0  0  0  0  0
  140.0895   68.5443  223.8518 H   0  0  0  0  0  0  0  0  0  0  0  0
  137.9697   67.9124  225.0460 H   0  0  0  0  0  0  0  0  0  0  0  0
  136.8290   69.8040  224.3790 H   0  0  0  0  0  0  0  0  0  0  0  0
  140.0684   66.9130  225.8184 H   0  0  0  0  0  0  0  0  0  0  0  0
  141.6547   66.8538  227.6851 H   0  0  0  0  0  0  0  0  0  0  0  0
  141.9353   68.8150  229.1888 H   0  0  0  0  0  0  0  0  0  0  0  0
  140.5638   70.8498  228.7551 H   0  0  0  0  0  0  0  0  0  0  0  0
  138.9695   70.9011  226.8787 H   0  0  0  0  0  0  0  0  0  0  0  0
  138.2182   67.7925  222.3399 H   0  0  0  0  0  0  0  0  0  0  0  0
  137.1100   70.3480  223.0950 H   0  0  0  0  0  0  0  0  0  0  0  0
  139.9151   69.0120  221.0921 H   0  0  0  0  0  0  0  0  0  0  0  0
  138.4606   69.9058  220.6660 H   0  0  0  0  0  0  0  0  0  0  0  0
  136.0753   74.8501  222.9888 H   0  0  0  0  0  0  0  0  0  0  0  0
  134.4180   75.1591  224.8506 H   0  0  0  0  0  0  0  0  0  0  0  0
  133.0622   74.2478  226.6224 H   0  0  0  0  0  0  0  0  0  0  0  0
  132.2903   72.2712  227.9423 H   0  0  0  0  0  0  0  0  0  0  0  0
  133.1650   70.0029  227.4134 H   0  0  0  0  0  0  0  0  0  0  0  0
  134.8135   69.6830  225.5734 H   0  0  0  0  0  0  0  0  0  0  0  0
  1  2  2  0
  2  3  1  0
  3  4  1  0
  4  5  1  0
  5  6  2  0
  5  7  1  0
  7  8  1  0
  8  9  1  0
  9 10  1  0
 10 11  1  0
 10 12  1  0
 12 13  2  0
 13 14  1  0
 14 15  2  0
 15 16  1  0
 16 17  2  0
  9 18  1  0
 18 19  1  0
 18 20  1  0
  2 21  1  0
 21 22  2  0
 22 23  1  0
 23 24  2  0
 24 25  1  0
 25 26  2  0
 26 27  1  0
 27 28  2  0
 28 29  1  0
 29 30  2  0
 20  7  1  0
 30 21  1  0
 17 12  1  0
 29 24  1  0
  3 31  1  0
  4 32  1  0
  4 33  1  0
  8 34  1  0
  8 35  1  0
  9 36  1  1
 10 37  1  6
 11 38  1  0
 13 39  1  0
 14 40  1  0
 15 41  1  0
 16 42  1  0
 17 43  1  0
 18 44  1  6
 19 45  1  0
 20 46  1  0
 20 47  1  0
 22 48  1  0
 23 49  1  0
 25 50  1  0
 26 51  1  0
 27 52  1  0
 28 53  1  0
M  END
>  <smiles>  (42) 
O=C(NCC(=O)N1C[C@@H]([C@H](O)c2ccccc2)[C@@H](O)C1)c1ccc2ccccc2n1

>  <score_type>  (42) 
oracle

>  <origin>  (42) 
autodockgpu

>  <m_score__min__energy>  (42) 
-8.6999999999999993

>  <m_primary>  (42) 
energy

>  <rmsd>  (42) 
7.041321261912445

>  <m_score__min__rmsd>  (42) 
7.041321261912445

>  <meeko>  (42) 
{"free_energy": -6.1, "intermolecular_energy": -8.49, "internal_energy": -4.89, "cluster_size": 18, "cluster_id": 6, "rank_in_cluster": 2}

>  <energy>  (42) 
-6.47

>  <cluster_rmsd>  (42) 
1.13

>  <cluster>  (42) 
7

$$$$

     RDKit          3D

 53 56  0  0  0  0  0  0  0  0999 V2000
  140.0930   70.8490  221.3470 O   0  0  0  0  0  0  0  0  0  0  0  0
  139.8970   71.4810  222.4320 C   0  0  0  0  0  0  0  0  0  0  0  0
  139.6970   72.8930  222.4480 N   0  0  0  0  0  0  0  0  0  0  0  0
  139.7120   73.6570  221.2160 C   0  0  0  0  0  0  0  0  0  0  0  0
  139.8850   75.0840  221.5680 C   0  0  0  0  0  0  0  0  0  0  0  0
  139.5400   75.4980  222.7070 O   0  0  0  0  0  0  0  0  0  0  0  0
  140.4310   76.0310  220.6740 N   0  0  0  0  0  0  0  0  0  0  0  0
  140.3110   77.4730  220.8770 C   0  0  0  0  0  0  0  0  0  0  0  0
  140.7960   77.9950  219.5630 C   0  0  1  0  0  0  0  0  0  0  0  0
  141.3960   79.3660  219.6890 C   0  0  2  0  0  0  0  0  0  0  0  0
  142.5870   79.4330  218.9880 O   0  0  0  0  0  0  0  0  0  0  0  0
  141.5110   79.7020  221.1260 C   0  0  0  0  0  0  0  0  0  0  0  0
  140.5500   80.5230  221.7300 C   0  0  0  0  0  0  0  0  0  0  0  0
  140.6200   80.8700  223.0610 C   0  0  0  0  0  0  0  0  0  0  0  0
  141.6460   80.4220  223.8660 C   0  0  0  0  0  0  0  0  0  0  0  0
  142.6040   79.6140  223.2940 C   0  0  0  0  0  0  0  0  0  0  0  0
  142.5230   79.2720  221.9480 C   0  0  0  0  0  0  0  0  0  0  0  0
  141.8210   76.9900  219.0800 C   0  0  1  0  0  0  0  0  0  0  0  0
  142.9870   77.1840  219.8170 O   0  0  0  0  0  0  0  0  0  0  0  0
  141.1550   75.7010  219.4810 C   0  0  0  0  0  0  0  0  0  0  0  0
  139.8710   70.7570  223.7210 C   0  0  0  0  0  0  0  0  0  0  0  0
  139.2990   69.4900  223.7510 C   0  0  0  0  0  0  0  0  0  0  0  0
  139.2950   68.8450  224.9820 C   0  0  0  0  0  0  0  0  0  0  0  0
  139.8410   69.4490  226.1180 C   0  0  0  0  0  0  0  0  0  0  0  0
  139.8260   68.7860  227.3350 C   0  0  0  0  0  0  0  0  0  0  0  0
  140.3760   69.4040  228.4550 C   0  0  0  0  0  0  0  0  0  0  0  0
  140.9330   70.6790  228.3450 C   0  0  0  0  0  0  0  0  0  0  0  0
  140.9490   71.3430  227.1330 C   0  0  0  0  0  0  0  0  0  0  0  0
  140.3980   70.7070  226.0340 C   0  0  0  0  0  0  0  0  0  0  0  0
  140.3890   71.3120  224.8330 N   0  0  0  0  0  0  0  0  0  0  0  0
  139.5400   73.3530  223.3930 H   0  0  0  0  0  0  0  0  0  0  0  0
  140.5462   73.3250  220.5804 H   0  0  0  0  0  0  0  0  0  0  0  0
  138.7729   73.5099  220.6624 H   0  0  0  0  0  0  0  0  0  0  0  0
  139.2684   77.7675  221.0673 H   0  0  0  0  0  0  0  0  0  0  0  0
  140.8677   77.8535  221.7461 H   0  0  0  0  0  0  0  0  0  0  0  0
  139.9649   78.1054  218.8510 H   0  0  0  0  0  0  0  0  0  0  0  0
  140.7497   80.1304  219.2330 H   0  0  0  0  0  0  0  0  0  0  0  0
  143.2830   78.9130  219.4280 H   0  0  0  0  0  0  0  0  0  0  0  0
  139.7145   80.9019  221.1231 H   0  0  0  0  0  0  0  0  0  0  0  0
  139.8416   81.5177  223.4906 H   0  0  0  0  0  0  0  0  0  0  0  0
  141.6978   80.7004  224.9289 H   0  0  0  0  0  0  0  0  0  0  0  0
  143.4376   79.2372  223.9049 H   0  0  0  0  0  0  0  0  0  0  0  0
  143.3061   78.6272  221.5226 H   0  0  0  0  0  0  0  0  0  0  0  0
  142.0907   77.0411  218.0148 H   0  0  0  0  0  0  0  0  0  0  0  0
  143.7210   77.6060  219.3010 H   0  0  0  0  0  0  0  0  0  0  0  0
  140.4700   75.3550  218.6929 H   0  0  0  0  0  0  0  0  0  0  0  0
  141.8775   74.8870  219.6401 H   0  0  0  0  0  0  0  0  0  0  0  0
  138.8732   69.0239  222.8502 H   0  0  0  0  0  0  0  0  0  0  0  0
  138.8540   67.8406  225.0638 H   0  0  0  0  0  0  0  0  0  0  0  0
  139.3841   67.7819  227.4153 H   0  0  0  0  0  0  0  0  0  0  0  0
  140.3715   68.8875  229.4262 H   0  0  0  0  0  0  0  0  0  0  0  0
  141.3647   71.1615  229.2343 H   0  0  0  0  0  0  0  0  0  0  0  0
  141.3871   72.3481  227.0443 H   0  0  0  0  0  0  0  0  0  0  0  0
  1  2  2  0
  2  3  1  0
  3  4  1  0
  4  5  1  0
  5  6  2  0
  5  7  1  0
  7  8  1  0
  8  9  1  0
  9 10  1  0
 10 11  1  0
 10 12  1  0
 12 13  2  0
 13 14  1  0
 14 15  2  0
 15 16  1  0
 16 17  2  0
  9 18  1  0
 18 19  1  0
 18 20  1  0
  2 21  1  0
 21 22  2  0
 22 23  1  0
 23 24  2  0
 24 25  1  0
 25 26  2  0
 26 27  1  0
 27 28  2  0
 28 29  1  0
 29 30  2  0
 20  7  1  0
 30 21  1  0
 17 12  1  0
 29 24  1  0
  3 31  1  0
  4 32  1  0
  4 33  1  0
  8 34  1  0
  8 35  1  0
  9 36  1  6
 10 37  1  6
 11 38  1  0
 13 39  1  0
 14 40  1  0
 15 41  1  0
 16 42  1  0
 17 43  1  0
 18 44  1  6
 19 45  1  0
 20 46  1  0
 20 47  1  0
 22 48  1  0
 23 49  1  0
 25 50  1  0
 26 51  1  0
 27 52  1  0
 28 53  1  0
M  END
>  <smiles>  (43) 
O=C(NCC(=O)N1C[C@@H]([C@H](O)c2ccccc2)[C@@H](O)C1)c1ccc2ccccc2n1

>  <score_type>  (43) 
oracle

>  <origin>  (43) 
autodockgpu

>  <m_score__min__energy>  (43) 
-8.6999999999999993

>  <m_primary>  (43) 
energy

>  <rmsd>  (43) 
2.295754203638228

>  <m_score__min__rmsd>  (43) 
2.295754203638228

>  <meeko>  (43) 
{"free_energy": -8.56, "intermolecular_energy": -10.95, "internal_energy": -2.73, "cluster_size": 15, "cluster_id": 1, "rank_in_cluster": 4}

>  <energy>  (43) 
-5.78

>  <cluster_rmsd>  (43) 
1.92

>  <cluster>  (43) 
7

$$$$

     RDKit          3D

 53 56  0  0  0  0  0  0  0  0999 V2000
  141.9630   71.2250  220.9160 O   0  0  0  0  0  0  0  0  0  0  0  0
  141.0260   71.9560  220.4650 C   0  0  0  0  0  0  0  0  0  0  0  0
  139.9860   71.4170  219.6510 N   0  0  0  0  0  0  0  0  0  0  0  0
  139.9670   70.0090  219.3090 C   0  0  0  0  0  0  0  0  0  0  0  0
  139.0540   69.3240  220.2520 C   0  0  0  0  0  0  0  0  0  0  0  0
  138.5790   68.1940  219.9590 O   0  0  0  0  0  0  0  0  0  0  0  0
  138.6780   69.8820  221.4930 N   0  0  0  0  0  0  0  0  0  0  0  0
  139.6420   70.2010  222.5430 C   0  0  0  0  0  0  0  0  0  0  0  0
  138.7360   70.4920  223.6950 C   0  0  1  0  0  0  0  0  0  0  0  0
  139.3560   71.4480  224.6720 C   0  0  2  0  0  0  0  0  0  0  0  0
  140.2560   72.2760  224.0240 O   0  0  0  0  0  0  0  0  0  0  0  0
  139.9340   70.6730  225.7930 C   0  0  0  0  0  0  0  0  0  0  0  0
  140.4450   71.3410  226.9130 C   0  0  0  0  0  0  0  0  0  0  0  0
  141.0000   70.6630  227.9760 C   0  0  0  0  0  0  0  0  0  0  0  0
  141.0780   69.2860  227.9860 C   0  0  0  0  0  0  0  0  0  0  0  0
  140.5830   68.6080  226.8940 C   0  0  0  0  0  0  0  0  0  0  0  0
  140.0260   69.3040  225.8270 C   0  0  0  0  0  0  0  0  0  0  0  0
  137.4760   71.0710  223.0850 C   0  0  1  0  0  0  0  0  0  0  0  0
  137.7520   72.3840  222.7090 O   0  0  0  0  0  0  0  0  0  0  0  0
  137.3290   70.1970  221.8680 C   0  0  0  0  0  0  0  0  0  0  0  0
  140.9900   73.3990  220.7800 C   0  0  0  0  0  0  0  0  0  0  0  0
  142.0640   74.1860  220.3790 C   0  0  0  0  0  0  0  0  0  0  0  0
  141.9900   75.5380  220.6950 C   0  0  0  0  0  0  0  0  0  0  0  0
  140.8890   76.0630  221.3780 C   0  0  0  0  0  0  0  0  0  0  0  0
  140.8370   77.4140  221.6810 C   0  0  0  0  0  0  0  0  0  0  0  0
  139.7310   77.9180  222.3610 C   0  0  0  0  0  0  0  0  0  0  0  0
  138.6910   77.0640  222.7300 C   0  0  0  0  0  0  0  0  0  0  0  0
  138.7390   75.7160  222.4290 C   0  0  0  0  0  0  0  0  0  0  0  0
  139.8490   75.2390  221.7520 C   0  0  0  0  0  0  0  0  0  0  0  0
  139.9430   73.9350  221.4360 N   0  0  0  0  0  0  0  0  0  0  0  0
  139.2360   72.0890  219.3110 H   0  0  0  0  0  0  0  0  0  0  0  0
  139.6055   69.8796  218.2782 H   0  0  0  0  0  0  0  0  0  0  0  0
  140.9792   69.5841  219.3787 H   0  0  0  0  0  0  0  0  0  0  0  0
  140.3024   69.3475  222.7559 H   0  0  0  0  0  0  0  0  0  0  0  0
  140.3271   71.0236  222.2902 H   0  0  0  0  0  0  0  0  0  0  0  0
  138.5283   69.5797  224.2735 H   0  0  0  0  0  0  0  0  0  0  0  0
  138.6031   72.1224  225.1060 H   0  0  0  0  0  0  0  0  0  0  0  0
  139.8000   72.8740  223.4060 H   0  0  0  0  0  0  0  0  0  0  0  0
  140.4019   72.4397  226.9447 H   0  0  0  0  0  0  0  0  0  0  0  0
  141.3887   71.2312  228.8340 H   0  0  0  0  0  0  0  0  0  0  0  0
  141.5205   68.7476  228.8371 H   0  0  0  0  0  0  0  0  0  0  0  0
  140.6286   67.5093  226.8659 H   0  0  0  0  0  0  0  0  0  0  0  0
  139.6413   68.7310  224.9705 H   0  0  0  0  0  0  0  0  0  0  0  0
  136.5854   71.0905  223.7304 H   0  0  0  0  0  0  0  0  0  0  0  0
  138.7160   72.5630  222.5580 H   0  0  0  0  0  0  0  0  0  0  0  0
  136.7682   69.2823  222.1105 H   0  0  0  0  0  0  0  0  0  0  0  0
  136.7727   70.6929  221.0590 H   0  0  0  0  0  0  0  0  0  0  0  0
  142.9249   73.7622  219.8413 H   0  0  0  0  0  0  0  0  0  0  0  0
  142.8128   76.2067  220.4022 H   0  0  0  0  0  0  0  0  0  0  0  0
  141.6606   78.0815  221.3876 H   0  0  0  0  0  0  0  0  0  0  0  0
  139.6773   78.9888  222.6071 H   0  0  0  0  0  0  0  0  0  0  0  0
  137.8211   77.4692  223.2677 H   0  0  0  0  0  0  0  0  0  0  0  0
  137.9196   75.0417  222.7187 H   0  0  0  0  0  0  0  0  0  0  0  0
  1  2  2  0
  2  3  1  0
  3  4  1  0
  4  5  1  0
  5  6  2  0
  5  7  1  0
  7  8  1  0
  8  9  1  0
  9 10  1  0
 10 11  1  0
 10 12  1  0
 12 13  2  0
 13 14  1  0
 14 15  2  0
 15 16  1  0
 16 17  2  0
  9 18  1  0
 18 19  1  0
 18 20  1  0
  2 21  1  0
 21 22  2  0
 22 23  1  0
 23 24  2  0
 24 25  1  0
 25 26  2  0
 26 27  1  0
 27 28  2  0
 28 29  1  0
 29 30  2  0
 20  7  1  0
 30 21  1  0
 17 12  1  0
 29 24  1  0
  3 31  1  0
  4 32  1  0
  4 33  1  0
  8 34  1  0
  8 35  1  0
  9 36  1  1
 10 37  1  1
 11 38  1  0
 13 39  1  0
 14 40  1  0
 15 41  1  0
 16 42  1  0
 17 43  1  0
 18 44  1  1
 19 45  1  0
 20 46  1  0
 20 47  1  0
 22 48  1  0
 23 49  1  0
 25 50  1  0
 26 51  1  0
 27 52  1  0
 28 53  1  0
M  END
>  <smiles>  (44) 
O=C(NCC(=O)N1C[C@@H]([C@H](O)c2ccccc2)[C@@H](O)C1)c1ccc2ccccc2n1

>  <score_type>  (44) 
oracle

>  <origin>  (44) 
autodockgpu

>  <m_score__min__energy>  (44) 
-8.6999999999999993

>  <m_primary>  (44) 
energy

>  <rmsd>  (44) 
7.383541189341629

>  <m_score__min__rmsd>  (44) 
7.383541189341629

>  <meeko>  (44) 
{"free_energy": -5.78, "intermolecular_energy": -8.17, "internal_energy": -4.27, "cluster_size": 4, "cluster_id": 7, "rank_in_cluster": 4}

>  <energy>  (44) 
-5.97

>  <cluster_rmsd>  (44) 
0.0

>  <cluster>  (44) 
8

$$$$

     RDKit          3D

 53 56  0  0  0  0  0  0  0  0999 V2000
  136.8510   71.5840  221.2830 O   0  0  0  0  0  0  0  0  0  0  0  0
  137.1040   72.4230  222.2040 C   0  0  0  0  0  0  0  0  0  0  0  0
  138.3080   73.1890  222.2060 N   0  0  0  0  0  0  0  0  0  0  0  0
  139.2880   73.0320  221.1500 C   0  0  0  0  0  0  0  0  0  0  0  0
  140.1010   71.8350  221.4580 C   0  0  0  0  0  0  0  0  0  0  0  0
  141.3160   71.7970  221.1280 O   0  0  0  0  0  0  0  0  0  0  0  0
  139.5750   70.7030  222.1200 N   0  0  0  0  0  0  0  0  0  0  0  0
  139.4560   70.6200  223.5730 C   0  0  0  0  0  0  0  0  0  0  0  0
  139.1160   69.1760  223.7580 C   0  0  1  0  0  0  0  0  0  0  0  0
  138.3160   68.9420  225.0060 C   0  0  2  0  0  0  0  0  0  0  0  0
  137.3610   69.9330  225.1550 O   0  0  0  0  0  0  0  0  0  0  0  0
  139.2470   68.8100  226.1490 C   0  0  0  0  0  0  0  0  0  0  0  0
  139.1910   69.7310  227.2040 C   0  0  0  0  0  0  0  0  0  0  0  0
  140.0430   69.6550  228.2830 C   0  0  0  0  0  0  0  0  0  0  0  0
  140.9940   68.6610  228.3770 C   0  0  0  0  0  0  0  0  0  0  0  0
  141.0680   67.7450  227.3510 C   0  0  0  0  0  0  0  0  0  0  0  0
  140.2040   67.8330  226.2660 C   0  0  0  0  0  0  0  0  0  0  0  0
  138.3350   68.7820  222.5210 C   0  0  1  0  0  0  0  0  0  0  0  0
  137.0510   69.3080  222.6460 O   0  0  0  0  0  0  0  0  0  0  0  0
  139.1040   69.5200  221.4590 C   0  0  0  0  0  0  0  0  0  0  0  0
  136.1430   72.6290  223.3080 C   0  0  0  0  0  0  0  0  0  0  0  0
  135.7430   73.9280  223.5970 C   0  0  0  0  0  0  0  0  0  0  0  0
  134.8380   74.0770  224.6420 C   0  0  0  0  0  0  0  0  0  0  0  0
  134.3650   72.9700  225.3530 C   0  0  0  0  0  0  0  0  0  0  0  0
  133.4640   73.1420  226.3910 C   0  0  0  0  0  0  0  0  0  0  0  0
  133.0040   72.0270  227.0860 C   0  0  0  0  0  0  0  0  0  0  0  0
  133.4510   70.7530  226.7360 C   0  0  0  0  0  0  0  0  0  0  0  0
  134.3510   70.5770  225.7020 C   0  0  0  0  0  0  0  0  0  0  0  0
  134.7930   71.7020  225.0250 C   0  0  0  0  0  0  0  0  0  0  0  0
  135.6690   71.5830  224.0110 N   0  0  0  0  0  0  0  0  0  0  0  0
  138.4500   73.8710  223.0080 H   0  0  0  0  0  0  0  0  0  0  0  0
  138.7786   72.8993  220.1841 H   0  0  0  0  0  0  0  0  0  0  0  0
  139.9285   73.9240  221.0861 H   0  0  0  0  0  0  0  0  0  0  0  0
  140.4031   70.8774  224.0698 H   0  0  0  0  0  0  0  0  0  0  0  0
  138.7203   71.3145  224.0048 H   0  0  0  0  0  0  0  0  0  0  0  0
  140.0245   68.5676  223.8782 H   0  0  0  0  0  0  0  0  0  0  0  0
  137.7485   68.0015  224.9479 H   0  0  0  0  0  0  0  0  0  0  0  0
  136.6010   69.7790  224.5660 H   0  0  0  0  0  0  0  0  0  0  0  0
  138.4445   70.5382  227.1690 H   0  0  0  0  0  0  0  0  0  0  0  0
  139.9634   70.4023  229.0862 H   0  0  0  0  0  0  0  0  0  0  0  0
  141.6707   68.6016  229.2422 H   0  0  0  0  0  0  0  0  0  0  0  0
  141.8155   66.9389  227.3906 H   0  0  0  0  0  0  0  0  0  0  0  0
  140.2911   67.0852  225.4640 H   0  0  0  0  0  0  0  0  0  0  0  0
  138.2347   67.7035  222.3294 H   0  0  0  0  0  0  0  0  0  0  0  0
  137.0300   70.2320  223.0060 H   0  0  0  0  0  0  0  0  0  0  0  0
  139.9475   68.9141  221.0966 H   0  0  0  0  0  0  0  0  0  0  0  0
  138.4883   69.7485  220.5765 H   0  0  0  0  0  0  0  0  0  0  0  0
  136.1216   74.7912  223.0300 H   0  0  0  0  0  0  0  0  0  0  0  0
  134.4880   75.0837  224.9142 H   0  0  0  0  0  0  0  0  0  0  0  0
  133.1156   74.1492  226.6633 H   0  0  0  0  0  0  0  0  0  0  0  0
  132.2877   72.1507  227.9116 H   0  0  0  0  0  0  0  0  0  0  0  0
  133.0825   69.8771  227.2900 H   0  0  0  0  0  0  0  0  0  0  0  0
  134.7059   69.5734  225.4248 H   0  0  0  0  0  0  0  0  0  0  0  0
  1  2  2  0
  2  3  1  0
  3  4  1  0
  4  5  1  0
  5  6  2  0
  5  7  1  0
  7  8  1  0
  8  9  1  0
  9 10  1  0
 10 11  1  0
 10 12  1  0
 12 13  2  0
 13 14  1  0
 14 15  2  0
 15 16  1  0
 16 17  2  0
  9 18  1  0
 18 19  1  0
 18 20  1  0
  2 21  1  0
 21 22  2  0
 22 23  1  0
 23 24  2  0
 24 25  1  0
 25 26  2  0
 26 27  1  0
 27 28  2  0
 28 29  1  0
 29 30  2  0
 20  7  1  0
 30 21  1  0
 17 12  1  0
 29 24  1  0
  3 31  1  0
  4 32  1  0
  4 33  1  0
  8 34  1  0
  8 35  1  0
  9 36  1  1
 10 37  1  6
 11 38  1  0
 13 39  1  0
 14 40  1  0
 15 41  1  0
 16 42  1  0
 17 43  1  0
 18 44  1  6
 19 45  1  0
 20 46  1  0
 20 47  1  0
 22 48  1  0
 23 49  1  0
 25 50  1  0
 26 51  1  0
 27 52  1  0
 28 53  1  0
M  END
>  <smiles>  (45) 
O=C(NCC(=O)N1C[C@@H]([C@H](O)c2ccccc2)[C@@H](O)C1)c1ccc2ccccc2n1

>  <score_type>  (45) 
oracle

>  <origin>  (45) 
autodockgpu

>  <m_score__min__energy>  (45) 
-8.6999999999999993

>  <m_primary>  (45) 
energy

>  <rmsd>  (45) 
7.047556736327211

>  <m_score__min__rmsd>  (45) 
7.047556736327211

>  <meeko>  (45) 
{"free_energy": -5.96, "intermolecular_energy": -8.35, "internal_energy": -4.97, "cluster_size": 18, "cluster_id": 6, "rank_in_cluster": 15}

>  <energy>  (45) 
-5.95

>  <cluster_rmsd>  (45) 
0.0

>  <cluster>  (45) 
9

$$$$

     RDKit          3D

 53 56  0  0  0  0  0  0  0  0999 V2000
  136.8460   71.6240  221.2530 O   0  0  0  0  0  0  0  0  0  0  0  0
  137.0970   72.4320  222.2010 C   0  0  0  0  0  0  0  0  0  0  0  0
  138.2850   73.2210  222.2150 N   0  0  0  0  0  0  0  0  0  0  0  0
  139.2510   73.1240  221.1390 C   0  0  0  0  0  0  0  0  0  0  0  0
  140.0940   71.9340  221.3900 C   0  0  0  0  0  0  0  0  0  0  0  0
  141.2900   71.9140  220.9940 O   0  0  0  0  0  0  0  0  0  0  0  0
  139.6200   70.7900  222.0690 N   0  0  0  0  0  0  0  0  0  0  0  0
  139.4910   70.7290  223.5230 C   0  0  0  0  0  0  0  0  0  0  0  0
  139.2220   69.2740  223.7330 C   0  0  1  0  0  0  0  0  0  0  0  0
  138.4220   69.0230  224.9780 C   0  0  2  0  0  0  0  0  0  0  0  0
  137.3880   69.9370  225.0750 O   0  0  0  0  0  0  0  0  0  0  0  0
  139.3420   69.0130  226.1380 C   0  0  0  0  0  0  0  0  0  0  0  0
  140.0250   67.8380  226.4770 C   0  0  0  0  0  0  0  0  0  0  0  0
  140.8840   67.7790  227.5520 C   0  0  0  0  0  0  0  0  0  0  0  0
  141.1120   68.8810  228.3490 C   0  0  0  0  0  0  0  0  0  0  0  0
  140.4510   70.0470  228.0350 C   0  0  0  0  0  0  0  0  0  0  0  0
  139.5850   70.0950  226.9480 C   0  0  0  0  0  0  0  0  0  0  0  0
  138.4730   68.8170  222.4980 C   0  0  1  0  0  0  0  0  0  0  0  0
  137.1630   69.2810  222.6010 O   0  0  0  0  0  0  0  0  0  0  0  0
  139.2140   69.5730  221.4280 C   0  0  0  0  0  0  0  0  0  0  0  0
  136.1500   72.5760  223.3270 C   0  0  0  0  0  0  0  0  0  0  0  0
  135.7710   73.8590  223.7070 C   0  0  0  0  0  0  0  0  0  0  0  0
  134.8790   73.9490  224.7690 C   0  0  0  0  0  0  0  0  0  0  0  0
  134.3970   72.8040  225.4090 C   0  0  0  0  0  0  0  0  0  0  0  0
  133.5080   72.9190  226.4660 C   0  0  0  0  0  0  0  0  0  0  0  0
  133.0380   71.7660  227.0900 C   0  0  0  0  0  0  0  0  0  0  0  0
  133.4640   70.5120  226.6500 C   0  0  0  0  0  0  0  0  0  0  0  0
  134.3510   70.3940  225.5970 C   0  0  0  0  0  0  0  0  0  0  0  0
  134.8030   71.5540  224.9920 C   0  0  0  0  0  0  0  0  0  0  0  0
  135.6670   71.4920  223.9630 N   0  0  0  0  0  0  0  0  0  0  0  0
  138.4270   73.8740  223.0410 H   0  0  0  0  0  0  0  0  0  0  0  0
  138.7290   73.0159  220.1768 H   0  0  0  0  0  0  0  0  0  0  0  0
  139.8716   74.0313  221.0985 H   0  0  0  0  0  0  0  0  0  0  0  0
  140.4191   71.0431  224.0230 H   0  0  0  0  0  0  0  0  0  0  0  0
  138.7174   71.3939  223.9346 H   0  0  0  0  0  0  0  0  0  0  0  0
  140.1594   68.7157  223.8727 H   0  0  0  0  0  0  0  0  0  0  0  0
  137.9337   68.0377  224.9490 H   0  0  0  0  0  0  0  0  0  0  0  0
  136.7040   69.7650  224.4030 H   0  0  0  0  0  0  0  0  0  0  0  0
  139.8708   66.9359  225.8668 H   0  0  0  0  0  0  0  0  0  0  0  0
  141.3986   66.8337  227.7794 H   0  0  0  0  0  0  0  0  0  0  0  0
  141.7989   68.8301  229.2067 H   0  0  0  0  0  0  0  0  0  0  0  0
  140.6089   70.9466  228.6480 H   0  0  0  0  0  0  0  0  0  0  0  0
  139.0715   71.0424  226.7270 H   0  0  0  0  0  0  0  0  0  0  0  0
  138.4284   67.7312  222.3278 H   0  0  0  0  0  0  0  0  0  0  0  0
  137.0940   70.2180  222.9200 H   0  0  0  0  0  0  0  0  0  0  0  0
  140.0897   69.0031  221.0839 H   0  0  0  0  0  0  0  0  0  0  0  0
  138.5951   69.7541  220.5368 H   0  0  0  0  0  0  0  0  0  0  0  0
  136.1560   74.7533  223.1952 H   0  0  0  0  0  0  0  0  0  0  0  0
  134.5463   74.9397  225.1121 H   0  0  0  0  0  0  0  0  0  0  0  0
  133.1771   73.9106  226.8085 H   0  0  0  0  0  0  0  0  0  0  0  0
  132.3313   71.8437  227.9293 H   0  0  0  0  0  0  0  0  0  0  0  0
  133.0888   69.6057  227.1479 H   0  0  0  0  0  0  0  0  0  0  0  0
  134.6883   69.4063  225.2495 H   0  0  0  0  0  0  0  0  0  0  0  0
  1  2  2  0
  2  3  1  0
  3  4  1  0
  4  5  1  0
  5  6  2  0
  5  7  1  0
  7  8  1  0
  8  9  1  0
  9 10  1  0
 10 11  1  0
 10 12  1  0
 12 13  2  0
 13 14  1  0
 14 15  2  0
 15 16  1  0
 16 17  2  0
  9 18  1  0
 18 19  1  0
 18 20  1  0
  2 21  1  0
 21 22  2  0
 22 23  1  0
 23 24  2  0
 24 25  1  0
 25 26  2  0
 26 27  1  0
 27 28  2  0
 28 29  1  0
 29 30  2  0
 20  7  1  0
 30 21  1  0
 17 12  1  0
 29 24  1  0
  3 31  1  0
  4 32  1  0
  4 33  1  0
  8 34  1  0
  8 35  1  0
  9 36  1  1
 10 37  1  6
 11 38  1  0
 13 39  1  0
 14 40  1  0
 15 41  1  0
 16 42  1  0
 17 43  1  0
 18 44  1  6
 19 45  1  0
 20 46  1  0
 20 47  1  0
 22 48  1  0
 23 49  1  0
 25 50  1  0
 26 51  1  0
 27 52  1  0
 28 53  1  0
M  END
>  <smiles>  (46) 
O=C(NCC(=O)N1C[C@@H]([C@H](O)c2ccccc2)[C@@H](O)C1)c1ccc2ccccc2n1

>  <score_type>  (46) 
oracle

>  <origin>  (46) 
autodockgpu

>  <m_score__min__energy>  (46) 
-8.6999999999999993

>  <m_primary>  (46) 
energy

>  <rmsd>  (46) 
6.975515684711532

>  <m_score__min__rmsd>  (46) 
6.975515684711532

>  <meeko>  (46) 
{"free_energy": -5.95, "intermolecular_energy": -8.34, "internal_energy": -4.95, "cluster_size": 18, "cluster_id": 6, "rank_in_cluster": 16}

>  <energy>  (46) 
-5.92

>  <cluster_rmsd>  (46) 
0.09

>  <cluster>  (46) 
9

$$$$

     RDKit          3D

 53 56  0  0  0  0  0  0  0  0999 V2000
  137.1040   76.2270  222.3690 O   0  0  0  0  0  0  0  0  0  0  0  0
  138.3700   76.3420  222.3880 C   0  0  0  0  0  0  0  0  0  0  0  0
  139.2250   75.2290  222.1300 N   0  0  0  0  0  0  0  0  0  0  0  0
  138.6710   73.9220  221.8380 C   0  0  0  0  0  0  0  0  0  0  0  0
  139.6370   72.9030  222.3050 C   0  0  0  0  0  0  0  0  0  0  0  0
  140.8540   73.2040  222.4380 O   0  0  0  0  0  0  0  0  0  0  0  0
  139.2610   71.5790  222.6200 N   0  0  0  0  0  0  0  0  0  0  0  0
  139.2170   71.0720  223.9890 C   0  0  0  0  0  0  0  0  0  0  0  0
  139.0350   69.6080  223.7540 C   0  0  1  0  0  0  0  0  0  0  0  0
  138.3200   68.9390  224.8930 C   0  0  2  0  0  0  0  0  0  0  0  0
  137.1600   69.6280  225.1990 O   0  0  0  0  0  0  0  0  0  0  0  0
  139.2630   68.7930  226.0240 C   0  0  0  0  0  0  0  0  0  0  0  0
  139.2230   69.7030  227.0880 C   0  0  0  0  0  0  0  0  0  0  0  0
  140.0860   69.6130  228.1580 C   0  0  0  0  0  0  0  0  0  0  0  0
  141.0340   68.6150  228.2310 C   0  0  0  0  0  0  0  0  0  0  0  0
  141.0930   67.7080  227.1960 C   0  0  0  0  0  0  0  0  0  0  0  0
  140.2170   67.8100  226.1210 C   0  0  0  0  0  0  0  0  0  0  0  0
  138.2430   69.4980  222.4680 C   0  0  1  0  0  0  0  0  0  0  0  0
  136.9180   69.8210  222.7570 O   0  0  0  0  0  0  0  0  0  0  0  0
  138.8830   70.5890  221.6530 C   0  0  0  0  0  0  0  0  0  0  0  0
  138.9950   77.6490  222.6790 C   0  0  0  0  0  0  0  0  0  0  0  0
  138.1620   78.7380  222.9100 C   0  0  0  0  0  0  0  0  0  0  0  0
  138.7890   79.9490  223.1810 C   0  0  0  0  0  0  0  0  0  0  0  0
  140.1830   80.0490  223.2160 C   0  0  0  0  0  0  0  0  0  0  0  0
  140.7870   81.2660  223.4890 C   0  0  0  0  0  0  0  0  0  0  0  0
  142.1770   81.3460  223.5210 C   0  0  0  0  0  0  0  0  0  0  0  0
  142.9460   80.2070  223.2790 C   0  0  0  0  0  0  0  0  0  0  0  0
  142.3480   78.9920  223.0070 C   0  0  0  0  0  0  0  0  0  0  0  0
  140.9640   78.9380  222.9820 C   0  0  0  0  0  0  0  0  0  0  0  0
  140.3340   77.7780  222.7220 N   0  0  0  0  0  0  0  0  0  0  0  0
  140.2720   75.4010  222.1640 H   0  0  0  0  0  0  0  0  0  0  0  0
  137.7126   73.7966  222.3631 H   0  0  0  0  0  0  0  0  0  0  0  0
  138.4931   73.8142  220.7578 H   0  0  0  0  0  0  0  0  0  0  0  0
  140.1544   71.2801  224.5257 H   0  0  0  0  0  0  0  0  0  0  0  0
  138.4347   71.5284  224.6132 H   0  0  0  0  0  0  0  0  0  0  0  0
  140.0061   69.0966  223.6805 H   0  0  0  0  0  0  0  0  0  0  0  0
  137.9903   67.9256  224.6205 H   0  0  0  0  0  0  0  0  0  0  0  0
  136.8590   70.1630  224.4430 H   0  0  0  0  0  0  0  0  0  0  0  0
  138.4801   70.5140  227.0686 H   0  0  0  0  0  0  0  0  0  0  0  0
  140.0172   70.3519  228.9699 H   0  0  0  0  0  0  0  0  0  0  0  0
  141.7207   68.5452  229.0875 H   0  0  0  0  0  0  0  0  0  0  0  0
  141.8373   66.8984  227.2200 H   0  0  0  0  0  0  0  0  0  0  0  0
  140.2916   67.0693  225.3112 H   0  0  0  0  0  0  0  0  0  0  0  0
  138.2450   68.5142  221.9759 H   0  0  0  0  0  0  0  0  0  0  0  0
  136.4280   69.1060  223.2390 H   0  0  0  0  0  0  0  0  0  0  0  0
  139.7663   70.2091  221.1187 H   0  0  0  0  0  0  0  0  0  0  0  0
  138.2071   70.9900  220.8834 H   0  0  0  0  0  0  0  0  0  0  0  0
  137.0662   78.6464  222.8800 H   0  0  0  0  0  0  0  0  0  0  0  0
  138.1778   80.8436  223.3711 H   0  0  0  0  0  0  0  0  0  0  0  0
  140.1746   82.1599  223.6785 H   0  0  0  0  0  0  0  0  0  0  0  0
  142.6683   82.3062  223.7368 H   0  0  0  0  0  0  0  0  0  0  0  0
  144.0434   80.2777  223.3052 H   0  0  0  0  0  0  0  0  0  0  0  0
  142.9531   78.0935  222.8158 H   0  0  0  0  0  0  0  0  0  0  0  0
  1  2  2  0
  2  3  1  0
  3  4  1  0
  4  5  1  0
  5  6  2  0
  5  7  1  0
  7  8  1  0
  8  9  1  0
  9 10  1  0
 10 11  1  0
 10 12  1  0
 12 13  2  0
 13 14  1  0
 14 15  2  0
 15 16  1  0
 16 17  2  0
  9 18  1  0
 18 19  1  0
 18 20  1  0
  2 21  1  0
 21 22  2  0
 22 23  1  0
 23 24  2  0
 24 25  1  0
 25 26  2  0
 26 27  1  0
 27 28  2  0
 28 29  1  0
 29 30  2  0
 20  7  1  0
 30 21  1  0
 17 12  1  0
 29 24  1  0
  3 31  1  0
  4 32  1  0
  4 33  1  0
  8 34  1  0
  8 35  1  0
  9 36  1  6
 10 37  1  6
 11 38  1  0
 13 39  1  0
 14 40  1  0
 15 41  1  0
 16 42  1  0
 17 43  1  0
 18 44  1  6
 19 45  1  0
 20 46  1  0
 20 47  1  0
 22 48  1  0
 23 49  1  0
 25 50  1  0
 26 51  1  0
 27 52  1  0
 28 53  1  0
M  END
>  <smiles>  (47) 
O=C(NCC(=O)N1C[C@@H]([C@H](O)c2ccccc2)[C@@H](O)C1)c1ccc2ccccc2n1

>  <score_type>  (47) 
oracle

>  <origin>  (47) 
autodockgpu

>  <m_score__min__energy>  (47) 
-8.6999999999999993

>  <m_primary>  (47) 
energy

>  <rmsd>  (47) 
8.724498875537355

>  <m_score__min__rmsd>  (47) 
8.724498875537355

>  <meeko>  (47) 
{"free_energy": -7.87, "intermolecular_energy": -10.26, "internal_energy": -2.94, "cluster_size": 3, "cluster_id": 4, "rank_in_cluster": 3}

>  <energy>  (47) 
-5.89

>  <cluster_rmsd>  (47) 
0.17

>  <cluster>  (47) 
9

$$$$

     RDKit          3D

 53 56  0  0  0  0  0  0  0  0999 V2000
  140.3220   74.5780  222.3370 O   0  0  0  0  0  0  0  0  0  0  0  0
  139.5470   75.5140  221.9640 C   0  0  0  0  0  0  0  0  0  0  0  0
  138.4370   75.2660  221.1030 N   0  0  0  0  0  0  0  0  0  0  0  0
  138.1570   73.9270  220.6220 C   0  0  0  0  0  0  0  0  0  0  0  0
  139.1120   73.6270  219.5320 C   0  0  0  0  0  0  0  0  0  0  0  0
  138.7740   72.8570  218.5930 O   0  0  0  0  0  0  0  0  0  0  0  0
  140.4140   74.1710  219.4840 N   0  0  0  0  0  0  0  0  0  0  0  0
  140.6830   75.5450  219.0680 C   0  0  0  0  0  0  0  0  0  0  0  0
  142.1720   75.5250  218.9360 C   0  0  1  0  0  0  0  0  0  0  0  0
  142.7750   76.8810  219.1660 C   0  0  2  0  0  0  0  0  0  0  0  0
  142.2550   77.4470  220.3170 O   0  0  0  0  0  0  0  0  0  0  0  0
  142.5900   77.6950  217.9440 C   0  0  0  0  0  0  0  0  0  0  0  0
  142.2380   79.0470  218.0540 C   0  0  0  0  0  0  0  0  0  0  0  0
  142.0460   79.8420  216.9460 C   0  0  0  0  0  0  0  0  0  0  0  0
  142.1950   79.3410  215.6700 C   0  0  0  0  0  0  0  0  0  0  0  0
  142.5410   78.0150  215.5370 C   0  0  0  0  0  0  0  0  0  0  0  0
  142.7300   77.2220  216.6640 C   0  0  0  0  0  0  0  0  0  0  0  0
  142.6580   74.5260  219.9660 C   0  0  1  0  0  0  0  0  0  0  0  0
  142.5740   75.1330  221.2180 O   0  0  0  0  0  0  0  0  0  0  0  0
  141.6080   73.4560  219.8310 C   0  0  0  0  0  0  0  0  0  0  0  0
  139.7800   76.9000  222.4220 C   0  0  0  0  0  0  0  0  0  0  0  0
  138.6740   77.6900  222.7130 C   0  0  0  0  0  0  0  0  0  0  0  0
  138.9370   78.9870  223.1400 C   0  0  0  0  0  0  0  0  0  0  0  0
  140.2490   79.4550  223.2650 C   0  0  0  0  0  0  0  0  0  0  0  0
  140.4870   80.7510  223.6930 C   0  0  0  0  0  0  0  0  0  0  0  0
  141.8000   81.1990  223.8120 C   0  0  0  0  0  0  0  0  0  0  0  0
  142.8590   80.3460  223.5010 C   0  0  0  0  0  0  0  0  0  0  0  0
  142.6250   79.0520  223.0740 C   0  0  0  0  0  0  0  0  0  0  0  0
  141.3110   78.6300  222.9640 C   0  0  0  0  0  0  0  0  0  0  0  0
  141.0310   77.3800  222.5530 N   0  0  0  0  0  0  0  0  0  0  0  0
  137.8340   76.0970  220.8340 H   0  0  0  0  0  0  0  0  0  0  0  0
  138.2831   73.2020  221.4396 H   0  0  0  0  0  0  0  0  0  0  0  0
  137.1224   73.8601  220.2545 H   0  0  0  0  0  0  0  0  0  0  0  0
  140.1968   75.7779  218.1091 H   0  0  0  0  0  0  0  0  0  0  0  0
  140.3026   76.3086  219.7624 H   0  0  0  0  0  0  0  0  0  0  0  0
  142.4746   75.2409  217.9173 H   0  0  0  0  0  0  0  0  0  0  0  0
  143.8586   76.8137  219.3429 H   0  0  0  0  0  0  0  0  0  0  0  0
  142.6220   77.0240  221.1130 H   0  0  0  0  0  0  0  0  0  0  0  0
  142.1114   79.4861  219.0546 H   0  0  0  0  0  0  0  0  0  0  0  0
  141.7683   80.8977  217.0816 H   0  0  0  0  0  0  0  0  0  0  0  0
  142.0425   79.9797  214.7875 H   0  0  0  0  0  0  0  0  0  0  0  0
  142.6686   77.5806  214.5345 H   0  0  0  0  0  0  0  0  0  0  0  0
  143.0045   76.1663  216.5222 H   0  0  0  0  0  0  0  0  0  0  0  0
  143.6878   74.1594  219.8432 H   0  0  0  0  0  0  0  0  0  0  0  0
  141.8160   75.7670  221.3060 H   0  0  0  0  0  0  0  0  0  0  0  0
  141.8787   72.7425  219.0388 H   0  0  0  0  0  0  0  0  0  0  0  0
  141.4907   72.8647  220.7511 H   0  0  0  0  0  0  0  0  0  0  0  0
  137.6468   77.3100  222.6111 H   0  0  0  0  0  0  0  0  0  0  0  0
  138.0988   79.6563  223.3836 H   0  0  0  0  0  0  0  0  0  0  0  0
  139.6476   81.4190  223.9362 H   0  0  0  0  0  0  0  0  0  0  0  0
  142.0022   82.2256  224.1513 H   0  0  0  0  0  0  0  0  0  0  0  0
  143.8935   80.7075  223.5967 H   0  0  0  0  0  0  0  0  0  0  0  0
  143.4586   78.3774  222.8288 H   0  0  0  0  0  0  0  0  0  0  0  0
  1  2  2  0
  2  3  1  0
  3  4  1  0
  4  5  1  0
  5  6  2  0
  5  7  1  0
  7  8  1  0
  8  9  1  0
  9 10  1  0
 10 11  1  0
 10 12  1  0
 12 13  2  0
 13 14  1  0
 14 15  2  0
 15 16  1  0
 16 17  2  0
  9 18  1  0
 18 19  1  0
 18 20  1  0
  2 21  1  0
 21 22  2  0
 22 23  1  0
 23 24  2  0
 24 25  1  0
 25 26  2  0
 26 27  1  0
 27 28  2  0
 28 29  1  0
 29 30  2  0
 20  7  1  0
 30 21  1  0
 17 12  1  0
 29 24  1  0
  3 31  1  0
  4 32  1  0
  4 33  1  0
  8 34  1  0
  8 35  1  0
  9 36  1  6
 10 37  1  1
 11 38  1  0
 13 39  1  0
 14 40  1  0
 15 41  1  0
 16 42  1  0
 17 43  1  0
 18 44  1  6
 19 45  1  0
 20 46  1  0
 20 47  1  0
 22 48  1  0
 23 49  1  0
 25 50  1  0
 26 51  1  0
 27 52  1  0
 28 53  1  0
M  END
>  <smiles>  (48) 
O=C(NCC(=O)N1C[C@@H]([C@H](O)c2ccccc2)[C@@H](O)C1)c1ccc2ccccc2n1

>  <score_type>  (48) 
oracle

>  <origin>  (48) 
autodockgpu

>  <m_score__min__energy>  (48) 
-8.6999999999999993

>  <m_primary>  (48) 
energy

>  <rmsd>  (48) 
7.023124930011236

>  <m_score__min__rmsd>  (48) 
7.023124930011236

>  <meeko>  (48) 
{"free_energy": -5.89, "intermolecular_energy": -8.28, "internal_energy": -4.87, "cluster_size": 6, "cluster_id": 9, "rank_in_cluster": 3}

>  <energy>  (48) 
-5.88

>  <cluster_rmsd>  (48) 
1.78

>  <cluster>  (48) 
9

$$$$

     RDKit          3D

 53 56  0  0  0  0  0  0  0  0999 V2000
  136.6790   71.3370  221.2930 O   0  0  0  0  0  0  0  0  0  0  0  0
  136.3910   71.9480  222.3710 C   0  0  0  0  0  0  0  0  0  0  0  0
  137.0380   73.1660  222.7340 N   0  0  0  0  0  0  0  0  0  0  0  0
  138.0520   73.7500  221.8780 C   0  0  0  0  0  0  0  0  0  0  0  0
  139.3170   73.0160  222.1060 C   0  0  0  0  0  0  0  0  0  0  0  0
  140.4210   73.6120  221.9900 O   0  0  0  0  0  0  0  0  0  0  0  0
  139.3550   71.6490  222.4580 N   0  0  0  0  0  0  0  0  0  0  0  0
  139.1310   71.1760  223.8220 C   0  0  0  0  0  0  0  0  0  0  0  0
  139.5380   69.7420  223.7060 C   0  0  1  0  0  0  0  0  0  0  0  0
  138.8270   68.8720  224.7020 C   0  0  2  0  0  0  0  0  0  0  0  0
  137.5170   69.2930  224.8550 O   0  0  0  0  0  0  0  0  0  0  0  0
  139.6130   68.8480  225.9560 C   0  0  0  0  0  0  0  0  0  0  0  0
  139.6640   69.9870  226.7700 C   0  0  0  0  0  0  0  0  0  0  0  0
  140.3880   70.0150  227.9410 C   0  0  0  0  0  0  0  0  0  0  0  0
  141.1010   68.9150  228.3680 C   0  0  0  0  0  0  0  0  0  0  0  0
  141.0670   67.7830  227.5840 C   0  0  0  0  0  0  0  0  0  0  0  0
  140.3320   67.7680  226.4030 C   0  0  0  0  0  0  0  0  0  0  0  0
  139.2010   69.3390  222.2850 C   0  0  1  0  0  0  0  0  0  0  0  0
  137.8200   69.1630  222.2100 O   0  0  0  0  0  0  0  0  0  0  0  0
  139.6120   70.5790  221.5390 C   0  0  0  0  0  0  0  0  0  0  0  0
  135.3640   71.4030  223.2840 C   0  0  0  0  0  0  0  0  0  0  0  0
  134.5120   72.2960  223.9230 C   0  0  0  0  0  0  0  0  0  0  0  0
  133.5620   71.7420  224.7720 C   0  0  0  0  0  0  0  0  0  0  0  0
  133.4790   70.3590  224.9620 C   0  0  0  0  0  0  0  0  0  0  0  0
  132.5230   69.8300  225.8140 C   0  0  0  0  0  0  0  0  0  0  0  0
  132.4560   68.4500  225.9890 C   0  0  0  0  0  0  0  0  0  0  0  0
  133.3460   67.6170  225.3120 C   0  0  0  0  0  0  0  0  0  0  0  0
  134.3020   68.1410  224.4620 C   0  0  0  0  0  0  0  0  0  0  0  0
  134.3480   69.5160  224.3030 C   0  0  0  0  0  0  0  0  0  0  0  0
  135.2590   70.0760  223.4870 N   0  0  0  0  0  0  0  0  0  0  0  0
  136.7450   73.6190  223.6490 H   0  0  0  0  0  0  0  0  0  0  0  0
  137.7505   73.6570  220.8242 H   0  0  0  0  0  0  0  0  0  0  0  0
  138.1810   74.8175  222.1098 H   0  0  0  0  0  0  0  0  0  0  0  0
  139.7611   71.7162  224.5440 H   0  0  0  0  0  0  0  0  0  0  0  0
  138.1040   71.3244  224.1871 H   0  0  0  0  0  0  0  0  0  0  0  0
  140.6088   69.6163  223.9239 H   0  0  0  0  0  0  0  0  0  0  0  0
  138.7571   67.8325  224.3492 H   0  0  0  0  0  0  0  0  0  0  0  0
  136.9770   69.0460  224.0830 H   0  0  0  0  0  0  0  0  0  0  0  0
  139.1089   70.8862  226.4645 H   0  0  0  0  0  0  0  0  0  0  0  0
  140.3977   70.9327  228.5474 H   0  0  0  0  0  0  0  0  0  0  0  0
  141.6781   68.9405  229.3041 H   0  0  0  0  0  0  0  0  0  0  0  0
  141.6239   66.8862  227.8933 H   0  0  0  0  0  0  0  0  0  0  0  0
  140.3269   66.8482  225.7998 H   0  0  0  0  0  0  0  0  0  0  0  0
  139.6739   68.4178  221.9140 H   0  0  0  0  0  0  0  0  0  0  0  0
  137.3030   69.8240  222.7400 H   0  0  0  0  0  0  0  0  0  0  0  0
  140.6794   70.5394  221.2762 H   0  0  0  0  0  0  0  0  0  0  0  0
  139.0657   70.6992  220.5918 H   0  0  0  0  0  0  0  0  0  0  0  0
  134.5858   73.3821  223.7652 H   0  0  0  0  0  0  0  0  0  0  0  0
  132.8624   72.4032  225.3044 H   0  0  0  0  0  0  0  0  0  0  0  0
  131.8247   70.4926  226.3463 H   0  0  0  0  0  0  0  0  0  0  0  0
  131.7008   68.0170  226.6615 H   0  0  0  0  0  0  0  0  0  0  0  0
  133.2866   66.5281  225.4562 H   0  0  0  0  0  0  0  0  0  0  0  0
  135.0053   67.4853  223.9278 H   0  0  0  0  0  0  0  0  0  0  0  0
  1  2  2  0
  2  3  1  0
  3  4  1  0
  4  5  1  0
  5  6  2  0
  5  7  1  0
  7  8  1  0
  8  9  1  0
  9 10  1  0
 10 11  1  0
 10 12  1  0
 12 13  2  0
 13 14  1  0
 14 15  2  0
 15 16  1  0
 16 17  2  0
  9 18  1  0
 18 19  1  0
 18 20  1  0
  2 21  1  0
 21 22  2  0
 22 23  1  0
 23 24  2  0
 24 25  1  0
 25 26  2  0
 26 27  1  0
 27 28  2  0
 28 29  1  0
 29 30  2  0
 20  7  1  0
 30 21  1  0
 17 12  1  0
 29 24  1  0
  3 31  1  0
  4 32  1  0
  4 33  1  0
  8 34  1  0
  8 35  1  0
  9 36  1  6
 10 37  1  6
 11 38  1  0
 13 39  1  0
 14 40  1  0
 15 41  1  0
 16 42  1  0
 17 43  1  0
 18 44  1  6
 19 45  1  0
 20 46  1  0
 20 47  1  0
 22 48  1  0
 23 49  1  0
 25 50  1  0
 26 51  1  0
 27 52  1  0
 28 53  1  0
M  END
>  <smiles>  (49) 
O=C(NCC(=O)N1C[C@@H]([C@H](O)c2ccccc2)[C@@H](O)C1)c1ccc2ccccc2n1

>  <score_type>  (49) 
oracle

>  <origin>  (49) 
autodockgpu

>  <m_score__min__energy>  (49) 
-8.6999999999999993

>  <m_primary>  (49) 
energy

>  <rmsd>  (49) 
6.874166752607373

>  <m_score__min__rmsd>  (49) 
6.874166752607373

>  <meeko>  (49) 
{"free_energy": -5.58, "intermolecular_energy": -7.97, "internal_energy": -4.91, "cluster_size": 18, "cluster_id": 6, "rank_in_cluster": 18}

>  <energy>  (49) 
-5.86

>  <cluster_rmsd>  (49) 
0.12

>  <cluster>  (49) 
9

$$$$

     RDKit          3D

 53 56  0  0  0  0  0  0  0  0999 V2000
  140.1770   71.0190  221.2790 O   0  0  0  0  0  0  0  0  0  0  0  0
  139.9720   71.6340  222.3720 C   0  0  0  0  0  0  0  0  0  0  0  0
  139.7570   73.0440  222.4070 N   0  0  0  0  0  0  0  0  0  0  0  0
  139.7680   73.8250  221.1860 C   0  0  0  0  0  0  0  0  0  0  0  0
  139.9120   75.2500  221.5590 C   0  0  0  0  0  0  0  0  0  0  0  0
  139.5980   75.6320  222.7180 O   0  0  0  0  0  0  0  0  0  0  0  0
  140.3950   76.2300  220.6640 N   0  0  0  0  0  0  0  0  0  0  0  0
  140.3430   77.6610  220.9530 C   0  0  0  0  0  0  0  0  0  0  0  0
  140.7100   78.2420  219.6260 C   0  0  1  0  0  0  0  0  0  0  0  0
  141.3640   79.5860  219.7610 C   0  0  2  0  0  0  0  0  0  0  0  0
  142.5750   79.5990  219.0920 O   0  0  0  0  0  0  0  0  0  0  0  0
  141.4540   79.9270  221.1990 C   0  0  0  0  0  0  0  0  0  0  0  0
  142.5600   79.5040  221.9480 C   0  0  0  0  0  0  0  0  0  0  0  0
  142.6830   79.7890  223.2900 C   0  0  0  0  0  0  0  0  0  0  0  0
  141.7180   80.5100  223.9610 C   0  0  0  0  0  0  0  0  0  0  0  0
  140.6220   80.9360  223.2450 C   0  0  0  0  0  0  0  0  0  0  0  0
  140.5080   80.6410  221.8910 C   0  0  0  0  0  0  0  0  0  0  0  0
  141.6470   77.2370  218.9880 C   0  0  1  0  0  0  0  0  0  0  0  0
  142.8880   77.3590  219.6120 O   0  0  0  0  0  0  0  0  0  0  0  0
  140.9850   75.9460  219.3880 C   0  0  0  0  0  0  0  0  0  0  0  0
  139.9480   70.8920  223.6500 C   0  0  0  0  0  0  0  0  0  0  0  0
  139.4590   69.5910  223.6460 C   0  0  0  0  0  0  0  0  0  0  0  0
  139.4550   68.9290  224.8680 C   0  0  0  0  0  0  0  0  0  0  0  0
  139.9210   69.5510  226.0290 C   0  0  0  0  0  0  0  0  0  0  0  0
  139.9080   68.8710  227.2370 C   0  0  0  0  0  0  0  0  0  0  0  0
  140.3770   69.5080  228.3830 C   0  0  0  0  0  0  0  0  0  0  0  0
  140.8540   70.8170  228.3080 C   0  0  0  0  0  0  0  0  0  0  0  0
  140.8690   71.4980  227.1050 C   0  0  0  0  0  0  0  0  0  0  0  0
  140.3980   70.8430  225.9800 C   0  0  0  0  0  0  0  0  0  0  0  0
  140.3910   71.4630  224.7860 N   0  0  0  0  0  0  0  0  0  0  0  0
  139.5920   73.4880  223.3570 H   0  0  0  0  0  0  0  0  0  0  0  0
  140.6132   73.5171  220.5529 H   0  0  0  0  0  0  0  0  0  0  0  0
  138.8363   73.6686  220.6226 H   0  0  0  0  0  0  0  0  0  0  0  0
  139.3349   77.9725  221.2639 H   0  0  0  0  0  0  0  0  0  0  0  0
  140.9966   77.9775  221.7793 H   0  0  0  0  0  0  0  0  0  0  0  0
  139.8153   78.4153  219.0100 H   0  0  0  0  0  0  0  0  0  0  0  0
  140.7631   80.3738  219.2832 H   0  0  0  0  0  0  0  0  0  0  0  0
  143.1950   78.9540  219.4770 H   0  0  0  0  0  0  0  0  0  0  0  0
  143.3533   78.9274  221.4497 H   0  0  0  0  0  0  0  0  0  0  0  0
  143.5688   79.4343  223.8374 H   0  0  0  0  0  0  0  0  0  0  0  0
  141.8204   80.7372  225.0324 H   0  0  0  0  0  0  0  0  0  0  0  0
  139.8317   81.5133  223.7471 H   0  0  0  0  0  0  0  0  0  0  0  0
  139.6188   80.9962  221.3496 H   0  0  0  0  0  0  0  0  0  0  0  0
  141.8078   77.3391  217.9046 H   0  0  0  0  0  0  0  0  0  0  0  0
  142.8690   77.9140  220.4340 H   0  0  0  0  0  0  0  0  0  0  0  0
  140.2140   75.6608  218.6571 H   0  0  0  0  0  0  0  0  0  0  0  0
  141.6940   75.1061  219.4307 H   0  0  0  0  0  0  0  0  0  0  0  0
  139.0949   69.1113  222.7255 H   0  0  0  0  0  0  0  0  0  0  0  0
  139.0782   67.8970  224.9221 H   0  0  0  0  0  0  0  0  0  0  0  0
  139.5311   67.8389  227.2897 H   0  0  0  0  0  0  0  0  0  0  0  0
  140.3714   68.9791  229.3475 H   0  0  0  0  0  0  0  0  0  0  0  0
  141.2228   71.3135  229.2177 H   0  0  0  0  0  0  0  0  0  0  0  0
  141.2442   72.5302  227.0435 H   0  0  0  0  0  0  0  0  0  0  0  0
  1  2  2  0
  2  3  1  0
  3  4  1  0
  4  5  1  0
  5  6  2  0
  5  7  1  0
  7  8  1  0
  8  9  1  0
  9 10  1  0
 10 11  1  0
 10 12  1  0
 12 13  2  0
 13 14  1  0
 14 15  2  0
 15 16  1  0
 16 17  2  0
  9 18  1  0
 18 19  1  0
 18 20  1  0
  2 21  1  0
 21 22  2  0
 22 23  1  0
 23 24  2  0
 24 25  1  0
 25 26  2  0
 26 27  1  0
 27 28  2  0
 28 29  1  0
 29 30  2  0
 20  7  1  0
 30 21  1  0
 17 12  1  0
 29 24  1  0
  3 31  1  0
  4 32  1  0
  4 33  1  0
  8 34  1  0
  8 35  1  0
  9 36  1  6
 10 37  1  6
 11 38  1  0
 13 39  1  0
 14 40  1  0
 15 41  1  0
 16 42  1  0
 17 43  1  0
 18 44  1  6
 19 45  1  0
 20 46  1  0
 20 47  1  0
 22 48  1  0
 23 49  1  0
 25 50  1  0
 26 51  1  0
 27 52  1  0
 28 53  1  0
M  END
>  <smiles>  (50) 
O=C(NCC(=O)N1C[C@@H]([C@H](O)c2ccccc2)[C@@H](O)C1)c1ccc2ccccc2n1

>  <score_type>  (50) 
oracle

>  <origin>  (50) 
autodockgpu

>  <m_score__min__energy>  (50) 
-8.6999999999999993

>  <m_primary>  (50) 
energy

>  <rmsd>  (50) 
2.375033520302457

>  <m_score__min__rmsd>  (50) 
2.375033520302457

>  <meeko>  (50) 
{"free_energy": -8.49, "intermolecular_energy": -10.88, "internal_energy": -2.6, "cluster_size": 15, "cluster_id": 1, "rank_in_cluster": 5}

>  <energy>  (50) 
-5.85

>  <cluster_rmsd>  (50) 
0.23

>  <cluster>  (50) 
9

$$$$
