
     RDKit          3D

 56 59  0  0  0  0  0  0  0  0999 V2000
  136.8560   71.4930  220.9020 O   0  0  0  0  0  0  0  0  0  0  0  0
  137.3790   71.9720  221.9390 C   0  0  0  0  0  0  0  0  0  0  0  0
  137.5020   73.3900  222.0810 N   0  0  0  0  0  0  0  0  0  0  0  0
  137.0480   74.3150  221.0740 C   0  0  0  0  0  0  0  0  0  0  0  0
  136.9020   75.6920  221.6100 C   0  0  0  0  0  0  0  0  0  0  0  0
  135.7740   76.2070  221.8840 O   0  0  0  0  0  0  0  0  0  0  0  0
  138.0360   76.5140  221.8430 N   0  0  0  0  0  0  0  0  0  0  0  0
  138.0170   77.6920  222.6950 C   0  0  0  0  0  0  0  0  0  0  0  0
  138.9030   78.6790  221.9690 C   0  0  0  0  0  0  0  0  0  0  0  0
  139.8340   77.8040  221.1950 C   0  0  0  0  0  0  0  0  0  0  0  0
  139.3810   76.3810  221.3200 C   0  0  1  0  0  0  0  0  0  0  0  0
  140.2390   75.5530  222.2220 C   0  0  0  0  0  0  0  0  0  0  0  0
  139.9430   74.1490  222.1830 N   0  0  0  0  0  0  0  0  0  0  0  0
  140.4270   73.4670  221.0250 C   0  0  0  0  0  0  0  0  0  0  0  0
  141.8920   73.6000  220.8090 C   0  0  0  0  0  0  0  0  0  0  0  0
  142.5000   74.7650  220.4060 C   0  0  0  0  0  0  0  0  0  0  0  0
  143.8830   74.8470  220.2150 C   0  0  0  0  0  0  0  0  0  0  0  0
  144.6780   73.7190  220.4380 C   0  0  0  0  0  0  0  0  0  0  0  0
  144.0830   72.5510  220.8410 C   0  0  0  0  0  0  0  0  0  0  0  0
  142.7250   72.5080  221.0180 C   0  0  0  0  0  0  0  0  0  0  0  0
  137.8790   71.1210  223.0330 C   0  0  0  0  0  0  0  0  0  0  0  0
  137.3760   69.8630  223.2640 C   0  0  0  0  0  0  0  0  0  0  0  0
  137.8450   69.0500  224.3010 C   0  0  0  0  0  0  0  0  0  0  0  0
  138.8620   69.5540  225.1170 C   0  0  0  0  0  0  0  0  0  0  0  0
  139.3820   68.8090  226.1660 C   0  0  0  0  0  0  0  0  0  0  0  0
  140.3830   69.3470  226.9440 C   0  0  0  0  0  0  0  0  0  0  0  0
  141.0860   68.4480  228.2910 Cl  0  0  0  0  0  0  0  0  0  0  0  0
  140.8540   70.6080  226.6730 C   0  0  0  0  0  0  0  0  0  0  0  0
  140.3650   71.3930  225.6350 C   0  0  0  0  0  0  0  0  0  0  0  0
  139.3640   70.8360  224.8690 C   0  0  0  0  0  0  0  0  0  0  0  0
  138.8590   71.5540  223.8530 N   0  0  0  0  0  0  0  0  0  0  0  0
  137.9510   73.7510  222.9770 H   0  0  0  0  0  0  0  0  0  0  0  0
  137.7771   74.3298  220.2505 H   0  0  0  0  0  0  0  0  0  0  0  0
  136.0604   73.9796  220.7245 H   0  0  0  0  0  0  0  0  0  0  0  0
  136.9947   78.0850  222.7970 H   0  0  0  0  0  0  0  0  0  0  0  0
  138.3640   77.4821  223.7175 H   0  0  0  0  0  0  0  0  0  0  0  0
  138.3120   79.3175  221.2960 H   0  0  0  0  0  0  0  0  0  0  0  0
  139.4262   79.3675  222.6489 H   0  0  0  0  0  0  0  0  0  0  0  0
  139.8262   78.1022  220.1362 H   0  0  0  0  0  0  0  0  0  0  0  0
  140.8555   77.9056  221.5904 H   0  0  0  0  0  0  0  0  0  0  0  0
  139.4377   75.8490  220.3589 H   0  0  0  0  0  0  0  0  0  0  0  0
  141.2889   75.6934  221.9254 H   0  0  0  0  0  0  0  0  0  0  0  0
  140.0399   75.8916  223.2495 H   0  0  0  0  0  0  0  0  0  0  0  0
  140.0110   73.6510  223.0680 H   0  0  0  0  0  0  0  0  0  0  0  0
  140.1890   72.3981  221.1292 H   0  0  0  0  0  0  0  0  0  0  0  0
  139.9355   73.9296  220.1564 H   0  0  0  0  0  0  0  0  0  0  0  0
  141.8818   75.6574  220.2289 H   0  0  0  0  0  0  0  0  0  0  0  0
  144.3421   75.7928  219.8914 H   0  0  0  0  0  0  0  0  0  0  0  0
  145.7672   73.7677  220.2921 H   0  0  0  0  0  0  0  0  0  0  0  0
  144.6928   71.6534  221.0212 H   0  0  0  0  0  0  0  0  0  0  0  0
  142.2709   71.5600  221.3423 H   0  0  0  0  0  0  0  0  0  0  0  0
  136.5770   69.4824  222.6108 H   0  0  0  0  0  0  0  0  0  0  0  0
  137.4271   68.0464  224.4690 H   0  0  0  0  0  0  0  0  0  0  0  0
  138.9986   67.7992  226.3740 H   0  0  0  0  0  0  0  0  0  0  0  0
  141.6554   71.0160  227.3066 H   0  0  0  0  0  0  0  0  0  0  0  0
  140.7552   72.4021  225.4363 H   0  0  0  0  0  0  0  0  0  0  0  0
  1  2  2  0
  2  3  1  0
  3  4  1  0
  4  5  1  0
  5  6  2  0
  5  7  1  0
  7  8  1  0
  8  9  1  0
  9 10  1  0
 10 11  1  0
 11 12  1  0
 12 13  1  0
 13 14  1  0
 14 15  1  0
 15 16  2  0
 16 17  1  0
 17 18  2  0
 18 19  1  0
 19 20  2  0
  2 21  1  0
 21 22  2  0
 22 23  1  0
 23 24  2  0
 24 25  1  0
 25 26  2  0
 26 27  1  0
 26 28  1  0
 28 29  2  0
 29 30  1  0
 30 31  2  0
 11  7  1  0
 20 15  1  0
 31 21  1  0
 30 24  1  0
  3 32  1  0
  4 33  1  0
  4 34  1  0
  8 35  1  0
  8 36  1  0
  9 37  1  0
  9 38  1  0
 10 39  1  0
 10 40  1  0
 11 41  1  6
 12 42  1  0
 12 43  1  0
 13 44  1  0
 14 45  1  0
 14 46  1  0
 16 47  1  0
 17 48  1  0
 18 49  1  0
 19 50  1  0
 20 51  1  0
 22 52  1  0
 23 53  1  0
 25 54  1  0
 28 55  1  0
 29 56  1  0
M  END
>  <smiles>  (1) 
O=C(NCC(=O)N1CCC[C@H]1CNCc1ccccc1)c1ccc2cc(Cl)ccc2n1

>  <score_type>  (1) 
oracle

>  <origin>  (1) 
autodockgpu

>  <m_score__min__energy>  (1) 
-9.3399999999999999

>  <m_primary>  (1) 
energy

>  <rmsd>  (1) 
5.0540200536709605

>  <m_score__min__rmsd>  (1) 
5.0540200536709605

>  <meeko>  (1) 
{"free_energy": -7.33, "intermolecular_energy": -9.72, "internal_energy": -2.84, "cluster_size": 10, "cluster_id": 1, "rank_in_cluster": 8}

>  <energy>  (1) 
-9.34

>  <cluster_rmsd>  (1) 
0.0

>  <cluster>  (1) 
1

$$$$

     RDKit          3D

 56 59  0  0  0  0  0  0  0  0999 V2000
  137.1690   74.6810  220.1760 O   0  0  0  0  0  0  0  0  0  0  0  0
  137.9390   74.3340  221.1070 C   0  0  0  0  0  0  0  0  0  0  0  0
  137.3910   73.8490  222.3360 N   0  0  0  0  0  0  0  0  0  0  0  0
  135.9730   73.7380  222.5650 C   0  0  0  0  0  0  0  0  0  0  0  0
  135.6410   72.5830  223.4370 C   0  0  0  0  0  0  0  0  0  0  0  0
  134.8220   72.6640  224.4040 O   0  0  0  0  0  0  0  0  0  0  0  0
  136.2360   71.3100  223.2290 N   0  0  0  0  0  0  0  0  0  0  0  0
  135.6910   70.3020  222.3330 C   0  0  0  0  0  0  0  0  0  0  0  0
  135.9310   69.0010  223.0640 C   0  0  0  0  0  0  0  0  0  0  0  0
  137.1230   69.2950  223.9140 C   0  0  0  0  0  0  0  0  0  0  0  0
  137.4380   70.7580  223.8210 C   0  0  1  0  0  0  0  0  0  0  0  0
  138.6450   71.0620  222.9930 C   0  0  0  0  0  0  0  0  0  0  0  0
  139.5220   72.0370  223.5760 N   0  0  0  0  0  0  0  0  0  0  0  0
  140.7190   71.5030  224.1430 C   0  0  0  0  0  0  0  0  0  0  0  0
  140.5930   71.1080  225.5700 C   0  0  0  0  0  0  0  0  0  0  0  0
  140.0100   69.9350  225.9880 C   0  0  0  0  0  0  0  0  0  0  0  0
  139.9130   69.6020  227.3420 C   0  0  0  0  0  0  0  0  0  0  0  0
  140.4190   70.4780  228.3060 C   0  0  0  0  0  0  0  0  0  0  0  0
  141.0040   71.6510  227.9030 C   0  0  0  0  0  0  0  0  0  0  0  0
  141.0820   71.9440  226.5670 C   0  0  0  0  0  0  0  0  0  0  0  0
  139.4060   74.4060  220.9830 C   0  0  0  0  0  0  0  0  0  0  0  0
  140.0650   75.6030  220.8380 C   0  0  0  0  0  0  0  0  0  0  0  0
  141.4560   75.6800  220.7200 C   0  0  0  0  0  0  0  0  0  0  0  0
  142.1810   74.4860  220.7550 C   0  0  0  0  0  0  0  0  0  0  0  0
  143.5650   74.4770  220.6450 C   0  0  0  0  0  0  0  0  0  0  0  0
  144.2370   73.2750  220.6850 C   0  0  0  0  0  0  0  0  0  0  0  0
  145.9960   73.2000  220.5510 Cl  0  0  0  0  0  0  0  0  0  0  0  0
  143.5340   72.1060  220.8320 C   0  0  0  0  0  0  0  0  0  0  0  0
  142.1500   72.0630  220.9450 C   0  0  0  0  0  0  0  0  0  0  0  0
  141.4960   73.2750  220.9040 C   0  0  0  0  0  0  0  0  0  0  0  0
  140.1580   73.2870  221.0110 N   0  0  0  0  0  0  0  0  0  0  0  0
  138.0810   73.5650  223.0960 H   0  0  0  0  0  0  0  0  0  0  0  0
  135.6174   74.6608  223.0466 H   0  0  0  0  0  0  0  0  0  0  0  0
  135.4821   73.5830  221.5929 H   0  0  0  0  0  0  0  0  0  0  0  0
  134.6160   70.4655  222.1670 H   0  0  0  0  0  0  0  0  0  0  0  0
  136.1571   70.3221  221.3368 H   0  0  0  0  0  0  0  0  0  0  0  0
  135.0628   68.7319  223.6835 H   0  0  0  0  0  0  0  0  0  0  0  0
  136.0878   68.1500  222.3849 H   0  0  0  0  0  0  0  0  0  0  0  0
  136.9054   69.0300  224.9592 H   0  0  0  0  0  0  0  0  0  0  0  0
  137.9838   68.7059  223.5647 H   0  0  0  0  0  0  0  0  0  0  0  0
  137.6911   71.1848  224.8027 H   0  0  0  0  0  0  0  0  0  0  0  0
  139.2105   70.1294  222.8504 H   0  0  0  0  0  0  0  0  0  0  0  0
  138.2823   71.4864  222.0452 H   0  0  0  0  0  0  0  0  0  0  0  0
  139.6080   72.9200  223.0760 H   0  0  0  0  0  0  0  0  0  0  0  0
  141.0088   70.6142  223.5633 H   0  0  0  0  0  0  0  0  0  0  0  0
  141.4729   72.3030  224.1016 H   0  0  0  0  0  0  0  0  0  0  0  0
  139.6089   69.2395  225.2361 H   0  0  0  0  0  0  0  0  0  0  0  0
  139.4413   68.6562  227.6469 H   0  0  0  0  0  0  0  0  0  0  0  0
  140.3489   70.2296  229.3753 H   0  0  0  0  0  0  0  0  0  0  0  0
  141.4081   72.3523  228.6479 H   0  0  0  0  0  0  0  0  0  0  0  0
  141.5564   72.8902  226.2677 H   0  0  0  0  0  0  0  0  0  0  0  0
  139.4778   76.5329  220.8139 H   0  0  0  0  0  0  0  0  0  0  0  0
  141.9632   76.6491  220.6034 H   0  0  0  0  0  0  0  0  0  0  0  0
  144.1192   75.4198  220.5271 H   0  0  0  0  0  0  0  0  0  0  0  0
  144.0922   71.1586  220.8618 H   0  0  0  0  0  0  0  0  0  0  0  0
  141.6063   71.1138  221.0608 H   0  0  0  0  0  0  0  0  0  0  0  0
  1  2  2  0
  2  3  1  0
  3  4  1  0
  4  5  1  0
  5  6  2  0
  5  7  1  0
  7  8  1  0
  8  9  1  0
  9 10  1  0
 10 11  1  0
 11 12  1  0
 12 13  1  0
 13 14  1  0
 14 15  1  0
 15 16  2  0
 16 17  1  0
 17 18  2  0
 18 19  1  0
 19 20  2  0
  2 21  1  0
 21 22  2  0
 22 23  1  0
 23 24  2  0
 24 25  1  0
 25 26  2  0
 26 27  1  0
 26 28  1  0
 28 29  2  0
 29 30  1  0
 30 31  2  0
 11  7  1  0
 20 15  1  0
 31 21  1  0
 30 24  1  0
  3 32  1  0
  4 33  1  0
  4 34  1  0
  8 35  1  0
  8 36  1  0
  9 37  1  0
  9 38  1  0
 10 39  1  0
 10 40  1  0
 11 41  1  1
 12 42  1  0
 12 43  1  0
 13 44  1  0
 14 45  1  0
 14 46  1  0
 16 47  1  0
 17 48  1  0
 18 49  1  0
 19 50  1  0
 20 51  1  0
 22 52  1  0
 23 53  1  0
 25 54  1  0
 28 55  1  0
 29 56  1  0
M  END
>  <smiles>  (2) 
O=C(NCC(=O)N1CCC[C@H]1CNCc1ccccc1)c1ccc2cc(Cl)ccc2n1

>  <score_type>  (2) 
oracle

>  <origin>  (2) 
autodockgpu

>  <m_score__min__energy>  (2) 
-9.3399999999999999

>  <m_primary>  (2) 
energy

>  <rmsd>  (2) 
8.634381055754748

>  <m_score__min__rmsd>  (2) 
8.634381055754748

>  <meeko>  (2) 
{"free_energy": -7.39, "intermolecular_energy": -9.78, "internal_energy": -3.56, "cluster_size": 4, "cluster_id": 9, "rank_in_cluster": 1}

>  <energy>  (2) 
-8.79

>  <cluster_rmsd>  (2) 
0.84

>  <cluster>  (2) 
1

$$$$

     RDKit          3D

 56 59  0  0  0  0  0  0  0  0999 V2000
  140.1770   73.3800  220.2770 O   0  0  0  0  0  0  0  0  0  0  0  0
  139.9440   73.5350  221.5010 C   0  0  0  0  0  0  0  0  0  0  0  0
  139.7910   74.8550  222.0330 N   0  0  0  0  0  0  0  0  0  0  0  0
  139.8950   76.0380  221.2180 C   0  0  0  0  0  0  0  0  0  0  0  0
  140.7100   77.0920  221.8710 C   0  0  0  0  0  0  0  0  0  0  0  0
  141.0120   77.0630  223.1040 O   0  0  0  0  0  0  0  0  0  0  0  0
  141.1970   78.2060  221.1370 N   0  0  0  0  0  0  0  0  0  0  0  0
  141.9920   79.2730  221.7230 C   0  0  0  0  0  0  0  0  0  0  0  0
  141.4860   80.5210  221.0360 C   0  0  0  0  0  0  0  0  0  0  0  0
  140.9860   80.0150  219.7230 C   0  0  0  0  0  0  0  0  0  0  0  0
  141.0260   78.5160  219.7320 C   0  0  1  0  0  0  0  0  0  0  0  0
  142.1310   77.9390  218.9050 C   0  0  0  0  0  0  0  0  0  0  0  0
  142.9210   76.9570  219.5920 N   0  0  0  0  0  0  0  0  0  0  0  0
  143.0590   75.7120  218.9050 C   0  0  0  0  0  0  0  0  0  0  0  0
  143.6950   74.6390  219.7130 C   0  0  0  0  0  0  0  0  0  0  0  0
  144.8310   74.8230  220.4650 C   0  0  0  0  0  0  0  0  0  0  0  0
  145.3960   73.7860  221.2120 C   0  0  0  0  0  0  0  0  0  0  0  0
  144.7990   72.5220  221.2010 C   0  0  0  0  0  0  0  0  0  0  0  0
  143.6640   72.3250  220.4550 C   0  0  0  0  0  0  0  0  0  0  0  0
  143.1380   73.3660  219.7350 C   0  0  0  0  0  0  0  0  0  0  0  0
  139.8190   72.3970  222.4290 C   0  0  0  0  0  0  0  0  0  0  0  0
  139.1670   71.2400  222.0760 C   0  0  0  0  0  0  0  0  0  0  0  0
  139.0440   70.1550  222.9500 C   0  0  0  0  0  0  0  0  0  0  0  0
  139.6110   70.2740  224.2220 C   0  0  0  0  0  0  0  0  0  0  0  0
  139.5330   69.2430  225.1470 C   0  0  0  0  0  0  0  0  0  0  0  0
  140.1080   69.4050  226.3890 C   0  0  0  0  0  0  0  0  0  0  0  0
  140.0420   68.1300  227.6080 Cl  0  0  0  0  0  0  0  0  0  0  0  0
  140.7490   70.5800  226.6940 C   0  0  0  0  0  0  0  0  0  0  0  0
  140.8530   71.6410  225.8030 C   0  0  0  0  0  0  0  0  0  0  0  0
  140.2720   71.4590  224.5660 C   0  0  0  0  0  0  0  0  0  0  0  0
  140.3470   72.4540  223.6690 N   0  0  0  0  0  0  0  0  0  0  0  0
  139.5930   74.9380  223.0760 H   0  0  0  0  0  0  0  0  0  0  0  0
  140.3636   75.7692  220.2598 H   0  0  0  0  0  0  0  0  0  0  0  0
  138.8811   76.4370  221.0666 H   0  0  0  0  0  0  0  0  0  0  0  0
  141.8297   79.3309  222.8094 H   0  0  0  0  0  0  0  0  0  0  0  0
  143.0729   79.1215  221.5863 H   0  0  0  0  0  0  0  0  0  0  0  0
  140.6737   80.9864  221.6136 H   0  0  0  0  0  0  0  0  0  0  0  0
  142.2588   81.2967  220.9311 H   0  0  0  0  0  0  0  0  0  0  0  0
  139.9520   80.3557  219.5657 H   0  0  0  0  0  0  0  0  0  0  0  0
  141.6196   80.3995  218.9101 H   0  0  0  0  0  0  0  0  0  0  0  0
  140.1210   78.0799  219.2840 H   0  0  0  0  0  0  0  0  0  0  0  0
  141.6876   77.4665  218.0161 H   0  0  0  0  0  0  0  0  0  0  0  0
  142.8057   78.7696  218.6502 H   0  0  0  0  0  0  0  0  0  0  0  0
  143.7450   77.3040  220.0780 H   0  0  0  0  0  0  0  0  0  0  0  0
  142.0574   75.3704  218.6049 H   0  0  0  0  0  0  0  0  0  0  0  0
  143.7209   75.8960  218.0459 H   0  0  0  0  0  0  0  0  0  0  0  0
  145.3084   75.8139  220.4791 H   0  0  0  0  0  0  0  0  0  0  0  0
  146.3052   73.9633  221.8052 H   0  0  0  0  0  0  0  0  0  0  0  0
  145.2334   71.6958  221.7829 H   0  0  0  0  0  0  0  0  0  0  0  0
  143.1794   71.3377  220.4350 H   0  0  0  0  0  0  0  0  0  0  0  0
  142.2281   73.1844  219.1442 H   0  0  0  0  0  0  0  0  0  0  0  0
  138.7264   71.1645  221.0709 H   0  0  0  0  0  0  0  0  0  0  0  0
  138.5182   69.2378  222.6462 H   0  0  0  0  0  0  0  0  0  0  0  0
  139.0173   68.3055  224.8917 H   0  0  0  0  0  0  0  0  0  0  0  0
  141.2016   70.6866  227.6909 H   0  0  0  0  0  0  0  0  0  0  0  0
  141.3702   72.5745  226.0697 H   0  0  0  0  0  0  0  0  0  0  0  0
  1  2  2  0
  2  3  1  0
  3  4  1  0
  4  5  1  0
  5  6  2  0
  5  7  1  0
  7  8  1  0
  8  9  1  0
  9 10  1  0
 10 11  1  0
 11 12  1  0
 12 13  1  0
 13 14  1  0
 14 15  1  0
 15 16  2  0
 16 17  1  0
 17 18  2  0
 18 19  1  0
 19 20  2  0
  2 21  1  0
 21 22  2  0
 22 23  1  0
 23 24  2  0
 24 25  1  0
 25 26  2  0
 26 27  1  0
 26 28  1  0
 28 29  2  0
 29 30  1  0
 30 31  2  0
 11  7  1  0
 20 15  1  0
 31 21  1  0
 30 24  1  0
  3 32  1  0
  4 33  1  0
  4 34  1  0
  8 35  1  0
  8 36  1  0
  9 37  1  0
  9 38  1  0
 10 39  1  0
 10 40  1  0
 11 41  1  6
 12 42  1  0
 12 43  1  0
 13 44  1  0
 14 45  1  0
 14 46  1  0
 16 47  1  0
 17 48  1  0
 18 49  1  0
 19 50  1  0
 20 51  1  0
 22 52  1  0
 23 53  1  0
 25 54  1  0
 28 55  1  0
 29 56  1  0
M  END
>  <smiles>  (3) 
O=C(NCC(=O)N1CCC[C@H]1CNCc1ccccc1)c1ccc2cc(Cl)ccc2n1

>  <score_type>  (3) 
oracle

>  <origin>  (3) 
autodockgpu

>  <m_score__min__energy>  (3) 
-9.3399999999999999

>  <m_primary>  (3) 
energy

>  <rmsd>  (3) 
5.309279165540784

>  <m_score__min__rmsd>  (3) 
5.309279165540784

>  <meeko>  (3) 
{"free_energy": -8.31, "intermolecular_energy": -10.7, "internal_energy": -2.48, "cluster_size": 10, "cluster_id": 1, "rank_in_cluster": 5}

>  <energy>  (3) 
-8.4

>  <cluster_rmsd>  (3) 
1.02

>  <cluster>  (3) 
1

$$$$

     RDKit          3D

 56 59  0  0  0  0  0  0  0  0999 V2000
  139.6730   74.7400  222.2230 O   0  0  0  0  0  0  0  0  0  0  0  0
  139.2180   75.8390  221.8180 C   0  0  0  0  0  0  0  0  0  0  0  0
  137.8440   76.1660  222.0480 N   0  0  0  0  0  0  0  0  0  0  0  0
  136.9390   75.2790  222.7330 C   0  0  0  0  0  0  0  0  0  0  0  0
  136.0610   76.0080  223.6830 C   0  0  0  0  0  0  0  0  0  0  0  0
  135.8620   75.6160  224.8740 O   0  0  0  0  0  0  0  0  0  0  0  0
  135.3890   77.1980  223.2980 N   0  0  0  0  0  0  0  0  0  0  0  0
  134.1430   77.6510  223.8960 C   0  0  0  0  0  0  0  0  0  0  0  0
  133.3670   78.2190  222.7300 C   0  0  0  0  0  0  0  0  0  0  0  0
  134.4360   78.6460  221.7770 C   0  0  0  0  0  0  0  0  0  0  0  0
  135.7610   78.1690  222.2880 C   0  0  1  0  0  0  0  0  0  0  0  0
  136.6110   79.2570  222.8620 C   0  0  0  0  0  0  0  0  0  0  0  0
  138.0220   79.0140  222.7550 N   0  0  0  0  0  0  0  0  0  0  0  0
  138.8090   79.5820  223.8030 C   0  0  0  0  0  0  0  0  0  0  0  0
  140.1920   79.9430  223.3970 C   0  0  0  0  0  0  0  0  0  0  0  0
  140.5300   81.1480  222.8280 C   0  0  0  0  0  0  0  0  0  0  0  0
  141.8460   81.4480  222.4610 C   0  0  0  0  0  0  0  0  0  0  0  0
  142.8530   80.5030  222.6750 C   0  0  0  0  0  0  0  0  0  0  0  0
  142.5300   79.2970  223.2430 C   0  0  0  0  0  0  0  0  0  0  0  0
  141.2300   79.0380  223.5890 C   0  0  0  0  0  0  0  0  0  0  0  0
  140.0530   76.8220  221.1050 C   0  0  0  0  0  0  0  0  0  0  0  0
  141.3820   76.5910  220.8410 C   0  0  0  0  0  0  0  0  0  0  0  0
  142.1810   77.5190  220.1650 C   0  0  0  0  0  0  0  0  0  0  0  0
  141.5870   78.7160  219.7540 C   0  0  0  0  0  0  0  0  0  0  0  0
  142.3110   79.6870  219.0770 C   0  0  0  0  0  0  0  0  0  0  0  0
  141.6830   80.8500  218.6910 C   0  0  0  0  0  0  0  0  0  0  0  0
  142.5510   82.1220  217.8270 Cl  0  0  0  0  0  0  0  0  0  0  0  0
  140.3530   81.0340  218.9780 C   0  0  0  0  0  0  0  0  0  0  0  0
  139.5860   80.0920  219.6530 C   0  0  0  0  0  0  0  0  0  0  0  0
  140.2330   78.9350  220.0300 C   0  0  0  0  0  0  0  0  0  0  0  0
  139.5340   77.9940  220.6840 N   0  0  0  0  0  0  0  0  0  0  0  0
  137.5030   77.1080  221.6880 H   0  0  0  0  0  0  0  0  0  0  0  0
  136.3106   74.7681  221.9887 H   0  0  0  0  0  0  0  0  0  0  0  0
  137.5387   74.5582  223.3081 H   0  0  0  0  0  0  0  0  0  0  0  0
  133.6010   76.8111  224.3552 H   0  0  0  0  0  0  0  0  0  0  0  0
  134.3000   78.3854  224.6997 H   0  0  0  0  0  0  0  0  0  0  0  0
  132.7196   77.4533  222.2778 H   0  0  0  0  0  0  0  0  0  0  0  0
  132.6971   79.0418  223.0203 H   0  0  0  0  0  0  0  0  0  0  0  0
  134.2434   78.2089  220.7861 H   0  0  0  0  0  0  0  0  0  0  0  0
  134.4426   79.7427  221.6916 H   0  0  0  0  0  0  0  0  0  0  0  0
  136.3858   77.7585  221.4811 H   0  0  0  0  0  0  0  0  0  0  0  0
  136.3800   80.1926  222.3316 H   0  0  0  0  0  0  0  0  0  0  0  0
  136.3778   79.3099  223.9357 H   0  0  0  0  0  0  0  0  0  0  0  0
  138.2940   78.0890  222.4290 H   0  0  0  0  0  0  0  0  0  0  0  0
  138.3048   80.4926  224.1586 H   0  0  0  0  0  0  0  0  0  0  0  0
  138.8988   78.8128  224.5842 H   0  0  0  0  0  0  0  0  0  0  0  0
  139.7433   81.8974  222.6565 H   0  0  0  0  0  0  0  0  0  0  0  0
  142.0865   82.4207  222.0072 H   0  0  0  0  0  0  0  0  0  0  0  0
  143.8926   80.7237  222.3912 H   0  0  0  0  0  0  0  0  0  0  0  0
  143.3103   78.5421  223.4197 H   0  0  0  0  0  0  0  0  0  0  0  0
  140.9952   78.0636  224.0422 H   0  0  0  0  0  0  0  0  0  0  0  0
  141.8327   75.6440  221.1727 H   0  0  0  0  0  0  0  0  0  0  0  0
  143.2426   77.3136  219.9632 H   0  0  0  0  0  0  0  0  0  0  0  0
  143.3759   79.5293  218.8509 H   0  0  0  0  0  0  0  0  0  0  0  0
  139.8722   81.9705  218.6588 H   0  0  0  0  0  0  0  0  0  0  0  0
  138.5217   80.2605  219.8741 H   0  0  0  0  0  0  0  0  0  0  0  0
  1  2  2  0
  2  3  1  0
  3  4  1  0
  4  5  1  0
  5  6  2  0
  5  7  1  0
  7  8  1  0
  8  9  1  0
  9 10  1  0
 10 11  1  0
 11 12  1  0
 12 13  1  0
 13 14  1  0
 14 15  1  0
 15 16  2  0
 16 17  1  0
 17 18  2  0
 18 19  1  0
 19 20  2  0
  2 21  1  0
 21 22  2  0
 22 23  1  0
 23 24  2  0
 24 25  1  0
 25 26  2  0
 26 27  1  0
 26 28  1  0
 28 29  2  0
 29 30  1  0
 30 31  2  0
 11  7  1  0
 20 15  1  0
 31 21  1  0
 30 24  1  0
  3 32  1  0
  4 33  1  0
  4 34  1  0
  8 35  1  0
  8 36  1  0
  9 37  1  0
  9 38  1  0
 10 39  1  0
 10 40  1  0
 11 41  1  6
 12 42  1  0
 12 43  1  0
 13 44  1  0
 14 45  1  0
 14 46  1  0
 16 47  1  0
 17 48  1  0
 18 49  1  0
 19 50  1  0
 20 51  1  0
 22 52  1  0
 23 53  1  0
 25 54  1  0
 28 55  1  0
 29 56  1  0
M  END
>  <smiles>  (4) 
O=C(NCC(=O)N1CCC[C@H]1CNCc1ccccc1)c1ccc2cc(Cl)ccc2n1

>  <score_type>  (4) 
oracle

>  <origin>  (4) 
autodockgpu

>  <m_score__min__energy>  (4) 
-9.3399999999999999

>  <m_primary>  (4) 
energy

>  <rmsd>  (4) 
7.818689665348542

>  <m_score__min__rmsd>  (4) 
7.818689665348542

>  <meeko>  (4) 
{"free_energy": -5.38, "intermolecular_energy": -7.77, "internal_energy": -4.72, "cluster_size": 1, "cluster_id": 18, "rank_in_cluster": 1}

>  <energy>  (4) 
-8.39

>  <cluster_rmsd>  (4) 
1.22

>  <cluster>  (4) 
1

$$$$

     RDKit          3D

 56 59  0  0  0  0  0  0  0  0999 V2000
  140.1580   73.9090  221.9710 O   0  0  0  0  0  0  0  0  0  0  0  0
  140.5410   75.0990  221.8460 C   0  0  0  0  0  0  0  0  0  0  0  0
  141.8290   75.3750  221.2880 N   0  0  0  0  0  0  0  0  0  0  0  0
  142.7270   74.3350  220.8540 C   0  0  0  0  0  0  0  0  0  0  0  0
  143.5930   74.7820  219.7340 C   0  0  0  0  0  0  0  0  0  0  0  0
  144.8290   74.5000  219.6650 O   0  0  0  0  0  0  0  0  0  0  0  0
  143.0720   75.5620  218.6680 N   0  0  0  0  0  0  0  0  0  0  0  0
  142.6530   75.0060  217.3910 C   0  0  0  0  0  0  0  0  0  0  0  0
  143.1020   76.0370  216.3820 C   0  0  0  0  0  0  0  0  0  0  0  0
  143.1050   77.3100  217.1640 C   0  0  0  0  0  0  0  0  0  0  0  0
  142.8550   76.9940  218.6080 C   0  0  1  0  0  0  0  0  0  0  0  0
  141.4820   77.3590  219.0740 C   0  0  0  0  0  0  0  0  0  0  0  0
  141.4660   78.2280  220.2170 N   0  0  0  0  0  0  0  0  0  0  0  0
  141.9610   79.5450  219.9740 C   0  0  0  0  0  0  0  0  0  0  0  0
  141.0350   80.6300  220.3930 C   0  0  0  0  0  0  0  0  0  0  0  0
  141.4400   81.7640  221.0560 C   0  0  0  0  0  0  0  0  0  0  0  0
  140.5340   82.7620  221.4310 C   0  0  0  0  0  0  0  0  0  0  0  0
  139.1780   82.6110  221.1290 C   0  0  0  0  0  0  0  0  0  0  0  0
  138.7610   81.4840  220.4670 C   0  0  0  0  0  0  0  0  0  0  0  0
  139.6770   80.5280  220.1150 C   0  0  0  0  0  0  0  0  0  0  0  0
  139.7050   76.2420  222.2560 C   0  0  0  0  0  0  0  0  0  0  0  0
  138.3320   76.1850  222.2280 C   0  0  0  0  0  0  0  0  0  0  0  0
  137.5330   77.2650  222.6150 C   0  0  0  0  0  0  0  0  0  0  0  0
  138.1730   78.4320  223.0430 C   0  0  0  0  0  0  0  0  0  0  0  0
  137.4520   79.5460  223.4450 C   0  0  0  0  0  0  0  0  0  0  0  0
  138.1260   80.6740  223.8590 C   0  0  0  0  0  0  0  0  0  0  0  0
  137.2630   82.1220  224.3830 Cl  0  0  0  0  0  0  0  0  0  0  0  0
  139.4980   80.6810  223.8710 C   0  0  0  0  0  0  0  0  0  0  0  0
  140.2650   79.5910  223.4780 C   0  0  0  0  0  0  0  0  0  0  0  0
  139.5720   78.4730  223.0670 C   0  0  0  0  0  0  0  0  0  0  0  0
  140.2670   77.3920  222.6790 N   0  0  0  0  0  0  0  0  0  0  0  0
  142.1110   76.3980  221.2000 H   0  0  0  0  0  0  0  0  0  0  0  0
  143.3646   74.0398  221.7004 H   0  0  0  0  0  0  0  0  0  0  0  0
  142.1212   73.4882  220.4991 H   0  0  0  0  0  0  0  0  0  0  0  0
  143.1420   74.0382  217.2060 H   0  0  0  0  0  0  0  0  0  0  0  0
  141.5712   74.8118  217.3469 H   0  0  0  0  0  0  0  0  0  0  0  0
  144.1086   75.8051  216.0039 H   0  0  0  0  0  0  0  0  0  0  0  0
  142.4531   76.0800  215.4948 H   0  0  0  0  0  0  0  0  0  0  0  0
  144.0812   77.8059  217.0583 H   0  0  0  0  0  0  0  0  0  0  0  0
  142.3181   77.9802  216.7877 H   0  0  0  0  0  0  0  0  0  0  0  0
  143.5110   77.5749  219.2730 H   0  0  0  0  0  0  0  0  0  0  0  0
  140.9590   77.8636  218.2483 H   0  0  0  0  0  0  0  0  0  0  0  0
  140.9894   76.4236  219.3779 H   0  0  0  0  0  0  0  0  0  0  0  0
  140.6560   78.1500  220.8290 H   0  0  0  0  0  0  0  0  0  0  0  0
  142.9057   79.6657  220.5245 H   0  0  0  0  0  0  0  0  0  0  0  0
  142.0876   79.6397  218.8854 H   0  0  0  0  0  0  0  0  0  0  0  0
  142.5055   81.8903  221.2983 H   0  0  0  0  0  0  0  0  0  0  0  0
  140.8868   83.6596  221.9601 H   0  0  0  0  0  0  0  0  0  0  0  0
  138.4536   83.3865  221.4186 H   0  0  0  0  0  0  0  0  0  0  0  0
  137.6976   81.3488  220.2203 H   0  0  0  0  0  0  0  0  0  0  0  0
  139.3191   79.6331  219.5848 H   0  0  0  0  0  0  0  0  0  0  0  0
  137.8454   75.2583  221.8897 H   0  0  0  0  0  0  0  0  0  0  0  0
  136.4355   77.1987  222.5838 H   0  0  0  0  0  0  0  0  0  0  0  0
  136.3522   79.5293  223.4335 H   0  0  0  0  0  0  0  0  0  0  0  0
  140.0148   81.5919  224.2074 H   0  0  0  0  0  0  0  0  0  0  0  0
  141.3645   79.6190  223.4941 H   0  0  0  0  0  0  0  0  0  0  0  0
  1  2  2  0
  2  3  1  0
  3  4  1  0
  4  5  1  0
  5  6  2  0
  5  7  1  0
  7  8  1  0
  8  9  1  0
  9 10  1  0
 10 11  1  0
 11 12  1  0
 12 13  1  0
 13 14  1  0
 14 15  1  0
 15 16  2  0
 16 17  1  0
 17 18  2  0
 18 19  1  0
 19 20  2  0
  2 21  1  0
 21 22  2  0
 22 23  1  0
 23 24  2  0
 24 25  1  0
 25 26  2  0
 26 27  1  0
 26 28  1  0
 28 29  2  0
 29 30  1  0
 30 31  2  0
 11  7  1  0
 20 15  1  0
 31 21  1  0
 30 24  1  0
  3 32  1  0
  4 33  1  0
  4 34  1  0
  8 35  1  0
  8 36  1  0
  9 37  1  0
  9 38  1  0
 10 39  1  0
 10 40  1  0
 11 41  1  1
 12 42  1  0
 12 43  1  0
 13 44  1  0
 14 45  1  0
 14 46  1  0
 16 47  1  0
 17 48  1  0
 18 49  1  0
 19 50  1  0
 20 51  1  0
 22 52  1  0
 23 53  1  0
 25 54  1  0
 28 55  1  0
 29 56  1  0
M  END
>  <smiles>  (5) 
O=C(NCC(=O)N1CCC[C@H]1CNCc1ccccc1)c1ccc2cc(Cl)ccc2n1

>  <score_type>  (5) 
oracle

>  <origin>  (5) 
autodockgpu

>  <m_score__min__energy>  (5) 
-9.3399999999999999

>  <m_primary>  (5) 
energy

>  <rmsd>  (5) 
5.988333476384599

>  <m_score__min__rmsd>  (5) 
5.988333476384599

>  <meeko>  (5) 
{"free_energy": -5.5, "intermolecular_energy": -7.89, "internal_energy": -4.51, "cluster_size": 3, "cluster_id": 11, "rank_in_cluster": 3}

>  <energy>  (5) 
-8.31

>  <cluster_rmsd>  (5) 
1.17

>  <cluster>  (5) 
1

$$$$

     RDKit          3D

 56 59  0  0  0  0  0  0  0  0999 V2000
  135.2370   74.7850  221.6710 O   0  0  0  0  0  0  0  0  0  0  0  0
  136.4040   74.7480  222.1370 C   0  0  0  0  0  0  0  0  0  0  0  0
  137.0040   73.4860  222.4430 N   0  0  0  0  0  0  0  0  0  0  0  0
  136.3250   72.2320  222.2410 C   0  0  0  0  0  0  0  0  0  0  0  0
  137.2560   71.1610  221.8040 C   0  0  0  0  0  0  0  0  0  0  0  0
  137.1120   70.5280  220.7120 O   0  0  0  0  0  0  0  0  0  0  0  0
  138.3700   70.7850  222.6000 N   0  0  0  0  0  0  0  0  0  0  0  0
  138.9160   69.4370  222.6380 C   0  0  0  0  0  0  0  0  0  0  0  0
  139.2900   69.2390  224.0890 C   0  0  0  0  0  0  0  0  0  0  0  0
  139.5550   70.6280  224.5720 C   0  0  0  0  0  0  0  0  0  0  0  0
  139.1640   71.5980  223.4990 C   0  0  1  0  0  0  0  0  0  0  0  0
  140.3290   72.2160  222.7930 C   0  0  0  0  0  0  0  0  0  0  0  0
  140.0980   73.5630  222.3550 N   0  0  0  0  0  0  0  0  0  0  0  0
  140.3580   73.7960  220.9700 C   0  0  0  0  0  0  0  0  0  0  0  0
  141.7820   74.0820  220.6580 C   0  0  0  0  0  0  0  0  0  0  0  0
  142.2320   75.2940  220.1900 C   0  0  0  0  0  0  0  0  0  0  0  0
  143.5830   75.5220  219.9100 C   0  0  0  0  0  0  0  0  0  0  0  0
  144.5100   74.4950  220.1080 C   0  0  0  0  0  0  0  0  0  0  0  0
  144.0760   73.2820  220.5770 C   0  0  0  0  0  0  0  0  0  0  0  0
  142.7440   73.0950  220.8400 C   0  0  0  0  0  0  0  0  0  0  0  0
  137.1920   75.9680  222.3850 C   0  0  0  0  0  0  0  0  0  0  0  0
  136.5960   77.1910  222.5770 C   0  0  0  0  0  0  0  0  0  0  0  0
  137.3360   78.3540  222.8130 C   0  0  0  0  0  0  0  0  0  0  0  0
  138.7290   78.2440  222.8510 C   0  0  0  0  0  0  0  0  0  0  0  0
  139.5350   79.3500  223.0810 C   0  0  0  0  0  0  0  0  0  0  0  0
  140.9040   79.1940  223.1100 C   0  0  0  0  0  0  0  0  0  0  0  0
  141.9810   80.5620  223.3990 Cl  0  0  0  0  0  0  0  0  0  0  0  0
  141.4520   77.9510  222.9130 C   0  0  0  0  0  0  0  0  0  0  0  0
  140.6870   76.8140  222.6790 C   0  0  0  0  0  0  0  0  0  0  0  0
  139.3210   76.9910  222.6540 C   0  0  0  0  0  0  0  0  0  0  0  0
  138.5390   75.9230  222.4330 N   0  0  0  0  0  0  0  0  0  0  0  0
  137.9950   73.5020  222.8350 H   0  0  0  0  0  0  0  0  0  0  0  0
  135.8519   71.9277  223.1863 H   0  0  0  0  0  0  0  0  0  0  0  0
  135.5748   72.3748  221.4493 H   0  0  0  0  0  0  0  0  0  0  0  0
  138.1622   68.7001  222.3237 H   0  0  0  0  0  0  0  0  0  0  0  0
  139.7699   69.3051  221.9573 H   0  0  0  0  0  0  0  0  0  0  0  0
  138.4628   68.7787  224.6492 H   0  0  0  0  0  0  0  0  0  0  0  0
  140.1505   68.5669  224.2224 H   0  0  0  0  0  0  0  0  0  0  0  0
  138.9638   70.8226  225.4790 H   0  0  0  0  0  0  0  0  0  0  0  0
  140.6233   70.7432  224.8072 H   0  0  0  0  0  0  0  0  0  0  0  0
  138.6273   72.4659  223.9096 H   0  0  0  0  0  0  0  0  0  0  0  0
  141.1883   72.2181  223.4797 H   0  0  0  0  0  0  0  0  0  0  0  0
  140.5100   71.6142  221.8902 H   0  0  0  0  0  0  0  0  0  0  0  0
  139.2850   74.0310  222.7520 H   0  0  0  0  0  0  0  0  0  0  0  0
  140.0542   72.9014  220.4066 H   0  0  0  0  0  0  0  0  0  0  0  0
  139.7860   74.6920  220.6871 H   0  0  0  0  0  0  0  0  0  0  0  0
  141.5087   76.1074  220.0313 H   0  0  0  0  0  0  0  0  0  0  0  0
  143.9136   76.5025  219.5367 H   0  0  0  0  0  0  0  0  0  0  0  0
  145.5758   74.6581  219.8900 H   0  0  0  0  0  0  0  0  0  0  0  0
  144.7926   72.4637  220.7412 H   0  0  0  0  0  0  0  0  0  0  0  0
  142.4193   72.1130  221.2145 H   0  0  0  0  0  0  0  0  0  0  0  0
  135.4985   77.2577  222.5439 H   0  0  0  0  0  0  0  0  0  0  0  0
  136.8383   79.3233  222.9638 H   0  0  0  0  0  0  0  0  0  0  0  0
  139.0856   80.3416  223.2386 H   0  0  0  0  0  0  0  0  0  0  0  0
  142.5470   77.8499  222.9416 H   0  0  0  0  0  0  0  0  0  0  0  0
  141.1471   75.8272  222.5224 H   0  0  0  0  0  0  0  0  0  0  0  0
  1  2  2  0
  2  3  1  0
  3  4  1  0
  4  5  1  0
  5  6  2  0
  5  7  1  0
  7  8  1  0
  8  9  1  0
  9 10  1  0
 10 11  1  0
 11 12  1  0
 12 13  1  0
 13 14  1  0
 14 15  1  0
 15 16  2  0
 16 17  1  0
 17 18  2  0
 18 19  1  0
 19 20  2  0
  2 21  1  0
 21 22  2  0
 22 23  1  0
 23 24  2  0
 24 25  1  0
 25 26  2  0
 26 27  1  0
 26 28  1  0
 28 29  2  0
 29 30  1  0
 30 31  2  0
 11  7  1  0
 20 15  1  0
 31 21  1  0
 30 24  1  0
  3 32  1  0
  4 33  1  0
  4 34  1  0
  8 35  1  0
  8 36  1  0
  9 37  1  0
  9 38  1  0
 10 39  1  0
 10 40  1  0
 11 41  1  1
 12 42  1  0
 12 43  1  0
 13 44  1  0
 14 45  1  0
 14 46  1  0
 16 47  1  0
 17 48  1  0
 18 49  1  0
 19 50  1  0
 20 51  1  0
 22 52  1  0
 23 53  1  0
 25 54  1  0
 28 55  1  0
 29 56  1  0
M  END
>  <smiles>  (6) 
O=C(NCC(=O)N1CCC[C@H]1CNCc1ccccc1)c1ccc2cc(Cl)ccc2n1

>  <score_type>  (6) 
oracle

>  <origin>  (6) 
autodockgpu

>  <m_score__min__energy>  (6) 
-9.3399999999999999

>  <m_primary>  (6) 
energy

>  <rmsd>  (6) 
7.849590405124081

>  <m_score__min__rmsd>  (6) 
7.849590405124081

>  <meeko>  (6) 
{"free_energy": -7.2, "intermolecular_energy": -9.59, "internal_energy": -3.78, "cluster_size": 4, "cluster_id": 7, "rank_in_cluster": 3}

>  <energy>  (6) 
-7.93

>  <cluster_rmsd>  (6) 
1.11

>  <cluster>  (6) 
1

$$$$

     RDKit          3D

 56 59  0  0  0  0  0  0  0  0999 V2000
  137.4990   70.9940  221.3920 O   0  0  0  0  0  0  0  0  0  0  0  0
  138.1940   71.4550  222.3320 C   0  0  0  0  0  0  0  0  0  0  0  0
  138.5300   72.8460  222.3490 N   0  0  0  0  0  0  0  0  0  0  0  0
  138.1030   73.7610  221.3210 C   0  0  0  0  0  0  0  0  0  0  0  0
  139.0670   74.8750  221.1360 C   0  0  0  0  0  0  0  0  0  0  0  0
  138.7820   76.0830  221.4060 O   0  0  0  0  0  0  0  0  0  0  0  0
  140.3760   74.6400  220.6380 N   0  0  0  0  0  0  0  0  0  0  0  0
  140.6750   73.7020  219.5680 C   0  0  0  0  0  0  0  0  0  0  0  0
  141.9820   73.0730  219.9930 C   0  0  0  0  0  0  0  0  0  0  0  0
  142.6150   74.1280  220.8410 C   0  0  0  0  0  0  0  0  0  0  0  0
  141.6300   75.2370  221.0520 C   0  0  1  0  0  0  0  0  0  0  0  0
  141.9350   76.4710  220.2630 C   0  0  0  0  0  0  0  0  0  0  0  0
  141.0250   77.5550  220.5000 N   0  0  0  0  0  0  0  0  0  0  0  0
  141.5770   78.8560  220.2950 C   0  0  0  0  0  0  0  0  0  0  0  0
  141.8040   79.6250  221.5470 C   0  0  0  0  0  0  0  0  0  0  0  0
  142.2260   79.0550  222.7250 C   0  0  0  0  0  0  0  0  0  0  0  0
  142.4280   79.8160  223.8810 C   0  0  0  0  0  0  0  0  0  0  0  0
  142.1990   81.1940  223.8480 C   0  0  0  0  0  0  0  0  0  0  0  0
  141.7790   81.7750  222.6790 C   0  0  0  0  0  0  0  0  0  0  0  0
  141.5910   80.9980  221.5660 C   0  0  0  0  0  0  0  0  0  0  0  0
  138.6850   70.6120  223.4360 C   0  0  0  0  0  0  0  0  0  0  0  0
  138.4800   69.2530  223.4580 C   0  0  0  0  0  0  0  0  0  0  0  0
  138.9430   68.4450  224.5020 C   0  0  0  0  0  0  0  0  0  0  0  0
  139.6360   69.0620  225.5470 C   0  0  0  0  0  0  0  0  0  0  0  0
  140.1280   68.3310  226.6190 C   0  0  0  0  0  0  0  0  0  0  0  0
  140.8050   68.9820  227.6270 C   0  0  0  0  0  0  0  0  0  0  0  0
  141.4550   68.1070  229.0150 Cl  0  0  0  0  0  0  0  0  0  0  0  0
  140.9850   70.3410  227.5590 C   0  0  0  0  0  0  0  0  0  0  0  0
  140.5100   71.1170  226.5070 C   0  0  0  0  0  0  0  0  0  0  0  0
  139.8370   70.4470  225.5090 C   0  0  0  0  0  0  0  0  0  0  0  0
  139.3600   71.1510  224.4710 N   0  0  0  0  0  0  0  0  0  0  0  0
  139.1190   73.1930  223.1650 H   0  0  0  0  0  0  0  0  0  0  0  0
  138.0083   73.2115  220.3728 H   0  0  0  0  0  0  0  0  0  0  0  0
  137.1386   74.1922  221.6275 H   0  0  0  0  0  0  0  0  0  0  0  0
  139.8845   72.9420  219.4811 H   0  0  0  0  0  0  0  0  0  0  0  0
  140.7375   74.1872  218.5828 H   0  0  0  0  0  0  0  0  0  0  0  0
  141.8067   72.1548  220.5728 H   0  0  0  0  0  0  0  0  0  0  0  0
  142.6104   72.7722  219.1418 H   0  0  0  0  0  0  0  0  0  0  0  0
  142.9011   73.6985  221.8124 H   0  0  0  0  0  0  0  0  0  0  0  0
  143.5139   74.5181  220.3412 H   0  0  0  0  0  0  0  0  0  0  0  0
  141.6343   75.5940  222.0924 H   0  0  0  0  0  0  0  0  0  0  0  0
  142.9491   76.8072  220.5249 H   0  0  0  0  0  0  0  0  0  0  0  0
  141.8392   76.2014  219.2009 H   0  0  0  0  0  0  0  0  0  0  0  0
  140.0660   77.4120  220.1900 H   0  0  0  0  0  0  0  0  0  0  0  0
  142.5420   78.7441  219.7789 H   0  0  0  0  0  0  0  0  0  0  0  0
  140.8416   79.4224  219.7047 H   0  0  0  0  0  0  0  0  0  0  0  0
  142.4097   77.9710  222.7592 H   0  0  0  0  0  0  0  0  0  0  0  0
  142.7649   79.3329  224.8100 H   0  0  0  0  0  0  0  0  0  0  0  0
  142.3538   81.8056  224.7491 H   0  0  0  0  0  0  0  0  0  0  0  0
  141.5941   82.8585  222.6350 H   0  0  0  0  0  0  0  0  0  0  0  0
  141.2541   81.4864  220.6398 H   0  0  0  0  0  0  0  0  0  0  0  0
  137.9332   68.7847  222.6263 H   0  0  0  0  0  0  0  0  0  0  0  0
  138.7672   67.3591  224.5004 H   0  0  0  0  0  0  0  0  0  0  0  0
  139.9789   67.2421  226.6636 H   0  0  0  0  0  0  0  0  0  0  0  0
  141.5301   70.8394  228.3741 H   0  0  0  0  0  0  0  0  0  0  0  0
  140.6633   72.2058  226.4737 H   0  0  0  0  0  0  0  0  0  0  0  0
  1  2  2  0
  2  3  1  0
  3  4  1  0
  4  5  1  0
  5  6  2  0
  5  7  1  0
  7  8  1  0
  8  9  1  0
  9 10  1  0
 10 11  1  0
 11 12  1  0
 12 13  1  0
 13 14  1  0
 14 15  1  0
 15 16  2  0
 16 17  1  0
 17 18  2  0
 18 19  1  0
 19 20  2  0
  2 21  1  0
 21 22  2  0
 22 23  1  0
 23 24  2  0
 24 25  1  0
 25 26  2  0
 26 27  1  0
 26 28  1  0
 28 29  2  0
 29 30  1  0
 30 31  2  0
 11  7  1  0
 20 15  1  0
 31 21  1  0
 30 24  1  0
  3 32  1  0
  4 33  1  0
  4 34  1  0
  8 35  1  0
  8 36  1  0
  9 37  1  0
  9 38  1  0
 10 39  1  0
 10 40  1  0
 11 41  1  1
 12 42  1  0
 12 43  1  0
 13 44  1  0
 14 45  1  0
 14 46  1  0
 16 47  1  0
 17 48  1  0
 18 49  1  0
 19 50  1  0
 20 51  1  0
 22 52  1  0
 23 53  1  0
 25 54  1  0
 28 55  1  0
 29 56  1  0
M  END
>  <smiles>  (7) 
O=C(NCC(=O)N1CCC[C@H]1CNCc1ccccc1)c1ccc2cc(Cl)ccc2n1

>  <score_type>  (7) 
oracle

>  <origin>  (7) 
autodockgpu

>  <m_score__min__energy>  (7) 
-9.3399999999999999

>  <m_primary>  (7) 
energy

>  <rmsd>  (7) 
2.5787079976688707

>  <m_score__min__rmsd>  (7) 
2.5787079976688707

>  <meeko>  (7) 
{"free_energy": -7.88, "intermolecular_energy": -10.27, "internal_energy": -2.42, "cluster_size": 6, "cluster_id": 3, "rank_in_cluster": 5}

>  <energy>  (7) 
-7.56

>  <cluster_rmsd>  (7) 
1.13

>  <cluster>  (7) 
1

$$$$

     RDKit          3D

 56 59  0  0  0  0  0  0  0  0999 V2000
  135.3090   75.4280  221.7810 O   0  0  0  0  0  0  0  0  0  0  0  0
  136.4930   75.3750  222.1960 C   0  0  0  0  0  0  0  0  0  0  0  0
  137.1040   74.1040  222.4350 N   0  0  0  0  0  0  0  0  0  0  0  0
  136.4150   72.8570  222.2200 C   0  0  0  0  0  0  0  0  0  0  0  0
  136.7000   71.8730  223.2950 C   0  0  0  0  0  0  0  0  0  0  0  0
  135.9820   71.7660  224.3370 O   0  0  0  0  0  0  0  0  0  0  0  0
  137.8100   70.9920  223.2100 N   0  0  0  0  0  0  0  0  0  0  0  0
  139.1940   71.4370  223.1990 C   0  0  0  0  0  0  0  0  0  0  0  0
  139.8650   70.5090  222.2120 C   0  0  0  0  0  0  0  0  0  0  0  0
  139.0300   69.2730  222.2750 C   0  0  0  0  0  0  0  0  0  0  0  0
  137.8200   69.5450  223.1170 C   0  0  1  0  0  0  0  0  0  0  0  0
  137.8730   68.9110  224.4700 C   0  0  0  0  0  0  0  0  0  0  0  0
  139.1780   68.4470  224.8450 N   0  0  0  0  0  0  0  0  0  0  0  0
  139.4760   68.5570  226.2380 C   0  0  0  0  0  0  0  0  0  0  0  0
  140.0980   69.8500  226.6260 C   0  0  0  0  0  0  0  0  0  0  0  0
  140.8620   70.6140  225.7760 C   0  0  0  0  0  0  0  0  0  0  0  0
  141.4290   71.8260  226.1820 C   0  0  0  0  0  0  0  0  0  0  0  0
  141.2200   72.2830  227.4860 C   0  0  0  0  0  0  0  0  0  0  0  0
  140.4580   71.5310  228.3440 C   0  0  0  0  0  0  0  0  0  0  0  0
  139.9190   70.3480  227.9110 C   0  0  0  0  0  0  0  0  0  0  0  0
  137.2930   76.5860  222.4520 C   0  0  0  0  0  0  0  0  0  0  0  0
  136.7080   77.8110  222.6670 C   0  0  0  0  0  0  0  0  0  0  0  0
  137.4590   78.9650  222.9100 C   0  0  0  0  0  0  0  0  0  0  0  0
  138.8520   78.8450  222.9310 C   0  0  0  0  0  0  0  0  0  0  0  0
  139.6680   79.9420  223.1660 C   0  0  0  0  0  0  0  0  0  0  0  0
  141.0360   79.7760  223.1770 C   0  0  0  0  0  0  0  0  0  0  0  0
  142.1260   81.1330  223.4720 Cl  0  0  0  0  0  0  0  0  0  0  0  0
  141.5730   78.5320  222.9580 C   0  0  0  0  0  0  0  0  0  0  0  0
  140.7970   77.4040  222.7170 C   0  0  0  0  0  0  0  0  0  0  0  0
  139.4320   77.5910  222.7100 C   0  0  0  0  0  0  0  0  0  0  0  0
  138.6400   76.5310  222.4840 N   0  0  0  0  0  0  0  0  0  0  0  0
  138.1100   74.1070  222.7860 H   0  0  0  0  0  0  0  0  0  0  0  0
  135.3323   73.0494  222.1922 H   0  0  0  0  0  0  0  0  0  0  0  0
  136.7676   72.4330  221.2682 H   0  0  0  0  0  0  0  0  0  0  0  0
  139.2665   72.4826  222.8651 H   0  0  0  0  0  0  0  0  0  0  0  0
  139.6585   71.4048  224.1956 H   0  0  0  0  0  0  0  0  0  0  0  0
  139.8562   70.9386  221.1994 H   0  0  0  0  0  0  0  0  0  0  0  0
  140.9234   70.3243  222.4480 H   0  0  0  0  0  0  0  0  0  0  0  0
  138.7166   68.9873  221.2600 H   0  0  0  0  0  0  0  0  0  0  0  0
  139.6136   68.4518  222.7166 H   0  0  0  0  0  0  0  0  0  0  0  0
  136.9090   69.1173  222.6730 H   0  0  0  0  0  0  0  0  0  0  0  0
  137.5425   69.6520  225.2127 H   0  0  0  0  0  0  0  0  0  0  0  0
  137.2186   68.0275  224.4340 H   0  0  0  0  0  0  0  0  0  0  0  0
  139.5100   67.6080  224.3730 H   0  0  0  0  0  0  0  0  0  0  0  0
  138.5385   68.4419  226.8018 H   0  0  0  0  0  0  0  0  0  0  0  0
  140.2099   67.7706  226.4681 H   0  0  0  0  0  0  0  0  0  0  0  0
  141.0320   70.2621  224.7478 H   0  0  0  0  0  0  0  0  0  0  0  0
  142.0358   72.4160  225.4794 H   0  0  0  0  0  0  0  0  0  0  0  0
  141.6609   73.2337  227.8203 H   0  0  0  0  0  0  0  0  0  0  0  0
  140.2808   71.8757  229.3734 H   0  0  0  0  0  0  0  0  0  0  0  0
  139.3129   69.7618  228.6175 H   0  0  0  0  0  0  0  0  0  0  0  0
  135.6107   77.8861  222.6472 H   0  0  0  0  0  0  0  0  0  0  0  0
  136.9700   79.9357  223.0792 H   0  0  0  0  0  0  0  0  0  0  0  0
  139.2275   80.9345  223.3418 H   0  0  0  0  0  0  0  0  0  0  0  0
  142.6674   78.4225  222.9739 H   0  0  0  0  0  0  0  0  0  0  0  0
  141.2481   76.4162  222.5415 H   0  0  0  0  0  0  0  0  0  0  0  0
  1  2  2  0
  2  3  1  0
  3  4  1  0
  4  5  1  0
  5  6  2  0
  5  7  1  0
  7  8  1  0
  8  9  1  0
  9 10  1  0
 10 11  1  0
 11 12  1  0
 12 13  1  0
 13 14  1  0
 14 15  1  0
 15 16  2  0
 16 17  1  0
 17 18  2  0
 18 19  1  0
 19 20  2  0
  2 21  1  0
 21 22  2  0
 22 23  1  0
 23 24  2  0
 24 25  1  0
 25 26  2  0
 26 27  1  0
 26 28  1  0
 28 29  2  0
 29 30  1  0
 30 31  2  0
 11  7  1  0
 20 15  1  0
 31 21  1  0
 30 24  1  0
  3 32  1  0
  4 33  1  0
  4 34  1  0
  8 35  1  0
  8 36  1  0
  9 37  1  0
  9 38  1  0
 10 39  1  0
 10 40  1  0
 11 41  1  6
 12 42  1  0
 12 43  1  0
 13 44  1  0
 14 45  1  0
 14 46  1  0
 16 47  1  0
 17 48  1  0
 18 49  1  0
 19 50  1  0
 20 51  1  0
 22 52  1  0
 23 53  1  0
 25 54  1  0
 28 55  1  0
 29 56  1  0
M  END
>  <smiles>  (8) 
O=C(NCC(=O)N1CCC[C@H]1CNCc1ccccc1)c1ccc2cc(Cl)ccc2n1

>  <score_type>  (8) 
oracle

>  <origin>  (8) 
autodockgpu

>  <m_score__min__energy>  (8) 
-9.3399999999999999

>  <m_primary>  (8) 
energy

>  <rmsd>  (8) 
9.370613901788678

>  <m_score__min__rmsd>  (8) 
9.370613901788678

>  <meeko>  (8) 
{"free_energy": -8.5, "intermolecular_energy": -10.89, "internal_energy": -1.96, "cluster_size": 7, "cluster_id": 2, "rank_in_cluster": 2}

>  <energy>  (8) 
-7.33

>  <cluster_rmsd>  (8) 
1.79

>  <cluster>  (8) 
1

$$$$

     RDKit          3D

 56 59  0  0  0  0  0  0  0  0999 V2000
  137.5330   77.4660  221.9000 O   0  0  0  0  0  0  0  0  0  0  0  0
  137.4180   76.3780  222.5170 C   0  0  0  0  0  0  0  0  0  0  0  0
  138.4100   75.3600  222.3500 N   0  0  0  0  0  0  0  0  0  0  0  0
  139.5560   75.5250  221.4930 C   0  0  0  0  0  0  0  0  0  0  0  0
  140.4800   74.3650  221.5730 C   0  0  0  0  0  0  0  0  0  0  0  0
  140.2950   73.3920  222.3680 O   0  0  0  0  0  0  0  0  0  0  0  0
  141.6350   74.2870  220.7510 N   0  0  0  0  0  0  0  0  0  0  0  0
  142.0230   73.0940  220.0150 C   0  0  0  0  0  0  0  0  0  0  0  0
  143.5300   73.0710  220.1320 C   0  0  0  0  0  0  0  0  0  0  0  0
  143.8870   74.5110  220.3070 C   0  0  0  0  0  0  0  0  0  0  0  0
  142.6280   75.3070  220.4760 C   0  0  1  0  0  0  0  0  0  0  0  0
  142.2620   76.1160  219.2730 C   0  0  0  0  0  0  0  0  0  0  0  0
  142.4760   77.5270  219.4310 N   0  0  0  0  0  0  0  0  0  0  0  0
  141.3820   78.2370  220.0120 C   0  0  0  0  0  0  0  0  0  0  0  0
  141.6640   78.7910  221.3620 C   0  0  0  0  0  0  0  0  0  0  0  0
  141.4290   78.1070  222.5310 C   0  0  0  0  0  0  0  0  0  0  0  0
  141.7100   78.6650  223.7820 C   0  0  0  0  0  0  0  0  0  0  0  0
  142.2460   79.9540  223.8570 C   0  0  0  0  0  0  0  0  0  0  0  0
  142.4870   80.6470  222.6980 C   0  0  0  0  0  0  0  0  0  0  0  0
  142.1980   80.0680  221.4900 C   0  0  0  0  0  0  0  0  0  0  0  0
  136.2860   76.0990  223.4190 C   0  0  0  0  0  0  0  0  0  0  0  0
  135.4410   77.0930  223.8510 C   0  0  0  0  0  0  0  0  0  0  0  0
  134.3650   76.8370  224.7070 C   0  0  0  0  0  0  0  0  0  0  0  0
  134.1610   75.5180  225.1240 C   0  0  0  0  0  0  0  0  0  0  0  0
  133.1160   75.1820  225.9720 C   0  0  0  0  0  0  0  0  0  0  0  0
  132.9540   73.8690  226.3570 C   0  0  0  0  0  0  0  0  0  0  0  0
  131.6430   73.3800  227.4330 Cl  0  0  0  0  0  0  0  0  0  0  0  0
  133.8240   72.9130  225.8970 C   0  0  0  0  0  0  0  0  0  0  0  0
  134.8860   73.2000  225.0480 C   0  0  0  0  0  0  0  0  0  0  0  0
  135.0310   74.5190  224.6750 C   0  0  0  0  0  0  0  0  0  0  0  0
  136.0410   74.8470  223.8530 N   0  0  0  0  0  0  0  0  0  0  0  0
  138.2720   74.4540  222.8930 H   0  0  0  0  0  0  0  0  0  0  0  0
  139.2105   75.6332  220.4543 H   0  0  0  0  0  0  0  0  0  0  0  0
  140.1032   76.4198  221.8246 H   0  0  0  0  0  0  0  0  0  0  0  0
  141.5812   72.1938  220.4672 H   0  0  0  0  0  0  0  0  0  0  0  0
  141.6780   73.1080  218.9706 H   0  0  0  0  0  0  0  0  0  0  0  0
  143.8480   72.4783  221.0024 H   0  0  0  0  0  0  0  0  0  0  0  0
  144.0208   72.6101  219.2621 H   0  0  0  0  0  0  0  0  0  0  0  0
  144.5205   74.6285  221.1986 H   0  0  0  0  0  0  0  0  0  0  0  0
  144.4377   74.8681  219.4243 H   0  0  0  0  0  0  0  0  0  0  0  0
  142.7259   76.0629  221.2691 H   0  0  0  0  0  0  0  0  0  0  0  0
  142.8682   75.7671  218.4240 H   0  0  0  0  0  0  0  0  0  0  0  0
  141.1835   75.9739  219.1100 H   0  0  0  0  0  0  0  0  0  0  0  0
  143.4100   77.8090  219.7220 H   0  0  0  0  0  0  0  0  0  0  0  0
  141.1187   79.0710  219.3449 H   0  0  0  0  0  0  0  0  0  0  0  0
  140.5629   77.5127  220.1321 H   0  0  0  0  0  0  0  0  0  0  0  0
  141.0080   77.0920  222.4809 H   0  0  0  0  0  0  0  0  0  0  0  0
  141.5107   78.0937  224.7007 H   0  0  0  0  0  0  0  0  0  0  0  0
  142.4718   80.4070  224.8336 H   0  0  0  0  0  0  0  0  0  0  0  0
  142.9098   81.6617  222.7380 H   0  0  0  0  0  0  0  0  0  0  0  0
  142.3990   80.6435  220.5744 H   0  0  0  0  0  0  0  0  0  0  0  0
  135.6168   78.1246  223.5121 H   0  0  0  0  0  0  0  0  0  0  0  0
  133.7005   77.6473  225.0415 H   0  0  0  0  0  0  0  0  0  0  0  0
  132.4234   75.9563  226.3336 H   0  0  0  0  0  0  0  0  0  0  0  0
  133.6739   71.8708  226.2151 H   0  0  0  0  0  0  0  0  0  0  0  0
  135.5731   72.4177  224.6932 H   0  0  0  0  0  0  0  0  0  0  0  0
  1  2  2  0
  2  3  1  0
  3  4  1  0
  4  5  1  0
  5  6  2  0
  5  7  1  0
  7  8  1  0
  8  9  1  0
  9 10  1  0
 10 11  1  0
 11 12  1  0
 12 13  1  0
 13 14  1  0
 14 15  1  0
 15 16  2  0
 16 17  1  0
 17 18  2  0
 18 19  1  0
 19 20  2  0
  2 21  1  0
 21 22  2  0
 22 23  1  0
 23 24  2  0
 24 25  1  0
 25 26  2  0
 26 27  1  0
 26 28  1  0
 28 29  2  0
 29 30  1  0
 30 31  2  0
 11  7  1  0
 20 15  1  0
 31 21  1  0
 30 24  1  0
  3 32  1  0
  4 33  1  0
  4 34  1  0
  8 35  1  0
  8 36  1  0
  9 37  1  0
  9 38  1  0
 10 39  1  0
 10 40  1  0
 11 41  1  1
 12 42  1  0
 12 43  1  0
 13 44  1  0
 14 45  1  0
 14 46  1  0
 16 47  1  0
 17 48  1  0
 18 49  1  0
 19 50  1  0
 20 51  1  0
 22 52  1  0
 23 53  1  0
 25 54  1  0
 28 55  1  0
 29 56  1  0
M  END
>  <smiles>  (9) 
O=C(NCC(=O)N1CCC[C@H]1CNCc1ccccc1)c1ccc2cc(Cl)ccc2n1

>  <score_type>  (9) 
oracle

>  <origin>  (9) 
autodockgpu

>  <m_score__min__energy>  (9) 
-9.3399999999999999

>  <m_primary>  (9) 
energy

>  <rmsd>  (9) 
5.667301763378491

>  <m_score__min__rmsd>  (9) 
5.667301763378491

>  <meeko>  (9) 
{"free_energy": -8.09, "intermolecular_energy": -10.48, "internal_energy": -2.48, "cluster_size": 1, "cluster_id": 5, "rank_in_cluster": 1}

>  <energy>  (9) 
-7.29

>  <cluster_rmsd>  (9) 
1.2

>  <cluster>  (9) 
1

$$$$

     RDKit          3D

 56 59  0  0  0  0  0  0  0  0999 V2000
  137.5820   73.0810  220.6820 O   0  0  0  0  0  0  0  0  0  0  0  0
  137.5020   73.5530  221.8430 C   0  0  0  0  0  0  0  0  0  0  0  0
  137.0010   72.7380  222.9070 N   0  0  0  0  0  0  0  0  0  0  0  0
  136.5750   71.3770  222.7080 C   0  0  0  0  0  0  0  0  0  0  0  0
  137.7230   70.4660  222.4660 C   0  0  0  0  0  0  0  0  0  0  0  0
  137.9070   69.8710  221.3600 O   0  0  0  0  0  0  0  0  0  0  0  0
  138.6850   70.2100  223.4800 N   0  0  0  0  0  0  0  0  0  0  0  0
  139.2060   68.8860  223.7800 C   0  0  0  0  0  0  0  0  0  0  0  0
  139.3300   68.8800  225.2870 C   0  0  0  0  0  0  0  0  0  0  0  0
  139.5210   70.3220  225.6250 C   0  0  0  0  0  0  0  0  0  0  0  0
  139.3220   71.1430  224.3870 C   0  0  1  0  0  0  0  0  0  0  0  0
  140.5940   71.6820  223.8120 C   0  0  0  0  0  0  0  0  0  0  0  0
  140.4060   72.7840  222.9130 N   0  0  0  0  0  0  0  0  0  0  0  0
  140.6830   72.4920  221.5420 C   0  0  0  0  0  0  0  0  0  0  0  0
  141.9710   73.0470  221.0510 C   0  0  0  0  0  0  0  0  0  0  0  0
  142.1550   74.3690  220.7190 C   0  0  0  0  0  0  0  0  0  0  0  0
  143.3860   74.8500  220.2610 C   0  0  0  0  0  0  0  0  0  0  0  0
  144.4650   73.9710  220.1330 C   0  0  0  0  0  0  0  0  0  0  0  0
  144.2950   72.6500  220.4610 C   0  0  0  0  0  0  0  0  0  0  0  0
  143.0750   72.2150  220.9070 C   0  0  0  0  0  0  0  0  0  0  0  0
  137.9090   74.9340  222.1620 C   0  0  0  0  0  0  0  0  0  0  0  0
  136.9890   75.9200  222.4230 C   0  0  0  0  0  0  0  0  0  0  0  0
  137.3660   77.2330  222.7260 C   0  0  0  0  0  0  0  0  0  0  0  0
  138.7320   77.5280  222.7590 C   0  0  0  0  0  0  0  0  0  0  0  0
  139.1880   78.8050  223.0520 C   0  0  0  0  0  0  0  0  0  0  0  0
  140.5440   79.0490  223.0740 C   0  0  0  0  0  0  0  0  0  0  0  0
  141.1850   80.6520  223.4410 Cl  0  0  0  0  0  0  0  0  0  0  0  0
  141.4240   78.0300  222.8070 C   0  0  0  0  0  0  0  0  0  0  0  0
  141.0160   76.7350  222.5070 C   0  0  0  0  0  0  0  0  0  0  0  0
  139.6560   76.5120  222.4910 C   0  0  0  0  0  0  0  0  0  0  0  0
  139.2120   75.2770  222.2090 N   0  0  0  0  0  0  0  0  0  0  0  0
  136.9520   73.1800  223.8750 H   0  0  0  0  0  0  0  0  0  0  0  0
  136.0357   71.0386  223.6050 H   0  0  0  0  0  0  0  0  0  0  0  0
  135.9258   71.3498  221.8204 H   0  0  0  0  0  0  0  0  0  0  0  0
  138.5097   68.1048  223.4410 H   0  0  0  0  0  0  0  0  0  0  0  0
  140.1606   68.6798  223.2738 H   0  0  0  0  0  0  0  0  0  0  0  0
  138.4170   68.4836  225.7554 H   0  0  0  0  0  0  0  0  0  0  0  0
  140.1506   68.2424  225.6475 H   0  0  0  0  0  0  0  0  0  0  0  0
  138.7882   70.6222  226.3885 H   0  0  0  0  0  0  0  0  0  0  0  0
  140.5363   70.4808  226.0174 H   0  0  0  0  0  0  0  0  0  0  0  0
  138.7306   72.0485  224.5877 H   0  0  0  0  0  0  0  0  0  0  0  0
  141.2340   72.0173  224.6414 H   0  0  0  0  0  0  0  0  0  0  0  0
  141.0496   70.8686  223.2282 H   0  0  0  0  0  0  0  0  0  0  0  0
  139.6050   73.3840  223.0990 H   0  0  0  0  0  0  0  0  0  0  0  0
  140.7091   71.3991  221.4202 H   0  0  0  0  0  0  0  0  0  0  0  0
  139.8870   72.9670  220.9498 H   0  0  0  0  0  0  0  0  0  0  0  0
  141.3107   75.0673  220.8163 H   0  0  0  0  0  0  0  0  0  0  0  0
  143.5040   75.9129  220.0033 H   0  0  0  0  0  0  0  0  0  0  0  0
  145.4391   74.3342  219.7735 H   0  0  0  0  0  0  0  0  0  0  0  0
  145.1333   71.9441  220.3665 H   0  0  0  0  0  0  0  0  0  0  0  0
  142.9632   71.1515  221.1647 H   0  0  0  0  0  0  0  0  0  0  0  0
  135.9185   75.6687  222.3928 H   0  0  0  0  0  0  0  0  0  0  0  0
  136.6124   78.0075  222.9314 H   0  0  0  0  0  0  0  0  0  0  0  0
  138.4743   79.6146  223.2646 H   0  0  0  0  0  0  0  0  0  0  0  0
  142.5019   78.2479  222.8315 H   0  0  0  0  0  0  0  0  0  0  0  0
  141.7384   75.9332  222.2943 H   0  0  0  0  0  0  0  0  0  0  0  0
  1  2  2  0
  2  3  1  0
  3  4  1  0
  4  5  1  0
  5  6  2  0
  5  7  1  0
  7  8  1  0
  8  9  1  0
  9 10  1  0
 10 11  1  0
 11 12  1  0
 12 13  1  0
 13 14  1  0
 14 15  1  0
 15 16  2  0
 16 17  1  0
 17 18  2  0
 18 19  1  0
 19 20  2  0
  2 21  1  0
 21 22  2  0
 22 23  1  0
 23 24  2  0
 24 25  1  0
 25 26  2  0
 26 27  1  0
 26 28  1  0
 28 29  2  0
 29 30  1  0
 30 31  2  0
 11  7  1  0
 20 15  1  0
 31 21  1  0
 30 24  1  0
  3 32  1  0
  4 33  1  0
  4 34  1  0
  8 35  1  0
  8 36  1  0
  9 37  1  0
  9 38  1  0
 10 39  1  0
 10 40  1  0
 11 41  1  1
 12 42  1  0
 12 43  1  0
 13 44  1  0
 14 45  1  0
 14 46  1  0
 16 47  1  0
 17 48  1  0
 18 49  1  0
 19 50  1  0
 20 51  1  0
 22 52  1  0
 23 53  1  0
 25 54  1  0
 28 55  1  0
 29 56  1  0
M  END
>  <smiles>  (10) 
O=C(NCC(=O)N1CCC[C@H]1CNCc1ccccc1)c1ccc2cc(Cl)ccc2n1

>  <score_type>  (10) 
oracle

>  <origin>  (10) 
autodockgpu

>  <m_score__min__energy>  (10) 
-9.3399999999999999

>  <m_primary>  (10) 
energy

>  <rmsd>  (10) 
8.075499469474742

>  <m_score__min__rmsd>  (10) 
8.075499469474742

>  <meeko>  (10) 
{"free_energy": -7.33, "intermolecular_energy": -9.71, "internal_energy": -3.16, "cluster_size": 4, "cluster_id": 7, "rank_in_cluster": 2}

>  <energy>  (10) 
-6.6

>  <cluster_rmsd>  (10) 
1.7

>  <cluster>  (10) 
1

$$$$

     RDKit          3D

 56 59  0  0  0  0  0  0  0  0999 V2000
  140.4050   72.5160  220.5620 O   0  0  0  0  0  0  0  0  0  0  0  0
  140.1140   72.8360  221.7420 C   0  0  0  0  0  0  0  0  0  0  0  0
  139.8080   74.1990  222.0510 N   0  0  0  0  0  0  0  0  0  0  0  0
  139.8180   75.2430  221.0580 C   0  0  0  0  0  0  0  0  0  0  0  0
  140.4740   76.4780  221.5580 C   0  0  0  0  0  0  0  0  0  0  0  0
  140.3540   76.8840  222.7550 O   0  0  0  0  0  0  0  0  0  0  0  0
  141.2800   77.2790  220.7060 N   0  0  0  0  0  0  0  0  0  0  0  0
  141.8120   78.5780  221.0860 C   0  0  0  0  0  0  0  0  0  0  0  0
  141.7030   79.3980  219.8220 C   0  0  0  0  0  0  0  0  0  0  0  0
  141.7690   78.3730  218.7370 C   0  0  0  0  0  0  0  0  0  0  0  0
  141.7250   77.0080  219.3540 C   0  0  1  0  0  0  0  0  0  0  0  0
  143.0420   76.3000  219.3430 C   0  0  0  0  0  0  0  0  0  0  0  0
  143.1720   75.2950  220.3600 N   0  0  0  0  0  0  0  0  0  0  0  0
  144.4540   74.6690  220.4220 C   0  0  0  0  0  0  0  0  0  0  0  0
  144.4260   73.2010  220.1860 C   0  0  0  0  0  0  0  0  0  0  0  0
  143.3730   72.3920  220.5410 C   0  0  0  0  0  0  0  0  0  0  0  0
  143.3870   71.0150  220.3000 C   0  0  0  0  0  0  0  0  0  0  0  0
  144.4980   70.4350  219.6820 C   0  0  0  0  0  0  0  0  0  0  0  0
  145.5550   71.2310  219.3210 C   0  0  0  0  0  0  0  0  0  0  0  0
  145.5060   72.5770  219.5740 C   0  0  0  0  0  0  0  0  0  0  0  0
  140.0730   71.8520  222.8380 C   0  0  0  0  0  0  0  0  0  0  0  0
  139.5630   70.5880  222.6610 C   0  0  0  0  0  0  0  0  0  0  0  0
  139.5210   69.6480  223.6960 C   0  0  0  0  0  0  0  0  0  0  0  0
  140.0210   70.0290  224.9440 C   0  0  0  0  0  0  0  0  0  0  0  0
  140.0160   69.1550  226.0220 C   0  0  0  0  0  0  0  0  0  0  0  0
  140.5190   69.5740  227.2330 C   0  0  0  0  0  0  0  0  0  0  0  0
  140.5410   68.5080  228.6400 Cl  0  0  0  0  0  0  0  0  0  0  0  0
  141.0190   70.8460  227.3600 C   0  0  0  0  0  0  0  0  0  0  0  0
  141.0460   71.7580  226.3110 C   0  0  0  0  0  0  0  0  0  0  0  0
  140.5380   71.3190  225.1080 C   0  0  0  0  0  0  0  0  0  0  0  0
  140.5420   72.1630  224.0630 N   0  0  0  0  0  0  0  0  0  0  0  0
  139.5660   74.4240  223.0640 H   0  0  0  0  0  0  0  0  0  0  0  0
  140.3624   74.8853  220.1716 H   0  0  0  0  0  0  0  0  0  0  0  0
  138.7744   75.4879  220.8110 H   0  0  0  0  0  0  0  0  0  0  0  0
  141.2149   79.0242  221.8949 H   0  0  0  0  0  0  0  0  0  0  0  0
  142.8423   78.5200  221.4670 H   0  0  0  0  0  0  0  0  0  0  0  0
  140.7494   79.9452  219.7889 H   0  0  0  0  0  0  0  0  0  0  0  0
  142.4885   80.1634  219.7378 H   0  0  0  0  0  0  0  0  0  0  0  0
  140.9129   78.4988  218.0579 H   0  0  0  0  0  0  0  0  0  0  0  0
  142.7019   78.4939  218.1669 H   0  0  0  0  0  0  0  0  0  0  0  0
  141.0675   76.3272  218.7935 H   0  0  0  0  0  0  0  0  0  0  0  0
  143.1678   75.8182  218.3622 H   0  0  0  0  0  0  0  0  0  0  0  0
  143.8132   77.0583  219.5437 H   0  0  0  0  0  0  0  0  0  0  0  0
  142.7180   75.4950  221.2490 H   0  0  0  0  0  0  0  0  0  0  0  0
  145.1000   75.1290  219.6597 H   0  0  0  0  0  0  0  0  0  0  0  0
  144.8302   74.8183  221.4448 H   0  0  0  0  0  0  0  0  0  0  0  0
  142.4948   72.8406  221.0283 H   0  0  0  0  0  0  0  0  0  0  0  0
  142.5294   70.3924  220.5948 H   0  0  0  0  0  0  0  0  0  0  0  0
  144.5246   69.3527  219.4873 H   0  0  0  0  0  0  0  0  0  0  0  0
  146.4366   70.7917  218.8314 H   0  0  0  0  0  0  0  0  0  0  0  0
  146.3661   73.1952  219.2772 H   0  0  0  0  0  0  0  0  0  0  0  0
  139.1745   70.3059  221.6713 H   0  0  0  0  0  0  0  0  0  0  0  0
  139.1078   68.6417  223.5328 H   0  0  0  0  0  0  0  0  0  0  0  0
  139.6140   68.1372  225.9099 H   0  0  0  0  0  0  0  0  0  0  0  0
  141.4167   71.1582  228.3369 H   0  0  0  0  0  0  0  0  0  0  0  0
  141.4504   72.7735  226.4347 H   0  0  0  0  0  0  0  0  0  0  0  0
  1  2  2  0
  2  3  1  0
  3  4  1  0
  4  5  1  0
  5  6  2  0
  5  7  1  0
  7  8  1  0
  8  9  1  0
  9 10  1  0
 10 11  1  0
 11 12  1  0
 12 13  1  0
 13 14  1  0
 14 15  1  0
 15 16  2  0
 16 17  1  0
 17 18  2  0
 18 19  1  0
 19 20  2  0
  2 21  1  0
 21 22  2  0
 22 23  1  0
 23 24  2  0
 24 25  1  0
 25 26  2  0
 26 27  1  0
 26 28  1  0
 28 29  2  0
 29 30  1  0
 30 31  2  0
 11  7  1  0
 20 15  1  0
 31 21  1  0
 30 24  1  0
  3 32  1  0
  4 33  1  0
  4 34  1  0
  8 35  1  0
  8 36  1  0
  9 37  1  0
  9 38  1  0
 10 39  1  0
 10 40  1  0
 11 41  1  6
 12 42  1  0
 12 43  1  0
 13 44  1  0
 14 45  1  0
 14 46  1  0
 16 47  1  0
 17 48  1  0
 18 49  1  0
 19 50  1  0
 20 51  1  0
 22 52  1  0
 23 53  1  0
 25 54  1  0
 28 55  1  0
 29 56  1  0
M  END
>  <smiles>  (11) 
O=C(NCC(=O)N1CCC[C@H]1CNCc1ccccc1)c1ccc2cc(Cl)ccc2n1

>  <score_type>  (11) 
oracle

>  <origin>  (11) 
autodockgpu

>  <m_score__min__energy>  (11) 
-9.3399999999999999

>  <m_primary>  (11) 
energy

>  <rmsd>  (11) 
5.593865320618223

>  <m_score__min__rmsd>  (11) 
5.593865320618223

>  <meeko>  (11) 
{"free_energy": -8.4, "intermolecular_energy": -10.79, "internal_energy": -2.34, "cluster_size": 10, "cluster_id": 1, "rank_in_cluster": 3}

>  <energy>  (11) 
-8.78

>  <cluster_rmsd>  (11) 
0.0

>  <cluster>  (11) 
2

$$$$

     RDKit          3D

 56 59  0  0  0  0  0  0  0  0999 V2000
  139.6710   72.1750  220.7530 O   0  0  0  0  0  0  0  0  0  0  0  0
  139.6760   72.4960  221.9670 C   0  0  0  0  0  0  0  0  0  0  0  0
  139.5580   73.8730  222.3370 N   0  0  0  0  0  0  0  0  0  0  0  0
  139.4310   74.9300  221.3670 C   0  0  0  0  0  0  0  0  0  0  0  0
  139.2110   76.2500  222.0100 C   0  0  0  0  0  0  0  0  0  0  0  0
  140.1000   76.8320  222.7070 O   0  0  0  0  0  0  0  0  0  0  0  0
  137.9750   76.9360  221.8780 N   0  0  0  0  0  0  0  0  0  0  0  0
  136.6790   76.2750  221.9010 C   0  0  0  0  0  0  0  0  0  0  0  0
  135.8730   77.0230  220.8640 C   0  0  0  0  0  0  0  0  0  0  0  0
  136.5000   78.3790  220.8490 C   0  0  0  0  0  0  0  0  0  0  0  0
  137.7340   78.3540  221.6990 C   0  0  1  0  0  0  0  0  0  0  0  0
  137.5730   79.0510  223.0130 C   0  0  0  0  0  0  0  0  0  0  0  0
  137.8520   80.4580  222.9640 N   0  0  0  0  0  0  0  0  0  0  0  0
  138.8690   80.8990  223.8650 C   0  0  0  0  0  0  0  0  0  0  0  0
  140.2490   80.5350  223.4490 C   0  0  0  0  0  0  0  0  0  0  0  0
  141.0120   81.2920  222.5910 C   0  0  0  0  0  0  0  0  0  0  0  0
  142.3070   80.9130  222.2260 C   0  0  0  0  0  0  0  0  0  0  0  0
  142.8520   79.7340  222.7420 C   0  0  0  0  0  0  0  0  0  0  0  0
  142.1020   78.9700  223.6000 C   0  0  0  0  0  0  0  0  0  0  0  0
  140.8360   79.3730  223.9350 C   0  0  0  0  0  0  0  0  0  0  0  0
  139.8010   71.4980  223.0450 C   0  0  0  0  0  0  0  0  0  0  0  0
  139.4240   70.1880  222.8700 C   0  0  0  0  0  0  0  0  0  0  0  0
  139.5390   69.2360  223.8870 C   0  0  0  0  0  0  0  0  0  0  0  0
  140.0600   69.6520  225.1160 C   0  0  0  0  0  0  0  0  0  0  0  0
  140.2070   68.7690  226.1750 C   0  0  0  0  0  0  0  0  0  0  0  0
  140.7250   69.2240  227.3680 C   0  0  0  0  0  0  0  0  0  0  0  0
  140.9370   68.1470  228.7510 Cl  0  0  0  0  0  0  0  0  0  0  0  0
  141.0880   70.5410  227.4930 C   0  0  0  0  0  0  0  0  0  0  0  0
  140.9600   71.4650  226.4620 C   0  0  0  0  0  0  0  0  0  0  0  0
  140.4400   70.9890  225.2780 C   0  0  0  0  0  0  0  0  0  0  0  0
  140.2970   71.8420  224.2510 N   0  0  0  0  0  0  0  0  0  0  0  0
  139.5660   74.0980  223.3780 H   0  0  0  0  0  0  0  0  0  0  0  0
  140.3527   74.9756  220.7684 H   0  0  0  0  0  0  0  0  0  0  0  0
  138.5577   74.7093  220.7357 H   0  0  0  0  0  0  0  0  0  0  0  0
  136.7760   75.2132  221.6306 H   0  0  0  0  0  0  0  0  0  0  0  0
  136.2110   76.2919  222.8963 H   0  0  0  0  0  0  0  0  0  0  0  0
  135.9550   76.5406  219.8788 H   0  0  0  0  0  0  0  0  0  0  0  0
  134.7976   77.0500  221.0938 H   0  0  0  0  0  0  0  0  0  0  0  0
  136.7681   78.6502  219.8172 H   0  0  0  0  0  0  0  0  0  0  0  0
  135.7909   79.1213  221.2441 H   0  0  0  0  0  0  0  0  0  0  0  0
  138.5671   78.8941  221.2255 H   0  0  0  0  0  0  0  0  0  0  0  0
  136.5353   78.9155  223.3519 H   0  0  0  0  0  0  0  0  0  0  0  0
  138.3047   78.6046  223.7025 H   0  0  0  0  0  0  0  0  0  0  0  0
  137.8440   80.8860  222.0400 H   0  0  0  0  0  0  0  0  0  0  0  0
  138.8096   81.9946  223.9432 H   0  0  0  0  0  0  0  0  0  0  0  0
  138.6835   80.3935  224.8242 H   0  0  0  0  0  0  0  0  0  0  0  0
  140.5914   82.2218  222.1805 H   0  0  0  0  0  0  0  0  0  0  0  0
  142.8934   81.5387  221.5370 H   0  0  0  0  0  0  0  0  0  0  0  0
  143.8696   79.4225  222.4637 H   0  0  0  0  0  0  0  0  0  0  0  0
  142.5147   78.0393  224.0166 H   0  0  0  0  0  0  0  0  0  0  0  0
  140.2540   78.7439  224.6246 H   0  0  0  0  0  0  0  0  0  0  0  0
  139.0177   69.8780  221.8959 H   0  0  0  0  0  0  0  0  0  0  0  0
  139.2295   68.1929  223.7256 H   0  0  0  0  0  0  0  0  0  0  0  0
  139.9128   67.7149  226.0637 H   0  0  0  0  0  0  0  0  0  0  0  0
  141.4998   70.8821  228.4543 H   0  0  0  0  0  0  0  0  0  0  0  0
  141.2572   72.5170  226.5846 H   0  0  0  0  0  0  0  0  0  0  0  0
  1  2  2  0
  2  3  1  0
  3  4  1  0
  4  5  1  0
  5  6  2  0
  5  7  1  0
  7  8  1  0
  8  9  1  0
  9 10  1  0
 10 11  1  0
 11 12  1  0
 12 13  1  0
 13 14  1  0
 14 15  1  0
 15 16  2  0
 16 17  1  0
 17 18  2  0
 18 19  1  0
 19 20  2  0
  2 21  1  0
 21 22  2  0
 22 23  1  0
 23 24  2  0
 24 25  1  0
 25 26  2  0
 26 27  1  0
 26 28  1  0
 28 29  2  0
 29 30  1  0
 30 31  2  0
 11  7  1  0
 20 15  1  0
 31 21  1  0
 30 24  1  0
  3 32  1  0
  4 33  1  0
  4 34  1  0
  8 35  1  0
  8 36  1  0
  9 37  1  0
  9 38  1  0
 10 39  1  0
 10 40  1  0
 11 41  1  6
 12 42  1  0
 12 43  1  0
 13 44  1  0
 14 45  1  0
 14 46  1  0
 16 47  1  0
 17 48  1  0
 18 49  1  0
 19 50  1  0
 20 51  1  0
 22 52  1  0
 23 53  1  0
 25 54  1  0
 28 55  1  0
 29 56  1  0
M  END
>  <smiles>  (12) 
O=C(NCC(=O)N1CCC[C@H]1CNCc1ccccc1)c1ccc2cc(Cl)ccc2n1

>  <score_type>  (12) 
oracle

>  <origin>  (12) 
autodockgpu

>  <m_score__min__energy>  (12) 
-9.3399999999999999

>  <m_primary>  (12) 
energy

>  <rmsd>  (12) 
3.436737619355198

>  <m_score__min__rmsd>  (12) 
3.436737619355198

>  <meeko>  (12) 
{"free_energy": -8.14, "intermolecular_energy": -10.53, "internal_energy": -1.88, "cluster_size": 2, "cluster_id": 4, "rank_in_cluster": 1}

>  <energy>  (12) 
-8.5

>  <cluster_rmsd>  (12) 
1.79

>  <cluster>  (12) 
2

$$$$

     RDKit          3D

 56 59  0  0  0  0  0  0  0  0999 V2000
  135.5300   76.1240  223.4620 O   0  0  0  0  0  0  0  0  0  0  0  0
  136.1000   75.0050  223.4240 C   0  0  0  0  0  0  0  0  0  0  0  0
  137.3370   74.8620  222.7190 N   0  0  0  0  0  0  0  0  0  0  0  0
  137.9740   75.9600  222.0370 C   0  0  0  0  0  0  0  0  0  0  0  0
  139.4530   75.9050  222.1570 C   0  0  0  0  0  0  0  0  0  0  0  0
  140.1350   76.8360  222.6860 O   0  0  0  0  0  0  0  0  0  0  0  0
  140.1890   74.7890  221.6750 N   0  0  0  0  0  0  0  0  0  0  0  0
  141.5890   74.8530  221.2910 C   0  0  0  0  0  0  0  0  0  0  0  0
  141.6730   73.9550  220.0770 C   0  0  0  0  0  0  0  0  0  0  0  0
  140.5540   72.9870  220.2850 C   0  0  0  0  0  0  0  0  0  0  0  0
  139.7440   73.4260  221.4670 C   0  0  1  0  0  0  0  0  0  0  0  0
  139.9580   72.5880  222.6880 C   0  0  0  0  0  0  0  0  0  0  0  0
  138.7760   71.9190  223.1500 N   0  0  0  0  0  0  0  0  0  0  0  0
  138.9990   70.6170  223.6940 C   0  0  0  0  0  0  0  0  0  0  0  0
  139.5450   70.6200  225.0770 C   0  0  0  0  0  0  0  0  0  0  0  0
  140.4470   71.5500  225.5380 C   0  0  0  0  0  0  0  0  0  0  0  0
  140.9350   71.5170  226.8480 C   0  0  0  0  0  0  0  0  0  0  0  0
  140.5000   70.5160  227.7210 C   0  0  0  0  0  0  0  0  0  0  0  0
  139.5990   69.5840  227.2740 C   0  0  0  0  0  0  0  0  0  0  0  0
  139.1430   69.6470  225.9830 C   0  0  0  0  0  0  0  0  0  0  0  0
  135.5390   73.8130  224.0850 C   0  0  0  0  0  0  0  0  0  0  0  0
  134.6340   73.9120  225.1140 C   0  0  0  0  0  0  0  0  0  0  0  0
  134.0970   72.7860  225.7470 C   0  0  0  0  0  0  0  0  0  0  0  0
  134.5100   71.5270  225.3000 C   0  0  0  0  0  0  0  0  0  0  0  0
  134.0230   70.3620  225.8750 C   0  0  0  0  0  0  0  0  0  0  0  0
  134.4580   69.1430  225.4020 C   0  0  0  0  0  0  0  0  0  0  0  0
  133.8750   67.6260  226.0920 Cl  0  0  0  0  0  0  0  0  0  0  0  0
  135.3630   69.0960  224.3710 C   0  0  0  0  0  0  0  0  0  0  0  0
  135.8800   70.2350  223.7630 C   0  0  0  0  0  0  0  0  0  0  0  0
  135.4320   71.4440  224.2510 C   0  0  0  0  0  0  0  0  0  0  0  0
  135.9000   72.5730  223.6960 N   0  0  0  0  0  0  0  0  0  0  0  0
  137.7840   73.8950  222.7140 H   0  0  0  0  0  0  0  0  0  0  0  0
  137.7023   75.9224  220.9718 H   0  0  0  0  0  0  0  0  0  0  0  0
  137.6294   76.8954  222.5021 H   0  0  0  0  0  0  0  0  0  0  0  0
  141.8787   75.8833  221.0368 H   0  0  0  0  0  0  0  0  0  0  0  0
  142.2660   74.5392  222.0992 H   0  0  0  0  0  0  0  0  0  0  0  0
  141.5286   74.5306  219.1508 H   0  0  0  0  0  0  0  0  0  0  0  0
  142.6519   73.4642  219.9725 H   0  0  0  0  0  0  0  0  0  0  0  0
  139.9161   72.9623  219.3892 H   0  0  0  0  0  0  0  0  0  0  0  0
  140.9609   71.9811  220.4656 H   0  0  0  0  0  0  0  0  0  0  0  0
  138.6641   73.3303  221.2807 H   0  0  0  0  0  0  0  0  0  0  0  0
  140.7182   71.8273  222.4568 H   0  0  0  0  0  0  0  0  0  0  0  0
  140.2727   73.2701  223.4915 H   0  0  0  0  0  0  0  0  0  0  0  0
  138.0870   72.4990  223.6240 H   0  0  0  0  0  0  0  0  0  0  0  0
  138.0402   70.0779  223.7027 H   0  0  0  0  0  0  0  0  0  0  0  0
  139.7540   70.1331  223.0570 H   0  0  0  0  0  0  0  0  0  0  0  0
  140.7942   72.3416  224.8576 H   0  0  0  0  0  0  0  0  0  0  0  0
  141.6565   72.2739  227.1892 H   0  0  0  0  0  0  0  0  0  0  0  0
  140.8758   70.4763  228.7540 H   0  0  0  0  0  0  0  0  0  0  0  0
  139.2441   68.7902  227.9478 H   0  0  0  0  0  0  0  0  0  0  0  0
  138.4214   68.8878  225.6471 H   0  0  0  0  0  0  0  0  0  0  0  0
  134.3209   74.9110  225.4517 H   0  0  0  0  0  0  0  0  0  0  0  0
  133.3736   72.8876  226.5694 H   0  0  0  0  0  0  0  0  0  0  0  0
  133.2971   70.4109  226.7000 H   0  0  0  0  0  0  0  0  0  0  0  0
  135.6948   68.1117  224.0089 H   0  0  0  0  0  0  0  0  0  0  0  0
  136.6059   70.1746  222.9387 H   0  0  0  0  0  0  0  0  0  0  0  0
  1  2  2  0
  2  3  1  0
  3  4  1  0
  4  5  1  0
  5  6  2  0
  5  7  1  0
  7  8  1  0
  8  9  1  0
  9 10  1  0
 10 11  1  0
 11 12  1  0
 12 13  1  0
 13 14  1  0
 14 15  1  0
 15 16  2  0
 16 17  1  0
 17 18  2  0
 18 19  1  0
 19 20  2  0
  2 21  1  0
 21 22  2  0
 22 23  1  0
 23 24  2  0
 24 25  1  0
 25 26  2  0
 26 27  1  0
 26 28  1  0
 28 29  2  0
 29 30  1  0
 30 31  2  0
 11  7  1  0
 20 15  1  0
 31 21  1  0
 30 24  1  0
  3 32  1  0
  4 33  1  0
  4 34  1  0
  8 35  1  0
  8 36  1  0
  9 37  1  0
  9 38  1  0
 10 39  1  0
 10 40  1  0
 11 41  1  6
 12 42  1  0
 12 43  1  0
 13 44  1  0
 14 45  1  0
 14 46  1  0
 16 47  1  0
 17 48  1  0
 18 49  1  0
 19 50  1  0
 20 51  1  0
 22 52  1  0
 23 53  1  0
 25 54  1  0
 28 55  1  0
 29 56  1  0
M  END
>  <smiles>  (13) 
O=C(NCC(=O)N1CCC[C@H]1CNCc1ccccc1)c1ccc2cc(Cl)ccc2n1

>  <score_type>  (13) 
oracle

>  <origin>  (13) 
autodockgpu

>  <m_score__min__energy>  (13) 
-9.3399999999999999

>  <m_primary>  (13) 
energy

>  <rmsd>  (13) 
7.54964945313832

>  <m_score__min__rmsd>  (13) 
7.54964945313832

>  <meeko>  (13) 
{"free_energy": -6.92, "intermolecular_energy": -9.31, "internal_energy": -3.62, "cluster_size": 1, "cluster_id": 10, "rank_in_cluster": 1}

>  <energy>  (13) 
-8.0

>  <cluster_rmsd>  (13) 
1.26

>  <cluster>  (13) 
2

$$$$

     RDKit          3D

 56 59  0  0  0  0  0  0  0  0999 V2000
  139.7780   72.2090  220.5480 O   0  0  0  0  0  0  0  0  0  0  0  0
  139.5760   72.5620  221.7370 C   0  0  0  0  0  0  0  0  0  0  0  0
  139.2290   73.9200  222.0240 N   0  0  0  0  0  0  0  0  0  0  0  0
  139.0960   74.9220  220.9970 C   0  0  0  0  0  0  0  0  0  0  0  0
  138.9760   76.2870  221.5670 C   0  0  0  0  0  0  0  0  0  0  0  0
  137.8800   76.7550  222.0080 O   0  0  0  0  0  0  0  0  0  0  0  0
  140.0990   77.1530  221.6460 N   0  0  0  0  0  0  0  0  0  0  0  0
  141.0630   77.1250  222.7340 C   0  0  0  0  0  0  0  0  0  0  0  0
  141.3910   78.5830  222.9650 C   0  0  0  0  0  0  0  0  0  0  0  0
  141.1420   79.2090  221.6310 C   0  0  0  0  0  0  0  0  0  0  0  0
  140.5150   78.1920  220.7260 C   0  0  1  0  0  0  0  0  0  0  0  0
  141.4460   77.6590  219.6830 C   0  0  0  0  0  0  0  0  0  0  0  0
  142.6860   77.1620  220.2080 N   0  0  0  0  0  0  0  0  0  0  0  0
  143.3980   76.2860  219.3330 C   0  0  0  0  0  0  0  0  0  0  0  0
  143.6550   74.9360  219.9000 C   0  0  0  0  0  0  0  0  0  0  0  0
  144.8910   74.5090  220.3210 C   0  0  0  0  0  0  0  0  0  0  0  0
  145.0880   73.2300  220.8500 C   0  0  0  0  0  0  0  0  0  0  0  0
  144.0050   72.3530  220.9570 C   0  0  0  0  0  0  0  0  0  0  0  0
  142.7650   72.7680  220.5410 C   0  0  0  0  0  0  0  0  0  0  0  0
  142.6100   74.0280  220.0280 C   0  0  0  0  0  0  0  0  0  0  0  0
  139.6850   71.6220  222.8670 C   0  0  0  0  0  0  0  0  0  0  0  0
  139.2260   70.3300  222.7840 C   0  0  0  0  0  0  0  0  0  0  0  0
  139.3250   69.4320  223.8520 C   0  0  0  0  0  0  0  0  0  0  0  0
  139.9170   69.8860  225.0340 C   0  0  0  0  0  0  0  0  0  0  0  0
  140.0540   69.0570  226.1380 C   0  0  0  0  0  0  0  0  0  0  0  0
  140.6440   69.5480  227.2820 C   0  0  0  0  0  0  0  0  0  0  0  0
  140.8470   68.5420  228.7180 Cl  0  0  0  0  0  0  0  0  0  0  0  0
  141.0880   70.8460  227.3150 C   0  0  0  0  0  0  0  0  0  0  0  0
  140.9730   71.7150  226.2360 C   0  0  0  0  0  0  0  0  0  0  0  0
  140.3810   71.2040  225.1020 C   0  0  0  0  0  0  0  0  0  0  0  0
  140.2480   72.0040  224.0320 N   0  0  0  0  0  0  0  0  0  0  0  0
  139.0660   74.1740  223.0460 H   0  0  0  0  0  0  0  0  0  0  0  0
  139.9827   74.8848  220.3471 H   0  0  0  0  0  0  0  0  0  0  0  0
  138.1785   74.7081  220.4292 H   0  0  0  0  0  0  0  0  0  0  0  0
  140.6226   76.6750  223.6360 H   0  0  0  0  0  0  0  0  0  0  0  0
  141.9521   76.5218  222.4983 H   0  0  0  0  0  0  0  0  0  0  0  0
  140.7338   79.0176  223.7327 H   0  0  0  0  0  0  0  0  0  0  0  0
  142.4172   78.7402  223.3285 H   0  0  0  0  0  0  0  0  0  0  0  0
  140.4643   80.0676  221.7469 H   0  0  0  0  0  0  0  0  0  0  0  0
  142.0924   79.5560  221.1993 H   0  0  0  0  0  0  0  0  0  0  0  0
  139.6932   78.6227  220.1351 H   0  0  0  0  0  0  0  0  0  0  0  0
  140.9399   76.8377  219.1545 H   0  0  0  0  0  0  0  0  0  0  0  0
  141.6952   78.4995  219.0186 H   0  0  0  0  0  0  0  0  0  0  0  0
  143.2440   77.8230  220.7450 H   0  0  0  0  0  0  0  0  0  0  0  0
  142.8103   76.1668  218.4108 H   0  0  0  0  0  0  0  0  0  0  0  0
  144.3809   76.7468  219.1550 H   0  0  0  0  0  0  0  0  0  0  0  0
  145.7493   75.1922  220.2396 H   0  0  0  0  0  0  0  0  0  0  0  0
  146.0892   72.9158  221.1800 H   0  0  0  0  0  0  0  0  0  0  0  0
  144.1449   71.3429  221.3695 H   0  0  0  0  0  0  0  0  0  0  0  0
  141.9005   72.0923  220.6192 H   0  0  0  0  0  0  0  0  0  0  0  0
  141.6067   74.3379  219.7002 H   0  0  0  0  0  0  0  0  0  0  0  0
  138.7646   69.9897  221.8452 H   0  0  0  0  0  0  0  0  0  0  0  0
  138.9491   68.4019  223.7645 H   0  0  0  0  0  0  0  0  0  0  0  0
  139.6951   68.0179  226.1002 H   0  0  0  0  0  0  0  0  0  0  0  0
  141.5569   71.2163  228.2386 H   0  0  0  0  0  0  0  0  0  0  0  0
  141.3346   72.7527  226.2850 H   0  0  0  0  0  0  0  0  0  0  0  0
  1  2  2  0
  2  3  1  0
  3  4  1  0
  4  5  1  0
  5  6  2  0
  5  7  1  0
  7  8  1  0
  8  9  1  0
  9 10  1  0
 10 11  1  0
 11 12  1  0
 12 13  1  0
 13 14  1  0
 14 15  1  0
 15 16  2  0
 16 17  1  0
 17 18  2  0
 18 19  1  0
 19 20  2  0
  2 21  1  0
 21 22  2  0
 22 23  1  0
 23 24  2  0
 24 25  1  0
 25 26  2  0
 26 27  1  0
 26 28  1  0
 28 29  2  0
 29 30  1  0
 30 31  2  0
 11  7  1  0
 20 15  1  0
 31 21  1  0
 30 24  1  0
  3 32  1  0
  4 33  1  0
  4 34  1  0
  8 35  1  0
  8 36  1  0
  9 37  1  0
  9 38  1  0
 10 39  1  0
 10 40  1  0
 11 41  1  6
 12 42  1  0
 12 43  1  0
 13 44  1  0
 14 45  1  0
 14 46  1  0
 16 47  1  0
 17 48  1  0
 18 49  1  0
 19 50  1  0
 20 51  1  0
 22 52  1  0
 23 53  1  0
 25 54  1  0
 28 55  1  0
 29 56  1  0
M  END
>  <smiles>  (14) 
O=C(NCC(=O)N1CCC[C@H]1CNCc1ccccc1)c1ccc2cc(Cl)ccc2n1

>  <score_type>  (14) 
oracle

>  <origin>  (14) 
autodockgpu

>  <m_score__min__energy>  (14) 
-9.3399999999999999

>  <m_primary>  (14) 
energy

>  <rmsd>  (14) 
5.014902693289545

>  <m_score__min__rmsd>  (14) 
5.014902693289545

>  <meeko>  (14) 
{"free_energy": -8.79, "intermolecular_energy": -11.17, "internal_energy": -2.23, "cluster_size": 10, "cluster_id": 1, "rank_in_cluster": 2}

>  <energy>  (14) 
-7.83

>  <cluster_rmsd>  (14) 
1.83

>  <cluster>  (14) 
2

$$$$

     RDKit          3D

 56 59  0  0  0  0  0  0  0  0999 V2000
  137.7260   73.1990  220.7450 O   0  0  0  0  0  0  0  0  0  0  0  0
  137.5370   73.7340  221.8660 C   0  0  0  0  0  0  0  0  0  0  0  0
  136.9080   72.9870  222.9110 N   0  0  0  0  0  0  0  0  0  0  0  0
  136.4710   71.6250  222.7390 C   0  0  0  0  0  0  0  0  0  0  0  0
  137.5870   70.7310  222.3420 C   0  0  0  0  0  0  0  0  0  0  0  0
  137.7190   70.2760  221.1630 O   0  0  0  0  0  0  0  0  0  0  0  0
  138.5780   70.3320  223.2780 N   0  0  0  0  0  0  0  0  0  0  0  0
  139.0750   68.9700  223.3960 C   0  0  0  0  0  0  0  0  0  0  0  0
  139.2530   68.7770  224.8840 C   0  0  0  0  0  0  0  0  0  0  0  0
  139.4940   70.1630  225.3870 C   0  0  0  0  0  0  0  0  0  0  0  0
  139.2740   71.1320  224.2660 C   0  0  1  0  0  0  0  0  0  0  0  0
  140.5370   71.7090  223.7110 C   0  0  0  0  0  0  0  0  0  0  0  0
  140.3340   72.8380  222.8480 N   0  0  0  0  0  0  0  0  0  0  0  0
  140.6060   72.5920  221.4670 C   0  0  0  0  0  0  0  0  0  0  0  0
  141.8440   73.2430  220.9660 C   0  0  0  0  0  0  0  0  0  0  0  0
  143.0540   72.5980  220.8580 C   0  0  0  0  0  0  0  0  0  0  0  0
  144.1960   73.2480  220.3800 C   0  0  0  0  0  0  0  0  0  0  0  0
  144.1170   74.5900  219.9990 C   0  0  0  0  0  0  0  0  0  0  0  0
  142.9160   75.2450  220.1010 C   0  0  0  0  0  0  0  0  0  0  0  0
  141.8180   74.5760  220.5740 C   0  0  0  0  0  0  0  0  0  0  0  0
  137.9420   75.1210  222.1540 C   0  0  0  0  0  0  0  0  0  0  0  0
  137.0230   76.1340  222.2900 C   0  0  0  0  0  0  0  0  0  0  0  0
  137.3990   77.4530  222.5630 C   0  0  0  0  0  0  0  0  0  0  0  0
  138.7630   77.7270  222.7000 C   0  0  0  0  0  0  0  0  0  0  0  0
  139.2180   79.0090  222.9720 C   0  0  0  0  0  0  0  0  0  0  0  0
  140.5710   79.2330  223.0980 C   0  0  0  0  0  0  0  0  0  0  0  0
  141.2110   80.8420  223.4450 Cl  0  0  0  0  0  0  0  0  0  0  0  0
  141.4510   78.1890  222.9550 C   0  0  0  0  0  0  0  0  0  0  0  0
  141.0440   76.8880  222.6820 C   0  0  0  0  0  0  0  0  0  0  0  0
  139.6870   76.6850  222.5590 C   0  0  0  0  0  0  0  0  0  0  0  0
  139.2440   75.4460  222.2970 N   0  0  0  0  0  0  0  0  0  0  0  0
  136.7690   73.4810  223.8450 H   0  0  0  0  0  0  0  0  0  0  0  0
  136.0475   71.2650  223.6882 H   0  0  0  0  0  0  0  0  0  0  0  0
  135.7186   71.6074  221.9368 H   0  0  0  0  0  0  0  0  0  0  0  0
  138.3468   68.2511  222.9923 H   0  0  0  0  0  0  0  0  0  0  0  0
  140.0055   68.8071  222.8323 H   0  0  0  0  0  0  0  0  0  0  0  0
  138.3474   68.3462  225.3361 H   0  0  0  0  0  0  0  0  0  0  0  0
  140.0690   68.0823  225.1322 H   0  0  0  0  0  0  0  0  0  0  0  0
  138.7964   70.3841  226.2083 H   0  0  0  0  0  0  0  0  0  0  0  0
  140.5260   70.2504  225.7576 H   0  0  0  0  0  0  0  0  0  0  0  0
  138.7158   72.0196  224.5985 H   0  0  0  0  0  0  0  0  0  0  0  0
  141.1710   72.0263  224.5520 H   0  0  0  0  0  0  0  0  0  0  0  0
  141.0047   70.9223  223.1007 H   0  0  0  0  0  0  0  0  0  0  0  0
  139.5280   73.4240  223.0580 H   0  0  0  0  0  0  0  0  0  0  0  0
  140.7044   71.5060  221.3227 H   0  0  0  0  0  0  0  0  0  0  0  0
  139.7691   73.0228  220.8978 H   0  0  0  0  0  0  0  0  0  0  0  0
  143.1253   71.5415  221.1559 H   0  0  0  0  0  0  0  0  0  0  0  0
  145.1504   72.7064  220.3044 H   0  0  0  0  0  0  0  0  0  0  0  0
  145.0071   75.1149  219.6218 H   0  0  0  0  0  0  0  0  0  0  0  0
  142.8350   76.3013  219.8047 H   0  0  0  0  0  0  0  0  0  0  0  0
  140.8662   75.1225  220.6473 H   0  0  0  0  0  0  0  0  0  0  0  0
  135.9540   75.8989  222.1802 H   0  0  0  0  0  0  0  0  0  0  0  0
  136.6464   78.2486  222.6665 H   0  0  0  0  0  0  0  0  0  0  0  0
  138.5049   79.8387  223.0859 H   0  0  0  0  0  0  0  0  0  0  0  0
  142.5270   78.3911  223.0613 H   0  0  0  0  0  0  0  0  0  0  0  0
  141.7660   76.0657  222.5703 H   0  0  0  0  0  0  0  0  0  0  0  0
  1  2  2  0
  2  3  1  0
  3  4  1  0
  4  5  1  0
  5  6  2  0
  5  7  1  0
  7  8  1  0
  8  9  1  0
  9 10  1  0
 10 11  1  0
 11 12  1  0
 12 13  1  0
 13 14  1  0
 14 15  1  0
 15 16  2  0
 16 17  1  0
 17 18  2  0
 18 19  1  0
 19 20  2  0
  2 21  1  0
 21 22  2  0
 22 23  1  0
 23 24  2  0
 24 25  1  0
 25 26  2  0
 26 27  1  0
 26 28  1  0
 28 29  2  0
 29 30  1  0
 30 31  2  0
 11  7  1  0
 20 15  1  0
 31 21  1  0
 30 24  1  0
  3 32  1  0
  4 33  1  0
  4 34  1  0
  8 35  1  0
  8 36  1  0
  9 37  1  0
  9 38  1  0
 10 39  1  0
 10 40  1  0
 11 41  1  1
 12 42  1  0
 12 43  1  0
 13 44  1  0
 14 45  1  0
 14 46  1  0
 16 47  1  0
 17 48  1  0
 18 49  1  0
 19 50  1  0
 20 51  1  0
 22 52  1  0
 23 53  1  0
 25 54  1  0
 28 55  1  0
 29 56  1  0
M  END
>  <smiles>  (15) 
O=C(NCC(=O)N1CCC[C@H]1CNCc1ccccc1)c1ccc2cc(Cl)ccc2n1

>  <score_type>  (15) 
oracle

>  <origin>  (15) 
autodockgpu

>  <m_score__min__energy>  (15) 
-9.3399999999999999

>  <m_primary>  (15) 
energy

>  <rmsd>  (15) 
7.916822093251795

>  <m_score__min__rmsd>  (15) 
7.916822093251795

>  <meeko>  (15) 
{"free_energy": -7.31, "intermolecular_energy": -9.7, "internal_energy": -3.22, "cluster_size": 7, "cluster_id": 2, "rank_in_cluster": 6}

>  <energy>  (15) 
-7.49

>  <cluster_rmsd>  (15) 
1.85

>  <cluster>  (15) 
2

$$$$

     RDKit          3D

 56 59  0  0  0  0  0  0  0  0999 V2000
  140.2230   71.7230  220.7990 O   0  0  0  0  0  0  0  0  0  0  0  0
  139.8130   72.0670  221.9360 C   0  0  0  0  0  0  0  0  0  0  0  0
  139.2970   73.3870  222.1340 N   0  0  0  0  0  0  0  0  0  0  0  0
  139.2230   74.3590  221.0730 C   0  0  0  0  0  0  0  0  0  0  0  0
  140.5270   75.0300  220.8440 C   0  0  0  0  0  0  0  0  0  0  0  0
  141.2310   75.5070  221.7880 O   0  0  0  0  0  0  0  0  0  0  0  0
  141.0590   75.1760  219.5350 N   0  0  0  0  0  0  0  0  0  0  0  0
  140.2530   75.1240  218.3260 C   0  0  0  0  0  0  0  0  0  0  0  0
  141.1260   74.3820  217.3400 C   0  0  0  0  0  0  0  0  0  0  0  0
  142.5110   74.6740  217.8160 C   0  0  0  0  0  0  0  0  0  0  0  0
  142.4340   75.3920  219.1290 C   0  0  1  0  0  0  0  0  0  0  0  0
  142.7540   76.8510  219.0370 C   0  0  0  0  0  0  0  0  0  0  0  0
  142.5720   77.5660  220.2680 N   0  0  0  0  0  0  0  0  0  0  0  0
  141.7420   78.7250  220.1700 C   0  0  0  0  0  0  0  0  0  0  0  0
  141.5410   79.4400  221.4570 C   0  0  0  0  0  0  0  0  0  0  0  0
  141.3840   78.8040  222.6660 C   0  0  0  0  0  0  0  0  0  0  0  0
  141.1980   79.5160  223.8550 C   0  0  0  0  0  0  0  0  0  0  0  0
  141.1700   80.9130  223.8250 C   0  0  0  0  0  0  0  0  0  0  0  0
  141.3260   81.5600  222.6260 C   0  0  0  0  0  0  0  0  0  0  0  0
  141.5060   80.8290  221.4810 C   0  0  0  0  0  0  0  0  0  0  0  0
  139.8420   71.1550  223.0930 C   0  0  0  0  0  0  0  0  0  0  0  0
  139.3130   69.8880  223.0330 C   0  0  0  0  0  0  0  0  0  0  0  0
  139.3370   69.0170  224.1270 C   0  0  0  0  0  0  0  0  0  0  0  0
  139.9240   69.4710  225.3110 C   0  0  0  0  0  0  0  0  0  0  0  0
  139.9880   68.6670  226.4400 C   0  0  0  0  0  0  0  0  0  0  0  0
  140.5760   69.1570  227.5850 C   0  0  0  0  0  0  0  0  0  0  0  0
  140.6890   68.1820  229.0530 Cl  0  0  0  0  0  0  0  0  0  0  0  0
  141.0920   70.4290  227.5950 C   0  0  0  0  0  0  0  0  0  0  0  0
  141.0510   71.2730  226.4910 C   0  0  0  0  0  0  0  0  0  0  0  0
  140.4590   70.7630  225.3560 C   0  0  0  0  0  0  0  0  0  0  0  0
  140.3960   71.5380  224.2610 N   0  0  0  0  0  0  0  0  0  0  0  0
  138.9600   73.6340  223.1130 H   0  0  0  0  0  0  0  0  0  0  0  0
  138.9170   73.8512  220.1464 H   0  0  0  0  0  0  0  0  0  0  0  0
  138.4916   75.1269  221.3651 H   0  0  0  0  0  0  0  0  0  0  0  0
  139.3140   74.5796  218.5045 H   0  0  0  0  0  0  0  0  0  0  0  0
  139.9607   76.1219  217.9672 H   0  0  0  0  0  0  0  0  0  0  0  0
  140.9200   73.3018  217.3671 H   0  0  0  0  0  0  0  0  0  0  0  0
  140.9558   74.6913  216.2982 H   0  0  0  0  0  0  0  0  0  0  0  0
  143.0638   73.7315  217.9428 H   0  0  0  0  0  0  0  0  0  0  0  0
  143.0328   75.3020  217.0789 H   0  0  0  0  0  0  0  0  0  0  0  0
  143.1783   75.0142  219.8455 H   0  0  0  0  0  0  0  0  0  0  0  0
  143.8043   76.9562  218.7276 H   0  0  0  0  0  0  0  0  0  0  0  0
  142.0532   77.2858  218.3091 H   0  0  0  0  0  0  0  0  0  0  0  0
  142.4650   76.9990  221.1060 H   0  0  0  0  0  0  0  0  0  0  0  0
  142.2057   79.4222  219.4566 H   0  0  0  0  0  0  0  0  0  0  0  0
  140.7509   78.3776  219.8429 H   0  0  0  0  0  0  0  0  0  0  0  0
  141.4053   77.7047  222.6987 H   0  0  0  0  0  0  0  0  0  0  0  0
  141.0745   78.9801  224.8077 H   0  0  0  0  0  0  0  0  0  0  0  0
  141.0245   81.4867  224.7522 H   0  0  0  0  0  0  0  0  0  0  0  0
  141.3068   82.6590  222.5836 H   0  0  0  0  0  0  0  0  0  0  0  0
  141.6292   81.3700  220.5312 H   0  0  0  0  0  0  0  0  0  0  0  0
  138.8552   69.5474  222.0926 H   0  0  0  0  0  0  0  0  0  0  0  0
  138.9075   68.0067  224.0576 H   0  0  0  0  0  0  0  0  0  0  0  0
  139.5733   67.6484  226.4208 H   0  0  0  0  0  0  0  0  0  0  0  0
  141.5598   70.7978  228.5198 H   0  0  0  0  0  0  0  0  0  0  0  0
  141.4677   72.2906  226.5218 H   0  0  0  0  0  0  0  0  0  0  0  0
  1  2  2  0
  2  3  1  0
  3  4  1  0
  4  5  1  0
  5  6  2  0
  5  7  1  0
  7  8  1  0
  8  9  1  0
  9 10  1  0
 10 11  1  0
 11 12  1  0
 12 13  1  0
 13 14  1  0
 14 15  1  0
 15 16  2  0
 16 17  1  0
 17 18  2  0
 18 19  1  0
 19 20  2  0
  2 21  1  0
 21 22  2  0
 22 23  1  0
 23 24  2  0
 24 25  1  0
 25 26  2  0
 26 27  1  0
 26 28  1  0
 28 29  2  0
 29 30  1  0
 30 31  2  0
 11  7  1  0
 20 15  1  0
 31 21  1  0
 30 24  1  0
  3 32  1  0
  4 33  1  0
  4 34  1  0
  8 35  1  0
  8 36  1  0
  9 37  1  0
  9 38  1  0
 10 39  1  0
 10 40  1  0
 11 41  1  1
 12 42  1  0
 12 43  1  0
 13 44  1  0
 14 45  1  0
 14 46  1  0
 16 47  1  0
 17 48  1  0
 18 49  1  0
 19 50  1  0
 20 51  1  0
 22 52  1  0
 23 53  1  0
 25 54  1  0
 28 55  1  0
 29 56  1  0
M  END
>  <smiles>  (16) 
O=C(NCC(=O)N1CCC[C@H]1CNCc1ccccc1)c1ccc2cc(Cl)ccc2n1

>  <score_type>  (16) 
oracle

>  <origin>  (16) 
autodockgpu

>  <m_score__min__energy>  (16) 
-9.3399999999999999

>  <m_primary>  (16) 
energy

>  <rmsd>  (16) 
2.1575521803613453

>  <m_score__min__rmsd>  (16) 
2.1575521803613453

>  <meeko>  (16) 
{"free_energy": -8.14, "intermolecular_energy": -10.53, "internal_energy": -2.34, "cluster_size": 6, "cluster_id": 3, "rank_in_cluster": 3}

>  <energy>  (16) 
-7.31

>  <cluster_rmsd>  (16) 
1.95

>  <cluster>  (16) 
2

$$$$

     RDKit          3D

 56 59  0  0  0  0  0  0  0  0999 V2000
  139.9310   73.8040  221.9430 O   0  0  0  0  0  0  0  0  0  0  0  0
  140.2710   75.0120  221.8750 C   0  0  0  0  0  0  0  0  0  0  0  0
  141.5810   75.3550  221.4130 N   0  0  0  0  0  0  0  0  0  0  0  0
  142.5480   74.3640  221.0140 C   0  0  0  0  0  0  0  0  0  0  0  0
  143.5050   74.8960  220.0110 C   0  0  0  0  0  0  0  0  0  0  0  0
  144.7640   74.8320  220.1600 O   0  0  0  0  0  0  0  0  0  0  0  0
  143.0490   75.5140  218.8160 N   0  0  0  0  0  0  0  0  0  0  0  0
  142.6360   74.7760  217.6330 C   0  0  0  0  0  0  0  0  0  0  0  0
  143.1600   75.6090  216.4850 C   0  0  0  0  0  0  0  0  0  0  0  0
  143.2050   76.9900  217.0520 C   0  0  0  0  0  0  0  0  0  0  0  0
  142.9030   76.9250  218.5180 C   0  0  1  0  0  0  0  0  0  0  0  0
  141.5370   77.4200  218.8740 C   0  0  0  0  0  0  0  0  0  0  0  0
  141.4750   78.1020  220.1360 N   0  0  0  0  0  0  0  0  0  0  0  0
  141.7500   79.5020  220.0740 C   0  0  0  0  0  0  0  0  0  0  0  0
  141.9700   80.1380  221.4000 C   0  0  0  0  0  0  0  0  0  0  0  0
  141.5370   81.4030  221.7200 C   0  0  0  0  0  0  0  0  0  0  0  0
  141.7650   81.9630  222.9810 C   0  0  0  0  0  0  0  0  0  0  0  0
  142.4500   81.2250  223.9500 C   0  0  0  0  0  0  0  0  0  0  0  0
  142.8860   79.9610  223.6440 C   0  0  0  0  0  0  0  0  0  0  0  0
  142.6450   79.4450  222.3980 C   0  0  0  0  0  0  0  0  0  0  0  0
  139.3640   76.1080  222.2570 C   0  0  0  0  0  0  0  0  0  0  0  0
  137.9980   75.9850  222.1680 C   0  0  0  0  0  0  0  0  0  0  0  0
  137.1300   77.0210  222.5290 C   0  0  0  0  0  0  0  0  0  0  0  0
  137.6930   78.2120  222.9950 C   0  0  0  0  0  0  0  0  0  0  0  0
  136.9010   79.2860  223.3730 C   0  0  0  0  0  0  0  0  0  0  0  0
  137.5000   80.4410  223.8260 C   0  0  0  0  0  0  0  0  0  0  0  0
  136.5450   81.8400  224.3230 Cl  0  0  0  0  0  0  0  0  0  0  0  0
  138.8680   80.5150  223.8990 C   0  0  0  0  0  0  0  0  0  0  0  0
  139.7040   79.4670  223.5310 C   0  0  0  0  0  0  0  0  0  0  0  0
  139.0850   78.3210  223.0800 C   0  0  0  0  0  0  0  0  0  0  0  0
  139.8500   77.2800  222.7140 N   0  0  0  0  0  0  0  0  0  0  0  0
  141.8250   76.3900  221.3710 H   0  0  0  0  0  0  0  0  0  0  0  0
  143.1088   74.0368  221.9019 H   0  0  0  0  0  0  0  0  0  0  0  0
  142.0057   73.5240  220.5555 H   0  0  0  0  0  0  0  0  0  0  0  0
  143.0823   73.7707  217.6230 H   0  0  0  0  0  0  0  0  0  0  0  0
  141.5475   74.6243  217.5855 H   0  0  0  0  0  0  0  0  0  0  0  0
  144.1633   75.2749  216.1821 H   0  0  0  0  0  0  0  0  0  0  0  0
  142.5367   75.5357  215.5816 H   0  0  0  0  0  0  0  0  0  0  0  0
  144.2067   77.4185  216.9004 H   0  0  0  0  0  0  0  0  0  0  0  0
  142.4612   77.6237  216.5469 H   0  0  0  0  0  0  0  0  0  0  0  0
  143.5689   77.5781  219.1011 H   0  0  0  0  0  0  0  0  0  0  0  0
  141.2049   78.1147  218.0884 H   0  0  0  0  0  0  0  0  0  0  0  0
  140.8889   76.5351  218.9575 H   0  0  0  0  0  0  0  0  0  0  0  0
  140.7320   77.8100  220.7680 H   0  0  0  0  0  0  0  0  0  0  0  0
  142.6548   79.6495  219.4660 H   0  0  0  0  0  0  0  0  0  0  0  0
  140.8610   79.9803  219.6370 H   0  0  0  0  0  0  0  0  0  0  0  0
  140.9964   81.9907  220.9635 H   0  0  0  0  0  0  0  0  0  0  0  0
  141.4074   82.9780  223.2087 H   0  0  0  0  0  0  0  0  0  0  0  0
  142.6373   81.6526  224.9461 H   0  0  0  0  0  0  0  0  0  0  0  0
  143.4260   79.3652  224.3946 H   0  0  0  0  0  0  0  0  0  0  0  0
  143.0044   78.4294  222.1758 H   0  0  0  0  0  0  0  0  0  0  0  0
  137.5727   75.0395  221.8003 H   0  0  0  0  0  0  0  0  0  0  0  0
  136.0394   76.9019  222.4486 H   0  0  0  0  0  0  0  0  0  0  0  0
  135.8049   79.2163  223.3117 H   0  0  0  0  0  0  0  0  0  0  0  0
  139.3243   81.4464  224.2656 H   0  0  0  0  0  0  0  0  0  0  0  0
  140.7991   79.5479  223.5962 H   0  0  0  0  0  0  0  0  0  0  0  0
  1  2  2  0
  2  3  1  0
  3  4  1  0
  4  5  1  0
  5  6  2  0
  5  7  1  0
  7  8  1  0
  8  9  1  0
  9 10  1  0
 10 11  1  0
 11 12  1  0
 12 13  1  0
 13 14  1  0
 14 15  1  0
 15 16  2  0
 16 17  1  0
 17 18  2  0
 18 19  1  0
 19 20  2  0
  2 21  1  0
 21 22  2  0
 22 23  1  0
 23 24  2  0
 24 25  1  0
 25 26  2  0
 26 27  1  0
 26 28  1  0
 28 29  2  0
 29 30  1  0
 30 31  2  0
 11  7  1  0
 20 15  1  0
 31 21  1  0
 30 24  1  0
  3 32  1  0
  4 33  1  0
  4 34  1  0
  8 35  1  0
  8 36  1  0
  9 37  1  0
  9 38  1  0
 10 39  1  0
 10 40  1  0
 11 41  1  1
 12 42  1  0
 12 43  1  0
 13 44  1  0
 14 45  1  0
 14 46  1  0
 16 47  1  0
 17 48  1  0
 18 49  1  0
 19 50  1  0
 20 51  1  0
 22 52  1  0
 23 53  1  0
 25 54  1  0
 28 55  1  0
 29 56  1  0
M  END
>  <smiles>  (17) 
O=C(NCC(=O)N1CCC[C@H]1CNCc1ccccc1)c1ccc2cc(Cl)ccc2n1

>  <score_type>  (17) 
oracle

>  <origin>  (17) 
autodockgpu

>  <m_score__min__energy>  (17) 
-9.3399999999999999

>  <m_primary>  (17) 
energy

>  <rmsd>  (17) 
6.106244930208708

>  <m_score__min__rmsd>  (17) 
6.106244930208708

>  <meeko>  (17) 
{"free_energy": -6.76, "intermolecular_energy": -9.15, "internal_energy": -4.04, "cluster_size": 3, "cluster_id": 11, "rank_in_cluster": 2}

>  <energy>  (17) 
-6.67

>  <cluster_rmsd>  (17) 
1.99

>  <cluster>  (17) 
2

$$$$

     RDKit          3D

 56 59  0  0  0  0  0  0  0  0999 V2000
  140.3110   72.7510  220.6100 O   0  0  0  0  0  0  0  0  0  0  0  0
  139.8830   72.9710  221.7710 C   0  0  0  0  0  0  0  0  0  0  0  0
  139.3260   74.2500  222.0900 N   0  0  0  0  0  0  0  0  0  0  0  0
  139.2290   75.3180  221.1280 C   0  0  0  0  0  0  0  0  0  0  0  0
  139.2600   76.6530  221.7770 C   0  0  0  0  0  0  0  0  0  0  0  0
  138.2540   77.1540  222.3680 O   0  0  0  0  0  0  0  0  0  0  0  0
  140.4360   77.4490  221.7650 N   0  0  0  0  0  0  0  0  0  0  0  0
  141.1770   77.8120  222.9620 C   0  0  0  0  0  0  0  0  0  0  0  0
  141.6100   79.2360  222.7020 C   0  0  0  0  0  0  0  0  0  0  0  0
  141.6770   79.3120  221.2120 C   0  0  0  0  0  0  0  0  0  0  0  0
  141.1210   78.0450  220.6350 C   0  0  1  0  0  0  0  0  0  0  0  0
  142.1650   77.1280  220.0820 C   0  0  0  0  0  0  0  0  0  0  0  0
  142.1470   75.8120  220.6540 N   0  0  0  0  0  0  0  0  0  0  0  0
  142.4200   74.7540  219.7340 C   0  0  0  0  0  0  0  0  0  0  0  0
  143.6990   74.0410  219.9890 C   0  0  0  0  0  0  0  0  0  0  0  0
  144.8260   74.6520  220.4860 C   0  0  0  0  0  0  0  0  0  0  0  0
  146.0100   73.9420  220.7120 C   0  0  0  0  0  0  0  0  0  0  0  0
  146.0590   72.5740  220.4280 C   0  0  0  0  0  0  0  0  0  0  0  0
  144.9410   71.9530  219.9330 C   0  0  0  0  0  0  0  0  0  0  0  0
  143.7990   72.6810  219.7240 C   0  0  0  0  0  0  0  0  0  0  0  0
  139.9320   71.9530  222.8340 C   0  0  0  0  0  0  0  0  0  0  0  0
  139.4900   70.6670  222.6310 C   0  0  0  0  0  0  0  0  0  0  0  0
  139.5330   69.6950  223.6350 C   0  0  0  0  0  0  0  0  0  0  0  0
  140.0490   70.0650  224.8810 C   0  0  0  0  0  0  0  0  0  0  0  0
  140.1260   69.1600  225.9290 C   0  0  0  0  0  0  0  0  0  0  0  0
  140.6410   69.5690  227.1390 C   0  0  0  0  0  0  0  0  0  0  0  0
  140.7670   68.4630  228.5090 Cl  0  0  0  0  0  0  0  0  0  0  0  0
  141.0710   70.8640  227.2930 C   0  0  0  0  0  0  0  0  0  0  0  0
  141.0130   71.8080  226.2740 C   0  0  0  0  0  0  0  0  0  0  0  0
  140.4950   71.3780  225.0720 C   0  0  0  0  0  0  0  0  0  0  0  0
  140.4200   72.2520  224.0560 N   0  0  0  0  0  0  0  0  0  0  0  0
  138.9750   74.3910  223.0860 H   0  0  0  0  0  0  0  0  0  0  0  0
  140.0740   75.2435  220.4277 H   0  0  0  0  0  0  0  0  0  0  0  0
  138.2679   75.2169  220.6026 H   0  0  0  0  0  0  0  0  0  0  0  0
  140.5343   77.7546  223.8529 H   0  0  0  0  0  0  0  0  0  0  0  0
  142.0251   77.1391  223.1569 H   0  0  0  0  0  0  0  0  0  0  0  0
  140.8737   79.9499  223.0996 H   0  0  0  0  0  0  0  0  0  0  0  0
  142.5637   79.4899  223.1878 H   0  0  0  0  0  0  0  0  0  0  0  0
  141.0849   80.1693  220.8591 H   0  0  0  0  0  0  0  0  0  0  0  0
  142.7217   79.4398  220.8922 H   0  0  0  0  0  0  0  0  0  0  0  0
  140.4712   78.2402  219.7692 H   0  0  0  0  0  0  0  0  0  0  0  0
  142.0056   77.0362  218.9975 H   0  0  0  0  0  0  0  0  0  0  0  0
  143.1412   77.5700  220.3303 H   0  0  0  0  0  0  0  0  0  0  0  0
  142.5480   75.7210  221.5850 H   0  0  0  0  0  0  0  0  0  0  0  0
  141.5997   74.0237  219.7946 H   0  0  0  0  0  0  0  0  0  0  0  0
  142.5073   75.2145  218.7389 H   0  0  0  0  0  0  0  0  0  0  0  0
  144.7958   75.7281  220.7120 H   0  0  0  0  0  0  0  0  0  0  0  0
  146.8967   74.4567  221.1106 H   0  0  0  0  0  0  0  0  0  0  0  0
  146.9832   72.0026  220.5995 H   0  0  0  0  0  0  0  0  0  0  0  0
  144.9608   70.8771  219.7051 H   0  0  0  0  0  0  0  0  0  0  0  0
  142.9152   72.1613  219.3255 H   0  0  0  0  0  0  0  0  0  0  0  0
  139.0885   70.3933  221.6441 H   0  0  0  0  0  0  0  0  0  0  0  0
  139.1726   68.6722  223.4508 H   0  0  0  0  0  0  0  0  0  0  0  0
  139.7789   68.1248  225.7950 H   0  0  0  0  0  0  0  0  0  0  0  0
  141.4802   71.1685  228.2676 H   0  0  0  0  0  0  0  0  0  0  0  0
  141.3615   72.8412  226.4194 H   0  0  0  0  0  0  0  0  0  0  0  0
  1  2  2  0
  2  3  1  0
  3  4  1  0
  4  5  1  0
  5  6  2  0
  5  7  1  0
  7  8  1  0
  8  9  1  0
  9 10  1  0
 10 11  1  0
 11 12  1  0
 12 13  1  0
 13 14  1  0
 14 15  1  0
 15 16  2  0
 16 17  1  0
 17 18  2  0
 18 19  1  0
 19 20  2  0
  2 21  1  0
 21 22  2  0
 22 23  1  0
 23 24  2  0
 24 25  1  0
 25 26  2  0
 26 27  1  0
 26 28  1  0
 28 29  2  0
 29 30  1  0
 30 31  2  0
 11  7  1  0
 20 15  1  0
 31 21  1  0
 30 24  1  0
  3 32  1  0
  4 33  1  0
  4 34  1  0
  8 35  1  0
  8 36  1  0
  9 37  1  0
  9 38  1  0
 10 39  1  0
 10 40  1  0
 11 41  1  6
 12 42  1  0
 12 43  1  0
 13 44  1  0
 14 45  1  0
 14 46  1  0
 16 47  1  0
 17 48  1  0
 18 49  1  0
 19 50  1  0
 20 51  1  0
 22 52  1  0
 23 53  1  0
 25 54  1  0
 28 55  1  0
 29 56  1  0
M  END
>  <smiles>  (18) 
O=C(NCC(=O)N1CCC[C@H]1CNCc1ccccc1)c1ccc2cc(Cl)ccc2n1

>  <score_type>  (18) 
oracle

>  <origin>  (18) 
autodockgpu

>  <m_score__min__energy>  (18) 
-9.3399999999999999

>  <m_primary>  (18) 
energy

>  <rmsd>  (18) 
5.412093558743661

>  <m_score__min__rmsd>  (18) 
5.412093558743661

>  <meeko>  (18) 
{"free_energy": -9.34, "intermolecular_energy": -11.72, "internal_energy": -1.99, "cluster_size": 10, "cluster_id": 1, "rank_in_cluster": 1}

>  <energy>  (18) 
-8.77

>  <cluster_rmsd>  (18) 
0.0

>  <cluster>  (18) 
3

$$$$

     RDKit          3D

 56 59  0  0  0  0  0  0  0  0999 V2000
  141.0280   72.4590  221.1530 O   0  0  0  0  0  0  0  0  0  0  0  0
  140.2620   72.6020  222.1380 C   0  0  0  0  0  0  0  0  0  0  0  0
  139.4330   73.7640  222.2300 N   0  0  0  0  0  0  0  0  0  0  0  0
  139.4330   74.7990  221.2280 C   0  0  0  0  0  0  0  0  0  0  0  0
  140.5890   75.7190  221.3800 C   0  0  0  0  0  0  0  0  0  0  0  0
  140.7660   76.4350  222.4130 O   0  0  0  0  0  0  0  0  0  0  0  0
  141.5670   75.8450  220.3580 N   0  0  0  0  0  0  0  0  0  0  0  0
  141.9360   74.7650  219.4570 C   0  0  0  0  0  0  0  0  0  0  0  0
  143.4310   74.9220  219.2960 C   0  0  0  0  0  0  0  0  0  0  0  0
  143.6540   76.3800  219.5360 C   0  0  0  0  0  0  0  0  0  0  0  0
  142.3710   76.9970  220.0030 C   0  0  1  0  0  0  0  0  0  0  0  0
  141.6950   77.8380  218.9670 C   0  0  0  0  0  0  0  0  0  0  0  0
  141.1230   79.0500  219.4810 N   0  0  0  0  0  0  0  0  0  0  0  0
  140.5390   78.9330  220.7790 C   0  0  0  0  0  0  0  0  0  0  0  0
  141.2130   79.7460  221.8250 C   0  0  0  0  0  0  0  0  0  0  0  0
  141.1800   81.1200  221.8610 C   0  0  0  0  0  0  0  0  0  0  0  0
  141.8280   81.8460  222.8650 C   0  0  0  0  0  0  0  0  0  0  0  0
  142.5310   81.1670  223.8640 C   0  0  0  0  0  0  0  0  0  0  0  0
  142.5700   79.7960  223.8400 C   0  0  0  0  0  0  0  0  0  0  0  0
  141.9230   79.1170  222.8410 C   0  0  0  0  0  0  0  0  0  0  0  0
  140.1810   71.6070  223.2230 C   0  0  0  0  0  0  0  0  0  0  0  0
  139.6210   70.3670  223.0310 C   0  0  0  0  0  0  0  0  0  0  0  0
  139.5390   69.4180  224.0550 C   0  0  0  0  0  0  0  0  0  0  0  0
  140.0530   69.7630  225.3080 C   0  0  0  0  0  0  0  0  0  0  0  0
  140.0110   68.8780  226.3750 C   0  0  0  0  0  0  0  0  0  0  0  0
  140.5290   69.2620  227.5920 C   0  0  0  0  0  0  0  0  0  0  0  0
  140.5070   68.1790  228.9860 Cl  0  0  0  0  0  0  0  0  0  0  0  0
  141.0800   70.5110  227.7340 C   0  0  0  0  0  0  0  0  0  0  0  0
  141.1440   71.4340  226.6960 C   0  0  0  0  0  0  0  0  0  0  0  0
  140.6200   71.0300  225.4870 C   0  0  0  0  0  0  0  0  0  0  0  0
  140.6600   71.8840  224.4520 N   0  0  0  0  0  0  0  0  0  0  0  0
  138.7990   73.8420  223.0820 H   0  0  0  0  0  0  0  0  0  0  0  0
  139.4797   74.3309  220.2336 H   0  0  0  0  0  0  0  0  0  0  0  0
  138.5115   75.3879  221.3471 H   0  0  0  0  0  0  0  0  0  0  0  0
  141.6901   73.7871  219.8966 H   0  0  0  0  0  0  0  0  0  0  0  0
  141.3987   74.8096  218.4982 H   0  0  0  0  0  0  0  0  0  0  0  0
  143.9725   74.3140  220.0357 H   0  0  0  0  0  0  0  0  0  0  0  0
  143.7944   74.5881  218.3129 H   0  0  0  0  0  0  0  0  0  0  0  0
  144.4292   76.5133  220.3050 H   0  0  0  0  0  0  0  0  0  0  0  0
  143.9834   76.8647  218.6051 H   0  0  0  0  0  0  0  0  0  0  0  0
  142.5353   77.7009  220.8321 H   0  0  0  0  0  0  0  0  0  0  0  0
  142.4368   78.1039  218.1995 H   0  0  0  0  0  0  0  0  0  0  0  0
  140.8643   77.2400  218.5641 H   0  0  0  0  0  0  0  0  0  0  0  0
  141.6380   79.9060  219.2880 H   0  0  0  0  0  0  0  0  0  0  0  0
  139.4890   79.2545  220.7153 H   0  0  0  0  0  0  0  0  0  0  0  0
  140.6444   77.8802  221.0797 H   0  0  0  0  0  0  0  0  0  0  0  0
  140.6289   81.6628  221.0789 H   0  0  0  0  0  0  0  0  0  0  0  0
  141.7847   82.9451  222.8686 H   0  0  0  0  0  0  0  0  0  0  0  0
  143.0466   81.7250  224.6595 H   0  0  0  0  0  0  0  0  0  0  0  0
  143.1177   79.2447  224.6185 H   0  0  0  0  0  0  0  0  0  0  0  0
  141.9678   78.0179  222.8432 H   0  0  0  0  0  0  0  0  0  0  0  0
  139.2235   70.1119  222.0376 H   0  0  0  0  0  0  0  0  0  0  0  0
  139.0845   68.4317  223.8798 H   0  0  0  0  0  0  0  0  0  0  0  0
  139.5682   67.8788  226.2505 H   0  0  0  0  0  0  0  0  0  0  0  0
  141.4900   70.7950  228.7144 H   0  0  0  0  0  0  0  0  0  0  0  0
  141.5881   72.4311  226.8322 H   0  0  0  0  0  0  0  0  0  0  0  0
  1  2  2  0
  2  3  1  0
  3  4  1  0
  4  5  1  0
  5  6  2  0
  5  7  1  0
  7  8  1  0
  8  9  1  0
  9 10  1  0
 10 11  1  0
 11 12  1  0
 12 13  1  0
 13 14  1  0
 14 15  1  0
 15 16  2  0
 16 17  1  0
 17 18  2  0
 18 19  1  0
 19 20  2  0
  2 21  1  0
 21 22  2  0
 22 23  1  0
 23 24  2  0
 24 25  1  0
 25 26  2  0
 26 27  1  0
 26 28  1  0
 28 29  2  0
 29 30  1  0
 30 31  2  0
 11  7  1  0
 20 15  1  0
 31 21  1  0
 30 24  1  0
  3 32  1  0
  4 33  1  0
  4 34  1  0
  8 35  1  0
  8 36  1  0
  9 37  1  0
  9 38  1  0
 10 39  1  0
 10 40  1  0
 11 41  1  1
 12 42  1  0
 12 43  1  0
 13 44  1  0
 14 45  1  0
 14 46  1  0
 16 47  1  0
 17 48  1  0
 18 49  1  0
 19 50  1  0
 20 51  1  0
 22 52  1  0
 23 53  1  0
 25 54  1  0
 28 55  1  0
 29 56  1  0
M  END
>  <smiles>  (19) 
O=C(NCC(=O)N1CCC[C@H]1CNCc1ccccc1)c1ccc2cc(Cl)ccc2n1

>  <score_type>  (19) 
oracle

>  <origin>  (19) 
autodockgpu

>  <m_score__min__energy>  (19) 
-9.3399999999999999

>  <m_primary>  (19) 
energy

>  <rmsd>  (19) 
2.664975984228086

>  <m_score__min__rmsd>  (19) 
2.664975984228086

>  <meeko>  (19) 
{"free_energy": -8.77, "intermolecular_energy": -11.16, "internal_energy": -1.78, "cluster_size": 6, "cluster_id": 3, "rank_in_cluster": 1}

>  <energy>  (19) 
-8.71

>  <cluster_rmsd>  (19) 
1.97

>  <cluster>  (19) 
3

$$$$

     RDKit          3D

 56 59  0  0  0  0  0  0  0  0999 V2000
  135.7010   73.8510  222.5060 O   0  0  0  0  0  0  0  0  0  0  0  0
  136.9270   74.0610  222.3290 C   0  0  0  0  0  0  0  0  0  0  0  0
  137.7890   72.9740  221.9780 N   0  0  0  0  0  0  0  0  0  0  0  0
  137.3110   71.6240  221.8160 C   0  0  0  0  0  0  0  0  0  0  0  0
  137.3520   70.8650  223.0910 C   0  0  0  0  0  0  0  0  0  0  0  0
  136.3070   70.4280  223.6650 O   0  0  0  0  0  0  0  0  0  0  0  0
  138.5830   70.5870  223.7420 N   0  0  0  0  0  0  0  0  0  0  0  0
  139.0250   69.2470  224.0960 C   0  0  0  0  0  0  0  0  0  0  0  0
  139.6920   69.4290  225.4400 C   0  0  0  0  0  0  0  0  0  0  0  0
  140.1560   70.8480  225.4070 C   0  0  0  0  0  0  0  0  0  0  0  0
  139.6120   71.5100  224.1780 C   0  0  1  0  0  0  0  0  0  0  0  0
  140.6360   71.7320  223.1110 C   0  0  0  0  0  0  0  0  0  0  0  0
  140.5650   73.0270  222.4950 N   0  0  0  0  0  0  0  0  0  0  0  0
  140.7940   73.0330  221.0850 C   0  0  0  0  0  0  0  0  0  0  0  0
  141.8760   73.9530  220.6490 C   0  0  0  0  0  0  0  0  0  0  0  0
  141.6480   75.1920  220.0980 C   0  0  0  0  0  0  0  0  0  0  0  0
  142.6970   76.0270  219.7010 C   0  0  0  0  0  0  0  0  0  0  0  0
  144.0170   75.6010  219.8650 C   0  0  0  0  0  0  0  0  0  0  0  0
  144.2590   74.3670  220.4140 C   0  0  0  0  0  0  0  0  0  0  0  0
  143.2060   73.5760  220.7910 C   0  0  0  0  0  0  0  0  0  0  0  0
  137.5240   75.4000  222.4690 C   0  0  0  0  0  0  0  0  0  0  0  0
  136.7530   76.5340  222.5580 C   0  0  0  0  0  0  0  0  0  0  0  0
  137.3120   77.8090  222.6910 C   0  0  0  0  0  0  0  0  0  0  0  0
  138.7060   77.9100  222.7340 C   0  0  0  0  0  0  0  0  0  0  0  0
  139.3380   79.1380  222.8650 C   0  0  0  0  0  0  0  0  0  0  0  0
  140.7140   79.1880  222.9030 C   0  0  0  0  0  0  0  0  0  0  0  0
  141.5760   80.7200  223.0700 Cl  0  0  0  0  0  0  0  0  0  0  0  0
  141.4410   78.0270  222.8120 C   0  0  0  0  0  0  0  0  0  0  0  0
  140.8540   76.7740  222.6790 C   0  0  0  0  0  0  0  0  0  0  0  0
  139.4770   76.7450  222.6430 C   0  0  0  0  0  0  0  0  0  0  0  0
  138.8630   75.5590  222.5170 N   0  0  0  0  0  0  0  0  0  0  0  0
  138.8200   73.1990  221.8370 H   0  0  0  0  0  0  0  0  0  0  0  0
  136.2727   71.6555  221.4542 H   0  0  0  0  0  0  0  0  0  0  0  0
  137.9672   71.1145  221.0950 H   0  0  0  0  0  0  0  0  0  0  0  0
  138.1694   68.5600  224.1733 H   0  0  0  0  0  0  0  0  0  0  0  0
  139.6976   68.8090  223.3438 H   0  0  0  0  0  0  0  0  0  0  0  0
  138.9763   69.2679  226.2596 H   0  0  0  0  0  0  0  0  0  0  0  0
  140.5095   68.7139  225.6140 H   0  0  0  0  0  0  0  0  0  0  0  0
  139.7933   71.3756  226.3015 H   0  0  0  0  0  0  0  0  0  0  0  0
  141.2554   70.8795  225.3906 H   0  0  0  0  0  0  0  0  0  0  0  0
  139.2434   72.5246  224.3896 H   0  0  0  0  0  0  0  0  0  0  0  0
  141.6338   71.6163  223.5594 H   0  0  0  0  0  0  0  0  0  0  0  0
  140.4388   70.9922  222.3212 H   0  0  0  0  0  0  0  0  0  0  0  0
  139.8390   73.6510  222.8430 H   0  0  0  0  0  0  0  0  0  0  0  0
  141.0626   72.0125  220.7745 H   0  0  0  0  0  0  0  0  0  0  0  0
  139.8659   73.3903  220.6149 H   0  0  0  0  0  0  0  0  0  0  0  0
  140.6115   75.5359  219.9659 H   0  0  0  0  0  0  0  0  0  0  0  0
  142.4840   77.0130  219.2624 H   0  0  0  0  0  0  0  0  0  0  0  0
  144.8526   76.2470  219.5577 H   0  0  0  0  0  0  0  0  0  0  0  0
  145.2922   74.0150  220.5506 H   0  0  0  0  0  0  0  0  0  0  0  0
  143.4246   72.5909  221.2290 H   0  0  0  0  0  0  0  0  0  0  0  0
  135.6580   76.4354  222.5234 H   0  0  0  0  0  0  0  0  0  0  0  0
  136.6756   78.7036  222.7596 H   0  0  0  0  0  0  0  0  0  0  0  0
  138.7463   80.0624  222.9378 H   0  0  0  0  0  0  0  0  0  0  0  0
  142.5386   78.0912  222.8459 H   0  0  0  0  0  0  0  0  0  0  0  0
  141.4558   75.8561  222.6065 H   0  0  0  0  0  0  0  0  0  0  0  0
  1  2  2  0
  2  3  1  0
  3  4  1  0
  4  5  1  0
  5  6  2  0
  5  7  1  0
  7  8  1  0
  8  9  1  0
  9 10  1  0
 10 11  1  0
 11 12  1  0
 12 13  1  0
 13 14  1  0
 14 15  1  0
 15 16  2  0
 16 17  1  0
 17 18  2  0
 18 19  1  0
 19 20  2  0
  2 21  1  0
 21 22  2  0
 22 23  1  0
 23 24  2  0
 24 25  1  0
 25 26  2  0
 26 27  1  0
 26 28  1  0
 28 29  2  0
 29 30  1  0
 30 31  2  0
 11  7  1  0
 20 15  1  0
 31 21  1  0
 30 24  1  0
  3 32  1  0
  4 33  1  0
  4 34  1  0
  8 35  1  0
  8 36  1  0
  9 37  1  0
  9 38  1  0
 10 39  1  0
 10 40  1  0
 11 41  1  1
 12 42  1  0
 12 43  1  0
 13 44  1  0
 14 45  1  0
 14 46  1  0
 16 47  1  0
 17 48  1  0
 18 49  1  0
 19 50  1  0
 20 51  1  0
 22 52  1  0
 23 53  1  0
 25 54  1  0
 28 55  1  0
 29 56  1  0
M  END
>  <smiles>  (20) 
O=C(NCC(=O)N1CCC[C@H]1CNCc1ccccc1)c1ccc2cc(Cl)ccc2n1

>  <score_type>  (20) 
oracle

>  <origin>  (20) 
autodockgpu

>  <m_score__min__energy>  (20) 
-9.3399999999999999

>  <m_primary>  (20) 
energy

>  <rmsd>  (20) 
7.797721997272676

>  <m_score__min__rmsd>  (20) 
7.797721997272676

>  <meeko>  (20) 
{"free_energy": -6.64, "intermolecular_energy": -9.02, "internal_energy": -3.91, "cluster_size": 4, "cluster_id": 7, "rank_in_cluster": 4}

>  <energy>  (20) 
-8.14

>  <cluster_rmsd>  (20) 
1.18

>  <cluster>  (20) 
3

$$$$

     RDKit          3D

 56 59  0  0  0  0  0  0  0  0999 V2000
  139.5700   74.7950  222.1490 O   0  0  0  0  0  0  0  0  0  0  0  0
  140.7220   74.9470  221.6690 C   0  0  0  0  0  0  0  0  0  0  0  0
  141.2990   76.2550  221.6130 N   0  0  0  0  0  0  0  0  0  0  0  0
  140.6130   77.4290  222.0880 C   0  0  0  0  0  0  0  0  0  0  0  0
  141.4340   78.1980  223.0570 C   0  0  0  0  0  0  0  0  0  0  0  0
  141.9390   77.6740  224.0980 O   0  0  0  0  0  0  0  0  0  0  0  0
  141.6960   79.5800  222.8650 N   0  0  0  0  0  0  0  0  0  0  0  0
  142.7950   80.2890  223.5010 C   0  0  0  0  0  0  0  0  0  0  0  0
  142.2070   81.6390  223.8420 C   0  0  0  0  0  0  0  0  0  0  0  0
  141.1300   81.8150  222.8230 C   0  0  0  0  0  0  0  0  0  0  0  0
  140.9770   80.5390  222.0510 C   0  0  1  0  0  0  0  0  0  0  0  0
  141.5340   80.6050  220.6640 C   0  0  0  0  0  0  0  0  0  0  0  0
  141.9530   79.3350  220.1430 N   0  0  0  0  0  0  0  0  0  0  0  0
  142.1390   79.3010  218.7270 C   0  0  0  0  0  0  0  0  0  0  0  0
  142.6680   78.0090  218.2150 C   0  0  0  0  0  0  0  0  0  0  0  0
  142.8320   77.7300  216.8790 C   0  0  0  0  0  0  0  0  0  0  0  0
  143.3340   76.5010  216.4390 C   0  0  0  0  0  0  0  0  0  0  0  0
  143.6810   75.5230  217.3760 C   0  0  0  0  0  0  0  0  0  0  0  0
  143.5230   75.7900  218.7120 C   0  0  0  0  0  0  0  0  0  0  0  0
  143.0280   77.0050  219.1050 C   0  0  0  0  0  0  0  0  0  0  0  0
  141.5150   73.8180  221.1530 C   0  0  0  0  0  0  0  0  0  0  0  0
  140.9540   72.5870  220.9080 C   0  0  0  0  0  0  0  0  0  0  0  0
  141.7000   71.5100  220.4190 C   0  0  0  0  0  0  0  0  0  0  0  0
  143.0610   71.7150  220.1780 C   0  0  0  0  0  0  0  0  0  0  0  0
  143.8700   70.6980  219.6920 C   0  0  0  0  0  0  0  0  0  0  0  0
  145.2060   70.9460  219.4690 C   0  0  0  0  0  0  0  0  0  0  0  0
  146.2850   69.6920  218.8510 Cl  0  0  0  0  0  0  0  0  0  0  0  0
  145.7200   72.1920  219.7280 C   0  0  0  0  0  0  0  0  0  0  0  0
  144.9520   73.2420  220.2160 C   0  0  0  0  0  0  0  0  0  0  0  0
  143.6170   72.9740  220.4320 C   0  0  0  0  0  0  0  0  0  0  0  0
  142.8330   73.9560  220.9020 N   0  0  0  0  0  0  0  0  0  0  0  0
  142.2780   76.3360  221.2000 H   0  0  0  0  0  0  0  0  0  0  0  0
  140.3786   78.0753  221.2293 H   0  0  0  0  0  0  0  0  0  0  0  0
  139.6967   77.1030  222.6019 H   0  0  0  0  0  0  0  0  0  0  0  0
  143.1251   79.7649  224.4100 H   0  0  0  0  0  0  0  0  0  0  0  0
  143.6824   80.3634  222.8552 H   0  0  0  0  0  0  0  0  0  0  0  0
  141.7899   81.6409  224.8598 H   0  0  0  0  0  0  0  0  0  0  0  0
  142.9515   82.4485  223.8240 H   0  0  0  0  0  0  0  0  0  0  0  0
  140.1823   82.0580  223.3259 H   0  0  0  0  0  0  0  0  0  0  0  0
  141.3953   82.6344  222.1388 H   0  0  0  0  0  0  0  0  0  0  0  0
  139.9193   80.2847  221.8879 H   0  0  0  0  0  0  0  0  0  0  0  0
  140.7588   81.0132  219.9988 H   0  0  0  0  0  0  0  0  0  0  0  0
  142.4299   81.2416  220.7104 H   0  0  0  0  0  0  0  0  0  0  0  0
  142.6270   78.8200  220.7050 H   0  0  0  0  0  0  0  0  0  0  0  0
  141.1681   79.4915  218.2464 H   0  0  0  0  0  0  0  0  0  0  0  0
  142.8897   80.0685  218.4872 H   0  0  0  0  0  0  0  0  0  0  0  0
  142.5610   78.4942  216.1357 H   0  0  0  0  0  0  0  0  0  0  0  0
  143.4550   76.3052  215.3633 H   0  0  0  0  0  0  0  0  0  0  0  0
  144.0760   74.5510  217.0456 H   0  0  0  0  0  0  0  0  0  0  0  0
  143.7922   75.0329  219.4632 H   0  0  0  0  0  0  0  0  0  0  0  0
  142.9093   77.1958  220.1818 H   0  0  0  0  0  0  0  0  0  0  0  0
  139.8809   72.4443  221.1034 H   0  0  0  0  0  0  0  0  0  0  0  0
  141.2306   70.5332  220.2302 H   0  0  0  0  0  0  0  0  0  0  0  0
  143.4482   69.7030  219.4868 H   0  0  0  0  0  0  0  0  0  0  0  0
  146.7896   72.3675  219.5405 H   0  0  0  0  0  0  0  0  0  0  0  0
  145.3853   74.2325  220.4188 H   0  0  0  0  0  0  0  0  0  0  0  0
  1  2  2  0
  2  3  1  0
  3  4  1  0
  4  5  1  0
  5  6  2  0
  5  7  1  0
  7  8  1  0
  8  9  1  0
  9 10  1  0
 10 11  1  0
 11 12  1  0
 12 13  1  0
 13 14  1  0
 14 15  1  0
 15 16  2  0
 16 17  1  0
 17 18  2  0
 18 19  1  0
 19 20  2  0
  2 21  1  0
 21 22  2  0
 22 23  1  0
 23 24  2  0
 24 25  1  0
 25 26  2  0
 26 27  1  0
 26 28  1  0
 28 29  2  0
 29 30  1  0
 30 31  2  0
 11  7  1  0
 20 15  1  0
 31 21  1  0
 30 24  1  0
  3 32  1  0
  4 33  1  0
  4 34  1  0
  8 35  1  0
  8 36  1  0
  9 37  1  0
  9 38  1  0
 10 39  1  0
 10 40  1  0
 11 41  1  6
 12 42  1  0
 12 43  1  0
 13 44  1  0
 14 45  1  0
 14 46  1  0
 16 47  1  0
 17 48  1  0
 18 49  1  0
 19 50  1  0
 20 51  1  0
 22 52  1  0
 23 53  1  0
 25 54  1  0
 28 55  1  0
 29 56  1  0
M  END
>  <smiles>  (21) 
O=C(NCC(=O)N1CCC[C@H]1CNCc1ccccc1)c1ccc2cc(Cl)ccc2n1

>  <score_type>  (21) 
oracle

>  <origin>  (21) 
autodockgpu

>  <m_score__min__energy>  (21) 
-9.3399999999999999

>  <m_primary>  (21) 
energy

>  <rmsd>  (21) 
6.651303798851076

>  <m_score__min__rmsd>  (21) 
6.651303798851076

>  <meeko>  (21) 
{"free_energy": -7.62, "intermolecular_energy": -10.0, "internal_energy": -2.55, "cluster_size": 3, "cluster_id": 8, "rank_in_cluster": 1}

>  <energy>  (21) 
-7.91

>  <cluster_rmsd>  (21) 
1.52

>  <cluster>  (21) 
3

$$$$

     RDKit          3D

 56 59  0  0  0  0  0  0  0  0999 V2000
  137.5040   76.9790  222.6720 O   0  0  0  0  0  0  0  0  0  0  0  0
  137.9050   75.8050  222.4720 C   0  0  0  0  0  0  0  0  0  0  0  0
  137.0240   74.7040  222.7120 N   0  0  0  0  0  0  0  0  0  0  0  0
  135.6740   74.8770  223.1820 C   0  0  0  0  0  0  0  0  0  0  0  0
  135.3620   73.9730  224.3180 C   0  0  0  0  0  0  0  0  0  0  0  0
  135.1210   74.3990  225.4900 O   0  0  0  0  0  0  0  0  0  0  0  0
  135.3180   72.5640  224.1460 N   0  0  0  0  0  0  0  0  0  0  0  0
  134.1000   71.8230  223.8600 C   0  0  0  0  0  0  0  0  0  0  0  0
  134.2530   70.5520  224.6630 C   0  0  0  0  0  0  0  0  0  0  0  0
  135.7330   70.3820  224.7670 C   0  0  0  0  0  0  0  0  0  0  0  0
  136.4020   71.6040  224.2140 C   0  0  1  0  0  0  0  0  0  0  0  0
  137.0290   71.3920  222.8730 C   0  0  0  0  0  0  0  0  0  0  0  0
  138.4050   71.7930  222.8020 N   0  0  0  0  0  0  0  0  0  0  0  0
  139.3440   70.7760  223.1550 C   0  0  0  0  0  0  0  0  0  0  0  0
  139.8100   70.8420  224.5650 C   0  0  0  0  0  0  0  0  0  0  0  0
  140.6880   71.7900  225.0350 C   0  0  0  0  0  0  0  0  0  0  0  0
  141.0990   71.8160  226.3710 C   0  0  0  0  0  0  0  0  0  0  0  0
  140.6110   70.8560  227.2620 C   0  0  0  0  0  0  0  0  0  0  0  0
  139.7330   69.9060  226.8060 C   0  0  0  0  0  0  0  0  0  0  0  0
  139.3520   69.9110  225.4900 C   0  0  0  0  0  0  0  0  0  0  0  0
  139.2670   75.5100  221.9920 C   0  0  0  0  0  0  0  0  0  0  0  0
  140.1110   76.4990  221.5480 C   0  0  0  0  0  0  0  0  0  0  0  0
  141.4050   76.2270  221.0910 C   0  0  0  0  0  0  0  0  0  0  0  0
  141.8330   74.8970  221.0960 C   0  0  0  0  0  0  0  0  0  0  0  0
  143.1020   74.5440  220.6600 C   0  0  0  0  0  0  0  0  0  0  0  0
  143.4810   73.2200  220.6830 C   0  0  0  0  0  0  0  0  0  0  0  0
  145.0820   72.7100  220.1420 Cl  0  0  0  0  0  0  0  0  0  0  0  0
  142.6020   72.2680  221.1370 C   0  0  0  0  0  0  0  0  0  0  0  0
  141.3210   72.5710  221.5840 C   0  0  0  0  0  0  0  0  0  0  0  0
  140.9620   73.9010  221.5530 C   0  0  0  0  0  0  0  0  0  0  0  0
  139.7350   74.2450  221.9750 N   0  0  0  0  0  0  0  0  0  0  0  0
  137.4070   73.7270  222.5280 H   0  0  0  0  0  0  0  0  0  0  0  0
  135.5426   75.9186  223.5102 H   0  0  0  0  0  0  0  0  0  0  0  0
  134.9915   74.6323  222.3548 H   0  0  0  0  0  0  0  0  0  0  0  0
  133.2131   72.3870  224.1845 H   0  0  0  0  0  0  0  0  0  0  0  0
  133.9608   71.6327  222.7856 H   0  0  0  0  0  0  0  0  0  0  0  0
  133.7985   70.6589  225.6590 H   0  0  0  0  0  0  0  0  0  0  0  0
  133.7540   69.6888  224.1984 H   0  0  0  0  0  0  0  0  0  0  0  0
  136.0165   70.2512  225.8218 H   0  0  0  0  0  0  0  0  0  0  0  0
  136.0472   69.4950  224.1974 H   0  0  0  0  0  0  0  0  0  0  0  0
  137.2469   71.9254  224.8407 H   0  0  0  0  0  0  0  0  0  0  0  0
  136.9676   70.3214  222.6278 H   0  0  0  0  0  0  0  0  0  0  0  0
  136.4767   72.0221  222.1603 H   0  0  0  0  0  0  0  0  0  0  0  0
  138.6580   72.3960  222.0220 H   0  0  0  0  0  0  0  0  0  0  0  0
  138.8694   69.7968  222.9937 H   0  0  0  0  0  0  0  0  0  0  0  0
  140.2299   70.9289  222.5211 H   0  0  0  0  0  0  0  0  0  0  0  0
  141.0778   72.5489  224.3407 H   0  0  0  0  0  0  0  0  0  0  0  0
  141.8021   72.5872  226.7188 H   0  0  0  0  0  0  0  0  0  0  0  0
  140.9271   70.8623  228.3156 H   0  0  0  0  0  0  0  0  0  0  0  0
  139.3368   69.1440  227.4934 H   0  0  0  0  0  0  0  0  0  0  0  0
  138.6475   69.1386  225.1478 H   0  0  0  0  0  0  0  0  0  0  0  0
  139.7571   77.5405  221.5520 H   0  0  0  0  0  0  0  0  0  0  0  0
  142.0642   77.0342  220.7391 H   0  0  0  0  0  0  0  0  0  0  0  0
  143.7992   75.3146  220.2992 H   0  0  0  0  0  0  0  0  0  0  0  0
  142.9264   71.2170  221.1475 H   0  0  0  0  0  0  0  0  0  0  0  0
  140.6320   71.7921  221.9426 H   0  0  0  0  0  0  0  0  0  0  0  0
  1  2  2  0
  2  3  1  0
  3  4  1  0
  4  5  1  0
  5  6  2  0
  5  7  1  0
  7  8  1  0
  8  9  1  0
  9 10  1  0
 10 11  1  0
 11 12  1  0
 12 13  1  0
 13 14  1  0
 14 15  1  0
 15 16  2  0
 16 17  1  0
 17 18  2  0
 18 19  1  0
 19 20  2  0
  2 21  1  0
 21 22  2  0
 22 23  1  0
 23 24  2  0
 24 25  1  0
 25 26  2  0
 26 27  1  0
 26 28  1  0
 28 29  2  0
 29 30  1  0
 30 31  2  0
 11  7  1  0
 20 15  1  0
 31 21  1  0
 30 24  1  0
  3 32  1  0
  4 33  1  0
  4 34  1  0
  8 35  1  0
  8 36  1  0
  9 37  1  0
  9 38  1  0
 10 39  1  0
 10 40  1  0
 11 41  1  1
 12 42  1  0
 12 43  1  0
 13 44  1  0
 14 45  1  0
 14 46  1  0
 16 47  1  0
 17 48  1  0
 18 49  1  0
 19 50  1  0
 20 51  1  0
 22 52  1  0
 23 53  1  0
 25 54  1  0
 28 55  1  0
 29 56  1  0
M  END
>  <smiles>  (22) 
O=C(NCC(=O)N1CCC[C@H]1CNCc1ccccc1)c1ccc2cc(Cl)ccc2n1

>  <score_type>  (22) 
oracle

>  <origin>  (22) 
autodockgpu

>  <m_score__min__energy>  (22) 
-9.3399999999999999

>  <m_primary>  (22) 
energy

>  <rmsd>  (22) 
8.8570578887486

>  <m_score__min__rmsd>  (22) 
8.8570578887486

>  <meeko>  (22) 
{"free_energy": -6.9, "intermolecular_energy": -9.28, "internal_energy": -3.92, "cluster_size": 4, "cluster_id": 9, "rank_in_cluster": 4}

>  <energy>  (22) 
-7.88

>  <cluster_rmsd>  (22) 
1.44

>  <cluster>  (22) 
3

$$$$

     RDKit          3D

 56 59  0  0  0  0  0  0  0  0999 V2000
  140.6910   73.3180  222.3460 O   0  0  0  0  0  0  0  0  0  0  0  0
  140.2560   73.9960  221.3820 C   0  0  0  0  0  0  0  0  0  0  0  0
  139.5280   73.3510  220.3330 N   0  0  0  0  0  0  0  0  0  0  0  0
  139.2640   71.9350  220.3270 C   0  0  0  0  0  0  0  0  0  0  0  0
  138.2950   71.5460  221.3820 C   0  0  0  0  0  0  0  0  0  0  0  0
  137.1870   72.1430  221.5510 O   0  0  0  0  0  0  0  0  0  0  0  0
  138.5650   70.4710  222.2690 N   0  0  0  0  0  0  0  0  0  0  0  0
  139.5800   69.4590  222.0240 C   0  0  0  0  0  0  0  0  0  0  0  0
  138.9460   68.1820  222.5260 C   0  0  0  0  0  0  0  0  0  0  0  0
  137.9890   68.6560  223.5700 C   0  0  0  0  0  0  0  0  0  0  0  0
  137.9350   70.1540  223.5350 C   0  0  1  0  0  0  0  0  0  0  0  0
  138.6430   70.8080  224.6780 C   0  0  0  0  0  0  0  0  0  0  0  0
  139.8380   71.5070  224.3000 N   0  0  0  0  0  0  0  0  0  0  0  0
  140.9640   71.2690  225.1470 C   0  0  0  0  0  0  0  0  0  0  0  0
  140.7330   70.2370  226.1910 C   0  0  0  0  0  0  0  0  0  0  0  0
  140.3140   70.5260  227.4680 C   0  0  0  0  0  0  0  0  0  0  0  0
  140.1080   69.5230  228.4200 C   0  0  0  0  0  0  0  0  0  0  0  0
  140.3310   68.1870  228.0750 C   0  0  0  0  0  0  0  0  0  0  0  0
  140.7480   67.8860  226.8040 C   0  0  0  0  0  0  0  0  0  0  0  0
  140.9400   68.8950  225.8970 C   0  0  0  0  0  0  0  0  0  0  0  0
  140.4670   75.4510  221.2840 C   0  0  0  0  0  0  0  0  0  0  0  0
  140.2710   76.1370  220.1100 C   0  0  0  0  0  0  0  0  0  0  0  0
  140.4700   77.5170  220.0080 C   0  0  0  0  0  0  0  0  0  0  0  0
  140.8810   78.2030  221.1550 C   0  0  0  0  0  0  0  0  0  0  0  0
  141.0990   79.5730  221.1380 C   0  0  0  0  0  0  0  0  0  0  0  0
  141.5040   80.2070  222.2910 C   0  0  0  0  0  0  0  0  0  0  0  0
  141.7960   81.9480  222.3320 Cl  0  0  0  0  0  0  0  0  0  0  0  0
  141.6850   79.4790  223.4410 C   0  0  0  0  0  0  0  0  0  0  0  0
  141.4810   78.1060  223.5080 C   0  0  0  0  0  0  0  0  0  0  0  0
  141.0760   77.4910  222.3430 C   0  0  0  0  0  0  0  0  0  0  0  0
  140.8630   76.1660  222.3570 N   0  0  0  0  0  0  0  0  0  0  0  0
  139.1780   73.9650  219.5360 H   0  0  0  0  0  0  0  0  0  0  0  0
  138.8528   71.6545  219.3461 H   0  0  0  0  0  0  0  0  0  0  0  0
  140.2110   71.4118  220.5256 H   0  0  0  0  0  0  0  0  0  0  0  0
  139.8099   69.3866  220.9507 H   0  0  0  0  0  0  0  0  0  0  0  0
  140.5341   69.6845  222.5229 H   0  0  0  0  0  0  0  0  0  0  0  0
  138.4167   67.6604  221.7150 H   0  0  0  0  0  0  0  0  0  0  0  0
  139.6814   67.4617  222.9137 H   0  0  0  0  0  0  0  0  0  0  0  0
  136.9887   68.2456  223.3676 H   0  0  0  0  0  0  0  0  0  0  0  0
  138.3225   68.3181  224.5623 H   0  0  0  0  0  0  0  0  0  0  0  0
  136.9048   70.5281  223.6286 H   0  0  0  0  0  0  0  0  0  0  0  0
  137.9545   71.5273  225.1456 H   0  0  0  0  0  0  0  0  0  0  0  0
  138.9473   70.0053  225.3657 H   0  0  0  0  0  0  0  0  0  0  0  0
  140.0240   71.5720  223.3010 H   0  0  0  0  0  0  0  0  0  0  0  0
  141.8054   70.9418  224.5186 H   0  0  0  0  0  0  0  0  0  0  0  0
  141.1680   72.2124  225.6745 H   0  0  0  0  0  0  0  0  0  0  0  0
  140.1360   71.5747  227.7484 H   0  0  0  0  0  0  0  0  0  0  0  0
  139.7724   69.7838  229.4346 H   0  0  0  0  0  0  0  0  0  0  0  0
  140.1739   67.3873  228.8137 H   0  0  0  0  0  0  0  0  0  0  0  0
  140.9274   66.8402  226.5140 H   0  0  0  0  0  0  0  0  0  0  0  0
  141.2754   68.6287  224.8838 H   0  0  0  0  0  0  0  0  0  0  0  0
  139.9459   75.5806  219.2185 H   0  0  0  0  0  0  0  0  0  0  0  0
  140.3086   78.0456  219.0569 H   0  0  0  0  0  0  0  0  0  0  0  0
  140.9496   80.1474  220.2118 H   0  0  0  0  0  0  0  0  0  0  0  0
  142.0062   80.0068  224.3511 H   0  0  0  0  0  0  0  0  0  0  0  0
  141.6343   77.5413  224.4394 H   0  0  0  0  0  0  0  0  0  0  0  0
  1  2  2  0
  2  3  1  0
  3  4  1  0
  4  5  1  0
  5  6  2  0
  5  7  1  0
  7  8  1  0
  8  9  1  0
  9 10  1  0
 10 11  1  0
 11 12  1  0
 12 13  1  0
 13 14  1  0
 14 15  1  0
 15 16  2  0
 16 17  1  0
 17 18  2  0
 18 19  1  0
 19 20  2  0
  2 21  1  0
 21 22  2  0
 22 23  1  0
 23 24  2  0
 24 25  1  0
 25 26  2  0
 26 27  1  0
 26 28  1  0
 28 29  2  0
 29 30  1  0
 30 31  2  0
 11  7  1  0
 20 15  1  0
 31 21  1  0
 30 24  1  0
  3 32  1  0
  4 33  1  0
  4 34  1  0
  8 35  1  0
  8 36  1  0
  9 37  1  0
  9 38  1  0
 10 39  1  0
 10 40  1  0
 11 41  1  6
 12 42  1  0
 12 43  1  0
 13 44  1  0
 14 45  1  0
 14 46  1  0
 16 47  1  0
 17 48  1  0
 18 49  1  0
 19 50  1  0
 20 51  1  0
 22 52  1  0
 23 53  1  0
 25 54  1  0
 28 55  1  0
 29 56  1  0
M  END
>  <smiles>  (23) 
O=C(NCC(=O)N1CCC[C@H]1CNCc1ccccc1)c1ccc2cc(Cl)ccc2n1

>  <score_type>  (23) 
oracle

>  <origin>  (23) 
autodockgpu

>  <m_score__min__energy>  (23) 
-9.3399999999999999

>  <m_primary>  (23) 
energy

>  <rmsd>  (23) 
9.599976223735068

>  <m_score__min__rmsd>  (23) 
9.599976223735068

>  <meeko>  (23) 
{"free_energy": -7.49, "intermolecular_energy": -9.87, "internal_energy": -2.56, "cluster_size": 7, "cluster_id": 2, "rank_in_cluster": 5}

>  <energy>  (23) 
-7.64

>  <cluster_rmsd>  (23) 
1.61

>  <cluster>  (23) 
3

$$$$

     RDKit          3D

 56 59  0  0  0  0  0  0  0  0999 V2000
  141.3180   72.2430  221.1530 O   0  0  0  0  0  0  0  0  0  0  0  0
  140.6250   73.1840  221.6160 C   0  0  0  0  0  0  0  0  0  0  0  0
  139.4720   72.8910  222.4110 N   0  0  0  0  0  0  0  0  0  0  0  0
  139.0570   71.5450  222.7120 C   0  0  0  0  0  0  0  0  0  0  0  0
  137.6150   71.4740  223.0590 C   0  0  0  0  0  0  0  0  0  0  0  0
  136.8730   72.5020  223.1290 O   0  0  0  0  0  0  0  0  0  0  0  0
  136.9860   70.2320  223.3370 N   0  0  0  0  0  0  0  0  0  0  0  0
  136.7150   69.2210  222.3270 C   0  0  0  0  0  0  0  0  0  0  0  0
  135.3650   68.6680  222.7230 C   0  0  0  0  0  0  0  0  0  0  0  0
  135.3150   68.8970  224.1980 C   0  0  0  0  0  0  0  0  0  0  0  0
  136.5000   69.7190  224.6030 C   0  0  1  0  0  0  0  0  0  0  0  0
  137.5570   68.9400  225.3200 C   0  0  0  0  0  0  0  0  0  0  0  0
  138.7710   68.7790  224.5710 N   0  0  0  0  0  0  0  0  0  0  0  0
  139.9410   68.5780  225.3650 C   0  0  0  0  0  0  0  0  0  0  0  0
  140.3430   69.7620  226.1670 C   0  0  0  0  0  0  0  0  0  0  0  0
  141.0870   70.8050  225.6680 C   0  0  0  0  0  0  0  0  0  0  0  0
  141.4430   71.9020  226.4580 C   0  0  0  0  0  0  0  0  0  0  0  0
  141.0350   71.9510  227.7940 C   0  0  0  0  0  0  0  0  0  0  0  0
  140.2910   70.9180  228.3050 C   0  0  0  0  0  0  0  0  0  0  0  0
  139.9620   69.8590  227.5000 C   0  0  0  0  0  0  0  0  0  0  0  0
  140.9560   74.5980  221.3700 C   0  0  0  0  0  0  0  0  0  0  0  0
  141.8430   74.9780  220.3910 C   0  0  0  0  0  0  0  0  0  0  0  0
  142.1620   76.3190  220.1520 C   0  0  0  0  0  0  0  0  0  0  0  0
  141.5450   77.2890  220.9480 C   0  0  0  0  0  0  0  0  0  0  0  0
  141.8080   78.6400  220.7730 C   0  0  0  0  0  0  0  0  0  0  0  0
  141.1760   79.5600  221.5810 C   0  0  0  0  0  0  0  0  0  0  0  0
  141.4680   81.2930  221.4060 Cl  0  0  0  0  0  0  0  0  0  0  0  0
  140.2980   79.1320  222.5440 C   0  0  0  0  0  0  0  0  0  0  0  0
  140.0020   77.7900  222.7580 C   0  0  0  0  0  0  0  0  0  0  0  0
  140.6440   76.8860  221.9400 C   0  0  0  0  0  0  0  0  0  0  0  0
  140.3920   75.5780  222.1060 N   0  0  0  0  0  0  0  0  0  0  0  0
  138.9160   73.7200  222.7820 H   0  0  0  0  0  0  0  0  0  0  0  0
  139.2427   70.9107  221.8327 H   0  0  0  0  0  0  0  0  0  0  0  0
  139.6341   71.1970  223.5814 H   0  0  0  0  0  0  0  0  0  0  0  0
  136.6754   69.6702  221.3237 H   0  0  0  0  0  0  0  0  0  0  0  0
  137.4948   68.4466  222.2805 H   0  0  0  0  0  0  0  0  0  0  0  0
  134.5536   69.2083  222.2133 H   0  0  0  0  0  0  0  0  0  0  0  0
  135.2373   67.6105  222.4485 H   0  0  0  0  0  0  0  0  0  0  0  0
  134.3892   69.4314  224.4573 H   0  0  0  0  0  0  0  0  0  0  0  0
  135.3338   67.9318  224.7254 H   0  0  0  0  0  0  0  0  0  0  0  0
  136.2265   70.4999  225.3279 H   0  0  0  0  0  0  0  0  0  0  0  0
  137.7957   69.4626  226.2581 H   0  0  0  0  0  0  0  0  0  0  0  0
  137.1506   67.9319  225.4892 H   0  0  0  0  0  0  0  0  0  0  0  0
  138.7010   68.2330  223.7140 H   0  0  0  0  0  0  0  0  0  0  0  0
  139.7506   67.7426  226.0548 H   0  0  0  0  0  0  0  0  0  0  0  0
  140.7660   68.3742  224.6666 H   0  0  0  0  0  0  0  0  0  0  0  0
  141.4113   70.7754  224.6173 H   0  0  0  0  0  0  0  0  0  0  0  0
  142.0402   72.7212  226.0311 H   0  0  0  0  0  0  0  0  0  0  0  0
  141.3073   72.8076  228.4281 H   0  0  0  0  0  0  0  0  0  0  0  0
  139.9607   70.9396  229.3540 H   0  0  0  0  0  0  0  0  0  0  0  0
  139.3647   69.0424  227.9317 H   0  0  0  0  0  0  0  0  0  0  0  0
  142.3183   74.2010  219.7743 H   0  0  0  0  0  0  0  0  0  0  0  0
  142.8751   76.6012  219.3634 H   0  0  0  0  0  0  0  0  0  0  0  0
  142.5135   78.9731  219.9975 H   0  0  0  0  0  0  0  0  0  0  0  0
  139.8051   79.8851  223.1764 H   0  0  0  0  0  0  0  0  0  0  0  0
  139.2949   77.4683  223.5368 H   0  0  0  0  0  0  0  0  0  0  0  0
  1  2  2  0
  2  3  1  0
  3  4  1  0
  4  5  1  0
  5  6  2  0
  5  7  1  0
  7  8  1  0
  8  9  1  0
  9 10  1  0
 10 11  1  0
 11 12  1  0
 12 13  1  0
 13 14  1  0
 14 15  1  0
 15 16  2  0
 16 17  1  0
 17 18  2  0
 18 19  1  0
 19 20  2  0
  2 21  1  0
 21 22  2  0
 22 23  1  0
 23 24  2  0
 24 25  1  0
 25 26  2  0
 26 27  1  0
 26 28  1  0
 28 29  2  0
 29 30  1  0
 30 31  2  0
 11  7  1  0
 20 15  1  0
 31 21  1  0
 30 24  1  0
  3 32  1  0
  4 33  1  0
  4 34  1  0
  8 35  1  0
  8 36  1  0
  9 37  1  0
  9 38  1  0
 10 39  1  0
 10 40  1  0
 11 41  1  1
 12 42  1  0
 12 43  1  0
 13 44  1  0
 14 45  1  0
 14 46  1  0
 16 47  1  0
 17 48  1  0
 18 49  1  0
 19 50  1  0
 20 51  1  0
 22 52  1  0
 23 53  1  0
 25 54  1  0
 28 55  1  0
 29 56  1  0
M  END
>  <smiles>  (24) 
O=C(NCC(=O)N1CCC[C@H]1CNCc1ccccc1)c1ccc2cc(Cl)ccc2n1

>  <score_type>  (24) 
oracle

>  <origin>  (24) 
autodockgpu

>  <m_score__min__energy>  (24) 
-9.3399999999999999

>  <m_primary>  (24) 
energy

>  <rmsd>  (24) 
9.613370595072286

>  <m_score__min__rmsd>  (24) 
9.613370595072286

>  <meeko>  (24) 
{"free_energy": -8.0, "intermolecular_energy": -10.39, "internal_energy": -2.43, "cluster_size": 7, "cluster_id": 2, "rank_in_cluster": 3}

>  <energy>  (24) 
-8.14

>  <cluster_rmsd>  (24) 
0.0

>  <cluster>  (24) 
4

$$$$

     RDKit          3D

 56 59  0  0  0  0  0  0  0  0999 V2000
  138.5820   84.9820  221.6110 O   0  0  0  0  0  0  0  0  0  0  0  0
  138.3840   83.7440  221.6880 C   0  0  0  0  0  0  0  0  0  0  0  0
  137.1840   83.2530  222.2930 N   0  0  0  0  0  0  0  0  0  0  0  0
  136.1720   84.1260  222.8300 C   0  0  0  0  0  0  0  0  0  0  0  0
  136.2580   84.2310  224.3090 C   0  0  0  0  0  0  0  0  0  0  0  0
  136.4150   85.3380  224.9110 O   0  0  0  0  0  0  0  0  0  0  0  0
  136.1690   83.0790  225.1340 N   0  0  0  0  0  0  0  0  0  0  0  0
  135.0130   82.7650  225.9590 C   0  0  0  0  0  0  0  0  0  0  0  0
  135.6150   82.1950  227.2230 C   0  0  0  0  0  0  0  0  0  0  0  0
  136.9180   81.6280  226.7620 C   0  0  0  0  0  0  0  0  0  0  0  0
  137.1430   82.0240  225.3350 C   0  0  1  0  0  0  0  0  0  0  0  0
  136.9450   80.9060  224.3610 C   0  0  0  0  0  0  0  0  0  0  0  0
  138.0700   80.6780  223.4990 N   0  0  0  0  0  0  0  0  0  0  0  0
  138.8770   79.5530  223.8530 C   0  0  0  0  0  0  0  0  0  0  0  0
  140.3350   79.7650  223.6550 C   0  0  0  0  0  0  0  0  0  0  0  0
  141.2070   78.7690  223.2840 C   0  0  0  0  0  0  0  0  0  0  0  0
  142.5720   79.0120  223.1080 C   0  0  0  0  0  0  0  0  0  0  0  0
  143.0760   80.3000  223.3120 C   0  0  0  0  0  0  0  0  0  0  0  0
  142.2160   81.3030  223.6810 C   0  0  0  0  0  0  0  0  0  0  0  0
  140.8840   81.0280  223.8440 C   0  0  0  0  0  0  0  0  0  0  0  0
  139.3520   82.7590  221.1720 C   0  0  0  0  0  0  0  0  0  0  0  0
  140.6440   83.1050  220.8590 C   0  0  0  0  0  0  0  0  0  0  0  0
  141.5690   82.1770  220.3690 C   0  0  0  0  0  0  0  0  0  0  0  0
  141.1410   80.8570  220.2010 C   0  0  0  0  0  0  0  0  0  0  0  0
  141.9970   79.8760  219.7220 C   0  0  0  0  0  0  0  0  0  0  0  0
  141.5320   78.5880  219.5720 C   0  0  0  0  0  0  0  0  0  0  0  0
  142.5730   77.2970  218.9670 Cl  0  0  0  0  0  0  0  0  0  0  0  0
  140.2320   78.2910  219.8990 C   0  0  0  0  0  0  0  0  0  0  0  0
  139.3370   79.2380  220.3830 C   0  0  0  0  0  0  0  0  0  0  0  0
  139.8220   80.5200  220.5250 C   0  0  0  0  0  0  0  0  0  0  0  0
  138.9960   81.4710  220.9900 N   0  0  0  0  0  0  0  0  0  0  0  0
  137.0590   82.1960  222.3350 H   0  0  0  0  0  0  0  0  0  0  0  0
  136.2994   85.1280  222.3945 H   0  0  0  0  0  0  0  0  0  0  0  0
  135.1884   83.7045  222.5751 H   0  0  0  0  0  0  0  0  0  0  0  0
  134.4296   83.6717  226.1773 H   0  0  0  0  0  0  0  0  0  0  0  0
  134.3171   82.0687  225.4682 H   0  0  0  0  0  0  0  0  0  0  0  0
  135.7726   82.9832  227.9739 H   0  0  0  0  0  0  0  0  0  0  0  0
  134.9690   81.4476  227.7067 H   0  0  0  0  0  0  0  0  0  0  0  0
  137.7333   82.0211  227.3870 H   0  0  0  0  0  0  0  0  0  0  0  0
  136.8969   80.5313  226.8451 H   0  0  0  0  0  0  0  0  0  0  0  0
  138.1835   82.3337  225.1574 H   0  0  0  0  0  0  0  0  0  0  0  0
  136.7507   79.9835  224.9278 H   0  0  0  0  0  0  0  0  0  0  0  0
  136.1014   81.1914  223.7153 H   0  0  0  0  0  0  0  0  0  0  0  0
  137.9130   80.8320  222.5050 H   0  0  0  0  0  0  0  0  0  0  0  0
  138.7025   79.3231  224.9145 H   0  0  0  0  0  0  0  0  0  0  0  0
  138.5829   78.7294  223.1857 H   0  0  0  0  0  0  0  0  0  0  0  0
  140.8195   77.7525  223.1211 H   0  0  0  0  0  0  0  0  0  0  0  0
  143.2457   78.1948  222.8108 H   0  0  0  0  0  0  0  0  0  0  0  0
  144.1482   80.5064  223.1783 H   0  0  0  0  0  0  0  0  0  0  0  0
  142.5941   82.3229  223.8452 H   0  0  0  0  0  0  0  0  0  0  0  0
  140.2143   81.8490  224.1397 H   0  0  0  0  0  0  0  0  0  0  0  0
  140.9625   84.1486  220.9986 H   0  0  0  0  0  0  0  0  0  0  0  0
  142.5988   82.4761  220.1241 H   0  0  0  0  0  0  0  0  0  0  0  0
  143.0372   80.1243  219.4644 H   0  0  0  0  0  0  0  0  0  0  0  0
  139.8826   77.2557  219.7721 H   0  0  0  0  0  0  0  0  0  0  0  0
  138.2991   78.9784  220.6385 H   0  0  0  0  0  0  0  0  0  0  0  0
  1  2  2  0
  2  3  1  0
  3  4  1  0
  4  5  1  0
  5  6  2  0
  5  7  1  0
  7  8  1  0
  8  9  1  0
  9 10  1  0
 10 11  1  0
 11 12  1  0
 12 13  1  0
 13 14  1  0
 14 15  1  0
 15 16  2  0
 16 17  1  0
 17 18  2  0
 18 19  1  0
 19 20  2  0
  2 21  1  0
 21 22  2  0
 22 23  1  0
 23 24  2  0
 24 25  1  0
 25 26  2  0
 26 27  1  0
 26 28  1  0
 28 29  2  0
 29 30  1  0
 30 31  2  0
 11  7  1  0
 20 15  1  0
 31 21  1  0
 30 24  1  0
  3 32  1  0
  4 33  1  0
  4 34  1  0
  8 35  1  0
  8 36  1  0
  9 37  1  0
  9 38  1  0
 10 39  1  0
 10 40  1  0
 11 41  1  1
 12 42  1  0
 12 43  1  0
 13 44  1  0
 14 45  1  0
 14 46  1  0
 16 47  1  0
 17 48  1  0
 18 49  1  0
 19 50  1  0
 20 51  1  0
 22 52  1  0
 23 53  1  0
 25 54  1  0
 28 55  1  0
 29 56  1  0
M  END
>  <smiles>  (25) 
O=C(NCC(=O)N1CCC[C@H]1CNCc1ccccc1)c1ccc2cc(Cl)ccc2n1

>  <score_type>  (25) 
oracle

>  <origin>  (25) 
autodockgpu

>  <m_score__min__energy>  (25) 
-9.3399999999999999

>  <m_primary>  (25) 
energy

>  <rmsd>  (25) 
10.376386798603457

>  <m_score__min__rmsd>  (25) 
10.376386798603457

>  <meeko>  (25) 
{"free_energy": -5.45, "intermolecular_energy": -7.84, "internal_energy": -4.93, "cluster_size": 1, "cluster_id": 17, "rank_in_cluster": 1}

>  <energy>  (25) 
-7.95

>  <cluster_rmsd>  (25) 
1.0

>  <cluster>  (25) 
4

$$$$

     RDKit          3D

 56 59  0  0  0  0  0  0  0  0999 V2000
  139.2810   71.7670  220.4550 O   0  0  0  0  0  0  0  0  0  0  0  0
  139.2170   72.1840  221.6390 C   0  0  0  0  0  0  0  0  0  0  0  0
  138.9560   73.5680  221.8900 N   0  0  0  0  0  0  0  0  0  0  0  0
  138.7590   74.5260  220.8320 C   0  0  0  0  0  0  0  0  0  0  0  0
  137.6340   75.4500  221.1230 C   0  0  0  0  0  0  0  0  0  0  0  0
  136.4490   75.2400  220.7170 O   0  0  0  0  0  0  0  0  0  0  0  0
  137.8330   76.6350  221.8800 N   0  0  0  0  0  0  0  0  0  0  0  0
  137.0400   76.9890  223.0460 C   0  0  0  0  0  0  0  0  0  0  0  0
  136.8660   78.4860  222.9250 C   0  0  0  0  0  0  0  0  0  0  0  0
  138.0680   78.9130  222.1480 C   0  0  0  0  0  0  0  0  0  0  0  0
  138.8020   77.6940  221.6780 C   0  0  1  0  0  0  0  0  0  0  0  0
  140.0680   77.4260  222.4290 C   0  0  0  0  0  0  0  0  0  0  0  0
  141.1990   77.1560  221.5870 N   0  0  0  0  0  0  0  0  0  0  0  0
  141.8090   78.3140  221.0150 C   0  0  0  0  0  0  0  0  0  0  0  0
  141.8800   79.4810  221.9320 C   0  0  0  0  0  0  0  0  0  0  0  0
  141.1190   80.6160  221.7820 C   0  0  0  0  0  0  0  0  0  0  0  0
  141.2160   81.6920  222.6690 C   0  0  0  0  0  0  0  0  0  0  0  0
  142.1080   81.6220  223.7430 C   0  0  0  0  0  0  0  0  0  0  0  0
  142.8720   80.4940  223.9050 C   0  0  0  0  0  0  0  0  0  0  0  0
  142.7500   79.4600  223.0150 C   0  0  0  0  0  0  0  0  0  0  0  0
  139.4030   71.2930  222.7980 C   0  0  0  0  0  0  0  0  0  0  0  0
  138.9820   69.9850  222.7840 C   0  0  0  0  0  0  0  0  0  0  0  0
  139.1540   69.1340  223.8810 C   0  0  0  0  0  0  0  0  0  0  0  0
  139.7800   69.6530  225.0180 C   0  0  0  0  0  0  0  0  0  0  0  0
  139.9890   68.8730  226.1470 C   0  0  0  0  0  0  0  0  0  0  0  0
  140.6090   69.4270  227.2450 C   0  0  0  0  0  0  0  0  0  0  0  0
  140.9040   68.4850  228.7090 Cl  0  0  0  0  0  0  0  0  0  0  0  0
  141.0130   70.7380  227.2090 C   0  0  0  0  0  0  0  0  0  0  0  0
  140.8250   71.5600  226.1040 C   0  0  0  0  0  0  0  0  0  0  0  0
  140.2030   70.9860  225.0160 C   0  0  0  0  0  0  0  0  0  0  0  0
  140.0000   71.7380  223.9220 N   0  0  0  0  0  0  0  0  0  0  0  0
  138.9090   73.8760  222.9080 H   0  0  0  0  0  0  0  0  0  0  0  0
  139.6800   75.1148  220.7096 H   0  0  0  0  0  0  0  0  0  0  0  0
  138.5163   73.9729  219.9127 H   0  0  0  0  0  0  0  0  0  0  0  0
  136.0657   76.4787  223.0266 H   0  0  0  0  0  0  0  0  0  0  0  0
  137.5183   76.6920  223.9910 H   0  0  0  0  0  0  0  0  0  0  0  0
  135.9401   78.7321  222.3845 H   0  0  0  0  0  0  0  0  0  0  0  0
  136.7842   78.9888  223.8999 H   0  0  0  0  0  0  0  0  0  0  0  0
  137.7531   79.5115  221.2805 H   0  0  0  0  0  0  0  0  0  0  0  0
  138.7265   79.5212  222.7856 H   0  0  0  0  0  0  0  0  0  0  0  0
  139.1422   77.7989  220.6372 H   0  0  0  0  0  0  0  0  0  0  0  0
  140.2980   78.3075  223.0454 H   0  0  0  0  0  0  0  0  0  0  0  0
  139.8960   76.5219  223.0315 H   0  0  0  0  0  0  0  0  0  0  0  0
  141.8250   76.4170  221.9000 H   0  0  0  0  0  0  0  0  0  0  0  0
  142.8331   78.0504  220.7122 H   0  0  0  0  0  0  0  0  0  0  0  0
  141.1782   78.6169  220.1663 H   0  0  0  0  0  0  0  0  0  0  0  0
  140.4138   80.6792  220.9402 H   0  0  0  0  0  0  0  0  0  0  0  0
  140.5946   82.5878  222.5229 H   0  0  0  0  0  0  0  0  0  0  0  0
  142.1963   82.4607  224.4493 H   0  0  0  0  0  0  0  0  0  0  0  0
  143.5785   80.4204  224.7449 H   0  0  0  0  0  0  0  0  0  0  0  0
  143.3734   78.5663  223.1656 H   0  0  0  0  0  0  0  0  0  0  0  0
  138.4932   69.5938  221.8796 H   0  0  0  0  0  0  0  0  0  0  0  0
  138.8079   68.0903  223.8498 H   0  0  0  0  0  0  0  0  0  0  0  0
  139.6626   67.8227  226.1646 H   0  0  0  0  0  0  0  0  0  0  0  0
  141.5090   71.1581  228.0964 H   0  0  0  0  0  0  0  0  0  0  0  0
  141.1541   72.6096  226.0981 H   0  0  0  0  0  0  0  0  0  0  0  0
  1  2  2  0
  2  3  1  0
  3  4  1  0
  4  5  1  0
  5  6  2  0
  5  7  1  0
  7  8  1  0
  8  9  1  0
  9 10  1  0
 10 11  1  0
 11 12  1  0
 12 13  1  0
 13 14  1  0
 14 15  1  0
 15 16  2  0
 16 17  1  0
 17 18  2  0
 18 19  1  0
 19 20  2  0
  2 21  1  0
 21 22  2  0
 22 23  1  0
 23 24  2  0
 24 25  1  0
 25 26  2  0
 26 27  1  0
 26 28  1  0
 28 29  2  0
 29 30  1  0
 30 31  2  0
 11  7  1  0
 20 15  1  0
 31 21  1  0
 30 24  1  0
  3 32  1  0
  4 33  1  0
  4 34  1  0
  8 35  1  0
  8 36  1  0
  9 37  1  0
  9 38  1  0
 10 39  1  0
 10 40  1  0
 11 41  1  6
 12 42  1  0
 12 43  1  0
 13 44  1  0
 14 45  1  0
 14 46  1  0
 16 47  1  0
 17 48  1  0
 18 49  1  0
 19 50  1  0
 20 51  1  0
 22 52  1  0
 23 53  1  0
 25 54  1  0
 28 55  1  0
 29 56  1  0
M  END
>  <smiles>  (26) 
O=C(NCC(=O)N1CCC[C@H]1CNCc1ccccc1)c1ccc2cc(Cl)ccc2n1

>  <score_type>  (26) 
oracle

>  <origin>  (26) 
autodockgpu

>  <m_score__min__energy>  (26) 
-9.3399999999999999

>  <m_primary>  (26) 
energy

>  <rmsd>  (26) 
3.2677746275951116

>  <m_score__min__rmsd>  (26) 
3.2677746275951116

>  <meeko>  (26) 
{"free_energy": -8.71, "intermolecular_energy": -11.1, "internal_energy": -1.73, "cluster_size": 6, "cluster_id": 3, "rank_in_cluster": 2}

>  <energy>  (26) 
-8.09

>  <cluster_rmsd>  (26) 
0.0

>  <cluster>  (26) 
5

$$$$

     RDKit          3D

 56 59  0  0  0  0  0  0  0  0999 V2000
  138.1110   71.8110  221.0230 O   0  0  0  0  0  0  0  0  0  0  0  0
  138.6900   72.1680  222.0800 C   0  0  0  0  0  0  0  0  0  0  0  0
  139.0500   73.5410  222.2620 N   0  0  0  0  0  0  0  0  0  0  0  0
  138.7780   74.5530  221.2740 C   0  0  0  0  0  0  0  0  0  0  0  0
  138.5250   75.8790  221.8940 C   0  0  0  0  0  0  0  0  0  0  0  0
  139.4430   76.7360  222.0810 O   0  0  0  0  0  0  0  0  0  0  0  0
  137.2230   76.2570  222.3160 N   0  0  0  0  0  0  0  0  0  0  0  0
  136.4670   75.5450  223.3340 C   0  0  0  0  0  0  0  0  0  0  0  0
  135.0460   75.5820  222.8200 C   0  0  0  0  0  0  0  0  0  0  0  0
  135.0120   76.8170  221.9810 C   0  0  0  0  0  0  0  0  0  0  0  0
  136.4030   77.3620  221.8610 C   0  0  1  0  0  0  0  0  0  0  0  0
  136.6390   78.5920  222.6790 C   0  0  0  0  0  0  0  0  0  0  0  0
  137.9190   79.2030  222.4570 N   0  0  0  0  0  0  0  0  0  0  0  0
  138.4890   79.8330  223.6050 C   0  0  0  0  0  0  0  0  0  0  0  0
  139.9560   80.0550  223.5110 C   0  0  0  0  0  0  0  0  0  0  0  0
  140.5240   81.2490  223.1340 C   0  0  0  0  0  0  0  0  0  0  0  0
  141.9100   81.4150  223.0600 C   0  0  0  0  0  0  0  0  0  0  0  0
  142.7510   80.3440  223.3760 C   0  0  0  0  0  0  0  0  0  0  0  0
  142.1970   79.1470  223.7550 C   0  0  0  0  0  0  0  0  0  0  0  0
  140.8340   79.0220  223.8160 C   0  0  0  0  0  0  0  0  0  0  0  0
  139.0190   71.2180  223.1570 C   0  0  0  0  0  0  0  0  0  0  0  0
  138.7150   69.8810  223.0640 C   0  0  0  0  0  0  0  0  0  0  0  0
  139.0240   68.9720  224.0820 C   0  0  0  0  0  0  0  0  0  0  0  0
  139.6640   69.4640  225.2230 C   0  0  0  0  0  0  0  0  0  0  0  0
  140.0050   68.6280  226.2770 C   0  0  0  0  0  0  0  0  0  0  0  0
  140.6340   69.1560  227.3820 C   0  0  0  0  0  0  0  0  0  0  0  0
  141.0940   68.1430  228.7530 Cl  0  0  0  0  0  0  0  0  0  0  0  0
  140.9180   70.4990  227.4280 C   0  0  0  0  0  0  0  0  0  0  0  0
  140.5960   71.3760  226.3990 C   0  0  0  0  0  0  0  0  0  0  0  0
  139.9670   70.8280  225.3020 C   0  0  0  0  0  0  0  0  0  0  0  0
  139.6370   71.6340  224.2810 N   0  0  0  0  0  0  0  0  0  0  0  0
  139.5380   73.7980  223.1730 H   0  0  0  0  0  0  0  0  0  0  0  0
  139.6442   74.6347  220.6009 H   0  0  0  0  0  0  0  0  0  0  0  0
  137.8736   74.2565  220.7225 H   0  0  0  0  0  0  0  0  0  0  0  0
  136.8214   74.5083  223.4318 H   0  0  0  0  0  0  0  0  0  0  0  0
  136.5699   75.9948  224.3326 H   0  0  0  0  0  0  0  0  0  0  0  0
  134.8227   74.6900  222.2163 H   0  0  0  0  0  0  0  0  0  0  0  0
  134.2982   75.5908  223.6267 H   0  0  0  0  0  0  0  0  0  0  0  0
  134.6235   76.5733  220.9811 H   0  0  0  0  0  0  0  0  0  0  0  0
  134.3574   77.5670  222.4489 H   0  0  0  0  0  0  0  0  0  0  0  0
  136.6258   77.6930  220.8359 H   0  0  0  0  0  0  0  0  0  0  0  0
  135.8577   79.3263  222.4332 H   0  0  0  0  0  0  0  0  0  0  0  0
  136.6121   78.2829  223.7343 H   0  0  0  0  0  0  0  0  0  0  0  0
  138.5590   78.6960  221.8490 H   0  0  0  0  0  0  0  0  0  0  0  0
  138.0002   80.8089  223.7417 H   0  0  0  0  0  0  0  0  0  0  0  0
  138.3253   79.1527  224.4537 H   0  0  0  0  0  0  0  0  0  0  0  0
  139.8697   82.0971  222.8837 H   0  0  0  0  0  0  0  0  0  0  0  0
  142.3362   82.3822  222.7551 H   0  0  0  0  0  0  0  0  0  0  0  0
  143.8436   80.4593  223.3215 H   0  0  0  0  0  0  0  0  0  0  0  0
  142.8431   78.2935  224.0082 H   0  0  0  0  0  0  0  0  0  0  0  0
  140.4126   78.0532  224.1224 H   0  0  0  0  0  0  0  0  0  0  0  0
  138.2114   69.5127  222.1581 H   0  0  0  0  0  0  0  0  0  0  0  0
  138.7716   67.9055  223.9874 H   0  0  0  0  0  0  0  0  0  0  0  0
  139.7748   67.5534  226.2299 H   0  0  0  0  0  0  0  0  0  0  0  0
  141.4232   70.8986  228.3197 H   0  0  0  0  0  0  0  0  0  0  0  0
  140.8304   72.4492  226.4570 H   0  0  0  0  0  0  0  0  0  0  0  0
  1  2  2  0
  2  3  1  0
  3  4  1  0
  4  5  1  0
  5  6  2  0
  5  7  1  0
  7  8  1  0
  8  9  1  0
  9 10  1  0
 10 11  1  0
 11 12  1  0
 12 13  1  0
 13 14  1  0
 14 15  1  0
 15 16  2  0
 16 17  1  0
 17 18  2  0
 18 19  1  0
 19 20  2  0
  2 21  1  0
 21 22  2  0
 22 23  1  0
 23 24  2  0
 24 25  1  0
 25 26  2  0
 26 27  1  0
 26 28  1  0
 28 29  2  0
 29 30  1  0
 30 31  2  0
 11  7  1  0
 20 15  1  0
 31 21  1  0
 30 24  1  0
  3 32  1  0
  4 33  1  0
  4 34  1  0
  8 35  1  0
  8 36  1  0
  9 37  1  0
  9 38  1  0
 10 39  1  0
 10 40  1  0
 11 41  1  6
 12 42  1  0
 12 43  1  0
 13 44  1  0
 14 45  1  0
 14 46  1  0
 16 47  1  0
 17 48  1  0
 18 49  1  0
 19 50  1  0
 20 51  1  0
 22 52  1  0
 23 53  1  0
 25 54  1  0
 28 55  1  0
 29 56  1  0
M  END
>  <smiles>  (27) 
O=C(NCC(=O)N1CCC[C@H]1CNCc1ccccc1)c1ccc2cc(Cl)ccc2n1

>  <score_type>  (27) 
oracle

>  <origin>  (27) 
autodockgpu

>  <m_score__min__energy>  (27) 
-9.3399999999999999

>  <m_primary>  (27) 
energy

>  <rmsd>  (27) 
3.824423450595864

>  <m_score__min__rmsd>  (27) 
3.824423450595864

>  <meeko>  (27) 
{"free_energy": -7.95, "intermolecular_energy": -10.34, "internal_energy": -2.54, "cluster_size": 2, "cluster_id": 4, "rank_in_cluster": 2}

>  <energy>  (27) 
-7.83

>  <cluster_rmsd>  (27) 
0.0

>  <cluster>  (27) 
6

$$$$

     RDKit          3D

 56 59  0  0  0  0  0  0  0  0999 V2000
  137.9410   76.3860  223.4570 O   0  0  0  0  0  0  0  0  0  0  0  0
  138.3430   76.9700  222.4200 C   0  0  0  0  0  0  0  0  0  0  0  0
  138.6620   76.2040  221.2540 N   0  0  0  0  0  0  0  0  0  0  0  0
  138.5430   74.7690  221.2100 C   0  0  0  0  0  0  0  0  0  0  0  0
  139.8220   74.0960  221.5510 C   0  0  0  0  0  0  0  0  0  0  0  0
  139.9490   73.3280  222.5530 O   0  0  0  0  0  0  0  0  0  0  0  0
  140.9860   74.2860  220.7590 N   0  0  0  0  0  0  0  0  0  0  0  0
  141.5260   73.2750  219.8640 C   0  0  0  0  0  0  0  0  0  0  0  0
  143.0230   73.4170  220.0180 C   0  0  0  0  0  0  0  0  0  0  0  0
  143.1960   74.8460  220.4170 C   0  0  0  0  0  0  0  0  0  0  0  0
  141.8470   75.4480  220.6680 C   0  0  1  0  0  0  0  0  0  0  0  0
  141.3950   76.3810  219.5910 C   0  0  0  0  0  0  0  0  0  0  0  0
  140.8690   77.6240  220.0790 N   0  0  0  0  0  0  0  0  0  0  0  0
  141.8330   78.6690  220.2190 C   0  0  0  0  0  0  0  0  0  0  0  0
  141.9390   79.2190  221.5950 C   0  0  0  0  0  0  0  0  0  0  0  0
  141.7420   78.4720  222.7320 C   0  0  0  0  0  0  0  0  0  0  0  0
  141.8520   79.0300  224.0100 C   0  0  0  0  0  0  0  0  0  0  0  0
  142.1710   80.3840  224.1460 C   0  0  0  0  0  0  0  0  0  0  0  0
  142.3720   81.1400  223.0190 C   0  0  0  0  0  0  0  0  0  0  0  0
  142.2550   80.5590  221.7840 C   0  0  0  0  0  0  0  0  0  0  0  0
  138.5020   78.4330  222.3510 C   0  0  0  0  0  0  0  0  0  0  0  0
  138.3850   79.2300  223.4650 C   0  0  0  0  0  0  0  0  0  0  0  0
  138.5340   80.6190  223.4080 C   0  0  0  0  0  0  0  0  0  0  0  0
  138.8140   81.1960  222.1660 C   0  0  0  0  0  0  0  0  0  0  0  0
  138.9780   82.5660  222.0260 C   0  0  0  0  0  0  0  0  0  0  0  0
  139.2520   83.0900  220.7820 C   0  0  0  0  0  0  0  0  0  0  0  0
  139.4720   84.8250  220.5410 Cl  0  0  0  0  0  0  0  0  0  0  0  0
  139.3610   82.2530  219.7000 C   0  0  0  0  0  0  0  0  0  0  0  0
  139.2050   80.8740  219.7890 C   0  0  0  0  0  0  0  0  0  0  0  0
  138.9310   80.3710  221.0420 C   0  0  0  0  0  0  0  0  0  0  0  0
  138.7740   79.0450  221.1800 N   0  0  0  0  0  0  0  0  0  0  0  0
  138.9970   76.7410  220.3970 H   0  0  0  0  0  0  0  0  0  0  0  0
  137.7727   74.4539  221.9293 H   0  0  0  0  0  0  0  0  0  0  0  0
  138.2695   74.4812  220.1842 H   0  0  0  0  0  0  0  0  0  0  0  0
  141.1951   72.2697  220.1638 H   0  0  0  0  0  0  0  0  0  0  0  0
  141.1917   73.4061  218.8242 H   0  0  0  0  0  0  0  0  0  0  0  0
  143.4042   72.7416  220.7981 H   0  0  0  0  0  0  0  0  0  0  0  0
  143.5754   73.1567  219.1031 H   0  0  0  0  0  0  0  0  0  0  0  0
  143.8016   74.9025  221.3336 H   0  0  0  0  0  0  0  0  0  0  0  0
  143.7060   75.3976  219.6135 H   0  0  0  0  0  0  0  0  0  0  0  0
  141.8429   76.0802  221.5682 H   0  0  0  0  0  0  0  0  0  0  0  0
  142.2543   76.6006  218.9403 H   0  0  0  0  0  0  0  0  0  0  0  0
  140.5767   75.8771  219.0558 H   0  0  0  0  0  0  0  0  0  0  0  0
  139.9520   77.8930  219.7270 H   0  0  0  0  0  0  0  0  0  0  0  0
  142.8170   78.2717  219.9295 H   0  0  0  0  0  0  0  0  0  0  0  0
  141.5002   79.4949  219.5731 H   0  0  0  0  0  0  0  0  0  0  0  0
  141.4908   77.4055  222.6341 H   0  0  0  0  0  0  0  0  0  0  0  0
  141.6885   78.4074  224.9020 H   0  0  0  0  0  0  0  0  0  0  0  0
  142.2598   80.8377  225.1441 H   0  0  0  0  0  0  0  0  0  0  0  0
  142.6257   82.2068  223.1066 H   0  0  0  0  0  0  0  0  0  0  0  0
  142.4198   81.1860  220.8953 H   0  0  0  0  0  0  0  0  0  0  0  0
  138.1666   78.7587  224.4346 H   0  0  0  0  0  0  0  0  0  0  0  0
  138.4341   81.2380  224.3118 H   0  0  0  0  0  0  0  0  0  0  0  0
  138.8901   83.2279  222.9002 H   0  0  0  0  0  0  0  0  0  0  0  0
  139.5820   82.6934  218.7165 H   0  0  0  0  0  0  0  0  0  0  0  0
  139.2953   80.2213  218.9082 H   0  0  0  0  0  0  0  0  0  0  0  0
  1  2  2  0
  2  3  1  0
  3  4  1  0
  4  5  1  0
  5  6  2  0
  5  7  1  0
  7  8  1  0
  8  9  1  0
  9 10  1  0
 10 11  1  0
 11 12  1  0
 12 13  1  0
 13 14  1  0
 14 15  1  0
 15 16  2  0
 16 17  1  0
 17 18  2  0
 18 19  1  0
 19 20  2  0
  2 21  1  0
 21 22  2  0
 22 23  1  0
 23 24  2  0
 24 25  1  0
 25 26  2  0
 26 27  1  0
 26 28  1  0
 28 29  2  0
 29 30  1  0
 30 31  2  0
 11  7  1  0
 20 15  1  0
 31 21  1  0
 30 24  1  0
  3 32  1  0
  4 33  1  0
  4 34  1  0
  8 35  1  0
  8 36  1  0
  9 37  1  0
  9 38  1  0
 10 39  1  0
 10 40  1  0
 11 41  1  1
 12 42  1  0
 12 43  1  0
 13 44  1  0
 14 45  1  0
 14 46  1  0
 16 47  1  0
 17 48  1  0
 18 49  1  0
 19 50  1  0
 20 51  1  0
 22 52  1  0
 23 53  1  0
 25 54  1  0
 28 55  1  0
 29 56  1  0
M  END
>  <smiles>  (28) 
O=C(NCC(=O)N1CCC[C@H]1CNCc1ccccc1)c1ccc2cc(Cl)ccc2n1

>  <score_type>  (28) 
oracle

>  <origin>  (28) 
autodockgpu

>  <m_score__min__energy>  (28) 
-9.3399999999999999

>  <m_primary>  (28) 
energy

>  <rmsd>  (28) 
7.623529299892203

>  <m_score__min__rmsd>  (28) 
7.623529299892203

>  <meeko>  (28) 
{"free_energy": -5.38, "intermolecular_energy": -7.76, "internal_energy": -4.96, "cluster_size": 2, "cluster_id": 16, "rank_in_cluster": 2}

>  <energy>  (28) 
-7.67

>  <cluster_rmsd>  (28) 
0.0

>  <cluster>  (28) 
7

$$$$

     RDKit          3D

 56 59  0  0  0  0  0  0  0  0999 V2000
  142.6010   76.6350  217.7510 O   0  0  0  0  0  0  0  0  0  0  0  0
  142.6040   77.2710  218.8340 C   0  0  0  0  0  0  0  0  0  0  0  0
  143.0560   76.6310  220.0310 N   0  0  0  0  0  0  0  0  0  0  0  0
  143.5150   75.2650  220.0560 C   0  0  0  0  0  0  0  0  0  0  0  0
  142.3860   74.3010  220.0650 C   0  0  0  0  0  0  0  0  0  0  0  0
  142.4040   73.2150  219.4070 O   0  0  0  0  0  0  0  0  0  0  0  0
  141.2100   74.5520  220.8220 N   0  0  0  0  0  0  0  0  0  0  0  0
  140.4300   73.5100  221.4690 C   0  0  0  0  0  0  0  0  0  0  0  0
  138.9990   73.9550  221.2750 C   0  0  0  0  0  0  0  0  0  0  0  0
  139.1100   75.4410  221.1620 C   0  0  0  0  0  0  0  0  0  0  0  0
  140.5600   75.8170  221.1020 C   0  0  1  0  0  0  0  0  0  0  0  0
  141.0760   76.4290  222.3650 C   0  0  0  0  0  0  0  0  0  0  0  0
  141.4460   77.8090  222.2360 N   0  0  0  0  0  0  0  0  0  0  0  0
  141.0650   78.6380  223.3350 C   0  0  0  0  0  0  0  0  0  0  0  0
  139.8150   79.4100  223.1100 C   0  0  0  0  0  0  0  0  0  0  0  0
  139.4550   80.5110  223.8500 C   0  0  0  0  0  0  0  0  0  0  0  0
  138.2690   81.2100  223.6040 C   0  0  0  0  0  0  0  0  0  0  0  0
  137.4180   80.7850  222.5800 C   0  0  0  0  0  0  0  0  0  0  0  0
  137.7660   79.6880  221.8330 C   0  0  0  0  0  0  0  0  0  0  0  0
  138.9360   79.0280  222.1030 C   0  0  0  0  0  0  0  0  0  0  0  0
  142.1560   78.6720  218.9260 C   0  0  0  0  0  0  0  0  0  0  0  0
  141.6990   79.3630  217.8290 C   0  0  0  0  0  0  0  0  0  0  0  0
  141.2730   80.6920  217.9070 C   0  0  0  0  0  0  0  0  0  0  0  0
  141.3190   81.3200  219.1550 C   0  0  0  0  0  0  0  0  0  0  0  0
  140.9130   82.6370  219.3170 C   0  0  0  0  0  0  0  0  0  0  0  0
  140.9770   83.2140  220.5660 C   0  0  0  0  0  0  0  0  0  0  0  0
  140.4720   84.8850  220.8350 Cl  0  0  0  0  0  0  0  0  0  0  0  0
  141.4390   82.4830  221.6320 C   0  0  0  0  0  0  0  0  0  0  0  0
  141.8580   81.1630  221.5200 C   0  0  0  0  0  0  0  0  0  0  0  0
  141.7860   80.6030  220.2630 C   0  0  0  0  0  0  0  0  0  0  0  0
  142.1780   79.3290  220.1030 N   0  0  0  0  0  0  0  0  0  0  0  0
  143.0420   77.2090  220.9260 H   0  0  0  0  0  0  0  0  0  0  0  0
  144.1324   75.0811  219.1644 H   0  0  0  0  0  0  0  0  0  0  0  0
  144.0960   75.1177  220.9784 H   0  0  0  0  0  0  0  0  0  0  0  0
  140.6052   72.5353  220.9901 H   0  0  0  0  0  0  0  0  0  0  0  0
  140.6937   73.3784  222.5288 H   0  0  0  0  0  0  0  0  0  0  0  0
  138.5729   73.5214  220.3582 H   0  0  0  0  0  0  0  0  0  0  0  0
  138.3355   73.6351  222.0920 H   0  0  0  0  0  0  0  0  0  0  0  0
  138.6024   75.7806  220.2471 H   0  0  0  0  0  0  0  0  0  0  0  0
  138.6375   75.9172  222.0338 H   0  0  0  0  0  0  0  0  0  0  0  0
  140.7493   76.5955  220.3483 H   0  0  0  0  0  0  0  0  0  0  0  0
  140.2918   76.3514  223.1325 H   0  0  0  0  0  0  0  0  0  0  0  0
  141.9892   75.8786  222.6354 H   0  0  0  0  0  0  0  0  0  0  0  0
  142.3570   77.9930  221.8200 H   0  0  0  0  0  0  0  0  0  0  0  0
  140.9207   77.9969  224.2171 H   0  0  0  0  0  0  0  0  0  0  0  0
  141.8713   79.3738  223.4709 H   0  0  0  0  0  0  0  0  0  0  0  0
  140.1185   80.8519  224.6585 H   0  0  0  0  0  0  0  0  0  0  0  0
  138.0076   82.0884  224.2124 H   0  0  0  0  0  0  0  0  0  0  0  0
  136.4808   81.3234  222.3755 H   0  0  0  0  0  0  0  0  0  0  0  0
  137.1094   79.3403  221.0219 H   0  0  0  0  0  0  0  0  0  0  0  0
  139.1930   78.1506  221.4914 H   0  0  0  0  0  0  0  0  0  0  0  0
  141.6675   78.8520  216.8554 H   0  0  0  0  0  0  0  0  0  0  0  0
  140.9132   81.2263  217.0153 H   0  0  0  0  0  0  0  0  0  0  0  0
  140.5438   83.2144  218.4566 H   0  0  0  0  0  0  0  0  0  0  0  0
  141.4793   82.9643  222.6203 H   0  0  0  0  0  0  0  0  0  0  0  0
  142.2270   80.5960  222.3874 H   0  0  0  0  0  0  0  0  0  0  0  0
  1  2  2  0
  2  3  1  0
  3  4  1  0
  4  5  1  0
  5  6  2  0
  5  7  1  0
  7  8  1  0
  8  9  1  0
  9 10  1  0
 10 11  1  0
 11 12  1  0
 12 13  1  0
 13 14  1  0
 14 15  1  0
 15 16  2  0
 16 17  1  0
 17 18  2  0
 18 19  1  0
 19 20  2  0
  2 21  1  0
 21 22  2  0
 22 23  1  0
 23 24  2  0
 24 25  1  0
 25 26  2  0
 26 27  1  0
 26 28  1  0
 28 29  2  0
 29 30  1  0
 30 31  2  0
 11  7  1  0
 20 15  1  0
 31 21  1  0
 30 24  1  0
  3 32  1  0
  4 33  1  0
  4 34  1  0
  8 35  1  0
  8 36  1  0
  9 37  1  0
  9 38  1  0
 10 39  1  0
 10 40  1  0
 11 41  1  6
 12 42  1  0
 12 43  1  0
 13 44  1  0
 14 45  1  0
 14 46  1  0
 16 47  1  0
 17 48  1  0
 18 49  1  0
 19 50  1  0
 20 51  1  0
 22 52  1  0
 23 53  1  0
 25 54  1  0
 28 55  1  0
 29 56  1  0
M  END
>  <smiles>  (29) 
O=C(NCC(=O)N1CCC[C@H]1CNCc1ccccc1)c1ccc2cc(Cl)ccc2n1

>  <score_type>  (29) 
oracle

>  <origin>  (29) 
autodockgpu

>  <m_score__min__energy>  (29) 
-9.3399999999999999

>  <m_primary>  (29) 
energy

>  <rmsd>  (29) 
8.08489831877375

>  <m_score__min__rmsd>  (29) 
8.08489831877375

>  <meeko>  (29) 
{"free_energy": -5.75, "intermolecular_energy": -8.13, "internal_energy": -4.41, "cluster_size": 1, "cluster_id": 14, "rank_in_cluster": 1}

>  <energy>  (29) 
-7.33

>  <cluster_rmsd>  (29) 
1.11

>  <cluster>  (29) 
7

$$$$

     RDKit          3D

 56 59  0  0  0  0  0  0  0  0999 V2000
  139.1660   73.9850  222.3400 O   0  0  0  0  0  0  0  0  0  0  0  0
  140.1120   74.7230  221.9660 C   0  0  0  0  0  0  0  0  0  0  0  0
  141.3570   74.1360  221.5770 N   0  0  0  0  0  0  0  0  0  0  0  0
  141.5850   72.7130  221.5930 C   0  0  0  0  0  0  0  0  0  0  0  0
  142.4300   72.2740  220.4540 C   0  0  0  0  0  0  0  0  0  0  0  0
  142.0720   71.3640  219.6440 O   0  0  0  0  0  0  0  0  0  0  0  0
  143.7010   72.8590  220.2130 N   0  0  0  0  0  0  0  0  0  0  0  0
  144.7820   72.1790  219.5170 C   0  0  0  0  0  0  0  0  0  0  0  0
  146.0220   72.6090  220.2670 C   0  0  0  0  0  0  0  0  0  0  0  0
  145.6420   73.9390  220.8330 C   0  0  0  0  0  0  0  0  0  0  0  0
  144.1830   74.1750  220.5810 C   0  0  1  0  0  0  0  0  0  0  0  0
  143.9140   75.1770  219.5030 C   0  0  0  0  0  0  0  0  0  0  0  0
  142.9570   76.1830  219.8680 N   0  0  0  0  0  0  0  0  0  0  0  0
  141.9100   76.3870  218.9180 C   0  0  0  0  0  0  0  0  0  0  0  0
  141.6210   77.8150  218.6300 C   0  0  0  0  0  0  0  0  0  0  0  0
  140.3500   78.3240  218.4970 C   0  0  0  0  0  0  0  0  0  0  0  0
  140.1220   79.6770  218.2260 C   0  0  0  0  0  0  0  0  0  0  0  0
  141.2090   80.5440  218.0840 C   0  0  0  0  0  0  0  0  0  0  0  0
  142.4810   80.0500  218.2150 C   0  0  0  0  0  0  0  0  0  0  0  0
  142.6660   78.7190  218.4810 C   0  0  0  0  0  0  0  0  0  0  0  0
  139.9920   76.1910  221.9110 C   0  0  0  0  0  0  0  0  0  0  0  0
  138.7710   76.8170  221.8340 C   0  0  0  0  0  0  0  0  0  0  0  0
  138.6480   78.2090  221.7800 C   0  0  0  0  0  0  0  0  0  0  0  0
  139.8210   78.9700  221.8100 C   0  0  0  0  0  0  0  0  0  0  0  0
  139.7840   80.3560  221.7620 C   0  0  0  0  0  0  0  0  0  0  0  0
  140.9650   81.0640  221.7930 C   0  0  0  0  0  0  0  0  0  0  0  0
  140.9830   82.8280  221.7370 Cl  0  0  0  0  0  0  0  0  0  0  0  0
  142.1600   80.3930  221.8730 C   0  0  0  0  0  0  0  0  0  0  0  0
  142.2490   79.0060  221.9220 C   0  0  0  0  0  0  0  0  0  0  0  0
  141.0560   78.3170  221.8900 C   0  0  0  0  0  0  0  0  0  0  0  0
  141.0880   76.9750  221.9370 N   0  0  0  0  0  0  0  0  0  0  0  0
  142.1310   74.8000  221.2670 H   0  0  0  0  0  0  0  0  0  0  0  0
  142.0884   72.4442  222.5334 H   0  0  0  0  0  0  0  0  0  0  0  0
  140.6100   72.2109  221.5071 H   0  0  0  0  0  0  0  0  0  0  0  0
  144.6537   71.0876  219.5655 H   0  0  0  0  0  0  0  0  0  0  0  0
  144.8236   72.4312  218.4471 H   0  0  0  0  0  0  0  0  0  0  0  0
  146.2646   71.8953  221.0681 H   0  0  0  0  0  0  0  0  0  0  0  0
  146.9160   72.6544  219.6276 H   0  0  0  0  0  0  0  0  0  0  0  0
  145.8360   73.9486  221.9157 H   0  0  0  0  0  0  0  0  0  0  0  0
  146.2359   74.7314  220.3540 H   0  0  0  0  0  0  0  0  0  0  0  0
  143.6810   74.6064  221.4596 H   0  0  0  0  0  0  0  0  0  0  0  0
  144.8612   75.6759  219.2500 H   0  0  0  0  0  0  0  0  0  0  0  0
  143.4870   74.6242  218.6533 H   0  0  0  0  0  0  0  0  0  0  0  0
  142.6950   76.2170  220.8510 H   0  0  0  0  0  0  0  0  0  0  0  0
  142.1976   75.8963  217.9765 H   0  0  0  0  0  0  0  0  0  0  0  0
  140.9960   75.9613  219.3577 H   0  0  0  0  0  0  0  0  0  0  0  0
  139.4891   77.6481  218.6068 H   0  0  0  0  0  0  0  0  0  0  0  0
  139.0943   80.0561  218.1253 H   0  0  0  0  0  0  0  0  0  0  0  0
  141.0457   81.6105  217.8696 H   0  0  0  0  0  0  0  0  0  0  0  0
  143.3480   80.7184  218.1072 H   0  0  0  0  0  0  0  0  0  0  0  0
  143.6959   78.3461  218.5820 H   0  0  0  0  0  0  0  0  0  0  0  0
  137.8592   76.2021  221.8142 H   0  0  0  0  0  0  0  0  0  0  0  0
  137.6607   78.6898  221.7160 H   0  0  0  0  0  0  0  0  0  0  0  0
  138.8211   80.8842  221.6998 H   0  0  0  0  0  0  0  0  0  0  0  0
  143.0902   80.9796  221.8996 H   0  0  0  0  0  0  0  0  0  0  0  0
  143.2174   78.4879  221.9829 H   0  0  0  0  0  0  0  0  0  0  0  0
  1  2  2  0
  2  3  1  0
  3  4  1  0
  4  5  1  0
  5  6  2  0
  5  7  1  0
  7  8  1  0
  8  9  1  0
  9 10  1  0
 10 11  1  0
 11 12  1  0
 12 13  1  0
 13 14  1  0
 14 15  1  0
 15 16  2  0
 16 17  1  0
 17 18  2  0
 18 19  1  0
 19 20  2  0
  2 21  1  0
 21 22  2  0
 22 23  1  0
 23 24  2  0
 24 25  1  0
 25 26  2  0
 26 27  1  0
 26 28  1  0
 28 29  2  0
 29 30  1  0
 30 31  2  0
 11  7  1  0
 20 15  1  0
 31 21  1  0
 30 24  1  0
  3 32  1  0
  4 33  1  0
  4 34  1  0
  8 35  1  0
  8 36  1  0
  9 37  1  0
  9 38  1  0
 10 39  1  0
 10 40  1  0
 11 41  1  1
 12 42  1  0
 12 43  1  0
 13 44  1  0
 14 45  1  0
 14 46  1  0
 16 47  1  0
 17 48  1  0
 18 49  1  0
 19 50  1  0
 20 51  1  0
 22 52  1  0
 23 53  1  0
 25 54  1  0
 28 55  1  0
 29 56  1  0
M  END
>  <smiles>  (30) 
O=C(NCC(=O)N1CCC[C@H]1CNCc1ccccc1)c1ccc2cc(Cl)ccc2n1

>  <score_type>  (30) 
oracle

>  <origin>  (30) 
autodockgpu

>  <m_score__min__energy>  (30) 
-9.3399999999999999

>  <m_primary>  (30) 
energy

>  <rmsd>  (30) 
7.007707370714117

>  <m_score__min__rmsd>  (30) 
7.007707370714117

>  <meeko>  (30) 
{"free_energy": -5.92, "intermolecular_energy": -8.3, "internal_energy": -4.74, "cluster_size": 1, "cluster_id": 13, "rank_in_cluster": 1}

>  <energy>  (30) 
-7.2

>  <cluster_rmsd>  (30) 
0.88

>  <cluster>  (30) 
7

$$$$

     RDKit          3D

 56 59  0  0  0  0  0  0  0  0999 V2000
  138.0440   75.8310  222.7110 O   0  0  0  0  0  0  0  0  0  0  0  0
  139.1060   76.1560  222.1240 C   0  0  0  0  0  0  0  0  0  0  0  0
  139.3580   77.5330  221.8250 N   0  0  0  0  0  0  0  0  0  0  0  0
  138.4360   78.5850  222.1700 C   0  0  0  0  0  0  0  0  0  0  0  0
  139.1380   79.8000  222.6530 C   0  0  0  0  0  0  0  0  0  0  0  0
  138.5230   80.8220  223.0900 O   0  0  0  0  0  0  0  0  0  0  0  0
  140.5560   79.8820  222.6480 N   0  0  0  0  0  0  0  0  0  0  0  0
  141.4210   78.9250  223.3200 C   0  0  0  0  0  0  0  0  0  0  0  0
  142.5360   79.7780  223.8810 C   0  0  0  0  0  0  0  0  0  0  0  0
  142.5760   80.9500  222.9560 C   0  0  0  0  0  0  0  0  0  0  0  0
  141.4100   80.8690  222.0180 C   0  0  1  0  0  0  0  0  0  0  0  0
  141.7830   80.4630  220.6280 C   0  0  0  0  0  0  0  0  0  0  0  0
  141.7300   79.0470  220.4000 N   0  0  0  0  0  0  0  0  0  0  0  0
  140.9600   78.6510  219.2630 C   0  0  0  0  0  0  0  0  0  0  0  0
  141.5530   77.5310  218.4880 C   0  0  0  0  0  0  0  0  0  0  0  0
  140.8770   76.3730  218.1840 C   0  0  0  0  0  0  0  0  0  0  0  0
  141.4730   75.3420  217.4500 C   0  0  0  0  0  0  0  0  0  0  0  0
  142.7920   75.4830  217.0080 C   0  0  0  0  0  0  0  0  0  0  0  0
  143.4770   76.6350  217.3040 C   0  0  0  0  0  0  0  0  0  0  0  0
  142.8600   77.6230  218.0250 C   0  0  0  0  0  0  0  0  0  0  0  0
  140.1190   75.1640  221.7230 C   0  0  0  0  0  0  0  0  0  0  0  0
  139.8990   73.8130  221.8400 C   0  0  0  0  0  0  0  0  0  0  0  0
  140.8560   72.8650  221.4620 C   0  0  0  0  0  0  0  0  0  0  0  0
  142.0690   73.3310  220.9490 C   0  0  0  0  0  0  0  0  0  0  0  0
  143.0690   72.4560  220.5500 C   0  0  0  0  0  0  0  0  0  0  0  0
  144.2490   72.9610  220.0500 C   0  0  0  0  0  0  0  0  0  0  0  0
  145.5570   71.8970  219.5260 Cl  0  0  0  0  0  0  0  0  0  0  0  0
  144.4210   74.3190  219.9510 C   0  0  0  0  0  0  0  0  0  0  0  0
  143.4500   75.2360  220.3370 C   0  0  0  0  0  0  0  0  0  0  0  0
  142.2770   74.7100  220.8350 C   0  0  0  0  0  0  0  0  0  0  0  0
  141.3080   75.5550  221.2200 N   0  0  0  0  0  0  0  0  0  0  0  0
  140.2710   77.7610  221.3260 H   0  0  0  0  0  0  0  0  0  0  0  0
  137.8451   78.8460  221.2797 H   0  0  0  0  0  0  0  0  0  0  0  0
  137.7899   78.2193  222.9817 H   0  0  0  0  0  0  0  0  0  0  0  0
  140.8806   78.4070  224.1260 H   0  0  0  0  0  0  0  0  0  0  0  0
  141.7869   78.1363  222.6462 H   0  0  0  0  0  0  0  0  0  0  0  0
  142.3088   80.0960  224.9092 H   0  0  0  0  0  0  0  0  0  0  0  0
  143.4963   79.2446  223.9392 H   0  0  0  0  0  0  0  0  0  0  0  0
  142.5176   81.8817  223.5379 H   0  0  0  0  0  0  0  0  0  0  0  0
  143.5155   80.9410  222.3839 H   0  0  0  0  0  0  0  0  0  0  0  0
  140.9319   81.8493  221.8750 H   0  0  0  0  0  0  0  0  0  0  0  0
  141.0908   80.9525  219.9271 H   0  0  0  0  0  0  0  0  0  0  0  0
  142.8279   80.7712  220.4757 H   0  0  0  0  0  0  0  0  0  0  0  0
  142.5920   78.5320  220.5690 H   0  0  0  0  0  0  0  0  0  0  0  0
  139.9641   78.3403  219.6117 H   0  0  0  0  0  0  0  0  0  0  0  0
  140.9228   79.5186  218.5878 H   0  0  0  0  0  0  0  0  0  0  0  0
  139.8388   76.2539  218.5275 H   0  0  0  0  0  0  0  0  0  0  0  0
  140.9077   74.4263  217.2220 H   0  0  0  0  0  0  0  0  0  0  0  0
  143.2746   74.6809  216.4304 H   0  0  0  0  0  0  0  0  0  0  0  0
  144.5152   76.7641  216.9643 H   0  0  0  0  0  0  0  0  0  0  0  0
  143.4291   78.5373  218.2492 H   0  0  0  0  0  0  0  0  0  0  0  0
  138.9373   73.4646  222.2448 H   0  0  0  0  0  0  0  0  0  0  0  0
  140.6597   71.7876  221.5654 H   0  0  0  0  0  0  0  0  0  0  0  0
  142.9209   71.3691  220.6322 H   0  0  0  0  0  0  0  0  0  0  0  0
  145.3710   74.6994  219.5476 H   0  0  0  0  0  0  0  0  0  0  0  0
  143.6088   76.3210  220.2499 H   0  0  0  0  0  0  0  0  0  0  0  0
  1  2  2  0
  2  3  1  0
  3  4  1  0
  4  5  1  0
  5  6  2  0
  5  7  1  0
  7  8  1  0
  8  9  1  0
  9 10  1  0
 10 11  1  0
 11 12  1  0
 12 13  1  0
 13 14  1  0
 14 15  1  0
 15 16  2  0
 16 17  1  0
 17 18  2  0
 18 19  1  0
 19 20  2  0
  2 21  1  0
 21 22  2  0
 22 23  1  0
 23 24  2  0
 24 25  1  0
 25 26  2  0
 26 27  1  0
 26 28  1  0
 28 29  2  0
 29 30  1  0
 30 31  2  0
 11  7  1  0
 20 15  1  0
 31 21  1  0
 30 24  1  0
  3 32  1  0
  4 33  1  0
  4 34  1  0
  8 35  1  0
  8 36  1  0
  9 37  1  0
  9 38  1  0
 10 39  1  0
 10 40  1  0
 11 41  1  6
 12 42  1  0
 12 43  1  0
 13 44  1  0
 14 45  1  0
 14 46  1  0
 16 47  1  0
 17 48  1  0
 18 49  1  0
 19 50  1  0
 20 51  1  0
 22 52  1  0
 23 53  1  0
 25 54  1  0
 28 55  1  0
 29 56  1  0
M  END
>  <smiles>  (31) 
O=C(NCC(=O)N1CCC[C@H]1CNCc1ccccc1)c1ccc2cc(Cl)ccc2n1

>  <score_type>  (31) 
oracle

>  <origin>  (31) 
autodockgpu

>  <m_score__min__energy>  (31) 
-9.3399999999999999

>  <m_primary>  (31) 
energy

>  <rmsd>  (31) 
6.436859794979304

>  <m_score__min__rmsd>  (31) 
6.436859794979304

>  <meeko>  (31) 
{"free_energy": -5.92, "intermolecular_energy": -8.31, "internal_energy": -4.08, "cluster_size": 3, "cluster_id": 8, "rank_in_cluster": 3}

>  <energy>  (31) 
-6.64

>  <cluster_rmsd>  (31) 
0.6

>  <cluster>  (31) 
7

$$$$

     RDKit          3D

 56 59  0  0  0  0  0  0  0  0999 V2000
  135.2700   77.2450  223.7230 O   0  0  0  0  0  0  0  0  0  0  0  0
  136.0570   77.9860  223.0820 C   0  0  0  0  0  0  0  0  0  0  0  0
  135.7150   79.3570  222.8570 N   0  0  0  0  0  0  0  0  0  0  0  0
  134.4890   79.9410  223.3370 C   0  0  0  0  0  0  0  0  0  0  0  0
  134.7160   81.2630  223.9740 C   0  0  0  0  0  0  0  0  0  0  0  0
  134.1620   82.3290  223.5630 O   0  0  0  0  0  0  0  0  0  0  0  0
  135.5820   81.4000  225.0920 N   0  0  0  0  0  0  0  0  0  0  0  0
  135.2650   80.9060  226.4220 C   0  0  0  0  0  0  0  0  0  0  0  0
  135.8090   81.9750  227.3440 C   0  0  0  0  0  0  0  0  0  0  0  0
  136.9170   82.5850  226.5500 C   0  0  0  0  0  0  0  0  0  0  0  0
  136.8880   82.0240  225.1610 C   0  0  1  0  0  0  0  0  0  0  0  0
  137.9800   81.0380  224.8880 C   0  0  0  0  0  0  0  0  0  0  0  0
  138.0640   80.6280  223.5150 N   0  0  0  0  0  0  0  0  0  0  0  0
  139.0730   81.2900  222.7520 C   0  0  0  0  0  0  0  0  0  0  0  0
  140.4180   80.6640  222.8470 C   0  0  0  0  0  0  0  0  0  0  0  0
  141.5290   81.1420  222.1950 C   0  0  0  0  0  0  0  0  0  0  0  0
  142.7770   80.5210  222.3130 C   0  0  0  0  0  0  0  0  0  0  0  0
  142.9080   79.3830  223.1140 C   0  0  0  0  0  0  0  0  0  0  0  0
  141.8070   78.8970  223.7710 C   0  0  0  0  0  0  0  0  0  0  0  0
  140.6000   79.5310  223.6320 C   0  0  0  0  0  0  0  0  0  0  0  0
  137.3380   77.4950  222.5440 C   0  0  0  0  0  0  0  0  0  0  0  0
  137.8480   76.2670  222.8900 C   0  0  0  0  0  0  0  0  0  0  0  0
  139.0630   75.7940  222.3840 C   0  0  0  0  0  0  0  0  0  0  0  0
  139.7650   76.6150  221.4970 C   0  0  0  0  0  0  0  0  0  0  0  0
  140.9770   76.2180  220.9500 C   0  0  0  0  0  0  0  0  0  0  0  0
  141.6330   77.0600  220.0790 C   0  0  0  0  0  0  0  0  0  0  0  0
  143.1770   76.6110  219.3500 Cl  0  0  0  0  0  0  0  0  0  0  0  0
  141.0820   78.2770  219.7630 C   0  0  0  0  0  0  0  0  0  0  0  0
  139.8720   78.7190  220.2850 C   0  0  0  0  0  0  0  0  0  0  0  0
  139.2310   77.8620  221.1540 C   0  0  0  0  0  0  0  0  0  0  0  0
  138.0580   78.2430  221.6840 N   0  0  0  0  0  0  0  0  0  0  0  0
  136.4120   79.9470  222.3090 H   0  0  0  0  0  0  0  0  0  0  0  0
  133.8003   80.0688  222.4888 H   0  0  0  0  0  0  0  0  0  0  0  0
  134.0647   79.2663  224.0951 H   0  0  0  0  0  0  0  0  0  0  0  0
  134.1781   80.7945  226.5497 H   0  0  0  0  0  0  0  0  0  0  0  0
  135.6959   79.9136  226.6208 H   0  0  0  0  0  0  0  0  0  0  0  0
  135.0365   82.7217  227.5801 H   0  0  0  0  0  0  0  0  0  0  0  0
  136.1437   81.5768  228.3132 H   0  0  0  0  0  0  0  0  0  0  0  0
  136.7845   83.6763  226.5098 H   0  0  0  0  0  0  0  0  0  0  0  0
  137.8832   82.3558  227.0233 H   0  0  0  0  0  0  0  0  0  0  0  0
  137.0537   82.8027  224.4020 H   0  0  0  0  0  0  0  0  0  0  0  0
  138.9390   81.4960  225.1719 H   0  0  0  0  0  0  0  0  0  0  0  0
  137.7512   80.1373  225.4766 H   0  0  0  0  0  0  0  0  0  0  0  0
  137.9340   79.6340  223.3350 H   0  0  0  0  0  0  0  0  0  0  0  0
  138.7648   81.2867  221.6961 H   0  0  0  0  0  0  0  0  0  0  0  0
  139.1669   82.3050  223.1655 H   0  0  0  0  0  0  0  0  0  0  0  0
  141.4346   82.0374  221.5630 H   0  0  0  0  0  0  0  0  0  0  0  0
  143.6494   80.9256  221.7790 H   0  0  0  0  0  0  0  0  0  0  0  0
  143.8826   78.8833  223.2160 H   0  0  0  0  0  0  0  0  0  0  0  0
  141.8921   78.0030  224.4062 H   0  0  0  0  0  0  0  0  0  0  0  0
  139.7310   79.1227  224.1688 H   0  0  0  0  0  0  0  0  0  0  0  0
  137.2813   75.6342  223.5889 H   0  0  0  0  0  0  0  0  0  0  0  0
  139.4536   74.8076  222.6747 H   0  0  0  0  0  0  0  0  0  0  0  0
  141.4097   75.2405  221.2094 H   0  0  0  0  0  0  0  0  0  0  0  0
  141.6229   78.9325  219.0646 H   0  0  0  0  0  0  0  0  0  0  0  0
  139.4490   79.6990  220.0193 H   0  0  0  0  0  0  0  0  0  0  0  0
  1  2  2  0
  2  3  1  0
  3  4  1  0
  4  5  1  0
  5  6  2  0
  5  7  1  0
  7  8  1  0
  8  9  1  0
  9 10  1  0
 10 11  1  0
 11 12  1  0
 12 13  1  0
 13 14  1  0
 14 15  1  0
 15 16  2  0
 16 17  1  0
 17 18  2  0
 18 19  1  0
 19 20  2  0
  2 21  1  0
 21 22  2  0
 22 23  1  0
 23 24  2  0
 24 25  1  0
 25 26  2  0
 26 27  1  0
 26 28  1  0
 28 29  2  0
 29 30  1  0
 30 31  2  0
 11  7  1  0
 20 15  1  0
 31 21  1  0
 30 24  1  0
  3 32  1  0
  4 33  1  0
  4 34  1  0
  8 35  1  0
  8 36  1  0
  9 37  1  0
  9 38  1  0
 10 39  1  0
 10 40  1  0
 11 41  1  6
 12 42  1  0
 12 43  1  0
 13 44  1  0
 14 45  1  0
 14 46  1  0
 16 47  1  0
 17 48  1  0
 18 49  1  0
 19 50  1  0
 20 51  1  0
 22 52  1  0
 23 53  1  0
 25 54  1  0
 28 55  1  0
 29 56  1  0
M  END
>  <smiles>  (32) 
O=C(NCC(=O)N1CCC[C@H]1CNCc1ccccc1)c1ccc2cc(Cl)ccc2n1

>  <score_type>  (32) 
oracle

>  <origin>  (32) 
autodockgpu

>  <m_score__min__energy>  (32) 
-9.3399999999999999

>  <m_primary>  (32) 
energy

>  <rmsd>  (32) 
8.348774870971516

>  <m_score__min__rmsd>  (32) 
8.348774870971516

>  <meeko>  (32) 
{"free_energy": -5.57, "intermolecular_energy": -7.96, "internal_energy": -4.73, "cluster_size": 1, "cluster_id": 15, "rank_in_cluster": 1}

>  <energy>  (32) 
-7.62

>  <cluster_rmsd>  (32) 
0.0

>  <cluster>  (32) 
8

$$$$

     RDKit          3D

 56 59  0  0  0  0  0  0  0  0999 V2000
  135.3590   74.3360  222.0820 O   0  0  0  0  0  0  0  0  0  0  0  0
  136.5850   74.4040  222.3440 C   0  0  0  0  0  0  0  0  0  0  0  0
  137.3400   73.2020  222.5240 N   0  0  0  0  0  0  0  0  0  0  0  0
  136.7500   71.8910  222.4180 C   0  0  0  0  0  0  0  0  0  0  0  0
  137.1150   71.0240  223.5670 C   0  0  0  0  0  0  0  0  0  0  0  0
  136.2560   70.5620  224.3800 O   0  0  0  0  0  0  0  0  0  0  0  0
  138.4670   70.6670  223.8180 N   0  0  0  0  0  0  0  0  0  0  0  0
  138.9450   69.2940  223.8500 C   0  0  0  0  0  0  0  0  0  0  0  0
  139.9530   69.2880  224.9770 C   0  0  0  0  0  0  0  0  0  0  0  0
  140.4350   70.7010  225.0180 C   0  0  0  0  0  0  0  0  0  0  0  0
  139.6020   71.5270  224.0850 C   0  0  1  0  0  0  0  0  0  0  0  0
  140.3090   71.9060  222.8230 C   0  0  0  0  0  0  0  0  0  0  0  0
  140.2990   73.3150  222.5500 N   0  0  0  0  0  0  0  0  0  0  0  0
  140.5710   73.6640  221.1920 C   0  0  0  0  0  0  0  0  0  0  0  0
  142.0140   73.6490  220.8370 C   0  0  0  0  0  0  0  0  0  0  0  0
  142.7920   72.5160  220.8550 C   0  0  0  0  0  0  0  0  0  0  0  0
  144.1470   72.5470  220.5130 C   0  0  0  0  0  0  0  0  0  0  0  0
  144.7380   73.7570  220.1400 C   0  0  0  0  0  0  0  0  0  0  0  0
  143.9720   74.8950  220.1170 C   0  0  0  0  0  0  0  0  0  0  0  0
  142.6470   74.8270  220.4590 C   0  0  0  0  0  0  0  0  0  0  0  0
  137.2920   75.6900  222.4770 C   0  0  0  0  0  0  0  0  0  0  0  0
  136.6170   76.8810  222.5970 C   0  0  0  0  0  0  0  0  0  0  0  0
  137.2800   78.1060  222.7230 C   0  0  0  0  0  0  0  0  0  0  0  0
  138.6780   78.0950  222.7260 C   0  0  0  0  0  0  0  0  0  0  0  0
  139.4100   79.2670  222.8470 C   0  0  0  0  0  0  0  0  0  0  0  0
  140.7860   79.2070  222.8450 C   0  0  0  0  0  0  0  0  0  0  0  0
  141.7720   80.6640  222.9970 Cl  0  0  0  0  0  0  0  0  0  0  0  0
  141.4150   77.9930  222.7230 C   0  0  0  0  0  0  0  0  0  0  0  0
  140.7260   76.7920  222.5980 C   0  0  0  0  0  0  0  0  0  0  0  0
  139.3500   76.8740  222.6030 C   0  0  0  0  0  0  0  0  0  0  0  0
  138.6400   75.7410  222.4860 N   0  0  0  0  0  0  0  0  0  0  0  0
  138.3760   73.3070  222.7450 H   0  0  0  0  0  0  0  0  0  0  0  0
  135.6555   71.9954  222.3851 H   0  0  0  0  0  0  0  0  0  0  0  0
  137.1316   71.4190  221.5006 H   0  0  0  0  0  0  0  0  0  0  0  0
  138.1201   68.5968  224.0586 H   0  0  0  0  0  0  0  0  0  0  0  0
  139.3776   68.9722  222.8912 H   0  0  0  0  0  0  0  0  0  0  0  0
  139.4780   69.0064  225.9284 H   0  0  0  0  0  0  0  0  0  0  0  0
  140.7647   68.5617  224.8232 H   0  0  0  0  0  0  0  0  0  0  0  0
  140.3415   71.0932  226.0415 H   0  0  0  0  0  0  0  0  0  0  0  0
  141.4904   70.7431  224.7108 H   0  0  0  0  0  0  0  0  0  0  0  0
  139.3349   72.4981  224.5272 H   0  0  0  0  0  0  0  0  0  0  0  0
  141.3555   71.5758  222.9000 H   0  0  0  0  0  0  0  0  0  0  0  0
  139.7710   71.4175  221.9972 H   0  0  0  0  0  0  0  0  0  0  0  0
  139.5840   73.8600  223.0270 H   0  0  0  0  0  0  0  0  0  0  0  0
  140.0479   72.9486  220.5404 H   0  0  0  0  0  0  0  0  0  0  0  0
  140.2224   74.6983  221.0553 H   0  0  0  0  0  0  0  0  0  0  0  0
  142.3358   71.5585  221.1466 H   0  0  0  0  0  0  0  0  0  0  0  0
  144.7448   71.6239  220.5374 H   0  0  0  0  0  0  0  0  0  0  0  0
  145.8032   73.7966  219.8684 H   0  0  0  0  0  0  0  0  0  0  0  0
  144.4192   75.8568  219.8256 H   0  0  0  0  0  0  0  0  0  0  0  0
  142.0535   75.7528  220.4330 H   0  0  0  0  0  0  0  0  0  0  0  0
  135.5171   76.8705  222.5938 H   0  0  0  0  0  0  0  0  0  0  0  0
  136.7195   79.0478  222.8167 H   0  0  0  0  0  0  0  0  0  0  0  0
  138.8965   80.2350  222.9436 H   0  0  0  0  0  0  0  0  0  0  0  0
  142.5147   77.9694  222.7242 H   0  0  0  0  0  0  0  0  0  0  0  0
  141.2498   75.8297  222.5005 H   0  0  0  0  0  0  0  0  0  0  0  0
  1  2  2  0
  2  3  1  0
  3  4  1  0
  4  5  1  0
  5  6  2  0
  5  7  1  0
  7  8  1  0
  8  9  1  0
  9 10  1  0
 10 11  1  0
 11 12  1  0
 12 13  1  0
 13 14  1  0
 14 15  1  0
 15 16  2  0
 16 17  1  0
 17 18  2  0
 18 19  1  0
 19 20  2  0
  2 21  1  0
 21 22  2  0
 22 23  1  0
 23 24  2  0
 24 25  1  0
 25 26  2  0
 26 27  1  0
 26 28  1  0
 28 29  2  0
 29 30  1  0
 30 31  2  0
 11  7  1  0
 20 15  1  0
 31 21  1  0
 30 24  1  0
  3 32  1  0
  4 33  1  0
  4 34  1  0
  8 35  1  0
  8 36  1  0
  9 37  1  0
  9 38  1  0
 10 39  1  0
 10 40  1  0
 11 41  1  1
 12 42  1  0
 12 43  1  0
 13 44  1  0
 14 45  1  0
 14 46  1  0
 16 47  1  0
 17 48  1  0
 18 49  1  0
 19 50  1  0
 20 51  1  0
 22 52  1  0
 23 53  1  0
 25 54  1  0
 28 55  1  0
 29 56  1  0
M  END
>  <smiles>  (33) 
O=C(NCC(=O)N1CCC[C@H]1CNCc1ccccc1)c1ccc2cc(Cl)ccc2n1

>  <score_type>  (33) 
oracle

>  <origin>  (33) 
autodockgpu

>  <m_score__min__energy>  (33) 
-9.3399999999999999

>  <m_primary>  (33) 
energy

>  <rmsd>  (33) 
7.9995483861599315

>  <m_score__min__rmsd>  (33) 
7.9995483861599315

>  <meeko>  (33) 
{"free_energy": -7.67, "intermolecular_energy": -10.06, "internal_energy": -3.66, "cluster_size": 4, "cluster_id": 7, "rank_in_cluster": 1}

>  <energy>  (33) 
-6.86

>  <cluster_rmsd>  (33) 
0.9

>  <cluster>  (33) 
8

$$$$

     RDKit          3D

 56 59  0  0  0  0  0  0  0  0999 V2000
  139.9430   73.9010  221.9510 O   0  0  0  0  0  0  0  0  0  0  0  0
  140.2860   75.1090  221.8990 C   0  0  0  0  0  0  0  0  0  0  0  0
  141.6020   75.4530  221.4550 N   0  0  0  0  0  0  0  0  0  0  0  0
  142.5720   74.4650  221.0570 C   0  0  0  0  0  0  0  0  0  0  0  0
  143.5400   75.0040  220.0690 C   0  0  0  0  0  0  0  0  0  0  0  0
  144.7970   74.9660  220.2470 O   0  0  0  0  0  0  0  0  0  0  0  0
  143.0990   75.6000  218.8580 N   0  0  0  0  0  0  0  0  0  0  0  0
  142.7180   74.8420  217.6770 C   0  0  0  0  0  0  0  0  0  0  0  0
  143.2530   75.6660  216.5290 C   0  0  0  0  0  0  0  0  0  0  0  0
  143.2700   77.0550  217.0770 C   0  0  0  0  0  0  0  0  0  0  0  0
  142.9410   77.0050  218.5390 C   0  0  1  0  0  0  0  0  0  0  0  0
  141.5630   77.4880  218.8620 C   0  0  0  0  0  0  0  0  0  0  0  0
  141.4640   78.1680  220.1220 N   0  0  0  0  0  0  0  0  0  0  0  0
  141.7160   79.5730  220.0650 C   0  0  0  0  0  0  0  0  0  0  0  0
  141.9810   80.1980  221.3880 C   0  0  0  0  0  0  0  0  0  0  0  0
  141.5770   81.4680  221.7250 C   0  0  0  0  0  0  0  0  0  0  0  0
  141.8470   82.0170  222.9830 C   0  0  0  0  0  0  0  0  0  0  0  0
  142.5450   81.2630  223.9300 C   0  0  0  0  0  0  0  0  0  0  0  0
  142.9530   79.9940  223.6060 C   0  0  0  0  0  0  0  0  0  0  0  0
  142.6710   79.4890  222.3640 C   0  0  0  0  0  0  0  0  0  0  0  0
  139.3770   76.2030  222.2830 C   0  0  0  0  0  0  0  0  0  0  0  0
  138.0110   76.0730  222.2070 C   0  0  0  0  0  0  0  0  0  0  0  0
  137.1420   77.1070  222.5690 C   0  0  0  0  0  0  0  0  0  0  0  0
  137.7030   78.3040  223.0220 C   0  0  0  0  0  0  0  0  0  0  0  0
  136.9090   79.3770  223.4010 C   0  0  0  0  0  0  0  0  0  0  0  0
  137.5070   80.5370  223.8410 C   0  0  0  0  0  0  0  0  0  0  0  0
  136.5500   81.9350  224.3380 Cl  0  0  0  0  0  0  0  0  0  0  0  0
  138.8760   80.6180  223.9010 C   0  0  0  0  0  0  0  0  0  0  0  0
  139.7140   79.5720  223.5320 C   0  0  0  0  0  0  0  0  0  0  0  0
  139.0960   78.4200  223.0940 C   0  0  0  0  0  0  0  0  0  0  0  0
  139.8620   77.3800  222.7280 N   0  0  0  0  0  0  0  0  0  0  0  0
  141.8490   76.4890  221.4270 H   0  0  0  0  0  0  0  0  0  0  0  0
  143.1232   74.1292  221.9478 H   0  0  0  0  0  0  0  0  0  0  0  0
  142.0333   73.6301  220.5850 H   0  0  0  0  0  0  0  0  0  0  0  0
  143.1768   73.8423  217.6886 H   0  0  0  0  0  0  0  0  0  0  0  0
  141.6326   74.6762  217.6109 H   0  0  0  0  0  0  0  0  0  0  0  0
  144.2661   75.3408  216.2499 H   0  0  0  0  0  0  0  0  0  0  0  0
  142.6477   75.5727  215.6153 H   0  0  0  0  0  0  0  0  0  0  0  0
  144.2688   77.4944  216.9382 H   0  0  0  0  0  0  0  0  0  0  0  0
  142.5284   77.6727  216.5493 H   0  0  0  0  0  0  0  0  0  0  0  0
  143.5875   77.6734  219.1266 H   0  0  0  0  0  0  0  0  0  0  0  0
  141.2443   78.1806  218.0690 H   0  0  0  0  0  0  0  0  0  0  0  0
  140.9208   76.5974  218.9293 H   0  0  0  0  0  0  0  0  0  0  0  0
  140.7140   77.8640  220.7400 H   0  0  0  0  0  0  0  0  0  0  0  0
  142.5928   79.7406  219.4223 H   0  0  0  0  0  0  0  0  0  0  0  0
  140.8029   80.0426  219.6703 H   0  0  0  0  0  0  0  0  0  0  0  0
  141.0267   82.0686  220.9857 H   0  0  0  0  0  0  0  0  0  0  0  0
  141.5118   83.0363  223.2253 H   0  0  0  0  0  0  0  0  0  0  0  0
  142.7646   81.6819  224.9231 H   0  0  0  0  0  0  0  0  0  0  0  0
  143.5032   79.3856  224.3389 H   0  0  0  0  0  0  0  0  0  0  0  0
  143.0083   78.4692  222.1270 H   0  0  0  0  0  0  0  0  0  0  0  0
  137.5868   75.1232  221.8492 H   0  0  0  0  0  0  0  0  0  0  0  0
  136.0513   76.9821  222.4994 H   0  0  0  0  0  0  0  0  0  0  0  0
  135.8127   79.3019  223.3505 H   0  0  0  0  0  0  0  0  0  0  0  0
  139.3310   81.5539  224.2576 H   0  0  0  0  0  0  0  0  0  0  0  0
  140.8092   79.6586  223.5864 H   0  0  0  0  0  0  0  0  0  0  0  0
  1  2  2  0
  2  3  1  0
  3  4  1  0
  4  5  1  0
  5  6  2  0
  5  7  1  0
  7  8  1  0
  8  9  1  0
  9 10  1  0
 10 11  1  0
 11 12  1  0
 12 13  1  0
 13 14  1  0
 14 15  1  0
 15 16  2  0
 16 17  1  0
 17 18  2  0
 18 19  1  0
 19 20  2  0
  2 21  1  0
 21 22  2  0
 22 23  1  0
 23 24  2  0
 24 25  1  0
 25 26  2  0
 26 27  1  0
 26 28  1  0
 28 29  2  0
 29 30  1  0
 30 31  2  0
 11  7  1  0
 20 15  1  0
 31 21  1  0
 30 24  1  0
  3 32  1  0
  4 33  1  0
  4 34  1  0
  8 35  1  0
  8 36  1  0
  9 37  1  0
  9 38  1  0
 10 39  1  0
 10 40  1  0
 11 41  1  1
 12 42  1  0
 12 43  1  0
 13 44  1  0
 14 45  1  0
 14 46  1  0
 16 47  1  0
 17 48  1  0
 18 49  1  0
 19 50  1  0
 20 51  1  0
 22 52  1  0
 23 53  1  0
 25 54  1  0
 28 55  1  0
 29 56  1  0
M  END
>  <smiles>  (34) 
O=C(NCC(=O)N1CCC[C@H]1CNCc1ccccc1)c1ccc2cc(Cl)ccc2n1

>  <score_type>  (34) 
oracle

>  <origin>  (34) 
autodockgpu

>  <m_score__min__energy>  (34) 
-9.3399999999999999

>  <m_primary>  (34) 
energy

>  <rmsd>  (34) 
6.159676239682862

>  <m_score__min__rmsd>  (34) 
6.159676239682862

>  <meeko>  (34) 
{"free_energy": -6.77, "intermolecular_energy": -9.15, "internal_energy": -4.07, "cluster_size": 3, "cluster_id": 11, "rank_in_cluster": 1}

>  <energy>  (34) 
-5.92

>  <cluster_rmsd>  (34) 
1.73

>  <cluster>  (34) 
8

$$$$

     RDKit          3D

 56 59  0  0  0  0  0  0  0  0999 V2000
  140.3950   72.5390  220.5880 O   0  0  0  0  0  0  0  0  0  0  0  0
  140.0950   72.8550  221.7670 C   0  0  0  0  0  0  0  0  0  0  0  0
  139.7670   74.2130  222.0760 N   0  0  0  0  0  0  0  0  0  0  0  0
  139.7640   75.2570  221.0830 C   0  0  0  0  0  0  0  0  0  0  0  0
  141.1310   75.5510  220.5840 C   0  0  0  0  0  0  0  0  0  0  0  0
  142.1810   75.2340  221.2250 O   0  0  0  0  0  0  0  0  0  0  0  0
  141.3340   76.2140  219.3440 N   0  0  0  0  0  0  0  0  0  0  0  0
  142.3970   77.1800  219.1110 C   0  0  0  0  0  0  0  0  0  0  0  0
  141.7470   78.2280  218.2370 C   0  0  0  0  0  0  0  0  0  0  0  0
  140.6720   77.4710  217.5290 C   0  0  0  0  0  0  0  0  0  0  0  0
  140.5810   76.0940  218.1120 C   0  0  1  0  0  0  0  0  0  0  0  0
  141.1460   75.0280  217.2280 C   0  0  0  0  0  0  0  0  0  0  0  0
  141.2050   73.7320  217.8420 N   0  0  0  0  0  0  0  0  0  0  0  0
  142.4450   73.0440  217.6720 C   0  0  0  0  0  0  0  0  0  0  0  0
  143.3350   73.0910  218.8620 C   0  0  0  0  0  0  0  0  0  0  0  0
  144.1970   74.1290  219.1280 C   0  0  0  0  0  0  0  0  0  0  0  0
  145.0160   74.1340  220.2610 C   0  0  0  0  0  0  0  0  0  0  0  0
  144.9660   73.0590  221.1530 C   0  0  0  0  0  0  0  0  0  0  0  0
  144.1100   72.0180  220.9000 C   0  0  0  0  0  0  0  0  0  0  0  0
  143.3220   72.0480  219.7790 C   0  0  0  0  0  0  0  0  0  0  0  0
  140.0670   71.8690  222.8620 C   0  0  0  0  0  0  0  0  0  0  0  0
  139.5720   70.6000  222.6850 C   0  0  0  0  0  0  0  0  0  0  0  0
  139.5410   69.6590  223.7190 C   0  0  0  0  0  0  0  0  0  0  0  0
  140.0360   70.0450  224.9680 C   0  0  0  0  0  0  0  0  0  0  0  0
  140.0420   69.1710  226.0450 C   0  0  0  0  0  0  0  0  0  0  0  0
  140.5400   69.5950  227.2570 C   0  0  0  0  0  0  0  0  0  0  0  0
  140.5750   68.5290  228.6640 Cl  0  0  0  0  0  0  0  0  0  0  0  0
  141.0240   70.8730  227.3840 C   0  0  0  0  0  0  0  0  0  0  0  0
  141.0400   71.7860  226.3360 C   0  0  0  0  0  0  0  0  0  0  0  0
  140.5370   71.3410  225.1320 C   0  0  0  0  0  0  0  0  0  0  0  0
  140.5310   72.1850  224.0880 N   0  0  0  0  0  0  0  0  0  0  0  0
  139.5180   74.4330  223.0880 H   0  0  0  0  0  0  0  0  0  0  0  0
  139.1369   74.9407  220.2364 H   0  0  0  0  0  0  0  0  0  0  0  0
  139.3681   76.1707  221.5504 H   0  0  0  0  0  0  0  0  0  0  0  0
  142.7420   77.6192  220.0587 H   0  0  0  0  0  0  0  0  0  0  0  0
  143.2862   76.7299  218.6454 H   0  0  0  0  0  0  0  0  0  0  0  0
  141.3213   79.0393  218.8458 H   0  0  0  0  0  0  0  0  0  0  0  0
  142.4553   78.7123  217.5488 H   0  0  0  0  0  0  0  0  0  0  0  0
  139.7104   77.9898  217.6563 H   0  0  0  0  0  0  0  0  0  0  0  0
  140.9076   77.4059  216.4565 H   0  0  0  0  0  0  0  0  0  0  0  0
  139.5367   75.7788  218.2535 H   0  0  0  0  0  0  0  0  0  0  0  0
  140.5180   74.9561  216.3278 H   0  0  0  0  0  0  0  0  0  0  0  0
  142.1817   75.3196  216.9993 H   0  0  0  0  0  0  0  0  0  0  0  0
  140.7560   73.6440  218.7510 H   0  0  0  0  0  0  0  0  0  0  0  0
  142.2267   71.9899  217.4457 H   0  0  0  0  0  0  0  0  0  0  0  0
  142.9799   73.5525  216.8563 H   0  0  0  0  0  0  0  0  0  0  0  0
  144.2433   74.9783  218.4305 H   0  0  0  0  0  0  0  0  0  0  0  0
  145.6953   74.9784  220.4493 H   0  0  0  0  0  0  0  0  0  0  0  0
  145.6059   73.0482  222.0476 H   0  0  0  0  0  0  0  0  0  0  0  0
  144.0561   71.1647  221.5920 H   0  0  0  0  0  0  0  0  0  0  0  0
  142.6437   71.2016  219.5960 H   0  0  0  0  0  0  0  0  0  0  0  0
  139.1865   70.3139  221.6953 H   0  0  0  0  0  0  0  0  0  0  0  0
  139.1401   68.6479  223.5548 H   0  0  0  0  0  0  0  0  0  0  0  0
  139.6526   68.1485  225.9321 H   0  0  0  0  0  0  0  0  0  0  0  0
  141.4178   71.1897  228.3611 H   0  0  0  0  0  0  0  0  0  0  0  0
  141.4320   72.8063  226.4603 H   0  0  0  0  0  0  0  0  0  0  0  0
  1  2  2  0
  2  3  1  0
  3  4  1  0
  4  5  1  0
  5  6  2  0
  5  7  1  0
  7  8  1  0
  8  9  1  0
  9 10  1  0
 10 11  1  0
 11 12  1  0
 12 13  1  0
 13 14  1  0
 14 15  1  0
 15 16  2  0
 16 17  1  0
 17 18  2  0
 18 19  1  0
 19 20  2  0
  2 21  1  0
 21 22  2  0
 22 23  1  0
 23 24  2  0
 24 25  1  0
 25 26  2  0
 26 27  1  0
 26 28  1  0
 28 29  2  0
 29 30  1  0
 30 31  2  0
 11  7  1  0
 20 15  1  0
 31 21  1  0
 30 24  1  0
  3 32  1  0
  4 33  1  0
  4 34  1  0
  8 35  1  0
  8 36  1  0
  9 37  1  0
  9 38  1  0
 10 39  1  0
 10 40  1  0
 11 41  1  1
 12 42  1  0
 12 43  1  0
 13 44  1  0
 14 45  1  0
 14 46  1  0
 16 47  1  0
 17 48  1  0
 18 49  1  0
 19 50  1  0
 20 51  1  0
 22 52  1  0
 23 53  1  0
 25 54  1  0
 28 55  1  0
 29 56  1  0
M  END
>  <smiles>  (35) 
O=C(NCC(=O)N1CCC[C@H]1CNCc1ccccc1)c1ccc2cc(Cl)ccc2n1

>  <score_type>  (35) 
oracle

>  <origin>  (35) 
autodockgpu

>  <m_score__min__energy>  (35) 
-9.3399999999999999

>  <m_primary>  (35) 
energy

>  <rmsd>  (35) 
5.322151241717982

>  <m_score__min__rmsd>  (35) 
5.322151241717982

>  <meeko>  (35) 
{"free_energy": -6.6, "intermolecular_energy": -8.99, "internal_energy": -3.46, "cluster_size": 10, "cluster_id": 1, "rank_in_cluster": 10}

>  <energy>  (35) 
-7.39

>  <cluster_rmsd>  (35) 
0.0

>  <cluster>  (35) 
9

$$$$

     RDKit          3D

 56 59  0  0  0  0  0  0  0  0999 V2000
  139.1580   72.0590  220.6640 O   0  0  0  0  0  0  0  0  0  0  0  0
  139.3560   72.4340  221.8470 C   0  0  0  0  0  0  0  0  0  0  0  0
  139.4200   73.8320  222.1460 N   0  0  0  0  0  0  0  0  0  0  0  0
  139.2660   74.8500  221.1390 C   0  0  0  0  0  0  0  0  0  0  0  0
  139.8530   76.1460  221.5660 C   0  0  0  0  0  0  0  0  0  0  0  0
  140.3920   76.3150  222.7030 O   0  0  0  0  0  0  0  0  0  0  0  0
  139.8370   77.2780  220.7090 N   0  0  0  0  0  0  0  0  0  0  0  0
  138.8470   78.3400  220.7940 C   0  0  0  0  0  0  0  0  0  0  0  0
  138.5760   78.6980  219.3500 C   0  0  0  0  0  0  0  0  0  0  0  0
  139.8470   78.3300  218.6570 C   0  0  0  0  0  0  0  0  0  0  0  0
  140.7390   77.6140  219.6250 C   0  0  1  0  0  0  0  0  0  0  0  0
  141.8900   78.4390  220.1060 C   0  0  0  0  0  0  0  0  0  0  0  0
  142.1730   78.2840  221.5050 N   0  0  0  0  0  0  0  0  0  0  0  0
  142.2610   79.5080  222.2370 C   0  0  0  0  0  0  0  0  0  0  0  0
  140.9510   80.0340  222.7010 C   0  0  0  0  0  0  0  0  0  0  0  0
  140.3590   81.1650  222.1910 C   0  0  0  0  0  0  0  0  0  0  0  0
  139.1240   81.6250  222.6570 C   0  0  0  0  0  0  0  0  0  0  0  0
  138.4630   80.9230  223.6690 C   0  0  0  0  0  0  0  0  0  0  0  0
  139.0420   79.7920  224.1860 C   0  0  0  0  0  0  0  0  0  0  0  0
  140.2540   79.3710  223.7050 C   0  0  0  0  0  0  0  0  0  0  0  0
  139.5280   71.4800  222.9570 C   0  0  0  0  0  0  0  0  0  0  0  0
  139.1220   70.1710  222.8600 C   0  0  0  0  0  0  0  0  0  0  0  0
  139.2810   69.2600  223.9090 C   0  0  0  0  0  0  0  0  0  0  0  0
  139.8780   69.7180  225.0860 C   0  0  0  0  0  0  0  0  0  0  0  0
  140.0740   68.8770  226.1720 C   0  0  0  0  0  0  0  0  0  0  0  0
  140.6660   69.3720  227.3130 C   0  0  0  0  0  0  0  0  0  0  0  0
  140.9420   68.3510  228.7260 Cl  0  0  0  0  0  0  0  0  0  0  0  0
  141.0570   70.6870  227.3610 C   0  0  0  0  0  0  0  0  0  0  0  0
  140.8820   71.5690  226.3010 C   0  0  0  0  0  0  0  0  0  0  0  0
  140.2880   71.0540  225.1690 C   0  0  0  0  0  0  0  0  0  0  0  0
  140.0980   71.8650  224.1170 N   0  0  0  0  0  0  0  0  0  0  0  0
  139.5890   74.1030  223.1620 H   0  0  0  0  0  0  0  0  0  0  0  0
  139.7685   74.5183  220.2184 H   0  0  0  0  0  0  0  0  0  0  0  0
  138.1897   75.0026  220.9709 H   0  0  0  0  0  0  0  0  0  0  0  0
  137.9311   77.9831  221.2877 H   0  0  0  0  0  0  0  0  0  0  0  0
  139.1947   79.1988  221.3868 H   0  0  0  0  0  0  0  0  0  0  0  0
  137.7294   78.1185  218.9531 H   0  0  0  0  0  0  0  0  0  0  0  0
  138.3034   79.7549  219.2138 H   0  0  0  0  0  0  0  0  0  0  0  0
  139.6250   77.6723  217.8037 H   0  0  0  0  0  0  0  0  0  0  0  0
  140.3479   79.2383  218.2910 H   0  0  0  0  0  0  0  0  0  0  0  0
  141.2278   76.7435  219.1630 H   0  0  0  0  0  0  0  0  0  0  0  0
  142.7857   78.1486  219.5373 H   0  0  0  0  0  0  0  0  0  0  0  0
  141.6142   79.4925  219.9511 H   0  0  0  0  0  0  0  0  0  0  0  0
  141.7150   77.5040  221.9730 H   0  0  0  0  0  0  0  0  0  0  0  0
  142.8967   79.3382  223.1185 H   0  0  0  0  0  0  0  0  0  0  0  0
  142.6784   80.2587  221.5498 H   0  0  0  0  0  0  0  0  0  0  0  0
  140.8714   81.7236  221.3939 H   0  0  0  0  0  0  0  0  0  0  0  0
  138.6750   82.5339  222.2299 H   0  0  0  0  0  0  0  0  0  0  0  0
  137.4908   81.2731  224.0461 H   0  0  0  0  0  0  0  0  0  0  0  0
  138.5362   79.2262  224.9823 H   0  0  0  0  0  0  0  0  0  0  0  0
  140.6985   78.4615  224.1354 H   0  0  0  0  0  0  0  0  0  0  0  0
  138.6557   69.8277  221.9248 H   0  0  0  0  0  0  0  0  0  0  0  0
  138.9468   68.2166  223.8105 H   0  0  0  0  0  0  0  0  0  0  0  0
  139.7594   67.8241  226.1222 H   0  0  0  0  0  0  0  0  0  0  0  0
  141.5308   71.0601  228.2810 H   0  0  0  0  0  0  0  0  0  0  0  0
  141.2001   72.6202  226.3623 H   0  0  0  0  0  0  0  0  0  0  0  0
  1  2  2  0
  2  3  1  0
  3  4  1  0
  4  5  1  0
  5  6  2  0
  5  7  1  0
  7  8  1  0
  8  9  1  0
  9 10  1  0
 10 11  1  0
 11 12  1  0
 12 13  1  0
 13 14  1  0
 14 15  1  0
 15 16  2  0
 16 17  1  0
 17 18  2  0
 18 19  1  0
 19 20  2  0
  2 21  1  0
 21 22  2  0
 22 23  1  0
 23 24  2  0
 24 25  1  0
 25 26  2  0
 26 27  1  0
 26 28  1  0
 28 29  2  0
 29 30  1  0
 30 31  2  0
 11  7  1  0
 20 15  1  0
 31 21  1  0
 30 24  1  0
  3 32  1  0
  4 33  1  0
  4 34  1  0
  8 35  1  0
  8 36  1  0
  9 37  1  0
  9 38  1  0
 10 39  1  0
 10 40  1  0
 11 41  1  6
 12 42  1  0
 12 43  1  0
 13 44  1  0
 14 45  1  0
 14 46  1  0
 16 47  1  0
 17 48  1  0
 18 49  1  0
 19 50  1  0
 20 51  1  0
 22 52  1  0
 23 53  1  0
 25 54  1  0
 28 55  1  0
 29 56  1  0
M  END
>  <smiles>  (36) 
O=C(NCC(=O)N1CCC[C@H]1CNCc1ccccc1)c1ccc2cc(Cl)ccc2n1

>  <score_type>  (36) 
oracle

>  <origin>  (36) 
autodockgpu

>  <m_score__min__energy>  (36) 
-9.3399999999999999

>  <m_primary>  (36) 
energy

>  <rmsd>  (36) 
2.4114615179123717

>  <m_score__min__rmsd>  (36) 
2.4114615179123717

>  <meeko>  (36) 
{"free_energy": -7.64, "intermolecular_energy": -10.03, "internal_energy": -3.24, "cluster_size": 6, "cluster_id": 3, "rank_in_cluster": 6}

>  <energy>  (36) 
-7.25

>  <cluster_rmsd>  (36) 
1.16

>  <cluster>  (36) 
9

$$$$

     RDKit          3D

 56 59  0  0  0  0  0  0  0  0999 V2000
  138.9910   72.1040  220.5230 O   0  0  0  0  0  0  0  0  0  0  0  0
  139.0260   72.4650  221.7260 C   0  0  0  0  0  0  0  0  0  0  0  0
  138.8000   73.8370  222.0620 N   0  0  0  0  0  0  0  0  0  0  0  0
  138.5310   74.8460  221.0690 C   0  0  0  0  0  0  0  0  0  0  0  0
  139.7680   75.2840  220.3740 C   0  0  0  0  0  0  0  0  0  0  0  0
  140.1350   74.8050  219.2570 O   0  0  0  0  0  0  0  0  0  0  0  0
  140.6150   76.2750  220.9360 N   0  0  0  0  0  0  0  0  0  0  0  0
  141.0260   76.2880  222.3310 C   0  0  0  0  0  0  0  0  0  0  0  0
  141.0110   77.7540  222.6990 C   0  0  0  0  0  0  0  0  0  0  0  0
  141.2560   78.4420  221.3950 C   0  0  0  0  0  0  0  0  0  0  0  0
  141.2220   77.4250  220.2950 C   0  0  1  0  0  0  0  0  0  0  0  0
  142.5720   77.0930  219.7410 C   0  0  0  0  0  0  0  0  0  0  0  0
  142.5350   76.2280  218.5970 N   0  0  0  0  0  0  0  0  0  0  0  0
  143.7100   75.4380  218.4060 C   0  0  0  0  0  0  0  0  0  0  0  0
  143.8520   74.3160  219.3700 C   0  0  0  0  0  0  0  0  0  0  0  0
  144.9750   74.1080  220.1360 C   0  0  0  0  0  0  0  0  0  0  0  0
  145.0670   73.0390  221.0340 C   0  0  0  0  0  0  0  0  0  0  0  0
  143.9940   72.1530  221.1630 C   0  0  0  0  0  0  0  0  0  0  0  0
  142.8680   72.3500  220.4050 C   0  0  0  0  0  0  0  0  0  0  0  0
  142.8130   73.4080  219.5360 C   0  0  0  0  0  0  0  0  0  0  0  0
  139.2930   71.5190  222.8240 C   0  0  0  0  0  0  0  0  0  0  0  0
  138.9780   70.1850  222.7270 C   0  0  0  0  0  0  0  0  0  0  0  0
  139.2280   69.2810  223.7640 C   0  0  0  0  0  0  0  0  0  0  0  0
  139.8200   69.7730  224.9300 C   0  0  0  0  0  0  0  0  0  0  0  0
  140.1020   68.9410  226.0050 C   0  0  0  0  0  0  0  0  0  0  0  0
  140.6860   69.4710  227.1340 C   0  0  0  0  0  0  0  0  0  0  0  0
  141.0690   68.4630  228.5320 Cl  0  0  0  0  0  0  0  0  0  0  0  0
  140.9830   70.8100  227.1830 C   0  0  0  0  0  0  0  0  0  0  0  0
  140.7200   71.6840  226.1340 C   0  0  0  0  0  0  0  0  0  0  0  0
  140.1360   71.1340  225.0140 C   0  0  0  0  0  0  0  0  0  0  0  0
  139.8630   71.9370  223.9720 N   0  0  0  0  0  0  0  0  0  0  0  0
  138.8380   74.0970  223.0940 H   0  0  0  0  0  0  0  0  0  0  0  0
  137.8319   74.4355  220.3255 H   0  0  0  0  0  0  0  0  0  0  0  0
  138.0998   75.7197  221.5795 H   0  0  0  0  0  0  0  0  0  0  0  0
  140.3181   75.7208  222.9532 H   0  0  0  0  0  0  0  0  0  0  0  0
  142.0091   75.8204  222.4887 H   0  0  0  0  0  0  0  0  0  0  0  0
  140.0370   78.0440  223.1200 H   0  0  0  0  0  0  0  0  0  0  0  0
  141.7558   78.0113  223.4665 H   0  0  0  0  0  0  0  0  0  0  0  0
  140.4749   79.1973  221.2237 H   0  0  0  0  0  0  0  0  0  0  0  0
  142.2380   78.9374  221.4140 H   0  0  0  0  0  0  0  0  0  0  0  0
  140.6705   77.7916  219.4167 H   0  0  0  0  0  0  0  0  0  0  0  0
  143.0670   78.0312  219.4498 H   0  0  0  0  0  0  0  0  0  0  0  0
  143.1172   76.5548  220.5304 H   0  0  0  0  0  0  0  0  0  0  0  0
  141.6440   75.7740  218.4050 H   0  0  0  0  0  0  0  0  0  0  0  0
  143.6823   75.0183  217.3896 H   0  0  0  0  0  0  0  0  0  0  0  0
  144.5696   76.1050  218.5679 H   0  0  0  0  0  0  0  0  0  0  0  0
  145.8240   74.8009  220.0401 H   0  0  0  0  0  0  0  0  0  0  0  0
  145.9777   72.8969  221.6344 H   0  0  0  0  0  0  0  0  0  0  0  0
  144.0518   71.3075  221.8643 H   0  0  0  0  0  0  0  0  0  0  0  0
  142.0139   71.6625  220.4942 H   0  0  0  0  0  0  0  0  0  0  0  0
  141.8994   73.5458  218.9390 H   0  0  0  0  0  0  0  0  0  0  0  0
  138.5129   69.8154  221.8012 H   0  0  0  0  0  0  0  0  0  0  0  0
  138.9670   68.2170  223.6650 H   0  0  0  0  0  0  0  0  0  0  0  0
  139.8613   67.8688  225.9555 H   0  0  0  0  0  0  0  0  0  0  0  0
  141.4508   71.2104  228.0945 H   0  0  0  0  0  0  0  0  0  0  0  0
  140.9646   72.7547  226.1950 H   0  0  0  0  0  0  0  0  0  0  0  0
  1  2  2  0
  2  3  1  0
  3  4  1  0
  4  5  1  0
  5  6  2  0
  5  7  1  0
  7  8  1  0
  8  9  1  0
  9 10  1  0
 10 11  1  0
 11 12  1  0
 12 13  1  0
 13 14  1  0
 14 15  1  0
 15 16  2  0
 16 17  1  0
 17 18  2  0
 18 19  1  0
 19 20  2  0
  2 21  1  0
 21 22  2  0
 22 23  1  0
 23 24  2  0
 24 25  1  0
 25 26  2  0
 26 27  1  0
 26 28  1  0
 28 29  2  0
 29 30  1  0
 30 31  2  0
 11  7  1  0
 20 15  1  0
 31 21  1  0
 30 24  1  0
  3 32  1  0
  4 33  1  0
  4 34  1  0
  8 35  1  0
  8 36  1  0
  9 37  1  0
  9 38  1  0
 10 39  1  0
 10 40  1  0
 11 41  1  6
 12 42  1  0
 12 43  1  0
 13 44  1  0
 14 45  1  0
 14 46  1  0
 16 47  1  0
 17 48  1  0
 18 49  1  0
 19 50  1  0
 20 51  1  0
 22 52  1  0
 23 53  1  0
 25 54  1  0
 28 55  1  0
 29 56  1  0
M  END
>  <smiles>  (37) 
O=C(NCC(=O)N1CCC[C@H]1CNCc1ccccc1)c1ccc2cc(Cl)ccc2n1

>  <score_type>  (37) 
oracle

>  <origin>  (37) 
autodockgpu

>  <m_score__min__energy>  (37) 
-9.3399999999999999

>  <m_primary>  (37) 
energy

>  <rmsd>  (37) 
5.121264200211893

>  <m_score__min__rmsd>  (37) 
5.121264200211893

>  <meeko>  (37) 
{"free_energy": -7.29, "intermolecular_energy": -9.68, "internal_energy": -3.14, "cluster_size": 10, "cluster_id": 1, "rank_in_cluster": 9}

>  <energy>  (37) 
-7.17

>  <cluster_rmsd>  (37) 
0.8

>  <cluster>  (37) 
9

$$$$

     RDKit          3D

 56 59  0  0  0  0  0  0  0  0999 V2000
  137.9960   76.5310  223.3710 O   0  0  0  0  0  0  0  0  0  0  0  0
  138.4350   77.1290  222.3570 C   0  0  0  0  0  0  0  0  0  0  0  0
  138.8540   76.3750  221.2150 N   0  0  0  0  0  0  0  0  0  0  0  0
  138.7970   74.9360  221.1700 C   0  0  0  0  0  0  0  0  0  0  0  0
  140.1300   74.3210  221.3920 C   0  0  0  0  0  0  0  0  0  0  0  0
  140.3670   73.5200  222.3490 O   0  0  0  0  0  0  0  0  0  0  0  0
  141.2240   74.6070  220.5320 N   0  0  0  0  0  0  0  0  0  0  0  0
  141.7810   73.6490  219.5910 C   0  0  0  0  0  0  0  0  0  0  0  0
  143.2700   73.9030  219.6530 C   0  0  0  0  0  0  0  0  0  0  0  0
  143.3600   75.3370  220.0610 C   0  0  0  0  0  0  0  0  0  0  0  0
  141.9880   75.8320  220.4050 C   0  0  1  0  0  0  0  0  0  0  0  0
  141.3990   76.7390  219.3720 C   0  0  0  0  0  0  0  0  0  0  0  0
  140.8650   77.9600  219.9030 N   0  0  0  0  0  0  0  0  0  0  0  0
  141.8200   79.0100  220.0670 C   0  0  0  0  0  0  0  0  0  0  0  0
  141.9430   79.5080  221.4620 C   0  0  0  0  0  0  0  0  0  0  0  0
  142.1870   80.8220  221.7830 C   0  0  0  0  0  0  0  0  0  0  0  0
  142.2950   81.2490  223.1110 C   0  0  0  0  0  0  0  0  0  0  0  0
  142.1520   80.3220  224.1470 C   0  0  0  0  0  0  0  0  0  0  0  0
  141.9070   79.0080  223.8400 C   0  0  0  0  0  0  0  0  0  0  0  0
  141.8080   78.6260  222.5280 C   0  0  0  0  0  0  0  0  0  0  0  0
  138.5390   78.5970  222.2930 C   0  0  0  0  0  0  0  0  0  0  0  0
  138.4110   79.3850  223.4120 C   0  0  0  0  0  0  0  0  0  0  0  0
  138.5070   80.7790  223.3590 C   0  0  0  0  0  0  0  0  0  0  0  0
  138.7430   81.3700  222.1150 C   0  0  0  0  0  0  0  0  0  0  0  0
  138.8530   82.7470  221.9780 C   0  0  0  0  0  0  0  0  0  0  0  0
  139.0860   83.2850  220.7320 C   0  0  0  0  0  0  0  0  0  0  0  0
  139.2370   85.0280  220.4950 Cl  0  0  0  0  0  0  0  0  0  0  0  0
  139.2080   82.4570  219.6440 C   0  0  0  0  0  0  0  0  0  0  0  0
  139.1050   81.0740  219.7290 C   0  0  0  0  0  0  0  0  0  0  0  0
  138.8720   80.5550  220.9850 C   0  0  0  0  0  0  0  0  0  0  0  0
  138.7660   79.2240  221.1200 N   0  0  0  0  0  0  0  0  0  0  0  0
  139.2190   76.9240  220.3780 H   0  0  0  0  0  0  0  0  0  0  0  0
  138.1081   74.5829  221.9515 H   0  0  0  0  0  0  0  0  0  0  0  0
  138.4478   74.6402  220.1697 H   0  0  0  0  0  0  0  0  0  0  0  0
  141.5466   72.6186  219.8965 H   0  0  0  0  0  0  0  0  0  0  0  0
  141.3726   73.7643  218.5761 H   0  0  0  0  0  0  0  0  0  0  0  0
  143.7498   73.2510  220.3978 H   0  0  0  0  0  0  0  0  0  0  0  0
  143.7812   73.6944  218.7016 H   0  0  0  0  0  0  0  0  0  0  0  0
  144.0168   75.4305  220.9384 H   0  0  0  0  0  0  0  0  0  0  0  0
  143.7747   75.9336  219.2352 H   0  0  0  0  0  0  0  0  0  0  0  0
  141.9940   76.4527  221.3131 H   0  0  0  0  0  0  0  0  0  0  0  0
  142.1852   76.9925  218.6456 H   0  0  0  0  0  0  0  0  0  0  0  0
  140.5583   76.1966  218.9147 H   0  0  0  0  0  0  0  0  0  0  0  0
  139.9430   78.2310  219.5680 H   0  0  0  0  0  0  0  0  0  0  0  0
  142.8033   78.6354  219.7463 H   0  0  0  0  0  0  0  0  0  0  0  0
  141.4677   79.8561  219.4588 H   0  0  0  0  0  0  0  0  0  0  0  0
  142.3005   81.5581  220.9736 H   0  0  0  0  0  0  0  0  0  0  0  0
  142.4912   82.3073  223.3381 H   0  0  0  0  0  0  0  0  0  0  0  0
  142.2349   80.6424  225.1960 H   0  0  0  0  0  0  0  0  0  0  0  0
  141.7906   78.2649  224.6427 H   0  0  0  0  0  0  0  0  0  0  0  0
  141.6115   77.5666  222.3067 H   0  0  0  0  0  0  0  0  0  0  0  0
  138.2266   78.9022  224.3830 H   0  0  0  0  0  0  0  0  0  0  0  0
  138.4002   81.3905  224.2671 H   0  0  0  0  0  0  0  0  0  0  0  0
  138.7550   83.4020  222.8562 H   0  0  0  0  0  0  0  0  0  0  0  0
  139.3960   82.9094  218.6591 H   0  0  0  0  0  0  0  0  0  0  0  0
  139.2038   80.4290  218.8435 H   0  0  0  0  0  0  0  0  0  0  0  0
  1  2  2  0
  2  3  1  0
  3  4  1  0
  4  5  1  0
  5  6  2  0
  5  7  1  0
  7  8  1  0
  8  9  1  0
  9 10  1  0
 10 11  1  0
 11 12  1  0
 12 13  1  0
 13 14  1  0
 14 15  1  0
 15 16  2  0
 16 17  1  0
 17 18  2  0
 18 19  1  0
 19 20  2  0
  2 21  1  0
 21 22  2  0
 22 23  1  0
 23 24  2  0
 24 25  1  0
 25 26  2  0
 26 27  1  0
 26 28  1  0
 28 29  2  0
 29 30  1  0
 30 31  2  0
 11  7  1  0
 20 15  1  0
 31 21  1  0
 30 24  1  0
  3 32  1  0
  4 33  1  0
  4 34  1  0
  8 35  1  0
  8 36  1  0
  9 37  1  0
  9 38  1  0
 10 39  1  0
 10 40  1  0
 11 41  1  1
 12 42  1  0
 12 43  1  0
 13 44  1  0
 14 45  1  0
 14 46  1  0
 16 47  1  0
 17 48  1  0
 18 49  1  0
 19 50  1  0
 20 51  1  0
 22 52  1  0
 23 53  1  0
 25 54  1  0
 28 55  1  0
 29 56  1  0
M  END
>  <smiles>  (38) 
O=C(NCC(=O)N1CCC[C@H]1CNCc1ccccc1)c1ccc2cc(Cl)ccc2n1

>  <score_type>  (38) 
oracle

>  <origin>  (38) 
autodockgpu

>  <m_score__min__energy>  (38) 
-9.3399999999999999

>  <m_primary>  (38) 
energy

>  <rmsd>  (38) 
7.752314937486081

>  <m_score__min__rmsd>  (38) 
7.752314937486081

>  <meeko>  (38) 
{"free_energy": -5.46, "intermolecular_energy": -7.85, "internal_energy": -4.96, "cluster_size": 2, "cluster_id": 16, "rank_in_cluster": 1}

>  <energy>  (38) 
-6.9

>  <cluster_rmsd>  (38) 
1.43

>  <cluster>  (38) 
9

$$$$

     RDKit          3D

 56 59  0  0  0  0  0  0  0  0999 V2000
  139.4470   73.1080  219.9840 O   0  0  0  0  0  0  0  0  0  0  0  0
  139.2300   73.8400  220.9830 C   0  0  0  0  0  0  0  0  0  0  0  0
  138.2700   73.4340  221.9630 N   0  0  0  0  0  0  0  0  0  0  0  0
  137.5250   72.2060  221.8600 C   0  0  0  0  0  0  0  0  0  0  0  0
  138.3250   71.0340  222.2970 C   0  0  0  0  0  0  0  0  0  0  0  0
  139.5280   70.8490  221.9340 O   0  0  0  0  0  0  0  0  0  0  0  0
  137.7730   70.0450  223.1540 N   0  0  0  0  0  0  0  0  0  0  0  0
  136.6380   69.2090  222.7950 C   0  0  0  0  0  0  0  0  0  0  0  0
  135.8510   69.0970  224.0800 C   0  0  0  0  0  0  0  0  0  0  0  0
  136.8880   69.2770  225.1400 C   0  0  0  0  0  0  0  0  0  0  0  0
  138.1820   69.6670  224.4920 C   0  0  1  0  0  0  0  0  0  0  0  0
  139.1970   68.5690  224.4650 C   0  0  0  0  0  0  0  0  0  0  0  0
  139.2110   67.7580  225.6490 N   0  0  0  0  0  0  0  0  0  0  0  0
  140.3140   67.9960  226.5240 C   0  0  0  0  0  0  0  0  0  0  0  0
  140.5500   69.4320  226.8290 C   0  0  0  0  0  0  0  0  0  0  0  0
  141.2930   70.2680  226.0300 C   0  0  0  0  0  0  0  0  0  0  0  0
  141.4890   71.6140  226.3540 C   0  0  0  0  0  0  0  0  0  0  0  0
  140.9190   72.1340  227.5200 C   0  0  0  0  0  0  0  0  0  0  0  0
  140.1750   71.3100  228.3250 C   0  0  0  0  0  0  0  0  0  0  0  0
  140.0040   69.9960  227.9760 C   0  0  0  0  0  0  0  0  0  0  0  0
  139.9330   75.1180  221.1900 C   0  0  0  0  0  0  0  0  0  0  0  0
  141.1310   75.3960  220.5770 C   0  0  0  0  0  0  0  0  0  0  0  0
  141.8050   76.6060  220.7680 C   0  0  0  0  0  0  0  0  0  0  0  0
  141.2210   77.5510  221.6160 C   0  0  0  0  0  0  0  0  0  0  0  0
  141.8250   78.7770  221.8570 C   0  0  0  0  0  0  0  0  0  0  0  0
  141.2130   79.6780  222.7000 C   0  0  0  0  0  0  0  0  0  0  0  0
  141.9320   81.2530  223.0450 Cl  0  0  0  0  0  0  0  0  0  0  0  0
  140.0150   79.3550  223.2880 C   0  0  0  0  0  0  0  0  0  0  0  0
  139.3710   78.1410  223.0790 C   0  0  0  0  0  0  0  0  0  0  0  0
  140.0000   77.2540  222.2320 C   0  0  0  0  0  0  0  0  0  0  0  0
  139.4170   76.0680  221.9960 N   0  0  0  0  0  0  0  0  0  0  0  0
  138.1190   74.0850  222.7930 H   0  0  0  0  0  0  0  0  0  0  0  0
  136.6282   72.2801  222.4927 H   0  0  0  0  0  0  0  0  0  0  0  0
  137.2546   72.0592  220.8039 H   0  0  0  0  0  0  0  0  0  0  0  0
  136.0355   69.6840  222.0067 H   0  0  0  0  0  0  0  0  0  0  0  0
  136.9408   68.2299  222.3953 H   0  0  0  0  0  0  0  0  0  0  0  0
  135.0848   69.8838  224.1418 H   0  0  0  0  0  0  0  0  0  0  0  0
  135.3082   68.1444  224.1686 H   0  0  0  0  0  0  0  0  0  0  0  0
  136.5709   70.0672  225.8364 H   0  0  0  0  0  0  0  0  0  0  0  0
  137.0185   68.3375  225.6971 H   0  0  0  0  0  0  0  0  0  0  0  0
  138.6917   70.4679  225.0476 H   0  0  0  0  0  0  0  0  0  0  0  0
  138.9815   67.9198  223.6035 H   0  0  0  0  0  0  0  0  0  0  0  0
  140.1841   69.0496  224.3966 H   0  0  0  0  0  0  0  0  0  0  0  0
  138.3080   67.5880  226.0880 H   0  0  0  0  0  0  0  0  0  0  0  0
  140.1237   67.4689  227.4705 H   0  0  0  0  0  0  0  0  0  0  0  0
  141.2132   67.6304  226.0065 H   0  0  0  0  0  0  0  0  0  0  0  0
  141.7456   69.8673  225.1110 H   0  0  0  0  0  0  0  0  0  0  0  0
  142.0881   72.2600  225.6954 H   0  0  0  0  0  0  0  0  0  0  0  0
  141.0655   73.1907  227.7882 H   0  0  0  0  0  0  0  0  0  0  0  0
  139.7180   71.7017  229.2457 H   0  0  0  0  0  0  0  0  0  0  0  0
  139.4036   69.3544  228.6378 H   0  0  0  0  0  0  0  0  0  0  0  0
  141.5753   74.6401  219.9127 H   0  0  0  0  0  0  0  0  0  0  0  0
  142.7635   76.8076  220.2673 H   0  0  0  0  0  0  0  0  0  0  0  0
  142.7837   79.0269  221.3791 H   0  0  0  0  0  0  0  0  0  0  0  0
  139.5430   80.0911  223.9554 H   0  0  0  0  0  0  0  0  0  0  0  0
  138.4126   77.9015  223.5627 H   0  0  0  0  0  0  0  0  0  0  0  0
  1  2  2  0
  2  3  1  0
  3  4  1  0
  4  5  1  0
  5  6  2  0
  5  7  1  0
  7  8  1  0
  8  9  1  0
  9 10  1  0
 10 11  1  0
 11 12  1  0
 12 13  1  0
 13 14  1  0
 14 15  1  0
 15 16  2  0
 16 17  1  0
 17 18  2  0
 18 19  1  0
 19 20  2  0
  2 21  1  0
 21 22  2  0
 22 23  1  0
 23 24  2  0
 24 25  1  0
 25 26  2  0
 26 27  1  0
 26 28  1  0
 28 29  2  0
 29 30  1  0
 30 31  2  0
 11  7  1  0
 20 15  1  0
 31 21  1  0
 30 24  1  0
  3 32  1  0
  4 33  1  0
  4 34  1  0
  8 35  1  0
  8 36  1  0
  9 37  1  0
  9 38  1  0
 10 39  1  0
 10 40  1  0
 11 41  1  1
 12 42  1  0
 12 43  1  0
 13 44  1  0
 14 45  1  0
 14 46  1  0
 16 47  1  0
 17 48  1  0
 18 49  1  0
 19 50  1  0
 20 51  1  0
 22 52  1  0
 23 53  1  0
 25 54  1  0
 28 55  1  0
 29 56  1  0
M  END
>  <smiles>  (39) 
O=C(NCC(=O)N1CCC[C@H]1CNCc1ccccc1)c1ccc2cc(Cl)ccc2n1

>  <score_type>  (39) 
oracle

>  <origin>  (39) 
autodockgpu

>  <m_score__min__energy>  (39) 
-9.3399999999999999

>  <m_primary>  (39) 
energy

>  <rmsd>  (39) 
9.631035285661918

>  <m_score__min__rmsd>  (39) 
9.631035285661918

>  <meeko>  (39) 
{"free_energy": -8.78, "intermolecular_energy": -11.17, "internal_energy": -1.79, "cluster_size": 7, "cluster_id": 2, "rank_in_cluster": 1}

>  <energy>  (39) 
-6.92

>  <cluster_rmsd>  (39) 
0.0

>  <cluster>  (39) 
10

$$$$

     RDKit          3D

 56 59  0  0  0  0  0  0  0  0999 V2000
  135.6870   74.1350  222.6650 O   0  0  0  0  0  0  0  0  0  0  0  0
  136.8960   74.3360  222.3900 C   0  0  0  0  0  0  0  0  0  0  0  0
  137.7100   73.2500  221.9380 N   0  0  0  0  0  0  0  0  0  0  0  0
  137.2030   71.9110  221.7780 C   0  0  0  0  0  0  0  0  0  0  0  0
  137.2800   71.1350  223.0410 C   0  0  0  0  0  0  0  0  0  0  0  0
  136.2510   70.7780  223.6940 O   0  0  0  0  0  0  0  0  0  0  0  0
  138.5320   70.7490  223.5920 N   0  0  0  0  0  0  0  0  0  0  0  0
  138.9320   69.3660  223.7940 C   0  0  0  0  0  0  0  0  0  0  0  0
  139.6790   69.3940  225.1070 C   0  0  0  0  0  0  0  0  0  0  0  0
  140.2040   70.7910  225.1780 C   0  0  0  0  0  0  0  0  0  0  0  0
  139.6230   71.5860  224.0490 C   0  0  1  0  0  0  0  0  0  0  0  0
  140.5950   71.8680  222.9490 C   0  0  0  0  0  0  0  0  0  0  0  0
  140.4790   73.1860  222.3910 N   0  0  0  0  0  0  0  0  0  0  0  0
  140.6710   73.2560  220.9770 C   0  0  0  0  0  0  0  0  0  0  0  0
  141.7400   74.1980  220.5550 C   0  0  0  0  0  0  0  0  0  0  0  0
  143.0830   73.9170  220.6470 C   0  0  0  0  0  0  0  0  0  0  0  0
  144.0580   74.8320  220.2370 C   0  0  0  0  0  0  0  0  0  0  0  0
  143.6670   76.0690  219.7160 C   0  0  0  0  0  0  0  0  0  0  0  0
  142.3300   76.3610  219.6170 C   0  0  0  0  0  0  0  0  0  0  0  0
  141.4040   75.4400  220.0300 C   0  0  0  0  0  0  0  0  0  0  0  0
  137.5220   75.6640  222.5170 C   0  0  0  0  0  0  0  0  0  0  0  0
  136.7750   76.8160  222.5850 C   0  0  0  0  0  0  0  0  0  0  0  0
  137.3610   78.0800  222.7050 C   0  0  0  0  0  0  0  0  0  0  0  0
  138.7560   78.1500  222.7570 C   0  0  0  0  0  0  0  0  0  0  0  0
  139.4150   79.3660  222.8770 C   0  0  0  0  0  0  0  0  0  0  0  0
  140.7910   79.3870  222.9240 C   0  0  0  0  0  0  0  0  0  0  0  0
  141.6840   80.9020  223.0770 Cl  0  0  0  0  0  0  0  0  0  0  0  0
  141.4930   78.2090  222.8540 C   0  0  0  0  0  0  0  0  0  0  0  0
  140.8800   76.9680  222.7330 C   0  0  0  0  0  0  0  0  0  0  0  0
  139.5020   76.9680  222.6870 C   0  0  0  0  0  0  0  0  0  0  0  0
  138.8630   75.7940  222.5730 N   0  0  0  0  0  0  0  0  0  0  0  0
  138.7290   73.4670  221.7160 H   0  0  0  0  0  0  0  0  0  0  0  0
  136.1522   71.9647  221.4572 H   0  0  0  0  0  0  0  0  0  0  0  0
  137.8219   71.3999  221.0258 H   0  0  0  0  0  0  0  0  0  0  0  0
  138.0520   68.7091  223.8579 H   0  0  0  0  0  0  0  0  0  0  0  0
  139.5418   68.9747  222.9663 H   0  0  0  0  0  0  0  0  0  0  0  0
  139.0028   69.1845  225.9489 H   0  0  0  0  0  0  0  0  0  0  0  0
  140.4721   68.6341  225.1657 H   0  0  0  0  0  0  0  0  0  0  0  0
  139.9148   71.2458  226.1369 H   0  0  0  0  0  0  0  0  0  0  0  0
  141.3012   70.7810  225.1007 H   0  0  0  0  0  0  0  0  0  0  0  0
  139.3117   72.5898  224.3739 H   0  0  0  0  0  0  0  0  0  0  0  0
  141.6131   71.7498  223.3483 H   0  0  0  0  0  0  0  0  0  0  0  0
  140.3730   71.1584  222.1383 H   0  0  0  0  0  0  0  0  0  0  0  0
  139.7490   73.7770  222.7830 H   0  0  0  0  0  0  0  0  0  0  0  0
  140.9331   72.2512  220.6140 H   0  0  0  0  0  0  0  0  0  0  0  0
  139.7303   73.6313  220.5477 H   0  0  0  0  0  0  0  0  0  0  0  0
  143.3992   72.9454  221.0545 H   0  0  0  0  0  0  0  0  0  0  0  0
  145.1252   74.5801  220.3239 H   0  0  0  0  0  0  0  0  0  0  0  0
  144.4220   76.7993  219.3894 H   0  0  0  0  0  0  0  0  0  0  0  0
  142.0037   77.3288  219.2085 H   0  0  0  0  0  0  0  0  0  0  0  0
  140.3381   75.6971  219.9414 H   0  0  0  0  0  0  0  0  0  0  0  0
  135.6783   76.7409  222.5436 H   0  0  0  0  0  0  0  0  0  0  0  0
  136.7443   78.9894  222.7568 H   0  0  0  0  0  0  0  0  0  0  0  0
  138.8432   80.3040  222.9340 H   0  0  0  0  0  0  0  0  0  0  0  0
  142.5915   78.2497  222.8957 H   0  0  0  0  0  0  0  0  0  0  0  0
  141.4623   76.0364  222.6770 H   0  0  0  0  0  0  0  0  0  0  0  0
  1  2  2  0
  2  3  1  0
  3  4  1  0
  4  5  1  0
  5  6  2  0
  5  7  1  0
  7  8  1  0
  8  9  1  0
  9 10  1  0
 10 11  1  0
 11 12  1  0
 12 13  1  0
 13 14  1  0
 14 15  1  0
 15 16  2  0
 16 17  1  0
 17 18  2  0
 18 19  1  0
 19 20  2  0
  2 21  1  0
 21 22  2  0
 22 23  1  0
 23 24  2  0
 24 25  1  0
 25 26  2  0
 26 27  1  0
 26 28  1  0
 28 29  2  0
 29 30  1  0
 30 31  2  0
 11  7  1  0
 20 15  1  0
 31 21  1  0
 30 24  1  0
  3 32  1  0
  4 33  1  0
  4 34  1  0
  8 35  1  0
  8 36  1  0
  9 37  1  0
  9 38  1  0
 10 39  1  0
 10 40  1  0
 11 41  1  1
 12 42  1  0
 12 43  1  0
 13 44  1  0
 14 45  1  0
 14 46  1  0
 16 47  1  0
 17 48  1  0
 18 49  1  0
 19 50  1  0
 20 51  1  0
 22 52  1  0
 23 53  1  0
 25 54  1  0
 28 55  1  0
 29 56  1  0
M  END
>  <smiles>  (40) 
O=C(NCC(=O)N1CCC[C@H]1CNCc1ccccc1)c1ccc2cc(Cl)ccc2n1

>  <score_type>  (40) 
oracle

>  <origin>  (40) 
autodockgpu

>  <m_score__min__energy>  (40) 
-9.3399999999999999

>  <m_primary>  (40) 
energy

>  <rmsd>  (40) 
7.692645167169667

>  <m_score__min__rmsd>  (40) 
7.692645167169667

>  <meeko>  (40) 
{"free_energy": -6.67, "intermolecular_energy": -9.05, "internal_energy": -3.9, "cluster_size": 7, "cluster_id": 2, "rank_in_cluster": 7}

>  <energy>  (40) 
-6.77

>  <cluster_rmsd>  (40) 
0.0

>  <cluster>  (40) 
11

$$$$

     RDKit          3D

 56 59  0  0  0  0  0  0  0  0999 V2000
  140.4000   72.5970  220.5700 O   0  0  0  0  0  0  0  0  0  0  0  0
  140.1210   72.9000  221.7570 C   0  0  0  0  0  0  0  0  0  0  0  0
  139.8140   74.2580  222.0880 N   0  0  0  0  0  0  0  0  0  0  0  0
  139.8090   75.3150  221.1090 C   0  0  0  0  0  0  0  0  0  0  0  0
  140.7190   76.4250  221.4860 C   0  0  0  0  0  0  0  0  0  0  0  0
  140.8200   76.8580  222.6760 O   0  0  0  0  0  0  0  0  0  0  0  0
  141.5340   77.0700  220.5180 N   0  0  0  0  0  0  0  0  0  0  0  0
  141.8300   78.4930  220.5310 C   0  0  0  0  0  0  0  0  0  0  0  0
  141.8080   78.8810  219.0700 C   0  0  0  0  0  0  0  0  0  0  0  0
  142.1710   77.6130  218.3700 C   0  0  0  0  0  0  0  0  0  0  0  0
  142.2110   76.4980  219.3710 C   0  0  1  0  0  0  0  0  0  0  0  0
  143.5950   76.0510  219.7190 C   0  0  0  0  0  0  0  0  0  0  0  0
  143.6400   74.8690  220.5310 N   0  0  0  0  0  0  0  0  0  0  0  0
  144.8560   74.1250  220.4410 C   0  0  0  0  0  0  0  0  0  0  0  0
  144.6660   72.6870  220.1150 C   0  0  0  0  0  0  0  0  0  0  0  0
  145.6360   71.9030  219.5360 C   0  0  0  0  0  0  0  0  0  0  0  0
  145.4160   70.5520  219.2480 C   0  0  0  0  0  0  0  0  0  0  0  0
  144.1800   69.9740  219.5530 C   0  0  0  0  0  0  0  0  0  0  0  0
  143.2050   70.7460  220.1320 C   0  0  0  0  0  0  0  0  0  0  0  0
  143.4560   72.0660  220.4000 C   0  0  0  0  0  0  0  0  0  0  0  0
  140.0970   71.9020  222.8400 C   0  0  0  0  0  0  0  0  0  0  0  0
  139.6010   70.6340  222.6490 C   0  0  0  0  0  0  0  0  0  0  0  0
  139.5740   69.6810  223.6710 C   0  0  0  0  0  0  0  0  0  0  0  0
  140.0750   70.0510  224.9230 C   0  0  0  0  0  0  0  0  0  0  0  0
  140.0840   69.1630  225.9890 C   0  0  0  0  0  0  0  0  0  0  0  0
  140.5880   69.5730  227.2040 C   0  0  0  0  0  0  0  0  0  0  0  0
  140.6280   68.4880  228.5970 Cl  0  0  0  0  0  0  0  0  0  0  0  0
  141.0730   70.8490  227.3450 C   0  0  0  0  0  0  0  0  0  0  0  0
  141.0840   71.7740  226.3080 C   0  0  0  0  0  0  0  0  0  0  0  0
  140.5770   71.3450  225.1010 C   0  0  0  0  0  0  0  0  0  0  0  0
  140.5670   72.2020  224.0680 N   0  0  0  0  0  0  0  0  0  0  0  0
  139.5830   74.4690  223.1060 H   0  0  0  0  0  0  0  0  0  0  0  0
  140.1317   74.9042  220.1409 H   0  0  0  0  0  0  0  0  0  0  0  0
  138.7873   75.7182  221.0489 H   0  0  0  0  0  0  0  0  0  0  0  0
  141.0650   79.0470  221.0948 H   0  0  0  0  0  0  0  0  0  0  0  0
  142.7897   78.7228  221.0171 H   0  0  0  0  0  0  0  0  0  0  0  0
  140.8073   79.2243  218.7689 H   0  0  0  0  0  0  0  0  0  0  0  0
  142.4903   79.7115  218.8358 H   0  0  0  0  0  0  0  0  0  0  0  0
  141.4195   77.3894  217.5985 H   0  0  0  0  0  0  0  0  0  0  0  0
  143.1565   77.7203  217.8932 H   0  0  0  0  0  0  0  0  0  0  0  0
  141.7403   75.5827  218.9827 H   0  0  0  0  0  0  0  0  0  0  0  0
  144.1386   75.8493  218.7842 H   0  0  0  0  0  0  0  0  0  0  0  0
  144.0516   76.8596  220.3087 H   0  0  0  0  0  0  0  0  0  0  0  0
  143.2170   74.9420  221.4550 H   0  0  0  0  0  0  0  0  0  0  0  0
  145.4803   74.5774  219.6564 H   0  0  0  0  0  0  0  0  0  0  0  0
  145.3263   74.1652  221.4346 H   0  0  0  0  0  0  0  0  0  0  0  0
  146.6111   72.3503  219.2928 H   0  0  0  0  0  0  0  0  0  0  0  0
  146.2102   69.9483  218.7846 H   0  0  0  0  0  0  0  0  0  0  0  0
  143.9917   68.9131  219.3314 H   0  0  0  0  0  0  0  0  0  0  0  0
  142.2270   70.3077  220.3798 H   0  0  0  0  0  0  0  0  0  0  0  0
  142.6588   72.6649  220.8646 H   0  0  0  0  0  0  0  0  0  0  0  0
  139.2118   70.3600  221.6573 H   0  0  0  0  0  0  0  0  0  0  0  0
  139.1716   68.6723  223.4961 H   0  0  0  0  0  0  0  0  0  0  0  0
  139.6929   68.1423  225.8654 H   0  0  0  0  0  0  0  0  0  0  0  0
  141.4714   71.1536  228.3240 H   0  0  0  0  0  0  0  0  0  0  0  0
  141.4760   72.7928  226.4434 H   0  0  0  0  0  0  0  0  0  0  0  0
  1  2  2  0
  2  3  1  0
  3  4  1  0
  4  5  1  0
  5  6  2  0
  5  7  1  0
  7  8  1  0
  8  9  1  0
  9 10  1  0
 10 11  1  0
 11 12  1  0
 12 13  1  0
 13 14  1  0
 14 15  1  0
 15 16  2  0
 16 17  1  0
 17 18  2  0
 18 19  1  0
 19 20  2  0
  2 21  1  0
 21 22  2  0
 22 23  1  0
 23 24  2  0
 24 25  1  0
 25 26  2  0
 26 27  1  0
 26 28  1  0
 28 29  2  0
 29 30  1  0
 30 31  2  0
 11  7  1  0
 20 15  1  0
 31 21  1  0
 30 24  1  0
  3 32  1  0
  4 33  1  0
  4 34  1  0
  8 35  1  0
  8 36  1  0
  9 37  1  0
  9 38  1  0
 10 39  1  0
 10 40  1  0
 11 41  1  6
 12 42  1  0
 12 43  1  0
 13 44  1  0
 14 45  1  0
 14 46  1  0
 16 47  1  0
 17 48  1  0
 18 49  1  0
 19 50  1  0
 20 51  1  0
 22 52  1  0
 23 53  1  0
 25 54  1  0
 28 55  1  0
 29 56  1  0
M  END
>  <smiles>  (41) 
O=C(NCC(=O)N1CCC[C@H]1CNCc1ccccc1)c1ccc2cc(Cl)ccc2n1

>  <score_type>  (41) 
oracle

>  <origin>  (41) 
autodockgpu

>  <m_score__min__energy>  (41) 
-9.3399999999999999

>  <m_primary>  (41) 
energy

>  <rmsd>  (41) 
5.816171289869146

>  <m_score__min__rmsd>  (41) 
5.816171289869146

>  <meeko>  (41) 
{"free_energy": -8.39, "intermolecular_energy": -10.78, "internal_energy": -2.24, "cluster_size": 10, "cluster_id": 1, "rank_in_cluster": 4}

>  <energy>  (41) 
-6.76

>  <cluster_rmsd>  (41) 
0.1

>  <cluster>  (41) 
11

$$$$

     RDKit          3D

 56 59  0  0  0  0  0  0  0  0999 V2000
  138.1650   71.6820  221.3120 O   0  0  0  0  0  0  0  0  0  0  0  0
  138.8530   72.0310  222.3030 C   0  0  0  0  0  0  0  0  0  0  0  0
  139.3440   73.3720  222.3890 N   0  0  0  0  0  0  0  0  0  0  0  0
  139.0840   74.3610  221.3740 C   0  0  0  0  0  0  0  0  0  0  0  0
  139.8460   75.6130  221.6110 C   0  0  0  0  0  0  0  0  0  0  0  0
  141.0650   75.6190  221.9680 O   0  0  0  0  0  0  0  0  0  0  0  0
  139.2380   76.8860  221.4490 N   0  0  0  0  0  0  0  0  0  0  0  0
  139.1260   77.8680  222.5150 C   0  0  0  0  0  0  0  0  0  0  0  0
  137.7620   78.4830  222.2990 C   0  0  0  0  0  0  0  0  0  0  0  0
  137.5320   78.3090  220.8330 C   0  0  0  0  0  0  0  0  0  0  0  0
  138.6290   77.4610  220.2660 C   0  0  1  0  0  0  0  0  0  0  0  0
  139.6250   78.2280  219.4560 C   0  0  0  0  0  0  0  0  0  0  0  0
  140.9900   77.9810  219.8230 N   0  0  0  0  0  0  0  0  0  0  0  0
  141.8070   79.1500  219.9130 C   0  0  0  0  0  0  0  0  0  0  0  0
  141.8120   79.7870  221.2560 C   0  0  0  0  0  0  0  0  0  0  0  0
  141.4590   81.0970  221.4800 C   0  0  0  0  0  0  0  0  0  0  0  0
  141.4770   81.6560  222.7610 C   0  0  0  0  0  0  0  0  0  0  0  0
  141.8620   80.8710  223.8520 C   0  0  0  0  0  0  0  0  0  0  0  0
  142.2150   79.5620  223.6420 C   0  0  0  0  0  0  0  0  0  0  0  0
  142.1860   79.0480  222.3730 C   0  0  0  0  0  0  0  0  0  0  0  0
  139.1820   71.1030  223.4000 C   0  0  0  0  0  0  0  0  0  0  0  0
  138.8790   69.7640  223.3340 C   0  0  0  0  0  0  0  0  0  0  0  0
  139.1870   68.8770  224.3700 C   0  0  0  0  0  0  0  0  0  0  0  0
  139.8270   69.3910  225.5020 C   0  0  0  0  0  0  0  0  0  0  0  0
  140.1670   68.5770  226.5720 C   0  0  0  0  0  0  0  0  0  0  0  0
  140.7970   69.1280  227.6660 C   0  0  0  0  0  0  0  0  0  0  0  0
  141.2560   68.1430  229.0580 Cl  0  0  0  0  0  0  0  0  0  0  0  0
  141.0800   70.4710  227.6840 C   0  0  0  0  0  0  0  0  0  0  0  0
  140.7580   71.3270  226.6380 C   0  0  0  0  0  0  0  0  0  0  0  0
  140.1290   70.7560  225.5530 C   0  0  0  0  0  0  0  0  0  0  0  0
  139.8000   71.5420  224.5150 N   0  0  0  0  0  0  0  0  0  0  0  0
  139.9220   73.6240  223.2470 H   0  0  0  0  0  0  0  0  0  0  0  0
  139.3717   73.9498  220.3952 H   0  0  0  0  0  0  0  0  0  0  0  0
  138.0117   74.6046  221.4029 H   0  0  0  0  0  0  0  0  0  0  0  0
  139.1857   77.3841  223.5011 H   0  0  0  0  0  0  0  0  0  0  0  0
  139.9357   78.6122  222.4938 H   0  0  0  0  0  0  0  0  0  0  0  0
  136.9947   77.9540  222.8833 H   0  0  0  0  0  0  0  0  0  0  0  0
  137.7089   79.5337  222.6203 H   0  0  0  0  0  0  0  0  0  0  0  0
  136.5622   77.8171  220.6674 H   0  0  0  0  0  0  0  0  0  0  0  0
  137.5270   79.2912  220.3378 H   0  0  0  0  0  0  0  0  0  0  0  0
  138.2430   76.7168  219.5538 H   0  0  0  0  0  0  0  0  0  0  0  0
  139.4960   77.9533  218.3987 H   0  0  0  0  0  0  0  0  0  0  0  0
  139.4333   79.2949  219.6429 H   0  0  0  0  0  0  0  0  0  0  0  0
  141.1430   77.2630  220.5280 H   0  0  0  0  0  0  0  0  0  0  0  0
  142.8401   78.8693  219.6603 H   0  0  0  0  0  0  0  0  0  0  0  0
  141.3831   79.8868  219.2148 H   0  0  0  0  0  0  0  0  0  0  0  0
  141.1541   81.7221  220.6278 H   0  0  0  0  0  0  0  0  0  0  0  0
  141.1899   82.7074  222.9099 H   0  0  0  0  0  0  0  0  0  0  0  0
  141.8816   81.2975  224.8658 H   0  0  0  0  0  0  0  0  0  0  0  0
  142.5196   78.9288  224.4883 H   0  0  0  0  0  0  0  0  0  0  0  0
  142.4735   77.9959  222.2298 H   0  0  0  0  0  0  0  0  0  0  0  0
  138.3769   69.3768  222.4351 H   0  0  0  0  0  0  0  0  0  0  0  0
  138.9339   67.8090  224.2969 H   0  0  0  0  0  0  0  0  0  0  0  0
  139.9359   67.5018  226.5473 H   0  0  0  0  0  0  0  0  0  0  0  0
  141.5851   70.8889  228.5673 H   0  0  0  0  0  0  0  0  0  0  0  0
  140.9922   72.4012  226.6740 H   0  0  0  0  0  0  0  0  0  0  0  0
  1  2  2  0
  2  3  1  0
  3  4  1  0
  4  5  1  0
  5  6  2  0
  5  7  1  0
  7  8  1  0
  8  9  1  0
  9 10  1  0
 10 11  1  0
 11 12  1  0
 12 13  1  0
 13 14  1  0
 14 15  1  0
 15 16  2  0
 16 17  1  0
 17 18  2  0
 18 19  1  0
 19 20  2  0
  2 21  1  0
 21 22  2  0
 22 23  1  0
 23 24  2  0
 24 25  1  0
 25 26  2  0
 26 27  1  0
 26 28  1  0
 28 29  2  0
 29 30  1  0
 30 31  2  0
 11  7  1  0
 20 15  1  0
 31 21  1  0
 30 24  1  0
  3 32  1  0
  4 33  1  0
  4 34  1  0
  8 35  1  0
  8 36  1  0
  9 37  1  0
  9 38  1  0
 10 39  1  0
 10 40  1  0
 11 41  1  6
 12 42  1  0
 12 43  1  0
 13 44  1  0
 14 45  1  0
 14 46  1  0
 16 47  1  0
 17 48  1  0
 18 49  1  0
 19 50  1  0
 20 51  1  0
 22 52  1  0
 23 53  1  0
 25 54  1  0
 28 55  1  0
 29 56  1  0
M  END
>  <smiles>  (42) 
O=C(NCC(=O)N1CCC[C@H]1CNCc1ccccc1)c1ccc2cc(Cl)ccc2n1

>  <score_type>  (42) 
oracle

>  <origin>  (42) 
autodockgpu

>  <m_score__min__energy>  (42) 
-9.3399999999999999

>  <m_primary>  (42) 
energy

>  <rmsd>  (42) 
3.0598684440796355

>  <m_score__min__rmsd>  (42) 
3.0598684440796355

>  <meeko>  (42) 
{"free_energy": -7.91, "intermolecular_energy": -10.3, "internal_energy": -2.98, "cluster_size": 6, "cluster_id": 3, "rank_in_cluster": 4}

>  <energy>  (42) 
-5.5

>  <cluster_rmsd>  (42) 
1.02

>  <cluster>  (42) 
11

$$$$

     RDKit          3D

 56 59  0  0  0  0  0  0  0  0999 V2000
  137.6620   76.9440  222.4500 O   0  0  0  0  0  0  0  0  0  0  0  0
  138.0970   75.7690  222.3470 C   0  0  0  0  0  0  0  0  0  0  0  0
  137.2650   74.6690  222.7280 N   0  0  0  0  0  0  0  0  0  0  0  0
  135.9280   74.8450  223.2360 C   0  0  0  0  0  0  0  0  0  0  0  0
  135.3170   73.5550  223.6450 C   0  0  0  0  0  0  0  0  0  0  0  0
  134.6480   73.4200  224.7160 O   0  0  0  0  0  0  0  0  0  0  0  0
  135.4540   72.3890  222.8450 N   0  0  0  0  0  0  0  0  0  0  0  0
  134.7450   72.1820  221.5930 C   0  0  0  0  0  0  0  0  0  0  0  0
  134.3930   70.7130  221.6150 C   0  0  0  0  0  0  0  0  0  0  0  0
  135.4580   70.1140  222.4750 C   0  0  0  0  0  0  0  0  0  0  0  0
  136.2740   71.2170  223.0770 C   0  0  1  0  0  0  0  0  0  0  0  0
  137.6290   71.3670  222.4630 C   0  0  0  0  0  0  0  0  0  0  0  0
  138.6270   71.8660  223.3660 N   0  0  0  0  0  0  0  0  0  0  0  0
  139.6460   70.9270  223.7110 C   0  0  0  0  0  0  0  0  0  0  0  0
  139.9590   70.8740  225.1630 C   0  0  0  0  0  0  0  0  0  0  0  0
  139.4950   69.8930  226.0080 C   0  0  0  0  0  0  0  0  0  0  0  0
  139.8150   69.8810  227.3690 C   0  0  0  0  0  0  0  0  0  0  0  0
  140.6270   70.8900  227.8960 C   0  0  0  0  0  0  0  0  0  0  0  0
  141.0970   71.8730  227.0640 C   0  0  0  0  0  0  0  0  0  0  0  0
  140.7630   71.8530  225.7350 C   0  0  0  0  0  0  0  0  0  0  0  0
  139.4490   75.4720  221.8420 C   0  0  0  0  0  0  0  0  0  0  0  0
  140.2510   76.4450  221.2960 C   0  0  0  0  0  0  0  0  0  0  0  0
  141.5350   76.1710  220.8140 C   0  0  0  0  0  0  0  0  0  0  0  0
  141.9980   74.8550  220.9020 C   0  0  0  0  0  0  0  0  0  0  0  0
  143.2600   74.5020  220.4470 C   0  0  0  0  0  0  0  0  0  0  0  0
  143.6750   73.1930  220.5540 C   0  0  0  0  0  0  0  0  0  0  0  0
  145.2690   72.6820  219.9940 Cl  0  0  0  0  0  0  0  0  0  0  0  0
  142.8370   72.2570  221.1080 C   0  0  0  0  0  0  0  0  0  0  0  0
  141.5650   72.5610  221.5770 C   0  0  0  0  0  0  0  0  0  0  0  0
  141.1700   73.8760  221.4610 C   0  0  0  0  0  0  0  0  0  0  0  0
  139.9490   74.2210  221.9010 N   0  0  0  0  0  0  0  0  0  0  0  0
  137.6750   73.6920  222.6230 H   0  0  0  0  0  0  0  0  0  0  0  0
  135.9642   75.5139  224.1085 H   0  0  0  0  0  0  0  0  0  0  0  0
  135.3117   75.2746  222.4325 H   0  0  0  0  0  0  0  0  0  0  0  0
  133.8371   72.8016  221.5500 H   0  0  0  0  0  0  0  0  0  0  0  0
  135.3443   72.4621  220.7141 H   0  0  0  0  0  0  0  0  0  0  0  0
  133.3970   70.5535  222.0537 H   0  0  0  0  0  0  0  0  0  0  0  0
  134.3509   70.2666  220.6105 H   0  0  0  0  0  0  0  0  0  0  0  0
  134.9946   69.5185  223.2754 H   0  0  0  0  0  0  0  0  0  0  0  0
  136.1034   69.4616  221.8685 H   0  0  0  0  0  0  0  0  0  0  0  0
  136.4967   71.0284  224.1376 H   0  0  0  0  0  0  0  0  0  0  0  0
  137.9544   70.3817  222.0980 H   0  0  0  0  0  0  0  0  0  0  0  0
  137.5322   72.1071  221.6550 H   0  0  0  0  0  0  0  0  0  0  0  0
  138.9240   72.8290  223.2200 H   0  0  0  0  0  0  0  0  0  0  0  0
  139.3160   69.9272  223.3925 H   0  0  0  0  0  0  0  0  0  0  0  0
  140.5640   71.2551  223.2014 H   0  0  0  0  0  0  0  0  0  0  0  0
  138.8546   69.0961  225.6020 H   0  0  0  0  0  0  0  0  0  0  0  0
  139.4304   69.0829  228.0210 H   0  0  0  0  0  0  0  0  0  0  0  0
  140.8855   70.8950  228.9652 H   0  0  0  0  0  0  0  0  0  0  0  0
  141.7387   72.6734  227.4610 H   0  0  0  0  0  0  0  0  0  0  0  0
  141.1512   72.6530  225.0875 H   0  0  0  0  0  0  0  0  0  0  0  0
  139.8700   77.4751  221.2359 H   0  0  0  0  0  0  0  0  0  0  0  0
  142.1601   76.9652  220.3798 H   0  0  0  0  0  0  0  0  0  0  0  0
  143.9230   75.2603  220.0050 H   0  0  0  0  0  0  0  0  0  0  0  0
  143.1893   71.2177  221.1841 H   0  0  0  0  0  0  0  0  0  0  0  0
  140.9097   71.7945  222.0165 H   0  0  0  0  0  0  0  0  0  0  0  0
  1  2  2  0
  2  3  1  0
  3  4  1  0
  4  5  1  0
  5  6  2  0
  5  7  1  0
  7  8  1  0
  8  9  1  0
  9 10  1  0
 10 11  1  0
 11 12  1  0
 12 13  1  0
 13 14  1  0
 14 15  1  0
 15 16  2  0
 16 17  1  0
 17 18  2  0
 18 19  1  0
 19 20  2  0
  2 21  1  0
 21 22  2  0
 22 23  1  0
 23 24  2  0
 24 25  1  0
 25 26  2  0
 26 27  1  0
 26 28  1  0
 28 29  2  0
 29 30  1  0
 30 31  2  0
 11  7  1  0
 20 15  1  0
 31 21  1  0
 30 24  1  0
  3 32  1  0
  4 33  1  0
  4 34  1  0
  8 35  1  0
  8 36  1  0
  9 37  1  0
  9 38  1  0
 10 39  1  0
 10 40  1  0
 11 41  1  1
 12 42  1  0
 12 43  1  0
 13 44  1  0
 14 45  1  0
 14 46  1  0
 16 47  1  0
 17 48  1  0
 18 49  1  0
 19 50  1  0
 20 51  1  0
 22 52  1  0
 23 53  1  0
 25 54  1  0
 28 55  1  0
 29 56  1  0
M  END
>  <smiles>  (43) 
O=C(NCC(=O)N1CCC[C@H]1CNCc1ccccc1)c1ccc2cc(Cl)ccc2n1

>  <score_type>  (43) 
oracle

>  <origin>  (43) 
autodockgpu

>  <m_score__min__energy>  (43) 
-9.3399999999999999

>  <m_primary>  (43) 
energy

>  <rmsd>  (43) 
8.519502831663074

>  <m_score__min__rmsd>  (43) 
8.519502831663074

>  <meeko>  (43) 
{"free_energy": -7.25, "intermolecular_energy": -9.63, "internal_energy": -3.69, "cluster_size": 4, "cluster_id": 9, "rank_in_cluster": 2}

>  <energy>  (43) 
-6.06

>  <cluster_rmsd>  (43) 
0.0

>  <cluster>  (43) 
12

$$$$

     RDKit          3D

 56 59  0  0  0  0  0  0  0  0999 V2000
  134.2270   71.2720  224.6820 O   0  0  0  0  0  0  0  0  0  0  0  0
  134.8960   72.3180  224.4910 C   0  0  0  0  0  0  0  0  0  0  0  0
  136.0310   72.2850  223.6200 N   0  0  0  0  0  0  0  0  0  0  0  0
  136.4530   71.0880  222.9390 C   0  0  0  0  0  0  0  0  0  0  0  0
  137.4810   70.3440  223.7110 C   0  0  0  0  0  0  0  0  0  0  0  0
  137.5450   70.3750  224.9780 O   0  0  0  0  0  0  0  0  0  0  0  0
  138.4600   69.5510  223.0560 N   0  0  0  0  0  0  0  0  0  0  0  0
  139.6570   70.0960  222.4360 C   0  0  0  0  0  0  0  0  0  0  0  0
  139.8290   69.2630  221.1870 C   0  0  0  0  0  0  0  0  0  0  0  0
  139.1760   67.9670  221.5410 C   0  0  0  0  0  0  0  0  0  0  0  0
  138.4900   68.1140  222.8650 C   0  0  1  0  0  0  0  0  0  0  0  0
  139.1990   67.4280  223.9900 C   0  0  0  0  0  0  0  0  0  0  0  0
  138.9030   67.9720  225.2840 N   0  0  0  0  0  0  0  0  0  0  0  0
  140.0230   68.0610  226.1670 C   0  0  0  0  0  0  0  0  0  0  0  0
  140.3770   69.4490  226.5620 C   0  0  0  0  0  0  0  0  0  0  0  0
  140.9620   70.3580  225.7120 C   0  0  0  0  0  0  0  0  0  0  0  0
  141.2790   71.6560  226.1250 C   0  0  0  0  0  0  0  0  0  0  0  0
  140.9970   72.0500  227.4360 C   0  0  0  0  0  0  0  0  0  0  0  0
  140.4130   71.1540  228.2940 C   0  0  0  0  0  0  0  0  0  0  0  0
  140.1170   69.8900  227.8540 C   0  0  0  0  0  0  0  0  0  0  0  0
  134.5560   73.5990  225.1360 C   0  0  0  0  0  0  0  0  0  0  0  0
  135.2790   74.7440  224.9040 C   0  0  0  0  0  0  0  0  0  0  0  0
  134.9630   75.9630  225.5120 C   0  0  0  0  0  0  0  0  0  0  0  0
  133.8690   75.9940  226.3830 C   0  0  0  0  0  0  0  0  0  0  0  0
  133.4900   77.1640  227.0250 C   0  0  0  0  0  0  0  0  0  0  0  0
  132.4060   77.1470  227.8750 C   0  0  0  0  0  0  0  0  0  0  0  0
  131.8750   78.6030  228.7200 Cl  0  0  0  0  0  0  0  0  0  0  0  0
  131.7150   75.9780  228.0740 C   0  0  0  0  0  0  0  0  0  0  0  0
  132.0560   74.7810  227.4540 C   0  0  0  0  0  0  0  0  0  0  0  0
  133.1430   74.8190  226.6090 C   0  0  0  0  0  0  0  0  0  0  0  0
  133.5120   73.6890  225.9850 N   0  0  0  0  0  0  0  0  0  0  0  0
  136.5670   73.1960  223.4880 H   0  0  0  0  0  0  0  0  0  0  0  0
  135.5792   70.4365  222.7907 H   0  0  0  0  0  0  0  0  0  0  0  0
  136.8966   71.3822  221.9764 H   0  0  0  0  0  0  0  0  0  0  0  0
  139.5183   71.1574  222.1828 H   0  0  0  0  0  0  0  0  0  0  0  0
  140.5345   70.0552  223.0980 H   0  0  0  0  0  0  0  0  0  0  0  0
  139.3286   69.7339  220.3281 H   0  0  0  0  0  0  0  0  0  0  0  0
  140.8820   69.1460  220.8911 H   0  0  0  0  0  0  0  0  0  0  0  0
  138.4373   67.7031  220.7698 H   0  0  0  0  0  0  0  0  0  0  0  0
  139.9341   67.1721  221.6006 H   0  0  0  0  0  0  0  0  0  0  0  0
  137.4972   67.6404  222.8650 H   0  0  0  0  0  0  0  0  0  0  0  0
  138.9087   66.3670  223.9861 H   0  0  0  0  0  0  0  0  0  0  0  0
  140.2765   67.5728  223.8227 H   0  0  0  0  0  0  0  0  0  0  0  0
  138.2430   68.7470  225.3060 H   0  0  0  0  0  0  0  0  0  0  0  0
  139.7898   67.4915  227.0788 H   0  0  0  0  0  0  0  0  0  0  0  0
  140.8887   67.6563  225.6222 H   0  0  0  0  0  0  0  0  0  0  0  0
  141.1869   70.0558  224.6785 H   0  0  0  0  0  0  0  0  0  0  0  0
  141.7470   72.3618  225.4230 H   0  0  0  0  0  0  0  0  0  0  0  0
  141.2408   73.0675  227.7756 H   0  0  0  0  0  0  0  0  0  0  0  0
  140.1835   71.4477  229.3289 H   0  0  0  0  0  0  0  0  0  0  0  0
  139.6494   69.1882  228.5603 H   0  0  0  0  0  0  0  0  0  0  0  0
  136.1363   74.7003  224.2161 H   0  0  0  0  0  0  0  0  0  0  0  0
  135.5554   76.8680  225.3118 H   0  0  0  0  0  0  0  0  0  0  0  0
  134.0495   78.0960  226.8570 H   0  0  0  0  0  0  0  0  0  0  0  0
  130.8515   75.9885  228.7554 H   0  0  0  0  0  0  0  0  0  0  0  0
  131.4889   73.8548  227.6287 H   0  0  0  0  0  0  0  0  0  0  0  0
  1  2  2  0
  2  3  1  0
  3  4  1  0
  4  5  1  0
  5  6  2  0
  5  7  1  0
  7  8  1  0
  8  9  1  0
  9 10  1  0
 10 11  1  0
 11 12  1  0
 12 13  1  0
 13 14  1  0
 14 15  1  0
 15 16  2  0
 16 17  1  0
 17 18  2  0
 18 19  1  0
 19 20  2  0
  2 21  1  0
 21 22  2  0
 22 23  1  0
 23 24  2  0
 24 25  1  0
 25 26  2  0
 26 27  1  0
 26 28  1  0
 28 29  2  0
 29 30  1  0
 30 31  2  0
 11  7  1  0
 20 15  1  0
 31 21  1  0
 30 24  1  0
  3 32  1  0
  4 33  1  0
  4 34  1  0
  8 35  1  0
  8 36  1  0
  9 37  1  0
  9 38  1  0
 10 39  1  0
 10 40  1  0
 11 41  1  6
 12 42  1  0
 12 43  1  0
 13 44  1  0
 14 45  1  0
 14 46  1  0
 16 47  1  0
 17 48  1  0
 18 49  1  0
 19 50  1  0
 20 51  1  0
 22 52  1  0
 23 53  1  0
 25 54  1  0
 28 55  1  0
 29 56  1  0
M  END
>  <smiles>  (44) 
O=C(NCC(=O)N1CCC[C@H]1CNCc1ccccc1)c1ccc2cc(Cl)ccc2n1

>  <score_type>  (44) 
oracle

>  <origin>  (44) 
autodockgpu

>  <m_score__min__energy>  (44) 
-9.3399999999999999

>  <m_primary>  (44) 
energy

>  <rmsd>  (44) 
9.569274002121574

>  <m_score__min__rmsd>  (44) 
9.569274002121574

>  <meeko>  (44) 
{"free_energy": -7.83, "intermolecular_energy": -10.22, "internal_energy": -2.44, "cluster_size": 1, "cluster_id": 6, "rank_in_cluster": 1}

>  <energy>  (44) 
-5.92

>  <cluster_rmsd>  (44) 
0.0

>  <cluster>  (44) 
13

$$$$

     RDKit          3D

 56 59  0  0  0  0  0  0  0  0999 V2000
  137.5090   75.7680  222.1500 O   0  0  0  0  0  0  0  0  0  0  0  0
  138.1810   74.7130  222.0290 C   0  0  0  0  0  0  0  0  0  0  0  0
  137.5710   73.4490  222.3080 N   0  0  0  0  0  0  0  0  0  0  0  0
  136.2000   73.3240  222.7300 C   0  0  0  0  0  0  0  0  0  0  0  0
  135.8850   71.9490  223.1940 C   0  0  0  0  0  0  0  0  0  0  0  0
  134.9680   71.6990  224.0350 O   0  0  0  0  0  0  0  0  0  0  0  0
  136.6110   70.8260  222.7110 N   0  0  0  0  0  0  0  0  0  0  0  0
  136.3350   70.1730  221.4420 C   0  0  0  0  0  0  0  0  0  0  0  0
  136.5330   68.7050  221.7400 C   0  0  0  0  0  0  0  0  0  0  0  0
  137.5080   68.7090  222.8720 C   0  0  0  0  0  0  0  0  0  0  0  0
  137.7140   70.1200  223.3310 C   0  0  1  0  0  0  0  0  0  0  0  0
  139.0320   70.6990  222.9220 C   0  0  0  0  0  0  0  0  0  0  0  0
  139.4530   71.8130  223.7240 N   0  0  0  0  0  0  0  0  0  0  0  0
  140.6670   71.6050  224.4470 C   0  0  0  0  0  0  0  0  0  0  0  0
  140.4840   70.9420  225.7650 C   0  0  0  0  0  0  0  0  0  0  0  0
  140.0890   69.6340  225.9110 C   0  0  0  0  0  0  0  0  0  0  0  0
  139.9300   69.0480  227.1710 C   0  0  0  0  0  0  0  0  0  0  0  0
  140.1760   69.8060  228.3200 C   0  0  0  0  0  0  0  0  0  0  0  0
  140.5710   71.1130  228.1870 C   0  0  0  0  0  0  0  0  0  0  0  0
  140.7170   71.6520  226.9370 C   0  0  0  0  0  0  0  0  0  0  0  0
  139.5920   74.7230  221.6060 C   0  0  0  0  0  0  0  0  0  0  0  0
  140.2300   75.8800  221.2290 C   0  0  0  0  0  0  0  0  0  0  0  0
  141.5690   75.8980  220.8250 C   0  0  0  0  0  0  0  0  0  0  0  0
  142.2630   74.6840  220.8130 C   0  0  0  0  0  0  0  0  0  0  0  0
  143.5940   74.6170  220.4270 C   0  0  0  0  0  0  0  0  0  0  0  0
  144.2370   73.3990  220.4300 C   0  0  0  0  0  0  0  0  0  0  0  0
  145.9290   73.2500  219.9500 Cl  0  0  0  0  0  0  0  0  0  0  0  0
  143.5570   72.2710  220.8160 C   0  0  0  0  0  0  0  0  0  0  0  0
  142.2250   72.2870  221.2110 C   0  0  0  0  0  0  0  0  0  0  0  0
  141.5990   73.5150  221.2000 C   0  0  0  0  0  0  0  0  0  0  0  0
  140.3120   73.5830  221.5750 N   0  0  0  0  0  0  0  0  0  0  0  0
  138.1780   72.5820  222.1920 H   0  0  0  0  0  0  0  0  0  0  0  0
  136.0165   74.0282  223.5549 H   0  0  0  0  0  0  0  0  0  0  0  0
  135.5565   73.5474  221.8663 H   0  0  0  0  0  0  0  0  0  0  0  0
  135.3032   70.3708  221.1160 H   0  0  0  0  0  0  0  0  0  0  0  0
  136.9831   70.5327  220.6293 H   0  0  0  0  0  0  0  0  0  0  0  0
  135.5854   68.2328  222.0386 H   0  0  0  0  0  0  0  0  0  0  0  0
  136.8887   68.1346  220.8693 H   0  0  0  0  0  0  0  0  0  0  0  0
  137.1126   68.1049  223.7019 H   0  0  0  0  0  0  0  0  0  0  0  0
  138.4658   68.2818  222.5400 H   0  0  0  0  0  0  0  0  0  0  0  0
  137.7337   70.1938  224.4283 H   0  0  0  0  0  0  0  0  0  0  0  0
  139.7950   69.9102  222.9974 H   0  0  0  0  0  0  0  0  0  0  0  0
  138.9109   71.0733  221.8947 H   0  0  0  0  0  0  0  0  0  0  0  0
  139.3160   72.7360  223.3170 H   0  0  0  0  0  0  0  0  0  0  0  0
  141.3306   70.9774  223.8341 H   0  0  0  0  0  0  0  0  0  0  0  0
  141.0896   72.6002  224.6492 H   0  0  0  0  0  0  0  0  0  0  0  0
  139.8924   69.0312  225.0121 H   0  0  0  0  0  0  0  0  0  0  0  0
  139.6136   67.9980  227.2575 H   0  0  0  0  0  0  0  0  0  0  0  0
  140.0543   69.3599  229.3181 H   0  0  0  0  0  0  0  0  0  0  0  0
  140.7693   71.7245  229.0796 H   0  0  0  0  0  0  0  0  0  0  0  0
  141.0353   72.7018  226.8559 H   0  0  0  0  0  0  0  0  0  0  0  0
  139.6680   76.8254  221.2455 H   0  0  0  0  0  0  0  0  0  0  0  0
  142.0599   76.8361  220.5266 H   0  0  0  0  0  0  0  0  0  0  0  0
  144.1303   75.5275  220.1216 H   0  0  0  0  0  0  0  0  0  0  0  0
  144.0914   71.3096  220.8125 H   0  0  0  0  0  0  0  0  0  0  0  0
  141.6990   71.3702  221.5157 H   0  0  0  0  0  0  0  0  0  0  0  0
  1  2  2  0
  2  3  1  0
  3  4  1  0
  4  5  1  0
  5  6  2  0
  5  7  1  0
  7  8  1  0
  8  9  1  0
  9 10  1  0
 10 11  1  0
 11 12  1  0
 12 13  1  0
 13 14  1  0
 14 15  1  0
 15 16  2  0
 16 17  1  0
 17 18  2  0
 18 19  1  0
 19 20  2  0
  2 21  1  0
 21 22  2  0
 22 23  1  0
 23 24  2  0
 24 25  1  0
 25 26  2  0
 26 27  1  0
 26 28  1  0
 28 29  2  0
 29 30  1  0
 30 31  2  0
 11  7  1  0
 20 15  1  0
 31 21  1  0
 30 24  1  0
  3 32  1  0
  4 33  1  0
  4 34  1  0
  8 35  1  0
  8 36  1  0
  9 37  1  0
  9 38  1  0
 10 39  1  0
 10 40  1  0
 11 41  1  1
 12 42  1  0
 12 43  1  0
 13 44  1  0
 14 45  1  0
 14 46  1  0
 16 47  1  0
 17 48  1  0
 18 49  1  0
 19 50  1  0
 20 51  1  0
 22 52  1  0
 23 53  1  0
 25 54  1  0
 28 55  1  0
 29 56  1  0
M  END
>  <smiles>  (45) 
O=C(NCC(=O)N1CCC[C@H]1CNCc1ccccc1)c1ccc2cc(Cl)ccc2n1

>  <score_type>  (45) 
oracle

>  <origin>  (45) 
autodockgpu

>  <m_score__min__energy>  (45) 
-9.3399999999999999

>  <m_primary>  (45) 
energy

>  <rmsd>  (45) 
8.744700079169661

>  <m_score__min__rmsd>  (45) 
8.744700079169661

>  <meeko>  (45) 
{"free_energy": -7.17, "intermolecular_energy": -9.56, "internal_energy": -3.71, "cluster_size": 4, "cluster_id": 9, "rank_in_cluster": 3}

>  <energy>  (45) 
-5.75

>  <cluster_rmsd>  (45) 
0.0

>  <cluster>  (45) 
14

$$$$

     RDKit          3D

 56 59  0  0  0  0  0  0  0  0999 V2000
  140.6860   71.2250  222.8600 O   0  0  0  0  0  0  0  0  0  0  0  0
  139.7830   71.6300  222.0870 C   0  0  0  0  0  0  0  0  0  0  0  0
  139.1920   70.7230  221.1520 N   0  0  0  0  0  0  0  0  0  0  0  0
  139.5890   69.3420  221.0510 C   0  0  0  0  0  0  0  0  0  0  0  0
  138.9170   68.4950  222.0690 C   0  0  0  0  0  0  0  0  0  0  0  0
  139.1920   67.2670  222.2320 O   0  0  0  0  0  0  0  0  0  0  0  0
  137.9150   69.0290  222.9230 N   0  0  0  0  0  0  0  0  0  0  0  0
  136.4880   68.8900  222.6770 C   0  0  0  0  0  0  0  0  0  0  0  0
  135.9160   70.2230  223.1020 C   0  0  0  0  0  0  0  0  0  0  0  0
  136.8900   70.7060  224.1270 C   0  0  0  0  0  0  0  0  0  0  0  0
  138.0700   69.7840  224.1500 C   0  0  1  0  0  0  0  0  0  0  0  0
  138.1080   68.8840  225.3440 C   0  0  0  0  0  0  0  0  0  0  0  0
  139.2180   67.9750  225.3550 N   0  0  0  0  0  0  0  0  0  0  0  0
  140.1070   68.1280  226.4630 C   0  0  0  0  0  0  0  0  0  0  0  0
  140.4720   69.5370  226.7610 C   0  0  0  0  0  0  0  0  0  0  0  0
  141.1110   70.3640  225.8670 C   0  0  0  0  0  0  0  0  0  0  0  0
  141.4350   71.6860  226.1880 C   0  0  0  0  0  0  0  0  0  0  0  0
  141.1050   72.1910  227.4490 C   0  0  0  0  0  0  0  0  0  0  0  0
  140.4660   71.3760  228.3490 C   0  0  0  0  0  0  0  0  0  0  0  0
  140.1640   70.0860  228.0000 C   0  0  0  0  0  0  0  0  0  0  0  0
  139.2990   73.0220  222.1020 C   0  0  0  0  0  0  0  0  0  0  0  0
  137.9620   73.3270  222.0090 C   0  0  0  0  0  0  0  0  0  0  0  0
  137.4940   74.6450  222.0220 C   0  0  0  0  0  0  0  0  0  0  0  0
  138.4370   75.6710  222.1350 C   0  0  0  0  0  0  0  0  0  0  0  0
  138.0540   77.0050  222.1560 C   0  0  0  0  0  0  0  0  0  0  0  0
  139.0180   77.9820  222.2680 C   0  0  0  0  0  0  0  0  0  0  0  0
  138.5930   79.6950  222.3020 Cl  0  0  0  0  0  0  0  0  0  0  0  0
  140.3410   77.6270  222.3590 C   0  0  0  0  0  0  0  0  0  0  0  0
  140.7740   76.3060  222.3410 C   0  0  0  0  0  0  0  0  0  0  0  0
  139.7940   75.3440  222.2280 C   0  0  0  0  0  0  0  0  0  0  0  0
  140.1610   74.0530  222.2090 N   0  0  0  0  0  0  0  0  0  0  0  0
  138.4290   71.1100  220.5160 H   0  0  0  0  0  0  0  0  0  0  0  0
  139.3271   68.9693  220.0497 H   0  0  0  0  0  0  0  0  0  0  0  0
  140.6738   69.2864  221.2246 H   0  0  0  0  0  0  0  0  0  0  0  0
  136.2909   68.7010  221.6114 H   0  0  0  0  0  0  0  0  0  0  0  0
  136.0434   68.0439  223.2215 H   0  0  0  0  0  0  0  0  0  0  0  0
  135.8629   70.9180  222.2510 H   0  0  0  0  0  0  0  0  0  0  0  0
  134.8887   70.1465  223.4878 H   0  0  0  0  0  0  0  0  0  0  0  0
  137.2214   71.7231  223.8706 H   0  0  0  0  0  0  0  0  0  0  0  0
  136.4109   70.7217  225.1171 H   0  0  0  0  0  0  0  0  0  0  0  0
  139.0183   70.3371  224.2196 H   0  0  0  0  0  0  0  0  0  0  0  0
  138.1644   69.5097  226.2470 H   0  0  0  0  0  0  0  0  0  0  0  0
  137.1953   68.2710  225.3094 H   0  0  0  0  0  0  0  0  0  0  0  0
  139.0220   67.0220  225.0560 H   0  0  0  0  0  0  0  0  0  0  0  0
  139.6241   67.7009  227.3543 H   0  0  0  0  0  0  0  0  0  0  0  0
  141.0394   67.6101  226.1940 H   0  0  0  0  0  0  0  0  0  0  0  0
  141.3744   69.9750  224.8724 H   0  0  0  0  0  0  0  0  0  0  0  0
  141.9464   72.3246  225.4527 H   0  0  0  0  0  0  0  0  0  0  0  0
  141.3544   73.2285  227.7163 H   0  0  0  0  0  0  0  0  0  0  0  0
  140.1976   71.7564  229.3456 H   0  0  0  0  0  0  0  0  0  0  0  0
  139.6513   69.4522  228.7385 H   0  0  0  0  0  0  0  0  0  0  0  0
  137.2350   72.5062  221.9213 H   0  0  0  0  0  0  0  0  0  0  0  0
  136.4193   74.8670  221.9458 H   0  0  0  0  0  0  0  0  0  0  0  0
  136.9911   77.2790  222.0839 H   0  0  0  0  0  0  0  0  0  0  0  0
  141.0931   78.4245  222.4503 H   0  0  0  0  0  0  0  0  0  0  0  0
  141.8398   76.0434  222.4130 H   0  0  0  0  0  0  0  0  0  0  0  0
  1  2  2  0
  2  3  1  0
  3  4  1  0
  4  5  1  0
  5  6  2  0
  5  7  1  0
  7  8  1  0
  8  9  1  0
  9 10  1  0
 10 11  1  0
 11 12  1  0
 12 13  1  0
 13 14  1  0
 14 15  1  0
 15 16  2  0
 16 17  1  0
 17 18  2  0
 18 19  1  0
 19 20  2  0
  2 21  1  0
 21 22  2  0
 22 23  1  0
 23 24  2  0
 24 25  1  0
 25 26  2  0
 26 27  1  0
 26 28  1  0
 28 29  2  0
 29 30  1  0
 30 31  2  0
 11  7  1  0
 20 15  1  0
 31 21  1  0
 30 24  1  0
  3 32  1  0
  4 33  1  0
  4 34  1  0
  8 35  1  0
  8 36  1  0
  9 37  1  0
  9 38  1  0
 10 39  1  0
 10 40  1  0
 11 41  1  6
 12 42  1  0
 12 43  1  0
 13 44  1  0
 14 45  1  0
 14 46  1  0
 16 47  1  0
 17 48  1  0
 18 49  1  0
 19 50  1  0
 20 51  1  0
 22 52  1  0
 23 53  1  0
 25 54  1  0
 28 55  1  0
 29 56  1  0
M  END
>  <smiles>  (46) 
O=C(NCC(=O)N1CCC[C@H]1CNCc1ccccc1)c1ccc2cc(Cl)ccc2n1

>  <score_type>  (46) 
oracle

>  <origin>  (46) 
autodockgpu

>  <m_score__min__energy>  (46) 
-9.3399999999999999

>  <m_primary>  (46) 
energy

>  <rmsd>  (46) 
9.085189185174043

>  <m_score__min__rmsd>  (46) 
9.085189185174043

>  <meeko>  (46) 
{"free_energy": -7.83, "intermolecular_energy": -10.22, "internal_energy": -2.62, "cluster_size": 7, "cluster_id": 2, "rank_in_cluster": 4}

>  <energy>  (46) 
-5.57

>  <cluster_rmsd>  (46) 
0.0

>  <cluster>  (46) 
15

$$$$

     RDKit          3D

 56 59  0  0  0  0  0  0  0  0999 V2000
  140.0640   72.2170  220.6350 O   0  0  0  0  0  0  0  0  0  0  0  0
  139.8690   72.5740  221.8240 C   0  0  0  0  0  0  0  0  0  0  0  0
  139.6180   73.9510  222.1190 N   0  0  0  0  0  0  0  0  0  0  0  0
  139.5780   74.9690  221.1000 C   0  0  0  0  0  0  0  0  0  0  0  0
  139.2550   76.3050  221.6630 C   0  0  0  0  0  0  0  0  0  0  0  0
  138.8240   76.4660  222.8470 O   0  0  0  0  0  0  0  0  0  0  0  0
  139.4120   77.4860  220.8900 N   0  0  0  0  0  0  0  0  0  0  0  0
  138.8990   78.7860  221.2920 C   0  0  0  0  0  0  0  0  0  0  0  0
  138.4140   79.3990  219.9980 C   0  0  0  0  0  0  0  0  0  0  0  0
  139.2650   78.7410  218.9620 C   0  0  0  0  0  0  0  0  0  0  0  0
  140.0710   77.6570  219.6110 C   0  0  1  0  0  0  0  0  0  0  0  0
  141.5160   78.0030  219.7820 C   0  0  0  0  0  0  0  0  0  0  0  0
  142.2860   76.9830  220.4370 N   0  0  0  0  0  0  0  0  0  0  0  0
  143.2550   76.3390  219.6070 C   0  0  0  0  0  0  0  0  0  0  0  0
  143.5960   74.9570  220.0320 C   0  0  0  0  0  0  0  0  0  0  0  0
  142.6980   73.9160  220.0330 C   0  0  0  0  0  0  0  0  0  0  0  0
  143.0620   72.6290  220.4410 C   0  0  0  0  0  0  0  0  0  0  0  0
  144.3720   72.3820  220.8600 C   0  0  0  0  0  0  0  0  0  0  0  0
  145.2780   73.4120  220.8620 C   0  0  0  0  0  0  0  0  0  0  0  0
  144.8860   74.6600  220.4570 C   0  0  0  0  0  0  0  0  0  0  0  0
  139.8880   71.6190  222.9460 C   0  0  0  0  0  0  0  0  0  0  0  0
  139.3690   70.3510  222.8300 C   0  0  0  0  0  0  0  0  0  0  0  0
  139.3830   69.4390  223.8900 C   0  0  0  0  0  0  0  0  0  0  0  0
  139.9500   69.8520  225.0990 C   0  0  0  0  0  0  0  0  0  0  0  0
  140.0040   69.0060  226.1980 C   0  0  0  0  0  0  0  0  0  0  0  0
  140.5720   69.4560  227.3690 C   0  0  0  0  0  0  0  0  0  0  0  0
  140.6700   68.4260  228.8000 Cl  0  0  0  0  0  0  0  0  0  0  0  0
  141.0780   70.7300  227.4350 C   0  0  0  0  0  0  0  0  0  0  0  0
  141.0480   71.6140  226.3630 C   0  0  0  0  0  0  0  0  0  0  0  0
  140.4750   71.1450  225.2000 C   0  0  0  0  0  0  0  0  0  0  0  0
  140.4230   71.9610  224.1360 N   0  0  0  0  0  0  0  0  0  0  0  0
  139.4580   74.2080  223.1400 H   0  0  0  0  0  0  0  0  0  0  0  0
  140.5608   75.0186  220.6083 H   0  0  0  0  0  0  0  0  0  0  0  0
  138.7882   74.7018  220.3825 H   0  0  0  0  0  0  0  0  0  0  0  0
  138.0711   78.6761  222.0079 H   0  0  0  0  0  0  0  0  0  0  0  0
  139.6557   79.4038  221.7977 H   0  0  0  0  0  0  0  0  0  0  0  0
  137.3496   79.1768  219.8320 H   0  0  0  0  0  0  0  0  0  0  0  0
  138.4946   80.4960  219.9861 H   0  0  0  0  0  0  0  0  0  0  0  0
  138.6248   78.3069  218.1799 H   0  0  0  0  0  0  0  0  0  0  0  0
  139.9375   79.4829  218.5067 H   0  0  0  0  0  0  0  0  0  0  0  0
  140.0999   76.7452  218.9963 H   0  0  0  0  0  0  0  0  0  0  0  0
  141.9500   78.1788  218.7866 H   0  0  0  0  0  0  0  0  0  0  0  0
  141.5564   78.8950  220.4245 H   0  0  0  0  0  0  0  0  0  0  0  0
  142.5630   77.1770  221.3970 H   0  0  0  0  0  0  0  0  0  0  0  0
  142.8584   76.2971  218.5818 H   0  0  0  0  0  0  0  0  0  0  0  0
  144.1794   76.9306  219.6814 H   0  0  0  0  0  0  0  0  0  0  0  0
  141.6648   74.1006  219.7038 H   0  0  0  0  0  0  0  0  0  0  0  0
  142.3214   71.8157  220.4322 H   0  0  0  0  0  0  0  0  0  0  0  0
  144.6728   71.3748  221.1840 H   0  0  0  0  0  0  0  0  0  0  0  0
  146.3140   73.2364  221.1872 H   0  0  0  0  0  0  0  0  0  0  0  0
  145.6305   75.4697  220.4685 H   0  0  0  0  0  0  0  0  0  0  0  0
  138.9277   70.0434  221.8705 H   0  0  0  0  0  0  0  0  0  0  0  0
  138.9615   68.4294  223.7761 H   0  0  0  0  0  0  0  0  0  0  0  0
  139.5971   67.9860  226.1342 H   0  0  0  0  0  0  0  0  0  0  0  0
  141.5282   71.0671  228.3803 H   0  0  0  0  0  0  0  0  0  0  0  0
  141.4587   72.6317  226.4383 H   0  0  0  0  0  0  0  0  0  0  0  0
  1  2  2  0
  2  3  1  0
  3  4  1  0
  4  5  1  0
  5  6  2  0
  5  7  1  0
  7  8  1  0
  8  9  1  0
  9 10  1  0
 10 11  1  0
 11 12  1  0
 12 13  1  0
 13 14  1  0
 14 15  1  0
 15 16  2  0
 16 17  1  0
 17 18  2  0
 18 19  1  0
 19 20  2  0
  2 21  1  0
 21 22  2  0
 22 23  1  0
 23 24  2  0
 24 25  1  0
 25 26  2  0
 26 27  1  0
 26 28  1  0
 28 29  2  0
 29 30  1  0
 30 31  2  0
 11  7  1  0
 20 15  1  0
 31 21  1  0
 30 24  1  0
  3 32  1  0
  4 33  1  0
  4 34  1  0
  8 35  1  0
  8 36  1  0
  9 37  1  0
  9 38  1  0
 10 39  1  0
 10 40  1  0
 11 41  1  6
 12 42  1  0
 12 43  1  0
 13 44  1  0
 14 45  1  0
 14 46  1  0
 16 47  1  0
 17 48  1  0
 18 49  1  0
 19 50  1  0
 20 51  1  0
 22 52  1  0
 23 53  1  0
 25 54  1  0
 28 55  1  0
 29 56  1  0
M  END
>  <smiles>  (47) 
O=C(NCC(=O)N1CCC[C@H]1CNCc1ccccc1)c1ccc2cc(Cl)ccc2n1

>  <score_type>  (47) 
oracle

>  <origin>  (47) 
autodockgpu

>  <m_score__min__energy>  (47) 
-9.3399999999999999

>  <m_primary>  (47) 
energy

>  <rmsd>  (47) 
4.777684809345301

>  <m_score__min__rmsd>  (47) 
4.777684809345301

>  <meeko>  (47) 
{"free_energy": -7.93, "intermolecular_energy": -10.32, "internal_energy": -2.47, "cluster_size": 10, "cluster_id": 1, "rank_in_cluster": 6}

>  <energy>  (47) 
-5.46

>  <cluster_rmsd>  (47) 
0.0

>  <cluster>  (47) 
16

$$$$

     RDKit          3D

 56 59  0  0  0  0  0  0  0  0999 V2000
  139.1130   74.9440  222.3530 O   0  0  0  0  0  0  0  0  0  0  0  0
  140.2910   75.1420  221.9640 C   0  0  0  0  0  0  0  0  0  0  0  0
  140.8730   76.4420  222.0960 N   0  0  0  0  0  0  0  0  0  0  0  0
  140.1610   77.5580  222.6640 C   0  0  0  0  0  0  0  0  0  0  0  0
  141.0800   78.6460  223.0860 C   0  0  0  0  0  0  0  0  0  0  0  0
  141.6430   78.6670  224.2230 O   0  0  0  0  0  0  0  0  0  0  0  0
  141.3750   79.7350  222.2230 N   0  0  0  0  0  0  0  0  0  0  0  0
  142.2310   80.8490  222.5950 C   0  0  0  0  0  0  0  0  0  0  0  0
  141.5570   82.0480  221.9680 C   0  0  0  0  0  0  0  0  0  0  0  0
  140.8280   81.4660  220.8020 C   0  0  0  0  0  0  0  0  0  0  0  0
  140.9220   79.9720  220.8670 C   0  0  1  0  0  0  0  0  0  0  0  0
  141.8640   79.3840  219.8650 C   0  0  0  0  0  0  0  0  0  0  0  0
  142.2050   78.0130  220.1190 N   0  0  0  0  0  0  0  0  0  0  0  0
  141.6300   77.0740  219.2080 C   0  0  0  0  0  0  0  0  0  0  0  0
  142.5370   76.6650  218.1040 C   0  0  0  0  0  0  0  0  0  0  0  0
  142.8510   77.4720  217.0360 C   0  0  0  0  0  0  0  0  0  0  0  0
  143.7110   77.0470  216.0180 C   0  0  0  0  0  0  0  0  0  0  0  0
  144.2720   75.7690  216.0790 C   0  0  0  0  0  0  0  0  0  0  0  0
  143.9690   74.9540  217.1400 C   0  0  0  0  0  0  0  0  0  0  0  0
  143.1220   75.4040  218.1180 C   0  0  0  0  0  0  0  0  0  0  0  0
  141.1130   74.0730  221.3680 C   0  0  0  0  0  0  0  0  0  0  0  0
  140.5740   72.8660  220.9920 C   0  0  0  0  0  0  0  0  0  0  0  0
  141.3470   71.8470  220.4250 C   0  0  0  0  0  0  0  0  0  0  0  0
  142.7120   72.0880  220.2440 C   0  0  0  0  0  0  0  0  0  0  0  0
  143.5460   71.1290  219.6880 C   0  0  0  0  0  0  0  0  0  0  0  0
  144.8850   71.4090  219.5280 C   0  0  0  0  0  0  0  0  0  0  0  0
  145.9960   70.2310  218.8260 Cl  0  0  0  0  0  0  0  0  0  0  0  0
  145.3760   72.6310  219.9180 C   0  0  0  0  0  0  0  0  0  0  0  0
  144.5810   73.6230  220.4800 C   0  0  0  0  0  0  0  0  0  0  0  0
  143.2450   73.3220  220.6310 C   0  0  0  0  0  0  0  0  0  0  0  0
  142.4350   74.2480  221.1680 N   0  0  0  0  0  0  0  0  0  0  0  0
  141.8750   76.5620  221.7540 H   0  0  0  0  0  0  0  0  0  0  0  0
  139.4629   77.9542  221.9119 H   0  0  0  0  0  0  0  0  0  0  0  0
  139.6240   77.2012  223.5553 H   0  0  0  0  0  0  0  0  0  0  0  0
  142.2819   80.9557  223.6886 H   0  0  0  0  0  0  0  0  0  0  0  0
  143.2692   80.7191  222.2553 H   0  0  0  0  0  0  0  0  0  0  0  0
  140.8575   82.5198  222.6737 H   0  0  0  0  0  0  0  0  0  0  0  0
  142.2669   82.8372  221.6797 H   0  0  0  0  0  0  0  0  0  0  0  0
  139.7718   81.7714  220.8371 H   0  0  0  0  0  0  0  0  0  0  0  0
  141.2761   81.8271  219.8645 H   0  0  0  0  0  0  0  0  0  0  0  0
  139.9626   79.4917  220.6244 H   0  0  0  0  0  0  0  0  0  0  0  0
  141.3953   79.4456  218.8718 H   0  0  0  0  0  0  0  0  0  0  0  0
  142.7980   79.9615  219.9290 H   0  0  0  0  0  0  0  0  0  0  0  0
  143.1630   77.8360  220.4130 H   0  0  0  0  0  0  0  0  0  0  0  0
  141.3463   76.1739  219.7731 H   0  0  0  0  0  0  0  0  0  0  0  0
  140.7677   77.5726  218.7413 H   0  0  0  0  0  0  0  0  0  0  0  0
  142.4137   78.4798  216.9806 H   0  0  0  0  0  0  0  0  0  0  0  0
  143.9440   77.7144  215.1752 H   0  0  0  0  0  0  0  0  0  0  0  0
  144.9490   75.4202  215.2852 H   0  0  0  0  0  0  0  0  0  0  0  0
  144.4034   73.9455  217.2050 H   0  0  0  0  0  0  0  0  0  0  0  0
  142.8927   74.7324  218.9584 H   0  0  0  0  0  0  0  0  0  0  0  0
  139.4978   72.6952  221.1420 H   0  0  0  0  0  0  0  0  0  0  0  0
  140.8955   70.8879  220.1313 H   0  0  0  0  0  0  0  0  0  0  0  0
  143.1417   70.1541  219.3778 H   0  0  0  0  0  0  0  0  0  0  0  0
  146.4482   72.8340  219.7791 H   0  0  0  0  0  0  0  0  0  0  0  0
  144.9955   74.5945  220.7872 H   0  0  0  0  0  0  0  0  0  0  0  0
  1  2  2  0
  2  3  1  0
  3  4  1  0
  4  5  1  0
  5  6  2  0
  5  7  1  0
  7  8  1  0
  8  9  1  0
  9 10  1  0
 10 11  1  0
 11 12  1  0
 12 13  1  0
 13 14  1  0
 14 15  1  0
 15 16  2  0
 16 17  1  0
 17 18  2  0
 18 19  1  0
 19 20  2  0
  2 21  1  0
 21 22  2  0
 22 23  1  0
 23 24  2  0
 24 25  1  0
 25 26  2  0
 26 27  1  0
 26 28  1  0
 28 29  2  0
 29 30  1  0
 30 31  2  0
 11  7  1  0
 20 15  1  0
 31 21  1  0
 30 24  1  0
  3 32  1  0
  4 33  1  0
  4 34  1  0
  8 35  1  0
  8 36  1  0
  9 37  1  0
  9 38  1  0
 10 39  1  0
 10 40  1  0
 11 41  1  1
 12 42  1  0
 12 43  1  0
 13 44  1  0
 14 45  1  0
 14 46  1  0
 16 47  1  0
 17 48  1  0
 18 49  1  0
 19 50  1  0
 20 51  1  0
 22 52  1  0
 23 53  1  0
 25 54  1  0
 28 55  1  0
 29 56  1  0
M  END
>  <smiles>  (48) 
O=C(NCC(=O)N1CCC[C@H]1CNCc1ccccc1)c1ccc2cc(Cl)ccc2n1

>  <score_type>  (48) 
oracle

>  <origin>  (48) 
autodockgpu

>  <m_score__min__energy>  (48) 
-9.3399999999999999

>  <m_primary>  (48) 
energy

>  <rmsd>  (48) 
6.585175599230381

>  <m_score__min__rmsd>  (48) 
6.585175599230381

>  <meeko>  (48) 
{"free_energy": -6.86, "intermolecular_energy": -9.25, "internal_energy": -3.38, "cluster_size": 3, "cluster_id": 8, "rank_in_cluster": 2}

>  <energy>  (48) 
-5.38

>  <cluster_rmsd>  (48) 
0.34

>  <cluster>  (48) 
16

$$$$

     RDKit          3D

 56 59  0  0  0  0  0  0  0  0999 V2000
  141.2870   79.0620  217.1850 O   0  0  0  0  0  0  0  0  0  0  0  0
  141.9790   78.6000  218.1260 C   0  0  0  0  0  0  0  0  0  0  0  0
  142.2050   79.3930  219.2950 N   0  0  0  0  0  0  0  0  0  0  0  0
  141.6690   80.7210  219.4490 C   0  0  0  0  0  0  0  0  0  0  0  0
  140.7370   80.8130  220.6020 C   0  0  0  0  0  0  0  0  0  0  0  0
  139.5290   81.1870  220.4810 O   0  0  0  0  0  0  0  0  0  0  0  0
  141.1600   80.4840  221.9170 N   0  0  0  0  0  0  0  0  0  0  0  0
  140.7860   81.2460  223.0980 C   0  0  0  0  0  0  0  0  0  0  0  0
  142.0380   81.2370  223.9460 C   0  0  0  0  0  0  0  0  0  0  0  0
  142.7300   79.9800  223.5280 C   0  0  0  0  0  0  0  0  0  0  0  0
  142.0050   79.3920  222.3560 C   0  0  1  0  0  0  0  0  0  0  0  0
  141.1980   78.1790  222.6950 C   0  0  0  0  0  0  0  0  0  0  0  0
  141.4530   77.0520  221.8420 N   0  0  0  0  0  0  0  0  0  0  0  0
  140.2830   76.4040  221.3410 C   0  0  0  0  0  0  0  0  0  0  0  0
  140.5240   75.0330  220.8200 C   0  0  0  0  0  0  0  0  0  0  0  0
  141.0220   74.0030  221.5830 C   0  0  0  0  0  0  0  0  0  0  0  0
  141.2330   72.7270  221.0520 C   0  0  0  0  0  0  0  0  0  0  0  0
  140.9330   72.4800  219.7090 C   0  0  0  0  0  0  0  0  0  0  0  0
  140.4350   73.4990  218.9370 C   0  0  0  0  0  0  0  0  0  0  0  0
  140.2410   74.7360  219.4920 C   0  0  0  0  0  0  0  0  0  0  0  0
  142.5780   77.2540  218.0770 C   0  0  0  0  0  0  0  0  0  0  0  0
  142.6480   76.5330  216.9090 C   0  0  0  0  0  0  0  0  0  0  0  0
  143.2140   75.2550  216.8540 C   0  0  0  0  0  0  0  0  0  0  0  0
  143.7200   74.7140  218.0390 C   0  0  0  0  0  0  0  0  0  0  0  0
  144.2990   73.4530  218.0680 C   0  0  0  0  0  0  0  0  0  0  0  0
  144.7850   72.9600  219.2590 C   0  0  0  0  0  0  0  0  0  0  0  0
  145.5320   71.3630  219.3590 Cl  0  0  0  0  0  0  0  0  0  0  0  0
  144.6920   73.7190  220.3980 C   0  0  0  0  0  0  0  0  0  0  0  0
  144.1220   74.9860  220.4210 C   0  0  0  0  0  0  0  0  0  0  0  0
  143.6420   75.4610  219.2190 C   0  0  0  0  0  0  0  0  0  0  0  0
  143.0830   76.6810  219.1880 N   0  0  0  0  0  0  0  0  0  0  0  0
  142.7970   78.9610  220.0680 H   0  0  0  0  0  0  0  0  0  0  0  0
  142.5004   81.4237  219.6071 H   0  0  0  0  0  0  0  0  0  0  0  0
  141.1072   80.9693  218.5365 H   0  0  0  0  0  0  0  0  0  0  0  0
  140.5035   82.2741  222.8275 H   0  0  0  0  0  0  0  0  0  0  0  0
  139.9161   80.8209  223.6201 H   0  0  0  0  0  0  0  0  0  0  0  0
  142.6619   82.1183  223.7362 H   0  0  0  0  0  0  0  0  0  0  0  0
  141.8264   81.2725  225.0249 H   0  0  0  0  0  0  0  0  0  0  0  0
  143.7680   80.2073  223.2436 H   0  0  0  0  0  0  0  0  0  0  0  0
  142.7336   79.2623  224.3616 H   0  0  0  0  0  0  0  0  0  0  0  0
  142.7012   79.0267  221.5867 H   0  0  0  0  0  0  0  0  0  0  0  0
  141.4283   77.8884  223.7306 H   0  0  0  0  0  0  0  0  0  0  0  0
  140.1410   78.4505  222.5570 H   0  0  0  0  0  0  0  0  0  0  0  0
  142.2350   77.1450  221.1970 H   0  0  0  0  0  0  0  0  0  0  0  0
  139.5480   76.3392  222.1568 H   0  0  0  0  0  0  0  0  0  0  0  0
  139.9252   77.0068  220.4933 H   0  0  0  0  0  0  0  0  0  0  0  0
  141.2610   74.1882  222.6406 H   0  0  0  0  0  0  0  0  0  0  0  0
  141.6325   71.9224  221.6869 H   0  0  0  0  0  0  0  0  0  0  0  0
  141.0942   71.4814  219.2768 H   0  0  0  0  0  0  0  0  0  0  0  0
  140.1929   73.3235  217.8784 H   0  0  0  0  0  0  0  0  0  0  0  0
  139.8401   75.5367  218.8531 H   0  0  0  0  0  0  0  0  0  0  0  0
  142.2453   76.9759  215.9862 H   0  0  0  0  0  0  0  0  0  0  0  0
  143.2593   74.6941  215.9088 H   0  0  0  0  0  0  0  0  0  0  0  0
  144.3692   72.8530  217.1487 H   0  0  0  0  0  0  0  0  0  0  0  0
  145.0873   73.3051  221.3373 H   0  0  0  0  0  0  0  0  0  0  0  0
  144.0573   75.5770  221.3465 H   0  0  0  0  0  0  0  0  0  0  0  0
  1  2  2  0
  2  3  1  0
  3  4  1  0
  4  5  1  0
  5  6  2  0
  5  7  1  0
  7  8  1  0
  8  9  1  0
  9 10  1  0
 10 11  1  0
 11 12  1  0
 12 13  1  0
 13 14  1  0
 14 15  1  0
 15 16  2  0
 16 17  1  0
 17 18  2  0
 18 19  1  0
 19 20  2  0
  2 21  1  0
 21 22  2  0
 22 23  1  0
 23 24  2  0
 24 25  1  0
 25 26  2  0
 26 27  1  0
 26 28  1  0
 28 29  2  0
 29 30  1  0
 30 31  2  0
 11  7  1  0
 20 15  1  0
 31 21  1  0
 30 24  1  0
  3 32  1  0
  4 33  1  0
  4 34  1  0
  8 35  1  0
  8 36  1  0
  9 37  1  0
  9 38  1  0
 10 39  1  0
 10 40  1  0
 11 41  1  6
 12 42  1  0
 12 43  1  0
 13 44  1  0
 14 45  1  0
 14 46  1  0
 16 47  1  0
 17 48  1  0
 18 49  1  0
 19 50  1  0
 20 51  1  0
 22 52  1  0
 23 53  1  0
 25 54  1  0
 28 55  1  0
 29 56  1  0
M  END
>  <smiles>  (49) 
O=C(NCC(=O)N1CCC[C@H]1CNCc1ccccc1)c1ccc2cc(Cl)ccc2n1

>  <score_type>  (49) 
oracle

>  <origin>  (49) 
autodockgpu

>  <m_score__min__energy>  (49) 
-9.3399999999999999

>  <m_primary>  (49) 
energy

>  <rmsd>  (49) 
8.201902211766303

>  <m_score__min__rmsd>  (49) 
8.201902211766303

>  <meeko>  (49) 
{"free_energy": -6.06, "intermolecular_energy": -8.45, "internal_energy": -4.26, "cluster_size": 1, "cluster_id": 12, "rank_in_cluster": 1}

>  <energy>  (49) 
-5.45

>  <cluster_rmsd>  (49) 
0.0

>  <cluster>  (49) 
17

$$$$

     RDKit          3D

 56 59  0  0  0  0  0  0  0  0999 V2000
  138.9170   72.0680  220.7490 O   0  0  0  0  0  0  0  0  0  0  0  0
  139.1810   72.4280  221.9230 C   0  0  0  0  0  0  0  0  0  0  0  0
  139.2800   73.8210  222.2320 N   0  0  0  0  0  0  0  0  0  0  0  0
  139.0900   74.8520  221.2440 C   0  0  0  0  0  0  0  0  0  0  0  0
  139.0960   76.2080  221.8480 C   0  0  0  0  0  0  0  0  0  0  0  0
  138.1640   76.6310  222.5990 O   0  0  0  0  0  0  0  0  0  0  0  0
  140.1640   77.1140  221.6100 N   0  0  0  0  0  0  0  0  0  0  0  0
  141.1110   77.5320  222.6320 C   0  0  0  0  0  0  0  0  0  0  0  0
  141.3450   78.9950  222.3320 C   0  0  0  0  0  0  0  0  0  0  0  0
  141.0790   79.0950  220.8660 C   0  0  0  0  0  0  0  0  0  0  0  0
  140.5300   77.7880  220.3800 C   0  0  1  0  0  0  0  0  0  0  0  0
  141.5070   76.9820  219.5850 C   0  0  0  0  0  0  0  0  0  0  0  0
  142.8570   77.0630  220.0660 N   0  0  0  0  0  0  0  0  0  0  0  0
  143.7030   75.9860  219.6600 C   0  0  0  0  0  0  0  0  0  0  0  0
  143.0510   74.6510  219.7040 C   0  0  0  0  0  0  0  0  0  0  0  0
  142.9720   73.8780  220.8380 C   0  0  0  0  0  0  0  0  0  0  0  0
  142.3490   72.6270  220.8360 C   0  0  0  0  0  0  0  0  0  0  0  0
  141.7860   72.1390  219.6540 C   0  0  0  0  0  0  0  0  0  0  0  0
  141.8560   72.9000  218.5150 C   0  0  0  0  0  0  0  0  0  0  0  0
  142.4750   74.1220  218.5550 C   0  0  0  0  0  0  0  0  0  0  0  0
  139.3960   71.4610  223.0140 C   0  0  0  0  0  0  0  0  0  0  0  0
  139.0160   70.1440  222.9030 C   0  0  0  0  0  0  0  0  0  0  0  0
  139.2160   69.2200  223.9340 C   0  0  0  0  0  0  0  0  0  0  0  0
  139.8270   69.6730  225.1070 C   0  0  0  0  0  0  0  0  0  0  0  0
  140.0620   68.8180  226.1750 C   0  0  0  0  0  0  0  0  0  0  0  0
  140.6660   69.3090  227.3110 C   0  0  0  0  0  0  0  0  0  0  0  0
  140.9920   68.2710  228.7020 Cl  0  0  0  0  0  0  0  0  0  0  0  0
  141.0290   70.6310  227.3740 C   0  0  0  0  0  0  0  0  0  0  0  0
  140.8140   71.5260  226.3320 C   0  0  0  0  0  0  0  0  0  0  0  0
  140.2080   71.0150  225.2040 C   0  0  0  0  0  0  0  0  0  0  0  0
  139.9810   71.8390  224.1690 N   0  0  0  0  0  0  0  0  0  0  0  0
  139.5050   74.0800  223.2410 H   0  0  0  0  0  0  0  0  0  0  0  0
  139.9016   74.7890  220.5042 H   0  0  0  0  0  0  0  0  0  0  0  0
  138.1089   74.6942  220.7722 H   0  0  0  0  0  0  0  0  0  0  0  0
  140.6848   77.4017  223.6377 H   0  0  0  0  0  0  0  0  0  0  0  0
  142.0391   76.9417  222.6181 H   0  0  0  0  0  0  0  0  0  0  0  0
  140.6506   79.6296  222.9021 H   0  0  0  0  0  0  0  0  0  0  0  0
  142.3541   79.3340  222.6093 H   0  0  0  0  0  0  0  0  0  0  0  0
  140.3481   79.8951  220.6774 H   0  0  0  0  0  0  0  0  0  0  0  0
  142.0132   79.3270  220.3335 H   0  0  0  0  0  0  0  0  0  0  0  0
  139.6932   77.9318  219.6806 H   0  0  0  0  0  0  0  0  0  0  0  0
  141.1917   75.9286  219.6144 H   0  0  0  0  0  0  0  0  0  0  0  0
  141.5064   77.3953  218.5656 H   0  0  0  0  0  0  0  0  0  0  0  0
  143.2750   77.9910  220.0780 H   0  0  0  0  0  0  0  0  0  0  0  0
  144.0320   76.1757  218.6276 H   0  0  0  0  0  0  0  0  0  0  0  0
  144.5393   75.9537  220.3739 H   0  0  0  0  0  0  0  0  0  0  0  0
  143.4115   74.2547  221.7733 H   0  0  0  0  0  0  0  0  0  0  0  0
  142.3022   72.0304  221.7590 H   0  0  0  0  0  0  0  0  0  0  0  0
  141.2924   71.1561  219.6371 H   0  0  0  0  0  0  0  0  0  0  0  0
  141.4181   72.5318  217.5755 H   0  0  0  0  0  0  0  0  0  0  0  0
  142.5183   74.7151  217.6296 H   0  0  0  0  0  0  0  0  0  0  0  0
  138.5385   69.8056  221.9716 H   0  0  0  0  0  0  0  0  0  0  0  0
  138.9027   68.1712  223.8253 H   0  0  0  0  0  0  0  0  0  0  0  0
  139.7689   67.7595  226.1146 H   0  0  0  0  0  0  0  0  0  0  0  0
  141.5122   70.9994  228.2909 H   0  0  0  0  0  0  0  0  0  0  0  0
  141.1108   72.5828  226.4036 H   0  0  0  0  0  0  0  0  0  0  0  0
  1  2  2  0
  2  3  1  0
  3  4  1  0
  4  5  1  0
  5  6  2  0
  5  7  1  0
  7  8  1  0
  8  9  1  0
  9 10  1  0
 10 11  1  0
 11 12  1  0
 12 13  1  0
 13 14  1  0
 14 15  1  0
 15 16  2  0
 16 17  1  0
 17 18  2  0
 18 19  1  0
 19 20  2  0
  2 21  1  0
 21 22  2  0
 22 23  1  0
 23 24  2  0
 24 25  1  0
 25 26  2  0
 26 27  1  0
 26 28  1  0
 28 29  2  0
 29 30  1  0
 30 31  2  0
 11  7  1  0
 20 15  1  0
 31 21  1  0
 30 24  1  0
  3 32  1  0
  4 33  1  0
  4 34  1  0
  8 35  1  0
  8 36  1  0
  9 37  1  0
  9 38  1  0
 10 39  1  0
 10 40  1  0
 11 41  1  6
 12 42  1  0
 12 43  1  0
 13 44  1  0
 14 45  1  0
 14 46  1  0
 16 47  1  0
 17 48  1  0
 18 49  1  0
 19 50  1  0
 20 51  1  0
 22 52  1  0
 23 53  1  0
 25 54  1  0
 28 55  1  0
 29 56  1  0
M  END
>  <smiles>  (50) 
O=C(NCC(=O)N1CCC[C@H]1CNCc1ccccc1)c1ccc2cc(Cl)ccc2n1

>  <score_type>  (50) 
oracle

>  <origin>  (50) 
autodockgpu

>  <m_score__min__energy>  (50) 
-9.3399999999999999

>  <m_primary>  (50) 
energy

>  <rmsd>  (50) 
4.789072159363402

>  <m_score__min__rmsd>  (50) 
4.789072159363402

>  <meeko>  (50) 
{"free_energy": -7.56, "intermolecular_energy": -9.95, "internal_energy": -2.61, "cluster_size": 10, "cluster_id": 1, "rank_in_cluster": 7}

>  <energy>  (50) 
-5.38

>  <cluster_rmsd>  (50) 
0.0

>  <cluster>  (50) 
18

$$$$
