
     RDKit          3D

 69 73  0  0  0  0  0  0  0  0999 V2000
  141.0980   68.2540  226.1940 C   0  0  0  0  0  0  0  0  0  0  0  0
  140.3790   69.4670  226.4610 N   0  0  0  0  0  0  0  0  0  0  0  0
  141.0780   70.6740  226.1470 C   0  0  0  0  0  0  0  0  0  0  0  0
  140.4610   71.3610  224.9230 C   0  0  0  0  0  0  0  0  0  0  0  0
  139.8730   70.3780  224.0810 N   0  0  0  0  0  0  0  0  0  0  0  0
  139.9550   70.5760  222.6880 C   0  0  0  0  0  0  0  0  0  0  0  0
  140.4050   71.8900  222.2160 C   0  0  0  0  0  0  0  0  0  0  0  0
  141.6000   72.0580  221.5460 C   0  0  0  0  0  0  0  0  0  0  0  0
  142.0490   73.2810  221.0910 C   0  0  0  0  0  0  0  0  0  0  0  0
  141.2810   74.4150  221.3050 C   0  0  0  0  0  0  0  0  0  0  0  0
  141.6800   75.6680  220.8730 C   0  0  0  0  0  0  0  0  0  0  0  0
  142.7840   75.7140  220.2700 O   0  0  0  0  0  0  0  0  0  0  0  0
  140.9200   76.7830  221.0880 N   0  0  0  0  0  0  0  0  0  0  0  0
  141.4080   78.0360  220.6250 C   0  0  0  0  0  0  0  0  0  0  0  0
  141.5320   79.1460  221.5980 C   0  0  0  0  0  0  0  0  0  0  0  0
  141.6170   80.5240  220.9730 C   0  0  0  0  0  0  0  0  0  0  0  0
  141.8240   81.6180  221.9900 C   0  0  0  0  0  0  0  0  0  0  0  0
  141.4890   81.2100  223.3800 C   0  0  0  0  0  0  0  0  0  0  0  0
  142.1340   79.9450  223.8250 C   0  0  0  0  0  0  0  0  0  0  0  0
  142.5680   79.0400  222.6560 C   0  0  0  0  0  0  0  0  0  0  0  0
  139.7630   76.5830  221.7400 C   0  0  0  0  0  0  0  0  0  0  0  0
  138.8410   77.6890  221.9740 C   0  0  0  0  0  0  0  0  0  0  0  0
  138.8560   78.3890  223.0910 C   0  0  0  0  0  0  0  0  0  0  0  0
  138.3860   79.7560  223.2170 C   0  0  0  0  0  0  0  0  0  0  0  0
  138.1710   80.5990  222.1490 C   0  0  0  0  0  0  0  0  0  0  0  0
  137.7230   81.8960  222.3080 C   0  0  0  0  0  0  0  0  0  0  0  0
  137.4850   82.3560  223.5710 N   0  0  0  0  0  0  0  0  0  0  0  0
  137.6800   81.5710  224.6400 C   0  0  0  0  0  0  0  0  0  0  0  0
  138.1300   80.2710  224.4720 C   0  0  0  0  0  0  0  0  0  0  0  0
  139.3570   75.3660  222.1710 N   0  0  0  0  0  0  0  0  0  0  0  0
  140.1000   74.2590  221.9660 C   0  0  0  0  0  0  0  0  0  0  0  0
  139.6550   73.0420  222.4170 C   0  0  0  0  0  0  0  0  0  0  0  0
  138.7730   69.6550  224.5910 C   0  0  0  0  0  0  0  0  0  0  0  0
  139.0000   69.4550  226.0800 C   0  0  0  0  0  0  0  0  0  0  0  0
  141.3801   67.7781  227.1448 H   0  0  0  0  0  0  0  0  0  0  0  0
  140.4599   67.5691  225.6163 H   0  0  0  0  0  0  0  0  0  0  0  0
  142.0051   68.4850  225.6163 H   0  0  0  0  0  0  0  0  0  0  0  0
  141.0238   71.3561  227.0083 H   0  0  0  0  0  0  0  0  0  0  0  0
  142.1250   70.4248  225.9196 H   0  0  0  0  0  0  0  0  0  0  0  0
  139.6896   72.0733  225.2510 H   0  0  0  0  0  0  0  0  0  0  0  0
  141.2432   71.9011  224.3695 H   0  0  0  0  0  0  0  0  0  0  0  0
  140.6535   69.8257  222.2891 H   0  0  0  0  0  0  0  0  0  0  0  0
  138.9180   70.4901  222.3312 H   0  0  0  0  0  0  0  0  0  0  0  0
  142.2263   71.1719  221.3656 H   0  0  0  0  0  0  0  0  0  0  0  0
  143.0104   73.3555  220.5618 H   0  0  0  0  0  0  0  0  0  0  0  0
  142.4085   77.8598  220.2032 H   0  0  0  0  0  0  0  0  0  0  0  0
  140.6398   78.3809  219.9172 H   0  0  0  0  0  0  0  0  0  0  0  0
  140.5674   79.0186  222.1112 H   0  0  0  0  0  0  0  0  0  0  0  0
  142.4600   80.5375  220.2665 H   0  0  0  0  0  0  0  0  0  0  0  0
  140.6581   80.7180  220.4701 H   0  0  0  0  0  0  0  0  0  0  0  0
  142.8805   81.9232  221.9623 H   0  0  0  0  0  0  0  0  0  0  0  0
  141.1438   82.4400  221.7224 H   0  0  0  0  0  0  0  0  0  0  0  0
  141.8057   82.0146  224.0599 H   0  0  0  0  0  0  0  0  0  0  0  0
  140.4038   81.0314  223.4003 H   0  0  0  0  0  0  0  0  0  0  0  0
  143.0237   80.1972  224.4207 H   0  0  0  0  0  0  0  0  0  0  0  0
  141.3886   79.3869  224.4106 H   0  0  0  0  0  0  0  0  0  0  0  0
  143.5400   79.3739  222.2640 H   0  0  0  0  0  0  0  0  0  0  0  0
  142.6718   77.9978  222.9921 H   0  0  0  0  0  0  0  0  0  0  0  0
  138.1100   77.9471  221.1936 H   0  0  0  0  0  0  0  0  0  0  0  0
  139.2538   77.9013  223.9932 H   0  0  0  0  0  0  0  0  0  0  0  0
  138.3631   80.2257  221.1323 H   0  0  0  0  0  0  0  0  0  0  0  0
  137.5613   82.5449  221.4346 H   0  0  0  0  0  0  0  0  0  0  0  0
  137.4828   81.9586  225.6504 H   0  0  0  0  0  0  0  0  0  0  0  0
  138.2864   79.6365  225.3568 H   0  0  0  0  0  0  0  0  0  0  0  0
  138.6919   72.9776  222.9446 H   0  0  0  0  0  0  0  0  0  0  0  0
  137.8443   70.2211  224.4266 H   0  0  0  0  0  0  0  0  0  0  0  0
  138.6815   68.6841  224.0821 H   0  0  0  0  0  0  0  0  0  0  0  0
  138.4838   70.2618  226.6209 H   0  0  0  0  0  0  0  0  0  0  0  0
  138.6066   68.4594  226.3330 H   0  0  0  0  0  0  0  0  0  0  0  0
  1  2  1  0
  2  3  1  0
  3  4  1  0
  4  5  1  0
  5  6  1  0
  6  7  1  0
  7  8  2  0
  8  9  1  0
  9 10  2  0
 10 11  1  0
 11 12  2  0
 11 13  1  0
 13 14  1  0
 14 15  1  0
 15 16  1  0
 16 17  1  0
 17 18  1  0
 18 19  1  0
 19 20  1  0
 13 21  1  0
 21 22  1  0
 22 23  2  0
 23 24  1  0
 24 25  2  0
 25 26  1  0
 26 27  2  0
 27 28  1  0
 28 29  2  0
 21 30  2  0
 30 31  1  0
 31 32  2  0
  5 33  1  0
 33 34  1  0
 34  2  1  0
 32  7  1  0
 31 10  1  0
 20 15  1  0
 29 24  1  0
  1 35  1  0
  1 36  1  0
  1 37  1  0
  3 38  1  0
  3 39  1  0
  4 40  1  0
  4 41  1  0
  6 42  1  0
  6 43  1  0
  8 44  1  0
  9 45  1  0
 14 46  1  0
 14 47  1  0
 15 48  1  0
 16 49  1  0
 16 50  1  0
 17 51  1  0
 17 52  1  0
 18 53  1  0
 18 54  1  0
 19 55  1  0
 19 56  1  0
 20 57  1  0
 20 58  1  0
 22 59  1  0
 23 60  1  0
 25 61  1  0
 26 62  1  0
 28 63  1  0
 29 64  1  0
 32 65  1  0
 33 66  1  0
 33 67  1  0
 34 68  1  0
 34 69  1  0
M  END
>  <smiles>  (1) 
CN1CCN(Cc2ccc3c(=O)n(CC4CCCCC4)c(/C=C/c4ccncc4)nc3c2)CC1

>  <score_type>  (1) 
oracle

>  <origin>  (1) 
autodockgpu

>  <m_score__min__energy>  (1) 
-8.7799999999999994

>  <m_primary>  (1) 
energy

>  <rmsd>  (1) 
7.462771216677428

>  <m_score__min__rmsd>  (1) 
7.462771216677428

>  <meeko>  (1) 
{"free_energy": -8.0, "intermolecular_energy": -10.08, "internal_energy": -2.11, "cluster_size": 8, "cluster_id": 5, "rank_in_cluster": 2}

>  <energy>  (1) 
-8.78

>  <cluster_rmsd>  (1) 
0.0

>  <cluster>  (1) 
1

$$$$

     RDKit          3D

 69 73  0  0  0  0  0  0  0  0999 V2000
  141.8340   78.9690  224.1790 C   0  0  0  0  0  0  0  0  0  0  0  0
  141.4530   80.0500  223.3160 N   0  0  0  0  0  0  0  0  0  0  0  0
  142.0100   80.0060  221.9990 C   0  0  0  0  0  0  0  0  0  0  0  0
  140.9310   79.6760  220.9600 C   0  0  0  0  0  0  0  0  0  0  0  0
  139.9180   78.8880  221.5720 N   0  0  0  0  0  0  0  0  0  0  0  0
  139.3160   77.8780  220.7930 C   0  0  0  0  0  0  0  0  0  0  0  0
  139.5600   76.4850  221.1840 C   0  0  0  0  0  0  0  0  0  0  0  0
  140.8250   75.9320  221.1730 C   0  0  0  0  0  0  0  0  0  0  0  0
  141.0850   74.6260  221.5330 C   0  0  0  0  0  0  0  0  0  0  0  0
  140.0410   73.8050  221.9320 C   0  0  0  0  0  0  0  0  0  0  0  0
  140.2390   72.4870  222.3030 C   0  0  0  0  0  0  0  0  0  0  0  0
  141.4300   72.0800  222.2610 O   0  0  0  0  0  0  0  0  0  0  0  0
  139.2070   71.6820  222.6930 N   0  0  0  0  0  0  0  0  0  0  0  0
  139.4940   70.3340  223.0460 C   0  0  0  0  0  0  0  0  0  0  0  0
  139.9200   70.0460  224.4350 C   0  0  0  0  0  0  0  0  0  0  0  0
  139.1820   68.8970  225.0930 C   0  0  0  0  0  0  0  0  0  0  0  0
  139.5850   68.6880  226.5310 C   0  0  0  0  0  0  0  0  0  0  0  0
  140.8760   69.3350  226.8880 C   0  0  0  0  0  0  0  0  0  0  0  0
  140.9700   70.7720  226.5160 C   0  0  0  0  0  0  0  0  0  0  0  0
  139.9920   71.1750  225.3960 C   0  0  0  0  0  0  0  0  0  0  0  0
  137.9910   72.2530  222.6950 C   0  0  0  0  0  0  0  0  0  0  0  0
  136.8220   71.5090  223.1510 C   0  0  0  0  0  0  0  0  0  0  0  0
  135.6160   72.0440  223.1740 C   0  0  0  0  0  0  0  0  0  0  0  0
  135.0370   72.7270  224.3150 C   0  0  0  0  0  0  0  0  0  0  0  0
  134.2980   72.1010  225.2950 C   0  0  0  0  0  0  0  0  0  0  0  0
  133.7620   72.7860  226.3680 C   0  0  0  0  0  0  0  0  0  0  0  0
  133.9730   74.1310  226.4580 N   0  0  0  0  0  0  0  0  0  0  0  0
  134.6850   74.7820  225.5280 C   0  0  0  0  0  0  0  0  0  0  0  0
  135.2200   74.0880  224.4550 C   0  0  0  0  0  0  0  0  0  0  0  0
  137.7770   73.5400  222.3340 N   0  0  0  0  0  0  0  0  0  0  0  0
  138.7890   74.3430  221.9460 C   0  0  0  0  0  0  0  0  0  0  0  0
  138.5320   75.6420  221.5860 C   0  0  0  0  0  0  0  0  0  0  0  0
  139.1560   79.4860  222.5980 C   0  0  0  0  0  0  0  0  0  0  0  0
  140.0720   80.4180  223.3720 C   0  0  0  0  0  0  0  0  0  0  0  0
  141.7240   79.2811  225.2281 H   0  0  0  0  0  0  0  0  0  0  0  0
  141.1880   78.1000  223.9853 H   0  0  0  0  0  0  0  0  0  0  0  0
  142.8821   78.6971  223.9853 H   0  0  0  0  0  0  0  0  0  0  0  0
  142.4513   80.9852  221.7615 H   0  0  0  0  0  0  0  0  0  0  0  0
  142.7796   79.2206  221.9686 H   0  0  0  0  0  0  0  0  0  0  0  0
  140.4908   80.6088  220.5777 H   0  0  0  0  0  0  0  0  0  0  0  0
  141.3801   79.1174  220.1255 H   0  0  0  0  0  0  0  0  0  0  0  0
  138.2288   78.0430  220.8227 H   0  0  0  0  0  0  0  0  0  0  0  0
  139.7798   77.9758  219.8004 H   0  0  0  0  0  0  0  0  0  0  0  0
  141.6687   76.5652  220.8612 H   0  0  0  0  0  0  0  0  0  0  0  0
  142.1140   74.2382  221.5038 H   0  0  0  0  0  0  0  0  0  0  0  0
  138.5832   69.7471  222.8567 H   0  0  0  0  0  0  0  0  0  0  0  0
  140.3709   70.0747  222.4345 H   0  0  0  0  0  0  0  0  0  0  0  0
  140.9627   69.7630  224.2286 H   0  0  0  0  0  0  0  0  0  0  0  0
  138.1028   69.1069  225.0578 H   0  0  0  0  0  0  0  0  0  0  0  0
  139.4388   67.9805  224.5415 H   0  0  0  0  0  0  0  0  0  0  0  0
  138.7975   69.1037  227.1767 H   0  0  0  0  0  0  0  0  0  0  0  0
  139.7162   67.6054  226.6750 H   0  0  0  0  0  0  0  0  0  0  0  0
  141.0122   69.2523  227.9764 H   0  0  0  0  0  0  0  0  0  0  0  0
  141.6565   68.8122  226.3156 H   0  0  0  0  0  0  0  0  0  0  0  0
  140.7502   71.3787  227.4069 H   0  0  0  0  0  0  0  0  0  0  0  0
  141.9884   70.9456  226.1383 H   0  0  0  0  0  0  0  0  0  0  0  0
  138.9961   71.3706  225.8201 H   0  0  0  0  0  0  0  0  0  0  0  0
  140.3376   72.0897  224.8921 H   0  0  0  0  0  0  0  0  0  0  0  0
  136.9499   70.4692  223.4863 H   0  0  0  0  0  0  0  0  0  0  0  0
  135.0058   71.9664  222.2621 H   0  0  0  0  0  0  0  0  0  0  0  0
  134.1288   71.0167  225.2202 H   0  0  0  0  0  0  0  0  0  0  0  0
  133.1765   72.2576  227.1348 H   0  0  0  0  0  0  0  0  0  0  0  0
  134.8446   75.8668  225.6165 H   0  0  0  0  0  0  0  0  0  0  0  0
  135.8032   74.6332  223.6983 H   0  0  0  0  0  0  0  0  0  0  0  0
  137.4995   76.0201  221.6162 H   0  0  0  0  0  0  0  0  0  0  0  0
  138.3231   80.0569  222.1616 H   0  0  0  0  0  0  0  0  0  0  0  0
  138.7374   78.7173  223.2642 H   0  0  0  0  0  0  0  0  0  0  0  0
  139.9663   81.4312  222.9571 H   0  0  0  0  0  0  0  0  0  0  0  0
  139.7684   80.3608  224.4277 H   0  0  0  0  0  0  0  0  0  0  0  0
  1  2  1  0
  2  3  1  0
  3  4  1  0
  4  5  1  0
  5  6  1  0
  6  7  1  0
  7  8  2  0
  8  9  1  0
  9 10  2  0
 10 11  1  0
 11 12  2  0
 11 13  1  0
 13 14  1  0
 14 15  1  0
 15 16  1  0
 16 17  1  0
 17 18  1  0
 18 19  1  0
 19 20  1  0
 13 21  1  0
 21 22  1  0
 22 23  2  0
 23 24  1  0
 24 25  2  0
 25 26  1  0
 26 27  2  0
 27 28  1  0
 28 29  2  0
 21 30  2  0
 30 31  1  0
 31 32  2  0
  5 33  1  0
 33 34  1  0
 34  2  1  0
 32  7  1  0
 31 10  1  0
 20 15  1  0
 29 24  1  0
  1 35  1  0
  1 36  1  0
  1 37  1  0
  3 38  1  0
  3 39  1  0
  4 40  1  0
  4 41  1  0
  6 42  1  0
  6 43  1  0
  8 44  1  0
  9 45  1  0
 14 46  1  0
 14 47  1  0
 15 48  1  0
 16 49  1  0
 16 50  1  0
 17 51  1  0
 17 52  1  0
 18 53  1  0
 18 54  1  0
 19 55  1  0
 19 56  1  0
 20 57  1  0
 20 58  1  0
 22 59  1  0
 23 60  1  0
 25 61  1  0
 26 62  1  0
 28 63  1  0
 29 64  1  0
 32 65  1  0
 33 66  1  0
 33 67  1  0
 34 68  1  0
 34 69  1  0
M  END
>  <smiles>  (2) 
CN1CCN(Cc2ccc3c(=O)n(CC4CCCCC4)c(/C=C/c4ccncc4)nc3c2)CC1

>  <score_type>  (2) 
oracle

>  <origin>  (2) 
autodockgpu

>  <m_score__min__energy>  (2) 
-8.7799999999999994

>  <m_primary>  (2) 
energy

>  <rmsd>  (2) 
8.726164801326354

>  <m_score__min__rmsd>  (2) 
8.726164801326354

>  <meeko>  (2) 
{"free_energy": -8.11, "intermolecular_energy": -10.2, "internal_energy": -1.88, "cluster_size": 24, "cluster_id": 2, "rank_in_cluster": 19}

>  <energy>  (2) 
-8.73

>  <cluster_rmsd>  (2) 
0.19

>  <cluster>  (2) 
1

$$$$

     RDKit          3D

 69 73  0  0  0  0  0  0  0  0999 V2000
  142.9560   79.7570  223.0450 C   0  0  0  0  0  0  0  0  0  0  0  0
  142.3260   80.8690  222.3930 N   0  0  0  0  0  0  0  0  0  0  0  0
  141.9020   80.6290  221.0470 C   0  0  0  0  0  0  0  0  0  0  0  0
  140.3730   80.5660  220.9600 C   0  0  0  0  0  0  0  0  0  0  0  0
  139.8510   80.1040  222.1990 N   0  0  0  0  0  0  0  0  0  0  0  0
  138.7170   79.2670  222.1600 C   0  0  0  0  0  0  0  0  0  0  0  0
  138.9430   77.8180  222.1820 C   0  0  0  0  0  0  0  0  0  0  0  0
  140.2100   77.2730  222.1420 C   0  0  0  0  0  0  0  0  0  0  0  0
  140.4530   75.9150  222.1610 C   0  0  0  0  0  0  0  0  0  0  0  0
  139.3870   75.0300  222.2230 C   0  0  0  0  0  0  0  0  0  0  0  0
  139.5680   73.6580  222.2430 C   0  0  0  0  0  0  0  0  0  0  0  0
  140.7630   73.2630  222.2050 O   0  0  0  0  0  0  0  0  0  0  0  0
  138.5150   72.7900  222.3020 N   0  0  0  0  0  0  0  0  0  0  0  0
  138.7860   71.3940  222.3050 C   0  0  0  0  0  0  0  0  0  0  0  0
  139.0210   70.7260  223.6060 C   0  0  0  0  0  0  0  0  0  0  0  0
  140.1850   71.2860  224.3980 C   0  0  0  0  0  0  0  0  0  0  0  0
  140.4440   70.5280  225.6760 C   0  0  0  0  0  0  0  0  0  0  0  0
  139.2970   69.6870  226.1120 C   0  0  0  0  0  0  0  0  0  0  0  0
  138.7600   68.7820  225.0590 C   0  0  0  0  0  0  0  0  0  0  0  0
  139.1000   69.2430  223.6300 C   0  0  0  0  0  0  0  0  0  0  0  0
  137.2970   73.3550  222.3430 C   0  0  0  0  0  0  0  0  0  0  0  0
  136.1000   72.5300  222.4680 C   0  0  0  0  0  0  0  0  0  0  0  0
  135.7190   72.0190  223.6240 C   0  0  0  0  0  0  0  0  0  0  0  0
  134.9900   72.7430  224.6470 C   0  0  0  0  0  0  0  0  0  0  0  0
  134.1720   72.1460  225.5810 C   0  0  0  0  0  0  0  0  0  0  0  0
  133.4930   72.8700  226.5410 C   0  0  0  0  0  0  0  0  0  0  0  0
  133.6390   74.2270  226.5630 N   0  0  0  0  0  0  0  0  0  0  0  0
  134.4240   74.8510  225.6740 C   0  0  0  0  0  0  0  0  0  0  0  0
  135.1020   74.1180  224.7140 C   0  0  0  0  0  0  0  0  0  0  0  0
  137.1000   74.6930  222.3230 N   0  0  0  0  0  0  0  0  0  0  0  0
  138.1330   75.5590  222.2620 C   0  0  0  0  0  0  0  0  0  0  0  0
  137.8930   76.9100  222.2440 C   0  0  0  0  0  0  0  0  0  0  0  0
  140.0410   80.9230  223.3330 C   0  0  0  0  0  0  0  0  0  0  0  0
  141.3940   81.5990  223.1940 C   0  0  0  0  0  0  0  0  0  0  0  0
  142.8847   79.8829  224.1354 H   0  0  0  0  0  0  0  0  0  0  0  0
  142.4517   78.8251  222.7497 H   0  0  0  0  0  0  0  0  0  0  0  0
  144.0146   79.7105  222.7497 H   0  0  0  0  0  0  0  0  0  0  0  0
  142.2664   81.4434  220.4036 H   0  0  0  0  0  0  0  0  0  0  0  0
  142.3137   79.6646  220.7147 H   0  0  0  0  0  0  0  0  0  0  0  0
  139.9755   81.5688  220.7448 H   0  0  0  0  0  0  0  0  0  0  0  0
  140.0776   79.8765  220.1554 H   0  0  0  0  0  0  0  0  0  0  0  0
  138.0935   79.5164  223.0312 H   0  0  0  0  0  0  0  0  0  0  0  0
  138.2574   79.4638  221.1802 H   0  0  0  0  0  0  0  0  0  0  0  0
  141.0706   77.9564  222.0924 H   0  0  0  0  0  0  0  0  0  0  0  0
  141.4854   75.5368  222.1272 H   0  0  0  0  0  0  0  0  0  0  0  0
  137.9268   70.8947  221.8333 H   0  0  0  0  0  0  0  0  0  0  0  0
  139.7464   71.3033  221.7765 H   0  0  0  0  0  0  0  0  0  0  0  0
  138.0687   70.9816  224.0937 H   0  0  0  0  0  0  0  0  0  0  0  0
  141.0892   71.2400  223.7732 H   0  0  0  0  0  0  0  0  0  0  0  0
  139.9299   72.3200  224.6733 H   0  0  0  0  0  0  0  0  0  0  0  0
  141.3157   69.8748  225.5225 H   0  0  0  0  0  0  0  0  0  0  0  0
  140.6150   71.2749  226.4653 H   0  0  0  0  0  0  0  0  0  0  0  0
  139.6267   69.0694  226.9605 H   0  0  0  0  0  0  0  0  0  0  0  0
  138.4834   70.3792  226.3745 H   0  0  0  0  0  0  0  0  0  0  0  0
  139.1829   67.7782  225.2122 H   0  0  0  0  0  0  0  0  0  0  0  0
  137.6639   68.7879  225.1516 H   0  0  0  0  0  0  0  0  0  0  0  0
  140.1160   68.9171  223.3625 H   0  0  0  0  0  0  0  0  0  0  0  0
  138.3965   68.8068  222.9056 H   0  0  0  0  0  0  0  0  0  0  0  0
  135.4963   72.3276  221.5710 H   0  0  0  0  0  0  0  0  0  0  0  0
  135.9729   70.9679  223.8257 H   0  0  0  0  0  0  0  0  0  0  0  0
  134.0554   71.0524  225.5613 H   0  0  0  0  0  0  0  0  0  0  0  0
  132.8473   72.3633  227.2734 H   0  0  0  0  0  0  0  0  0  0  0  0
  134.5299   75.9454  225.7067 H   0  0  0  0  0  0  0  0  0  0  0  0
  135.7431   74.6419  223.9898 H   0  0  0  0  0  0  0  0  0  0  0  0
  136.8572   77.2785  222.2791 H   0  0  0  0  0  0  0  0  0  0  0  0
  139.2466   81.6821  223.3840 H   0  0  0  0  0  0  0  0  0  0  0  0
  140.0041   80.3211  224.2530 H   0  0  0  0  0  0  0  0  0  0  0  0
  141.2421   82.5871  222.7350 H   0  0  0  0  0  0  0  0  0  0  0  0
  141.8237   81.6646  224.2045 H   0  0  0  0  0  0  0  0  0  0  0  0
  1  2  1  0
  2  3  1  0
  3  4  1  0
  4  5  1  0
  5  6  1  0
  6  7  1  0
  7  8  2  0
  8  9  1  0
  9 10  2  0
 10 11  1  0
 11 12  2  0
 11 13  1  0
 13 14  1  0
 14 15  1  0
 15 16  1  0
 16 17  1  0
 17 18  1  0
 18 19  1  0
 19 20  1  0
 13 21  1  0
 21 22  1  0
 22 23  2  0
 23 24  1  0
 24 25  2  0
 25 26  1  0
 26 27  2  0
 27 28  1  0
 28 29  2  0
 21 30  2  0
 30 31  1  0
 31 32  2  0
  5 33  1  0
 33 34  1  0
 34  2  1  0
 32  7  1  0
 31 10  1  0
 20 15  1  0
 29 24  1  0
  1 35  1  0
  1 36  1  0
  1 37  1  0
  3 38  1  0
  3 39  1  0
  4 40  1  0
  4 41  1  0
  6 42  1  0
  6 43  1  0
  8 44  1  0
  9 45  1  0
 14 46  1  0
 14 47  1  0
 15 48  1  0
 16 49  1  0
 16 50  1  0
 17 51  1  0
 17 52  1  0
 18 53  1  0
 18 54  1  0
 19 55  1  0
 19 56  1  0
 20 57  1  0
 20 58  1  0
 22 59  1  0
 23 60  1  0
 25 61  1  0
 26 62  1  0
 28 63  1  0
 29 64  1  0
 32 65  1  0
 33 66  1  0
 33 67  1  0
 34 68  1  0
 34 69  1  0
M  END
>  <smiles>  (3) 
CN1CCN(Cc2ccc3c(=O)n(CC4CCCCC4)c(/C=C/c4ccncc4)nc3c2)CC1

>  <score_type>  (3) 
oracle

>  <origin>  (3) 
autodockgpu

>  <m_score__min__energy>  (3) 
-8.7799999999999994

>  <m_primary>  (3) 
energy

>  <rmsd>  (3) 
7.386219644067964

>  <m_score__min__rmsd>  (3) 
7.386219644067964

>  <meeko>  (3) 
{"free_energy": -8.11, "intermolecular_energy": -10.2, "internal_energy": -1.94, "cluster_size": 24, "cluster_id": 2, "rank_in_cluster": 20}

>  <energy>  (3) 
-8.35

>  <cluster_rmsd>  (3) 
0.93

>  <cluster>  (3) 
1

$$$$

     RDKit          3D

 69 73  0  0  0  0  0  0  0  0999 V2000
  143.0170   79.7980  222.8560 C   0  0  0  0  0  0  0  0  0  0  0  0
  141.7630   80.4720  223.0320 N   0  0  0  0  0  0  0  0  0  0  0  0
  141.2330   81.0940  221.8580 C   0  0  0  0  0  0  0  0  0  0  0  0
  139.9990   80.3390  221.3500 C   0  0  0  0  0  0  0  0  0  0  0  0
  140.1050   78.9690  221.7120 N   0  0  0  0  0  0  0  0  0  0  0  0
  139.6150   78.0120  220.8010 C   0  0  0  0  0  0  0  0  0  0  0  0
  139.7000   76.6000  221.1890 C   0  0  0  0  0  0  0  0  0  0  0  0
  140.9100   75.9570  221.3510 C   0  0  0  0  0  0  0  0  0  0  0  0
  141.0220   74.6310  221.7150 C   0  0  0  0  0  0  0  0  0  0  0  0
  139.8750   73.8820  221.9340 C   0  0  0  0  0  0  0  0  0  0  0  0
  139.9240   72.5480  222.2990 C   0  0  0  0  0  0  0  0  0  0  0  0
  141.0760   72.0560  222.4230 O   0  0  0  0  0  0  0  0  0  0  0  0
  138.7920   71.8150  222.5130 N   0  0  0  0  0  0  0  0  0  0  0  0
  138.9280   70.4450  222.8710 C   0  0  0  0  0  0  0  0  0  0  0  0
  139.5650   70.1180  224.1680 C   0  0  0  0  0  0  0  0  0  0  0  0
  139.0530   68.8470  224.8160 C   0  0  0  0  0  0  0  0  0  0  0  0
  139.6660   68.5910  226.1700 C   0  0  0  0  0  0  0  0  0  0  0  0
  140.9130   69.3620  226.4150 C   0  0  0  0  0  0  0  0  0  0  0  0
  140.7980   70.8230  226.1530 C   0  0  0  0  0  0  0  0  0  0  0  0
  139.6410   71.1800  225.2020 C   0  0  0  0  0  0  0  0  0  0  0  0
  137.6320   72.4730  222.3490 C   0  0  0  0  0  0  0  0  0  0  0  0
  136.3580   71.8090  222.6080 C   0  0  0  0  0  0  0  0  0  0  0  0
  135.9340   71.5620  223.8320 C   0  0  0  0  0  0  0  0  0  0  0  0
  135.2350   72.5160  224.6720 C   0  0  0  0  0  0  0  0  0  0  0  0
  135.3950   73.8810  224.5880 C   0  0  0  0  0  0  0  0  0  0  0  0
  134.7110   74.7590  225.4070 C   0  0  0  0  0  0  0  0  0  0  0  0
  133.8450   74.2520  226.3320 N   0  0  0  0  0  0  0  0  0  0  0  0
  133.6570   72.9300  226.4500 C   0  0  0  0  0  0  0  0  0  0  0  0
  134.3480   72.0560  225.6250 C   0  0  0  0  0  0  0  0  0  0  0  0
  137.5640   73.7760  221.9910 N   0  0  0  0  0  0  0  0  0  0  0  0
  138.6760   74.5090  221.7760 C   0  0  0  0  0  0  0  0  0  0  0  0
  138.5670   75.8280  221.4140 C   0  0  0  0  0  0  0  0  0  0  0  0
  140.0890   78.6540  223.0880 C   0  0  0  0  0  0  0  0  0  0  0  0
  140.8010   79.7740  223.8270 C   0  0  0  0  0  0  0  0  0  0  0  0
  143.4496   79.5655  223.8403 H   0  0  0  0  0  0  0  0  0  0  0  0
  142.8563   78.8647  222.2964 H   0  0  0  0  0  0  0  0  0  0  0  0
  143.7067   80.4469  222.2964 H   0  0  0  0  0  0  0  0  0  0  0  0
  140.9491   82.1298  222.0958 H   0  0  0  0  0  0  0  0  0  0  0  0
  142.0033   81.0780  221.0729 H   0  0  0  0  0  0  0  0  0  0  0  0
  139.0931   80.7694  221.8017 H   0  0  0  0  0  0  0  0  0  0  0  0
  139.9376   80.4273  220.2553 H   0  0  0  0  0  0  0  0  0  0  0  0
  138.5541   78.2409  220.6219 H   0  0  0  0  0  0  0  0  0  0  0  0
  140.2711   78.1006  219.9226 H   0  0  0  0  0  0  0  0  0  0  0  0
  141.8328   76.5312  221.1812 H   0  0  0  0  0  0  0  0  0  0  0  0
  142.0143   74.1706  221.8308 H   0  0  0  0  0  0  0  0  0  0  0  0
  137.9176   70.0103  222.8856 H   0  0  0  0  0  0  0  0  0  0  0  0
  139.6178   70.0350  222.1187 H   0  0  0  0  0  0  0  0  0  0  0  0
  140.5956   69.9774  223.8102 H   0  0  0  0  0  0  0  0  0  0  0  0
  137.9623   68.9279  224.9340 H   0  0  0  0  0  0  0  0  0  0  0  0
  139.3327   68.0074  224.1627 H   0  0  0  0  0  0  0  0  0  0  0  0
  138.9311   68.8643  226.9415 H   0  0  0  0  0  0  0  0  0  0  0  0
  139.9341   67.5248  226.2059 H   0  0  0  0  0  0  0  0  0  0  0  0
  141.2012   69.2235  227.4675 H   0  0  0  0  0  0  0  0  0  0  0  0
  141.6629   68.9760  225.7088 H   0  0  0  0  0  0  0  0  0  0  0  0
  140.6345   71.3381  227.1111 H   0  0  0  0  0  0  0  0  0  0  0  0
  141.7313   71.1420  225.6661 H   0  0  0  0  0  0  0  0  0  0  0  0
  138.6956   71.2260  225.7624 H   0  0  0  0  0  0  0  0  0  0  0  0
  139.8135   72.1612  224.7356 H   0  0  0  0  0  0  0  0  0  0  0  0
  135.7323   71.5053  221.7558 H   0  0  0  0  0  0  0  0  0  0  0  0
  136.1240   70.5606  224.2458 H   0  0  0  0  0  0  0  0  0  0  0  0
  136.0931   74.2876  223.8414 H   0  0  0  0  0  0  0  0  0  0  0  0
  134.8615   75.8448  225.3152 H   0  0  0  0  0  0  0  0  0  0  0  0
  132.9548   72.5389  227.2010 H   0  0  0  0  0  0  0  0  0  0  0  0
  134.1863   70.9732  225.7319 H   0  0  0  0  0  0  0  0  0  0  0  0
  137.5705   76.2797  221.3006 H   0  0  0  0  0  0  0  0  0  0  0  0
  139.0506   78.5728  223.4416 H   0  0  0  0  0  0  0  0  0  0  0  0
  140.5921   77.6926  223.2688 H   0  0  0  0  0  0  0  0  0  0  0  0
  140.0463   80.4965  224.1713 H   0  0  0  0  0  0  0  0  0  0  0  0
  141.3506   79.3092  224.6588 H   0  0  0  0  0  0  0  0  0  0  0  0
  1  2  1  0
  2  3  1  0
  3  4  1  0
  4  5  1  0
  5  6  1  0
  6  7  1  0
  7  8  2  0
  8  9  1  0
  9 10  2  0
 10 11  1  0
 11 12  2  0
 11 13  1  0
 13 14  1  0
 14 15  1  0
 15 16  1  0
 16 17  1  0
 17 18  1  0
 18 19  1  0
 19 20  1  0
 13 21  1  0
 21 22  1  0
 22 23  2  0
 23 24  1  0
 24 25  2  0
 25 26  1  0
 26 27  2  0
 27 28  1  0
 28 29  2  0
 21 30  2  0
 30 31  1  0
 31 32  2  0
  5 33  1  0
 33 34  1  0
 34  2  1  0
 32  7  1  0
 31 10  1  0
 20 15  1  0
 29 24  1  0
  1 35  1  0
  1 36  1  0
  1 37  1  0
  3 38  1  0
  3 39  1  0
  4 40  1  0
  4 41  1  0
  6 42  1  0
  6 43  1  0
  8 44  1  0
  9 45  1  0
 14 46  1  0
 14 47  1  0
 15 48  1  0
 16 49  1  0
 16 50  1  0
 17 51  1  0
 17 52  1  0
 18 53  1  0
 18 54  1  0
 19 55  1  0
 19 56  1  0
 20 57  1  0
 20 58  1  0
 22 59  1  0
 23 60  1  0
 25 61  1  0
 26 62  1  0
 28 63  1  0
 29 64  1  0
 32 65  1  0
 33 66  1  0
 33 67  1  0
 34 68  1  0
 34 69  1  0
M  END
>  <smiles>  (4) 
CN1CCN(Cc2ccc3c(=O)n(CC4CCCCC4)c(/C=C/c4ccncc4)nc3c2)CC1

>  <score_type>  (4) 
oracle

>  <origin>  (4) 
autodockgpu

>  <m_score__min__energy>  (4) 
-8.7799999999999994

>  <m_primary>  (4) 
energy

>  <rmsd>  (4) 
8.585714089153353

>  <m_score__min__rmsd>  (4) 
8.585714089153353

>  <meeko>  (4) 
{"free_energy": -7.98, "intermolecular_energy": -10.07, "internal_energy": -1.9, "cluster_size": 24, "cluster_id": 2, "rank_in_cluster": 24}

>  <energy>  (4) 
-8.4

>  <cluster_rmsd>  (4) 
0.0

>  <cluster>  (4) 
2

$$$$

     RDKit          3D

 69 73  0  0  0  0  0  0  0  0999 V2000
  142.9380   79.6540  222.7530 C   0  0  0  0  0  0  0  0  0  0  0  0
  142.1060   80.8230  222.7250 N   0  0  0  0  0  0  0  0  0  0  0  0
  141.5990   81.1820  221.4360 C   0  0  0  0  0  0  0  0  0  0  0  0
  140.0910   80.9200  221.3500 C   0  0  0  0  0  0  0  0  0  0  0  0
  139.7510   79.8500  222.2220 N   0  0  0  0  0  0  0  0  0  0  0  0
  138.7420   78.9600  221.8010 C   0  0  0  0  0  0  0  0  0  0  0  0
  139.0190   77.5230  221.9070 C   0  0  0  0  0  0  0  0  0  0  0  0
  140.3050   77.0230  221.9070 C   0  0  0  0  0  0  0  0  0  0  0  0
  140.5960   75.6780  222.0040 C   0  0  0  0  0  0  0  0  0  0  0  0
  139.5620   74.7590  222.1080 C   0  0  0  0  0  0  0  0  0  0  0  0
  139.7910   73.3980  222.2070 C   0  0  0  0  0  0  0  0  0  0  0  0
  141.0000   73.0450  222.2000 O   0  0  0  0  0  0  0  0  0  0  0  0
  138.7690   72.4980  222.3070 N   0  0  0  0  0  0  0  0  0  0  0  0
  139.0900   71.1140  222.3900 C   0  0  0  0  0  0  0  0  0  0  0  0
  139.5190   70.5690  223.6990 C   0  0  0  0  0  0  0  0  0  0  0  0
  138.4850   69.7000  224.3860 C   0  0  0  0  0  0  0  0  0  0  0  0
  138.9260   69.2320  225.7510 C   0  0  0  0  0  0  0  0  0  0  0  0
  140.3920   69.3460  225.9740 C   0  0  0  0  0  0  0  0  0  0  0  0
  140.9610   70.6850  225.6650 C   0  0  0  0  0  0  0  0  0  0  0  0
  140.0890   71.5070  224.6980 C   0  0  0  0  0  0  0  0  0  0  0  0
  137.5310   73.0190  222.3070 C   0  0  0  0  0  0  0  0  0  0  0  0
  136.3630   72.1600  222.4700 C   0  0  0  0  0  0  0  0  0  0  0  0
  135.9330   71.7810  223.6580 C   0  0  0  0  0  0  0  0  0  0  0  0
  135.2370   72.6400  224.5970 C   0  0  0  0  0  0  0  0  0  0  0  0
  135.3800   74.0090  224.6430 C   0  0  0  0  0  0  0  0  0  0  0  0
  134.6990   74.7950  225.5530 C   0  0  0  0  0  0  0  0  0  0  0  0
  133.8550   74.1900  226.4380 N   0  0  0  0  0  0  0  0  0  0  0  0
  133.6840   72.8610  226.4300 C   0  0  0  0  0  0  0  0  0  0  0  0
  134.3710   72.0790  225.5140 C   0  0  0  0  0  0  0  0  0  0  0  0
  137.2870   74.3470  222.2100 N   0  0  0  0  0  0  0  0  0  0  0  0
  138.2890   75.2440  222.1090 C   0  0  0  0  0  0  0  0  0  0  0  0
  138.0010   76.5820  222.0120 C   0  0  0  0  0  0  0  0  0  0  0  0
  139.9300   80.0540  223.6070 C   0  0  0  0  0  0  0  0  0  0  0  0
  141.1600   80.9260  223.7920 C   0  0  0  0  0  0  0  0  0  0  0  0
  143.1388   79.3718  223.7971 H   0  0  0  0  0  0  0  0  0  0  0  0
  142.4247   78.8263  222.2417 H   0  0  0  0  0  0  0  0  0  0  0  0
  143.8882   79.8679  222.2417 H   0  0  0  0  0  0  0  0  0  0  0  0
  141.7897   82.2507  221.2586 H   0  0  0  0  0  0  0  0  0  0  0  0
  142.1064   80.5703  220.6755 H   0  0  0  0  0  0  0  0  0  0  0  0
  139.5428   81.8258  221.6483 H   0  0  0  0  0  0  0  0  0  0  0  0
  139.8208   80.6546  220.3173 H   0  0  0  0  0  0  0  0  0  0  0  0
  137.8461   79.1683  222.4044 H   0  0  0  0  0  0  0  0  0  0  0  0
  138.6363   79.1462  220.7220 H   0  0  0  0  0  0  0  0  0  0  0  0
  141.1410   77.7332  221.8255 H   0  0  0  0  0  0  0  0  0  0  0  0
  141.6416   75.3363  221.9989 H   0  0  0  0  0  0  0  0  0  0  0  0
  138.1954   70.5533  222.0814 H   0  0  0  0  0  0  0  0  0  0  0  0
  139.9751   71.0020  221.7465 H   0  0  0  0  0  0  0  0  0  0  0  0
  140.3635   69.9565  223.3502 H   0  0  0  0  0  0  0  0  0  0  0  0
  137.5567   70.2796  224.4965 H   0  0  0  0  0  0  0  0  0  0  0  0
  138.3372   68.8062  223.7620 H   0  0  0  0  0  0  0  0  0  0  0  0
  138.4105   69.8386  226.5101 H   0  0  0  0  0  0  0  0  0  0  0  0
  138.6703   68.1647  225.8245 H   0  0  0  0  0  0  0  0  0  0  0  0
  140.5972   69.1212  227.0311 H   0  0  0  0  0  0  0  0  0  0  0  0
  140.8696   68.6362  225.2825 H   0  0  0  0  0  0  0  0  0  0  0  0
  141.0644   71.2463  226.6054 H   0  0  0  0  0  0  0  0  0  0  0  0
  141.9307   70.5219  225.1719 H   0  0  0  0  0  0  0  0  0  0  0  0
  139.2784   72.0021  225.2527 H   0  0  0  0  0  0  0  0  0  0  0  0
  140.6900   72.2824  224.2005 H   0  0  0  0  0  0  0  0  0  0  0  0
  135.8242   71.8177  221.5742 H   0  0  0  0  0  0  0  0  0  0  0  0
  136.1153   70.7386  223.9582 H   0  0  0  0  0  0  0  0  0  0  0  0
  136.0614   74.4947  223.9290 H   0  0  0  0  0  0  0  0  0  0  0  0
  134.8347   75.8866  225.5636 H   0  0  0  0  0  0  0  0  0  0  0  0
  132.9986   72.3904  227.1502 H   0  0  0  0  0  0  0  0  0  0  0  0
  134.2229   70.9890  225.5181 H   0  0  0  0  0  0  0  0  0  0  0  0
  136.9523   76.9140  222.0174 H   0  0  0  0  0  0  0  0  0  0  0  0
  139.0474   80.5575  224.0283 H   0  0  0  0  0  0  0  0  0  0  0  0
  140.0596   79.0917  224.1238 H   0  0  0  0  0  0  0  0  0  0  0  0
  140.8342   81.9740  223.8667 H   0  0  0  0  0  0  0  0  0  0  0  0
  141.6663   80.5766  224.7039 H   0  0  0  0  0  0  0  0  0  0  0  0
  1  2  1  0
  2  3  1  0
  3  4  1  0
  4  5  1  0
  5  6  1  0
  6  7  1  0
  7  8  2  0
  8  9  1  0
  9 10  2  0
 10 11  1  0
 11 12  2  0
 11 13  1  0
 13 14  1  0
 14 15  1  0
 15 16  1  0
 16 17  1  0
 17 18  1  0
 18 19  1  0
 19 20  1  0
 13 21  1  0
 21 22  1  0
 22 23  2  0
 23 24  1  0
 24 25  2  0
 25 26  1  0
 26 27  2  0
 27 28  1  0
 28 29  2  0
 21 30  2  0
 30 31  1  0
 31 32  2  0
  5 33  1  0
 33 34  1  0
 34  2  1  0
 32  7  1  0
 31 10  1  0
 20 15  1  0
 29 24  1  0
  1 35  1  0
  1 36  1  0
  1 37  1  0
  3 38  1  0
  3 39  1  0
  4 40  1  0
  4 41  1  0
  6 42  1  0
  6 43  1  0
  8 44  1  0
  9 45  1  0
 14 46  1  0
 14 47  1  0
 15 48  1  0
 16 49  1  0
 16 50  1  0
 17 51  1  0
 17 52  1  0
 18 53  1  0
 18 54  1  0
 19 55  1  0
 19 56  1  0
 20 57  1  0
 20 58  1  0
 22 59  1  0
 23 60  1  0
 25 61  1  0
 26 62  1  0
 28 63  1  0
 29 64  1  0
 32 65  1  0
 33 66  1  0
 33 67  1  0
 34 68  1  0
 34 69  1  0
M  END
>  <smiles>  (5) 
CN1CCN(Cc2ccc3c(=O)n(CC4CCCCC4)c(/C=C/c4ccncc4)nc3c2)CC1

>  <score_type>  (5) 
oracle

>  <origin>  (5) 
autodockgpu

>  <m_score__min__energy>  (5) 
-8.7799999999999994

>  <m_primary>  (5) 
energy

>  <rmsd>  (5) 
7.896743783878383

>  <m_score__min__rmsd>  (5) 
7.896743783878383

>  <meeko>  (5) 
{"free_energy": -8.19, "intermolecular_energy": -10.28, "internal_energy": -2.03, "cluster_size": 24, "cluster_id": 2, "rank_in_cluster": 14}

>  <energy>  (5) 
-8.39

>  <cluster_rmsd>  (5) 
0.7

>  <cluster>  (5) 
2

$$$$

     RDKit          3D

 69 73  0  0  0  0  0  0  0  0999 V2000
  142.9990   79.7900  222.7560 C   0  0  0  0  0  0  0  0  0  0  0  0
  142.2970   80.9740  222.3500 N   0  0  0  0  0  0  0  0  0  0  0  0
  141.7220   80.9260  221.0410 C   0  0  0  0  0  0  0  0  0  0  0  0
  140.1930   80.8480  221.1190 C   0  0  0  0  0  0  0  0  0  0  0  0
  139.8170   80.2000  222.3260 N   0  0  0  0  0  0  0  0  0  0  0  0
  138.6880   79.3570  222.2930 C   0  0  0  0  0  0  0  0  0  0  0  0
  138.9220   77.9090  222.2990 C   0  0  0  0  0  0  0  0  0  0  0  0
  140.1930   77.3720  222.2780 C   0  0  0  0  0  0  0  0  0  0  0  0
  140.4440   76.0160  222.2830 C   0  0  0  0  0  0  0  0  0  0  0  0
  139.3830   75.1230  222.3090 C   0  0  0  0  0  0  0  0  0  0  0  0
  139.5710   73.7520  222.3130 C   0  0  0  0  0  0  0  0  0  0  0  0
  140.7690   73.3650  222.2960 O   0  0  0  0  0  0  0  0  0  0  0  0
  138.5230   72.8770  222.3380 N   0  0  0  0  0  0  0  0  0  0  0  0
  138.8020   71.4830  222.3260 C   0  0  0  0  0  0  0  0  0  0  0  0
  139.0520   70.8050  223.6190 C   0  0  0  0  0  0  0  0  0  0  0  0
  140.3070   71.2610  224.3350 C   0  0  0  0  0  0  0  0  0  0  0  0
  140.5700   70.4920  225.6050 C   0  0  0  0  0  0  0  0  0  0  0  0
  139.3790   69.7620  226.1180 C   0  0  0  0  0  0  0  0  0  0  0  0
  138.7000   68.9040  225.1090 C   0  0  0  0  0  0  0  0  0  0  0  0
  138.9960   69.3220  223.6570 C   0  0  0  0  0  0  0  0  0  0  0  0
  137.3000   73.4340  222.3600 C   0  0  0  0  0  0  0  0  0  0  0  0
  136.1060   72.6000  222.4480 C   0  0  0  0  0  0  0  0  0  0  0  0
  135.7130   72.0580  223.5840 C   0  0  0  0  0  0  0  0  0  0  0  0
  134.9850   72.7580  224.6250 C   0  0  0  0  0  0  0  0  0  0  0  0
  134.1780   72.1370  225.5530 C   0  0  0  0  0  0  0  0  0  0  0  0
  133.4990   72.8380  226.5310 C   0  0  0  0  0  0  0  0  0  0  0  0
  133.6350   74.1950  226.5770 N   0  0  0  0  0  0  0  0  0  0  0  0
  134.4090   74.8420  225.6950 C   0  0  0  0  0  0  0  0  0  0  0  0
  135.0870   74.1310  224.7170 C   0  0  0  0  0  0  0  0  0  0  0  0
  137.0950   74.7720  222.3550 N   0  0  0  0  0  0  0  0  0  0  0  0
  138.1240   75.6440  222.3290 C   0  0  0  0  0  0  0  0  0  0  0  0
  137.8760   76.9940  222.3250 C   0  0  0  0  0  0  0  0  0  0  0  0
  140.1350   80.8460  223.5410 C   0  0  0  0  0  0  0  0  0  0  0  0
  141.4620   81.5610  223.3520 C   0  0  0  0  0  0  0  0  0  0  0  0
  143.0287   79.7399  223.8545 H   0  0  0  0  0  0  0  0  0  0  0  0
  142.4806   78.9032  222.3624 H   0  0  0  0  0  0  0  0  0  0  0  0
  144.0257   79.8194  222.3624 H   0  0  0  0  0  0  0  0  0  0  0  0
  142.0088   81.8326  220.4879 H   0  0  0  0  0  0  0  0  0  0  0  0
  142.0944   80.0283  220.5257 H   0  0  0  0  0  0  0  0  0  0  0  0
  139.7718   81.8640  221.1008 H   0  0  0  0  0  0  0  0  0  0  0  0
  139.8087   80.2786  220.2599 H   0  0  0  0  0  0  0  0  0  0  0  0
  138.0737   79.5949  223.1739 H   0  0  0  0  0  0  0  0  0  0  0  0
  138.2159   79.5599  221.3204 H   0  0  0  0  0  0  0  0  0  0  0  0
  141.0501   78.0611  222.2561 H   0  0  0  0  0  0  0  0  0  0  0  0
  141.4794   75.6448  222.2665 H   0  0  0  0  0  0  0  0  0  0  0  0
  137.9417   70.9829  221.8572 H   0  0  0  0  0  0  0  0  0  0  0  0
  139.7583   71.4025  221.7883 H   0  0  0  0  0  0  0  0  0  0  0  0
  138.1576   71.1506  224.1581 H   0  0  0  0  0  0  0  0  0  0  0  0
  141.1648   71.1271  223.6595 H   0  0  0  0  0  0  0  0  0  0  0  0
  140.1645   72.3161  224.6114 H   0  0  0  0  0  0  0  0  0  0  0  0
  141.3683   69.7608  225.4096 H   0  0  0  0  0  0  0  0  0  0  0  0
  140.8535   71.2263  226.3734 H   0  0  0  0  0  0  0  0  0  0  0  0
  139.7013   69.1219  226.9525 H   0  0  0  0  0  0  0  0  0  0  0  0
  138.6490   70.5272  226.4205 H   0  0  0  0  0  0  0  0  0  0  0  0
  139.0370   67.8664  225.2493 H   0  0  0  0  0  0  0  0  0  0  0  0
  137.6165   69.0122  225.2651 H   0  0  0  0  0  0  0  0  0  0  0  0
  139.9603   68.9019  223.3350 H   0  0  0  0  0  0  0  0  0  0  0  0
  138.2138   68.9476  222.9803 H   0  0  0  0  0  0  0  0  0  0  0  0
  135.5152   72.4177  221.5382 H   0  0  0  0  0  0  0  0  0  0  0  0
  135.9547   70.9985  223.7545 H   0  0  0  0  0  0  0  0  0  0  0  0
  134.0703   71.0430  225.5138 H   0  0  0  0  0  0  0  0  0  0  0  0
  132.8618   72.3129  227.2578 H   0  0  0  0  0  0  0  0  0  0  0  0
  134.5063   75.9365  225.7470 H   0  0  0  0  0  0  0  0  0  0  0  0
  135.7199   74.6730  223.9989 H   0  0  0  0  0  0  0  0  0  0  0  0
  136.8374   77.3560  222.3426 H   0  0  0  0  0  0  0  0  0  0  0  0
  139.3503   81.5740  223.7945 H   0  0  0  0  0  0  0  0  0  0  0  0
  140.2055   80.1139  224.3590 H   0  0  0  0  0  0  0  0  0  0  0  0
  141.2567   82.6030  223.0654 H   0  0  0  0  0  0  0  0  0  0  0  0
  142.0050   81.4855  224.3057 H   0  0  0  0  0  0  0  0  0  0  0  0
  1  2  1  0
  2  3  1  0
  3  4  1  0
  4  5  1  0
  5  6  1  0
  6  7  1  0
  7  8  2  0
  8  9  1  0
  9 10  2  0
 10 11  1  0
 11 12  2  0
 11 13  1  0
 13 14  1  0
 14 15  1  0
 15 16  1  0
 16 17  1  0
 17 18  1  0
 18 19  1  0
 19 20  1  0
 13 21  1  0
 21 22  1  0
 22 23  2  0
 23 24  1  0
 24 25  2  0
 25 26  1  0
 26 27  2  0
 27 28  1  0
 28 29  2  0
 21 30  2  0
 30 31  1  0
 31 32  2  0
  5 33  1  0
 33 34  1  0
 34  2  1  0
 32  7  1  0
 31 10  1  0
 20 15  1  0
 29 24  1  0
  1 35  1  0
  1 36  1  0
  1 37  1  0
  3 38  1  0
  3 39  1  0
  4 40  1  0
  4 41  1  0
  6 42  1  0
  6 43  1  0
  8 44  1  0
  9 45  1  0
 14 46  1  0
 14 47  1  0
 15 48  1  0
 16 49  1  0
 16 50  1  0
 17 51  1  0
 17 52  1  0
 18 53  1  0
 18 54  1  0
 19 55  1  0
 19 56  1  0
 20 57  1  0
 20 58  1  0
 22 59  1  0
 23 60  1  0
 25 61  1  0
 26 62  1  0
 28 63  1  0
 29 64  1  0
 32 65  1  0
 33 66  1  0
 33 67  1  0
 34 68  1  0
 34 69  1  0
M  END
>  <smiles>  (6) 
CN1CCN(Cc2ccc3c(=O)n(CC4CCCCC4)c(/C=C/c4ccncc4)nc3c2)CC1

>  <score_type>  (6) 
oracle

>  <origin>  (6) 
autodockgpu

>  <m_score__min__energy>  (6) 
-8.7799999999999994

>  <m_primary>  (6) 
energy

>  <rmsd>  (6) 
7.336356711649803

>  <m_score__min__rmsd>  (6) 
7.336356711649803

>  <meeko>  (6) 
{"free_energy": -8.16, "intermolecular_energy": -10.25, "internal_energy": -1.94, "cluster_size": 24, "cluster_id": 2, "rank_in_cluster": 16}

>  <energy>  (6) 
-8.38

>  <cluster_rmsd>  (6) 
0.7

>  <cluster>  (6) 
2

$$$$

     RDKit          3D

 69 73  0  0  0  0  0  0  0  0999 V2000
  141.0640   68.1170  226.3980 C   0  0  0  0  0  0  0  0  0  0  0  0
  140.3380   69.3250  226.6700 N   0  0  0  0  0  0  0  0  0  0  0  0
  141.0030   70.5350  226.2980 C   0  0  0  0  0  0  0  0  0  0  0  0
  140.3210   71.1840  225.0880 C   0  0  0  0  0  0  0  0  0  0  0  0
  139.7130   70.1730  224.2950 N   0  0  0  0  0  0  0  0  0  0  0  0
  139.7300   70.3410  222.8960 C   0  0  0  0  0  0  0  0  0  0  0  0
  140.1820   71.6350  222.3730 C   0  0  0  0  0  0  0  0  0  0  0  0
  141.4270   71.7980  221.8000 C   0  0  0  0  0  0  0  0  0  0  0  0
  141.8800   73.0020  221.3010 C   0  0  0  0  0  0  0  0  0  0  0  0
  141.0630   74.1210  221.3670 C   0  0  0  0  0  0  0  0  0  0  0  0
  141.4620   75.3560  220.8850 C   0  0  0  0  0  0  0  0  0  0  0  0
  142.6140   75.3990  220.3780 O   0  0  0  0  0  0  0  0  0  0  0  0
  140.6550   76.4550  220.9530 N   0  0  0  0  0  0  0  0  0  0  0  0
  141.1460   77.6910  220.4480 C   0  0  0  0  0  0  0  0  0  0  0  0
  141.5370   78.7410  221.4160 C   0  0  0  0  0  0  0  0  0  0  0  0
  141.4590   78.3160  222.8690 C   0  0  0  0  0  0  0  0  0  0  0  0
  141.7850   79.4350  223.8250 C   0  0  0  0  0  0  0  0  0  0  0  0
  142.5080   80.5700  223.1910 C   0  0  0  0  0  0  0  0  0  0  0  0
  141.8650   81.0980  221.9570 C   0  0  0  0  0  0  0  0  0  0  0  0
  140.9230   80.0850  221.2810 C   0  0  0  0  0  0  0  0  0  0  0  0
  139.4500   76.2590  221.5150 C   0  0  0  0  0  0  0  0  0  0  0  0
  138.4790   77.3460  221.5880 C   0  0  0  0  0  0  0  0  0  0  0  0
  138.0740   77.8460  222.7400 C   0  0  0  0  0  0  0  0  0  0  0  0
  137.9590   79.2630  223.0300 C   0  0  0  0  0  0  0  0  0  0  0  0
  138.5520   79.8790  224.1100 C   0  0  0  0  0  0  0  0  0  0  0  0
  138.4190   81.2320  224.3540 C   0  0  0  0  0  0  0  0  0  0  0  0
  137.6730   81.9830  223.4930 N   0  0  0  0  0  0  0  0  0  0  0  0
  137.0790   81.4260  222.4280 C   0  0  0  0  0  0  0  0  0  0  0  0
  137.2160   80.0680  222.1900 C   0  0  0  0  0  0  0  0  0  0  0  0
  139.0420   75.0600  221.9930 N   0  0  0  0  0  0  0  0  0  0  0  0
  139.8330   73.9690  221.9310 C   0  0  0  0  0  0  0  0  0  0  0  0
  139.3840   72.7710  222.4270 C   0  0  0  0  0  0  0  0  0  0  0  0
  138.6480   69.4460  224.8700 C   0  0  0  0  0  0  0  0  0  0  0  0
  138.9440   69.2840  226.3510 C   0  0  0  0  0  0  0  0  0  0  0  0
  141.3507   67.6400  227.3468 H   0  0  0  0  0  0  0  0  0  0  0  0
  140.4290   67.4300  225.8194 H   0  0  0  0  0  0  0  0  0  0  0  0
  141.9686   68.3553  225.8194 H   0  0  0  0  0  0  0  0  0  0  0  0
  140.9763   71.2359  227.1454 H   0  0  0  0  0  0  0  0  0  0  0  0
  142.0427   70.2965  226.0295 H   0  0  0  0  0  0  0  0  0  0  0  0
  139.5530   71.8913  225.4343 H   0  0  0  0  0  0  0  0  0  0  0  0
  141.0687   71.7237  224.4883 H   0  0  0  0  0  0  0  0  0  0  0  0
  140.3928   69.5681  222.4797 H   0  0  0  0  0  0  0  0  0  0  0  0
  138.6748   70.2704  222.5932 H   0  0  0  0  0  0  0  0  0  0  0  0
  142.0918   70.9238  221.7380 H   0  0  0  0  0  0  0  0  0  0  0  0
  142.8824   73.0740  220.8538 H   0  0  0  0  0  0  0  0  0  0  0  0
  142.0330   77.4640  219.8383 H   0  0  0  0  0  0  0  0  0  0  0  0
  140.2890   78.1236  219.9110 H   0  0  0  0  0  0  0  0  0  0  0  0
  142.5863   78.8614  221.1085 H   0  0  0  0  0  0  0  0  0  0  0  0
  140.4384   77.9625  223.0771 H   0  0  0  0  0  0  0  0  0  0  0  0
  142.2056   77.5228  223.0218 H   0  0  0  0  0  0  0  0  0  0  0  0
  140.8438   79.8156  224.2484 H   0  0  0  0  0  0  0  0  0  0  0  0
  142.4519   79.0176  224.5938 H   0  0  0  0  0  0  0  0  0  0  0  0
  142.5716   81.3888  223.9228 H   0  0  0  0  0  0  0  0  0  0  0  0
  143.4936   80.1849  222.8905 H   0  0  0  0  0  0  0  0  0  0  0  0
  141.2832   81.9932  222.2219 H   0  0  0  0  0  0  0  0  0  0  0  0
  142.6691   81.3237  221.2412 H   0  0  0  0  0  0  0  0  0  0  0  0
  139.9402   80.0995  221.7748 H   0  0  0  0  0  0  0  0  0  0  0  0
  140.7798   80.3392  220.2204 H   0  0  0  0  0  0  0  0  0  0  0  0
  138.0723   77.7612  220.6541 H   0  0  0  0  0  0  0  0  0  0  0  0
  137.8043   77.1380  223.5375 H   0  0  0  0  0  0  0  0  0  0  0  0
  139.1529   79.2717  224.8029 H   0  0  0  0  0  0  0  0  0  0  0  0
  138.9050   81.6951  225.2254 H   0  0  0  0  0  0  0  0  0  0  0  0
  136.4829   82.0471  221.7432 H   0  0  0  0  0  0  0  0  0  0  0  0
  136.7226   79.6221  221.3138 H   0  0  0  0  0  0  0  0  0  0  0  0
  138.3802   72.7093  222.8727 H   0  0  0  0  0  0  0  0  0  0  0  0
  137.7042   69.9945  224.7347 H   0  0  0  0  0  0  0  0  0  0  0  0
  138.5491   68.4624  224.3877 H   0  0  0  0  0  0  0  0  0  0  0  0
  138.4397   70.0955  226.8961 H   0  0  0  0  0  0  0  0  0  0  0  0
  138.5780   68.2887  226.6434 H   0  0  0  0  0  0  0  0  0  0  0  0
  1  2  1  0
  2  3  1  0
  3  4  1  0
  4  5  1  0
  5  6  1  0
  6  7  1  0
  7  8  2  0
  8  9  1  0
  9 10  2  0
 10 11  1  0
 11 12  2  0
 11 13  1  0
 13 14  1  0
 14 15  1  0
 15 16  1  0
 16 17  1  0
 17 18  1  0
 18 19  1  0
 19 20  1  0
 13 21  1  0
 21 22  1  0
 22 23  2  0
 23 24  1  0
 24 25  2  0
 25 26  1  0
 26 27  2  0
 27 28  1  0
 28 29  2  0
 21 30  2  0
 30 31  1  0
 31 32  2  0
  5 33  1  0
 33 34  1  0
 34  2  1  0
 32  7  1  0
 31 10  1  0
 20 15  1  0
 29 24  1  0
  1 35  1  0
  1 36  1  0
  1 37  1  0
  3 38  1  0
  3 39  1  0
  4 40  1  0
  4 41  1  0
  6 42  1  0
  6 43  1  0
  8 44  1  0
  9 45  1  0
 14 46  1  0
 14 47  1  0
 15 48  1  0
 16 49  1  0
 16 50  1  0
 17 51  1  0
 17 52  1  0
 18 53  1  0
 18 54  1  0
 19 55  1  0
 19 56  1  0
 20 57  1  0
 20 58  1  0
 22 59  1  0
 23 60  1  0
 25 61  1  0
 26 62  1  0
 28 63  1  0
 29 64  1  0
 32 65  1  0
 33 66  1  0
 33 67  1  0
 34 68  1  0
 34 69  1  0
M  END
>  <smiles>  (7) 
CN1CCN(Cc2ccc3c(=O)n(CC4CCCCC4)c(/C=C/c4ccncc4)nc3c2)CC1

>  <score_type>  (7) 
oracle

>  <origin>  (7) 
autodockgpu

>  <m_score__min__energy>  (7) 
-8.7799999999999994

>  <m_primary>  (7) 
energy

>  <rmsd>  (7) 
7.613488708105534

>  <m_score__min__rmsd>  (7) 
7.613488708105534

>  <meeko>  (7) 
{"free_energy": -7.88, "intermolecular_energy": -9.97, "internal_energy": -2.25, "cluster_size": 8, "cluster_id": 5, "rank_in_cluster": 4}

>  <energy>  (7) 
-8.31

>  <cluster_rmsd>  (7) 
1.27

>  <cluster>  (7) 
2

$$$$

     RDKit          3D

 69 73  0  0  0  0  0  0  0  0999 V2000
  140.7730   82.0590  222.3050 C   0  0  0  0  0  0  0  0  0  0  0  0
  140.8230   81.1320  223.3980 N   0  0  0  0  0  0  0  0  0  0  0  0
  139.7530   80.1840  223.4460 C   0  0  0  0  0  0  0  0  0  0  0  0
  140.2540   78.7770  223.0990 C   0  0  0  0  0  0  0  0  0  0  0  0
  141.3700   78.8790  222.2260 N   0  0  0  0  0  0  0  0  0  0  0  0
  141.5040   77.9030  221.2170 C   0  0  0  0  0  0  0  0  0  0  0  0
  140.5630   76.7780  221.2340 C   0  0  0  0  0  0  0  0  0  0  0  0
  139.3510   76.8270  220.5760 C   0  0  0  0  0  0  0  0  0  0  0  0
  138.4460   75.7860  220.5750 C   0  0  0  0  0  0  0  0  0  0  0  0
  138.7440   74.6190  221.2630 C   0  0  0  0  0  0  0  0  0  0  0  0
  137.8760   73.5410  221.2990 C   0  0  0  0  0  0  0  0  0  0  0  0
  136.7980   73.6860  220.6650 O   0  0  0  0  0  0  0  0  0  0  0  0
  138.1730   72.3950  221.9790 N   0  0  0  0  0  0  0  0  0  0  0  0
  137.2200   71.3390  221.9790 C   0  0  0  0  0  0  0  0  0  0  0  0
  136.3290   71.1960  223.1530 C   0  0  0  0  0  0  0  0  0  0  0  0
  135.7910   72.5040  223.6960 C   0  0  0  0  0  0  0  0  0  0  0  0
  134.9550   72.3240  224.9380 C   0  0  0  0  0  0  0  0  0  0  0  0
  134.4810   70.9290  225.1400 C   0  0  0  0  0  0  0  0  0  0  0  0
  135.5500   69.8970  225.0670 C   0  0  0  0  0  0  0  0  0  0  0  0
  136.7950   70.3660  224.2920 C   0  0  0  0  0  0  0  0  0  0  0  0
  139.3620   72.3810  222.6050 C   0  0  0  0  0  0  0  0  0  0  0  0
  139.8140   71.1880  223.3130 C   0  0  0  0  0  0  0  0  0  0  0  0
  140.7410   71.2390  224.2510 C   0  0  0  0  0  0  0  0  0  0  0  0
  140.5050   70.9900  225.6600 C   0  0  0  0  0  0  0  0  0  0  0  0
  139.8260   69.8950  226.1470 C   0  0  0  0  0  0  0  0  0  0  0  0
  139.6210   69.6920  227.4980 C   0  0  0  0  0  0  0  0  0  0  0  0
  140.1090   70.6120  228.3800 N   0  0  0  0  0  0  0  0  0  0  0  0
  140.7750   71.6930  227.9520 C   0  0  0  0  0  0  0  0  0  0  0  0
  140.9770   71.8890  226.5950 C   0  0  0  0  0  0  0  0  0  0  0  0
  140.2230   73.4240  222.5820 N   0  0  0  0  0  0  0  0  0  0  0  0
  139.9380   74.5620  221.9150 C   0  0  0  0  0  0  0  0  0  0  0  0
  140.8370   75.5980  221.9150 C   0  0  0  0  0  0  0  0  0  0  0  0
  142.5410   79.4850  222.7320 C   0  0  0  0  0  0  0  0  0  0  0  0
  142.1170   80.5910  223.6810 C   0  0  0  0  0  0  0  0  0  0  0  0
  140.7176   83.0853  222.6969 H   0  0  0  0  0  0  0  0  0  0  0  0
  141.6783   81.9497  221.6898 H   0  0  0  0  0  0  0  0  0  0  0  0
  139.8847   81.8530  221.6898 H   0  0  0  0  0  0  0  0  0  0  0  0
  139.3252   80.1744  224.4594 H   0  0  0  0  0  0  0  0  0  0  0  0
  138.9898   80.4772  222.7101 H   0  0  0  0  0  0  0  0  0  0  0  0
  140.5542   78.2561  224.0202 H   0  0  0  0  0  0  0  0  0  0  0  0
  139.4504   78.2105  222.6058 H   0  0  0  0  0  0  0  0  0  0  0  0
  141.3910   78.4125  220.2487 H   0  0  0  0  0  0  0  0  0  0  0  0
  142.4889   77.4474  221.3968 H   0  0  0  0  0  0  0  0  0  0  0  0
  139.0934   77.7430  220.0241 H   0  0  0  0  0  0  0  0  0  0  0  0
  137.4940   75.8807  220.0320 H   0  0  0  0  0  0  0  0  0  0  0  0
  136.5770   71.4809  221.0978 H   0  0  0  0  0  0  0  0  0  0  0  0
  137.8299   70.4236  221.9887 H   0  0  0  0  0  0  0  0  0  0  0  0
  135.5233   70.6199  222.6745 H   0  0  0  0  0  0  0  0  0  0  0  0
  136.6405   73.1600  223.9367 H   0  0  0  0  0  0  0  0  0  0  0  0
  135.1428   72.9410  222.9222 H   0  0  0  0  0  0  0  0  0  0  0  0
  135.5598   72.6153  225.8094 H   0  0  0  0  0  0  0  0  0  0  0  0
  134.0613   72.9542  224.8192 H   0  0  0  0  0  0  0  0  0  0  0  0
  134.0104   70.8664  226.1323 H   0  0  0  0  0  0  0  0  0  0  0  0
  133.7824   70.7141  224.3180 H   0  0  0  0  0  0  0  0  0  0  0  0
  135.8539   69.6356  226.0914 H   0  0  0  0  0  0  0  0  0  0  0  0
  135.1344   69.0341  224.5260 H   0  0  0  0  0  0  0  0  0  0  0  0
  137.4437   70.9627  224.9502 H   0  0  0  0  0  0  0  0  0  0  0  0
  137.3723   69.5025  223.9298 H   0  0  0  0  0  0  0  0  0  0  0  0
  139.3681   70.2156  223.0569 H   0  0  0  0  0  0  0  0  0  0  0  0
  141.7667   71.4884  223.9417 H   0  0  0  0  0  0  0  0  0  0  0  0
  139.4327   69.1552  225.4342 H   0  0  0  0  0  0  0  0  0  0  0  0
  139.0753   68.8064  227.8557 H   0  0  0  0  0  0  0  0  0  0  0  0
  141.1612   72.4244  228.6772 H   0  0  0  0  0  0  0  0  0  0  0  0
  141.5253   72.7802  226.2557 H   0  0  0  0  0  0  0  0  0  0  0  0
  141.7864   75.4935  222.4607 H   0  0  0  0  0  0  0  0  0  0  0  0
  143.1450   78.7403  223.2711 H   0  0  0  0  0  0  0  0  0  0  0  0
  143.1478   79.8944  221.9109 H   0  0  0  0  0  0  0  0  0  0  0  0
  142.1070   80.1854  224.7034 H   0  0  0  0  0  0  0  0  0  0  0  0
  142.8400   81.4111  223.5596 H   0  0  0  0  0  0  0  0  0  0  0  0
  1  2  1  0
  2  3  1  0
  3  4  1  0
  4  5  1  0
  5  6  1  0
  6  7  1  0
  7  8  2  0
  8  9  1  0
  9 10  2  0
 10 11  1  0
 11 12  2  0
 11 13  1  0
 13 14  1  0
 14 15  1  0
 15 16  1  0
 16 17  1  0
 17 18  1  0
 18 19  1  0
 19 20  1  0
 13 21  1  0
 21 22  1  0
 22 23  2  0
 23 24  1  0
 24 25  2  0
 25 26  1  0
 26 27  2  0
 27 28  1  0
 28 29  2  0
 21 30  2  0
 30 31  1  0
 31 32  2  0
  5 33  1  0
 33 34  1  0
 34  2  1  0
 32  7  1  0
 31 10  1  0
 20 15  1  0
 29 24  1  0
  1 35  1  0
  1 36  1  0
  1 37  1  0
  3 38  1  0
  3 39  1  0
  4 40  1  0
  4 41  1  0
  6 42  1  0
  6 43  1  0
  8 44  1  0
  9 45  1  0
 14 46  1  0
 14 47  1  0
 15 48  1  0
 16 49  1  0
 16 50  1  0
 17 51  1  0
 17 52  1  0
 18 53  1  0
 18 54  1  0
 19 55  1  0
 19 56  1  0
 20 57  1  0
 20 58  1  0
 22 59  1  0
 23 60  1  0
 25 61  1  0
 26 62  1  0
 28 63  1  0
 29 64  1  0
 32 65  1  0
 33 66  1  0
 33 67  1  0
 34 68  1  0
 34 69  1  0
M  END
>  <smiles>  (8) 
CN1CCN(Cc2ccc3c(=O)n(CC4CCCCC4)c(/C=C/c4ccncc4)nc3c2)CC1

>  <score_type>  (8) 
oracle

>  <origin>  (8) 
autodockgpu

>  <m_score__min__energy>  (8) 
-8.7799999999999994

>  <m_primary>  (8) 
energy

>  <rmsd>  (8) 
7.832439598521729

>  <m_score__min__rmsd>  (8) 
7.832439598521729

>  <meeko>  (8) 
{"free_energy": -8.3, "intermolecular_energy": -10.39, "internal_energy": -1.93, "cluster_size": 11, "cluster_id": 3, "rank_in_cluster": 5}

>  <energy>  (8) 
-8.3

>  <cluster_rmsd>  (8) 
1.23

>  <cluster>  (8) 
2

$$$$

     RDKit          3D

 69 73  0  0  0  0  0  0  0  0999 V2000
  143.0370   79.7620  222.7700 C   0  0  0  0  0  0  0  0  0  0  0  0
  142.3040   80.9940  222.7020 N   0  0  0  0  0  0  0  0  0  0  0  0
  141.7200   81.2890  221.4300 C   0  0  0  0  0  0  0  0  0  0  0  0
  140.1930   81.1550  221.4860 C   0  0  0  0  0  0  0  0  0  0  0  0
  139.8430   80.1940  222.4730 N   0  0  0  0  0  0  0  0  0  0  0  0
  138.7330   79.3650  222.2130 C   0  0  0  0  0  0  0  0  0  0  0  0
  138.9560   77.9150  222.2130 C   0  0  0  0  0  0  0  0  0  0  0  0
  140.2210   77.3680  222.1480 C   0  0  0  0  0  0  0  0  0  0  0  0
  140.4610   76.0100  222.1450 C   0  0  0  0  0  0  0  0  0  0  0  0
  139.3940   75.1260  222.2100 C   0  0  0  0  0  0  0  0  0  0  0  0
  139.5720   73.7530  222.2090 C   0  0  0  0  0  0  0  0  0  0  0  0
  140.7660   73.3560  222.1490 O   0  0  0  0  0  0  0  0  0  0  0  0
  138.5180   72.8870  222.2710 N   0  0  0  0  0  0  0  0  0  0  0  0
  138.7860   71.4900  222.2510 C   0  0  0  0  0  0  0  0  0  0  0  0
  139.0710   70.8100  223.5360 C   0  0  0  0  0  0  0  0  0  0  0  0
  140.3040   71.3200  224.2560 C   0  0  0  0  0  0  0  0  0  0  0  0
  140.6080   70.5500  225.5160 C   0  0  0  0  0  0  0  0  0  0  0  0
  139.4560   69.7570  226.0220 C   0  0  0  0  0  0  0  0  0  0  0  0
  138.8180   68.8770  225.0040 C   0  0  0  0  0  0  0  0  0  0  0  0
  139.0900   69.3260  223.5570 C   0  0  0  0  0  0  0  0  0  0  0  0
  137.3020   73.4540  222.3370 C   0  0  0  0  0  0  0  0  0  0  0  0
  136.1050   72.6290  222.4670 C   0  0  0  0  0  0  0  0  0  0  0  0
  135.7390   72.1040  223.6210 C   0  0  0  0  0  0  0  0  0  0  0  0
  135.0160   72.8120  224.6600 C   0  0  0  0  0  0  0  0  0  0  0  0
  135.0520   74.1780  224.8310 C   0  0  0  0  0  0  0  0  0  0  0  0
  134.3490   74.8170  225.8330 C   0  0  0  0  0  0  0  0  0  0  0  0
  133.5920   74.0660  226.6840 N   0  0  0  0  0  0  0  0  0  0  0  0
  133.5260   72.7330  226.5550 C   0  0  0  0  0  0  0  0  0  0  0  0
  134.2340   72.0990  225.5470 C   0  0  0  0  0  0  0  0  0  0  0  0
  137.1070   74.7930  222.3370 N   0  0  0  0  0  0  0  0  0  0  0  0
  138.1410   75.6570  222.2740 C   0  0  0  0  0  0  0  0  0  0  0  0
  137.9050   77.0080  222.2770 C   0  0  0  0  0  0  0  0  0  0  0  0
  140.1550   80.4950  223.8160 C   0  0  0  0  0  0  0  0  0  0  0  0
  141.4640   81.2670  223.8260 C   0  0  0  0  0  0  0  0  0  0  0  0
  143.1991   79.4895  223.8233 H   0  0  0  0  0  0  0  0  0  0  0  0
  142.4650   78.9669  222.2694 H   0  0  0  0  0  0  0  0  0  0  0  0
  144.0087   79.8854  222.2694 H   0  0  0  0  0  0  0  0  0  0  0  0
  141.9812   82.3184  221.1436 H   0  0  0  0  0  0  0  0  0  0  0  0
  142.1092   80.5745  220.6897 H   0  0  0  0  0  0  0  0  0  0  0  0
  139.7478   82.1270  221.7450 H   0  0  0  0  0  0  0  0  0  0  0  0
  139.8147   80.8313  220.5051 H   0  0  0  0  0  0  0  0  0  0  0  0
  137.9735   79.5816  222.9786 H   0  0  0  0  0  0  0  0  0  0  0  0
  138.4408   79.6037  221.1797 H   0  0  0  0  0  0  0  0  0  0  0  0
  141.0823   78.0502  222.0959 H   0  0  0  0  0  0  0  0  0  0  0  0
  141.4920   75.6302  222.0914 H   0  0  0  0  0  0  0  0  0  0  0  0
  137.9077   70.9964  221.8094 H   0  0  0  0  0  0  0  0  0  0  0  0
  139.7245   71.4022  221.6840 H   0  0  0  0  0  0  0  0  0  0  0  0
  138.1608   71.1037  224.0794 H   0  0  0  0  0  0  0  0  0  0  0  0
  141.1659   71.2374  223.5776 H   0  0  0  0  0  0  0  0  0  0  0  0
  140.1094   72.3632  224.5454 H   0  0  0  0  0  0  0  0  0  0  0  0
  141.4407   69.8613  225.3103 H   0  0  0  0  0  0  0  0  0  0  0  0
  140.8575   71.2880  226.2926 H   0  0  0  0  0  0  0  0  0  0  0  0
  139.8109   69.1245  226.8490 H   0  0  0  0  0  0  0  0  0  0  0  0
  138.6896   70.4820  226.3336 H   0  0  0  0  0  0  0  0  0  0  0  0
  139.2066   67.8559  225.1319 H   0  0  0  0  0  0  0  0  0  0  0  0
  137.7308   68.9288  225.1630 H   0  0  0  0  0  0  0  0  0  0  0  0
  140.0737   68.9589  223.2291 H   0  0  0  0  0  0  0  0  0  0  0  0
  138.3265   68.9204  222.8769 H   0  0  0  0  0  0  0  0  0  0  0  0
  135.4891   72.4390  221.5756 H   0  0  0  0  0  0  0  0  0  0  0  0
  136.0015   71.0524  223.8087 H   0  0  0  0  0  0  0  0  0  0  0  0
  135.6631   74.7821  224.1443 H   0  0  0  0  0  0  0  0  0  0  0  0
  134.3983   75.9104  225.9430 H   0  0  0  0  0  0  0  0  0  0  0  0
  132.9098   72.1430  227.2494 H   0  0  0  0  0  0  0  0  0  0  0  0
  134.1719   71.0049  225.4513 H   0  0  0  0  0  0  0  0  0  0  0  0
  136.8706   77.3784  222.3307 H   0  0  0  0  0  0  0  0  0  0  0  0
  139.3555   81.1079  224.2577 H   0  0  0  0  0  0  0  0  0  0  0  0
  140.2489   79.5710  224.4054 H   0  0  0  0  0  0  0  0  0  0  0  0
  141.2323   82.3423  223.8326 H   0  0  0  0  0  0  0  0  0  0  0  0
  142.0161   80.9495  224.7229 H   0  0  0  0  0  0  0  0  0  0  0  0
  1  2  1  0
  2  3  1  0
  3  4  1  0
  4  5  1  0
  5  6  1  0
  6  7  1  0
  7  8  2  0
  8  9  1  0
  9 10  2  0
 10 11  1  0
 11 12  2  0
 11 13  1  0
 13 14  1  0
 14 15  1  0
 15 16  1  0
 16 17  1  0
 17 18  1  0
 18 19  1  0
 19 20  1  0
 13 21  1  0
 21 22  1  0
 22 23  2  0
 23 24  1  0
 24 25  2  0
 25 26  1  0
 26 27  2  0
 27 28  1  0
 28 29  2  0
 21 30  2  0
 30 31  1  0
 31 32  2  0
  5 33  1  0
 33 34  1  0
 34  2  1  0
 32  7  1  0
 31 10  1  0
 20 15  1  0
 29 24  1  0
  1 35  1  0
  1 36  1  0
  1 37  1  0
  3 38  1  0
  3 39  1  0
  4 40  1  0
  4 41  1  0
  6 42  1  0
  6 43  1  0
  8 44  1  0
  9 45  1  0
 14 46  1  0
 14 47  1  0
 15 48  1  0
 16 49  1  0
 16 50  1  0
 17 51  1  0
 17 52  1  0
 18 53  1  0
 18 54  1  0
 19 55  1  0
 19 56  1  0
 20 57  1  0
 20 58  1  0
 22 59  1  0
 23 60  1  0
 25 61  1  0
 26 62  1  0
 28 63  1  0
 29 64  1  0
 32 65  1  0
 33 66  1  0
 33 67  1  0
 34 68  1  0
 34 69  1  0
M  END
>  <smiles>  (9) 
CN1CCN(Cc2ccc3c(=O)n(CC4CCCCC4)c(/C=C/c4ccncc4)nc3c2)CC1

>  <score_type>  (9) 
oracle

>  <origin>  (9) 
autodockgpu

>  <m_score__min__energy>  (9) 
-8.7799999999999994

>  <m_primary>  (9) 
energy

>  <rmsd>  (9) 
7.277565236411533

>  <m_score__min__rmsd>  (9) 
7.277565236411533

>  <meeko>  (9) 
{"free_energy": -8.31, "intermolecular_energy": -10.39, "internal_energy": -1.93, "cluster_size": 24, "cluster_id": 2, "rank_in_cluster": 4}

>  <energy>  (9) 
-8.28

>  <cluster_rmsd>  (9) 
1.26

>  <cluster>  (9) 
2

$$$$

     RDKit          3D

 69 73  0  0  0  0  0  0  0  0999 V2000
  141.4080   82.0310  222.0660 C   0  0  0  0  0  0  0  0  0  0  0  0
  141.3570   81.0960  223.1530 N   0  0  0  0  0  0  0  0  0  0  0  0
  140.0430   80.7220  223.5770 C   0  0  0  0  0  0  0  0  0  0  0  0
  139.7370   79.2700  223.1890 C   0  0  0  0  0  0  0  0  0  0  0  0
  140.4710   78.9330  222.0200 N   0  0  0  0  0  0  0  0  0  0  0  0
  139.8540   78.0800  221.0830 C   0  0  0  0  0  0  0  0  0  0  0  0
  139.8500   76.6420  221.3740 C   0  0  0  0  0  0  0  0  0  0  0  0
  141.0050   75.8870  221.3510 C   0  0  0  0  0  0  0  0  0  0  0  0
  141.0320   74.5340  221.6190 C   0  0  0  0  0  0  0  0  0  0  0  0
  139.8530   73.8740  221.9310 C   0  0  0  0  0  0  0  0  0  0  0  0
  139.8170   72.5190  222.2070 C   0  0  0  0  0  0  0  0  0  0  0  0
  140.9250   71.9220  222.1630 O   0  0  0  0  0  0  0  0  0  0  0  0
  138.6530   71.8730  222.5120 N   0  0  0  0  0  0  0  0  0  0  0  0
  138.7000   70.4750  222.7700 C   0  0  0  0  0  0  0  0  0  0  0  0
  139.3430   70.0120  224.0220 C   0  0  0  0  0  0  0  0  0  0  0  0
  138.6420   68.8480  224.6940 C   0  0  0  0  0  0  0  0  0  0  0  0
  139.2780   68.4590  226.0050 C   0  0  0  0  0  0  0  0  0  0  0  0
  140.6600   68.9800  226.1740 C   0  0  0  0  0  0  0  0  0  0  0  0
  140.8050   70.4400  225.9290 C   0  0  0  0  0  0  0  0  0  0  0  0
  139.6790   71.0240  225.0540 C   0  0  0  0  0  0  0  0  0  0  0  0
  137.5490   72.6380  222.5280 C   0  0  0  0  0  0  0  0  0  0  0  0
  136.2570   72.0710  222.8990 C   0  0  0  0  0  0  0  0  0  0  0  0
  135.9280   71.8420  224.1560 C   0  0  0  0  0  0  0  0  0  0  0  0
  135.1040   72.7180  224.9670 C   0  0  0  0  0  0  0  0  0  0  0  0
  134.0880   72.2800  225.7870 C   0  0  0  0  0  0  0  0  0  0  0  0
  133.3240   73.1450  226.5460 C   0  0  0  0  0  0  0  0  0  0  0  0
  133.5880   74.4830  226.4780 N   0  0  0  0  0  0  0  0  0  0  0  0
  134.5670   74.9540  225.6940 C   0  0  0  0  0  0  0  0  0  0  0  0
  135.3290   74.0790  224.9360 C   0  0  0  0  0  0  0  0  0  0  0  0
  137.5640   73.9650  222.2590 N   0  0  0  0  0  0  0  0  0  0  0  0
  138.7080   74.6120  221.9550 C   0  0  0  0  0  0  0  0  0  0  0  0
  138.6820   75.9570  221.6880 C   0  0  0  0  0  0  0  0  0  0  0  0
  141.8800   78.9140  222.1170 C   0  0  0  0  0  0  0  0  0  0  0  0
  142.2930   80.0170  223.0760 C   0  0  0  0  0  0  0  0  0  0  0  0
  141.4638   83.0545  222.4651 H   0  0  0  0  0  0  0  0  0  0  0  0
  142.2965   81.8287  221.4498 H   0  0  0  0  0  0  0  0  0  0  0  0
  140.5028   81.9266  221.4498 H   0  0  0  0  0  0  0  0  0  0  0  0
  139.9739   80.8252  224.6700 H   0  0  0  0  0  0  0  0  0  0  0  0
  139.3129   81.3799  223.0828 H   0  0  0  0  0  0  0  0  0  0  0  0
  140.0281   78.6004  224.0117 H   0  0  0  0  0  0  0  0  0  0  0  0
  138.6602   79.1594  222.9934 H   0  0  0  0  0  0  0  0  0  0  0  0
  138.8058   78.3994  220.9872 H   0  0  0  0  0  0  0  0  0  0  0  0
  140.4621   78.1792  220.1717 H   0  0  0  0  0  0  0  0  0  0  0  0
  141.9524   76.3897  221.1065 H   0  0  0  0  0  0  0  0  0  0  0  0
  141.9829   73.9821  221.5854 H   0  0  0  0  0  0  0  0  0  0  0  0
  137.6619   70.1115  222.7835 H   0  0  0  0  0  0  0  0  0  0  0  0
  139.3412   70.0735  221.9715 H   0  0  0  0  0  0  0  0  0  0  0  0
  140.3053   69.6866  223.6001 H   0  0  0  0  0  0  0  0  0  0  0  0
  137.5952   69.1292  224.8813 H   0  0  0  0  0  0  0  0  0  0  0  0
  138.7184   67.9822  224.0198 H   0  0  0  0  0  0  0  0  0  0  0  0
  138.6561   68.8513  226.8231 H   0  0  0  0  0  0  0  0  0  0  0  0
  139.3434   67.3610  226.0185 H   0  0  0  0  0  0  0  0  0  0  0  0
  140.9818   68.7714  227.2050 H   0  0  0  0  0  0  0  0  0  0  0  0
  141.2788   68.4739  225.4184 H   0  0  0  0  0  0  0  0  0  0  0  0
  140.7992   70.9594  226.8986 H   0  0  0  0  0  0  0  0  0  0  0  0
  141.7504   70.5879  225.3864 H   0  0  0  0  0  0  0  0  0  0  0  0
  138.7948   71.2366  225.6729 H   0  0  0  0  0  0  0  0  0  0  0  0
  140.0033   71.9636  224.5829 H   0  0  0  0  0  0  0  0  0  0  0  0
  135.5347   71.8268  222.1061 H   0  0  0  0  0  0  0  0  0  0  0  0
  136.3058   70.9203  224.6226 H   0  0  0  0  0  0  0  0  0  0  0  0
  133.8771   71.2017  225.8395 H   0  0  0  0  0  0  0  0  0  0  0  0
  132.5194   72.7638  227.1920 H   0  0  0  0  0  0  0  0  0  0  0  0
  134.7660   76.0350  225.6519 H   0  0  0  0  0  0  0  0  0  0  0  0
  136.1300   74.4779  224.2962 H   0  0  0  0  0  0  0  0  0  0  0  0
  137.7259   76.4999  221.7228 H   0  0  0  0  0  0  0  0  0  0  0  0
  142.2158   77.9392  222.5005 H   0  0  0  0  0  0  0  0  0  0  0  0
  142.3359   79.0729  221.1286 H   0  0  0  0  0  0  0  0  0  0  0  0
  142.4025   79.5807  224.0798 H   0  0  0  0  0  0  0  0  0  0  0  0
  143.2352   80.4371  222.6942 H   0  0  0  0  0  0  0  0  0  0  0  0
  1  2  1  0
  2  3  1  0
  3  4  1  0
  4  5  1  0
  5  6  1  0
  6  7  1  0
  7  8  2  0
  8  9  1  0
  9 10  2  0
 10 11  1  0
 11 12  2  0
 11 13  1  0
 13 14  1  0
 14 15  1  0
 15 16  1  0
 16 17  1  0
 17 18  1  0
 18 19  1  0
 19 20  1  0
 13 21  1  0
 21 22  1  0
 22 23  2  0
 23 24  1  0
 24 25  2  0
 25 26  1  0
 26 27  2  0
 27 28  1  0
 28 29  2  0
 21 30  2  0
 30 31  1  0
 31 32  2  0
  5 33  1  0
 33 34  1  0
 34  2  1  0
 32  7  1  0
 31 10  1  0
 20 15  1  0
 29 24  1  0
  1 35  1  0
  1 36  1  0
  1 37  1  0
  3 38  1  0
  3 39  1  0
  4 40  1  0
  4 41  1  0
  6 42  1  0
  6 43  1  0
  8 44  1  0
  9 45  1  0
 14 46  1  0
 14 47  1  0
 15 48  1  0
 16 49  1  0
 16 50  1  0
 17 51  1  0
 17 52  1  0
 18 53  1  0
 18 54  1  0
 19 55  1  0
 19 56  1  0
 20 57  1  0
 20 58  1  0
 22 59  1  0
 23 60  1  0
 25 61  1  0
 26 62  1  0
 28 63  1  0
 29 64  1  0
 32 65  1  0
 33 66  1  0
 33 67  1  0
 34 68  1  0
 34 69  1  0
M  END
>  <smiles>  (10) 
CN1CCN(Cc2ccc3c(=O)n(CC4CCCCC4)c(/C=C/c4ccncc4)nc3c2)CC1

>  <score_type>  (10) 
oracle

>  <origin>  (10) 
autodockgpu

>  <m_score__min__energy>  (10) 
-8.7799999999999994

>  <m_primary>  (10) 
energy

>  <rmsd>  (10) 
8.586163182394552

>  <m_score__min__rmsd>  (10) 
8.586163182394552

>  <meeko>  (10) 
{"free_energy": -8.2, "intermolecular_energy": -10.29, "internal_energy": -1.78, "cluster_size": 24, "cluster_id": 2, "rank_in_cluster": 13}

>  <energy>  (10) 
-8.28

>  <cluster_rmsd>  (10) 
1.25

>  <cluster>  (10) 
2

$$$$

     RDKit          3D

 69 73  0  0  0  0  0  0  0  0999 V2000
  143.3810   80.1510  223.0870 C   0  0  0  0  0  0  0  0  0  0  0  0
  141.9920   80.5070  223.1230 N   0  0  0  0  0  0  0  0  0  0  0  0
  141.4810   81.0980  221.9240 C   0  0  0  0  0  0  0  0  0  0  0  0
  140.5310   80.1350  221.2020 C   0  0  0  0  0  0  0  0  0  0  0  0
  140.9100   78.7960  221.4940 N   0  0  0  0  0  0  0  0  0  0  0  0
  140.7760   77.8400  220.4670 C   0  0  0  0  0  0  0  0  0  0  0  0
  140.7000   76.4290  220.8600 C   0  0  0  0  0  0  0  0  0  0  0  0
  141.8110   75.6100  220.8670 C   0  0  0  0  0  0  0  0  0  0  0  0
  141.7700   74.2800  221.2310 C   0  0  0  0  0  0  0  0  0  0  0  0
  140.5640   73.7110  221.6130 C   0  0  0  0  0  0  0  0  0  0  0  0
  140.4600   72.3830  221.9870 C   0  0  0  0  0  0  0  0  0  0  0  0
  141.5320   71.7220  221.9620 O   0  0  0  0  0  0  0  0  0  0  0  0
  139.2700   71.8270  222.3610 N   0  0  0  0  0  0  0  0  0  0  0  0
  139.2460   70.4500  222.7170 C   0  0  0  0  0  0  0  0  0  0  0  0
  139.7260   70.0640  224.0640 C   0  0  0  0  0  0  0  0  0  0  0  0
  138.9420   68.9390  224.7110 C   0  0  0  0  0  0  0  0  0  0  0  0
  139.4070   68.6310  226.1120 C   0  0  0  0  0  0  0  0  0  0  0  0
  140.7600   69.1650  226.4220 C   0  0  0  0  0  0  0  0  0  0  0  0
  140.9400   70.6090  226.1100 C   0  0  0  0  0  0  0  0  0  0  0  0
  139.9350   71.1360  225.0700 C   0  0  0  0  0  0  0  0  0  0  0  0
  138.2110   72.6530  222.3450 C   0  0  0  0  0  0  0  0  0  0  0  0
  136.8990   72.1870  222.7820 C   0  0  0  0  0  0  0  0  0  0  0  0
  135.8550   72.9920  222.8440 C   0  0  0  0  0  0  0  0  0  0  0  0
  135.2290   73.4390  224.0740 C   0  0  0  0  0  0  0  0  0  0  0  0
  135.2820   74.7350  224.5390 C   0  0  0  0  0  0  0  0  0  0  0  0
  134.6730   75.1240  225.7160 C   0  0  0  0  0  0  0  0  0  0  0  0
  133.9950   74.1880  226.4430 N   0  0  0  0  0  0  0  0  0  0  0  0
  133.9160   72.9160  226.0290 C   0  0  0  0  0  0  0  0  0  0  0  0
  134.5300   72.5340  224.8470 C   0  0  0  0  0  0  0  0  0  0  0  0
  138.2920   73.9540  221.9810 N   0  0  0  0  0  0  0  0  0  0  0  0
  139.4620   74.5120  221.6090 C   0  0  0  0  0  0  0  0  0  0  0  0
  139.5050   75.8350  221.2460 C   0  0  0  0  0  0  0  0  0  0  0  0
  140.7970   78.3620  222.8320 C   0  0  0  0  0  0  0  0  0  0  0  0
  141.1290   79.5410  223.7310 C   0  0  0  0  0  0  0  0  0  0  0  0
  143.7613   80.0535  224.1146 H   0  0  0  0  0  0  0  0  0  0  0  0
  143.5005   79.1932  222.5594 H   0  0  0  0  0  0  0  0  0  0  0  0
  143.9465   80.9332  222.5594 H   0  0  0  0  0  0  0  0  0  0  0  0
  140.9352   82.0181  222.1801 H   0  0  0  0  0  0  0  0  0  0  0  0
  142.3252   81.3257  221.2566 H   0  0  0  0  0  0  0  0  0  0  0  0
  139.5005   80.3087  221.5454 H   0  0  0  0  0  0  0  0  0  0  0  0
  140.5867   80.3060  220.1168 H   0  0  0  0  0  0  0  0  0  0  0  0
  139.8555   78.0778  219.9138 H   0  0  0  0  0  0  0  0  0  0  0  0
  141.7076   77.9193  219.8875 H   0  0  0  0  0  0  0  0  0  0  0  0
  142.7782   76.0396  220.5671 H   0  0  0  0  0  0  0  0  0  0  0  0
  142.6882   73.6743  221.2184 H   0  0  0  0  0  0  0  0  0  0  0  0
  138.2032   70.1102  222.6332 H   0  0  0  0  0  0  0  0  0  0  0  0
  139.9631   69.9793  222.0284 H   0  0  0  0  0  0  0  0  0  0  0  0
  140.7321   69.7184  223.7842 H   0  0  0  0  0  0  0  0  0  0  0  0
  137.8810   69.2267  224.7485 H   0  0  0  0  0  0  0  0  0  0  0  0
  139.0994   68.0350  224.1043 H   0  0  0  0  0  0  0  0  0  0  0  0
  138.6893   69.0698  226.8208 H   0  0  0  0  0  0  0  0  0  0  0  0
  139.4651   67.5360  226.1988 H   0  0  0  0  0  0  0  0  0  0  0  0
  140.9491   69.0194  227.4958 H   0  0  0  0  0  0  0  0  0  0  0  0
  141.4670   68.6163  225.7824 H   0  0  0  0  0  0  0  0  0  0  0  0
  140.8161   71.1852  227.0388 H   0  0  0  0  0  0  0  0  0  0  0  0
  141.9459   70.7271  225.6807 H   0  0  0  0  0  0  0  0  0  0  0  0
  138.9814   71.3811  225.5606 H   0  0  0  0  0  0  0  0  0  0  0  0
  140.3192   72.0476  224.5889 H   0  0  0  0  0  0  0  0  0  0  0  0
  136.7764   71.1321  223.0686 H   0  0  0  0  0  0  0  0  0  0  0  0
  135.4290   73.3496  221.8950 H   0  0  0  0  0  0  0  0  0  0  0  0
  135.8291   75.4870  223.9515 H   0  0  0  0  0  0  0  0  0  0  0  0
  134.7330   76.1668  226.0608 H   0  0  0  0  0  0  0  0  0  0  0  0
  133.3642   72.1757  226.6270 H   0  0  0  0  0  0  0  0  0  0  0  0
  134.4588   71.4869  224.5176 H   0  0  0  0  0  0  0  0  0  0  0  0
  138.5815   76.4325  221.2609 H   0  0  0  0  0  0  0  0  0  0  0  0
  139.7707   78.0185  223.0288 H   0  0  0  0  0  0  0  0  0  0  0  0
  141.4850   77.5256  223.0246 H   0  0  0  0  0  0  0  0  0  0  0  0
  140.1893   80.0413  224.0078 H   0  0  0  0  0  0  0  0  0  0  0  0
  141.6645   79.1376  224.6031 H   0  0  0  0  0  0  0  0  0  0  0  0
  1  2  1  0
  2  3  1  0
  3  4  1  0
  4  5  1  0
  5  6  1  0
  6  7  1  0
  7  8  2  0
  8  9  1  0
  9 10  2  0
 10 11  1  0
 11 12  2  0
 11 13  1  0
 13 14  1  0
 14 15  1  0
 15 16  1  0
 16 17  1  0
 17 18  1  0
 18 19  1  0
 19 20  1  0
 13 21  1  0
 21 22  1  0
 22 23  2  0
 23 24  1  0
 24 25  2  0
 25 26  1  0
 26 27  2  0
 27 28  1  0
 28 29  2  0
 21 30  2  0
 30 31  1  0
 31 32  2  0
  5 33  1  0
 33 34  1  0
 34  2  1  0
 32  7  1  0
 31 10  1  0
 20 15  1  0
 29 24  1  0
  1 35  1  0
  1 36  1  0
  1 37  1  0
  3 38  1  0
  3 39  1  0
  4 40  1  0
  4 41  1  0
  6 42  1  0
  6 43  1  0
  8 44  1  0
  9 45  1  0
 14 46  1  0
 14 47  1  0
 15 48  1  0
 16 49  1  0
 16 50  1  0
 17 51  1  0
 17 52  1  0
 18 53  1  0
 18 54  1  0
 19 55  1  0
 19 56  1  0
 20 57  1  0
 20 58  1  0
 22 59  1  0
 23 60  1  0
 25 61  1  0
 26 62  1  0
 28 63  1  0
 29 64  1  0
 32 65  1  0
 33 66  1  0
 33 67  1  0
 34 68  1  0
 34 69  1  0
M  END
>  <smiles>  (11) 
CN1CCN(Cc2ccc3c(=O)n(CC4CCCCC4)c(/C=C/c4ccncc4)nc3c2)CC1

>  <score_type>  (11) 
oracle

>  <origin>  (11) 
autodockgpu

>  <m_score__min__energy>  (11) 
-8.7799999999999994

>  <m_primary>  (11) 
energy

>  <rmsd>  (11) 
8.642278226538211

>  <m_score__min__rmsd>  (11) 
8.642278226538211

>  <meeko>  (11) 
{"free_energy": -8.4, "intermolecular_energy": -10.49, "internal_energy": -1.7, "cluster_size": 24, "cluster_id": 2, "rank_in_cluster": 1}

>  <energy>  (11) 
-8.28

>  <cluster_rmsd>  (11) 
0.74

>  <cluster>  (11) 
2

$$$$

     RDKit          3D

 69 73  0  0  0  0  0  0  0  0999 V2000
  139.4820   80.4360  223.4660 C   0  0  0  0  0  0  0  0  0  0  0  0
  140.8610   80.7870  223.2800 N   0  0  0  0  0  0  0  0  0  0  0  0
  141.8060   79.8790  223.8520 C   0  0  0  0  0  0  0  0  0  0  0  0
  142.5460   79.1000  222.7580 C   0  0  0  0  0  0  0  0  0  0  0  0
  141.7030   78.9740  221.6210 N   0  0  0  0  0  0  0  0  0  0  0  0
  141.7720   77.7740  220.8850 C   0  0  0  0  0  0  0  0  0  0  0  0
  140.7220   76.7760  221.1170 C   0  0  0  0  0  0  0  0  0  0  0  0
  139.4050   77.0060  220.7760 C   0  0  0  0  0  0  0  0  0  0  0  0
  138.3960   76.0880  220.9830 C   0  0  0  0  0  0  0  0  0  0  0  0
  138.6930   74.8630  221.5620 C   0  0  0  0  0  0  0  0  0  0  0  0
  137.7240   73.9030  221.7960 C   0  0  0  0  0  0  0  0  0  0  0  0
  136.5540   74.2100  221.4460 O   0  0  0  0  0  0  0  0  0  0  0  0
  138.0220   72.6990  222.3670 N   0  0  0  0  0  0  0  0  0  0  0  0
  136.9650   71.7720  222.5860 C   0  0  0  0  0  0  0  0  0  0  0  0
  135.9540   72.0910  223.6200 C   0  0  0  0  0  0  0  0  0  0  0  0
  135.4830   70.8970  224.4270 C   0  0  0  0  0  0  0  0  0  0  0  0
  134.3950   71.2470  225.4110 C   0  0  0  0  0  0  0  0  0  0  0  0
  134.2970   72.7030  225.6980 C   0  0  0  0  0  0  0  0  0  0  0  0
  134.2140   73.5660  224.4890 C   0  0  0  0  0  0  0  0  0  0  0  0
  134.7690   72.8910  223.2210 C   0  0  0  0  0  0  0  0  0  0  0  0
  139.3140   72.5080  222.6840 C   0  0  0  0  0  0  0  0  0  0  0  0
  139.7610   71.2370  223.2440 C   0  0  0  0  0  0  0  0  0  0  0  0
  140.7070   71.1700  224.1610 C   0  0  0  0  0  0  0  0  0  0  0  0
  140.4740   70.9440  225.5750 C   0  0  0  0  0  0  0  0  0  0  0  0
  139.7730   69.8700  226.0790 C   0  0  0  0  0  0  0  0  0  0  0  0
  139.5710   69.6890  227.4330 C   0  0  0  0  0  0  0  0  0  0  0  0
  140.0850   70.6080  228.3010 N   0  0  0  0  0  0  0  0  0  0  0  0
  140.7740   71.6680  227.8560 C   0  0  0  0  0  0  0  0  0  0  0  0
  140.9720   71.8430  226.4960 C   0  0  0  0  0  0  0  0  0  0  0  0
  140.2750   73.4350  222.4650 N   0  0  0  0  0  0  0  0  0  0  0  0
  139.9910   74.6270  221.9020 C   0  0  0  0  0  0  0  0  0  0  0  0
  140.9930   75.5420  221.6960 C   0  0  0  0  0  0  0  0  0  0  0  0
  141.3460   80.1580  220.9390 C   0  0  0  0  0  0  0  0  0  0  0  0
  141.1980   81.2610  221.9730 C   0  0  0  0  0  0  0  0  0  0  0  0
  139.2599   80.3795  224.5419 H   0  0  0  0  0  0  0  0  0  0  0  0
  138.8430   81.2001  222.9994 H   0  0  0  0  0  0  0  0  0  0  0  0
  139.2861   79.4593  222.9994 H   0  0  0  0  0  0  0  0  0  0  0  0
  142.5366   80.4467  224.4470 H   0  0  0  0  0  0  0  0  0  0  0  0
  141.2654   79.1635  224.4891 H   0  0  0  0  0  0  0  0  0  0  0  0
  143.4626   79.6400  222.4781 H   0  0  0  0  0  0  0  0  0  0  0  0
  142.8124   78.1006  223.1325 H   0  0  0  0  0  0  0  0  0  0  0  0
  141.7440   78.0398  219.8180 H   0  0  0  0  0  0  0  0  0  0  0  0
  142.6992   77.2896  221.2249 H   0  0  0  0  0  0  0  0  0  0  0  0
  139.1461   77.9708  220.3154 H   0  0  0  0  0  0  0  0  0  0  0  0
  137.3626   76.3261  220.6907 H   0  0  0  0  0  0  0  0  0  0  0  0
  136.4298   71.6570  221.6319 H   0  0  0  0  0  0  0  0  0  0  0  0
  137.4685   70.8715  222.9676 H   0  0  0  0  0  0  0  0  0  0  0  0
  136.5665   72.7577  224.2447 H   0  0  0  0  0  0  0  0  0  0  0  0
  135.0977   70.1347  223.7339 H   0  0  0  0  0  0  0  0  0  0  0  0
  136.3438   70.5276  225.0037 H   0  0  0  0  0  0  0  0  0  0  0  0
  133.4325   70.9081  225.0002 H   0  0  0  0  0  0  0  0  0  0  0  0
  134.6447   70.7477  226.3588 H   0  0  0  0  0  0  0  0  0  0  0  0
  133.3953   72.8737  226.3045 H   0  0  0  0  0  0  0  0  0  0  0  0
  135.2249   72.9824  226.2186 H   0  0  0  0  0  0  0  0  0  0  0  0
  133.1587   73.8227  224.3147 H   0  0  0  0  0  0  0  0  0  0  0  0
  134.8303   74.4567  224.6809 H   0  0  0  0  0  0  0  0  0  0  0  0
  134.0043   72.2344  222.7804 H   0  0  0  0  0  0  0  0  0  0  0  0
  135.0477   73.6466  222.4717 H   0  0  0  0  0  0  0  0  0  0  0  0
  139.2946   70.3056  222.8905 H   0  0  0  0  0  0  0  0  0  0  0  0
  141.7484   71.2946  223.8293 H   0  0  0  0  0  0  0  0  0  0  0  0
  139.3595   69.1304  225.3776 H   0  0  0  0  0  0  0  0  0  0  0  0
  139.0068   68.8210  227.8046 H   0  0  0  0  0  0  0  0  0  0  0  0
  141.1820   72.3985  228.5701 H   0  0  0  0  0  0  0  0  0  0  0  0
  141.5383   72.7173  226.1427 H   0  0  0  0  0  0  0  0  0  0  0  0
  142.0231   75.2956  221.9928 H   0  0  0  0  0  0  0  0  0  0  0  0
  142.1311   80.4251  220.2163 H   0  0  0  0  0  0  0  0  0  0  0  0
  140.4036   80.0165  220.3897 H   0  0  0  0  0  0  0  0  0  0  0  0
  142.1512   81.8062  222.0371 H   0  0  0  0  0  0  0  0  0  0  0  0
  140.3676   81.9015  221.6410 H   0  0  0  0  0  0  0  0  0  0  0  0
  1  2  1  0
  2  3  1  0
  3  4  1  0
  4  5  1  0
  5  6  1  0
  6  7  1  0
  7  8  2  0
  8  9  1  0
  9 10  2  0
 10 11  1  0
 11 12  2  0
 11 13  1  0
 13 14  1  0
 14 15  1  0
 15 16  1  0
 16 17  1  0
 17 18  1  0
 18 19  1  0
 19 20  1  0
 13 21  1  0
 21 22  1  0
 22 23  2  0
 23 24  1  0
 24 25  2  0
 25 26  1  0
 26 27  2  0
 27 28  1  0
 28 29  2  0
 21 30  2  0
 30 31  1  0
 31 32  2  0
  5 33  1  0
 33 34  1  0
 34  2  1  0
 32  7  1  0
 31 10  1  0
 20 15  1  0
 29 24  1  0
  1 35  1  0
  1 36  1  0
  1 37  1  0
  3 38  1  0
  3 39  1  0
  4 40  1  0
  4 41  1  0
  6 42  1  0
  6 43  1  0
  8 44  1  0
  9 45  1  0
 14 46  1  0
 14 47  1  0
 15 48  1  0
 16 49  1  0
 16 50  1  0
 17 51  1  0
 17 52  1  0
 18 53  1  0
 18 54  1  0
 19 55  1  0
 19 56  1  0
 20 57  1  0
 20 58  1  0
 22 59  1  0
 23 60  1  0
 25 61  1  0
 26 62  1  0
 28 63  1  0
 29 64  1  0
 32 65  1  0
 33 66  1  0
 33 67  1  0
 34 68  1  0
 34 69  1  0
M  END
>  <smiles>  (12) 
CN1CCN(Cc2ccc3c(=O)n(CC4CCCCC4)c(/C=C/c4ccncc4)nc3c2)CC1

>  <score_type>  (12) 
oracle

>  <origin>  (12) 
autodockgpu

>  <m_score__min__energy>  (12) 
-8.7799999999999994

>  <m_primary>  (12) 
energy

>  <rmsd>  (12) 
8.178954651257515

>  <m_score__min__rmsd>  (12) 
8.178954651257515

>  <meeko>  (12) 
{"free_energy": -8.27, "intermolecular_energy": -10.36, "internal_energy": -1.73, "cluster_size": 11, "cluster_id": 3, "rank_in_cluster": 7}

>  <energy>  (12) 
-8.28

>  <cluster_rmsd>  (12) 
1.1

>  <cluster>  (12) 
2

$$$$

     RDKit          3D

 69 73  0  0  0  0  0  0  0  0999 V2000
  140.8860   67.9680  226.2070 C   0  0  0  0  0  0  0  0  0  0  0  0
  140.2550   69.2190  226.5140 N   0  0  0  0  0  0  0  0  0  0  0  0
  141.0060   70.3850  226.1600 C   0  0  0  0  0  0  0  0  0  0  0  0
  140.3600   71.1100  224.9740 C   0  0  0  0  0  0  0  0  0  0  0  0
  139.6680   70.1660  224.1670 N   0  0  0  0  0  0  0  0  0  0  0  0
  139.6820   70.3630  222.7720 C   0  0  0  0  0  0  0  0  0  0  0  0
  140.2720   71.6080  222.2690 C   0  0  0  0  0  0  0  0  0  0  0  0
  141.4860   71.6300  221.6110 C   0  0  0  0  0  0  0  0  0  0  0  0
  142.0660   72.7850  221.1280 C   0  0  0  0  0  0  0  0  0  0  0  0
  141.4190   73.9990  221.2990 C   0  0  0  0  0  0  0  0  0  0  0  0
  141.9510   75.1900  220.8380 C   0  0  0  0  0  0  0  0  0  0  0  0
  143.0610   75.1020  220.2490 O   0  0  0  0  0  0  0  0  0  0  0  0
  141.3100   76.3840  221.0090 N   0  0  0  0  0  0  0  0  0  0  0  0
  141.9330   77.5650  220.5180 C   0  0  0  0  0  0  0  0  0  0  0  0
  141.8750   77.8370  219.0630 C   0  0  0  0  0  0  0  0  0  0  0  0
  142.9440   77.1330  218.2500 C   0  0  0  0  0  0  0  0  0  0  0  0
  142.9040   77.4990  216.7880 C   0  0  0  0  0  0  0  0  0  0  0  0
  141.6180   78.1140  216.3620 C   0  0  0  0  0  0  0  0  0  0  0  0
  141.1710   79.2550  217.2060 C   0  0  0  0  0  0  0  0  0  0  0  0
  141.7920   79.2500  218.6150 C   0  0  0  0  0  0  0  0  0  0  0  0
  140.1310   76.3250  221.6500 C   0  0  0  0  0  0  0  0  0  0  0  0
  139.3270   77.5280  221.8380 C   0  0  0  0  0  0  0  0  0  0  0  0
  139.4920   78.3250  222.8770 C   0  0  0  0  0  0  0  0  0  0  0  0
  140.5500   79.3090  223.0040 C   0  0  0  0  0  0  0  0  0  0  0  0
  141.6900   79.1240  223.7540 C   0  0  0  0  0  0  0  0  0  0  0  0
  142.6760   80.0860  223.8520 C   0  0  0  0  0  0  0  0  0  0  0  0
  142.5130   81.2620  223.1790 N   0  0  0  0  0  0  0  0  0  0  0  0
  141.4200   81.4870  222.4360 C   0  0  0  0  0  0  0  0  0  0  0  0
  140.4340   80.5160  222.3440 C   0  0  0  0  0  0  0  0  0  0  0  0
  139.5950   75.1710  222.1100 N   0  0  0  0  0  0  0  0  0  0  0  0
  140.2200   73.9870  221.9470 C   0  0  0  0  0  0  0  0  0  0  0  0
  139.6450   72.8380  222.4260 C   0  0  0  0  0  0  0  0  0  0  0  0
  138.5590   69.5070  224.7400 C   0  0  0  0  0  0  0  0  0  0  0  0
  138.8590   69.2890  226.2130 C   0  0  0  0  0  0  0  0  0  0  0  0
  141.1473   67.4500  227.1416 H   0  0  0  0  0  0  0  0  0  0  0  0
  140.1954   67.3428  225.6220 H   0  0  0  0  0  0  0  0  0  0  0  0
  141.7992   68.1518  225.6220 H   0  0  0  0  0  0  0  0  0  0  0  0
  141.0420   71.0663  227.0228 H   0  0  0  0  0  0  0  0  0  0  0  0
  142.0220   70.0760  225.8731 H   0  0  0  0  0  0  0  0  0  0  0  0
  139.6515   71.8646  225.3462 H   0  0  0  0  0  0  0  0  0  0  0  0
  141.1391   71.6053  224.3760 H   0  0  0  0  0  0  0  0  0  0  0  0
  140.2445   69.5288  222.3273 H   0  0  0  0  0  0  0  0  0  0  0  0
  138.6212   70.4209  222.4869 H   0  0  0  0  0  0  0  0  0  0  0  0
  142.0176   70.6782  221.4645 H   0  0  0  0  0  0  0  0  0  0  0  0
  143.0357   72.7428  220.6105 H   0  0  0  0  0  0  0  0  0  0  0  0
  141.4613   78.4180  221.0278 H   0  0  0  0  0  0  0  0  0  0  0  0
  143.0029   77.4127  220.7231 H   0  0  0  0  0  0  0  0  0  0  0  0
  140.8867   77.4007  218.8558 H   0  0  0  0  0  0  0  0  0  0  0  0
  143.9298   77.4072  218.6538 H   0  0  0  0  0  0  0  0  0  0  0  0
  142.7578   76.0515  218.3252 H   0  0  0  0  0  0  0  0  0  0  0  0
  143.7150   78.2143  216.5865 H   0  0  0  0  0  0  0  0  0  0  0  0
  143.0185   76.5647  216.2188 H   0  0  0  0  0  0  0  0  0  0  0  0
  141.7351   78.4753  215.3296 H   0  0  0  0  0  0  0  0  0  0  0  0
  140.8498   77.3327  216.4593 H   0  0  0  0  0  0  0  0  0  0  0  0
  141.4525   80.1922  216.7036 H   0  0  0  0  0  0  0  0  0  0  0  0
  140.0819   79.1620  217.3295 H   0  0  0  0  0  0  0  0  0  0  0  0
  142.7982   79.6933  218.5832 H   0  0  0  0  0  0  0  0  0  0  0  0
  141.1777   79.8407  219.3104 H   0  0  0  0  0  0  0  0  0  0  0  0
  138.5596   77.7784  221.0907 H   0  0  0  0  0  0  0  0  0  0  0  0
  138.7752   78.2366  223.7067 H   0  0  0  0  0  0  0  0  0  0  0  0
  141.8201   78.1751  224.2949 H   0  0  0  0  0  0  0  0  0  0  0  0
  143.5749   79.9079  224.4605 H   0  0  0  0  0  0  0  0  0  0  0  0
  141.3053   82.4407  221.9000 H   0  0  0  0  0  0  0  0  0  0  0  0
  139.5409   80.7117  221.7324 H   0  0  0  0  0  0  0  0  0  0  0  0
  138.6746   72.8907  222.9413 H   0  0  0  0  0  0  0  0  0  0  0  0
  137.6571   70.1270  224.6295 H   0  0  0  0  0  0  0  0  0  0  0  0
  138.3819   68.5447  224.2373 H   0  0  0  0  0  0  0  0  0  0  0  0
  138.4229   70.1228  226.7827 H   0  0  0  0  0  0  0  0  0  0  0  0
  138.4231   68.3172  226.4880 H   0  0  0  0  0  0  0  0  0  0  0  0
  1  2  1  0
  2  3  1  0
  3  4  1  0
  4  5  1  0
  5  6  1  0
  6  7  1  0
  7  8  2  0
  8  9  1  0
  9 10  2  0
 10 11  1  0
 11 12  2  0
 11 13  1  0
 13 14  1  0
 14 15  1  0
 15 16  1  0
 16 17  1  0
 17 18  1  0
 18 19  1  0
 19 20  1  0
 13 21  1  0
 21 22  1  0
 22 23  2  0
 23 24  1  0
 24 25  2  0
 25 26  1  0
 26 27  2  0
 27 28  1  0
 28 29  2  0
 21 30  2  0
 30 31  1  0
 31 32  2  0
  5 33  1  0
 33 34  1  0
 34  2  1  0
 32  7  1  0
 31 10  1  0
 20 15  1  0
 29 24  1  0
  1 35  1  0
  1 36  1  0
  1 37  1  0
  3 38  1  0
  3 39  1  0
  4 40  1  0
  4 41  1  0
  6 42  1  0
  6 43  1  0
  8 44  1  0
  9 45  1  0
 14 46  1  0
 14 47  1  0
 15 48  1  0
 16 49  1  0
 16 50  1  0
 17 51  1  0
 17 52  1  0
 18 53  1  0
 18 54  1  0
 19 55  1  0
 19 56  1  0
 20 57  1  0
 20 58  1  0
 22 59  1  0
 23 60  1  0
 25 61  1  0
 26 62  1  0
 28 63  1  0
 29 64  1  0
 32 65  1  0
 33 66  1  0
 33 67  1  0
 34 68  1  0
 34 69  1  0
M  END
>  <smiles>  (13) 
CN1CCN(Cc2ccc3c(=O)n(CC4CCCCC4)c(/C=C/c4ccncc4)nc3c2)CC1

>  <score_type>  (13) 
oracle

>  <origin>  (13) 
autodockgpu

>  <m_score__min__energy>  (13) 
-8.7799999999999994

>  <m_primary>  (13) 
energy

>  <rmsd>  (13) 
6.6970224688589

>  <m_score__min__rmsd>  (13) 
6.6970224688589

>  <meeko>  (13) 
{"free_energy": -8.07, "intermolecular_energy": -10.15, "internal_energy": -1.87, "cluster_size": 8, "cluster_id": 5, "rank_in_cluster": 1}

>  <energy>  (13) 
-8.26

>  <cluster_rmsd>  (13) 
1.27

>  <cluster>  (13) 
2

$$$$

     RDKit          3D

 69 73  0  0  0  0  0  0  0  0999 V2000
  142.9870   79.7750  222.7940 C   0  0  0  0  0  0  0  0  0  0  0  0
  142.2390   80.9980  222.7320 N   0  0  0  0  0  0  0  0  0  0  0  0
  141.6740   81.3050  221.4550 C   0  0  0  0  0  0  0  0  0  0  0  0
  140.1480   81.1510  221.4810 C   0  0  0  0  0  0  0  0  0  0  0  0
  139.7930   80.1700  222.4470 N   0  0  0  0  0  0  0  0  0  0  0  0
  138.6990   79.3310  222.1540 C   0  0  0  0  0  0  0  0  0  0  0  0
  138.9360   77.8830  222.1540 C   0  0  0  0  0  0  0  0  0  0  0  0
  140.2040   77.3490  222.0520 C   0  0  0  0  0  0  0  0  0  0  0  0
  140.4580   75.9930  222.0480 C   0  0  0  0  0  0  0  0  0  0  0  0
  139.4030   75.0990  222.1510 C   0  0  0  0  0  0  0  0  0  0  0  0
  139.5940   73.7280  222.1510 C   0  0  0  0  0  0  0  0  0  0  0  0
  140.7890   73.3430  222.0550 O   0  0  0  0  0  0  0  0  0  0  0  0
  138.5520   72.8520  222.2510 N   0  0  0  0  0  0  0  0  0  0  0  0
  138.8330   71.4570  222.2300 C   0  0  0  0  0  0  0  0  0  0  0  0
  139.1140   70.7770  223.5150 C   0  0  0  0  0  0  0  0  0  0  0  0
  140.3000   71.3360  224.2750 C   0  0  0  0  0  0  0  0  0  0  0  0
  140.6030   70.5650  225.5360 C   0  0  0  0  0  0  0  0  0  0  0  0
  139.4770   69.7130  225.9990 C   0  0  0  0  0  0  0  0  0  0  0  0
  138.9110   68.8160  224.9550 C   0  0  0  0  0  0  0  0  0  0  0  0
  139.2020   69.2950  223.5200 C   0  0  0  0  0  0  0  0  0  0  0  0
  137.3320   73.4060  222.3520 C   0  0  0  0  0  0  0  0  0  0  0  0
  136.1490   72.5710  222.5250 C   0  0  0  0  0  0  0  0  0  0  0  0
  135.7540   72.1540  223.7130 C   0  0  0  0  0  0  0  0  0  0  0  0
  135.0380   72.9660  224.6780 C   0  0  0  0  0  0  0  0  0  0  0  0
  135.1950   74.3280  224.8080 C   0  0  0  0  0  0  0  0  0  0  0  0
  134.4950   75.0680  225.7400 C   0  0  0  0  0  0  0  0  0  0  0  0
  133.6160   74.4240  226.5620 N   0  0  0  0  0  0  0  0  0  0  0  0
  133.4300   73.1000  226.4710 C   0  0  0  0  0  0  0  0  0  0  0  0
  134.1360   72.3640  225.5330 C   0  0  0  0  0  0  0  0  0  0  0  0
  137.1250   74.7440  222.3520 N   0  0  0  0  0  0  0  0  0  0  0  0
  138.1470   75.6180  222.2520 C   0  0  0  0  0  0  0  0  0  0  0  0
  137.8970   76.9670  222.2560 C   0  0  0  0  0  0  0  0  0  0  0  0
  140.0780   80.4540  223.8000 C   0  0  0  0  0  0  0  0  0  0  0  0
  141.3750   81.2420  223.8460 C   0  0  0  0  0  0  0  0  0  0  0  0
  143.1547   79.5007  223.8460 H   0  0  0  0  0  0  0  0  0  0  0  0
  142.4236   78.9748  222.2918 H   0  0  0  0  0  0  0  0  0  0  0  0
  143.9560   79.9120  222.2918 H   0  0  0  0  0  0  0  0  0  0  0  0
  141.9270   82.3419  221.1890 H   0  0  0  0  0  0  0  0  0  0  0  0
  142.0854   80.6066  220.7113 H   0  0  0  0  0  0  0  0  0  0  0  0
  139.6857   82.1131  221.7468 H   0  0  0  0  0  0  0  0  0  0  0  0
  139.7914   80.8381  220.4886 H   0  0  0  0  0  0  0  0  0  0  0  0
  137.9171   79.5368  222.8998 H   0  0  0  0  0  0  0  0  0  0  0  0
  138.4327   79.5711  221.1141 H   0  0  0  0  0  0  0  0  0  0  0  0
  141.0561   78.0398  221.9696 H   0  0  0  0  0  0  0  0  0  0  0  0
  141.4906   75.6234  221.9637 H   0  0  0  0  0  0  0  0  0  0  0  0
  137.9627   70.9565  221.7804 H   0  0  0  0  0  0  0  0  0  0  0  0
  139.7767   71.3791  221.6702 H   0  0  0  0  0  0  0  0  0  0  0  0
  138.1769   71.0215  224.0366 H   0  0  0  0  0  0  0  0  0  0  0  0
  141.1840   71.3018  223.6213 H   0  0  0  0  0  0  0  0  0  0  0  0
  140.0492   72.3659  224.5689 H   0  0  0  0  0  0  0  0  0  0  0  0
  141.4731   69.9189  225.3476 H   0  0  0  0  0  0  0  0  0  0  0  0
  140.7938   71.3046  226.3276 H   0  0  0  0  0  0  0  0  0  0  0  0
  139.8379   69.0885  226.8295 H   0  0  0  0  0  0  0  0  0  0  0  0
  138.6683   70.3975  226.2948 H   0  0  0  0  0  0  0  0  0  0  0  0
  139.3444   67.8132  225.0834 H   0  0  0  0  0  0  0  0  0  0  0  0
  137.8185   68.8138  225.0835 H   0  0  0  0  0  0  0  0  0  0  0  0
  140.2106   68.9781  223.2161 H   0  0  0  0  0  0  0  0  0  0  0  0
  138.4777   68.8626  222.8140 H   0  0  0  0  0  0  0  0  0  0  0  0
  135.5679   72.2797  221.6376 H   0  0  0  0  0  0  0  0  0  0  0  0
  135.9845   71.1151  223.9916 H   0  0  0  0  0  0  0  0  0  0  0  0
  135.9041   74.8453  224.1450 H   0  0  0  0  0  0  0  0  0  0  0  0
  134.6428   76.1552  225.8186 H   0  0  0  0  0  0  0  0  0  0  0  0
  132.7168   72.5975  227.1410 H   0  0  0  0  0  0  0  0  0  0  0  0
  133.9747   71.2778  225.4681 H   0  0  0  0  0  0  0  0  0  0  0  0
  136.8612   77.3274  222.3410 H   0  0  0  0  0  0  0  0  0  0  0  0
  139.2628   81.0494  224.2371 H   0  0  0  0  0  0  0  0  0  0  0  0
  140.1743   79.5219  224.3761 H   0  0  0  0  0  0  0  0  0  0  0  0
  141.1290   82.3139  223.8657 H   0  0  0  0  0  0  0  0  0  0  0  0
  141.9153   80.9172  224.7475 H   0  0  0  0  0  0  0  0  0  0  0  0
  1  2  1  0
  2  3  1  0
  3  4  1  0
  4  5  1  0
  5  6  1  0
  6  7  1  0
  7  8  2  0
  8  9  1  0
  9 10  2  0
 10 11  1  0
 11 12  2  0
 11 13  1  0
 13 14  1  0
 14 15  1  0
 15 16  1  0
 16 17  1  0
 17 18  1  0
 18 19  1  0
 19 20  1  0
 13 21  1  0
 21 22  1  0
 22 23  2  0
 23 24  1  0
 24 25  2  0
 25 26  1  0
 26 27  2  0
 27 28  1  0
 28 29  2  0
 21 30  2  0
 30 31  1  0
 31 32  2  0
  5 33  1  0
 33 34  1  0
 34  2  1  0
 32  7  1  0
 31 10  1  0
 20 15  1  0
 29 24  1  0
  1 35  1  0
  1 36  1  0
  1 37  1  0
  3 38  1  0
  3 39  1  0
  4 40  1  0
  4 41  1  0
  6 42  1  0
  6 43  1  0
  8 44  1  0
  9 45  1  0
 14 46  1  0
 14 47  1  0
 15 48  1  0
 16 49  1  0
 16 50  1  0
 17 51  1  0
 17 52  1  0
 18 53  1  0
 18 54  1  0
 19 55  1  0
 19 56  1  0
 20 57  1  0
 20 58  1  0
 22 59  1  0
 23 60  1  0
 25 61  1  0
 26 62  1  0
 28 63  1  0
 29 64  1  0
 32 65  1  0
 33 66  1  0
 33 67  1  0
 34 68  1  0
 34 69  1  0
M  END
>  <smiles>  (14) 
CN1CCN(Cc2ccc3c(=O)n(CC4CCCCC4)c(/C=C/c4ccncc4)nc3c2)CC1

>  <score_type>  (14) 
oracle

>  <origin>  (14) 
autodockgpu

>  <m_score__min__energy>  (14) 
-8.7799999999999994

>  <m_primary>  (14) 
energy

>  <rmsd>  (14) 
7.28401052021551

>  <m_score__min__rmsd>  (14) 
7.28401052021551

>  <meeko>  (14) 
{"free_energy": -8.28, "intermolecular_energy": -10.37, "internal_energy": -1.94, "cluster_size": 24, "cluster_id": 2, "rank_in_cluster": 7}

>  <energy>  (14) 
-8.24

>  <cluster_rmsd>  (14) 
1.24

>  <cluster>  (14) 
2

$$$$

     RDKit          3D

 69 73  0  0  0  0  0  0  0  0999 V2000
  143.2430   80.5660  223.7280 C   0  0  0  0  0  0  0  0  0  0  0  0
  141.9220   80.8720  223.2600 N   0  0  0  0  0  0  0  0  0  0  0  0
  141.8180   81.1470  221.8590 C   0  0  0  0  0  0  0  0  0  0  0  0
  141.0920   80.0080  221.1320 C   0  0  0  0  0  0  0  0  0  0  0  0
  141.3140   78.7900  221.8300 N   0  0  0  0  0  0  0  0  0  0  0  0
  141.4570   77.6150  221.0650 C   0  0  0  0  0  0  0  0  0  0  0  0
  140.4840   76.5390  221.2860 C   0  0  0  0  0  0  0  0  0  0  0  0
  139.1450   76.6900  220.9850 C   0  0  0  0  0  0  0  0  0  0  0  0
  138.2070   75.6980  221.1830 C   0  0  0  0  0  0  0  0  0  0  0  0
  138.6020   74.4770  221.7090 C   0  0  0  0  0  0  0  0  0  0  0  0
  137.7070   73.4450  221.9310 C   0  0  0  0  0  0  0  0  0  0  0  0
  136.5100   73.6830  221.6210 O   0  0  0  0  0  0  0  0  0  0  0  0
  138.1010   72.2450  222.4510 N   0  0  0  0  0  0  0  0  0  0  0  0
  137.1160   71.2410  222.6620 C   0  0  0  0  0  0  0  0  0  0  0  0
  136.0740   71.4820  223.6870 C   0  0  0  0  0  0  0  0  0  0  0  0
  135.7990   70.2980  224.5920 C   0  0  0  0  0  0  0  0  0  0  0  0
  134.6780   70.5540  225.5670 C   0  0  0  0  0  0  0  0  0  0  0  0
  134.3570   71.9960  225.7420 C   0  0  0  0  0  0  0  0  0  0  0  0
  134.1330   72.7360  224.4710 C   0  0  0  0  0  0  0  0  0  0  0  0
  134.7770   72.0560  223.2490 C   0  0  0  0  0  0  0  0  0  0  0  0
  139.4110   72.1330  222.7290 C   0  0  0  0  0  0  0  0  0  0  0  0
  139.9580   70.8770  223.2320 C   0  0  0  0  0  0  0  0  0  0  0  0
  139.5740   70.3560  224.3820 C   0  0  0  0  0  0  0  0  0  0  0  0
  140.0800   70.7580  225.6800 C   0  0  0  0  0  0  0  0  0  0  0  0
  140.8940   71.8500  225.8870 C   0  0  0  0  0  0  0  0  0  0  0  0
  141.3570   72.2010  227.1400 C   0  0  0  0  0  0  0  0  0  0  0  0
  140.9930   71.4370  228.2110 N   0  0  0  0  0  0  0  0  0  0  0  0
  140.2020   70.3660  228.0570 C   0  0  0  0  0  0  0  0  0  0  0  0
  139.7420   70.0200  226.7970 C   0  0  0  0  0  0  0  0  0  0  0  0
  140.3010   73.1300  222.5200 N   0  0  0  0  0  0  0  0  0  0  0  0
  139.9220   74.3200  222.0090 C   0  0  0  0  0  0  0  0  0  0  0  0
  140.8530   75.3080  221.8120 C   0  0  0  0  0  0  0  0  0  0  0  0
  140.7870   78.6800  223.1350 C   0  0  0  0  0  0  0  0  0  0  0  0
  140.8800   80.0480  223.7890 C   0  0  0  0  0  0  0  0  0  0  0  0
  143.2510   80.5641  224.8280 H   0  0  0  0  0  0  0  0  0  0  0  0
  143.5428   79.5746  223.3575 H   0  0  0  0  0  0  0  0  0  0  0  0
  143.9482   81.3246  223.3575 H   0  0  0  0  0  0  0  0  0  0  0  0
  141.2563   82.0819  221.7158 H   0  0  0  0  0  0  0  0  0  0  0  0
  142.8316   81.2413  221.4423 H   0  0  0  0  0  0  0  0  0  0  0  0
  140.0134   80.2215  221.0989 H   0  0  0  0  0  0  0  0  0  0  0  0
  141.4774   79.9206  220.1055 H   0  0  0  0  0  0  0  0  0  0  0  0
  141.3949   77.9025  220.0051 H   0  0  0  0  0  0  0  0  0  0  0  0
  142.4208   77.1902  221.3822 H   0  0  0  0  0  0  0  0  0  0  0  0
  138.8091   77.6500  220.5661 H   0  0  0  0  0  0  0  0  0  0  0  0
  137.1523   75.8743  220.9253 H   0  0  0  0  0  0  0  0  0  0  0  0
  136.5996   71.0852  221.7033 H   0  0  0  0  0  0  0  0  0  0  0  0
  137.6835   70.3820  223.0495 H   0  0  0  0  0  0  0  0  0  0  0  0
  136.5794   72.2826  224.2470 H   0  0  0  0  0  0  0  0  0  0  0  0
  135.5304   69.4334  223.9672 H   0  0  0  0  0  0  0  0  0  0  0  0
  136.7108   70.1113  225.1783 H   0  0  0  0  0  0  0  0  0  0  0  0
  133.7766   70.0390  225.2033 H   0  0  0  0  0  0  0  0  0  0  0  0
  135.0099   70.1769  226.5456 H   0  0  0  0  0  0  0  0  0  0  0  0
  133.4438   72.0735  226.3504 H   0  0  0  0  0  0  0  0  0  0  0  0
  135.2334   72.4560  226.2220 H   0  0  0  0  0  0  0  0  0  0  0  0
  133.0494   72.8121  224.2975 H   0  0  0  0  0  0  0  0  0  0  0  0
  134.6054   73.7233  224.5811 H   0  0  0  0  0  0  0  0  0  0  0  0
  134.1202   71.2568  222.8749 H   0  0  0  0  0  0  0  0  0  0  0  0
  134.9303   72.7833  222.4381 H   0  0  0  0  0  0  0  0  0  0  0  0
  140.7143   70.3479  222.6336 H   0  0  0  0  0  0  0  0  0  0  0  0
  138.8157   69.5597  224.3539 H   0  0  0  0  0  0  0  0  0  0  0  0
  141.1858   72.4648  225.0228 H   0  0  0  0  0  0  0  0  0  0  0  0
  142.0063   73.0790  227.2723 H   0  0  0  0  0  0  0  0  0  0  0  0
  139.9181   69.7617  228.9312 H   0  0  0  0  0  0  0  0  0  0  0  0
  139.0937   69.1386  226.6839 H   0  0  0  0  0  0  0  0  0  0  0  0
  141.9052   75.1228  222.0740 H   0  0  0  0  0  0  0  0  0  0  0  0
  139.7362   78.3579  223.0885 H   0  0  0  0  0  0  0  0  0  0  0  0
  141.3517   77.9364  223.7165 H   0  0  0  0  0  0  0  0  0  0  0  0
  139.9209   80.5670  223.6450 H   0  0  0  0  0  0  0  0  0  0  0  0
  141.1131   79.8798  224.8508 H   0  0  0  0  0  0  0  0  0  0  0  0
  1  2  1  0
  2  3  1  0
  3  4  1  0
  4  5  1  0
  5  6  1  0
  6  7  1  0
  7  8  2  0
  8  9  1  0
  9 10  2  0
 10 11  1  0
 11 12  2  0
 11 13  1  0
 13 14  1  0
 14 15  1  0
 15 16  1  0
 16 17  1  0
 17 18  1  0
 18 19  1  0
 19 20  1  0
 13 21  1  0
 21 22  1  0
 22 23  2  0
 23 24  1  0
 24 25  2  0
 25 26  1  0
 26 27  2  0
 27 28  1  0
 28 29  2  0
 21 30  2  0
 30 31  1  0
 31 32  2  0
  5 33  1  0
 33 34  1  0
 34  2  1  0
 32  7  1  0
 31 10  1  0
 20 15  1  0
 29 24  1  0
  1 35  1  0
  1 36  1  0
  1 37  1  0
  3 38  1  0
  3 39  1  0
  4 40  1  0
  4 41  1  0
  6 42  1  0
  6 43  1  0
  8 44  1  0
  9 45  1  0
 14 46  1  0
 14 47  1  0
 15 48  1  0
 16 49  1  0
 16 50  1  0
 17 51  1  0
 17 52  1  0
 18 53  1  0
 18 54  1  0
 19 55  1  0
 19 56  1  0
 20 57  1  0
 20 58  1  0
 22 59  1  0
 23 60  1  0
 25 61  1  0
 26 62  1  0
 28 63  1  0
 29 64  1  0
 32 65  1  0
 33 66  1  0
 33 67  1  0
 34 68  1  0
 34 69  1  0
M  END
>  <smiles>  (15) 
CN1CCN(Cc2ccc3c(=O)n(CC4CCCCC4)c(/C=C/c4ccncc4)nc3c2)CC1

>  <score_type>  (15) 
oracle

>  <origin>  (15) 
autodockgpu

>  <m_score__min__energy>  (15) 
-8.7799999999999994

>  <m_primary>  (15) 
energy

>  <rmsd>  (15) 
8.46729911096164

>  <m_score__min__rmsd>  (15) 
8.46729911096164

>  <meeko>  (15) 
{"free_energy": -8.34, "intermolecular_energy": -10.43, "internal_energy": -1.76, "cluster_size": 11, "cluster_id": 3, "rank_in_cluster": 3}

>  <energy>  (15) 
-8.23

>  <cluster_rmsd>  (15) 
0.58

>  <cluster>  (15) 
2

$$$$

     RDKit          3D

 69 73  0  0  0  0  0  0  0  0999 V2000
  143.0040   79.7560  222.7580 C   0  0  0  0  0  0  0  0  0  0  0  0
  142.2680   80.9850  222.6760 N   0  0  0  0  0  0  0  0  0  0  0  0
  141.6830   81.2630  221.4000 C   0  0  0  0  0  0  0  0  0  0  0  0
  140.1560   81.1260  221.4580 C   0  0  0  0  0  0  0  0  0  0  0  0
  139.8080   80.1770  222.4570 N   0  0  0  0  0  0  0  0  0  0  0  0
  138.7000   79.3420  222.2080 C   0  0  0  0  0  0  0  0  0  0  0  0
  138.9320   77.8930  222.1940 C   0  0  0  0  0  0  0  0  0  0  0  0
  140.2000   77.3560  222.0970 C   0  0  0  0  0  0  0  0  0  0  0  0
  140.4490   75.9990  222.0800 C   0  0  0  0  0  0  0  0  0  0  0  0
  139.3900   75.1070  222.1640 C   0  0  0  0  0  0  0  0  0  0  0  0
  139.5770   73.7360  222.1510 C   0  0  0  0  0  0  0  0  0  0  0  0
  140.7710   73.3480  222.0620 O   0  0  0  0  0  0  0  0  0  0  0  0
  138.5300   72.8620  222.2330 N   0  0  0  0  0  0  0  0  0  0  0  0
  138.8070   71.4670  222.1980 C   0  0  0  0  0  0  0  0  0  0  0  0
  139.0620   70.7690  223.4790 C   0  0  0  0  0  0  0  0  0  0  0  0
  140.2220   71.3280  224.2790 C   0  0  0  0  0  0  0  0  0  0  0  0
  140.5010   70.5410  225.5350 C   0  0  0  0  0  0  0  0  0  0  0  0
  139.3720   69.6690  225.9550 C   0  0  0  0  0  0  0  0  0  0  0  0
  138.8430   68.7840  224.8830 C   0  0  0  0  0  0  0  0  0  0  0  0
  139.1660   69.2880  223.4640 C   0  0  0  0  0  0  0  0  0  0  0  0
  137.3120   73.4200  222.3290 C   0  0  0  0  0  0  0  0  0  0  0  0
  136.1240   72.5870  222.4830 C   0  0  0  0  0  0  0  0  0  0  0  0
  135.7290   72.1410  223.6590 C   0  0  0  0  0  0  0  0  0  0  0  0
  135.0090   72.9280  224.6420 C   0  0  0  0  0  0  0  0  0  0  0  0
  135.1270   74.2940  224.7740 C   0  0  0  0  0  0  0  0  0  0  0  0
  134.4240   75.0090  225.7240 C   0  0  0  0  0  0  0  0  0  0  0  0
  133.5830   74.3360  226.5610 N   0  0  0  0  0  0  0  0  0  0  0  0
  133.4360   73.0070  226.4690 C   0  0  0  0  0  0  0  0  0  0  0  0
  134.1440   72.2960  225.5140 C   0  0  0  0  0  0  0  0  0  0  0  0
  137.1090   74.7580  222.3420 N   0  0  0  0  0  0  0  0  0  0  0  0
  138.1350   75.6290  222.2600 C   0  0  0  0  0  0  0  0  0  0  0  0
  137.8890   76.9790  222.2770 C   0  0  0  0  0  0  0  0  0  0  0  0
  140.1200   80.4950  223.7970 C   0  0  0  0  0  0  0  0  0  0  0  0
  141.4270   81.2690  223.7970 C   0  0  0  0  0  0  0  0  0  0  0  0
  143.1616   79.4928  223.8143 H   0  0  0  0  0  0  0  0  0  0  0  0
  142.4368   78.9551  222.2613 H   0  0  0  0  0  0  0  0  0  0  0  0
  143.9778   79.8780  222.2613 H   0  0  0  0  0  0  0  0  0  0  0  0
  141.9417   82.2894  221.1008 H   0  0  0  0  0  0  0  0  0  0  0  0
  142.0738   80.5404  220.6685 H   0  0  0  0  0  0  0  0  0  0  0  0
  139.7086   82.1002  221.7046 H   0  0  0  0  0  0  0  0  0  0  0  0
  139.7786   80.7887  220.4814 H   0  0  0  0  0  0  0  0  0  0  0  0
  137.9508   79.5480  222.9866 H   0  0  0  0  0  0  0  0  0  0  0  0
  138.3911   79.5858  221.1808 H   0  0  0  0  0  0  0  0  0  0  0  0
  141.0551   78.0447  222.0299 H   0  0  0  0  0  0  0  0  0  0  0  0
  141.4810   75.6268  222.0003 H   0  0  0  0  0  0  0  0  0  0  0  0
  137.9438   70.9754  221.7256 H   0  0  0  0  0  0  0  0  0  0  0  0
  139.7605   71.3934  221.6545 H   0  0  0  0  0  0  0  0  0  0  0  0
  138.1085   70.9954  223.9785 H   0  0  0  0  0  0  0  0  0  0  0  0
  141.1230   71.3135  223.6481 H   0  0  0  0  0  0  0  0  0  0  0  0
  139.9518   72.3502  224.5827 H   0  0  0  0  0  0  0  0  0  0  0  0
  141.3830   69.9075  225.3596 H   0  0  0  0  0  0  0  0  0  0  0  0
  140.6631   71.2699  226.3428 H   0  0  0  0  0  0  0  0  0  0  0  0
  139.7182   69.0346  226.7843 H   0  0  0  0  0  0  0  0  0  0  0  0
  138.5486   70.3400  226.2408 H   0  0  0  0  0  0  0  0  0  0  0  0
  139.2831   67.7835  225.0070 H   0  0  0  0  0  0  0  0  0  0  0  0
  137.7476   68.7695  224.9827 H   0  0  0  0  0  0  0  0  0  0  0  0
  140.1855   68.9864  223.1819 H   0  0  0  0  0  0  0  0  0  0  0  0
  138.4651   68.8589  222.7328 H   0  0  0  0  0  0  0  0  0  0  0  0
  135.5394   72.3228  221.5895 H   0  0  0  0  0  0  0  0  0  0  0  0
  135.9623   71.0965  223.9132 H   0  0  0  0  0  0  0  0  0  0  0  0
  135.8057   74.8351  224.0983 H   0  0  0  0  0  0  0  0  0  0  0  0
  134.5401   76.0999  225.8040 H   0  0  0  0  0  0  0  0  0  0  0  0
  132.7530   72.4807  227.1520 H   0  0  0  0  0  0  0  0  0  0  0  0
  134.0147   71.2056  225.4487 H   0  0  0  0  0  0  0  0  0  0  0  0
  136.8537   77.3417  222.3573 H   0  0  0  0  0  0  0  0  0  0  0  0
  139.3196   81.1118  224.2315 H   0  0  0  0  0  0  0  0  0  0  0  0
  140.2156   79.5785  224.3977 H   0  0  0  0  0  0  0  0  0  0  0  0
  141.1931   82.3438  223.7911 H   0  0  0  0  0  0  0  0  0  0  0  0
  141.9800   80.9623  224.6971 H   0  0  0  0  0  0  0  0  0  0  0  0
  1  2  1  0
  2  3  1  0
  3  4  1  0
  4  5  1  0
  5  6  1  0
  6  7  1  0
  7  8  2  0
  8  9  1  0
  9 10  2  0
 10 11  1  0
 11 12  2  0
 11 13  1  0
 13 14  1  0
 14 15  1  0
 15 16  1  0
 16 17  1  0
 17 18  1  0
 18 19  1  0
 19 20  1  0
 13 21  1  0
 21 22  1  0
 22 23  2  0
 23 24  1  0
 24 25  2  0
 25 26  1  0
 26 27  2  0
 27 28  1  0
 28 29  2  0
 21 30  2  0
 30 31  1  0
 31 32  2  0
  5 33  1  0
 33 34  1  0
 34  2  1  0
 32  7  1  0
 31 10  1  0
 20 15  1  0
 29 24  1  0
  1 35  1  0
  1 36  1  0
  1 37  1  0
  3 38  1  0
  3 39  1  0
  4 40  1  0
  4 41  1  0
  6 42  1  0
  6 43  1  0
  8 44  1  0
  9 45  1  0
 14 46  1  0
 14 47  1  0
 15 48  1  0
 16 49  1  0
 16 50  1  0
 17 51  1  0
 17 52  1  0
 18 53  1  0
 18 54  1  0
 19 55  1  0
 19 56  1  0
 20 57  1  0
 20 58  1  0
 22 59  1  0
 23 60  1  0
 25 61  1  0
 26 62  1  0
 28 63  1  0
 29 64  1  0
 32 65  1  0
 33 66  1  0
 33 67  1  0
 34 68  1  0
 34 69  1  0
M  END
>  <smiles>  (16) 
CN1CCN(Cc2ccc3c(=O)n(CC4CCCCC4)c(/C=C/c4ccncc4)nc3c2)CC1

>  <score_type>  (16) 
oracle

>  <origin>  (16) 
autodockgpu

>  <m_score__min__energy>  (16) 
-8.7799999999999994

>  <m_primary>  (16) 
energy

>  <rmsd>  (16) 
7.286117795804336

>  <m_score__min__rmsd>  (16) 
7.286117795804336

>  <meeko>  (16) 
{"free_energy": -8.28, "intermolecular_energy": -10.37, "internal_energy": -1.95, "cluster_size": 24, "cluster_id": 2, "rank_in_cluster": 6}

>  <energy>  (16) 
-8.2

>  <cluster_rmsd>  (16) 
0.85

>  <cluster>  (16) 
2

$$$$

     RDKit          3D

 69 73  0  0  0  0  0  0  0  0999 V2000
  142.6770   79.7750  222.8800 C   0  0  0  0  0  0  0  0  0  0  0  0
  141.8070   80.9120  222.7980 N   0  0  0  0  0  0  0  0  0  0  0  0
  141.4320   81.3020  221.4740 C   0  0  0  0  0  0  0  0  0  0  0  0
  139.9550   80.9880  221.2090 C   0  0  0  0  0  0  0  0  0  0  0  0
  139.5640   79.8730  221.9990 N   0  0  0  0  0  0  0  0  0  0  0  0
  138.6460   78.9630  221.4360 C   0  0  0  0  0  0  0  0  0  0  0  0
  138.8960   77.5320  221.6450 C   0  0  0  0  0  0  0  0  0  0  0  0
  140.1690   77.0000  221.6240 C   0  0  0  0  0  0  0  0  0  0  0  0
  140.4340   75.6600  221.8150 C   0  0  0  0  0  0  0  0  0  0  0  0
  139.3860   74.7800  222.0420 C   0  0  0  0  0  0  0  0  0  0  0  0
  139.5900   73.4260  222.2400 C   0  0  0  0  0  0  0  0  0  0  0  0
  140.7880   73.0420  222.2040 O   0  0  0  0  0  0  0  0  0  0  0  0
  138.5550   72.5630  222.4610 N   0  0  0  0  0  0  0  0  0  0  0  0
  138.8480   71.1830  222.6400 C   0  0  0  0  0  0  0  0  0  0  0  0
  139.2100   70.7110  223.9970 C   0  0  0  0  0  0  0  0  0  0  0  0
  140.5150   71.2700  224.5280 C   0  0  0  0  0  0  0  0  0  0  0  0
  140.8900   70.7050  225.8750 C   0  0  0  0  0  0  0  0  0  0  0  0
  139.7540   70.0650  226.5900 C   0  0  0  0  0  0  0  0  0  0  0  0
  139.0030   69.0630  225.7860 C   0  0  0  0  0  0  0  0  0  0  0  0
  139.1740   69.2520  224.2670 C   0  0  0  0  0  0  0  0  0  0  0  0
  137.3300   73.1150  222.4770 C   0  0  0  0  0  0  0  0  0  0  0  0
  136.1530   72.3020  222.7650 C   0  0  0  0  0  0  0  0  0  0  0  0
  135.7400   72.0790  223.9970 C   0  0  0  0  0  0  0  0  0  0  0  0
  135.0580   73.0520  224.8300 C   0  0  0  0  0  0  0  0  0  0  0  0
  135.3730   74.3920  224.8650 C   0  0  0  0  0  0  0  0  0  0  0  0
  134.7010   75.2890  225.6720 C   0  0  0  0  0  0  0  0  0  0  0  0
  133.6880   74.8280  226.4630 N   0  0  0  0  0  0  0  0  0  0  0  0
  133.3470   73.5320  226.4610 C   0  0  0  0  0  0  0  0  0  0  0  0
  134.0260   72.6380  225.6480 C   0  0  0  0  0  0  0  0  0  0  0  0
  137.1100   74.4370  222.2850 N   0  0  0  0  0  0  0  0  0  0  0  0
  138.1260   75.2970  222.0640 C   0  0  0  0  0  0  0  0  0  0  0  0
  137.8640   76.6300  221.8730 C   0  0  0  0  0  0  0  0  0  0  0  0
  139.5790   80.0290  223.4020 C   0  0  0  0  0  0  0  0  0  0  0  0
  140.7440   80.9380  223.7550 C   0  0  0  0  0  0  0  0  0  0  0  0
  142.8634   79.5314  223.9364 H   0  0  0  0  0  0  0  0  0  0  0  0
  142.2042   78.9149  222.3833 H   0  0  0  0  0  0  0  0  0  0  0  0
  143.6308   80.0065  222.3833 H   0  0  0  0  0  0  0  0  0  0  0  0
  141.5970   82.3832  221.3567 H   0  0  0  0  0  0  0  0  0  0  0  0
  142.0455   80.7395  220.7548 H   0  0  0  0  0  0  0  0  0  0  0  0
  139.3402   81.8606  221.4747 H   0  0  0  0  0  0  0  0  0  0  0  0
  139.8129   80.7535  220.1437 H   0  0  0  0  0  0  0  0  0  0  0  0
  137.6560   79.1897  221.8585 H   0  0  0  0  0  0  0  0  0  0  0  0
  138.7381   79.1079  220.3495 H   0  0  0  0  0  0  0  0  0  0  0  0
  141.0157   77.6793  221.4458 H   0  0  0  0  0  0  0  0  0  0  0  0
  141.4700   75.2914  221.7875 H   0  0  0  0  0  0  0  0  0  0  0  0
  137.9582   70.6179  222.3254 H   0  0  0  0  0  0  0  0  0  0  0  0
  139.7584   71.0198  222.0445 H   0  0  0  0  0  0  0  0  0  0  0  0
  138.3584   71.1360  224.5485 H   0  0  0  0  0  0  0  0  0  0  0  0
  141.3158   71.0323  223.8123 H   0  0  0  0  0  0  0  0  0  0  0  0
  140.3841   72.3554  224.6499 H   0  0  0  0  0  0  0  0  0  0  0  0
  141.6777   69.9512  225.7287 H   0  0  0  0  0  0  0  0  0  0  0  0
  141.2274   71.5482  226.4956 H   0  0  0  0  0  0  0  0  0  0  0  0
  140.1510   69.5606  227.4833 H   0  0  0  0  0  0  0  0  0  0  0  0
  139.0430   70.8693  226.8297 H   0  0  0  0  0  0  0  0  0  0  0  0
  139.3615   68.0587  226.0558 H   0  0  0  0  0  0  0  0  0  0  0  0
  137.9350   69.1957  226.0136 H   0  0  0  0  0  0  0  0  0  0  0  0
  140.1132   68.7858  223.9345 H   0  0  0  0  0  0  0  0  0  0  0  0
  138.3430   68.7791  223.7231 H   0  0  0  0  0  0  0  0  0  0  0  0
  135.5925   71.8611  221.9275 H   0  0  0  0  0  0  0  0  0  0  0  0
  135.9260   71.0827  224.4247 H   0  0  0  0  0  0  0  0  0  0  0  0
  136.1895   74.7614  224.2271 H   0  0  0  0  0  0  0  0  0  0  0  0
  134.9765   76.3539  225.6774 H   0  0  0  0  0  0  0  0  0  0  0  0
  132.5283   73.1777  227.1045 H   0  0  0  0  0  0  0  0  0  0  0  0
  133.7365   71.5768  225.6548 H   0  0  0  0  0  0  0  0  0  0  0  0
  136.8246   76.9890  221.9007 H   0  0  0  0  0  0  0  0  0  0  0  0
  138.6350   80.4826  223.7383 H   0  0  0  0  0  0  0  0  0  0  0  0
  139.6896   79.0526  223.8963 H   0  0  0  0  0  0  0  0  0  0  0  0
  140.3691   81.9695  223.8290 H   0  0  0  0  0  0  0  0  0  0  0  0
  141.1595   80.5720  224.7055 H   0  0  0  0  0  0  0  0  0  0  0  0
  1  2  1  0
  2  3  1  0
  3  4  1  0
  4  5  1  0
  5  6  1  0
  6  7  1  0
  7  8  2  0
  8  9  1  0
  9 10  2  0
 10 11  1  0
 11 12  2  0
 11 13  1  0
 13 14  1  0
 14 15  1  0
 15 16  1  0
 16 17  1  0
 17 18  1  0
 18 19  1  0
 19 20  1  0
 13 21  1  0
 21 22  1  0
 22 23  2  0
 23 24  1  0
 24 25  2  0
 25 26  1  0
 26 27  2  0
 27 28  1  0
 28 29  2  0
 21 30  2  0
 30 31  1  0
 31 32  2  0
  5 33  1  0
 33 34  1  0
 34  2  1  0
 32  7  1  0
 31 10  1  0
 20 15  1  0
 29 24  1  0
  1 35  1  0
  1 36  1  0
  1 37  1  0
  3 38  1  0
  3 39  1  0
  4 40  1  0
  4 41  1  0
  6 42  1  0
  6 43  1  0
  8 44  1  0
  9 45  1  0
 14 46  1  0
 14 47  1  0
 15 48  1  0
 16 49  1  0
 16 50  1  0
 17 51  1  0
 17 52  1  0
 18 53  1  0
 18 54  1  0
 19 55  1  0
 19 56  1  0
 20 57  1  0
 20 58  1  0
 22 59  1  0
 23 60  1  0
 25 61  1  0
 26 62  1  0
 28 63  1  0
 29 64  1  0
 32 65  1  0
 33 66  1  0
 33 67  1  0
 34 68  1  0
 34 69  1  0
M  END
>  <smiles>  (17) 
CN1CCN(Cc2ccc3c(=O)n(CC4CCCCC4)c(/C=C/c4ccncc4)nc3c2)CC1

>  <score_type>  (17) 
oracle

>  <origin>  (17) 
autodockgpu

>  <m_score__min__energy>  (17) 
-8.7799999999999994

>  <m_primary>  (17) 
energy

>  <rmsd>  (17) 
7.536411677472751

>  <m_score__min__rmsd>  (17) 
7.536411677472751

>  <meeko>  (17) 
{"free_energy": -8.04, "intermolecular_energy": -10.13, "internal_energy": -1.89, "cluster_size": 24, "cluster_id": 2, "rank_in_cluster": 21}

>  <energy>  (17) 
-8.19

>  <cluster_rmsd>  (17) 
1.08

>  <cluster>  (17) 
2

$$$$

     RDKit          3D

 69 73  0  0  0  0  0  0  0  0999 V2000
  141.0820   68.0190  226.4650 C   0  0  0  0  0  0  0  0  0  0  0  0
  140.3750   69.2380  226.7350 N   0  0  0  0  0  0  0  0  0  0  0  0
  141.0590   70.4380  226.3610 C   0  0  0  0  0  0  0  0  0  0  0  0
  140.3850   71.0950  225.1500 C   0  0  0  0  0  0  0  0  0  0  0  0
  139.7600   70.0930  224.3600 N   0  0  0  0  0  0  0  0  0  0  0  0
  139.7780   70.2570  222.9600 C   0  0  0  0  0  0  0  0  0  0  0  0
  140.2120   71.5570  222.4360 C   0  0  0  0  0  0  0  0  0  0  0  0
  141.4600   71.7420  221.8780 C   0  0  0  0  0  0  0  0  0  0  0  0
  141.8960   72.9520  221.3790 C   0  0  0  0  0  0  0  0  0  0  0  0
  141.0560   74.0550  221.4270 C   0  0  0  0  0  0  0  0  0  0  0  0
  141.4380   75.2940  220.9430 C   0  0  0  0  0  0  0  0  0  0  0  0
  142.5950   75.3570  220.4520 O   0  0  0  0  0  0  0  0  0  0  0  0
  140.6080   76.3780  220.9940 N   0  0  0  0  0  0  0  0  0  0  0  0
  141.0810   77.6200  220.4880 C   0  0  0  0  0  0  0  0  0  0  0  0
  141.5780   78.6290  221.4520 C   0  0  0  0  0  0  0  0  0  0  0  0
  141.4450   78.2260  222.9070 C   0  0  0  0  0  0  0  0  0  0  0  0
  141.8850   79.3100  223.8590 C   0  0  0  0  0  0  0  0  0  0  0  0
  142.7300   80.3550  223.2220 C   0  0  0  0  0  0  0  0  0  0  0  0
  142.1560   80.9410  221.9800 C   0  0  0  0  0  0  0  0  0  0  0  0
  141.1140   80.0310  221.3040 C   0  0  0  0  0  0  0  0  0  0  0  0
  139.4000   76.1610  221.5410 C   0  0  0  0  0  0  0  0  0  0  0  0
  138.4070   77.2290  221.5960 C   0  0  0  0  0  0  0  0  0  0  0  0
  138.0820   77.8260  222.7260 C   0  0  0  0  0  0  0  0  0  0  0  0
  138.0930   79.2610  222.9350 C   0  0  0  0  0  0  0  0  0  0  0  0
  138.4520   79.8660  224.1200 C   0  0  0  0  0  0  0  0  0  0  0  0
  138.4510   81.2370  224.2810 C   0  0  0  0  0  0  0  0  0  0  0  0
  138.0790   82.0200  223.2270 N   0  0  0  0  0  0  0  0  0  0  0  0
  137.7220   81.4760  222.0550 C   0  0  0  0  0  0  0  0  0  0  0  0
  137.7260   80.0990  221.9010 C   0  0  0  0  0  0  0  0  0  0  0  0
  139.0090   74.9570  222.0210 N   0  0  0  0  0  0  0  0  0  0  0  0
  139.8220   73.8810  221.9770 C   0  0  0  0  0  0  0  0  0  0  0  0
  139.3900   72.6770  222.4730 C   0  0  0  0  0  0  0  0  0  0  0  0
  138.6850   69.3830  224.9380 C   0  0  0  0  0  0  0  0  0  0  0  0
  138.9810   69.2180  226.4180 C   0  0  0  0  0  0  0  0  0  0  0  0
  141.3606   67.5387  227.4146 H   0  0  0  0  0  0  0  0  0  0  0  0
  140.4368   67.3413  225.8867 H   0  0  0  0  0  0  0  0  0  0  0  0
  141.9906   68.2425  225.8867 H   0  0  0  0  0  0  0  0  0  0  0  0
  141.0436   71.1405  227.2073 H   0  0  0  0  0  0  0  0  0  0  0  0
  142.0951   70.1839  226.0927 H   0  0  0  0  0  0  0  0  0  0  0  0
  139.6288   71.8150  225.4960 H   0  0  0  0  0  0  0  0  0  0  0  0
  141.1405   71.6211  224.5480 H   0  0  0  0  0  0  0  0  0  0  0  0
  140.4536   69.4932  222.5474 H   0  0  0  0  0  0  0  0  0  0  0  0
  138.7252   70.1686  222.6538 H   0  0  0  0  0  0  0  0  0  0  0  0
  142.1424   70.8807  221.8284 H   0  0  0  0  0  0  0  0  0  0  0  0
  142.9032   73.0416  220.9459 H   0  0  0  0  0  0  0  0  0  0  0  0
  141.9066   77.3964  219.7963 H   0  0  0  0  0  0  0  0  0  0  0  0
  140.1908   78.0873  220.0417 H   0  0  0  0  0  0  0  0  0  0  0  0
  142.6359   78.6325  221.1508 H   0  0  0  0  0  0  0  0  0  0  0  0
  140.3906   77.9873  223.1101 H   0  0  0  0  0  0  0  0  0  0  0  0
  142.1002   77.3576  223.0701 H   0  0  0  0  0  0  0  0  0  0  0  0
  140.9883   79.7933  224.2741 H   0  0  0  0  0  0  0  0  0  0  0  0
  142.4980   78.8284  224.6351 H   0  0  0  0  0  0  0  0  0  0  0  0
  142.8777   81.1674  223.9487 H   0  0  0  0  0  0  0  0  0  0  0  0
  143.6694   79.8626  222.9303 H   0  0  0  0  0  0  0  0  0  0  0  0
  141.6730   81.8958  222.2350 H   0  0  0  0  0  0  0  0  0  0  0  0
  142.9844   81.0734  221.2684 H   0  0  0  0  0  0  0  0  0  0  0  0
  140.1355   80.1554  221.7908 H   0  0  0  0  0  0  0  0  0  0  0  0
  141.0059   80.2916  220.2408 H   0  0  0  0  0  0  0  0  0  0  0  0
  137.9139   77.5461  220.6652 H   0  0  0  0  0  0  0  0  0  0  0  0
  137.7808   77.1895  223.5711 H   0  0  0  0  0  0  0  0  0  0  0  0
  138.7503   79.2331  224.9688 H   0  0  0  0  0  0  0  0  0  0  0  0
  138.7442   81.6894  225.2398 H   0  0  0  0  0  0  0  0  0  0  0  0
  137.4260   82.1226  221.2158 H   0  0  0  0  0  0  0  0  0  0  0  0
  137.4306   79.6644  220.9347 H   0  0  0  0  0  0  0  0  0  0  0  0
  138.3815   72.5972  222.9049 H   0  0  0  0  0  0  0  0  0  0  0  0
  137.7495   69.9458  224.8039 H   0  0  0  0  0  0  0  0  0  0  0  0
  138.5702   68.4004  224.4570 H   0  0  0  0  0  0  0  0  0  0  0  0
  138.4899   70.0376  226.9630 H   0  0  0  0  0  0  0  0  0  0  0  0
  138.6006   68.2285  226.7117 H   0  0  0  0  0  0  0  0  0  0  0  0
  1  2  1  0
  2  3  1  0
  3  4  1  0
  4  5  1  0
  5  6  1  0
  6  7  1  0
  7  8  2  0
  8  9  1  0
  9 10  2  0
 10 11  1  0
 11 12  2  0
 11 13  1  0
 13 14  1  0
 14 15  1  0
 15 16  1  0
 16 17  1  0
 17 18  1  0
 18 19  1  0
 19 20  1  0
 13 21  1  0
 21 22  1  0
 22 23  2  0
 23 24  1  0
 24 25  2  0
 25 26  1  0
 26 27  2  0
 27 28  1  0
 28 29  2  0
 21 30  2  0
 30 31  1  0
 31 32  2  0
  5 33  1  0
 33 34  1  0
 34  2  1  0
 32  7  1  0
 31 10  1  0
 20 15  1  0
 29 24  1  0
  1 35  1  0
  1 36  1  0
  1 37  1  0
  3 38  1  0
  3 39  1  0
  4 40  1  0
  4 41  1  0
  6 42  1  0
  6 43  1  0
  8 44  1  0
  9 45  1  0
 14 46  1  0
 14 47  1  0
 15 48  1  0
 16 49  1  0
 16 50  1  0
 17 51  1  0
 17 52  1  0
 18 53  1  0
 18 54  1  0
 19 55  1  0
 19 56  1  0
 20 57  1  0
 20 58  1  0
 22 59  1  0
 23 60  1  0
 25 61  1  0
 26 62  1  0
 28 63  1  0
 29 64  1  0
 32 65  1  0
 33 66  1  0
 33 67  1  0
 34 68  1  0
 34 69  1  0
M  END
>  <smiles>  (18) 
CN1CCN(Cc2ccc3c(=O)n(CC4CCCCC4)c(/C=C/c4ccncc4)nc3c2)CC1

>  <score_type>  (18) 
oracle

>  <origin>  (18) 
autodockgpu

>  <m_score__min__energy>  (18) 
-8.7799999999999994

>  <m_primary>  (18) 
energy

>  <rmsd>  (18) 
7.645946785759784

>  <m_score__min__rmsd>  (18) 
7.645946785759784

>  <meeko>  (18) 
{"free_energy": -7.8, "intermolecular_energy": -9.89, "internal_energy": -2.36, "cluster_size": 8, "cluster_id": 5, "rank_in_cluster": 8}

>  <energy>  (18) 
-8.17

>  <cluster_rmsd>  (18) 
1.05

>  <cluster>  (18) 
2

$$$$

     RDKit          3D

 69 73  0  0  0  0  0  0  0  0999 V2000
  140.9260   82.0650  222.3270 C   0  0  0  0  0  0  0  0  0  0  0  0
  140.9080   81.1340  223.4180 N   0  0  0  0  0  0  0  0  0  0  0  0
  139.7820   80.2530  223.4510 C   0  0  0  0  0  0  0  0  0  0  0  0
  140.1990   78.8190  223.1050 C   0  0  0  0  0  0  0  0  0  0  0  0
  141.3300   78.8550  222.2440 N   0  0  0  0  0  0  0  0  0  0  0  0
  141.4140   77.8750  221.2340 C   0  0  0  0  0  0  0  0  0  0  0  0
  140.4620   76.7600  221.2900 C   0  0  0  0  0  0  0  0  0  0  0  0
  139.2110   76.8360  220.7120 C   0  0  0  0  0  0  0  0  0  0  0  0
  138.2950   75.8050  220.7490 C   0  0  0  0  0  0  0  0  0  0  0  0
  138.6220   74.6210  221.3940 C   0  0  0  0  0  0  0  0  0  0  0  0
  137.7450   73.5530  221.4650 C   0  0  0  0  0  0  0  0  0  0  0  0
  136.6300   73.7220  220.9050 O   0  0  0  0  0  0  0  0  0  0  0  0
  138.0710   72.3900  222.1030 N   0  0  0  0  0  0  0  0  0  0  0  0
  137.1070   71.3450  222.1430 C   0  0  0  0  0  0  0  0  0  0  0  0
  136.1420   71.3220  223.2670 C   0  0  0  0  0  0  0  0  0  0  0  0
  135.7310   72.6920  223.7690 C   0  0  0  0  0  0  0  0  0  0  0  0
  134.8130   72.6270  224.9640 C   0  0  0  0  0  0  0  0  0  0  0  0
  134.1690   71.2990  225.1490 C   0  0  0  0  0  0  0  0  0  0  0  0
  135.1130   70.1490  225.1430 C   0  0  0  0  0  0  0  0  0  0  0  0
  136.4450   70.4590  224.4360 C   0  0  0  0  0  0  0  0  0  0  0  0
  139.2970   72.3500  222.6510 C   0  0  0  0  0  0  0  0  0  0  0  0
  139.7790   71.1390  223.3050 C   0  0  0  0  0  0  0  0  0  0  0  0
  140.7210   71.1690  224.2290 C   0  0  0  0  0  0  0  0  0  0  0  0
  140.4890   71.0040  225.6510 C   0  0  0  0  0  0  0  0  0  0  0  0
  140.9400   71.8790  226.6140 C   0  0  0  0  0  0  0  0  0  0  0  0
  140.7000   71.6880  227.9600 C   0  0  0  0  0  0  0  0  0  0  0  0
  139.9870   70.5900  228.3480 N   0  0  0  0  0  0  0  0  0  0  0  0
  139.5270   69.7120  227.4470 C   0  0  0  0  0  0  0  0  0  0  0  0
  139.7740   69.9100  226.0980 C   0  0  0  0  0  0  0  0  0  0  0  0
  140.1680   73.3850  222.5930 N   0  0  0  0  0  0  0  0  0  0  0  0
  139.8550   74.5380  221.9670 C   0  0  0  0  0  0  0  0  0  0  0  0
  140.7650   75.5640  221.9290 C   0  0  0  0  0  0  0  0  0  0  0  0
  142.5300   79.3870  222.7640 C   0  0  0  0  0  0  0  0  0  0  0  0
  142.1640   80.5150  223.7120 C   0  0  0  0  0  0  0  0  0  0  0  0
  140.9458   83.0917  222.7214 H   0  0  0  0  0  0  0  0  0  0  0  0
  141.8210   81.8913  221.7115 H   0  0  0  0  0  0  0  0  0  0  0  0
  140.0250   81.9260  221.7115 H   0  0  0  0  0  0  0  0  0  0  0  0
  139.3432   80.2670  224.4596 H   0  0  0  0  0  0  0  0  0  0  0  0
  139.0468   80.5943  222.7073 H   0  0  0  0  0  0  0  0  0  0  0  0
  140.4562   78.2781  224.0276 H   0  0  0  0  0  0  0  0  0  0  0  0
  139.3677   78.3041  222.6012 H   0  0  0  0  0  0  0  0  0  0  0  0
  141.2695   78.3832  220.2692 H   0  0  0  0  0  0  0  0  0  0  0  0
  142.3998   77.4087  221.3778 H   0  0  0  0  0  0  0  0  0  0  0  0
  138.9300   77.7658  220.1957 H   0  0  0  0  0  0  0  0  0  0  0  0
  137.3115   75.9210  220.2701 H   0  0  0  0  0  0  0  0  0  0  0  0
  136.5224   71.4054  221.2131 H   0  0  0  0  0  0  0  0  0  0  0  0
  137.7034   70.4307  222.2786 H   0  0  0  0  0  0  0  0  0  0  0  0
  135.3018   70.8362  222.7492 H   0  0  0  0  0  0  0  0  0  0  0  0
  136.6366   73.2487  224.0517 H   0  0  0  0  0  0  0  0  0  0  0  0
  135.1816   73.1905  222.9568 H   0  0  0  0  0  0  0  0  0  0  0  0
  135.3992   72.8578  225.8657 H   0  0  0  0  0  0  0  0  0  0  0  0
  134.0068   73.3551  224.7912 H   0  0  0  0  0  0  0  0  0  0  0  0
  133.6408   71.3048  226.1139 H   0  0  0  0  0  0  0  0  0  0  0  0
  133.4960   71.1556  224.2908 H   0  0  0  0  0  0  0  0  0  0  0  0
  135.3276   69.8679  226.1846 H   0  0  0  0  0  0  0  0  0  0  0  0
  134.6298   69.3334  224.5850 H   0  0  0  0  0  0  0  0  0  0  0  0
  137.1220   70.9850  225.1252 H   0  0  0  0  0  0  0  0  0  0  0  0
  136.9366   69.5295  224.1131 H   0  0  0  0  0  0  0  0  0  0  0  0
  139.3438   70.1700  223.0192 H   0  0  0  0  0  0  0  0  0  0  0  0
  141.7570   71.3309  223.8964 H   0  0  0  0  0  0  0  0  0  0  0  0
  141.5131   72.7634  226.2988 H   0  0  0  0  0  0  0  0  0  0  0  0
  141.0754   72.4055  228.7045 H   0  0  0  0  0  0  0  0  0  0  0  0
  138.9532   68.8338  227.7780 H   0  0  0  0  0  0  0  0  0  0  0  0
  139.3928   69.1808  225.3679 H   0  0  0  0  0  0  0  0  0  0  0  0
  141.7462   75.4383  222.4102 H   0  0  0  0  0  0  0  0  0  0  0  0
  143.0815   78.6055  223.3072 H   0  0  0  0  0  0  0  0  0  0  0  0
  143.1695   79.7604  221.9506 H   0  0  0  0  0  0  0  0  0  0  0  0
  142.1194   80.1086  224.7332 H   0  0  0  0  0  0  0  0  0  0  0  0
  142.9364   81.2901  223.5997 H   0  0  0  0  0  0  0  0  0  0  0  0
  1  2  1  0
  2  3  1  0
  3  4  1  0
  4  5  1  0
  5  6  1  0
  6  7  1  0
  7  8  2  0
  8  9  1  0
  9 10  2  0
 10 11  1  0
 11 12  2  0
 11 13  1  0
 13 14  1  0
 14 15  1  0
 15 16  1  0
 16 17  1  0
 17 18  1  0
 18 19  1  0
 19 20  1  0
 13 21  1  0
 21 22  1  0
 22 23  2  0
 23 24  1  0
 24 25  2  0
 25 26  1  0
 26 27  2  0
 27 28  1  0
 28 29  2  0
 21 30  2  0
 30 31  1  0
 31 32  2  0
  5 33  1  0
 33 34  1  0
 34  2  1  0
 32  7  1  0
 31 10  1  0
 20 15  1  0
 29 24  1  0
  1 35  1  0
  1 36  1  0
  1 37  1  0
  3 38  1  0
  3 39  1  0
  4 40  1  0
  4 41  1  0
  6 42  1  0
  6 43  1  0
  8 44  1  0
  9 45  1  0
 14 46  1  0
 14 47  1  0
 15 48  1  0
 16 49  1  0
 16 50  1  0
 17 51  1  0
 17 52  1  0
 18 53  1  0
 18 54  1  0
 19 55  1  0
 19 56  1  0
 20 57  1  0
 20 58  1  0
 22 59  1  0
 23 60  1  0
 25 61  1  0
 26 62  1  0
 28 63  1  0
 29 64  1  0
 32 65  1  0
 33 66  1  0
 33 67  1  0
 34 68  1  0
 34 69  1  0
M  END
>  <smiles>  (19) 
CN1CCN(Cc2ccc3c(=O)n(CC4CCCCC4)c(/C=C/c4ccncc4)nc3c2)CC1

>  <score_type>  (19) 
oracle

>  <origin>  (19) 
autodockgpu

>  <m_score__min__energy>  (19) 
-8.7799999999999994

>  <m_primary>  (19) 
energy

>  <rmsd>  (19) 
7.85351495551045

>  <m_score__min__rmsd>  (19) 
7.85351495551045

>  <meeko>  (19) 
{"free_energy": -8.4, "intermolecular_energy": -10.49, "internal_energy": -1.9, "cluster_size": 11, "cluster_id": 3, "rank_in_cluster": 1}

>  <energy>  (19) 
-8.16

>  <cluster_rmsd>  (19) 
1.29

>  <cluster>  (19) 
2

$$$$

     RDKit          3D

 69 73  0  0  0  0  0  0  0  0999 V2000
  141.4220   68.2680  226.3960 C   0  0  0  0  0  0  0  0  0  0  0  0
  140.4910   69.3160  226.7000 N   0  0  0  0  0  0  0  0  0  0  0  0
  140.9180   70.6350  226.3440 C   0  0  0  0  0  0  0  0  0  0  0  0
  140.1100   71.1680  225.1550 C   0  0  0  0  0  0  0  0  0  0  0  0
  139.6850   70.0770  224.3500 N   0  0  0  0  0  0  0  0  0  0  0  0
  139.6500   70.2680  222.9540 C   0  0  0  0  0  0  0  0  0  0  0  0
  140.1390   71.5500  222.4330 C   0  0  0  0  0  0  0  0  0  0  0  0
  141.3960   71.6840  221.8810 C   0  0  0  0  0  0  0  0  0  0  0  0
  141.8830   72.8760  221.3850 C   0  0  0  0  0  0  0  0  0  0  0  0
  141.0890   74.0120  221.4300 C   0  0  0  0  0  0  0  0  0  0  0  0
  141.5220   75.2350  220.9490 C   0  0  0  0  0  0  0  0  0  0  0  0
  142.6840   75.2520  220.4630 O   0  0  0  0  0  0  0  0  0  0  0  0
  140.7370   76.3520  220.9980 N   0  0  0  0  0  0  0  0  0  0  0  0
  141.2630   77.5740  220.4950 C   0  0  0  0  0  0  0  0  0  0  0  0
  141.6500   78.6250  221.4650 C   0  0  0  0  0  0  0  0  0  0  0  0
  141.4950   78.2250  222.9190 C   0  0  0  0  0  0  0  0  0  0  0  0
  141.8200   79.3470  223.8730 C   0  0  0  0  0  0  0  0  0  0  0  0
  142.6090   80.4460  223.2540 C   0  0  0  0  0  0  0  0  0  0  0  0
  142.0380   80.9770  221.9870 C   0  0  0  0  0  0  0  0  0  0  0  0
  141.0900   79.9880  221.2850 C   0  0  0  0  0  0  0  0  0  0  0  0
  139.5190   76.1840  221.5390 C   0  0  0  0  0  0  0  0  0  0  0  0
  138.5700   77.2910  221.5900 C   0  0  0  0  0  0  0  0  0  0  0  0
  138.2380   77.8770  222.7240 C   0  0  0  0  0  0  0  0  0  0  0  0
  138.0880   79.3090  222.9010 C   0  0  0  0  0  0  0  0  0  0  0  0
  137.5790   80.1560  221.9410 C   0  0  0  0  0  0  0  0  0  0  0  0
  137.4520   81.5160  222.1470 C   0  0  0  0  0  0  0  0  0  0  0  0
  137.8450   82.0370  223.3450 N   0  0  0  0  0  0  0  0  0  0  0  0
  138.3460   81.2510  224.3090 C   0  0  0  0  0  0  0  0  0  0  0  0
  138.4710   79.8880  224.0950 C   0  0  0  0  0  0  0  0  0  0  0  0
  139.0780   74.9970  222.0160 N   0  0  0  0  0  0  0  0  0  0  0  0
  139.8460   73.8880  221.9740 C   0  0  0  0  0  0  0  0  0  0  0  0
  139.3640   72.7030  222.4670 C   0  0  0  0  0  0  0  0  0  0  0  0
  138.7800   69.1570  224.9230 C   0  0  0  0  0  0  0  0  0  0  0  0
  139.1240   69.0260  226.3970 C   0  0  0  0  0  0  0  0  0  0  0  0
  141.8060   67.8358  227.3318 H   0  0  0  0  0  0  0  0  0  0  0  0
  140.9155   67.4858  225.8115 H   0  0  0  0  0  0  0  0  0  0  0  0
  142.2585   68.6788  225.8115 H   0  0  0  0  0  0  0  0  0  0  0  0
  140.7761   71.3045  227.2052 H   0  0  0  0  0  0  0  0  0  0  0  0
  141.9797   70.5963  226.0590 H   0  0  0  0  0  0  0  0  0  0  0  0
  139.2310   71.7166  225.5243 H   0  0  0  0  0  0  0  0  0  0  0  0
  140.7373   71.8453  224.5568 H   0  0  0  0  0  0  0  0  0  0  0  0
  140.2581   69.4732  222.4974 H   0  0  0  0  0  0  0  0  0  0  0  0
  138.5810   70.2498  222.6954 H   0  0  0  0  0  0  0  0  0  0  0  0
  142.0429   70.7956  221.8338 H   0  0  0  0  0  0  0  0  0  0  0  0
  142.8949   72.9248  220.9565 H   0  0  0  0  0  0  0  0  0  0  0  0
  142.1602   77.3255  219.9090 H   0  0  0  0  0  0  0  0  0  0  0  0
  140.4279   78.0178  219.9332 H   0  0  0  0  0  0  0  0  0  0  0  0
  142.7150   78.7042  221.2016 H   0  0  0  0  0  0  0  0  0  0  0  0
  140.4544   77.9108  223.0878 H   0  0  0  0  0  0  0  0  0  0  0  0
  142.2054   77.4083  223.1148 H   0  0  0  0  0  0  0  0  0  0  0  0
  140.8760   79.7668  224.2506 H   0  0  0  0  0  0  0  0  0  0  0  0
  142.4384   78.9187  224.6756 H   0  0  0  0  0  0  0  0  0  0  0  0
  142.6712   81.2734  223.9762 H   0  0  0  0  0  0  0  0  0  0  0  0
  143.5917   80.0216  223.0008 H   0  0  0  0  0  0  0  0  0  0  0  0
  141.4778   81.8959  222.2146 H   0  0  0  0  0  0  0  0  0  0  0  0
  142.8793   81.1632  221.3032 H   0  0  0  0  0  0  0  0  0  0  0  0
  140.0882   80.0445  221.7358 H   0  0  0  0  0  0  0  0  0  0  0  0
  141.0008   80.2310  220.2159 H   0  0  0  0  0  0  0  0  0  0  0  0
  138.1172   77.6481  220.6533 H   0  0  0  0  0  0  0  0  0  0  0  0
  138.0622   77.2335  223.5986 H   0  0  0  0  0  0  0  0  0  0  0  0
  137.2623   79.7341  220.9757 H   0  0  0  0  0  0  0  0  0  0  0  0
  137.0419   82.1663  221.3603 H   0  0  0  0  0  0  0  0  0  0  0  0
  138.6575   81.6882  225.2691 H   0  0  0  0  0  0  0  0  0  0  0  0
  138.8840   79.2534  224.8929 H   0  0  0  0  0  0  0  0  0  0  0  0
  138.3513   72.6644  222.8947 H   0  0  0  0  0  0  0  0  0  0  0  0
  137.7497   69.5256  224.8103 H   0  0  0  0  0  0  0  0  0  0  0  0
  138.8551   68.1806  224.4221 H   0  0  0  0  0  0  0  0  0  0  0  0
  138.4882   69.7216  226.9644 H   0  0  0  0  0  0  0  0  0  0  0  0
  138.9511   67.9754  226.6735 H   0  0  0  0  0  0  0  0  0  0  0  0
  1  2  1  0
  2  3  1  0
  3  4  1  0
  4  5  1  0
  5  6  1  0
  6  7  1  0
  7  8  2  0
  8  9  1  0
  9 10  2  0
 10 11  1  0
 11 12  2  0
 11 13  1  0
 13 14  1  0
 14 15  1  0
 15 16  1  0
 16 17  1  0
 17 18  1  0
 18 19  1  0
 19 20  1  0
 13 21  1  0
 21 22  1  0
 22 23  2  0
 23 24  1  0
 24 25  2  0
 25 26  1  0
 26 27  2  0
 27 28  1  0
 28 29  2  0
 21 30  2  0
 30 31  1  0
 31 32  2  0
  5 33  1  0
 33 34  1  0
 34  2  1  0
 32  7  1  0
 31 10  1  0
 20 15  1  0
 29 24  1  0
  1 35  1  0
  1 36  1  0
  1 37  1  0
  3 38  1  0
  3 39  1  0
  4 40  1  0
  4 41  1  0
  6 42  1  0
  6 43  1  0
  8 44  1  0
  9 45  1  0
 14 46  1  0
 14 47  1  0
 15 48  1  0
 16 49  1  0
 16 50  1  0
 17 51  1  0
 17 52  1  0
 18 53  1  0
 18 54  1  0
 19 55  1  0
 19 56  1  0
 20 57  1  0
 20 58  1  0
 22 59  1  0
 23 60  1  0
 25 61  1  0
 26 62  1  0
 28 63  1  0
 29 64  1  0
 32 65  1  0
 33 66  1  0
 33 67  1  0
 34 68  1  0
 34 69  1  0
M  END
>  <smiles>  (20) 
CN1CCN(Cc2ccc3c(=O)n(CC4CCCCC4)c(/C=C/c4ccncc4)nc3c2)CC1

>  <score_type>  (20) 
oracle

>  <origin>  (20) 
autodockgpu

>  <m_score__min__energy>  (20) 
-8.7799999999999994

>  <m_primary>  (20) 
energy

>  <rmsd>  (20) 
7.670515540282999

>  <m_score__min__rmsd>  (20) 
7.670515540282999

>  <meeko>  (20) 
{"free_energy": -7.83, "intermolecular_energy": -9.92, "internal_energy": -2.25, "cluster_size": 8, "cluster_id": 5, "rank_in_cluster": 6}

>  <energy>  (20) 
-8.13

>  <cluster_rmsd>  (20) 
0.75

>  <cluster>  (20) 
2

$$$$

     RDKit          3D

 69 73  0  0  0  0  0  0  0  0999 V2000
  142.9600   79.8230  222.7730 C   0  0  0  0  0  0  0  0  0  0  0  0
  142.2450   80.9820  222.3230 N   0  0  0  0  0  0  0  0  0  0  0  0
  141.6670   80.8760  221.0190 C   0  0  0  0  0  0  0  0  0  0  0  0
  140.1390   80.7860  221.1050 C   0  0  0  0  0  0  0  0  0  0  0  0
  139.7730   80.1830  222.3390 N   0  0  0  0  0  0  0  0  0  0  0  0
  138.6520   79.3280  222.3430 C   0  0  0  0  0  0  0  0  0  0  0  0
  138.9010   77.8830  222.2970 C   0  0  0  0  0  0  0  0  0  0  0  0
  140.1750   77.3620  222.2020 C   0  0  0  0  0  0  0  0  0  0  0  0
  140.4400   76.0090  222.1560 C   0  0  0  0  0  0  0  0  0  0  0  0
  139.3900   75.1040  222.2040 C   0  0  0  0  0  0  0  0  0  0  0  0
  139.5930   73.7360  222.1600 C   0  0  0  0  0  0  0  0  0  0  0  0
  140.7920   73.3630  222.0760 O   0  0  0  0  0  0  0  0  0  0  0  0
  138.5550   72.8490  222.2060 N   0  0  0  0  0  0  0  0  0  0  0  0
  138.8480   71.4580  222.1410 C   0  0  0  0  0  0  0  0  0  0  0  0
  139.2350   70.7620  223.3900 C   0  0  0  0  0  0  0  0  0  0  0  0
  138.1340   69.9250  224.0100 C   0  0  0  0  0  0  0  0  0  0  0  0
  138.5400   69.2990  225.3200 C   0  0  0  0  0  0  0  0  0  0  0  0
  140.0120   69.2670  225.5340 C   0  0  0  0  0  0  0  0  0  0  0  0
  140.6930   70.5750  225.3380 C   0  0  0  0  0  0  0  0  0  0  0  0
  139.8900   71.5530  224.4610 C   0  0  0  0  0  0  0  0  0  0  0  0
  137.3290   73.3910  222.3010 C   0  0  0  0  0  0  0  0  0  0  0  0
  136.1490   72.5410  222.4180 C   0  0  0  0  0  0  0  0  0  0  0  0
  135.7450   72.0600  223.5780 C   0  0  0  0  0  0  0  0  0  0  0  0
  135.0130   72.8150  224.5760 C   0  0  0  0  0  0  0  0  0  0  0  0
  135.0550   74.1870  224.6900 C   0  0  0  0  0  0  0  0  0  0  0  0
  134.3420   74.8720  225.6550 C   0  0  0  0  0  0  0  0  0  0  0  0
  133.5690   74.1610  226.5260 N   0  0  0  0  0  0  0  0  0  0  0  0
  133.4970   72.8250  226.4530 C   0  0  0  0  0  0  0  0  0  0  0  0
  134.2150   72.1450  225.4820 C   0  0  0  0  0  0  0  0  0  0  0  0
  137.1110   74.7250  222.3440 N   0  0  0  0  0  0  0  0  0  0  0  0
  138.1280   75.6100  222.2970 C   0  0  0  0  0  0  0  0  0  0  0  0
  137.8670   76.9560  222.3430 C   0  0  0  0  0  0  0  0  0  0  0  0
  140.0880   80.8810  223.5250 C   0  0  0  0  0  0  0  0  0  0  0  0
  141.4070   81.6010  223.3030 C   0  0  0  0  0  0  0  0  0  0  0  0
  142.9720   79.8036  223.8728 H   0  0  0  0  0  0  0  0  0  0  0  0
  142.4638   78.9167  222.3957 H   0  0  0  0  0  0  0  0  0  0  0  0
  143.9926   79.8598  222.3957 H   0  0  0  0  0  0  0  0  0  0  0  0
  141.9432   81.7625  220.4292 H   0  0  0  0  0  0  0  0  0  0  0  0
  142.0470   79.9622  220.5388 H   0  0  0  0  0  0  0  0  0  0  0  0
  139.7075   81.7962  221.0473 H   0  0  0  0  0  0  0  0  0  0  0  0
  139.7580   80.1788  220.2707 H   0  0  0  0  0  0  0  0  0  0  0  0
  138.0832   79.5351  223.2615 H   0  0  0  0  0  0  0  0  0  0  0  0
  138.1263   79.5514  221.4029 H   0  0  0  0  0  0  0  0  0  0  0  0
  141.0230   78.0614  222.1608 H   0  0  0  0  0  0  0  0  0  0  0  0
  141.4772   75.6502  222.0818 H   0  0  0  0  0  0  0  0  0  0  0  0
  137.9508   70.9542  221.7522 H   0  0  0  0  0  0  0  0  0  0  0  0
  139.7461   71.3994  221.5086 H   0  0  0  0  0  0  0  0  0  0  0  0
  140.0211   70.1134  222.9760 H   0  0  0  0  0  0  0  0  0  0  0  0
  137.2596   70.5691  224.1849 H   0  0  0  0  0  0  0  0  0  0  0  0
  137.9068   69.1075  223.3099 H   0  0  0  0  0  0  0  0  0  0  0  0
  138.0822   69.8753  226.1375 H   0  0  0  0  0  0  0  0  0  0  0  0
  138.1942   68.2550  225.2995 H   0  0  0  0  0  0  0  0  0  0  0  0
  140.2021   68.9318  226.5643 H   0  0  0  0  0  0  0  0  0  0  0  0
  140.4232   68.5838  224.7763 H   0  0  0  0  0  0  0  0  0  0  0  0
  140.8505   71.0379  226.3233 H   0  0  0  0  0  0  0  0  0  0  0  0
  141.6416   70.3744  224.8185 H   0  0  0  0  0  0  0  0  0  0  0  0
  139.1287   72.0635  225.0691 H   0  0  0  0  0  0  0  0  0  0  0  0
  140.5530   72.3159  224.0270 H   0  0  0  0  0  0  0  0  0  0  0  0
  135.5785   72.2935  221.5107 H   0  0  0  0  0  0  0  0  0  0  0  0
  135.9806   71.0097  223.8045 H   0  0  0  0  0  0  0  0  0  0  0  0
  135.6791   74.7582  223.9870 H   0  0  0  0  0  0  0  0  0  0  0  0
  134.3964   75.9687  225.7198 H   0  0  0  0  0  0  0  0  0  0  0  0
  132.8683   72.2682  227.1634 H   0  0  0  0  0  0  0  0  0  0  0  0
  134.1477   71.0482  225.4320 H   0  0  0  0  0  0  0  0  0  0  0  0
  136.8267   77.3056  222.4172 H   0  0  0  0  0  0  0  0  0  0  0  0
  139.2966   81.6108  223.7512 H   0  0  0  0  0  0  0  0  0  0  0  0
  140.1685   80.1835  224.3718 H   0  0  0  0  0  0  0  0  0  0  0  0
  141.1903   82.6283  222.9749 H   0  0  0  0  0  0  0  0  0  0  0  0
  141.9534   81.5700  224.2572 H   0  0  0  0  0  0  0  0  0  0  0  0
  1  2  1  0
  2  3  1  0
  3  4  1  0
  4  5  1  0
  5  6  1  0
  6  7  1  0
  7  8  2  0
  8  9  1  0
  9 10  2  0
 10 11  1  0
 11 12  2  0
 11 13  1  0
 13 14  1  0
 14 15  1  0
 15 16  1  0
 16 17  1  0
 17 18  1  0
 18 19  1  0
 19 20  1  0
 13 21  1  0
 21 22  1  0
 22 23  2  0
 23 24  1  0
 24 25  2  0
 25 26  1  0
 26 27  2  0
 27 28  1  0
 28 29  2  0
 21 30  2  0
 30 31  1  0
 31 32  2  0
  5 33  1  0
 33 34  1  0
 34  2  1  0
 32  7  1  0
 31 10  1  0
 20 15  1  0
 29 24  1  0
  1 35  1  0
  1 36  1  0
  1 37  1  0
  3 38  1  0
  3 39  1  0
  4 40  1  0
  4 41  1  0
  6 42  1  0
  6 43  1  0
  8 44  1  0
  9 45  1  0
 14 46  1  0
 14 47  1  0
 15 48  1  0
 16 49  1  0
 16 50  1  0
 17 51  1  0
 17 52  1  0
 18 53  1  0
 18 54  1  0
 19 55  1  0
 19 56  1  0
 20 57  1  0
 20 58  1  0
 22 59  1  0
 23 60  1  0
 25 61  1  0
 26 62  1  0
 28 63  1  0
 29 64  1  0
 32 65  1  0
 33 66  1  0
 33 67  1  0
 34 68  1  0
 34 69  1  0
M  END
>  <smiles>  (21) 
CN1CCN(Cc2ccc3c(=O)n(CC4CCCCC4)c(/C=C/c4ccncc4)nc3c2)CC1

>  <score_type>  (21) 
oracle

>  <origin>  (21) 
autodockgpu

>  <m_score__min__energy>  (21) 
-8.7799999999999994

>  <m_primary>  (21) 
energy

>  <rmsd>  (21) 
7.60980013118246

>  <m_score__min__rmsd>  (21) 
7.60980013118246

>  <meeko>  (21) 
{"free_energy": -8.12, "intermolecular_energy": -10.21, "internal_energy": -2.02, "cluster_size": 24, "cluster_id": 2, "rank_in_cluster": 18}

>  <energy>  (21) 
-8.12

>  <cluster_rmsd>  (21) 
1.29

>  <cluster>  (21) 
2

$$$$

     RDKit          3D

 69 73  0  0  0  0  0  0  0  0999 V2000
  141.1240   68.0790  226.4290 C   0  0  0  0  0  0  0  0  0  0  0  0
  140.4060   69.2880  226.7140 N   0  0  0  0  0  0  0  0  0  0  0  0
  141.0710   70.4970  226.3360 C   0  0  0  0  0  0  0  0  0  0  0  0
  140.3740   71.1520  225.1370 C   0  0  0  0  0  0  0  0  0  0  0  0
  139.7500   70.1450  224.3500 N   0  0  0  0  0  0  0  0  0  0  0  0
  139.7480   70.3160  222.9510 C   0  0  0  0  0  0  0  0  0  0  0  0
  140.1940   71.6100  222.4260 C   0  0  0  0  0  0  0  0  0  0  0  0
  141.4430   71.7810  221.8630 C   0  0  0  0  0  0  0  0  0  0  0  0
  141.8900   72.9860  221.3610 C   0  0  0  0  0  0  0  0  0  0  0  0
  141.0640   74.0990  221.4130 C   0  0  0  0  0  0  0  0  0  0  0  0
  141.4570   75.3330  220.9280 C   0  0  0  0  0  0  0  0  0  0  0  0
  142.6140   75.3830  220.4320 O   0  0  0  0  0  0  0  0  0  0  0  0
  140.6400   76.4270  220.9830 N   0  0  0  0  0  0  0  0  0  0  0  0
  141.1260   77.6630  220.4750 C   0  0  0  0  0  0  0  0  0  0  0  0
  141.5650   78.6960  221.4410 C   0  0  0  0  0  0  0  0  0  0  0  0
  141.4680   78.2780  222.8940 C   0  0  0  0  0  0  0  0  0  0  0  0
  141.8460   79.3830  223.8490 C   0  0  0  0  0  0  0  0  0  0  0  0
  142.6190   80.4820  223.2120 C   0  0  0  0  0  0  0  0  0  0  0  0
  142.0010   81.0370  221.9770 C   0  0  0  0  0  0  0  0  0  0  0  0
  141.0130   80.0670  221.3030 C   0  0  0  0  0  0  0  0  0  0  0  0
  139.4320   76.2230  221.5340 C   0  0  0  0  0  0  0  0  0  0  0  0
  138.4520   77.3020  221.5920 C   0  0  0  0  0  0  0  0  0  0  0  0
  138.0880   77.8570  222.7330 C   0  0  0  0  0  0  0  0  0  0  0  0
  138.0480   79.2860  222.9810 C   0  0  0  0  0  0  0  0  0  0  0  0
  138.5150   79.8830  224.1310 C   0  0  0  0  0  0  0  0  0  0  0  0
  138.4600   81.2480  224.3310 C   0  0  0  0  0  0  0  0  0  0  0  0
  137.9220   82.0320  223.3530 N   0  0  0  0  0  0  0  0  0  0  0  0
  137.4550   81.4960  222.2170 C   0  0  0  0  0  0  0  0  0  0  0  0
  137.5140   80.1250  222.0230 C   0  0  0  0  0  0  0  0  0  0  0  0
  139.0300   75.0240  222.0150 N   0  0  0  0  0  0  0  0  0  0  0  0
  139.8300   73.9390  221.9670 C   0  0  0  0  0  0  0  0  0  0  0  0
  139.3860   72.7400  222.4660 C   0  0  0  0  0  0  0  0  0  0  0  0
  138.6910   69.4200  224.9390 C   0  0  0  0  0  0  0  0  0  0  0  0
  139.0080   69.2530  226.4150 C   0  0  0  0  0  0  0  0  0  0  0  0
  141.4127   67.5929  227.3726 H   0  0  0  0  0  0  0  0  0  0  0  0
  140.4827   67.4000  225.8480 H   0  0  0  0  0  0  0  0  0  0  0  0
  142.0271   68.3172  225.8480 H   0  0  0  0  0  0  0  0  0  0  0  0
  141.0590   71.1956  227.1856 H   0  0  0  0  0  0  0  0  0  0  0  0
  142.1060   70.2554  226.0525 H   0  0  0  0  0  0  0  0  0  0  0  0
  139.6140   71.8616  225.4961 H   0  0  0  0  0  0  0  0  0  0  0  0
  141.1153   71.6900  224.5278 H   0  0  0  0  0  0  0  0  0  0  0  0
  140.4042   69.5434  222.5238 H   0  0  0  0  0  0  0  0  0  0  0  0
  138.6889   70.2467  222.6621 H   0  0  0  0  0  0  0  0  0  0  0  0
  142.1160   70.9124  221.8121 H   0  0  0  0  0  0  0  0  0  0  0  0
  142.8957   73.0635  220.9221 H   0  0  0  0  0  0  0  0  0  0  0  0
  141.9870   77.4338  219.8299 H   0  0  0  0  0  0  0  0  0  0  0  0
  140.2550   78.1119  219.9752 H   0  0  0  0  0  0  0  0  0  0  0  0
  142.6187   78.7677  221.1334 H   0  0  0  0  0  0  0  0  0  0  0  0
  140.4322   77.9725  223.1030 H   0  0  0  0  0  0  0  0  0  0  0  0
  142.1774   77.4515  223.0479 H   0  0  0  0  0  0  0  0  0  0  0  0
  140.9237   79.8069  224.2729 H   0  0  0  0  0  0  0  0  0  0  0  0
  142.4936   78.9370  224.6182 H   0  0  0  0  0  0  0  0  0  0  0  0
  142.7204   81.2985  223.9421 H   0  0  0  0  0  0  0  0  0  0  0  0
  143.5853   80.0509  222.9113 H   0  0  0  0  0  0  0  0  0  0  0  0
  141.4612   81.9586  222.2402 H   0  0  0  0  0  0  0  0  0  0  0  0
  142.8146   81.2242  221.2607 H   0  0  0  0  0  0  0  0  0  0  0  0
  140.0319   80.1278  221.7968 H   0  0  0  0  0  0  0  0  0  0  0  0
  140.8813   80.3253  220.2419 H   0  0  0  0  0  0  0  0  0  0  0  0
  138.0024   77.6644  220.6558 H   0  0  0  0  0  0  0  0  0  0  0  0
  137.7938   77.1879  223.5550 H   0  0  0  0  0  0  0  0  0  0  0  0
  138.9476   79.2491  224.9190 H   0  0  0  0  0  0  0  0  0  0  0  0
  138.8425   81.6945  225.2607 H   0  0  0  0  0  0  0  0  0  0  0  0
  137.0251   82.1439  221.4389 H   0  0  0  0  0  0  0  0  0  0  0  0
  137.1275   79.6963  221.0866 H   0  0  0  0  0  0  0  0  0  0  0  0
  138.3787   72.6727  222.9028 H   0  0  0  0  0  0  0  0  0  0  0  0
  137.7472   69.9721  224.8190 H   0  0  0  0  0  0  0  0  0  0  0  0
  138.5818   68.4379  224.4557 H   0  0  0  0  0  0  0  0  0  0  0  0
  138.5146   70.0649  226.9694 H   0  0  0  0  0  0  0  0  0  0  0  0
  138.6428   68.2582  226.7099 H   0  0  0  0  0  0  0  0  0  0  0  0
  1  2  1  0
  2  3  1  0
  3  4  1  0
  4  5  1  0
  5  6  1  0
  6  7  1  0
  7  8  2  0
  8  9  1  0
  9 10  2  0
 10 11  1  0
 11 12  2  0
 11 13  1  0
 13 14  1  0
 14 15  1  0
 15 16  1  0
 16 17  1  0
 17 18  1  0
 18 19  1  0
 19 20  1  0
 13 21  1  0
 21 22  1  0
 22 23  2  0
 23 24  1  0
 24 25  2  0
 25 26  1  0
 26 27  2  0
 27 28  1  0
 28 29  2  0
 21 30  2  0
 30 31  1  0
 31 32  2  0
  5 33  1  0
 33 34  1  0
 34  2  1  0
 32  7  1  0
 31 10  1  0
 20 15  1  0
 29 24  1  0
  1 35  1  0
  1 36  1  0
  1 37  1  0
  3 38  1  0
  3 39  1  0
  4 40  1  0
  4 41  1  0
  6 42  1  0
  6 43  1  0
  8 44  1  0
  9 45  1  0
 14 46  1  0
 14 47  1  0
 15 48  1  0
 16 49  1  0
 16 50  1  0
 17 51  1  0
 17 52  1  0
 18 53  1  0
 18 54  1  0
 19 55  1  0
 19 56  1  0
 20 57  1  0
 20 58  1  0
 22 59  1  0
 23 60  1  0
 25 61  1  0
 26 62  1  0
 28 63  1  0
 29 64  1  0
 32 65  1  0
 33 66  1  0
 33 67  1  0
 34 68  1  0
 34 69  1  0
M  END
>  <smiles>  (22) 
CN1CCN(Cc2ccc3c(=O)n(CC4CCCCC4)c(/C=C/c4ccncc4)nc3c2)CC1

>  <score_type>  (22) 
oracle

>  <origin>  (22) 
autodockgpu

>  <m_score__min__energy>  (22) 
-8.7799999999999994

>  <m_primary>  (22) 
energy

>  <rmsd>  (22) 
7.629202672546471

>  <m_score__min__rmsd>  (22) 
7.629202672546471

>  <meeko>  (22) 
{"free_energy": -7.83, "intermolecular_energy": -9.92, "internal_energy": -2.33, "cluster_size": 8, "cluster_id": 5, "rank_in_cluster": 7}

>  <energy>  (22) 
-8.11

>  <cluster_rmsd>  (22) 
0.81

>  <cluster>  (22) 
2

$$$$

     RDKit          3D

 69 73  0  0  0  0  0  0  0  0999 V2000
  139.1200   70.0120  228.7180 C   0  0  0  0  0  0  0  0  0  0  0  0
  140.3890   69.6400  228.1610 N   0  0  0  0  0  0  0  0  0  0  0  0
  140.4420   68.3350  227.5760 C   0  0  0  0  0  0  0  0  0  0  0  0
  140.5470   68.4250  226.0490 C   0  0  0  0  0  0  0  0  0  0  0  0
  139.9200   69.6210  225.6050 N   0  0  0  0  0  0  0  0  0  0  0  0
  139.2200   69.5790  224.3820 C   0  0  0  0  0  0  0  0  0  0  0  0
  139.0690   70.8370  223.6440 C   0  0  0  0  0  0  0  0  0  0  0  0
  137.8320   71.3980  223.3980 C   0  0  0  0  0  0  0  0  0  0  0  0
  137.6580   72.5780  222.7060 C   0  0  0  0  0  0  0  0  0  0  0  0
  138.7660   73.2570  222.2210 C   0  0  0  0  0  0  0  0  0  0  0  0
  138.6550   74.4450  221.5190 C   0  0  0  0  0  0  0  0  0  0  0  0
  137.4830   74.8730  221.3510 O   0  0  0  0  0  0  0  0  0  0  0  0
  139.7490   75.1090  221.0430 N   0  0  0  0  0  0  0  0  0  0  0  0
  139.5480   76.3160  220.3180 C   0  0  0  0  0  0  0  0  0  0  0  0
  140.0420   77.5810  220.9100 C   0  0  0  0  0  0  0  0  0  0  0  0
  141.1790   78.2300  220.1450 C   0  0  0  0  0  0  0  0  0  0  0  0
  141.7080   79.4700  220.8210 C   0  0  0  0  0  0  0  0  0  0  0  0
  140.7780   80.0390  221.8330 C   0  0  0  0  0  0  0  0  0  0  0  0
  140.2830   79.0590  222.8370 C   0  0  0  0  0  0  0  0  0  0  0  0
  140.3720   77.5990  222.3570 C   0  0  0  0  0  0  0  0  0  0  0  0
  140.9370   74.5360  221.3030 C   0  0  0  0  0  0  0  0  0  0  0  0
  142.1790   75.1850  220.8950 C   0  0  0  0  0  0  0  0  0  0  0  0
  142.8390   74.8170  219.8150 C   0  0  0  0  0  0  0  0  0  0  0  0
  144.0440   74.0090  219.8180 C   0  0  0  0  0  0  0  0  0  0  0  0
  145.1110   74.2180  220.6630 C   0  0  0  0  0  0  0  0  0  0  0  0
  146.2430   73.4270  220.6360 C   0  0  0  0  0  0  0  0  0  0  0  0
  146.3050   72.4020  219.7380 N   0  0  0  0  0  0  0  0  0  0  0  0
  145.2900   72.1610  218.8950 C   0  0  0  0  0  0  0  0  0  0  0  0
  144.1580   72.9590  218.9280 C   0  0  0  0  0  0  0  0  0  0  0  0
  141.0660   73.3750  221.9860 N   0  0  0  0  0  0  0  0  0  0  0  0
  139.9910   72.7110  222.4590 C   0  0  0  0  0  0  0  0  0  0  0  0
  140.1620   71.5360  223.1480 C   0  0  0  0  0  0  0  0  0  0  0  0
  140.4950   70.8470  226.0060 C   0  0  0  0  0  0  0  0  0  0  0  0
  141.0490   70.6620  227.4080 C   0  0  0  0  0  0  0  0  0  0  0  0
  139.1820   69.9938  229.8161 H   0  0  0  0  0  0  0  0  0  0  0  0
  138.8552   71.0256  228.3825 H   0  0  0  0  0  0  0  0  0  0  0  0
  138.3499   69.3018  228.3825 H   0  0  0  0  0  0  0  0  0  0  0  0
  141.3204   67.8004  227.9667 H   0  0  0  0  0  0  0  0  0  0  0  0
  139.5186   67.7959  227.8341 H   0  0  0  0  0  0  0  0  0  0  0  0
  141.6065   68.4339  225.7534 H   0  0  0  0  0  0  0  0  0  0  0  0
  140.0488   67.5565  225.5934 H   0  0  0  0  0  0  0  0  0  0  0  0
  139.7480   68.8728  223.7244 H   0  0  0  0  0  0  0  0  0  0  0  0
  138.1945   69.2906  224.6562 H   0  0  0  0  0  0  0  0  0  0  0  0
  136.9389   70.8769  223.7733 H   0  0  0  0  0  0  0  0  0  0  0  0
  136.6470   72.9782  222.5397 H   0  0  0  0  0  0  0  0  0  0  0  0
  140.0439   76.1970  219.3433 H   0  0  0  0  0  0  0  0  0  0  0  0
  138.4551   76.4376  220.2905 H   0  0  0  0  0  0  0  0  0  0  0  0
  139.1227   78.1765  220.8081 H   0  0  0  0  0  0  0  0  0  0  0  0
  141.9997   77.5034  220.0524 H   0  0  0  0  0  0  0  0  0  0  0  0
  140.7865   78.5313  219.1626 H   0  0  0  0  0  0  0  0  0  0  0  0
  142.6540   79.2165  221.3217 H   0  0  0  0  0  0  0  0  0  0  0  0
  141.8399   80.2324  220.0392 H   0  0  0  0  0  0  0  0  0  0  0  0
  141.3035   80.8435  222.3684 H   0  0  0  0  0  0  0  0  0  0  0  0
  139.8951   80.3942  221.2813 H   0  0  0  0  0  0  0  0  0  0  0  0
  140.8841   79.1630  223.7524 H   0  0  0  0  0  0  0  0  0  0  0  0
  139.2199   79.2804  223.0123 H   0  0  0  0  0  0  0  0  0  0  0  0
  141.3903   77.2139  222.5142 H   0  0  0  0  0  0  0  0  0  0  0  0
  139.6726   76.9639  222.9205 H   0  0  0  0  0  0  0  0  0  0  0  0
  142.5768   76.0071  221.5081 H   0  0  0  0  0  0  0  0  0  0  0  0
  142.4479   75.1463  218.8410 H   0  0  0  0  0  0  0  0  0  0  0  0
  145.0599   75.0453  221.3861 H   0  0  0  0  0  0  0  0  0  0  0  0
  147.0783   73.6199  221.3253 H   0  0  0  0  0  0  0  0  0  0  0  0
  145.3564   71.3298  218.1775 H   0  0  0  0  0  0  0  0  0  0  0  0
  143.3327   72.7520  218.2308 H   0  0  0  0  0  0  0  0  0  0  0  0
  141.1768   71.1434  223.3092 H   0  0  0  0  0  0  0  0  0  0  0  0
  141.3061   71.1234  225.3163 H   0  0  0  0  0  0  0  0  0  0  0  0
  139.7412   71.6480  225.9928 H   0  0  0  0  0  0  0  0  0  0  0  0
  142.1144   70.4001  227.3279 H   0  0  0  0  0  0  0  0  0  0  0  0
  140.8866   71.6090  227.9435 H   0  0  0  0  0  0  0  0  0  0  0  0
  1  2  1  0
  2  3  1  0
  3  4  1  0
  4  5  1  0
  5  6  1  0
  6  7  1  0
  7  8  2  0
  8  9  1  0
  9 10  2  0
 10 11  1  0
 11 12  2  0
 11 13  1  0
 13 14  1  0
 14 15  1  0
 15 16  1  0
 16 17  1  0
 17 18  1  0
 18 19  1  0
 19 20  1  0
 13 21  1  0
 21 22  1  0
 22 23  2  0
 23 24  1  0
 24 25  2  0
 25 26  1  0
 26 27  2  0
 27 28  1  0
 28 29  2  0
 21 30  2  0
 30 31  1  0
 31 32  2  0
  5 33  1  0
 33 34  1  0
 34  2  1  0
 32  7  1  0
 31 10  1  0
 20 15  1  0
 29 24  1  0
  1 35  1  0
  1 36  1  0
  1 37  1  0
  3 38  1  0
  3 39  1  0
  4 40  1  0
  4 41  1  0
  6 42  1  0
  6 43  1  0
  8 44  1  0
  9 45  1  0
 14 46  1  0
 14 47  1  0
 15 48  1  0
 16 49  1  0
 16 50  1  0
 17 51  1  0
 17 52  1  0
 18 53  1  0
 18 54  1  0
 19 55  1  0
 19 56  1  0
 20 57  1  0
 20 58  1  0
 22 59  1  0
 23 60  1  0
 25 61  1  0
 26 62  1  0
 28 63  1  0
 29 64  1  0
 32 65  1  0
 33 66  1  0
 33 67  1  0
 34 68  1  0
 34 69  1  0
M  END
>  <smiles>  (23) 
CN1CCN(Cc2ccc3c(=O)n(CC4CCCCC4)c(/C=C/c4ccncc4)nc3c2)CC1

>  <score_type>  (23) 
oracle

>  <origin>  (23) 
autodockgpu

>  <m_score__min__energy>  (23) 
-8.7799999999999994

>  <m_primary>  (23) 
energy

>  <rmsd>  (23) 
7.774377076864162

>  <m_score__min__rmsd>  (23) 
7.774377076864162

>  <meeko>  (23) 
{"free_energy": -8.78, "intermolecular_energy": -10.87, "internal_energy": -1.49, "cluster_size": 3, "cluster_id": 1, "rank_in_cluster": 1}

>  <energy>  (23) 
-8.11

>  <cluster_rmsd>  (23) 
1.25

>  <cluster>  (23) 
2

$$$$

     RDKit          3D

 69 73  0  0  0  0  0  0  0  0999 V2000
  142.9730   79.7180  222.8150 C   0  0  0  0  0  0  0  0  0  0  0  0
  142.2410   80.9460  222.6970 N   0  0  0  0  0  0  0  0  0  0  0  0
  141.6550   81.1870  221.4150 C   0  0  0  0  0  0  0  0  0  0  0  0
  140.1280   81.0570  221.4790 C   0  0  0  0  0  0  0  0  0  0  0  0
  139.7790   80.1390  222.5060 N   0  0  0  0  0  0  0  0  0  0  0  0
  138.6680   79.3010  222.2830 C   0  0  0  0  0  0  0  0  0  0  0  0
  138.9030   77.8530  222.2720 C   0  0  0  0  0  0  0  0  0  0  0  0
  140.1740   77.3180  222.2170 C   0  0  0  0  0  0  0  0  0  0  0  0
  140.4260   75.9610  222.2050 C   0  0  0  0  0  0  0  0  0  0  0  0
  139.3660   75.0670  222.2480 C   0  0  0  0  0  0  0  0  0  0  0  0
  139.5560   73.6970  222.2370 C   0  0  0  0  0  0  0  0  0  0  0  0
  140.7540   73.3110  222.1880 O   0  0  0  0  0  0  0  0  0  0  0  0
  138.5090   72.8210  222.2780 N   0  0  0  0  0  0  0  0  0  0  0  0
  138.7890   71.4260  222.2480 C   0  0  0  0  0  0  0  0  0  0  0  0
  139.0280   70.7300  223.5330 C   0  0  0  0  0  0  0  0  0  0  0  0
  140.1820   71.2860  224.3440 C   0  0  0  0  0  0  0  0  0  0  0  0
  140.4450   70.5000  225.6040 C   0  0  0  0  0  0  0  0  0  0  0  0
  139.3080   69.6330  226.0140 C   0  0  0  0  0  0  0  0  0  0  0  0
  138.7870   68.7480  224.9380 C   0  0  0  0  0  0  0  0  0  0  0  0
  139.1260   69.2480  223.5220 C   0  0  0  0  0  0  0  0  0  0  0  0
  137.2870   73.3760  222.3340 C   0  0  0  0  0  0  0  0  0  0  0  0
  136.0960   72.5400  222.4420 C   0  0  0  0  0  0  0  0  0  0  0  0
  135.6890   72.0470  223.5960 C   0  0  0  0  0  0  0  0  0  0  0  0
  134.9760   72.7990  224.6110 C   0  0  0  0  0  0  0  0  0  0  0  0
  135.0410   74.1680  224.7460 C   0  0  0  0  0  0  0  0  0  0  0  0
  134.3470   74.8500  225.7260 C   0  0  0  0  0  0  0  0  0  0  0  0
  133.5680   74.1380  226.5910 N   0  0  0  0  0  0  0  0  0  0  0  0
  133.4730   72.8040  226.4980 C   0  0  0  0  0  0  0  0  0  0  0  0
  134.1730   72.1280  225.5120 C   0  0  0  0  0  0  0  0  0  0  0  0
  137.0810   74.7140  222.3440 N   0  0  0  0  0  0  0  0  0  0  0  0
  138.1080   75.5870  222.3020 C   0  0  0  0  0  0  0  0  0  0  0  0
  137.8590   76.9360  222.3150 C   0  0  0  0  0  0  0  0  0  0  0  0
  140.0940   80.4960  223.8350 C   0  0  0  0  0  0  0  0  0  0  0  0
  141.4030   81.2660  223.8100 C   0  0  0  0  0  0  0  0  0  0  0  0
  143.1164   79.4774  223.8787 H   0  0  0  0  0  0  0  0  0  0  0  0
  142.4105   78.9076  222.3284 H   0  0  0  0  0  0  0  0  0  0  0  0
  143.9534   79.8274  222.3284 H   0  0  0  0  0  0  0  0  0  0  0  0
  141.9166   82.2030  221.0845 H   0  0  0  0  0  0  0  0  0  0  0  0
  142.0422   80.4410  220.7053 H   0  0  0  0  0  0  0  0  0  0  0  0
  139.6841   82.0395  221.6975 H   0  0  0  0  0  0  0  0  0  0  0  0
  139.7477   80.6927  220.5133 H   0  0  0  0  0  0  0  0  0  0  0  0
  137.9338   79.5096  223.0751 H   0  0  0  0  0  0  0  0  0  0  0  0
  138.3382   79.5391  221.2610 H   0  0  0  0  0  0  0  0  0  0  0  0
  141.0298   78.0082  222.1809 H   0  0  0  0  0  0  0  0  0  0  0  0
  141.4609   75.5907  222.1616 H   0  0  0  0  0  0  0  0  0  0  0  0
  137.9330   70.9324  221.7646 H   0  0  0  0  0  0  0  0  0  0  0  0
  139.7498   71.3534  221.7173 H   0  0  0  0  0  0  0  0  0  0  0  0
  138.0705   70.9616  224.0224 H   0  0  0  0  0  0  0  0  0  0  0  0
  141.0893   71.2670  223.7224 H   0  0  0  0  0  0  0  0  0  0  0  0
  139.9128   72.3097  224.6432 H   0  0  0  0  0  0  0  0  0  0  0  0
  141.3261   69.8626  225.4386 H   0  0  0  0  0  0  0  0  0  0  0  0
  140.6017   71.2296  226.4122 H   0  0  0  0  0  0  0  0  0  0  0  0
  139.6430   68.9989  226.8481 H   0  0  0  0  0  0  0  0  0  0  0  0
  138.4842   70.3077  226.2900 H   0  0  0  0  0  0  0  0  0  0  0  0
  139.2224   67.7463  225.0683 H   0  0  0  0  0  0  0  0  0  0  0  0
  137.6906   68.7377  225.0265 H   0  0  0  0  0  0  0  0  0  0  0  0
  140.1471   68.9417  223.2506 H   0  0  0  0  0  0  0  0  0  0  0  0
  138.4305   68.8205  222.7848 H   0  0  0  0  0  0  0  0  0  0  0  0
  135.5195   72.3138  221.5329 H   0  0  0  0  0  0  0  0  0  0  0  0
  135.9061   70.9888  223.8036 H   0  0  0  0  0  0  0  0  0  0  0  0
  135.6692   74.7397  224.0471 H   0  0  0  0  0  0  0  0  0  0  0  0
  134.4207   75.9445  225.8076 H   0  0  0  0  0  0  0  0  0  0  0  0
  132.8398   72.2467  227.2040 H   0  0  0  0  0  0  0  0  0  0  0  0
  134.0873   71.0334  225.4454 H   0  0  0  0  0  0  0  0  0  0  0  0
  136.8207   77.2965  222.3600 H   0  0  0  0  0  0  0  0  0  0  0  0
  139.2959   81.1278  224.2521 H   0  0  0  0  0  0  0  0  0  0  0  0
  140.1881   79.5975  224.4626 H   0  0  0  0  0  0  0  0  0  0  0  0
  141.1721   82.3408  223.7722 H   0  0  0  0  0  0  0  0  0  0  0  0
  141.9565   80.9852  224.7181 H   0  0  0  0  0  0  0  0  0  0  0  0
  1  2  1  0
  2  3  1  0
  3  4  1  0
  4  5  1  0
  5  6  1  0
  6  7  1  0
  7  8  2  0
  8  9  1  0
  9 10  2  0
 10 11  1  0
 11 12  2  0
 11 13  1  0
 13 14  1  0
 14 15  1  0
 15 16  1  0
 16 17  1  0
 17 18  1  0
 18 19  1  0
 19 20  1  0
 13 21  1  0
 21 22  1  0
 22 23  2  0
 23 24  1  0
 24 25  2  0
 25 26  1  0
 26 27  2  0
 27 28  1  0
 28 29  2  0
 21 30  2  0
 30 31  1  0
 31 32  2  0
  5 33  1  0
 33 34  1  0
 34  2  1  0
 32  7  1  0
 31 10  1  0
 20 15  1  0
 29 24  1  0
  1 35  1  0
  1 36  1  0
  1 37  1  0
  3 38  1  0
  3 39  1  0
  4 40  1  0
  4 41  1  0
  6 42  1  0
  6 43  1  0
  8 44  1  0
  9 45  1  0
 14 46  1  0
 14 47  1  0
 15 48  1  0
 16 49  1  0
 16 50  1  0
 17 51  1  0
 17 52  1  0
 18 53  1  0
 18 54  1  0
 19 55  1  0
 19 56  1  0
 20 57  1  0
 20 58  1  0
 22 59  1  0
 23 60  1  0
 25 61  1  0
 26 62  1  0
 28 63  1  0
 29 64  1  0
 32 65  1  0
 33 66  1  0
 33 67  1  0
 34 68  1  0
 34 69  1  0
M  END
>  <smiles>  (24) 
CN1CCN(Cc2ccc3c(=O)n(CC4CCCCC4)c(/C=C/c4ccncc4)nc3c2)CC1

>  <score_type>  (24) 
oracle

>  <origin>  (24) 
autodockgpu

>  <m_score__min__energy>  (24) 
-8.7799999999999994

>  <m_primary>  (24) 
energy

>  <rmsd>  (24) 
7.35307319374879

>  <m_score__min__rmsd>  (24) 
7.35307319374879

>  <meeko>  (24) 
{"free_energy": -8.26, "intermolecular_energy": -10.34, "internal_energy": -1.95, "cluster_size": 24, "cluster_id": 2, "rank_in_cluster": 10}

>  <energy>  (24) 
-8.04

>  <cluster_rmsd>  (24) 
1.15

>  <cluster>  (24) 
2

$$$$

     RDKit          3D

 69 73  0  0  0  0  0  0  0  0999 V2000
  139.3910   80.2260  223.7030 C   0  0  0  0  0  0  0  0  0  0  0  0
  140.6810   80.7900  223.4290 N   0  0  0  0  0  0  0  0  0  0  0  0
  141.7960   80.0160  223.8810 C   0  0  0  0  0  0  0  0  0  0  0  0
  142.5500   79.4000  222.6960 C   0  0  0  0  0  0  0  0  0  0  0  0
  141.6430   79.1910  221.6210 N   0  0  0  0  0  0  0  0  0  0  0  0
  141.8280   78.0430  220.8240 C   0  0  0  0  0  0  0  0  0  0  0  0
  140.8100   76.9900  220.9050 C   0  0  0  0  0  0  0  0  0  0  0  0
  139.5810   77.1110  220.2880 C   0  0  0  0  0  0  0  0  0  0  0  0
  138.6040   76.1380  220.3480 C   0  0  0  0  0  0  0  0  0  0  0  0
  138.8430   74.9710  221.0570 C   0  0  0  0  0  0  0  0  0  0  0  0
  137.9010   73.9610  221.1530 C   0  0  0  0  0  0  0  0  0  0  0  0
  136.8140   74.1670  220.5530 O   0  0  0  0  0  0  0  0  0  0  0  0
  138.1400   72.8130  221.8540 N   0  0  0  0  0  0  0  0  0  0  0  0
  137.1150   71.8300  221.9160 C   0  0  0  0  0  0  0  0  0  0  0  0
  136.1810   71.8590  223.0660 C   0  0  0  0  0  0  0  0  0  0  0  0
  135.8670   73.2480  223.5850 C   0  0  0  0  0  0  0  0  0  0  0  0
  134.9810   73.2320  224.8040 C   0  0  0  0  0  0  0  0  0  0  0  0
  134.2630   71.9440  225.0030 C   0  0  0  0  0  0  0  0  0  0  0  0
  135.1360   70.7400  224.9670 C   0  0  0  0  0  0  0  0  0  0  0  0
  136.4640   70.9730  224.2230 C   0  0  0  0  0  0  0  0  0  0  0  0
  139.3470   72.7280  222.4390 C   0  0  0  0  0  0  0  0  0  0  0  0
  139.7380   71.5240  223.1640 C   0  0  0  0  0  0  0  0  0  0  0  0
  140.6900   71.5340  224.0770 C   0  0  0  0  0  0  0  0  0  0  0  0
  140.5020   71.1750  225.4700 C   0  0  0  0  0  0  0  0  0  0  0  0
  141.0250   71.8860  226.5270 C   0  0  0  0  0  0  0  0  0  0  0  0
  140.8250   71.5130  227.8420 C   0  0  0  0  0  0  0  0  0  0  0  0
  140.0810   70.3980  228.1000 N   0  0  0  0  0  0  0  0  0  0  0  0
  139.5520   69.6760  227.1030 C   0  0  0  0  0  0  0  0  0  0  0  0
  139.7570   70.0570  225.7870 C   0  0  0  0  0  0  0  0  0  0  0  0
  140.2800   73.7050  222.3570 N   0  0  0  0  0  0  0  0  0  0  0  0
  140.0530   74.8430  221.6690 C   0  0  0  0  0  0  0  0  0  0  0  0
  141.0230   75.8110  221.6090 C   0  0  0  0  0  0  0  0  0  0  0  0
  141.0580   80.3310  221.0300 C   0  0  0  0  0  0  0  0  0  0  0  0
  140.8340   81.3590  222.1250 C   0  0  0  0  0  0  0  0  0  0  0  0
  139.2428   80.1612  224.7910 H   0  0  0  0  0  0  0  0  0  0  0  0
  138.6107   80.8651  223.2641 H   0  0  0  0  0  0  0  0  0  0  0  0
  139.3303   79.2192  223.2641 H   0  0  0  0  0  0  0  0  0  0  0  0
  142.4809   80.6662  224.4451 H   0  0  0  0  0  0  0  0  0  0  0  0
  141.4234   79.2032  224.5217 H   0  0  0  0  0  0  0  0  0  0  0  0
  143.3503   80.0827  222.3744 H   0  0  0  0  0  0  0  0  0  0  0  0
  142.9913   78.4389  222.9987 H   0  0  0  0  0  0  0  0  0  0  0  0
  141.8768   78.3740  219.7761 H   0  0  0  0  0  0  0  0  0  0  0  0
  142.7447   77.5765  221.2138 H   0  0  0  0  0  0  0  0  0  0  0  0
  139.3698   78.0290  219.7200 H   0  0  0  0  0  0  0  0  0  0  0  0
  137.6417   76.2876  219.8365 H   0  0  0  0  0  0  0  0  0  0  0  0
  136.5102   71.9324  221.0029 H   0  0  0  0  0  0  0  0  0  0  0  0
  137.6573   70.8800  222.0313 H   0  0  0  0  0  0  0  0  0  0  0  0
  135.2992   71.4280  222.5693 H   0  0  0  0  0  0  0  0  0  0  0  0
  136.8120   73.7477  223.8444 H   0  0  0  0  0  0  0  0  0  0  0  0
  135.3259   73.7828  222.7905 H   0  0  0  0  0  0  0  0  0  0  0  0
  135.6049   73.4225  225.6897 H   0  0  0  0  0  0  0  0  0  0  0  0
  134.2155   74.0080  224.6560 H   0  0  0  0  0  0  0  0  0  0  0  0
  133.7631   71.9769  225.9823 H   0  0  0  0  0  0  0  0  0  0  0  0
  133.5585   71.8453  224.1640 H   0  0  0  0  0  0  0  0  0  0  0  0
  135.3628   70.4420  226.0013 H   0  0  0  0  0  0  0  0  0  0  0  0
  134.5893   69.9572  224.4207 H   0  0  0  0  0  0  0  0  0  0  0  0
  137.1908   71.4536  224.8945 H   0  0  0  0  0  0  0  0  0  0  0  0
  136.8890   70.0172  223.8827 H   0  0  0  0  0  0  0  0  0  0  0  0
  139.2226   70.5778  222.9423 H   0  0  0  0  0  0  0  0  0  0  0  0
  141.6988   71.8362  223.7593 H   0  0  0  0  0  0  0  0  0  0  0  0
  141.6242   72.7842  226.3164 H   0  0  0  0  0  0  0  0  0  0  0  0
  141.2565   72.1025  228.6644 H   0  0  0  0  0  0  0  0  0  0  0  0
  138.9548   68.7805  227.3295 H   0  0  0  0  0  0  0  0  0  0  0  0
  139.3169   69.4560  224.9776 H   0  0  0  0  0  0  0  0  0  0  0  0
  141.9815   75.6520  222.1246 H   0  0  0  0  0  0  0  0  0  0  0  0
  141.7311   80.7419  220.2631 H   0  0  0  0  0  0  0  0  0  0  0  0
  140.1041   80.0677  220.5495 H   0  0  0  0  0  0  0  0  0  0  0  0
  141.6975   82.0402  222.1430 H   0  0  0  0  0  0  0  0  0  0  0  0
  139.8931   81.8779  221.8896 H   0  0  0  0  0  0  0  0  0  0  0  0
  1  2  1  0
  2  3  1  0
  3  4  1  0
  4  5  1  0
  5  6  1  0
  6  7  1  0
  7  8  2  0
  8  9  1  0
  9 10  2  0
 10 11  1  0
 11 12  2  0
 11 13  1  0
 13 14  1  0
 14 15  1  0
 15 16  1  0
 16 17  1  0
 17 18  1  0
 18 19  1  0
 19 20  1  0
 13 21  1  0
 21 22  1  0
 22 23  2  0
 23 24  1  0
 24 25  2  0
 25 26  1  0
 26 27  2  0
 27 28  1  0
 28 29  2  0
 21 30  2  0
 30 31  1  0
 31 32  2  0
  5 33  1  0
 33 34  1  0
 34  2  1  0
 32  7  1  0
 31 10  1  0
 20 15  1  0
 29 24  1  0
  1 35  1  0
  1 36  1  0
  1 37  1  0
  3 38  1  0
  3 39  1  0
  4 40  1  0
  4 41  1  0
  6 42  1  0
  6 43  1  0
  8 44  1  0
  9 45  1  0
 14 46  1  0
 14 47  1  0
 15 48  1  0
 16 49  1  0
 16 50  1  0
 17 51  1  0
 17 52  1  0
 18 53  1  0
 18 54  1  0
 19 55  1  0
 19 56  1  0
 20 57  1  0
 20 58  1  0
 22 59  1  0
 23 60  1  0
 25 61  1  0
 26 62  1  0
 28 63  1  0
 29 64  1  0
 32 65  1  0
 33 66  1  0
 33 67  1  0
 34 68  1  0
 34 69  1  0
M  END
>  <smiles>  (25) 
CN1CCN(Cc2ccc3c(=O)n(CC4CCCCC4)c(/C=C/c4ccncc4)nc3c2)CC1

>  <score_type>  (25) 
oracle

>  <origin>  (25) 
autodockgpu

>  <m_score__min__energy>  (25) 
-8.7799999999999994

>  <m_primary>  (25) 
energy

>  <rmsd>  (25) 
7.4849447475753825

>  <m_score__min__rmsd>  (25) 
7.4849447475753825

>  <meeko>  (25) 
{"free_energy": -8.11, "intermolecular_energy": -10.19, "internal_energy": -1.95, "cluster_size": 11, "cluster_id": 3, "rank_in_cluster": 10}

>  <energy>  (25) 
-8.03

>  <cluster_rmsd>  (25) 
0.78

>  <cluster>  (25) 
2

$$$$

     RDKit          3D

 69 73  0  0  0  0  0  0  0  0999 V2000
  140.8820   82.0390  222.3430 C   0  0  0  0  0  0  0  0  0  0  0  0
  140.9090   81.0890  223.4170 N   0  0  0  0  0  0  0  0  0  0  0  0
  139.8120   80.1710  223.4500 C   0  0  0  0  0  0  0  0  0  0  0  0
  140.2720   78.7580  223.0730 C   0  0  0  0  0  0  0  0  0  0  0  0
  141.3890   78.8460  222.1980 N   0  0  0  0  0  0  0  0  0  0  0  0
  141.4920   77.8870  221.1710 C   0  0  0  0  0  0  0  0  0  0  0  0
  140.5520   76.7610  221.1970 C   0  0  0  0  0  0  0  0  0  0  0  0
  139.3420   76.8020  220.5340 C   0  0  0  0  0  0  0  0  0  0  0  0
  138.4380   75.7600  220.5410 C   0  0  0  0  0  0  0  0  0  0  0  0
  138.7340   74.6010  221.2430 C   0  0  0  0  0  0  0  0  0  0  0  0
  137.8670   73.5240  221.2880 C   0  0  0  0  0  0  0  0  0  0  0  0
  136.7910   73.6600  220.6480 O   0  0  0  0  0  0  0  0  0  0  0  0
  138.1620   72.3850  221.9820 N   0  0  0  0  0  0  0  0  0  0  0  0
  137.2100   71.3290  221.9900 C   0  0  0  0  0  0  0  0  0  0  0  0
  136.3050   71.2070  223.1570 C   0  0  0  0  0  0  0  0  0  0  0  0
  135.8060   72.5280  223.7050 C   0  0  0  0  0  0  0  0  0  0  0  0
  134.9560   72.3670  224.9400 C   0  0  0  0  0  0  0  0  0  0  0  0
  134.4340   70.9870  225.1280 C   0  0  0  0  0  0  0  0  0  0  0  0
  135.4690   69.9200  225.0550 C   0  0  0  0  0  0  0  0  0  0  0  0
  136.7350   70.3530  224.2930 C   0  0  0  0  0  0  0  0  0  0  0  0
  139.3490   72.3790  222.6130 C   0  0  0  0  0  0  0  0  0  0  0  0
  139.7990   71.1950  223.3360 C   0  0  0  0  0  0  0  0  0  0  0  0
  140.7540   71.2500  224.2450 C   0  0  0  0  0  0  0  0  0  0  0  0
  140.5550   71.0350  225.6660 C   0  0  0  0  0  0  0  0  0  0  0  0
  141.0080   71.8910  226.6460 C   0  0  0  0  0  0  0  0  0  0  0  0
  140.8000   71.6520  227.9910 C   0  0  0  0  0  0  0  0  0  0  0  0
  140.1210   70.5280  228.3590 N   0  0  0  0  0  0  0  0  0  0  0  0
  139.6610   69.6670  227.4400 C   0  0  0  0  0  0  0  0  0  0  0  0
  139.8740   69.9130  226.0930 C   0  0  0  0  0  0  0  0  0  0  0  0
  140.2100   73.4230  222.5820 N   0  0  0  0  0  0  0  0  0  0  0  0
  139.9260   74.5520  221.9010 C   0  0  0  0  0  0  0  0  0  0  0  0
  140.8250   75.5890  221.8930 C   0  0  0  0  0  0  0  0  0  0  0  0
  142.5780   79.4080  222.7130 C   0  0  0  0  0  0  0  0  0  0  0  0
  142.1870   80.5070  223.6860 C   0  0  0  0  0  0  0  0  0  0  0  0
  140.8530   83.0582  222.7557 H   0  0  0  0  0  0  0  0  0  0  0  0
  141.7839   81.9192  221.7248 H   0  0  0  0  0  0  0  0  0  0  0  0
  139.9883   81.8682  221.7248 H   0  0  0  0  0  0  0  0  0  0  0  0
  139.3873   80.1532  224.4645 H   0  0  0  0  0  0  0  0  0  0  0  0
  139.0549   80.5006  222.7233 H   0  0  0  0  0  0  0  0  0  0  0  0
  140.5598   78.2102  223.9825 H   0  0  0  0  0  0  0  0  0  0  0  0
  139.4513   78.2247  222.5709 H   0  0  0  0  0  0  0  0  0  0  0  0
  141.3503   78.4121  220.2149 H   0  0  0  0  0  0  0  0  0  0  0  0
  142.4815   77.4285  221.3149 H   0  0  0  0  0  0  0  0  0  0  0  0
  139.0855   77.7118  219.9715 H   0  0  0  0  0  0  0  0  0  0  0  0
  137.4882   75.8478  219.9932 H   0  0  0  0  0  0  0  0  0  0  0  0
  136.5772   71.4544  221.0990 H   0  0  0  0  0  0  0  0  0  0  0  0
  137.8200   70.4143  222.0232 H   0  0  0  0  0  0  0  0  0  0  0  0
  135.4839   70.6615  222.6690 H   0  0  0  0  0  0  0  0  0  0  0  0
  136.6746   73.1546  223.9559 H   0  0  0  0  0  0  0  0  0  0  0  0
  135.1778   72.9910  222.9298 H   0  0  0  0  0  0  0  0  0  0  0  0
  135.5642   72.6313  225.8176 H   0  0  0  0  0  0  0  0  0  0  0  0
  134.0848   73.0278  224.8203 H   0  0  0  0  0  0  0  0  0  0  0  0
  133.9541   70.9330  226.1163 H   0  0  0  0  0  0  0  0  0  0  0  0
  133.7348   70.8016  224.2993 H   0  0  0  0  0  0  0  0  0  0  0  0
  135.7561   69.6409  226.0795 H   0  0  0  0  0  0  0  0  0  0  0  0
  135.0291   69.0755  224.5042 H   0  0  0  0  0  0  0  0  0  0  0  0
  137.3982   70.9227  224.9606 H   0  0  0  0  0  0  0  0  0  0  0  0
  137.2862   69.4737  223.9283 H   0  0  0  0  0  0  0  0  0  0  0  0
  139.3275   70.2257  223.1167 H   0  0  0  0  0  0  0  0  0  0  0  0
  141.7742   71.4750  223.9007 H   0  0  0  0  0  0  0  0  0  0  0  0
  141.5549   72.7973  226.3469 H   0  0  0  0  0  0  0  0  0  0  0  0
  141.1747   72.3545  228.7499 H   0  0  0  0  0  0  0  0  0  0  0  0
  139.1147   68.7657  227.7551 H   0  0  0  0  0  0  0  0  0  0  0  0
  139.4923   69.1990  225.3484 H   0  0  0  0  0  0  0  0  0  0  0  0
  141.7723   75.4916  222.4436 H   0  0  0  0  0  0  0  0  0  0  0  0
  143.1616   78.6356  223.2353 H   0  0  0  0  0  0  0  0  0  0  0  0
  143.1947   79.8164  221.8988 H   0  0  0  0  0  0  0  0  0  0  0  0
  142.1676   80.0814  224.7001 H   0  0  0  0  0  0  0  0  0  0  0  0
  142.9326   81.3088  223.5797 H   0  0  0  0  0  0  0  0  0  0  0  0
  1  2  1  0
  2  3  1  0
  3  4  1  0
  4  5  1  0
  5  6  1  0
  6  7  1  0
  7  8  2  0
  8  9  1  0
  9 10  2  0
 10 11  1  0
 11 12  2  0
 11 13  1  0
 13 14  1  0
 14 15  1  0
 15 16  1  0
 16 17  1  0
 17 18  1  0
 18 19  1  0
 19 20  1  0
 13 21  1  0
 21 22  1  0
 22 23  2  0
 23 24  1  0
 24 25  2  0
 25 26  1  0
 26 27  2  0
 27 28  1  0
 28 29  2  0
 21 30  2  0
 30 31  1  0
 31 32  2  0
  5 33  1  0
 33 34  1  0
 34  2  1  0
 32  7  1  0
 31 10  1  0
 20 15  1  0
 29 24  1  0
  1 35  1  0
  1 36  1  0
  1 37  1  0
  3 38  1  0
  3 39  1  0
  4 40  1  0
  4 41  1  0
  6 42  1  0
  6 43  1  0
  8 44  1  0
  9 45  1  0
 14 46  1  0
 14 47  1  0
 15 48  1  0
 16 49  1  0
 16 50  1  0
 17 51  1  0
 17 52  1  0
 18 53  1  0
 18 54  1  0
 19 55  1  0
 19 56  1  0
 20 57  1  0
 20 58  1  0
 22 59  1  0
 23 60  1  0
 25 61  1  0
 26 62  1  0
 28 63  1  0
 29 64  1  0
 32 65  1  0
 33 66  1  0
 33 67  1  0
 34 68  1  0
 34 69  1  0
M  END
>  <smiles>  (26) 
CN1CCN(Cc2ccc3c(=O)n(CC4CCCCC4)c(/C=C/c4ccncc4)nc3c2)CC1

>  <score_type>  (26) 
oracle

>  <origin>  (26) 
autodockgpu

>  <m_score__min__energy>  (26) 
-8.7799999999999994

>  <m_primary>  (26) 
energy

>  <rmsd>  (26) 
7.833674570877286

>  <m_score__min__rmsd>  (26) 
7.833674570877286

>  <meeko>  (26) 
{"free_energy": -8.34, "intermolecular_energy": -10.43, "internal_energy": -1.92, "cluster_size": 11, "cluster_id": 3, "rank_in_cluster": 2}

>  <energy>  (26) 
-8.02

>  <cluster_rmsd>  (26) 
1.59

>  <cluster>  (26) 
2

$$$$

     RDKit          3D

 69 73  0  0  0  0  0  0  0  0999 V2000
  139.6030   80.8820  223.6390 C   0  0  0  0  0  0  0  0  0  0  0  0
  140.9760   81.2640  223.4720 N   0  0  0  0  0  0  0  0  0  0  0  0
  141.9360   80.2630  223.8230 C   0  0  0  0  0  0  0  0  0  0  0  0
  142.6310   79.7110  222.5720 C   0  0  0  0  0  0  0  0  0  0  0  0
  141.7460   79.8070  221.4640 N   0  0  0  0  0  0  0  0  0  0  0  0
  141.7800   78.7720  220.5080 C   0  0  0  0  0  0  0  0  0  0  0  0
  141.1440   77.4990  220.8640 C   0  0  0  0  0  0  0  0  0  0  0  0
  139.8580   77.4370  221.3620 C   0  0  0  0  0  0  0  0  0  0  0  0
  139.2340   76.2560  221.7060 C   0  0  0  0  0  0  0  0  0  0  0  0
  139.9110   75.0550  221.5550 C   0  0  0  0  0  0  0  0  0  0  0  0
  139.3380   73.8390  221.8850 C   0  0  0  0  0  0  0  0  0  0  0  0
  138.1610   73.8910  222.3280 O   0  0  0  0  0  0  0  0  0  0  0  0
  140.0090   72.6590  221.7360 N   0  0  0  0  0  0  0  0  0  0  0  0
  139.3540   71.4530  222.1120 C   0  0  0  0  0  0  0  0  0  0  0  0
  139.6970   70.8450  223.4170 C   0  0  0  0  0  0  0  0  0  0  0  0
  138.5670   70.0690  224.0650 C   0  0  0  0  0  0  0  0  0  0  0  0
  138.9280   69.5350  225.4280 C   0  0  0  0  0  0  0  0  0  0  0  0
  140.3920   69.4980  225.6850 C   0  0  0  0  0  0  0  0  0  0  0  0
  141.0980   70.7800  225.4150 C   0  0  0  0  0  0  0  0  0  0  0  0
  140.3340   71.7030  224.4470 C   0  0  0  0  0  0  0  0  0  0  0  0
  141.2570   72.7560  221.2470 C   0  0  0  0  0  0  0  0  0  0  0  0
  142.0480   71.5580  220.9880 C   0  0  0  0  0  0  0  0  0  0  0  0
  143.3490   71.5180  221.2030 C   0  0  0  0  0  0  0  0  0  0  0  0
  144.3470   72.1320  220.3480 C   0  0  0  0  0  0  0  0  0  0  0  0
  144.3850   71.9860  218.9790 C   0  0  0  0  0  0  0  0  0  0  0  0
  145.3530   72.5860  218.1970 C   0  0  0  0  0  0  0  0  0  0  0  0
  146.3050   73.3510  218.8060 N   0  0  0  0  0  0  0  0  0  0  0  0
  146.3080   73.5210  220.1350 C   0  0  0  0  0  0  0  0  0  0  0  0
  145.3340   72.9150  220.9130 C   0  0  0  0  0  0  0  0  0  0  0  0
  141.8340   73.9360  220.9200 N   0  0  0  0  0  0  0  0  0  0  0  0
  141.1810   75.1070  221.0650 C   0  0  0  0  0  0  0  0  0  0  0  0
  141.8000   76.2820  220.7230 C   0  0  0  0  0  0  0  0  0  0  0  0
  141.3720   81.1010  221.0380 C   0  0  0  0  0  0  0  0  0  0  0  0
  141.2690   81.9820  222.2710 C   0  0  0  0  0  0  0  0  0  0  0  0
  139.3684   80.8167  224.7117 H   0  0  0  0  0  0  0  0  0  0  0  0
  138.9533   81.6335  223.1667 H   0  0  0  0  0  0  0  0  0  0  0  0
  139.4347   79.9029  223.1667 H   0  0  0  0  0  0  0  0  0  0  0  0
  142.6912   80.7057  224.4892 H   0  0  0  0  0  0  0  0  0  0  0  0
  141.4147   79.4373  224.3295 H   0  0  0  0  0  0  0  0  0  0  0  0
  143.5402   80.2957  222.3682 H   0  0  0  0  0  0  0  0  0  0  0  0
  142.9046   78.6582  222.7359 H   0  0  0  0  0  0  0  0  0  0  0  0
  141.2835   79.1457  219.6003 H   0  0  0  0  0  0  0  0  0  0  0  0
  142.8471   78.5299  220.3955 H   0  0  0  0  0  0  0  0  0  0  0  0
  139.3025   78.3776  221.4911 H   0  0  0  0  0  0  0  0  0  0  0  0
  138.2061   76.2666  222.0975 H   0  0  0  0  0  0  0  0  0  0  0  0
  138.2735   71.6591  222.1228 H   0  0  0  0  0  0  0  0  0  0  0  0
  139.6968   70.7159  221.3710 H   0  0  0  0  0  0  0  0  0  0  0  0
  140.4848   70.1589  223.0725 H   0  0  0  0  0  0  0  0  0  0  0  0
  137.6977   70.7351  224.1680 H   0  0  0  0  0  0  0  0  0  0  0  0
  138.3471   69.2056  223.4199 H   0  0  0  0  0  0  0  0  0  0  0  0
  138.4577   70.1760  226.1882 H   0  0  0  0  0  0  0  0  0  0  0  0
  138.5665   68.4971  225.4736 H   0  0  0  0  0  0  0  0  0  0  0  0
  140.5489   69.2351  226.7415 H   0  0  0  0  0  0  0  0  0  0  0  0
  140.8132   68.7563  224.9904 H   0  0  0  0  0  0  0  0  0  0  0  0
  141.2353   71.3108  226.3686 H   0  0  0  0  0  0  0  0  0  0  0  0
  142.0574   70.5300  224.9385 H   0  0  0  0  0  0  0  0  0  0  0  0
  139.5639   72.2659  224.9948 H   0  0  0  0  0  0  0  0  0  0  0  0
  141.0200   72.4240  223.9786 H   0  0  0  0  0  0  0  0  0  0  0  0
  141.5440   70.6600  220.6014 H   0  0  0  0  0  0  0  0  0  0  0  0
  143.7025   70.9802  222.0951 H   0  0  0  0  0  0  0  0  0  0  0  0
  143.6165   71.3691  218.4904 H   0  0  0  0  0  0  0  0  0  0  0  0
  145.3563   72.4499  217.1055 H   0  0  0  0  0  0  0  0  0  0  0  0
  147.0832   74.1413  220.6085 H   0  0  0  0  0  0  0  0  0  0  0  0
  145.3476   73.0609  222.0032 H   0  0  0  0  0  0  0  0  0  0  0  0
  142.8281   76.2609  220.3324 H   0  0  0  0  0  0  0  0  0  0  0  0
  142.1320   81.5038  220.3523 H   0  0  0  0  0  0  0  0  0  0  0  0
  140.4093   81.0682  220.5067 H   0  0  0  0  0  0  0  0  0  0  0  0
  142.2278   82.5044  222.4047 H   0  0  0  0  0  0  0  0  0  0  0  0
  140.4316   82.6745  222.1001 H   0  0  0  0  0  0  0  0  0  0  0  0
  1  2  1  0
  2  3  1  0
  3  4  1  0
  4  5  1  0
  5  6  1  0
  6  7  1  0
  7  8  2  0
  8  9  1  0
  9 10  2  0
 10 11  1  0
 11 12  2  0
 11 13  1  0
 13 14  1  0
 14 15  1  0
 15 16  1  0
 16 17  1  0
 17 18  1  0
 18 19  1  0
 19 20  1  0
 13 21  1  0
 21 22  1  0
 22 23  2  0
 23 24  1  0
 24 25  2  0
 25 26  1  0
 26 27  2  0
 27 28  1  0
 28 29  2  0
 21 30  2  0
 30 31  1  0
 31 32  2  0
  5 33  1  0
 33 34  1  0
 34  2  1  0
 32  7  1  0
 31 10  1  0
 20 15  1  0
 29 24  1  0
  1 35  1  0
  1 36  1  0
  1 37  1  0
  3 38  1  0
  3 39  1  0
  4 40  1  0
  4 41  1  0
  6 42  1  0
  6 43  1  0
  8 44  1  0
  9 45  1  0
 14 46  1  0
 14 47  1  0
 15 48  1  0
 16 49  1  0
 16 50  1  0
 17 51  1  0
 17 52  1  0
 18 53  1  0
 18 54  1  0
 19 55  1  0
 19 56  1  0
 20 57  1  0
 20 58  1  0
 22 59  1  0
 23 60  1  0
 25 61  1  0
 26 62  1  0
 28 63  1  0
 29 64  1  0
 32 65  1  0
 33 66  1  0
 33 67  1  0
 34 68  1  0
 34 69  1  0
M  END
>  <smiles>  (27) 
CN1CCN(Cc2ccc3c(=O)n(CC4CCCCC4)c(/C=C/c4ccncc4)nc3c2)CC1

>  <score_type>  (27) 
oracle

>  <origin>  (27) 
autodockgpu

>  <m_score__min__energy>  (27) 
-8.7799999999999994

>  <m_primary>  (27) 
energy

>  <rmsd>  (27) 
7.7514521977380175

>  <m_score__min__rmsd>  (27) 
7.7514521977380175

>  <meeko>  (27) 
{"free_energy": -8.35, "intermolecular_energy": -10.43, "internal_energy": -1.89, "cluster_size": 4, "cluster_id": 4, "rank_in_cluster": 2}

>  <energy>  (27) 
-7.98

>  <cluster_rmsd>  (27) 
0.69

>  <cluster>  (27) 
2

$$$$

     RDKit          3D

 69 73  0  0  0  0  0  0  0  0999 V2000
  141.2930   81.8090  221.9900 C   0  0  0  0  0  0  0  0  0  0  0  0
  141.2320   80.8990  223.0970 N   0  0  0  0  0  0  0  0  0  0  0  0
  139.9140   80.5120  223.4980 C   0  0  0  0  0  0  0  0  0  0  0  0
  139.6420   79.0470  223.1370 C   0  0  0  0  0  0  0  0  0  0  0  0
  140.4100   78.6960  221.9940 N   0  0  0  0  0  0  0  0  0  0  0  0
  139.8290   77.8110  221.0620 C   0  0  0  0  0  0  0  0  0  0  0  0
  139.9010   76.3750  221.3560 C   0  0  0  0  0  0  0  0  0  0  0  0
  141.0910   75.6770  221.3130 C   0  0  0  0  0  0  0  0  0  0  0  0
  141.1880   74.3280  221.5830 C   0  0  0  0  0  0  0  0  0  0  0  0
  140.0480   73.6120  221.9160 C   0  0  0  0  0  0  0  0  0  0  0  0
  140.0830   72.2570  222.1950 C   0  0  0  0  0  0  0  0  0  0  0  0
  141.2180   71.7140  222.1320 O   0  0  0  0  0  0  0  0  0  0  0  0
  138.9570   71.5560  222.5210 N   0  0  0  0  0  0  0  0  0  0  0  0
  139.0770   70.1620  222.7800 C   0  0  0  0  0  0  0  0  0  0  0  0
  139.5510   69.7340  224.1160 C   0  0  0  0  0  0  0  0  0  0  0  0
  138.8260   68.5300  224.6830 C   0  0  0  0  0  0  0  0  0  0  0  0
  139.2810   68.1750  226.0770 C   0  0  0  0  0  0  0  0  0  0  0  0
  140.5910   68.7730  226.4470 C   0  0  0  0  0  0  0  0  0  0  0  0
  140.6870   70.2400  226.2170 C   0  0  0  0  0  0  0  0  0  0  0  0
  139.6730   70.7600  225.1820 C   0  0  0  0  0  0  0  0  0  0  0  0
  137.8180   72.2670  222.5550 C   0  0  0  0  0  0  0  0  0  0  0  0
  136.5620   71.6380  222.9500 C   0  0  0  0  0  0  0  0  0  0  0  0
  136.0450   71.8000  224.1530 C   0  0  0  0  0  0  0  0  0  0  0  0
  135.2300   70.8180  224.8410 C   0  0  0  0  0  0  0  0  0  0  0  0
  135.3220   69.4590  224.6370 C   0  0  0  0  0  0  0  0  0  0  0  0
  134.5270   68.5530  225.3120 C   0  0  0  0  0  0  0  0  0  0  0  0
  133.6190   69.0240  226.2150 N   0  0  0  0  0  0  0  0  0  0  0  0
  133.4940   70.3380  226.4470 C   0  0  0  0  0  0  0  0  0  0  0  0
  134.2950   71.2410  225.7650 C   0  0  0  0  0  0  0  0  0  0  0  0
  137.7630   73.5920  222.2840 N   0  0  0  0  0  0  0  0  0  0  0  0
  138.8690   74.2930  221.9600 C   0  0  0  0  0  0  0  0  0  0  0  0
  138.7740   75.6350  221.6910 C   0  0  0  0  0  0  0  0  0  0  0  0
  141.8160   78.7040  222.1240 C   0  0  0  0  0  0  0  0  0  0  0  0
  142.1870   79.8350  223.0670 C   0  0  0  0  0  0  0  0  0  0  0  0
  141.3621   82.8403  222.3665 H   0  0  0  0  0  0  0  0  0  0  0  0
  142.1780   81.5822  221.3773 H   0  0  0  0  0  0  0  0  0  0  0  0
  140.3857   81.7024  221.3773 H   0  0  0  0  0  0  0  0  0  0  0  0
  139.8165   80.6391  224.5863 H   0  0  0  0  0  0  0  0  0  0  0  0
  139.1854   81.1456  222.9711 H   0  0  0  0  0  0  0  0  0  0  0  0
  139.9241   78.4016  223.9819 H   0  0  0  0  0  0  0  0  0  0  0  0
  138.5723   78.9132  222.9182 H   0  0  0  0  0  0  0  0  0  0  0  0
  138.7651   78.0765  220.9743 H   0  0  0  0  0  0  0  0  0  0  0  0
  140.4229   77.9397  220.1451 H   0  0  0  0  0  0  0  0  0  0  0  0
  142.0083   76.2243  221.0501 H   0  0  0  0  0  0  0  0  0  0  0  0
  142.1640   73.8229  221.5345 H   0  0  0  0  0  0  0  0  0  0  0  0
  138.0829   69.7160  222.6290 H   0  0  0  0  0  0  0  0  0  0  0  0
  139.8660   69.8251  222.0915 H   0  0  0  0  0  0  0  0  0  0  0  0
  140.5824   69.4666  223.8425 H   0  0  0  0  0  0  0  0  0  0  0  0
  137.7485   68.7497  224.7105 H   0  0  0  0  0  0  0  0  0  0  0  0
  139.0517   67.6718  224.0329 H   0  0  0  0  0  0  0  0  0  0  0  0
  138.5230   68.5297  226.7909 H   0  0  0  0  0  0  0  0  0  0  0  0
  139.4057   67.0825  226.1067 H   0  0  0  0  0  0  0  0  0  0  0  0
  140.7668   68.5806  227.5157 H   0  0  0  0  0  0  0  0  0  0  0  0
  141.3437   68.3045  225.7959 H   0  0  0  0  0  0  0  0  0  0  0  0
  140.5075   70.7559  227.1718 H   0  0  0  0  0  0  0  0  0  0  0  0
  141.6924   70.4431  225.8197 H   0  0  0  0  0  0  0  0  0  0  0  0
  138.6962   70.9199  225.6619 H   0  0  0  0  0  0  0  0  0  0  0  0
  140.0106   71.7176  224.7588 H   0  0  0  0  0  0  0  0  0  0  0  0
  136.0293   71.0088  222.2217 H   0  0  0  0  0  0  0  0  0  0  0  0
  136.2470   72.7489  224.6715 H   0  0  0  0  0  0  0  0  0  0  0  0
  136.0556   69.0810  223.9097 H   0  0  0  0  0  0  0  0  0  0  0  0
  134.6241   67.4733  225.1252 H   0  0  0  0  0  0  0  0  0  0  0  0
  132.7562   70.6999  227.1782 H   0  0  0  0  0  0  0  0  0  0  0  0
  134.1834   72.3171  225.9641 H   0  0  0  0  0  0  0  0  0  0  0  0
  137.7935   76.1311  221.7412 H   0  0  0  0  0  0  0  0  0  0  0  0
  142.1593   77.7441  222.5371 H   0  0  0  0  0  0  0  0  0  0  0  0
  142.2924   78.8488  221.1431 H   0  0  0  0  0  0  0  0  0  0  0  0
  142.2793   79.4232  224.0828 H   0  0  0  0  0  0  0  0  0  0  0  0
  143.1311   80.2625  222.6983 H   0  0  0  0  0  0  0  0  0  0  0  0
  1  2  1  0
  2  3  1  0
  3  4  1  0
  4  5  1  0
  5  6  1  0
  6  7  1  0
  7  8  2  0
  8  9  1  0
  9 10  2  0
 10 11  1  0
 11 12  2  0
 11 13  1  0
 13 14  1  0
 14 15  1  0
 15 16  1  0
 16 17  1  0
 17 18  1  0
 18 19  1  0
 19 20  1  0
 13 21  1  0
 21 22  1  0
 22 23  2  0
 23 24  1  0
 24 25  2  0
 25 26  1  0
 26 27  2  0
 27 28  1  0
 28 29  2  0
 21 30  2  0
 30 31  1  0
 31 32  2  0
  5 33  1  0
 33 34  1  0
 34  2  1  0
 32  7  1  0
 31 10  1  0
 20 15  1  0
 29 24  1  0
  1 35  1  0
  1 36  1  0
  1 37  1  0
  3 38  1  0
  3 39  1  0
  4 40  1  0
  4 41  1  0
  6 42  1  0
  6 43  1  0
  8 44  1  0
  9 45  1  0
 14 46  1  0
 14 47  1  0
 15 48  1  0
 16 49  1  0
 16 50  1  0
 17 51  1  0
 17 52  1  0
 18 53  1  0
 18 54  1  0
 19 55  1  0
 19 56  1  0
 20 57  1  0
 20 58  1  0
 22 59  1  0
 23 60  1  0
 25 61  1  0
 26 62  1  0
 28 63  1  0
 29 64  1  0
 32 65  1  0
 33 66  1  0
 33 67  1  0
 34 68  1  0
 34 69  1  0
M  END
>  <smiles>  (28) 
CN1CCN(Cc2ccc3c(=O)n(CC4CCCCC4)c(/C=C/c4ccncc4)nc3c2)CC1

>  <score_type>  (28) 
oracle

>  <origin>  (28) 
autodockgpu

>  <m_score__min__energy>  (28) 
-8.7799999999999994

>  <m_primary>  (28) 
energy

>  <rmsd>  (28) 
8.823038425567606

>  <m_score__min__rmsd>  (28) 
8.823038425567606

>  <meeko>  (28) 
{"free_energy": -8.02, "intermolecular_energy": -10.11, "internal_energy": -1.93, "cluster_size": 24, "cluster_id": 2, "rank_in_cluster": 23}

>  <energy>  (28) 
-8.4

>  <cluster_rmsd>  (28) 
0.0

>  <cluster>  (28) 
3

$$$$

     RDKit          3D

 69 73  0  0  0  0  0  0  0  0999 V2000
  142.9630   79.7900  222.8370 C   0  0  0  0  0  0  0  0  0  0  0  0
  142.2100   81.0090  222.7530 N   0  0  0  0  0  0  0  0  0  0  0  0
  141.7020   81.3260  221.4540 C   0  0  0  0  0  0  0  0  0  0  0  0
  140.1780   81.1610  221.4080 C   0  0  0  0  0  0  0  0  0  0  0  0
  139.7860   80.1670  222.3460 N   0  0  0  0  0  0  0  0  0  0  0  0
  138.7130   79.3240  221.9950 C   0  0  0  0  0  0  0  0  0  0  0  0
  138.9470   77.8760  222.0370 C   0  0  0  0  0  0  0  0  0  0  0  0
  140.2150   77.3360  221.9520 C   0  0  0  0  0  0  0  0  0  0  0  0
  140.4650   75.9800  221.9880 C   0  0  0  0  0  0  0  0  0  0  0  0
  139.4080   75.0910  222.1140 C   0  0  0  0  0  0  0  0  0  0  0  0
  139.5970   73.7210  222.1540 C   0  0  0  0  0  0  0  0  0  0  0  0
  140.7910   73.3310  222.0720 O   0  0  0  0  0  0  0  0  0  0  0  0
  138.5520   72.8500  222.2770 N   0  0  0  0  0  0  0  0  0  0  0  0
  138.8300   71.4550  222.2960 C   0  0  0  0  0  0  0  0  0  0  0  0
  139.1440   70.8180  223.5960 C   0  0  0  0  0  0  0  0  0  0  0  0
  140.3710   71.3770  224.2890 C   0  0  0  0  0  0  0  0  0  0  0  0
  140.7050   70.6500  225.5670 C   0  0  0  0  0  0  0  0  0  0  0  0
  139.5770   69.8430  226.1060 C   0  0  0  0  0  0  0  0  0  0  0  0
  138.9520   68.9210  225.1190 C   0  0  0  0  0  0  0  0  0  0  0  0
  139.1990   69.3360  223.6570 C   0  0  0  0  0  0  0  0  0  0  0  0
  137.3340   73.4100  222.3590 C   0  0  0  0  0  0  0  0  0  0  0  0
  136.1480   72.5820  222.5530 C   0  0  0  0  0  0  0  0  0  0  0  0
  135.7620   72.1810  223.7500 C   0  0  0  0  0  0  0  0  0  0  0  0
  135.0430   73.0040  224.7050 C   0  0  0  0  0  0  0  0  0  0  0  0
  135.2310   74.3600  224.8500 C   0  0  0  0  0  0  0  0  0  0  0  0
  134.5280   75.1110  225.7720 C   0  0  0  0  0  0  0  0  0  0  0  0
  133.6130   74.4820  226.5660 N   0  0  0  0  0  0  0  0  0  0  0  0
  133.3970   73.1640  226.4600 C   0  0  0  0  0  0  0  0  0  0  0  0
  134.1070   72.4180  225.5330 C   0  0  0  0  0  0  0  0  0  0  0  0
  137.1290   74.7470  222.3200 N   0  0  0  0  0  0  0  0  0  0  0  0
  138.1530   75.6160  222.1980 C   0  0  0  0  0  0  0  0  0  0  0  0
  137.9060   76.9640  222.1620 C   0  0  0  0  0  0  0  0  0  0  0  0
  140.0060   80.4390  223.7140 C   0  0  0  0  0  0  0  0  0  0  0  0
  141.2940   81.2350  223.8270 C   0  0  0  0  0  0  0  0  0  0  0  0
  143.1235   79.5302  223.8938 H   0  0  0  0  0  0  0  0  0  0  0  0
  142.4072   78.9808  222.3408 H   0  0  0  0  0  0  0  0  0  0  0  0
  143.9354   79.9248  222.3408 H   0  0  0  0  0  0  0  0  0  0  0  0
  141.9591   82.3675  221.2109 H   0  0  0  0  0  0  0  0  0  0  0  0
  142.1525   80.6387  220.7228 H   0  0  0  0  0  0  0  0  0  0  0  0
  139.6968   82.1169  221.6624 H   0  0  0  0  0  0  0  0  0  0  0  0
  139.8700   80.8564  220.3969 H   0  0  0  0  0  0  0  0  0  0  0  0
  137.8829   79.5436  222.6825 H   0  0  0  0  0  0  0  0  0  0  0  0
  138.5177   79.5456  220.9354 H   0  0  0  0  0  0  0  0  0  0  0  0
  141.0689   78.0219  221.8504 H   0  0  0  0  0  0  0  0  0  0  0  0
  141.4970   75.6058  221.9172 H   0  0  0  0  0  0  0  0  0  0  0  0
  137.9474   70.9417  221.8868 H   0  0  0  0  0  0  0  0  0  0  0  0
  139.7584   71.3558  221.7145 H   0  0  0  0  0  0  0  0  0  0  0  0
  138.2326   71.1049  224.1410 H   0  0  0  0  0  0  0  0  0  0  0  0
  141.2283   71.2957  223.6046 H   0  0  0  0  0  0  0  0  0  0  0  0
  140.1544   72.4231  224.5511 H   0  0  0  0  0  0  0  0  0  0  0  0
  141.5526   69.9764  225.3725 H   0  0  0  0  0  0  0  0  0  0  0  0
  140.9429   71.4153  226.3205 H   0  0  0  0  0  0  0  0  0  0  0  0
  139.9550   69.2421  226.9463 H   0  0  0  0  0  0  0  0  0  0  0  0
  138.7960   70.5573  226.4056 H   0  0  0  0  0  0  0  0  0  0  0  0
  139.3668   67.9136  225.2709 H   0  0  0  0  0  0  0  0  0  0  0  0
  137.8654   68.9514  225.2873 H   0  0  0  0  0  0  0  0  0  0  0  0
  140.1880   68.9835  223.3290 H   0  0  0  0  0  0  0  0  0  0  0  0
  138.4391   68.8936  222.9961 H   0  0  0  0  0  0  0  0  0  0  0  0
  135.5574   72.2828  221.6746 H   0  0  0  0  0  0  0  0  0  0  0  0
  136.0026   71.1489  224.0448 H   0  0  0  0  0  0  0  0  0  0  0  0
  135.9683   74.8642  224.2079 H   0  0  0  0  0  0  0  0  0  0  0  0
  134.7019   76.1932  225.8644 H   0  0  0  0  0  0  0  0  0  0  0  0
  132.6561   72.6741  227.1089 H   0  0  0  0  0  0  0  0  0  0  0  0
  133.9209   71.3366  225.4554 H   0  0  0  0  0  0  0  0  0  0  0  0
  136.8705   77.3284  222.2330 H   0  0  0  0  0  0  0  0  0  0  0  0
  139.1674   81.0245  224.1188 H   0  0  0  0  0  0  0  0  0  0  0  0
  140.0818   79.5019  224.2850 H   0  0  0  0  0  0  0  0  0  0  0  0
  141.0395   82.3050  223.8459 H   0  0  0  0  0  0  0  0  0  0  0  0
  141.7945   80.9039  224.7489 H   0  0  0  0  0  0  0  0  0  0  0  0
  1  2  1  0
  2  3  1  0
  3  4  1  0
  4  5  1  0
  5  6  1  0
  6  7  1  0
  7  8  2  0
  8  9  1  0
  9 10  2  0
 10 11  1  0
 11 12  2  0
 11 13  1  0
 13 14  1  0
 14 15  1  0
 15 16  1  0
 16 17  1  0
 17 18  1  0
 18 19  1  0
 19 20  1  0
 13 21  1  0
 21 22  1  0
 22 23  2  0
 23 24  1  0
 24 25  2  0
 25 26  1  0
 26 27  2  0
 27 28  1  0
 28 29  2  0
 21 30  2  0
 30 31  1  0
 31 32  2  0
  5 33  1  0
 33 34  1  0
 34  2  1  0
 32  7  1  0
 31 10  1  0
 20 15  1  0
 29 24  1  0
  1 35  1  0
  1 36  1  0
  1 37  1  0
  3 38  1  0
  3 39  1  0
  4 40  1  0
  4 41  1  0
  6 42  1  0
  6 43  1  0
  8 44  1  0
  9 45  1  0
 14 46  1  0
 14 47  1  0
 15 48  1  0
 16 49  1  0
 16 50  1  0
 17 51  1  0
 17 52  1  0
 18 53  1  0
 18 54  1  0
 19 55  1  0
 19 56  1  0
 20 57  1  0
 20 58  1  0
 22 59  1  0
 23 60  1  0
 25 61  1  0
 26 62  1  0
 28 63  1  0
 29 64  1  0
 32 65  1  0
 33 66  1  0
 33 67  1  0
 34 68  1  0
 34 69  1  0
M  END
>  <smiles>  (29) 
CN1CCN(Cc2ccc3c(=O)n(CC4CCCCC4)c(/C=C/c4ccncc4)nc3c2)CC1

>  <score_type>  (29) 
oracle

>  <origin>  (29) 
autodockgpu

>  <m_score__min__energy>  (29) 
-8.7799999999999994

>  <m_primary>  (29) 
energy

>  <rmsd>  (29) 
7.27834059501091

>  <m_score__min__rmsd>  (29) 
7.27834059501091

>  <meeko>  (29) 
{"free_energy": -8.3, "intermolecular_energy": -10.39, "internal_energy": -1.92, "cluster_size": 24, "cluster_id": 2, "rank_in_cluster": 5}

>  <energy>  (29) 
-8.34

>  <cluster_rmsd>  (29) 
0.19

>  <cluster>  (29) 
3

$$$$

     RDKit          3D

 69 73  0  0  0  0  0  0  0  0999 V2000
  142.9510   79.7340  222.8040 C   0  0  0  0  0  0  0  0  0  0  0  0
  142.1930   80.9500  222.7260 N   0  0  0  0  0  0  0  0  0  0  0  0
  141.6170   81.2300  221.4470 C   0  0  0  0  0  0  0  0  0  0  0  0
  140.0930   81.0650  221.4870 C   0  0  0  0  0  0  0  0  0  0  0  0
  139.7520   80.0990  222.4730 N   0  0  0  0  0  0  0  0  0  0  0  0
  138.6620   79.2470  222.2030 C   0  0  0  0  0  0  0  0  0  0  0  0
  138.9190   77.8030  222.1860 C   0  0  0  0  0  0  0  0  0  0  0  0
  140.1940   77.2870  222.0690 C   0  0  0  0  0  0  0  0  0  0  0  0
  140.4660   75.9350  222.0490 C   0  0  0  0  0  0  0  0  0  0  0  0
  139.4250   75.0250  222.1480 C   0  0  0  0  0  0  0  0  0  0  0  0
  139.6350   73.6570  222.1320 C   0  0  0  0  0  0  0  0  0  0  0  0
  140.8350   73.2900  222.0250 O   0  0  0  0  0  0  0  0  0  0  0  0
  138.6060   72.7650  222.2290 N   0  0  0  0  0  0  0  0  0  0  0  0
  138.9060   71.3750  222.1900 C   0  0  0  0  0  0  0  0  0  0  0  0
  139.2990   70.7050  223.4510 C   0  0  0  0  0  0  0  0  0  0  0  0
  138.2050   69.8700  224.0850 C   0  0  0  0  0  0  0  0  0  0  0  0
  138.6160   69.2710  225.4070 C   0  0  0  0  0  0  0  0  0  0  0  0
  140.0870   69.2560  225.6230 C   0  0  0  0  0  0  0  0  0  0  0  0
  140.7570   70.5670  225.4040 C   0  0  0  0  0  0  0  0  0  0  0  0
  139.9450   71.5220  224.5090 C   0  0  0  0  0  0  0  0  0  0  0  0
  137.3790   73.3020  222.3440 C   0  0  0  0  0  0  0  0  0  0  0  0
  136.2090   72.4480  222.5140 C   0  0  0  0  0  0  0  0  0  0  0  0
  135.8050   72.0420  223.7030 C   0  0  0  0  0  0  0  0  0  0  0  0
  135.0710   72.8590  224.6500 C   0  0  0  0  0  0  0  0  0  0  0  0
  135.1600   74.2320  224.7160 C   0  0  0  0  0  0  0  0  0  0  0  0
  134.4450   74.9770  225.6330 C   0  0  0  0  0  0  0  0  0  0  0  0
  133.6210   74.3270  226.5050 N   0  0  0  0  0  0  0  0  0  0  0  0
  133.5030   72.9920  226.4780 C   0  0  0  0  0  0  0  0  0  0  0  0
  134.2240   72.2520  225.5550 C   0  0  0  0  0  0  0  0  0  0  0  0
  137.1530   74.6360  222.3600 N   0  0  0  0  0  0  0  0  0  0  0  0
  138.1630   75.5250  222.2630 C   0  0  0  0  0  0  0  0  0  0  0  0
  137.8930   76.8700  222.2830 C   0  0  0  0  0  0  0  0  0  0  0  0
  140.0430   80.4090  223.8190 C   0  0  0  0  0  0  0  0  0  0  0  0
  141.3350   81.2070  223.8410 C   0  0  0  0  0  0  0  0  0  0  0  0
  143.1149   79.4711  223.8595 H   0  0  0  0  0  0  0  0  0  0  0  0
  142.3974   78.9243  222.3062 H   0  0  0  0  0  0  0  0  0  0  0  0
  143.9218   79.8745  222.3062 H   0  0  0  0  0  0  0  0  0  0  0  0
  141.8602   82.2639  221.1607 H   0  0  0  0  0  0  0  0  0  0  0  0
  142.0287   80.5219  220.7128 H   0  0  0  0  0  0  0  0  0  0  0  0
  139.6253   82.0283  221.7388 H   0  0  0  0  0  0  0  0  0  0  0  0
  139.7319   80.7313  220.5030 H   0  0  0  0  0  0  0  0  0  0  0  0
  137.8976   79.4366  222.9709 H   0  0  0  0  0  0  0  0  0  0  0  0
  138.3644   79.4908  221.1725 H   0  0  0  0  0  0  0  0  0  0  0  0
  141.0361   77.9900  221.9876 H   0  0  0  0  0  0  0  0  0  0  0  0
  141.5032   75.5808  221.9550 H   0  0  0  0  0  0  0  0  0  0  0  0
  138.0107   70.8592  221.8127 H   0  0  0  0  0  0  0  0  0  0  0  0
  139.8032   71.3090  221.5570 H   0  0  0  0  0  0  0  0  0  0  0  0
  140.0918   70.0566  223.0496 H   0  0  0  0  0  0  0  0  0  0  0  0
  137.3249   70.5095  224.2478 H   0  0  0  0  0  0  0  0  0  0  0  0
  137.9851   69.0382  223.3996 H   0  0  0  0  0  0  0  0  0  0  0  0
  138.1522   69.8577  226.2136 H   0  0  0  0  0  0  0  0  0  0  0  0
  138.2800   68.2236  225.4045 H   0  0  0  0  0  0  0  0  0  0  0  0
  140.2788   68.9412  226.6594 H   0  0  0  0  0  0  0  0  0  0  0  0
  140.5053   68.5629  224.8782 H   0  0  0  0  0  0  0  0  0  0  0  0
  140.9099   71.0489  226.3810 H   0  0  0  0  0  0  0  0  0  0  0  0
  141.7079   70.3659  224.8888 H   0  0  0  0  0  0  0  0  0  0  0  0
  139.1779   72.0355  225.1073 H   0  0  0  0  0  0  0  0  0  0  0  0
  140.6006   72.2840  224.0624 H   0  0  0  0  0  0  0  0  0  0  0  0
  135.6457   72.1324  221.6234 H   0  0  0  0  0  0  0  0  0  0  0  0
  136.0422   71.0089  223.9970 H   0  0  0  0  0  0  0  0  0  0  0  0
  135.8250   74.7542  224.0124 H   0  0  0  0  0  0  0  0  0  0  0  0
  134.5379   76.0727  225.6599 H   0  0  0  0  0  0  0  0  0  0  0  0
  132.8340   72.4843  227.1884 H   0  0  0  0  0  0  0  0  0  0  0  0
  134.1191   71.1571  225.5432 H   0  0  0  0  0  0  0  0  0  0  0  0
  136.8525   77.2142  222.3769 H   0  0  0  0  0  0  0  0  0  0  0  0
  139.2264   81.0064  224.2507 H   0  0  0  0  0  0  0  0  0  0  0  0
  140.1490   79.4885  224.4118 H   0  0  0  0  0  0  0  0  0  0  0  0
  141.0812   82.2773  223.8435 H   0  0  0  0  0  0  0  0  0  0  0  0
  141.8841   80.9016  224.7439 H   0  0  0  0  0  0  0  0  0  0  0  0
  1  2  1  0
  2  3  1  0
  3  4  1  0
  4  5  1  0
  5  6  1  0
  6  7  1  0
  7  8  2  0
  8  9  1  0
  9 10  2  0
 10 11  1  0
 11 12  2  0
 11 13  1  0
 13 14  1  0
 14 15  1  0
 15 16  1  0
 16 17  1  0
 17 18  1  0
 18 19  1  0
 19 20  1  0
 13 21  1  0
 21 22  1  0
 22 23  2  0
 23 24  1  0
 24 25  2  0
 25 26  1  0
 26 27  2  0
 27 28  1  0
 28 29  2  0
 21 30  2  0
 30 31  1  0
 31 32  2  0
  5 33  1  0
 33 34  1  0
 34  2  1  0
 32  7  1  0
 31 10  1  0
 20 15  1  0
 29 24  1  0
  1 35  1  0
  1 36  1  0
  1 37  1  0
  3 38  1  0
  3 39  1  0
  4 40  1  0
  4 41  1  0
  6 42  1  0
  6 43  1  0
  8 44  1  0
  9 45  1  0
 14 46  1  0
 14 47  1  0
 15 48  1  0
 16 49  1  0
 16 50  1  0
 17 51  1  0
 17 52  1  0
 18 53  1  0
 18 54  1  0
 19 55  1  0
 19 56  1  0
 20 57  1  0
 20 58  1  0
 22 59  1  0
 23 60  1  0
 25 61  1  0
 26 62  1  0
 28 63  1  0
 29 64  1  0
 32 65  1  0
 33 66  1  0
 33 67  1  0
 34 68  1  0
 34 69  1  0
M  END
>  <smiles>  (30) 
CN1CCN(Cc2ccc3c(=O)n(CC4CCCCC4)c(/C=C/c4ccncc4)nc3c2)CC1

>  <score_type>  (30) 
oracle

>  <origin>  (30) 
autodockgpu

>  <m_score__min__energy>  (30) 
-8.7799999999999994

>  <m_primary>  (30) 
energy

>  <rmsd>  (30) 
7.6703646588244405

>  <m_score__min__rmsd>  (30) 
7.6703646588244405

>  <meeko>  (30) 
{"free_energy": -8.24, "intermolecular_energy": -10.33, "internal_energy": -2.03, "cluster_size": 24, "cluster_id": 2, "rank_in_cluster": 11}

>  <energy>  (30) 
-8.34

>  <cluster_rmsd>  (30) 
0.84

>  <cluster>  (30) 
3

$$$$

     RDKit          3D

 69 73  0  0  0  0  0  0  0  0999 V2000
  141.3140   81.8060  222.0490 C   0  0  0  0  0  0  0  0  0  0  0  0
  141.1680   80.9050  223.1560 N   0  0  0  0  0  0  0  0  0  0  0  0
  139.8230   80.5220  223.4590 C   0  0  0  0  0  0  0  0  0  0  0  0
  139.5770   79.0540  223.0900 C   0  0  0  0  0  0  0  0  0  0  0  0
  140.4290   78.6930  222.0110 N   0  0  0  0  0  0  0  0  0  0  0  0
  139.9200   77.8010  221.0450 C   0  0  0  0  0  0  0  0  0  0  0  0
  139.9580   76.3690  221.3590 C   0  0  0  0  0  0  0  0  0  0  0  0
  141.1320   75.6450  221.3350 C   0  0  0  0  0  0  0  0  0  0  0  0
  141.1990   74.2970  221.6240 C   0  0  0  0  0  0  0  0  0  0  0  0
  140.0410   73.6110  221.9580 C   0  0  0  0  0  0  0  0  0  0  0  0
  140.0450   72.2590  222.2560 C   0  0  0  0  0  0  0  0  0  0  0  0
  141.1680   71.6920  222.2090 O   0  0  0  0  0  0  0  0  0  0  0  0
  138.9020   71.5870  222.5820 N   0  0  0  0  0  0  0  0  0  0  0  0
  138.9890   70.1950  222.8610 C   0  0  0  0  0  0  0  0  0  0  0  0
  139.5520   69.7730  224.1650 C   0  0  0  0  0  0  0  0  0  0  0  0
  138.8950   68.5460  224.7640 C   0  0  0  0  0  0  0  0  0  0  0  0
  139.4390   68.1960  226.1270 C   0  0  0  0  0  0  0  0  0  0  0  0
  140.7510   68.8300  226.4250 C   0  0  0  0  0  0  0  0  0  0  0  0
  140.7910   70.3010  226.2000 C   0  0  0  0  0  0  0  0  0  0  0  0
  139.7040   70.7970  225.2290 C   0  0  0  0  0  0  0  0  0  0  0  0
  137.7780   72.3230  222.5980 C   0  0  0  0  0  0  0  0  0  0  0  0
  136.5050   71.7270  222.9910 C   0  0  0  0  0  0  0  0  0  0  0  0
  135.3900   72.4300  223.0470 C   0  0  0  0  0  0  0  0  0  0  0  0
  134.8710   73.0610  224.2460 C   0  0  0  0  0  0  0  0  0  0  0  0
  134.0840   72.4200  225.1770 C   0  0  0  0  0  0  0  0  0  0  0  0
  133.6070   73.0550  226.3060 C   0  0  0  0  0  0  0  0  0  0  0  0
  133.9290   74.3660  226.5060 N   0  0  0  0  0  0  0  0  0  0  0  0
  134.6930   75.0310  225.6270 C   0  0  0  0  0  0  0  0  0  0  0  0
  135.1670   74.3860  224.4950 C   0  0  0  0  0  0  0  0  0  0  0  0
  137.7540   73.6450  222.3080 N   0  0  0  0  0  0  0  0  0  0  0  0
  138.8770   74.3170  221.9830 C   0  0  0  0  0  0  0  0  0  0  0  0
  138.8120   75.6570  221.6950 C   0  0  0  0  0  0  0  0  0  0  0  0
  141.8210   78.7010  222.2480 C   0  0  0  0  0  0  0  0  0  0  0  0
  142.1210   79.8400  223.2060 C   0  0  0  0  0  0  0  0  0  0  0  0
  141.4793   82.8261  222.4259 H   0  0  0  0  0  0  0  0  0  0  0  0
  142.1739   81.4977  221.4362 H   0  0  0  0  0  0  0  0  0  0  0  0
  140.4007   81.7850  221.4362 H   0  0  0  0  0  0  0  0  0  0  0  0
  139.6435   80.6579  224.5357 H   0  0  0  0  0  0  0  0  0  0  0  0
  139.1373   81.1518  222.8733 H   0  0  0  0  0  0  0  0  0  0  0  0
  139.7934   78.4152  223.9590 H   0  0  0  0  0  0  0  0  0  0  0  0
  138.5267   78.9194  222.7919 H   0  0  0  0  0  0  0  0  0  0  0  0
  138.8686   78.0717  220.8681 H   0  0  0  0  0  0  0  0  0  0  0  0
  140.5877   77.9157  220.1783 H   0  0  0  0  0  0  0  0  0  0  0  0
  142.0627   76.1690  221.0720 H   0  0  0  0  0  0  0  0  0  0  0  0
  142.1642   73.7705  221.5896 H   0  0  0  0  0  0  0  0  0  0  0  0
  137.9697   69.7862  222.7989 H   0  0  0  0  0  0  0  0  0  0  0  0
  139.7071   69.8143  222.1197 H   0  0  0  0  0  0  0  0  0  0  0  0
  140.5733   69.5363  223.8318 H   0  0  0  0  0  0  0  0  0  0  0  0
  137.8152   68.7349  224.8548 H   0  0  0  0  0  0  0  0  0  0  0  0
  139.1071   67.6982  224.0959 H   0  0  0  0  0  0  0  0  0  0  0  0
  138.7136   68.5245  226.8859 H   0  0  0  0  0  0  0  0  0  0  0  0
  139.5959   67.1073  226.1420 H   0  0  0  0  0  0  0  0  0  0  0  0
  140.9940   68.6371  227.4803 H   0  0  0  0  0  0  0  0  0  0  0  0
  141.4780   68.3870  225.7284 H   0  0  0  0  0  0  0  0  0  0  0  0
  140.6524   70.8063  227.1672 H   0  0  0  0  0  0  0  0  0  0  0  0
  141.7654   70.5354  225.7465 H   0  0  0  0  0  0  0  0  0  0  0  0
  138.7521   70.9250  225.7652 H   0  0  0  0  0  0  0  0  0  0  0  0
  139.9875   71.7669  224.7943 H   0  0  0  0  0  0  0  0  0  0  0  0
  136.4743   70.6580  223.2486 H   0  0  0  0  0  0  0  0  0  0  0  0
  134.8124   72.5461  222.1181 H   0  0  0  0  0  0  0  0  0  0  0  0
  133.8261   71.3630  225.0149 H   0  0  0  0  0  0  0  0  0  0  0  0
  132.9796   72.5149  227.0303 H   0  0  0  0  0  0  0  0  0  0  0  0
  134.9434   76.0874  225.8040 H   0  0  0  0  0  0  0  0  0  0  0  0
  135.7920   74.9417  223.7804 H   0  0  0  0  0  0  0  0  0  0  0  0
  137.8417   76.1741  221.7304 H   0  0  0  0  0  0  0  0  0  0  0  0
  142.1302   77.7446  222.6949 H   0  0  0  0  0  0  0  0  0  0  0  0
  142.3710   78.8365  221.3051 H   0  0  0  0  0  0  0  0  0  0  0  0
  142.1366   79.4369  224.2294 H   0  0  0  0  0  0  0  0  0  0  0  0
  143.0901   80.2641  222.9045 H   0  0  0  0  0  0  0  0  0  0  0  0
  1  2  1  0
  2  3  1  0
  3  4  1  0
  4  5  1  0
  5  6  1  0
  6  7  1  0
  7  8  2  0
  8  9  1  0
  9 10  2  0
 10 11  1  0
 11 12  2  0
 11 13  1  0
 13 14  1  0
 14 15  1  0
 15 16  1  0
 16 17  1  0
 17 18  1  0
 18 19  1  0
 19 20  1  0
 13 21  1  0
 21 22  1  0
 22 23  2  0
 23 24  1  0
 24 25  2  0
 25 26  1  0
 26 27  2  0
 27 28  1  0
 28 29  2  0
 21 30  2  0
 30 31  1  0
 31 32  2  0
  5 33  1  0
 33 34  1  0
 34  2  1  0
 32  7  1  0
 31 10  1  0
 20 15  1  0
 29 24  1  0
  1 35  1  0
  1 36  1  0
  1 37  1  0
  3 38  1  0
  3 39  1  0
  4 40  1  0
  4 41  1  0
  6 42  1  0
  6 43  1  0
  8 44  1  0
  9 45  1  0
 14 46  1  0
 14 47  1  0
 15 48  1  0
 16 49  1  0
 16 50  1  0
 17 51  1  0
 17 52  1  0
 18 53  1  0
 18 54  1  0
 19 55  1  0
 19 56  1  0
 20 57  1  0
 20 58  1  0
 22 59  1  0
 23 60  1  0
 25 61  1  0
 26 62  1  0
 28 63  1  0
 29 64  1  0
 32 65  1  0
 33 66  1  0
 33 67  1  0
 34 68  1  0
 34 69  1  0
M  END
>  <smiles>  (31) 
CN1CCN(Cc2ccc3c(=O)n(CC4CCCCC4)c(/C=C/c4ccncc4)nc3c2)CC1

>  <score_type>  (31) 
oracle

>  <origin>  (31) 
autodockgpu

>  <m_score__min__energy>  (31) 
-8.7799999999999994

>  <m_primary>  (31) 
energy

>  <rmsd>  (31) 
8.82954672769273

>  <m_score__min__rmsd>  (31) 
8.82954672769273

>  <meeko>  (31) 
{"free_energy": -8.28, "intermolecular_energy": -10.37, "internal_energy": -1.72, "cluster_size": 24, "cluster_id": 2, "rank_in_cluster": 8}

>  <energy>  (31) 
-8.3

>  <cluster_rmsd>  (31) 
0.1

>  <cluster>  (31) 
3

$$$$

     RDKit          3D

 69 73  0  0  0  0  0  0  0  0999 V2000
  139.6200   80.8770  223.6590 C   0  0  0  0  0  0  0  0  0  0  0  0
  140.9910   81.2640  223.4850 N   0  0  0  0  0  0  0  0  0  0  0  0
  141.9570   80.2710  223.8440 C   0  0  0  0  0  0  0  0  0  0  0  0
  142.6510   79.7090  222.5980 C   0  0  0  0  0  0  0  0  0  0  0  0
  141.7630   79.7890  221.4910 N   0  0  0  0  0  0  0  0  0  0  0  0
  141.7990   78.7440  220.5460 C   0  0  0  0  0  0  0  0  0  0  0  0
  141.1470   77.4800  220.9080 C   0  0  0  0  0  0  0  0  0  0  0  0
  139.8450   77.4320  221.3610 C   0  0  0  0  0  0  0  0  0  0  0  0
  139.2060   76.2600  221.7100 C   0  0  0  0  0  0  0  0  0  0  0  0
  139.8840   75.0540  221.6090 C   0  0  0  0  0  0  0  0  0  0  0  0
  139.2970   73.8470  221.9450 C   0  0  0  0  0  0  0  0  0  0  0  0
  138.1050   73.9110  222.3450 O   0  0  0  0  0  0  0  0  0  0  0  0
  139.9700   72.6630  221.8460 N   0  0  0  0  0  0  0  0  0  0  0  0
  139.2990   71.4670  222.2240 C   0  0  0  0  0  0  0  0  0  0  0  0
  139.6730   70.8270  223.5070 C   0  0  0  0  0  0  0  0  0  0  0  0
  138.5390   70.0990  224.1990 C   0  0  0  0  0  0  0  0  0  0  0  0
  138.9370   69.5310  225.5390 C   0  0  0  0  0  0  0  0  0  0  0  0
  140.4080   69.4230  225.7260 C   0  0  0  0  0  0  0  0  0  0  0  0
  141.1610   70.6730  225.4350 C   0  0  0  0  0  0  0  0  0  0  0  0
  140.3980   71.6420  224.5140 C   0  0  0  0  0  0  0  0  0  0  0  0
  141.2340   72.7470  221.3980 C   0  0  0  0  0  0  0  0  0  0  0  0
  142.0310   71.5420  221.1940 C   0  0  0  0  0  0  0  0  0  0  0  0
  142.7520   71.3560  220.1050 C   0  0  0  0  0  0  0  0  0  0  0  0
  143.9850   72.0570  219.8000 C   0  0  0  0  0  0  0  0  0  0  0  0
  144.4200   72.3340  218.5230 C   0  0  0  0  0  0  0  0  0  0  0  0
  145.6010   73.0050  218.2720 C   0  0  0  0  0  0  0  0  0  0  0  0
  146.3640   73.4060  219.3300 N   0  0  0  0  0  0  0  0  0  0  0  0
  145.9800   73.1590  220.5900 C   0  0  0  0  0  0  0  0  0  0  0  0
  144.7940   72.4850  220.8340 C   0  0  0  0  0  0  0  0  0  0  0  0
  141.8260   73.9180  221.0660 N   0  0  0  0  0  0  0  0  0  0  0  0
  141.1710   75.0930  221.1620 C   0  0  0  0  0  0  0  0  0  0  0  0
  141.8040   76.2600  220.8160 C   0  0  0  0  0  0  0  0  0  0  0  0
  141.3810   81.0760  221.0520 C   0  0  0  0  0  0  0  0  0  0  0  0
  141.2770   81.9700  222.2750 C   0  0  0  0  0  0  0  0  0  0  0  0
  139.3907   80.8123  224.7329 H   0  0  0  0  0  0  0  0  0  0  0  0
  138.9652   81.6254  223.1887 H   0  0  0  0  0  0  0  0  0  0  0  0
  139.4532   79.8967  223.1887 H   0  0  0  0  0  0  0  0  0  0  0  0
  142.7118   80.7243  224.5033 H   0  0  0  0  0  0  0  0  0  0  0  0
  141.4408   79.4484  224.3605 H   0  0  0  0  0  0  0  0  0  0  0  0
  143.5571   80.2955  222.3857 H   0  0  0  0  0  0  0  0  0  0  0  0
  142.9296   78.6593  222.7726 H   0  0  0  0  0  0  0  0  0  0  0  0
  141.3166   79.1126  219.6287 H   0  0  0  0  0  0  0  0  0  0  0  0
  142.8651   78.4913  220.4483 H   0  0  0  0  0  0  0  0  0  0  0  0
  139.2877   78.3763  221.4484 H   0  0  0  0  0  0  0  0  0  0  0  0
  138.1655   76.2818  222.0661 H   0  0  0  0  0  0  0  0  0  0  0  0
  138.2250   71.6989  222.2767 H   0  0  0  0  0  0  0  0  0  0  0  0
  139.5969   70.7352  221.4587 H   0  0  0  0  0  0  0  0  0  0  0  0
  140.4099   70.1078  223.1200 H   0  0  0  0  0  0  0  0  0  0  0  0
  137.7089   70.8048  224.3495 H   0  0  0  0  0  0  0  0  0  0  0  0
  138.2475   69.2553  223.5563 H   0  0  0  0  0  0  0  0  0  0  0  0
  138.5331   70.1834  226.3272 H   0  0  0  0  0  0  0  0  0  0  0  0
  138.5292   68.5107  225.5911 H   0  0  0  0  0  0  0  0  0  0  0  0
  140.6015   69.1409  226.7715 H   0  0  0  0  0  0  0  0  0  0  0  0
  140.7604   68.6707  225.0049 H   0  0  0  0  0  0  0  0  0  0  0  0
  141.3683   71.1853  226.3861 H   0  0  0  0  0  0  0  0  0  0  0  0
  142.0838   70.3834  224.9110 H   0  0  0  0  0  0  0  0  0  0  0  0
  139.6822   72.2341  225.1031 H   0  0  0  0  0  0  0  0  0  0  0  0
  141.0949   72.3354  224.0206 H   0  0  0  0  0  0  0  0  0  0  0  0
  142.0307   70.7646  221.9723 H   0  0  0  0  0  0  0  0  0  0  0  0
  142.3922   70.6157  219.3753 H   0  0  0  0  0  0  0  0  0  0  0  0
  143.8042   72.0089  217.6715 H   0  0  0  0  0  0  0  0  0  0  0  0
  145.9201   73.2120  217.2399 H   0  0  0  0  0  0  0  0  0  0  0  0
  146.6065   73.4914  221.4308 H   0  0  0  0  0  0  0  0  0  0  0  0
  144.4908   72.2869  221.8727 H   0  0  0  0  0  0  0  0  0  0  0  0
  142.8448   76.2289  220.4613 H   0  0  0  0  0  0  0  0  0  0  0  0
  142.1368   81.4751  220.3596 H   0  0  0  0  0  0  0  0  0  0  0  0
  140.4169   81.0322  220.5242 H   0  0  0  0  0  0  0  0  0  0  0  0
  142.2335   82.4987  222.4001 H   0  0  0  0  0  0  0  0  0  0  0  0
  140.4356   82.6562  222.0987 H   0  0  0  0  0  0  0  0  0  0  0  0
  1  2  1  0
  2  3  1  0
  3  4  1  0
  4  5  1  0
  5  6  1  0
  6  7  1  0
  7  8  2  0
  8  9  1  0
  9 10  2  0
 10 11  1  0
 11 12  2  0
 11 13  1  0
 13 14  1  0
 14 15  1  0
 15 16  1  0
 16 17  1  0
 17 18  1  0
 18 19  1  0
 19 20  1  0
 13 21  1  0
 21 22  1  0
 22 23  2  0
 23 24  1  0
 24 25  2  0
 25 26  1  0
 26 27  2  0
 27 28  1  0
 28 29  2  0
 21 30  2  0
 30 31  1  0
 31 32  2  0
  5 33  1  0
 33 34  1  0
 34  2  1  0
 32  7  1  0
 31 10  1  0
 20 15  1  0
 29 24  1  0
  1 35  1  0
  1 36  1  0
  1 37  1  0
  3 38  1  0
  3 39  1  0
  4 40  1  0
  4 41  1  0
  6 42  1  0
  6 43  1  0
  8 44  1  0
  9 45  1  0
 14 46  1  0
 14 47  1  0
 15 48  1  0
 16 49  1  0
 16 50  1  0
 17 51  1  0
 17 52  1  0
 18 53  1  0
 18 54  1  0
 19 55  1  0
 19 56  1  0
 20 57  1  0
 20 58  1  0
 22 59  1  0
 23 60  1  0
 25 61  1  0
 26 62  1  0
 28 63  1  0
 29 64  1  0
 32 65  1  0
 33 66  1  0
 33 67  1  0
 34 68  1  0
 34 69  1  0
M  END
>  <smiles>  (32) 
CN1CCN(Cc2ccc3c(=O)n(CC4CCCCC4)c(/C=C/c4ccncc4)nc3c2)CC1

>  <score_type>  (32) 
oracle

>  <origin>  (32) 
autodockgpu

>  <m_score__min__energy>  (32) 
-8.7799999999999994

>  <m_primary>  (32) 
energy

>  <rmsd>  (32) 
7.794330221679511

>  <m_score__min__rmsd>  (32) 
7.794330221679511

>  <meeko>  (32) 
{"free_energy": -8.33, "intermolecular_energy": -10.41, "internal_energy": -1.87, "cluster_size": 4, "cluster_id": 4, "rank_in_cluster": 4}

>  <energy>  (32) 
-8.3

>  <cluster_rmsd>  (32) 
0.2

>  <cluster>  (32) 
3

$$$$

     RDKit          3D

 69 73  0  0  0  0  0  0  0  0999 V2000
  141.0980   68.0730  226.4460 C   0  0  0  0  0  0  0  0  0  0  0  0
  140.3750   69.2820  226.7180 N   0  0  0  0  0  0  0  0  0  0  0  0
  141.0420   70.4910  226.3420 C   0  0  0  0  0  0  0  0  0  0  0  0
  140.3570   71.1390  225.1330 C   0  0  0  0  0  0  0  0  0  0  0  0
  139.7440   70.1280  224.3440 N   0  0  0  0  0  0  0  0  0  0  0  0
  139.7570   70.2930  222.9440 C   0  0  0  0  0  0  0  0  0  0  0  0
  140.2020   71.5880  222.4180 C   0  0  0  0  0  0  0  0  0  0  0  0
  141.4480   71.7580  221.8500 C   0  0  0  0  0  0  0  0  0  0  0  0
  141.8940   72.9640  221.3480 C   0  0  0  0  0  0  0  0  0  0  0  0
  141.0690   74.0770  221.4050 C   0  0  0  0  0  0  0  0  0  0  0  0
  141.4610   75.3120  220.9190 C   0  0  0  0  0  0  0  0  0  0  0  0
  142.6160   75.3610  220.4190 O   0  0  0  0  0  0  0  0  0  0  0  0
  140.6460   76.4050  220.9790 N   0  0  0  0  0  0  0  0  0  0  0  0
  141.1300   77.6420  220.4710 C   0  0  0  0  0  0  0  0  0  0  0  0
  141.5700   78.6750  221.4360 C   0  0  0  0  0  0  0  0  0  0  0  0
  141.4490   78.2670  222.8910 C   0  0  0  0  0  0  0  0  0  0  0  0
  141.8280   79.3730  223.8440 C   0  0  0  0  0  0  0  0  0  0  0  0
  142.6230   80.4590  223.2100 C   0  0  0  0  0  0  0  0  0  0  0  0
  142.0270   81.0140  221.9650 C   0  0  0  0  0  0  0  0  0  0  0  0
  141.0360   80.0520  221.2840 C   0  0  0  0  0  0  0  0  0  0  0  0
  139.4390   76.2020  221.5350 C   0  0  0  0  0  0  0  0  0  0  0  0
  138.4600   77.2820  221.5990 C   0  0  0  0  0  0  0  0  0  0  0  0
  138.1220   77.8550  222.7390 C   0  0  0  0  0  0  0  0  0  0  0  0
  138.0820   79.2870  222.9640 C   0  0  0  0  0  0  0  0  0  0  0  0
  138.4560   79.8940  224.1420 C   0  0  0  0  0  0  0  0  0  0  0  0
  138.4030   81.2630  224.3190 C   0  0  0  0  0  0  0  0  0  0  0  0
  137.9630   82.0400  223.2870 N   0  0  0  0  0  0  0  0  0  0  0  0
  137.5880   81.4930  222.1220 C   0  0  0  0  0  0  0  0  0  0  0  0
  137.6440   80.1190  221.9520 C   0  0  0  0  0  0  0  0  0  0  0  0
  139.0380   75.0030  222.0170 N   0  0  0  0  0  0  0  0  0  0  0  0
  139.8370   73.9170  221.9640 C   0  0  0  0  0  0  0  0  0  0  0  0
  139.3950   72.7180  222.4630 C   0  0  0  0  0  0  0  0  0  0  0  0
  138.6800   69.4030  224.9240 C   0  0  0  0  0  0  0  0  0  0  0  0
  138.9810   69.2430  226.4040 C   0  0  0  0  0  0  0  0  0  0  0  0
  141.3837   67.5953  227.3948 H   0  0  0  0  0  0  0  0  0  0  0  0
  140.4615   67.3874  225.8673 H   0  0  0  0  0  0  0  0  0  0  0  0
  142.0032   68.3094  225.8673 H   0  0  0  0  0  0  0  0  0  0  0  0
  141.0193   71.1933  227.1883 H   0  0  0  0  0  0  0  0  0  0  0  0
  142.0806   70.2504  226.0710 H   0  0  0  0  0  0  0  0  0  0  0  0
  139.5917   71.8486  225.4807 H   0  0  0  0  0  0  0  0  0  0  0  0
  141.1039   71.6758  224.5296 H   0  0  0  0  0  0  0  0  0  0  0  0
  140.4224   69.5223  222.5277 H   0  0  0  0  0  0  0  0  0  0  0  0
  138.7016   70.2166  222.6434 H   0  0  0  0  0  0  0  0  0  0  0  0
  142.1197   70.8887  221.7945 H   0  0  0  0  0  0  0  0  0  0  0  0
  142.8980   73.0416  220.9053 H   0  0  0  0  0  0  0  0  0  0  0  0
  141.9899   77.4139  219.8240 H   0  0  0  0  0  0  0  0  0  0  0  0
  140.2573   78.0904  219.9737 H   0  0  0  0  0  0  0  0  0  0  0  0
  142.6281   78.7316  221.1407 H   0  0  0  0  0  0  0  0  0  0  0  0
  140.4069   77.9754  223.0883 H   0  0  0  0  0  0  0  0  0  0  0  0
  142.1462   77.4329  223.0591 H   0  0  0  0  0  0  0  0  0  0  0  0
  140.9056   79.8108  224.2532 H   0  0  0  0  0  0  0  0  0  0  0  0
  142.4600   78.9240  224.6244 H   0  0  0  0  0  0  0  0  0  0  0  0
  142.7258   81.2785  223.9366 H   0  0  0  0  0  0  0  0  0  0  0  0
  143.5875   80.0142  222.9237 H   0  0  0  0  0  0  0  0  0  0  0  0
  141.4949   81.9433  222.2165 H   0  0  0  0  0  0  0  0  0  0  0  0
  142.8515   81.1876  221.2578 H   0  0  0  0  0  0  0  0  0  0  0  0
  140.0497   80.1270  221.7653 H   0  0  0  0  0  0  0  0  0  0  0  0
  140.9205   80.3061  220.2200 H   0  0  0  0  0  0  0  0  0  0  0  0
  137.9888   77.6296  220.6678 H   0  0  0  0  0  0  0  0  0  0  0  0
  137.8510   77.1988  223.5792 H   0  0  0  0  0  0  0  0  0  0  0  0
  138.8100   79.2657  224.9726 H   0  0  0  0  0  0  0  0  0  0  0  0
  138.7093   81.7177  225.2726 H   0  0  0  0  0  0  0  0  0  0  0  0
  137.2359   82.1349  221.3010 H   0  0  0  0  0  0  0  0  0  0  0  0
  137.3333   79.6818  220.9916 H   0  0  0  0  0  0  0  0  0  0  0  0
  138.3896   72.6505  222.9040 H   0  0  0  0  0  0  0  0  0  0  0  0
  137.7363   69.9524  224.7911 H   0  0  0  0  0  0  0  0  0  0  0  0
  138.5783   68.4187  224.4435 H   0  0  0  0  0  0  0  0  0  0  0  0
  138.4800   70.0563  226.9495 H   0  0  0  0  0  0  0  0  0  0  0  0
  138.6144   68.2488  226.6992 H   0  0  0  0  0  0  0  0  0  0  0  0
  1  2  1  0
  2  3  1  0
  3  4  1  0
  4  5  1  0
  5  6  1  0
  6  7  1  0
  7  8  2  0
  8  9  1  0
  9 10  2  0
 10 11  1  0
 11 12  2  0
 11 13  1  0
 13 14  1  0
 14 15  1  0
 15 16  1  0
 16 17  1  0
 17 18  1  0
 18 19  1  0
 19 20  1  0
 13 21  1  0
 21 22  1  0
 22 23  2  0
 23 24  1  0
 24 25  2  0
 25 26  1  0
 26 27  2  0
 27 28  1  0
 28 29  2  0
 21 30  2  0
 30 31  1  0
 31 32  2  0
  5 33  1  0
 33 34  1  0
 34  2  1  0
 32  7  1  0
 31 10  1  0
 20 15  1  0
 29 24  1  0
  1 35  1  0
  1 36  1  0
  1 37  1  0
  3 38  1  0
  3 39  1  0
  4 40  1  0
  4 41  1  0
  6 42  1  0
  6 43  1  0
  8 44  1  0
  9 45  1  0
 14 46  1  0
 14 47  1  0
 15 48  1  0
 16 49  1  0
 16 50  1  0
 17 51  1  0
 17 52  1  0
 18 53  1  0
 18 54  1  0
 19 55  1  0
 19 56  1  0
 20 57  1  0
 20 58  1  0
 22 59  1  0
 23 60  1  0
 25 61  1  0
 26 62  1  0
 28 63  1  0
 29 64  1  0
 32 65  1  0
 33 66  1  0
 33 67  1  0
 34 68  1  0
 34 69  1  0
M  END
>  <smiles>  (33) 
CN1CCN(Cc2ccc3c(=O)n(CC4CCCCC4)c(/C=C/c4ccncc4)nc3c2)CC1

>  <score_type>  (33) 
oracle

>  <origin>  (33) 
autodockgpu

>  <m_score__min__energy>  (33) 
-8.7799999999999994

>  <m_primary>  (33) 
energy

>  <rmsd>  (33) 
7.635699830925123

>  <m_score__min__rmsd>  (33) 
7.635699830925123

>  <meeko>  (33) 
{"free_energy": -7.85, "intermolecular_energy": -9.94, "internal_energy": -2.33, "cluster_size": 8, "cluster_id": 5, "rank_in_cluster": 5}

>  <energy>  (33) 
-8.29

>  <cluster_rmsd>  (33) 
0.19

>  <cluster>  (33) 
3

$$$$

     RDKit          3D

 69 73  0  0  0  0  0  0  0  0999 V2000
  140.9230   82.0880  222.2520 C   0  0  0  0  0  0  0  0  0  0  0  0
  140.9270   81.2010  223.3810 N   0  0  0  0  0  0  0  0  0  0  0  0
  139.8120   80.3080  223.4610 C   0  0  0  0  0  0  0  0  0  0  0  0
  140.2460   78.8670  223.1690 C   0  0  0  0  0  0  0  0  0  0  0  0
  141.3680   78.8820  222.2960 N   0  0  0  0  0  0  0  0  0  0  0  0
  141.4560   77.8630  221.3270 C   0  0  0  0  0  0  0  0  0  0  0  0
  140.4470   76.7990  221.3680 C   0  0  0  0  0  0  0  0  0  0  0  0
  139.1880   76.9620  220.8260 C   0  0  0  0  0  0  0  0  0  0  0  0
  138.2190   75.9800  220.8510 C   0  0  0  0  0  0  0  0  0  0  0  0
  138.4980   74.7580  221.4440 C   0  0  0  0  0  0  0  0  0  0  0  0
  137.5660   73.7360  221.5010 C   0  0  0  0  0  0  0  0  0  0  0  0
  136.4490   73.9840  220.9760 O   0  0  0  0  0  0  0  0  0  0  0  0
  137.8450   72.5340  222.0870 N   0  0  0  0  0  0  0  0  0  0  0  0
  136.8270   71.5410  222.1160 C   0  0  0  0  0  0  0  0  0  0  0  0
  135.9400   71.4770  223.3000 C   0  0  0  0  0  0  0  0  0  0  0  0
  135.5240   72.8290  223.8460 C   0  0  0  0  0  0  0  0  0  0  0  0
  134.6890   72.7240  225.0980 C   0  0  0  0  0  0  0  0  0  0  0  0
  134.0970   71.3760  225.3080 C   0  0  0  0  0  0  0  0  0  0  0  0
  135.0720   70.2540  225.2260 C   0  0  0  0  0  0  0  0  0  0  0  0
  136.3440   70.6110  224.4360 C   0  0  0  0  0  0  0  0  0  0  0  0
  139.0800   72.4090  222.6010 C   0  0  0  0  0  0  0  0  0  0  0  0
  139.5120   71.1500  223.1990 C   0  0  0  0  0  0  0  0  0  0  0  0
  140.5230   71.0870  224.0430 C   0  0  0  0  0  0  0  0  0  0  0  0
  140.3930   70.9560  225.4820 C   0  0  0  0  0  0  0  0  0  0  0  0
  140.8860   71.8680  226.3880 C   0  0  0  0  0  0  0  0  0  0  0  0
  140.7420   71.7090  227.7520 C   0  0  0  0  0  0  0  0  0  0  0  0
  140.0860   70.6070  228.2170 N   0  0  0  0  0  0  0  0  0  0  0  0
  139.5880   69.6920  227.3730 C   0  0  0  0  0  0  0  0  0  0  0  0
  139.7370   69.8590  226.0050 C   0  0  0  0  0  0  0  0  0  0  0  0
  140.0040   73.3970  222.5570 N   0  0  0  0  0  0  0  0  0  0  0  0
  139.7380   74.5880  221.9810 C   0  0  0  0  0  0  0  0  0  0  0  0
  140.7010   75.5650  221.9560 C   0  0  0  0  0  0  0  0  0  0  0  0
  142.5650   79.4500  222.7830 C   0  0  0  0  0  0  0  0  0  0  0  0
  142.1930   80.6110  223.6890 C   0  0  0  0  0  0  0  0  0  0  0  0
  140.9183   83.1300  222.6044 H   0  0  0  0  0  0  0  0  0  0  0  0
  141.8220   81.9108  221.6433 H   0  0  0  0  0  0  0  0  0  0  0  0
  140.0257   81.9027  221.6433 H   0  0  0  0  0  0  0  0  0  0  0  0
  139.3825   80.3572  224.4725 H   0  0  0  0  0  0  0  0  0  0  0  0
  139.0646   80.6095  222.7123 H   0  0  0  0  0  0  0  0  0  0  0  0
  140.5194   78.3677  224.1103 H   0  0  0  0  0  0  0  0  0  0  0  0
  139.4171   78.3215  222.6944 H   0  0  0  0  0  0  0  0  0  0  0  0
  141.3897   78.3417  220.3388 H   0  0  0  0  0  0  0  0  0  0  0  0
  142.4076   77.3545  221.5414 H   0  0  0  0  0  0  0  0  0  0  0  0
  138.9449   77.9234  220.3501 H   0  0  0  0  0  0  0  0  0  0  0  0
  137.2314   76.1654  220.4034 H   0  0  0  0  0  0  0  0  0  0  0  0
  136.1858   71.7067  221.2377 H   0  0  0  0  0  0  0  0  0  0  0  0
  137.3779   70.5892  222.1387 H   0  0  0  0  0  0  0  0  0  0  0  0
  135.0823   70.9718  222.8318 H   0  0  0  0  0  0  0  0  0  0  0  0
  136.4301   73.4088  224.0758 H   0  0  0  0  0  0  0  0  0  0  0  0
  134.9081   73.3201  223.0782 H   0  0  0  0  0  0  0  0  0  0  0  0
  135.3266   72.9622  225.9621 H   0  0  0  0  0  0  0  0  0  0  0  0
  133.8525   73.4298  224.9878 H   0  0  0  0  0  0  0  0  0  0  0  0
  133.6332   71.3560  226.3053 H   0  0  0  0  0  0  0  0  0  0  0  0
  133.3734   71.2218  224.4940 H   0  0  0  0  0  0  0  0  0  0  0  0
  135.3637   69.9692  226.2477 H   0  0  0  0  0  0  0  0  0  0  0  0
  134.5768   69.4296  224.6920 H   0  0  0  0  0  0  0  0  0  0  0  0
  137.0498   71.1496  225.0854 H   0  0  0  0  0  0  0  0  0  0  0  0
  136.8390   69.6996  224.0694 H   0  0  0  0  0  0  0  0  0  0  0  0
  138.9776   70.2248  222.9376 H   0  0  0  0  0  0  0  0  0  0  0  0
  141.5394   71.1375  223.6255 H   0  0  0  0  0  0  0  0  0  0  0  0
  141.4142   72.7563  226.0112 H   0  0  0  0  0  0  0  0  0  0  0  0
  141.1482   72.4561  228.4498 H   0  0  0  0  0  0  0  0  0  0  0  0
  139.0616   68.8096  227.7658 H   0  0  0  0  0  0  0  0  0  0  0  0
  139.3242   69.1021  225.3219 H   0  0  0  0  0  0  0  0  0  0  0  0
  141.6854   75.3697  222.4064 H   0  0  0  0  0  0  0  0  0  0  0  0
  143.1316   78.6981  223.3518 H   0  0  0  0  0  0  0  0  0  0  0  0
  143.1918   79.7989  221.9491 H   0  0  0  0  0  0  0  0  0  0  0  0
  142.1622   80.2456  224.7261 H   0  0  0  0  0  0  0  0  0  0  0  0
  142.9545   81.3906  223.5397 H   0  0  0  0  0  0  0  0  0  0  0  0
  1  2  1  0
  2  3  1  0
  3  4  1  0
  4  5  1  0
  5  6  1  0
  6  7  1  0
  7  8  2  0
  8  9  1  0
  9 10  2  0
 10 11  1  0
 11 12  2  0
 11 13  1  0
 13 14  1  0
 14 15  1  0
 15 16  1  0
 16 17  1  0
 17 18  1  0
 18 19  1  0
 19 20  1  0
 13 21  1  0
 21 22  1  0
 22 23  2  0
 23 24  1  0
 24 25  2  0
 25 26  1  0
 26 27  2  0
 27 28  1  0
 28 29  2  0
 21 30  2  0
 30 31  1  0
 31 32  2  0
  5 33  1  0
 33 34  1  0
 34  2  1  0
 32  7  1  0
 31 10  1  0
 20 15  1  0
 29 24  1  0
  1 35  1  0
  1 36  1  0
  1 37  1  0
  3 38  1  0
  3 39  1  0
  4 40  1  0
  4 41  1  0
  6 42  1  0
  6 43  1  0
  8 44  1  0
  9 45  1  0
 14 46  1  0
 14 47  1  0
 15 48  1  0
 16 49  1  0
 16 50  1  0
 17 51  1  0
 17 52  1  0
 18 53  1  0
 18 54  1  0
 19 55  1  0
 19 56  1  0
 20 57  1  0
 20 58  1  0
 22 59  1  0
 23 60  1  0
 25 61  1  0
 26 62  1  0
 28 63  1  0
 29 64  1  0
 32 65  1  0
 33 66  1  0
 33 67  1  0
 34 68  1  0
 34 69  1  0
M  END
>  <smiles>  (34) 
CN1CCN(Cc2ccc3c(=O)n(CC4CCCCC4)c(/C=C/c4ccncc4)nc3c2)CC1

>  <score_type>  (34) 
oracle

>  <origin>  (34) 
autodockgpu

>  <m_score__min__energy>  (34) 
-8.7799999999999994

>  <m_primary>  (34) 
energy

>  <rmsd>  (34) 
7.887491824943126

>  <m_score__min__rmsd>  (34) 
7.887491824943126

>  <meeko>  (34) 
{"free_energy": -8.29, "intermolecular_energy": -10.37, "internal_energy": -1.9, "cluster_size": 11, "cluster_id": 3, "rank_in_cluster": 6}

>  <energy>  (34) 
-8.27

>  <cluster_rmsd>  (34) 
0.67

>  <cluster>  (34) 
3

$$$$

     RDKit          3D

 69 73  0  0  0  0  0  0  0  0999 V2000
  141.2230   82.0170  222.0410 C   0  0  0  0  0  0  0  0  0  0  0  0
  141.2970   81.0500  223.0990 N   0  0  0  0  0  0  0  0  0  0  0  0
  140.0450   80.4830  223.4970 C   0  0  0  0  0  0  0  0  0  0  0  0
  139.9480   79.0160  223.0610 C   0  0  0  0  0  0  0  0  0  0  0  0
  140.7300   78.8220  221.8900 N   0  0  0  0  0  0  0  0  0  0  0  0
  140.2430   77.9210  220.9210 C   0  0  0  0  0  0  0  0  0  0  0  0
  140.2020   76.4990  221.2770 C   0  0  0  0  0  0  0  0  0  0  0  0
  141.3340   75.7100  221.2740 C   0  0  0  0  0  0  0  0  0  0  0  0
  141.3260   74.3700  221.6030 C   0  0  0  0  0  0  0  0  0  0  0  0
  140.1320   73.7600  221.9590 C   0  0  0  0  0  0  0  0  0  0  0  0
  140.0610   72.4200  222.2980 C   0  0  0  0  0  0  0  0  0  0  0  0
  141.1500   71.7890  222.2660 O   0  0  0  0  0  0  0  0  0  0  0  0
  138.8830   71.8230  222.6460 N   0  0  0  0  0  0  0  0  0  0  0  0
  138.8930   70.4370  222.9670 C   0  0  0  0  0  0  0  0  0  0  0  0
  139.5580   70.0100  224.2200 C   0  0  0  0  0  0  0  0  0  0  0  0
  138.8970   68.8350  224.9130 C   0  0  0  0  0  0  0  0  0  0  0  0
  139.5530   68.4830  226.2240 C   0  0  0  0  0  0  0  0  0  0  0  0
  140.9220   69.0460  226.3750 C   0  0  0  0  0  0  0  0  0  0  0  0
  141.0210   70.5070  226.1090 C   0  0  0  0  0  0  0  0  0  0  0  0
  139.8730   71.0450  225.2360 C   0  0  0  0  0  0  0  0  0  0  0  0
  137.8020   72.6210  222.6420 C   0  0  0  0  0  0  0  0  0  0  0  0
  136.4990   72.1100  223.0540 C   0  0  0  0  0  0  0  0  0  0  0  0
  135.4470   72.8950  223.1820 C   0  0  0  0  0  0  0  0  0  0  0  0
  134.7970   73.2080  224.4400 C   0  0  0  0  0  0  0  0  0  0  0  0
  134.2140   72.2690  225.2620 C   0  0  0  0  0  0  0  0  0  0  0  0
  133.6030   72.6050  226.4540 C   0  0  0  0  0  0  0  0  0  0  0  0
  133.5780   73.9170  226.8290 N   0  0  0  0  0  0  0  0  0  0  0  0
  134.1320   74.8660  226.0620 C   0  0  0  0  0  0  0  0  0  0  0  0
  134.7430   74.5200  224.8670 C   0  0  0  0  0  0  0  0  0  0  0  0
  137.8510   73.9330  222.3120 N   0  0  0  0  0  0  0  0  0  0  0  0
  139.0090   74.5310  221.9650 C   0  0  0  0  0  0  0  0  0  0  0  0
  139.0190   75.8630  221.6370 C   0  0  0  0  0  0  0  0  0  0  0  0
  142.1260   78.9970  222.0010 C   0  0  0  0  0  0  0  0  0  0  0  0
  142.3750   80.1160  222.9980 C   0  0  0  0  0  0  0  0  0  0  0  0
  141.1458   83.0263  222.4715 H   0  0  0  0  0  0  0  0  0  0  0  0
  142.1288   81.9514  221.4203 H   0  0  0  0  0  0  0  0  0  0  0  0
  140.3377   81.8144  221.4203 H   0  0  0  0  0  0  0  0  0  0  0  0
  139.9549   80.5405  224.5918 H   0  0  0  0  0  0  0  0  0  0  0  0
  139.2333   81.0481  223.0156 H   0  0  0  0  0  0  0  0  0  0  0  0
  140.3244   78.3676  223.8660 H   0  0  0  0  0  0  0  0  0  0  0  0
  138.8986   78.7626  222.8499 H   0  0  0  0  0  0  0  0  0  0  0  0
  139.2163   78.2279  220.6725 H   0  0  0  0  0  0  0  0  0  0  0  0
  140.9661   77.9816  220.0943 H   0  0  0  0  0  0  0  0  0  0  0  0
  142.2920   76.1730  220.9950 H   0  0  0  0  0  0  0  0  0  0  0  0
  142.2601   73.7894  221.5831 H   0  0  0  0  0  0  0  0  0  0  0  0
  137.8447   70.1092  223.0269 H   0  0  0  0  0  0  0  0  0  0  0  0
  139.4969   69.9786  222.1700 H   0  0  0  0  0  0  0  0  0  0  0  0
  140.5260   69.7072  223.7942 H   0  0  0  0  0  0  0  0  0  0  0  0
  137.8436   69.0874  225.1041 H   0  0  0  0  0  0  0  0  0  0  0  0
  138.9949   67.9628  224.2500 H   0  0  0  0  0  0  0  0  0  0  0  0
  138.9261   68.8691  227.0413 H   0  0  0  0  0  0  0  0  0  0  0  0
  139.6496   67.3876  226.2526 H   0  0  0  0  0  0  0  0  0  0  0  0
  141.2579   68.8609  227.4060 H   0  0  0  0  0  0  0  0  0  0  0  0
  141.5502   68.5475  225.6221 H   0  0  0  0  0  0  0  0  0  0  0  0
  141.0067   71.0391  227.0716 H   0  0  0  0  0  0  0  0  0  0  0  0
  141.9573   70.6754  225.5568 H   0  0  0  0  0  0  0  0  0  0  0  0
  138.9879   71.2403  225.8592 H   0  0  0  0  0  0  0  0  0  0  0  0
  140.1667   71.9868  224.7494 H   0  0  0  0  0  0  0  0  0  0  0  0
  136.3906   71.0358  223.2646 H   0  0  0  0  0  0  0  0  0  0  0  0
  135.0324   73.3451  222.2680 H   0  0  0  0  0  0  0  0  0  0  0  0
  134.2359   71.2122  224.9576 H   0  0  0  0  0  0  0  0  0  0  0  0
  133.1459   71.8311  227.0881 H   0  0  0  0  0  0  0  0  0  0  0  0
  134.1019   75.9185  226.3805 H   0  0  0  0  0  0  0  0  0  0  0  0
  135.1945   75.3074  224.2455 H   0  0  0  0  0  0  0  0  0  0  0  0
  138.0797   76.4350  221.6590 H   0  0  0  0  0  0  0  0  0  0  0  0
  142.5927   78.0670  222.3578 H   0  0  0  0  0  0  0  0  0  0  0  0
  142.5610   79.2496  221.0227 H   0  0  0  0  0  0  0  0  0  0  0  0
  142.5391   79.6674  223.9889 H   0  0  0  0  0  0  0  0  0  0  0  0
  143.2511   80.6758  222.6388 H   0  0  0  0  0  0  0  0  0  0  0  0
  1  2  1  0
  2  3  1  0
  3  4  1  0
  4  5  1  0
  5  6  1  0
  6  7  1  0
  7  8  2  0
  8  9  1  0
  9 10  2  0
 10 11  1  0
 11 12  2  0
 11 13  1  0
 13 14  1  0
 14 15  1  0
 15 16  1  0
 16 17  1  0
 17 18  1  0
 18 19  1  0
 19 20  1  0
 13 21  1  0
 21 22  1  0
 22 23  2  0
 23 24  1  0
 24 25  2  0
 25 26  1  0
 26 27  2  0
 27 28  1  0
 28 29  2  0
 21 30  2  0
 30 31  1  0
 31 32  2  0
  5 33  1  0
 33 34  1  0
 34  2  1  0
 32  7  1  0
 31 10  1  0
 20 15  1  0
 29 24  1  0
  1 35  1  0
  1 36  1  0
  1 37  1  0
  3 38  1  0
  3 39  1  0
  4 40  1  0
  4 41  1  0
  6 42  1  0
  6 43  1  0
  8 44  1  0
  9 45  1  0
 14 46  1  0
 14 47  1  0
 15 48  1  0
 16 49  1  0
 16 50  1  0
 17 51  1  0
 17 52  1  0
 18 53  1  0
 18 54  1  0
 19 55  1  0
 19 56  1  0
 20 57  1  0
 20 58  1  0
 22 59  1  0
 23 60  1  0
 25 61  1  0
 26 62  1  0
 28 63  1  0
 29 64  1  0
 32 65  1  0
 33 66  1  0
 33 67  1  0
 34 68  1  0
 34 69  1  0
M  END
>  <smiles>  (35) 
CN1CCN(Cc2ccc3c(=O)n(CC4CCCCC4)c(/C=C/c4ccncc4)nc3c2)CC1

>  <score_type>  (35) 
oracle

>  <origin>  (35) 
autodockgpu

>  <m_score__min__energy>  (35) 
-8.7799999999999994

>  <m_primary>  (35) 
energy

>  <rmsd>  (35) 
8.702257401789872

>  <m_score__min__rmsd>  (35) 
8.702257401789872

>  <meeko>  (35) 
{"free_energy": -8.38, "intermolecular_energy": -10.47, "internal_energy": -1.64, "cluster_size": 24, "cluster_id": 2, "rank_in_cluster": 3}

>  <energy>  (35) 
-8.26

>  <cluster_rmsd>  (35) 
0.72

>  <cluster>  (35) 
3

$$$$

     RDKit          3D

 69 73  0  0  0  0  0  0  0  0999 V2000
  143.3230   80.5190  223.5360 C   0  0  0  0  0  0  0  0  0  0  0  0
  141.9200   80.6870  223.2890 N   0  0  0  0  0  0  0  0  0  0  0  0
  141.5780   81.1120  221.9660 C   0  0  0  0  0  0  0  0  0  0  0  0
  140.9020   79.9780  221.1860 C   0  0  0  0  0  0  0  0  0  0  0  0
  141.3750   78.7280  221.6720 N   0  0  0  0  0  0  0  0  0  0  0  0
  141.5500   77.6870  220.7380 C   0  0  0  0  0  0  0  0  0  0  0  0
  140.6300   76.5470  220.8140 C   0  0  0  0  0  0  0  0  0  0  0  0
  139.4560   76.5040  220.0910 C   0  0  0  0  0  0  0  0  0  0  0  0
  138.5720   75.4450  220.1430 C   0  0  0  0  0  0  0  0  0  0  0  0
  138.8530   74.3570  220.9550 C   0  0  0  0  0  0  0  0  0  0  0  0
  138.0050   73.2680  221.0490 C   0  0  0  0  0  0  0  0  0  0  0  0
  136.9610   73.3250  220.3470 O   0  0  0  0  0  0  0  0  0  0  0  0
  138.2850   72.1990  221.8520 N   0  0  0  0  0  0  0  0  0  0  0  0
  137.3540   71.1260  221.9030 C   0  0  0  0  0  0  0  0  0  0  0  0
  136.4040   71.0720  223.0390 C   0  0  0  0  0  0  0  0  0  0  0  0
  135.9100   72.4260  223.5080 C   0  0  0  0  0  0  0  0  0  0  0  0
  135.0110   72.3360  224.7160 C   0  0  0  0  0  0  0  0  0  0  0  0
  134.4570   70.9750  224.9460 C   0  0  0  0  0  0  0  0  0  0  0  0
  135.4750   69.8890  224.9610 C   0  0  0  0  0  0  0  0  0  0  0  0
  136.7760   70.2650  224.2280 C   0  0  0  0  0  0  0  0  0  0  0  0
  139.4380   72.2740  222.5390 C   0  0  0  0  0  0  0  0  0  0  0  0
  139.8720   71.1650  223.3820 C   0  0  0  0  0  0  0  0  0  0  0  0
  140.7280   71.3320  224.3720 C   0  0  0  0  0  0  0  0  0  0  0  0
  140.4720   70.9780  225.7550 C   0  0  0  0  0  0  0  0  0  0  0  0
  140.8290   71.7600  226.8310 C   0  0  0  0  0  0  0  0  0  0  0  0
  140.5680   71.3890  228.1360 C   0  0  0  0  0  0  0  0  0  0  0  0
  139.9320   70.2030  228.3640 N   0  0  0  0  0  0  0  0  0  0  0  0
  139.5660   69.4090  227.3480 C   0  0  0  0  0  0  0  0  0  0  0  0
  139.8320   69.7890  226.0420 C   0  0  0  0  0  0  0  0  0  0  0  0
  140.2790   73.3310  222.4610 N   0  0  0  0  0  0  0  0  0  0  0  0
  140.0100   74.3920  221.6730 C   0  0  0  0  0  0  0  0  0  0  0  0
  140.8890   75.4450  221.6200 C   0  0  0  0  0  0  0  0  0  0  0  0
  141.0620   78.3870  223.0060 C   0  0  0  0  0  0  0  0  0  0  0  0
  141.0780   79.6640  223.8270 C   0  0  0  0  0  0  0  0  0  0  0  0
  143.5043   80.4973  224.6207 H   0  0  0  0  0  0  0  0  0  0  0  0
  143.6635   79.5737  223.0883 H   0  0  0  0  0  0  0  0  0  0  0  0
  143.8771   81.3572  223.0883 H   0  0  0  0  0  0  0  0  0  0  0  0
  140.8887   81.9669  222.0290 H   0  0  0  0  0  0  0  0  0  0  0  0
  142.4998   81.4005  221.4396 H   0  0  0  0  0  0  0  0  0  0  0  0
  139.8120   80.0368  221.3222 H   0  0  0  0  0  0  0  0  0  0  0  0
  141.1407   80.0724  220.1164 H   0  0  0  0  0  0  0  0  0  0  0  0
  141.4497   78.1249  219.7339 H   0  0  0  0  0  0  0  0  0  0  0  0
  142.5388   77.2650  220.9708 H   0  0  0  0  0  0  0  0  0  0  0  0
  139.2119   77.3566  219.4402 H   0  0  0  0  0  0  0  0  0  0  0  0
  137.6499   75.4643  219.5436 H   0  0  0  0  0  0  0  0  0  0  0  0
  136.7562   71.1697  220.9807 H   0  0  0  0  0  0  0  0  0  0  0  0
  137.9797   70.2303  222.0303 H   0  0  0  0  0  0  0  0  0  0  0  0
  135.5920   70.5178  222.5455 H   0  0  0  0  0  0  0  0  0  0  0  0
  136.7805   73.0480  223.7637 H   0  0  0  0  0  0  0  0  0  0  0  0
  135.3204   72.8643  222.6893 H   0  0  0  0  0  0  0  0  0  0  0  0
  135.5906   72.6301  225.6035 H   0  0  0  0  0  0  0  0  0  0  0  0
  134.1572   73.0051  224.5332 H   0  0  0  0  0  0  0  0  0  0  0  0
  133.9393   70.9742  225.9166 H   0  0  0  0  0  0  0  0  0  0  0  0
  133.7858   70.7633  224.1006 H   0  0  0  0  0  0  0  0  0  0  0  0
  135.7191   69.6534  226.0074 H   0  0  0  0  0  0  0  0  0  0  0  0
  135.0405   69.0272  224.4332 H   0  0  0  0  0  0  0  0  0  0  0  0
  137.4245   70.8540  224.8932 H   0  0  0  0  0  0  0  0  0  0  0  0
  137.3240   69.3606  223.9250 H   0  0  0  0  0  0  0  0  0  0  0  0
  139.4732   70.1587  223.1861 H   0  0  0  0  0  0  0  0  0  0  0  0
  141.7071   71.7717  224.1309 H   0  0  0  0  0  0  0  0  0  0  0  0
  141.3410   72.7155  226.6444 H   0  0  0  0  0  0  0  0  0  0  0  0
  140.8666   72.0360  228.9740 H   0  0  0  0  0  0  0  0  0  0  0  0
  139.0548   68.4563  227.5507 H   0  0  0  0  0  0  0  0  0  0  0  0
  139.5267   69.1291  225.2166 H   0  0  0  0  0  0  0  0  0  0  0  0
  141.8089   75.4162  222.2224 H   0  0  0  0  0  0  0  0  0  0  0  0
  140.0642   77.9261  223.0502 H   0  0  0  0  0  0  0  0  0  0  0  0
  141.7941   77.6671  223.4006 H   0  0  0  0  0  0  0  0  0  0  0  0
  140.0508   80.0538  223.8816 H   0  0  0  0  0  0  0  0  0  0  0  0
  141.4834   79.4034  224.8158 H   0  0  0  0  0  0  0  0  0  0  0  0
  1  2  1  0
  2  3  1  0
  3  4  1  0
  4  5  1  0
  5  6  1  0
  6  7  1  0
  7  8  2  0
  8  9  1  0
  9 10  2  0
 10 11  1  0
 11 12  2  0
 11 13  1  0
 13 14  1  0
 14 15  1  0
 15 16  1  0
 16 17  1  0
 17 18  1  0
 18 19  1  0
 19 20  1  0
 13 21  1  0
 21 22  1  0
 22 23  2  0
 23 24  1  0
 24 25  2  0
 25 26  1  0
 26 27  2  0
 27 28  1  0
 28 29  2  0
 21 30  2  0
 30 31  1  0
 31 32  2  0
  5 33  1  0
 33 34  1  0
 34  2  1  0
 32  7  1  0
 31 10  1  0
 20 15  1  0
 29 24  1  0
  1 35  1  0
  1 36  1  0
  1 37  1  0
  3 38  1  0
  3 39  1  0
  4 40  1  0
  4 41  1  0
  6 42  1  0
  6 43  1  0
  8 44  1  0
  9 45  1  0
 14 46  1  0
 14 47  1  0
 15 48  1  0
 16 49  1  0
 16 50  1  0
 17 51  1  0
 17 52  1  0
 18 53  1  0
 18 54  1  0
 19 55  1  0
 19 56  1  0
 20 57  1  0
 20 58  1  0
 22 59  1  0
 23 60  1  0
 25 61  1  0
 26 62  1  0
 28 63  1  0
 29 64  1  0
 32 65  1  0
 33 66  1  0
 33 67  1  0
 34 68  1  0
 34 69  1  0
M  END
>  <smiles>  (36) 
CN1CCN(Cc2ccc3c(=O)n(CC4CCCCC4)c(/C=C/c4ccncc4)nc3c2)CC1

>  <score_type>  (36) 
oracle

>  <origin>  (36) 
autodockgpu

>  <m_score__min__energy>  (36) 
-8.7799999999999994

>  <m_primary>  (36) 
energy

>  <rmsd>  (36) 
7.849925598353708

>  <m_score__min__rmsd>  (36) 
7.849925598353708

>  <meeko>  (36) 
{"free_energy": -8.26, "intermolecular_energy": -10.34, "internal_energy": -1.89, "cluster_size": 11, "cluster_id": 3, "rank_in_cluster": 9}

>  <energy>  (36) 
-8.26

>  <cluster_rmsd>  (36) 
0.71

>  <cluster>  (36) 
3

$$$$

     RDKit          3D

 69 73  0  0  0  0  0  0  0  0999 V2000
  143.0740   80.5600  223.8630 C   0  0  0  0  0  0  0  0  0  0  0  0
  141.7600   80.8360  223.3580 N   0  0  0  0  0  0  0  0  0  0  0  0
  141.6960   81.1640  221.9670 C   0  0  0  0  0  0  0  0  0  0  0  0
  141.0420   80.0310  221.1680 C   0  0  0  0  0  0  0  0  0  0  0  0
  141.2860   78.7940  221.8230 N   0  0  0  0  0  0  0  0  0  0  0  0
  141.5030   77.6580  221.0170 C   0  0  0  0  0  0  0  0  0  0  0  0
  140.5580   76.5430  221.1500 C   0  0  0  0  0  0  0  0  0  0  0  0
  139.2810   76.5990  220.6290 C   0  0  0  0  0  0  0  0  0  0  0  0
  138.3720   75.5680  220.7390 C   0  0  0  0  0  0  0  0  0  0  0  0
  138.7320   74.4040  221.4010 C   0  0  0  0  0  0  0  0  0  0  0  0
  137.8630   73.3360  221.5440 C   0  0  0  0  0  0  0  0  0  0  0  0
  136.7230   73.4870  221.0310 O   0  0  0  0  0  0  0  0  0  0  0  0
  138.2230   72.1930  222.1980 N   0  0  0  0  0  0  0  0  0  0  0  0
  137.2650   71.1470  222.3140 C   0  0  0  0  0  0  0  0  0  0  0  0
  136.2200   71.2640  223.3560 C   0  0  0  0  0  0  0  0  0  0  0  0
  135.9720   72.6780  223.8420 C   0  0  0  0  0  0  0  0  0  0  0  0
  134.9610   72.7460  224.9590 C   0  0  0  0  0  0  0  0  0  0  0  0
  134.1190   71.5250  225.0750 C   0  0  0  0  0  0  0  0  0  0  0  0
  134.8840   70.2500  225.1300 C   0  0  0  0  0  0  0  0  0  0  0  0
  136.2990   70.3640  224.5350 C   0  0  0  0  0  0  0  0  0  0  0  0
  139.4730   72.1720  222.6890 C   0  0  0  0  0  0  0  0  0  0  0  0
  139.9890   70.9800  223.3550 C   0  0  0  0  0  0  0  0  0  0  0  0
  139.4960   70.5490  224.5000 C   0  0  0  0  0  0  0  0  0  0  0  0
  140.0740   70.8190  225.8030 C   0  0  0  0  0  0  0  0  0  0  0  0
  140.8900   71.8950  226.0770 C   0  0  0  0  0  0  0  0  0  0  0  0
  141.4230   72.1190  227.3310 C   0  0  0  0  0  0  0  0  0  0  0  0
  141.1280   71.2420  228.3340 N   0  0  0  0  0  0  0  0  0  0  0  0
  140.3380   70.1820  228.1140 C   0  0  0  0  0  0  0  0  0  0  0  0
  139.8080   69.9630  226.8520 C   0  0  0  0  0  0  0  0  0  0  0  0
  140.3370   73.2050  222.5610 N   0  0  0  0  0  0  0  0  0  0  0  0
  139.9910   74.3400  221.9180 C   0  0  0  0  0  0  0  0  0  0  0  0
  140.8950   75.3660  221.8080 C   0  0  0  0  0  0  0  0  0  0  0  0
  140.7170   78.6100  223.1020 C   0  0  0  0  0  0  0  0  0  0  0  0
  140.7330   79.9510  223.8140 C   0  0  0  0  0  0  0  0  0  0  0  0
  143.0526   80.5645  224.9628 H   0  0  0  0  0  0  0  0  0  0  0  0
  143.4039   79.5730  223.5067 H   0  0  0  0  0  0  0  0  0  0  0  0
  143.7731   81.3309  223.5067 H   0  0  0  0  0  0  0  0  0  0  0  0
  141.1041   82.0825  221.8403 H   0  0  0  0  0  0  0  0  0  0  0  0
  142.7198   81.3125  221.5932 H   0  0  0  0  0  0  0  0  0  0  0  0
  139.9578   80.2051  221.1033 H   0  0  0  0  0  0  0  0  0  0  0  0
  141.4673   80.0016  220.1540 H   0  0  0  0  0  0  0  0  0  0  0  0
  141.4775   77.9883  219.9681 H   0  0  0  0  0  0  0  0  0  0  0  0
  142.4663   77.2515  221.3587 H   0  0  0  0  0  0  0  0  0  0  0  0
  138.9729   77.5124  220.0992 H   0  0  0  0  0  0  0  0  0  0  0  0
  137.3667   75.6684  220.3039 H   0  0  0  0  0  0  0  0  0  0  0  0
  136.7509   71.0675  221.3448 H   0  0  0  0  0  0  0  0  0  0  0  0
  137.8558   70.2709  222.6196 H   0  0  0  0  0  0  0  0  0  0  0  0
  135.3633   70.9072  222.7654 H   0  0  0  0  0  0  0  0  0  0  0  0
  136.9228   73.0968  224.2033 H   0  0  0  0  0  0  0  0  0  0  0  0
  135.5673   73.2518  222.9952 H   0  0  0  0  0  0  0  0  0  0  0  0
  135.4996   72.8884  225.9075 H   0  0  0  0  0  0  0  0  0  0  0  0
  134.2852   73.5837  224.7320 H   0  0  0  0  0  0  0  0  0  0  0  0
  133.5207   71.6065  225.9945 H   0  0  0  0  0  0  0  0  0  0  0  0
  133.5043   71.4816  224.1638 H   0  0  0  0  0  0  0  0  0  0  0  0
  134.9713   69.9401  226.1818 H   0  0  0  0  0  0  0  0  0  0  0  0
  134.3343   69.5134  224.5256 H   0  0  0  0  0  0  0  0  0  0  0  0
  136.9873   70.7850  225.2826 H   0  0  0  0  0  0  0  0  0  0  0  0
  136.6746   69.3732  224.2398 H   0  0  0  0  0  0  0  0  0  0  0  0
  140.8148   70.4238  222.8874 H   0  0  0  0  0  0  0  0  0  0  0  0
  138.5802   69.9407  224.4643 H   0  0  0  0  0  0  0  0  0  0  0  0
  141.1254   72.6013  225.2672 H   0  0  0  0  0  0  0  0  0  0  0  0
  142.0724   72.9870  227.5177 H   0  0  0  0  0  0  0  0  0  0  0  0
  140.1102   69.4859  228.9347 H   0  0  0  0  0  0  0  0  0  0  0  0
  139.1620   69.0888  226.6833 H   0  0  0  0  0  0  0  0  0  0  0  0
  141.8982   75.2559  222.2456 H   0  0  0  0  0  0  0  0  0  0  0  0
  139.6819   78.2511  223.0030 H   0  0  0  0  0  0  0  0  0  0  0  0
  141.2892   77.8644  223.6736 H   0  0  0  0  0  0  0  0  0  0  0  0
  139.7598   80.4388  223.6560 H   0  0  0  0  0  0  0  0  0  0  0  0
  140.9351   79.7468  224.8758 H   0  0  0  0  0  0  0  0  0  0  0  0
  1  2  1  0
  2  3  1  0
  3  4  1  0
  4  5  1  0
  5  6  1  0
  6  7  1  0
  7  8  2  0
  8  9  1  0
  9 10  2  0
 10 11  1  0
 11 12  2  0
 11 13  1  0
 13 14  1  0
 14 15  1  0
 15 16  1  0
 16 17  1  0
 17 18  1  0
 18 19  1  0
 19 20  1  0
 13 21  1  0
 21 22  1  0
 22 23  2  0
 23 24  1  0
 24 25  2  0
 25 26  1  0
 26 27  2  0
 27 28  1  0
 28 29  2  0
 21 30  2  0
 30 31  1  0
 31 32  2  0
  5 33  1  0
 33 34  1  0
 34  2  1  0
 32  7  1  0
 31 10  1  0
 20 15  1  0
 29 24  1  0
  1 35  1  0
  1 36  1  0
  1 37  1  0
  3 38  1  0
  3 39  1  0
  4 40  1  0
  4 41  1  0
  6 42  1  0
  6 43  1  0
  8 44  1  0
  9 45  1  0
 14 46  1  0
 14 47  1  0
 15 48  1  0
 16 49  1  0
 16 50  1  0
 17 51  1  0
 17 52  1  0
 18 53  1  0
 18 54  1  0
 19 55  1  0
 19 56  1  0
 20 57  1  0
 20 58  1  0
 22 59  1  0
 23 60  1  0
 25 61  1  0
 26 62  1  0
 28 63  1  0
 29 64  1  0
 32 65  1  0
 33 66  1  0
 33 67  1  0
 34 68  1  0
 34 69  1  0
M  END
>  <smiles>  (37) 
CN1CCN(Cc2ccc3c(=O)n(CC4CCCCC4)c(/C=C/c4ccncc4)nc3c2)CC1

>  <score_type>  (37) 
oracle

>  <origin>  (37) 
autodockgpu

>  <m_score__min__energy>  (37) 
-8.7799999999999994

>  <m_primary>  (37) 
energy

>  <rmsd>  (37) 
7.889558516345089

>  <m_score__min__rmsd>  (37) 
7.889558516345089

>  <meeko>  (37) 
{"free_energy": -8.26, "intermolecular_energy": -10.35, "internal_energy": -1.77, "cluster_size": 11, "cluster_id": 3, "rank_in_cluster": 8}

>  <energy>  (37) 
-8.11

>  <cluster_rmsd>  (37) 
0.63

>  <cluster>  (37) 
3

$$$$

     RDKit          3D

 69 73  0  0  0  0  0  0  0  0999 V2000
  143.1190   79.8850  222.7980 C   0  0  0  0  0  0  0  0  0  0  0  0
  141.9730   80.7260  222.9880 N   0  0  0  0  0  0  0  0  0  0  0  0
  141.4750   81.3580  221.8050 C   0  0  0  0  0  0  0  0  0  0  0  0
  140.1310   80.7510  221.3860 C   0  0  0  0  0  0  0  0  0  0  0  0
  140.0750   79.3970  221.8140 N   0  0  0  0  0  0  0  0  0  0  0  0
  139.4230   78.4720  220.9730 C   0  0  0  0  0  0  0  0  0  0  0  0
  139.5660   77.0470  221.2930 C   0  0  0  0  0  0  0  0  0  0  0  0
  140.8010   76.4360  221.3780 C   0  0  0  0  0  0  0  0  0  0  0  0
  140.9660   75.1000  221.6750 C   0  0  0  0  0  0  0  0  0  0  0  0
  139.8530   74.3060  221.9050 C   0  0  0  0  0  0  0  0  0  0  0  0
  139.9560   72.9590  222.2060 C   0  0  0  0  0  0  0  0  0  0  0  0
  141.1260   72.4990  222.2620 O   0  0  0  0  0  0  0  0  0  0  0  0
  138.8560   72.1810  222.4290 N   0  0  0  0  0  0  0  0  0  0  0  0
  139.0470   70.8020  222.7190 C   0  0  0  0  0  0  0  0  0  0  0  0
  139.5870   70.4310  224.0470 C   0  0  0  0  0  0  0  0  0  0  0  0
  138.7080   69.4850  224.8410 C   0  0  0  0  0  0  0  0  0  0  0  0
  139.2500   69.1960  226.2180 C   0  0  0  0  0  0  0  0  0  0  0  0
  140.6910   69.5300  226.3730 C   0  0  0  0  0  0  0  0  0  0  0  0
  141.0560   70.9060  225.9380 C   0  0  0  0  0  0  0  0  0  0  0  0
  140.0480   71.5180  224.9470 C   0  0  0  0  0  0  0  0  0  0  0  0
  137.6710   72.8090  222.3410 C   0  0  0  0  0  0  0  0  0  0  0  0
  136.4290   72.0940  222.6190 C   0  0  0  0  0  0  0  0  0  0  0  0
  136.0530   71.7960  223.8480 C   0  0  0  0  0  0  0  0  0  0  0  0
  135.2970   72.6780  224.7170 C   0  0  0  0  0  0  0  0  0  0  0  0
  135.4140   74.0500  224.7160 C   0  0  0  0  0  0  0  0  0  0  0  0
  134.6770   74.8570  225.5600 C   0  0  0  0  0  0  0  0  0  0  0  0
  133.8000   74.2710  226.4250 N   0  0  0  0  0  0  0  0  0  0  0  0
  133.6510   72.9390  226.4610 C   0  0  0  0  0  0  0  0  0  0  0  0
  134.3950   72.1360  225.6120 C   0  0  0  0  0  0  0  0  0  0  0  0
  137.5500   74.1240  222.0460 N   0  0  0  0  0  0  0  0  0  0  0  0
  138.6300   74.9010  221.8220 C   0  0  0  0  0  0  0  0  0  0  0  0
  138.4670   76.2300  221.5260 C   0  0  0  0  0  0  0  0  0  0  0  0
  140.0810   79.1510  223.2040 C   0  0  0  0  0  0  0  0  0  0  0  0
  140.9660   80.1990  223.8560 C   0  0  0  0  0  0  0  0  0  0  0  0
  143.5228   79.5887  223.7774 H   0  0  0  0  0  0  0  0  0  0  0  0
  142.8252   78.9865  222.2355 H   0  0  0  0  0  0  0  0  0  0  0  0
  143.8880   80.4347  222.2355 H   0  0  0  0  0  0  0  0  0  0  0  0
  141.3401   82.4322  221.9999 H   0  0  0  0  0  0  0  0  0  0  0  0
  142.1996   81.2035  220.9919 H   0  0  0  0  0  0  0  0  0  0  0  0
  139.3107   81.3178  221.8507 H   0  0  0  0  0  0  0  0  0  0  0  0
  140.0305   80.7967  220.2916 H   0  0  0  0  0  0  0  0  0  0  0  0
  138.3488   78.7081  220.9938 H   0  0  0  0  0  0  0  0  0  0  0  0
  139.9120   78.5898  219.9948 H   0  0  0  0  0  0  0  0  0  0  0  0
  141.6988   77.0461  221.1997 H   0  0  0  0  0  0  0  0  0  0  0  0
  141.9754   74.6662  221.7292 H   0  0  0  0  0  0  0  0  0  0  0  0
  138.0689   70.3093  222.6162 H   0  0  0  0  0  0  0  0  0  0  0  0
  139.8253   70.4815  222.0109 H   0  0  0  0  0  0  0  0  0  0  0  0
  140.4988   69.9152  223.7116 H   0  0  0  0  0  0  0  0  0  0  0  0
  137.7103   69.9365  224.9443 H   0  0  0  0  0  0  0  0  0  0  0  0
  138.6715   68.5313  224.2941 H   0  0  0  0  0  0  0  0  0  0  0  0
  138.6760   69.7851  226.9484 H   0  0  0  0  0  0  0  0  0  0  0  0
  139.1504   68.1130  226.3831 H   0  0  0  0  0  0  0  0  0  0  0  0
  140.9559   69.4239  227.4353 H   0  0  0  0  0  0  0  0  0  0  0  0
  141.2443   68.8385  225.7205 H   0  0  0  0  0  0  0  0  0  0  0  0
  141.1074   71.5514  226.8273 H   0  0  0  0  0  0  0  0  0  0  0  0
  142.0236   70.8383  225.4192 H   0  0  0  0  0  0  0  0  0  0  0  0
  139.1923   71.9397  225.4947 H   0  0  0  0  0  0  0  0  0  0  0  0
  140.5181   72.3262  224.3674 H   0  0  0  0  0  0  0  0  0  0  0  0
  135.7867   71.7944  221.7777 H   0  0  0  0  0  0  0  0  0  0  0  0
  136.3328   70.8079  224.2421 H   0  0  0  0  0  0  0  0  0  0  0  0
  136.1209   74.5207  224.0169 H   0  0  0  0  0  0  0  0  0  0  0  0
  134.7947   75.9504  225.5353 H   0  0  0  0  0  0  0  0  0  0  0  0
  132.9382   72.4840  227.1645 H   0  0  0  0  0  0  0  0  0  0  0  0
  134.2649   71.0444  225.6513 H   0  0  0  0  0  0  0  0  0  0  0  0
  137.4535   76.6543  221.4724 H   0  0  0  0  0  0  0  0  0  0  0  0
  139.0581   79.2248  223.6017 H   0  0  0  0  0  0  0  0  0  0  0  0
  140.4622   78.1408  223.4142 H   0  0  0  0  0  0  0  0  0  0  0  0
  140.3288   81.0301  224.1926 H   0  0  0  0  0  0  0  0  0  0  0  0
  141.4879   79.7043  224.6884 H   0  0  0  0  0  0  0  0  0  0  0  0
  1  2  1  0
  2  3  1  0
  3  4  1  0
  4  5  1  0
  5  6  1  0
  6  7  1  0
  7  8  2  0
  8  9  1  0
  9 10  2  0
 10 11  1  0
 11 12  2  0
 11 13  1  0
 13 14  1  0
 14 15  1  0
 15 16  1  0
 16 17  1  0
 17 18  1  0
 18 19  1  0
 19 20  1  0
 13 21  1  0
 21 22  1  0
 22 23  2  0
 23 24  1  0
 24 25  2  0
 25 26  1  0
 26 27  2  0
 27 28  1  0
 28 29  2  0
 21 30  2  0
 30 31  1  0
 31 32  2  0
  5 33  1  0
 33 34  1  0
 34  2  1  0
 32  7  1  0
 31 10  1  0
 20 15  1  0
 29 24  1  0
  1 35  1  0
  1 36  1  0
  1 37  1  0
  3 38  1  0
  3 39  1  0
  4 40  1  0
  4 41  1  0
  6 42  1  0
  6 43  1  0
  8 44  1  0
  9 45  1  0
 14 46  1  0
 14 47  1  0
 15 48  1  0
 16 49  1  0
 16 50  1  0
 17 51  1  0
 17 52  1  0
 18 53  1  0
 18 54  1  0
 19 55  1  0
 19 56  1  0
 20 57  1  0
 20 58  1  0
 22 59  1  0
 23 60  1  0
 25 61  1  0
 26 62  1  0
 28 63  1  0
 29 64  1  0
 32 65  1  0
 33 66  1  0
 33 67  1  0
 34 68  1  0
 34 69  1  0
M  END
>  <smiles>  (38) 
CN1CCN(Cc2ccc3c(=O)n(CC4CCCCC4)c(/C=C/c4ccncc4)nc3c2)CC1

>  <score_type>  (38) 
oracle

>  <origin>  (38) 
autodockgpu

>  <m_score__min__energy>  (38) 
-8.7799999999999994

>  <m_primary>  (38) 
energy

>  <rmsd>  (38) 
8.24366215166659

>  <m_score__min__rmsd>  (38) 
8.24366215166659

>  <meeko>  (38) 
{"free_energy": -8.03, "intermolecular_energy": -10.12, "internal_energy": -1.91, "cluster_size": 24, "cluster_id": 2, "rank_in_cluster": 22}

>  <energy>  (38) 
-8.09

>  <cluster_rmsd>  (38) 
0.7

>  <cluster>  (38) 
3

$$$$

     RDKit          3D

 69 73  0  0  0  0  0  0  0  0999 V2000
  142.9500   79.7830  222.8340 C   0  0  0  0  0  0  0  0  0  0  0  0
  142.0800   80.9230  222.8230 N   0  0  0  0  0  0  0  0  0  0  0  0
  141.6500   81.3530  221.5280 C   0  0  0  0  0  0  0  0  0  0  0  0
  140.1620   81.0490  221.3170 C   0  0  0  0  0  0  0  0  0  0  0  0
  139.8030   79.9110  222.0890 N   0  0  0  0  0  0  0  0  0  0  0  0
  138.8600   79.0190  221.5390 C   0  0  0  0  0  0  0  0  0  0  0  0
  139.0910   77.5840  221.7320 C   0  0  0  0  0  0  0  0  0  0  0  0
  140.3620   77.0490  221.7960 C   0  0  0  0  0  0  0  0  0  0  0  0
  140.6100   75.7040  221.9750 C   0  0  0  0  0  0  0  0  0  0  0  0
  139.5470   74.8220  222.1000 C   0  0  0  0  0  0  0  0  0  0  0  0
  139.7330   73.4620  222.2800 C   0  0  0  0  0  0  0  0  0  0  0  0
  140.9310   73.0760  222.3280 O   0  0  0  0  0  0  0  0  0  0  0  0
  138.6830   72.5970  222.4010 N   0  0  0  0  0  0  0  0  0  0  0  0
  138.9600   71.2130  222.5700 C   0  0  0  0  0  0  0  0  0  0  0  0
  139.2270   70.7100  223.9370 C   0  0  0  0  0  0  0  0  0  0  0  0
  140.4950   71.2510  224.5680 C   0  0  0  0  0  0  0  0  0  0  0  0
  140.7750   70.6550  225.9250 C   0  0  0  0  0  0  0  0  0  0  0  0
  139.5900   70.0060  226.5470 C   0  0  0  0  0  0  0  0  0  0  0  0
  138.8930   69.0250  225.6710 C   0  0  0  0  0  0  0  0  0  0  0  0
  139.1680   69.2460  224.1720 C   0  0  0  0  0  0  0  0  0  0  0  0
  137.4610   73.1530  222.3370 C   0  0  0  0  0  0  0  0  0  0  0  0
  136.2650   72.3370  222.5140 C   0  0  0  0  0  0  0  0  0  0  0  0
  135.8750   71.9140  223.7010 C   0  0  0  0  0  0  0  0  0  0  0  0
  135.1490   72.7170  224.6670 C   0  0  0  0  0  0  0  0  0  0  0  0
  134.2600   72.2030  225.5850 C   0  0  0  0  0  0  0  0  0  0  0  0
  133.5870   73.0000  226.4900 C   0  0  0  0  0  0  0  0  0  0  0  0
  133.8120   74.3460  226.4710 N   0  0  0  0  0  0  0  0  0  0  0  0
  134.6690   74.8910  225.5960 C   0  0  0  0  0  0  0  0  0  0  0  0
  135.3400   74.0840  224.6910 C   0  0  0  0  0  0  0  0  0  0  0  0
  137.2590   74.4790  222.1600 N   0  0  0  0  0  0  0  0  0  0  0  0
  138.2890   75.3410  222.0380 C   0  0  0  0  0  0  0  0  0  0  0  0
  138.0440   76.6790  221.8590 C   0  0  0  0  0  0  0  0  0  0  0  0
  139.8770   80.0250  223.4940 C   0  0  0  0  0  0  0  0  0  0  0  0
  141.0580   80.9210  223.8240 C   0  0  0  0  0  0  0  0  0  0  0  0
  143.1676   79.4979  223.8739 H   0  0  0  0  0  0  0  0  0  0  0  0
  142.4609   78.9435  222.3183 H   0  0  0  0  0  0  0  0  0  0  0  0
  143.8888   80.0332  222.3183 H   0  0  0  0  0  0  0  0  0  0  0  0
  141.8128   82.4370  221.4360 H   0  0  0  0  0  0  0  0  0  0  0  0
  142.2308   80.8114  220.7669 H   0  0  0  0  0  0  0  0  0  0  0  0
  139.5612   81.9138  221.6352 H   0  0  0  0  0  0  0  0  0  0  0  0
  139.9736   80.8474  220.2522 H   0  0  0  0  0  0  0  0  0  0  0  0
  137.8826   79.2578  221.9836 H   0  0  0  0  0  0  0  0  0  0  0  0
  138.9329   79.1703  220.4519 H   0  0  0  0  0  0  0  0  0  0  0  0
  141.2205   77.7299  221.6994 H   0  0  0  0  0  0  0  0  0  0  0  0
  141.6447   75.3331  222.0184 H   0  0  0  0  0  0  0  0  0  0  0  0
  138.0927   70.6581  222.1829 H   0  0  0  0  0  0  0  0  0  0  0  0
  139.9091   71.0600  222.0354 H   0  0  0  0  0  0  0  0  0  0  0  0
  138.3410   71.1270  224.4381 H   0  0  0  0  0  0  0  0  0  0  0  0
  141.3420   71.0248  223.9036 H   0  0  0  0  0  0  0  0  0  0  0  0
  140.3601   72.3342  224.7043 H   0  0  0  0  0  0  0  0  0  0  0  0
  141.5677   69.9001  225.8163 H   0  0  0  0  0  0  0  0  0  0  0  0
  141.0728   71.4828  226.5854 H   0  0  0  0  0  0  0  0  0  0  0  0
  139.9227   69.4807  227.4544 H   0  0  0  0  0  0  0  0  0  0  0  0
  138.8670   70.8085  226.7553 H   0  0  0  0  0  0  0  0  0  0  0  0
  139.2293   68.0135  225.9425 H   0  0  0  0  0  0  0  0  0  0  0  0
  137.8123   69.1577  225.8276 H   0  0  0  0  0  0  0  0  0  0  0  0
  140.1263   68.7827  223.8943 H   0  0  0  0  0  0  0  0  0  0  0  0
  138.3746   68.7889  223.5625 H   0  0  0  0  0  0  0  0  0  0  0  0
  135.6695   72.0658  221.6298 H   0  0  0  0  0  0  0  0  0  0  0  0
  136.1177   70.8776  223.9785 H   0  0  0  0  0  0  0  0  0  0  0  0
  134.0795   71.1180  225.5977 H   0  0  0  0  0  0  0  0  0  0  0  0
  132.8837   72.5589  227.2117 H   0  0  0  0  0  0  0  0  0  0  0  0
  134.8395   75.9777  225.5964 H   0  0  0  0  0  0  0  0  0  0  0  0
  136.0396   74.5424  223.9766 H   0  0  0  0  0  0  0  0  0  0  0  0
  137.0058   77.0400  221.8155 H   0  0  0  0  0  0  0  0  0  0  0  0
  138.9492   80.4699  223.8830 H   0  0  0  0  0  0  0  0  0  0  0  0
  140.0052   79.0342  223.9543 H   0  0  0  0  0  0  0  0  0  0  0  0
  140.6891   81.9502  223.9448 H   0  0  0  0  0  0  0  0  0  0  0  0
  141.5124   80.5253  224.7443 H   0  0  0  0  0  0  0  0  0  0  0  0
  1  2  1  0
  2  3  1  0
  3  4  1  0
  4  5  1  0
  5  6  1  0
  6  7  1  0
  7  8  2  0
  8  9  1  0
  9 10  2  0
 10 11  1  0
 11 12  2  0
 11 13  1  0
 13 14  1  0
 14 15  1  0
 15 16  1  0
 16 17  1  0
 17 18  1  0
 18 19  1  0
 19 20  1  0
 13 21  1  0
 21 22  1  0
 22 23  2  0
 23 24  1  0
 24 25  2  0
 25 26  1  0
 26 27  2  0
 27 28  1  0
 28 29  2  0
 21 30  2  0
 30 31  1  0
 31 32  2  0
  5 33  1  0
 33 34  1  0
 34  2  1  0
 32  7  1  0
 31 10  1  0
 20 15  1  0
 29 24  1  0
  1 35  1  0
  1 36  1  0
  1 37  1  0
  3 38  1  0
  3 39  1  0
  4 40  1  0
  4 41  1  0
  6 42  1  0
  6 43  1  0
  8 44  1  0
  9 45  1  0
 14 46  1  0
 14 47  1  0
 15 48  1  0
 16 49  1  0
 16 50  1  0
 17 51  1  0
 17 52  1  0
 18 53  1  0
 18 54  1  0
 19 55  1  0
 19 56  1  0
 20 57  1  0
 20 58  1  0
 22 59  1  0
 23 60  1  0
 25 61  1  0
 26 62  1  0
 28 63  1  0
 29 64  1  0
 32 65  1  0
 33 66  1  0
 33 67  1  0
 34 68  1  0
 34 69  1  0
M  END
>  <smiles>  (39) 
CN1CCN(Cc2ccc3c(=O)n(CC4CCCCC4)c(/C=C/c4ccncc4)nc3c2)CC1

>  <score_type>  (39) 
oracle

>  <origin>  (39) 
autodockgpu

>  <m_score__min__energy>  (39) 
-8.7799999999999994

>  <m_primary>  (39) 
energy

>  <rmsd>  (39) 
7.530995997522661

>  <m_score__min__rmsd>  (39) 
7.530995997522661

>  <meeko>  (39) 
{"free_energy": -8.28, "intermolecular_energy": -10.36, "internal_energy": -1.92, "cluster_size": 24, "cluster_id": 2, "rank_in_cluster": 9}

>  <energy>  (39) 
-8.36

>  <cluster_rmsd>  (39) 
0.0

>  <cluster>  (39) 
4

$$$$

     RDKit          3D

 69 73  0  0  0  0  0  0  0  0999 V2000
  139.6440   80.8240  223.7530 C   0  0  0  0  0  0  0  0  0  0  0  0
  141.0070   81.2210  223.5460 N   0  0  0  0  0  0  0  0  0  0  0  0
  141.9890   80.2320  223.8710 C   0  0  0  0  0  0  0  0  0  0  0  0
  142.6530   79.6850  222.6020 C   0  0  0  0  0  0  0  0  0  0  0  0
  141.7350   79.7690  221.5190 N   0  0  0  0  0  0  0  0  0  0  0  0
  141.7530   78.7310  220.5650 C   0  0  0  0  0  0  0  0  0  0  0  0
  141.1010   77.4670  220.9250 C   0  0  0  0  0  0  0  0  0  0  0  0
  139.7940   77.4170  221.3660 C   0  0  0  0  0  0  0  0  0  0  0  0
  139.1550   76.2450  221.7120 C   0  0  0  0  0  0  0  0  0  0  0  0
  139.8370   75.0410  221.6240 C   0  0  0  0  0  0  0  0  0  0  0  0
  139.2500   73.8330  221.9590 C   0  0  0  0  0  0  0  0  0  0  0  0
  138.0540   73.8960  222.3460 O   0  0  0  0  0  0  0  0  0  0  0  0
  139.9270   72.6500  221.8710 N   0  0  0  0  0  0  0  0  0  0  0  0
  139.2560   71.4540  222.2480 C   0  0  0  0  0  0  0  0  0  0  0  0
  139.6510   70.7950  223.5140 C   0  0  0  0  0  0  0  0  0  0  0  0
  138.5370   70.0280  224.1970 C   0  0  0  0  0  0  0  0  0  0  0  0
  138.9560   69.4400  225.5210 C   0  0  0  0  0  0  0  0  0  0  0  0
  140.4300   69.3590  225.6970 C   0  0  0  0  0  0  0  0  0  0  0  0
  141.1550   70.6310  225.4300 C   0  0  0  0  0  0  0  0  0  0  0  0
  140.3650   71.6030  224.5340 C   0  0  0  0  0  0  0  0  0  0  0  0
  141.1960   72.7360  221.4360 C   0  0  0  0  0  0  0  0  0  0  0  0
  141.9980   71.5320  221.2450 C   0  0  0  0  0  0  0  0  0  0  0  0
  142.7330   71.3460  220.1660 C   0  0  0  0  0  0  0  0  0  0  0  0
  143.9730   72.0430  219.8790 C   0  0  0  0  0  0  0  0  0  0  0  0
  144.7940   72.5840  220.8430 C   0  0  0  0  0  0  0  0  0  0  0  0
  145.9670   73.2430  220.5320 C   0  0  0  0  0  0  0  0  0  0  0  0
  146.3240   73.3600  219.2190 N   0  0  0  0  0  0  0  0  0  0  0  0
  145.5560   72.8490  218.2470 C   0  0  0  0  0  0  0  0  0  0  0  0
  144.3800   72.1900  218.5680 C   0  0  0  0  0  0  0  0  0  0  0  0
  141.7880   73.9070  221.1050 N   0  0  0  0  0  0  0  0  0  0  0  0
  141.1280   75.0810  221.1900 C   0  0  0  0  0  0  0  0  0  0  0  0
  141.7620   76.2480  220.8460 C   0  0  0  0  0  0  0  0  0  0  0  0
  141.3340   81.0560  221.1020 C   0  0  0  0  0  0  0  0  0  0  0  0
  141.2570   81.9400  222.3350 C   0  0  0  0  0  0  0  0  0  0  0  0
  139.4393   80.7644  224.8321 H   0  0  0  0  0  0  0  0  0  0  0  0
  138.9726   81.5639  223.2928 H   0  0  0  0  0  0  0  0  0  0  0  0
  139.4750   79.8393  223.2928 H   0  0  0  0  0  0  0  0  0  0  0  0
  142.7582   80.6853  224.5135 H   0  0  0  0  0  0  0  0  0  0  0  0
  141.4926   79.4017  224.3946 H   0  0  0  0  0  0  0  0  0  0  0  0
  143.5496   80.2789  222.3709 H   0  0  0  0  0  0  0  0  0  0  0  0
  142.9423   78.6355  222.7599 H   0  0  0  0  0  0  0  0  0  0  0  0
  141.2595   79.1092  219.6576 H   0  0  0  0  0  0  0  0  0  0  0  0
  142.8166   78.4744  220.4510 H   0  0  0  0  0  0  0  0  0  0  0  0
  139.2335   78.3602  221.4455 H   0  0  0  0  0  0  0  0  0  0  0  0
  138.1103   76.2652  222.0558 H   0  0  0  0  0  0  0  0  0  0  0  0
  138.1850   71.6924  222.3257 H   0  0  0  0  0  0  0  0  0  0  0  0
  139.5338   70.7301  221.4677 H   0  0  0  0  0  0  0  0  0  0  0  0
  140.4002   70.1001  223.1069 H   0  0  0  0  0  0  0  0  0  0  0  0
  137.6931   70.7125  224.3682 H   0  0  0  0  0  0  0  0  0  0  0  0
  138.2588   69.1925  223.5378 H   0  0  0  0  0  0  0  0  0  0  0  0
  138.5437   70.0665  226.3257 H   0  0  0  0  0  0  0  0  0  0  0  0
  138.5705   68.4103  225.5529 H   0  0  0  0  0  0  0  0  0  0  0  0
  140.6359   69.0577  226.7347 H   0  0  0  0  0  0  0  0  0  0  0  0
  140.7935   68.6308  224.9570 H   0  0  0  0  0  0  0  0  0  0  0  0
  141.3567   71.1268  226.3910 H   0  0  0  0  0  0  0  0  0  0  0  0
  142.0813   70.3733  224.8956 H   0  0  0  0  0  0  0  0  0  0  0  0
  139.6406   72.1669  225.1400 H   0  0  0  0  0  0  0  0  0  0  0  0
  141.0440   72.3213  224.0513 H   0  0  0  0  0  0  0  0  0  0  0  0
  141.9892   70.7560  222.0246 H   0  0  0  0  0  0  0  0  0  0  0  0
  142.3804   70.6087  219.4298 H   0  0  0  0  0  0  0  0  0  0  0  0
  144.5048   72.4877  221.8999 H   0  0  0  0  0  0  0  0  0  0  0  0
  146.6009   73.6651  221.3257 H   0  0  0  0  0  0  0  0  0  0  0  0
  145.8590   72.9526  217.1946 H   0  0  0  0  0  0  0  0  0  0  0  0
  143.7577   71.7753  217.7613 H   0  0  0  0  0  0  0  0  0  0  0  0
  142.8068   76.2179  220.5033 H   0  0  0  0  0  0  0  0  0  0  0  0
  142.0686   81.4656  220.3931 H   0  0  0  0  0  0  0  0  0  0  0  0
  140.3563   81.0103  220.6001 H   0  0  0  0  0  0  0  0  0  0  0  0
  142.2133   82.4735  222.4395 H   0  0  0  0  0  0  0  0  0  0  0  0
  140.4078   82.6233  222.1869 H   0  0  0  0  0  0  0  0  0  0  0  0
  1  2  1  0
  2  3  1  0
  3  4  1  0
  4  5  1  0
  5  6  1  0
  6  7  1  0
  7  8  2  0
  8  9  1  0
  9 10  2  0
 10 11  1  0
 11 12  2  0
 11 13  1  0
 13 14  1  0
 14 15  1  0
 15 16  1  0
 16 17  1  0
 17 18  1  0
 18 19  1  0
 19 20  1  0
 13 21  1  0
 21 22  1  0
 22 23  2  0
 23 24  1  0
 24 25  2  0
 25 26  1  0
 26 27  2  0
 27 28  1  0
 28 29  2  0
 21 30  2  0
 30 31  1  0
 31 32  2  0
  5 33  1  0
 33 34  1  0
 34  2  1  0
 32  7  1  0
 31 10  1  0
 20 15  1  0
 29 24  1  0
  1 35  1  0
  1 36  1  0
  1 37  1  0
  3 38  1  0
  3 39  1  0
  4 40  1  0
  4 41  1  0
  6 42  1  0
  6 43  1  0
  8 44  1  0
  9 45  1  0
 14 46  1  0
 14 47  1  0
 15 48  1  0
 16 49  1  0
 16 50  1  0
 17 51  1  0
 17 52  1  0
 18 53  1  0
 18 54  1  0
 19 55  1  0
 19 56  1  0
 20 57  1  0
 20 58  1  0
 22 59  1  0
 23 60  1  0
 25 61  1  0
 26 62  1  0
 28 63  1  0
 29 64  1  0
 32 65  1  0
 33 66  1  0
 33 67  1  0
 34 68  1  0
 34 69  1  0
M  END
>  <smiles>  (40) 
CN1CCN(Cc2ccc3c(=O)n(CC4CCCCC4)c(/C=C/c4ccncc4)nc3c2)CC1

>  <score_type>  (40) 
oracle

>  <origin>  (40) 
autodockgpu

>  <m_score__min__energy>  (40) 
-8.7799999999999994

>  <m_primary>  (40) 
energy

>  <rmsd>  (40) 
7.818770740421313

>  <m_score__min__rmsd>  (40) 
7.818770740421313

>  <meeko>  (40) 
{"free_energy": -8.36, "intermolecular_energy": -10.45, "internal_energy": -1.86, "cluster_size": 4, "cluster_id": 4, "rank_in_cluster": 1}

>  <energy>  (40) 
-8.35

>  <cluster_rmsd>  (40) 
0.32

>  <cluster>  (40) 
4

$$$$

     RDKit          3D

 69 73  0  0  0  0  0  0  0  0999 V2000
  141.5550   67.8460  226.4770 C   0  0  0  0  0  0  0  0  0  0  0  0
  140.5450   68.8040  226.8260 N   0  0  0  0  0  0  0  0  0  0  0  0
  140.8560   70.1640  226.5090 C   0  0  0  0  0  0  0  0  0  0  0  0
  139.9900   70.6660  225.3470 C   0  0  0  0  0  0  0  0  0  0  0  0
  139.6460   69.5690  224.5110 N   0  0  0  0  0  0  0  0  0  0  0  0
  139.5760   69.8010  223.1230 C   0  0  0  0  0  0  0  0  0  0  0  0
  139.4670   71.1940  222.6730 C   0  0  0  0  0  0  0  0  0  0  0  0
  138.2800   71.8940  222.7400 C   0  0  0  0  0  0  0  0  0  0  0  0
  138.1480   73.2030  222.3240 C   0  0  0  0  0  0  0  0  0  0  0  0
  139.2480   73.8720  221.8080 C   0  0  0  0  0  0  0  0  0  0  0  0
  139.1760   75.1840  221.3740 C   0  0  0  0  0  0  0  0  0  0  0  0
  138.0490   75.7350  221.4800 O   0  0  0  0  0  0  0  0  0  0  0  0
  140.2620   75.8380  220.8650 N   0  0  0  0  0  0  0  0  0  0  0  0
  140.1010   77.1820  220.4270 C   0  0  0  0  0  0  0  0  0  0  0  0
  140.5920   78.2710  221.3020 C   0  0  0  0  0  0  0  0  0  0  0  0
  141.6190   79.1800  220.6570 C   0  0  0  0  0  0  0  0  0  0  0  0
  142.1560   80.2240  221.6050 C   0  0  0  0  0  0  0  0  0  0  0  0
  141.3050   80.4310  222.8070 C   0  0  0  0  0  0  0  0  0  0  0  0
  140.9540   79.1830  223.5370 C   0  0  0  0  0  0  0  0  0  0  0  0
  141.0610   77.9180  222.6660 C   0  0  0  0  0  0  0  0  0  0  0  0
  141.4010   75.1270  220.8170 C   0  0  0  0  0  0  0  0  0  0  0  0
  142.6390   75.7390  220.3490 C   0  0  0  0  0  0  0  0  0  0  0  0
  143.3670   75.2020  219.3880 C   0  0  0  0  0  0  0  0  0  0  0  0
  144.3690   74.1730  219.5870 C   0  0  0  0  0  0  0  0  0  0  0  0
  144.5320   73.0840  218.7600 C   0  0  0  0  0  0  0  0  0  0  0  0
  145.4990   72.1240  218.9820 C   0  0  0  0  0  0  0  0  0  0  0  0
  146.3220   72.2610  220.0620 N   0  0  0  0  0  0  0  0  0  0  0  0
  146.2010   73.3040  220.8950 C   0  0  0  0  0  0  0  0  0  0  0  0
  145.2280   74.2640  220.6650 C   0  0  0  0  0  0  0  0  0  0  0  0
  141.4900   73.8430  221.2350 N   0  0  0  0  0  0  0  0  0  0  0  0
  140.4230   73.1880  221.7380 C   0  0  0  0  0  0  0  0  0  0  0  0
  140.5530   71.8860  222.1520 C   0  0  0  0  0  0  0  0  0  0  0  0
  138.8290   68.5590  225.0640 C   0  0  0  0  0  0  0  0  0  0  0  0
  139.2020   68.4100  226.5290 C   0  0  0  0  0  0  0  0  0  0  0  0
  141.9960   67.4277  227.3938 H   0  0  0  0  0  0  0  0  0  0  0  0
  141.1035   67.0364  225.8849 H   0  0  0  0  0  0  0  0  0  0  0  0
  142.3396   68.3397  225.8849 H   0  0  0  0  0  0  0  0  0  0  0  0
  140.6711   70.7914  227.3934 H   0  0  0  0  0  0  0  0  0  0  0  0
  141.9132   70.2229  226.2109 H   0  0  0  0  0  0  0  0  0  0  0  0
  139.0737   71.1273  225.7439 H   0  0  0  0  0  0  0  0  0  0  0  0
  140.5504   71.4122  224.7647 H   0  0  0  0  0  0  0  0  0  0  0  0
  140.4866   69.3795  222.6722 H   0  0  0  0  0  0  0  0  0  0  0  0
  138.6332   69.3302  222.8075 H   0  0  0  0  0  0  0  0  0  0  0  0
  137.3943   71.3829  223.1454 H   0  0  0  0  0  0  0  0  0  0  0  0
  137.1763   73.7128  222.4011 H   0  0  0  0  0  0  0  0  0  0  0  0
  140.6263   77.2758  219.4651 H   0  0  0  0  0  0  0  0  0  0  0  0
  139.0112   77.3285  220.3983 H   0  0  0  0  0  0  0  0  0  0  0  0
  139.6418   78.8071  221.4426 H   0  0  0  0  0  0  0  0  0  0  0  0
  142.4581   78.5645  220.3007 H   0  0  0  0  0  0  0  0  0  0  0  0
  141.1201   79.7087  219.8315 H   0  0  0  0  0  0  0  0  0  0  0  0
  143.1566   79.9103  221.9372 H   0  0  0  0  0  0  0  0  0  0  0  0
  142.1770   81.1773  221.0566 H   0  0  0  0  0  0  0  0  0  0  0  0
  141.8442   81.0940  223.4996 H   0  0  0  0  0  0  0  0  0  0  0  0
  140.3578   80.8611  222.4493 H   0  0  0  0  0  0  0  0  0  0  0  0
  141.6358   79.0759  224.3936 H   0  0  0  0  0  0  0  0  0  0  0  0
  139.9040   79.2740  223.8521 H   0  0  0  0  0  0  0  0  0  0  0  0
  142.1061   77.5769  222.6267 H   0  0  0  0  0  0  0  0  0  0  0  0
  140.4493   77.1064  223.0868 H   0  0  0  0  0  0  0  0  0  0  0  0
  142.9769   76.6781  220.8116 H   0  0  0  0  0  0  0  0  0  0  0  0
  143.2016   75.5612  218.3615 H   0  0  0  0  0  0  0  0  0  0  0  0
  143.8672   72.9750  217.8904 H   0  0  0  0  0  0  0  0  0  0  0  0
  145.6040   71.2658  218.3020 H   0  0  0  0  0  0  0  0  0  0  0  0
  146.8733   73.3981  221.7605 H   0  0  0  0  0  0  0  0  0  0  0  0
  145.1380   75.1159  221.3551 H   0  0  0  0  0  0  0  0  0  0  0  0
  141.5286   71.3845  222.0703 H   0  0  0  0  0  0  0  0  0  0  0  0
  137.7702   68.8435  224.9745 H   0  0  0  0  0  0  0  0  0  0  0  0
  138.9791   67.6086  224.5308 H   0  0  0  0  0  0  0  0  0  0  0  0
  138.5182   69.0315  227.1259 H   0  0  0  0  0  0  0  0  0  0  0  0
  139.1205   67.3405  226.7731 H   0  0  0  0  0  0  0  0  0  0  0  0
  1  2  1  0
  2  3  1  0
  3  4  1  0
  4  5  1  0
  5  6  1  0
  6  7  1  0
  7  8  2  0
  8  9  1  0
  9 10  2  0
 10 11  1  0
 11 12  2  0
 11 13  1  0
 13 14  1  0
 14 15  1  0
 15 16  1  0
 16 17  1  0
 17 18  1  0
 18 19  1  0
 19 20  1  0
 13 21  1  0
 21 22  1  0
 22 23  2  0
 23 24  1  0
 24 25  2  0
 25 26  1  0
 26 27  2  0
 27 28  1  0
 28 29  2  0
 21 30  2  0
 30 31  1  0
 31 32  2  0
  5 33  1  0
 33 34  1  0
 34  2  1  0
 32  7  1  0
 31 10  1  0
 20 15  1  0
 29 24  1  0
  1 35  1  0
  1 36  1  0
  1 37  1  0
  3 38  1  0
  3 39  1  0
  4 40  1  0
  4 41  1  0
  6 42  1  0
  6 43  1  0
  8 44  1  0
  9 45  1  0
 14 46  1  0
 14 47  1  0
 15 48  1  0
 16 49  1  0
 16 50  1  0
 17 51  1  0
 17 52  1  0
 18 53  1  0
 18 54  1  0
 19 55  1  0
 19 56  1  0
 20 57  1  0
 20 58  1  0
 22 59  1  0
 23 60  1  0
 25 61  1  0
 26 62  1  0
 28 63  1  0
 29 64  1  0
 32 65  1  0
 33 66  1  0
 33 67  1  0
 34 68  1  0
 34 69  1  0
M  END
>  <smiles>  (41) 
CN1CCN(Cc2ccc3c(=O)n(CC4CCCCC4)c(/C=C/c4ccncc4)nc3c2)CC1

>  <score_type>  (41) 
oracle

>  <origin>  (41) 
autodockgpu

>  <m_score__min__energy>  (41) 
-8.7799999999999994

>  <m_primary>  (41) 
energy

>  <rmsd>  (41) 
7.662703550634685

>  <m_score__min__rmsd>  (41) 
7.662703550634685

>  <meeko>  (41) 
{"free_energy": -8.35, "intermolecular_energy": -10.43, "internal_energy": -1.75, "cluster_size": 3, "cluster_id": 1, "rank_in_cluster": 3}

>  <energy>  (41) 
-8.35

>  <cluster_rmsd>  (41) 
0.06

>  <cluster>  (41) 
4

$$$$

     RDKit          3D

 69 73  0  0  0  0  0  0  0  0999 V2000
  141.0810   68.1080  226.3200 C   0  0  0  0  0  0  0  0  0  0  0  0
  140.3450   69.3100  226.5870 N   0  0  0  0  0  0  0  0  0  0  0  0
  141.0130   70.5270  226.2410 C   0  0  0  0  0  0  0  0  0  0  0  0
  140.3530   71.1840  225.0230 C   0  0  0  0  0  0  0  0  0  0  0  0
  139.7650   70.1790  224.2080 N   0  0  0  0  0  0  0  0  0  0  0  0
  139.8100   70.3590  222.8110 C   0  0  0  0  0  0  0  0  0  0  0  0
  140.2430   71.6680  222.3100 C   0  0  0  0  0  0  0  0  0  0  0  0
  141.4680   71.8500  221.7000 C   0  0  0  0  0  0  0  0  0  0  0  0
  141.9030   73.0680  221.2210 C   0  0  0  0  0  0  0  0  0  0  0  0
  141.0880   74.1840  221.3450 C   0  0  0  0  0  0  0  0  0  0  0  0
  141.4700   75.4320  220.8850 C   0  0  0  0  0  0  0  0  0  0  0  0
  142.6040   75.4910  220.3420 O   0  0  0  0  0  0  0  0  0  0  0  0
  140.6640   76.5270  221.0110 N   0  0  0  0  0  0  0  0  0  0  0  0
  141.1370   77.7770  220.5240 C   0  0  0  0  0  0  0  0  0  0  0  0
  141.5470   78.8050  221.5090 C   0  0  0  0  0  0  0  0  0  0  0  0
  141.4950   78.3480  222.9530 C   0  0  0  0  0  0  0  0  0  0  0  0
  141.8400   79.4460  223.9280 C   0  0  0  0  0  0  0  0  0  0  0  0
  142.5510   80.5940  223.3060 C   0  0  0  0  0  0  0  0  0  0  0  0
  141.8860   81.1500  222.0960 C   0  0  0  0  0  0  0  0  0  0  0  0
  140.9310   80.1530  221.4150 C   0  0  0  0  0  0  0  0  0  0  0  0
  139.4790   76.3130  221.6070 C   0  0  0  0  0  0  0  0  0  0  0  0
  138.5100   77.3960  221.7430 C   0  0  0  0  0  0  0  0  0  0  0  0
  138.3090   78.0150  222.8900 C   0  0  0  0  0  0  0  0  0  0  0  0
  138.0480   79.4350  223.0280 C   0  0  0  0  0  0  0  0  0  0  0  0
  137.5860   80.2370  222.0080 C   0  0  0  0  0  0  0  0  0  0  0  0
  137.3490   81.5870  222.1770 C   0  0  0  0  0  0  0  0  0  0  0  0
  137.5810   82.1450  223.4010 N   0  0  0  0  0  0  0  0  0  0  0  0
  138.0300   81.4030  224.4230 C   0  0  0  0  0  0  0  0  0  0  0  0
  138.2660   80.0490  224.2450 C   0  0  0  0  0  0  0  0  0  0  0  0
  139.0880   75.1010  222.0650 N   0  0  0  0  0  0  0  0  0  0  0  0
  139.8770   74.0130  221.9460 C   0  0  0  0  0  0  0  0  0  0  0  0
  139.4460   72.8010  222.4230 C   0  0  0  0  0  0  0  0  0  0  0  0
  138.6920   69.4420  224.7550 C   0  0  0  0  0  0  0  0  0  0  0  0
  138.9580   69.2670  226.2400 C   0  0  0  0  0  0  0  0  0  0  0  0
  141.3699   67.6361  227.2707 H   0  0  0  0  0  0  0  0  0  0  0  0
  140.4528   67.4141  225.7423 H   0  0  0  0  0  0  0  0  0  0  0  0
  141.9847   68.3521  225.7423 H   0  0  0  0  0  0  0  0  0  0  0  0
  140.9652   71.2196  227.0942 H   0  0  0  0  0  0  0  0  0  0  0  0
  142.0595   70.2961  225.9928 H   0  0  0  0  0  0  0  0  0  0  0  0
  139.5754   71.8852  225.3601 H   0  0  0  0  0  0  0  0  0  0  0  0
  141.1112   71.7313  224.4436 H   0  0  0  0  0  0  0  0  0  0  0  0
  140.5004   69.6056  222.4039 H   0  0  0  0  0  0  0  0  0  0  0  0
  138.7643   70.2654  222.4828 H   0  0  0  0  0  0  0  0  0  0  0  0
  142.1310   70.9791  221.5904 H   0  0  0  0  0  0  0  0  0  0  0  0
  142.8902   73.1541  220.7435 H   0  0  0  0  0  0  0  0  0  0  0  0
  142.0098   77.5694  219.8876 H   0  0  0  0  0  0  0  0  0  0  0  0
  140.2658   78.2183  220.0178 H   0  0  0  0  0  0  0  0  0  0  0  0
  142.5909   78.9311  221.1858 H   0  0  0  0  0  0  0  0  0  0  0  0
  140.4779   77.9908  223.1719 H   0  0  0  0  0  0  0  0  0  0  0  0
  142.2433   77.5509  223.0746 H   0  0  0  0  0  0  0  0  0  0  0  0
  140.9073   79.8172  224.3777 H   0  0  0  0  0  0  0  0  0  0  0  0
  142.5211   79.0115  224.6746 H   0  0  0  0  0  0  0  0  0  0  0  0
  142.6287   81.3963  224.0545 H   0  0  0  0  0  0  0  0  0  0  0  0
  143.5302   80.2149  222.9783 H   0  0  0  0  0  0  0  0  0  0  0  0
  141.3100   82.0393  222.3915 H   0  0  0  0  0  0  0  0  0  0  0  0
  142.6771   81.3914  221.3708 H   0  0  0  0  0  0  0  0  0  0  0  0
  139.9574   80.1569  221.9268 H   0  0  0  0  0  0  0  0  0  0  0  0
  140.7685   80.4308  220.3631 H   0  0  0  0  0  0  0  0  0  0  0  0
  137.9294   77.7055  220.8615 H   0  0  0  0  0  0  0  0  0  0  0  0
  138.3417   77.4106  223.8085 H   0  0  0  0  0  0  0  0  0  0  0  0
  137.3989   79.7856  221.0225 H   0  0  0  0  0  0  0  0  0  0  0  0
  136.9805   82.2006  221.3417 H   0  0  0  0  0  0  0  0  0  0  0  0
  138.2111   81.8687  225.4029 H   0  0  0  0  0  0  0  0  0  0  0  0
  138.6348   79.4510  225.0913 H   0  0  0  0  0  0  0  0  0  0  0  0
  138.4580   72.7251  222.9005 H   0  0  0  0  0  0  0  0  0  0  0  0
  137.7487   69.9877  224.6056 H   0  0  0  0  0  0  0  0  0  0  0  0
  138.6079   68.4624  224.2618 H   0  0  0  0  0  0  0  0  0  0  0  0
  138.4397   70.0715  226.7824 H   0  0  0  0  0  0  0  0  0  0  0  0
  138.5895   68.2680  226.5160 H   0  0  0  0  0  0  0  0  0  0  0  0
  1  2  1  0
  2  3  1  0
  3  4  1  0
  4  5  1  0
  5  6  1  0
  6  7  1  0
  7  8  2  0
  8  9  1  0
  9 10  2  0
 10 11  1  0
 11 12  2  0
 11 13  1  0
 13 14  1  0
 14 15  1  0
 15 16  1  0
 16 17  1  0
 17 18  1  0
 18 19  1  0
 19 20  1  0
 13 21  1  0
 21 22  1  0
 22 23  2  0
 23 24  1  0
 24 25  2  0
 25 26  1  0
 26 27  2  0
 27 28  1  0
 28 29  2  0
 21 30  2  0
 30 31  1  0
 31 32  2  0
  5 33  1  0
 33 34  1  0
 34  2  1  0
 32  7  1  0
 31 10  1  0
 20 15  1  0
 29 24  1  0
  1 35  1  0
  1 36  1  0
  1 37  1  0
  3 38  1  0
  3 39  1  0
  4 40  1  0
  4 41  1  0
  6 42  1  0
  6 43  1  0
  8 44  1  0
  9 45  1  0
 14 46  1  0
 14 47  1  0
 15 48  1  0
 16 49  1  0
 16 50  1  0
 17 51  1  0
 17 52  1  0
 18 53  1  0
 18 54  1  0
 19 55  1  0
 19 56  1  0
 20 57  1  0
 20 58  1  0
 22 59  1  0
 23 60  1  0
 25 61  1  0
 26 62  1  0
 28 63  1  0
 29 64  1  0
 32 65  1  0
 33 66  1  0
 33 67  1  0
 34 68  1  0
 34 69  1  0
M  END
>  <smiles>  (42) 
CN1CCN(Cc2ccc3c(=O)n(CC4CCCCC4)c(/C=C/c4ccncc4)nc3c2)CC1

>  <score_type>  (42) 
oracle

>  <origin>  (42) 
autodockgpu

>  <m_score__min__energy>  (42) 
-8.7799999999999994

>  <m_primary>  (42) 
energy

>  <rmsd>  (42) 
7.621360417179253

>  <m_score__min__rmsd>  (42) 
7.621360417179253

>  <meeko>  (42) 
{"free_energy": -7.9, "intermolecular_energy": -9.99, "internal_energy": -2.2, "cluster_size": 8, "cluster_id": 5, "rank_in_cluster": 3}

>  <energy>  (42) 
-8.33

>  <cluster_rmsd>  (42) 
0.08

>  <cluster>  (42) 
4

$$$$

     RDKit          3D

 69 73  0  0  0  0  0  0  0  0999 V2000
  141.8320   78.8550  224.1910 C   0  0  0  0  0  0  0  0  0  0  0  0
  141.3960   79.9390  223.3580 N   0  0  0  0  0  0  0  0  0  0  0  0
  142.0450   80.0320  222.0860 C   0  0  0  0  0  0  0  0  0  0  0  0
  141.0840   79.6510  220.9540 C   0  0  0  0  0  0  0  0  0  0  0  0
  140.1230   78.7250  221.4460 N   0  0  0  0  0  0  0  0  0  0  0  0
  139.6920   77.7050  220.5740 C   0  0  0  0  0  0  0  0  0  0  0  0
  139.8540   76.3170  221.0210 C   0  0  0  0  0  0  0  0  0  0  0  0
  141.0800   75.6840  221.0150 C   0  0  0  0  0  0  0  0  0  0  0  0
  141.2620   74.3810  221.4290 C   0  0  0  0  0  0  0  0  0  0  0  0
  140.1750   73.6460  221.8780 C   0  0  0  0  0  0  0  0  0  0  0  0
  140.2960   72.3350  222.3040 C   0  0  0  0  0  0  0  0  0  0  0  0
  141.4570   71.8510  222.2620 O   0  0  0  0  0  0  0  0  0  0  0  0
  139.2220   71.6150  222.7440 N   0  0  0  0  0  0  0  0  0  0  0  0
  139.4280   70.2680  223.1510 C   0  0  0  0  0  0  0  0  0  0  0  0
  139.9050   70.0160  224.5310 C   0  0  0  0  0  0  0  0  0  0  0  0
  139.1970   68.8800  225.2420 C   0  0  0  0  0  0  0  0  0  0  0  0
  139.6530   68.7080  226.6690 C   0  0  0  0  0  0  0  0  0  0  0  0
  140.9530   69.3680  226.9640 C   0  0  0  0  0  0  0  0  0  0  0  0
  141.0260   70.7970  226.5540 C   0  0  0  0  0  0  0  0  0  0  0  0
  140.0070   71.1680  225.4610 C   0  0  0  0  0  0  0  0  0  0  0  0
  138.0450   72.2640  222.7390 C   0  0  0  0  0  0  0  0  0  0  0  0
  136.8390   71.6160  223.2440 C   0  0  0  0  0  0  0  0  0  0  0  0
  135.6610   72.2100  223.2140 C   0  0  0  0  0  0  0  0  0  0  0  0
  135.0660   72.9240  224.3270 C   0  0  0  0  0  0  0  0  0  0  0  0
  135.2320   74.2720  224.5560 C   0  0  0  0  0  0  0  0  0  0  0  0
  134.6500   74.9180  225.6290 C   0  0  0  0  0  0  0  0  0  0  0  0
  133.8830   74.1920  226.4930 N   0  0  0  0  0  0  0  0  0  0  0  0
  133.6930   72.8780  226.3100 C   0  0  0  0  0  0  0  0  0  0  0  0
  134.2810   72.2370  225.2310 C   0  0  0  0  0  0  0  0  0  0  0  0
  137.9070   73.5450  222.3250 N   0  0  0  0  0  0  0  0  0  0  0  0
  138.9610   74.2630  221.8870 C   0  0  0  0  0  0  0  0  0  0  0  0
  138.7810   75.5600  221.4750 C   0  0  0  0  0  0  0  0  0  0  0  0
  139.2300   79.1780  222.4410 C   0  0  0  0  0  0  0  0  0  0  0  0
  139.9820   80.1550  223.3280 C   0  0  0  0  0  0  0  0  0  0  0  0
  141.7188   79.1366  225.2483 H   0  0  0  0  0  0  0  0  0  0  0  0
  141.2225   77.9636  223.9816 H   0  0  0  0  0  0  0  0  0  0  0  0
  142.8890   78.6339  223.9816 H   0  0  0  0  0  0  0  0  0  0  0  0
  142.3911   81.0648  221.9326 H   0  0  0  0  0  0  0  0  0  0  0  0
  142.8969   79.3362  222.0737 H   0  0  0  0  0  0  0  0  0  0  0  0
  140.5716   80.5528  220.5877 H   0  0  0  0  0  0  0  0  0  0  0  0
  141.6491   79.1928  220.1290 H   0  0  0  0  0  0  0  0  0  0  0  0
  138.6209   77.8664  220.3825 H   0  0  0  0  0  0  0  0  0  0  0  0
  140.3465   77.7938  219.6944 H   0  0  0  0  0  0  0  0  0  0  0  0
  141.9566   76.2470  220.6622 H   0  0  0  0  0  0  0  0  0  0  0  0
  142.2637   73.9273  221.4032 H   0  0  0  0  0  0  0  0  0  0  0  0
  138.4680   69.7431  223.0374 H   0  0  0  0  0  0  0  0  0  0  0  0
  140.2496   69.9138  222.5110 H   0  0  0  0  0  0  0  0  0  0  0  0
  140.9413   69.7328  224.2945 H   0  0  0  0  0  0  0  0  0  0  0  0
  138.1161   69.0842  225.2408 H   0  0  0  0  0  0  0  0  0  0  0  0
  139.4380   67.9515  224.7036 H   0  0  0  0  0  0  0  0  0  0  0  0
  138.8873   69.1365  227.3325 H   0  0  0  0  0  0  0  0  0  0  0  0
  139.7947   67.6297  226.8339 H   0  0  0  0  0  0  0  0  0  0  0  0
  141.1285   69.3122  228.0485 H   0  0  0  0  0  0  0  0  0  0  0  0
  141.7153   68.8345  226.3773 H   0  0  0  0  0  0  0  0  0  0  0  0
  140.8350   71.4242  227.4373 H   0  0  0  0  0  0  0  0  0  0  0  0
  142.0293   70.9659  226.1360 H   0  0  0  0  0  0  0  0  0  0  0  0
  139.0262   71.3704  225.9161 H   0  0  0  0  0  0  0  0  0  0  0  0
  140.3305   72.0710  224.9225 H   0  0  0  0  0  0  0  0  0  0  0  0
  136.9141   70.6015  223.6624 H   0  0  0  0  0  0  0  0  0  0  0  0
  135.0885   72.1598  222.2760 H   0  0  0  0  0  0  0  0  0  0  0  0
  135.8509   74.8555  223.8586 H   0  0  0  0  0  0  0  0  0  0  0  0
  134.8018   75.9964  225.7840 H   0  0  0  0  0  0  0  0  0  0  0  0
  133.0706   72.3085  227.0159 H   0  0  0  0  0  0  0  0  0  0  0  0
  134.1187   71.1579  225.0921 H   0  0  0  0  0  0  0  0  0  0  0  0
  137.7756   76.0052  221.5046 H   0  0  0  0  0  0  0  0  0  0  0  0
  138.3717   79.6819  221.9725 H   0  0  0  0  0  0  0  0  0  0  0  0
  138.8531   78.3316  223.0340 H   0  0  0  0  0  0  0  0  0  0  0  0
  139.7948   81.1738  222.9579 H   0  0  0  0  0  0  0  0  0  0  0  0
  139.6137   80.0045  224.3535 H   0  0  0  0  0  0  0  0  0  0  0  0
  1  2  1  0
  2  3  1  0
  3  4  1  0
  4  5  1  0
  5  6  1  0
  6  7  1  0
  7  8  2  0
  8  9  1  0
  9 10  2  0
 10 11  1  0
 11 12  2  0
 11 13  1  0
 13 14  1  0
 14 15  1  0
 15 16  1  0
 16 17  1  0
 17 18  1  0
 18 19  1  0
 19 20  1  0
 13 21  1  0
 21 22  1  0
 22 23  2  0
 23 24  1  0
 24 25  2  0
 25 26  1  0
 26 27  2  0
 27 28  1  0
 28 29  2  0
 21 30  2  0
 30 31  1  0
 31 32  2  0
  5 33  1  0
 33 34  1  0
 34  2  1  0
 32  7  1  0
 31 10  1  0
 20 15  1  0
 29 24  1  0
  1 35  1  0
  1 36  1  0
  1 37  1  0
  3 38  1  0
  3 39  1  0
  4 40  1  0
  4 41  1  0
  6 42  1  0
  6 43  1  0
  8 44  1  0
  9 45  1  0
 14 46  1  0
 14 47  1  0
 15 48  1  0
 16 49  1  0
 16 50  1  0
 17 51  1  0
 17 52  1  0
 18 53  1  0
 18 54  1  0
 19 55  1  0
 19 56  1  0
 20 57  1  0
 20 58  1  0
 22 59  1  0
 23 60  1  0
 25 61  1  0
 26 62  1  0
 28 63  1  0
 29 64  1  0
 32 65  1  0
 33 66  1  0
 33 67  1  0
 34 68  1  0
 34 69  1  0
M  END
>  <smiles>  (43) 
CN1CCN(Cc2ccc3c(=O)n(CC4CCCCC4)c(/C=C/c4ccncc4)nc3c2)CC1

>  <score_type>  (43) 
oracle

>  <origin>  (43) 
autodockgpu

>  <m_score__min__energy>  (43) 
-8.7799999999999994

>  <m_primary>  (43) 
energy

>  <rmsd>  (43) 
8.841227639619055

>  <m_score__min__rmsd>  (43) 
8.841227639619055

>  <meeko>  (43) 
{"free_energy": -8.13, "intermolecular_energy": -10.22, "internal_energy": -1.83, "cluster_size": 24, "cluster_id": 2, "rank_in_cluster": 17}

>  <energy>  (43) 
-8.07

>  <cluster_rmsd>  (43) 
0.0

>  <cluster>  (43) 
5

$$$$

     RDKit          3D

 69 73  0  0  0  0  0  0  0  0999 V2000
  139.2440   80.6060  223.7370 C   0  0  0  0  0  0  0  0  0  0  0  0
  140.6660   80.6120  223.5470 N   0  0  0  0  0  0  0  0  0  0  0  0
  141.3240   79.3690  223.8130 C   0  0  0  0  0  0  0  0  0  0  0  0
  141.8210   78.7260  222.5130 C   0  0  0  0  0  0  0  0  0  0  0  0
  140.9780   79.1240  221.4400 N   0  0  0  0  0  0  0  0  0  0  0  0
  140.7130   78.1770  220.4300 C   0  0  0  0  0  0  0  0  0  0  0  0
  140.6790   76.7630  220.8190 C   0  0  0  0  0  0  0  0  0  0  0  0
  141.8080   75.9700  220.7980 C   0  0  0  0  0  0  0  0  0  0  0  0
  141.8060   74.6380  221.1570 C   0  0  0  0  0  0  0  0  0  0  0  0
  140.6220   74.0400  221.5630 C   0  0  0  0  0  0  0  0  0  0  0  0
  140.5570   72.7080  221.9330 C   0  0  0  0  0  0  0  0  0  0  0  0
  141.6430   72.0720  221.8820 O   0  0  0  0  0  0  0  0  0  0  0  0
  139.3890   72.1230  222.3300 N   0  0  0  0  0  0  0  0  0  0  0  0
  139.4040   70.7450  222.6810 C   0  0  0  0  0  0  0  0  0  0  0  0
  139.8200   70.3730  224.0530 C   0  0  0  0  0  0  0  0  0  0  0  0
  138.8950   69.3920  224.7450 C   0  0  0  0  0  0  0  0  0  0  0  0
  139.3060   69.1010  226.1670 C   0  0  0  0  0  0  0  0  0  0  0  0
  140.7130   69.4770  226.4690 C   0  0  0  0  0  0  0  0  0  0  0  0
  141.0770   70.8680  226.0860 C   0  0  0  0  0  0  0  0  0  0  0  0
  140.1550   71.4620  225.0050 C   0  0  0  0  0  0  0  0  0  0  0  0
  138.3110   72.9250  222.3410 C   0  0  0  0  0  0  0  0  0  0  0  0
  137.0200   72.4270  222.8050 C   0  0  0  0  0  0  0  0  0  0  0  0
  135.9510   73.1990  222.8610 C   0  0  0  0  0  0  0  0  0  0  0  0
  135.2690   73.5770  224.0840 C   0  0  0  0  0  0  0  0  0  0  0  0
  134.5050   72.7150  224.8400 C   0  0  0  0  0  0  0  0  0  0  0  0
  133.8700   73.1120  226.0000 C   0  0  0  0  0  0  0  0  0  0  0  0
  134.0040   74.4070  226.4100 N   0  0  0  0  0  0  0  0  0  0  0  0
  134.7370   75.2810  225.7070 C   0  0  0  0  0  0  0  0  0  0  0  0
  135.3720   74.8740  224.5440 C   0  0  0  0  0  0  0  0  0  0  0  0
  138.3530   74.2290  221.9810 N   0  0  0  0  0  0  0  0  0  0  0  0
  139.5020   74.8150  221.5860 C   0  0  0  0  0  0  0  0  0  0  0  0
  139.5060   76.1400  221.2290 C   0  0  0  0  0  0  0  0  0  0  0  0
  140.9620   80.4930  221.0960 C   0  0  0  0  0  0  0  0  0  0  0  0
  141.1230   81.2950  222.3760 C   0  0  0  0  0  0  0  0  0  0  0  0
  139.0179   80.6050  224.8135 H   0  0  0  0  0  0  0  0  0  0  0  0
  138.8081   81.5023  223.2716 H   0  0  0  0  0  0  0  0  0  0  0  0
  138.8157   79.7060  223.2716 H   0  0  0  0  0  0  0  0  0  0  0  0
  142.1824   79.5503  224.4766 H   0  0  0  0  0  0  0  0  0  0  0  0
  140.6068   78.6862  224.2919 H   0  0  0  0  0  0  0  0  0  0  0  0
  142.8516   79.0536  222.3116 H   0  0  0  0  0  0  0  0  0  0  0  0
  141.7994   77.6307  222.6119 H   0  0  0  0  0  0  0  0  0  0  0  0
  139.7323   78.4231  219.9967 H   0  0  0  0  0  0  0  0  0  0  0  0
  141.5660   78.2572  219.7401 H   0  0  0  0  0  0  0  0  0  0  0  0
  142.7582   76.4231  220.4787 H   0  0  0  0  0  0  0  0  0  0  0  0
  142.7374   74.0538  221.1215 H   0  0  0  0  0  0  0  0  0  0  0  0
  138.3837   70.3609  222.5349 H   0  0  0  0  0  0  0  0  0  0  0  0
  140.1806   70.3094  222.0351 H   0  0  0  0  0  0  0  0  0  0  0  0
  140.7763   69.8884  223.8066 H   0  0  0  0  0  0  0  0  0  0  0  0
  137.8788   69.8131  224.7525 H   0  0  0  0  0  0  0  0  0  0  0  0
  138.9414   68.4449  224.1875 H   0  0  0  0  0  0  0  0  0  0  0  0
  138.6435   69.6623  226.8423 H   0  0  0  0  0  0  0  0  0  0  0  0
  139.2250   68.0134  226.3100 H   0  0  0  0  0  0  0  0  0  0  0  0
  140.8733   69.3659  227.5516 H   0  0  0  0  0  0  0  0  0  0  0  0
  141.3500   68.8109  225.8686 H   0  0  0  0  0  0  0  0  0  0  0  0
  141.0194   71.5035  226.9820 H   0  0  0  0  0  0  0  0  0  0  0  0
  142.0932   70.8355  225.6662 H   0  0  0  0  0  0  0  0  0  0  0  0
  139.2363   71.8512  225.4681 H   0  0  0  0  0  0  0  0  0  0  0  0
  140.6555   72.2910  224.4832 H   0  0  0  0  0  0  0  0  0  0  0  0
  136.9353   71.3758  223.1177 H   0  0  0  0  0  0  0  0  0  0  0  0
  135.5484   73.5833  221.9122 H   0  0  0  0  0  0  0  0  0  0  0  0
  134.3970   71.6721  224.5072 H   0  0  0  0  0  0  0  0  0  0  0  0
  133.2680   72.3988  226.5822 H   0  0  0  0  0  0  0  0  0  0  0  0
  134.8348   76.3207  226.0525 H   0  0  0  0  0  0  0  0  0  0  0  0
  135.9710   75.6006  223.9754 H   0  0  0  0  0  0  0  0  0  0  0  0
  138.5697   76.7160  221.2678 H   0  0  0  0  0  0  0  0  0  0  0  0
  141.7909   80.7157  220.4080 H   0  0  0  0  0  0  0  0  0  0  0  0
  140.0172   80.7527  220.5960 H   0  0  0  0  0  0  0  0  0  0  0  0
  142.1897   81.5303  222.5059 H   0  0  0  0  0  0  0  0  0  0  0  0
  140.5027   82.1971  222.2689 H   0  0  0  0  0  0  0  0  0  0  0  0
  1  2  1  0
  2  3  1  0
  3  4  1  0
  4  5  1  0
  5  6  1  0
  6  7  1  0
  7  8  2  0
  8  9  1  0
  9 10  2  0
 10 11  1  0
 11 12  2  0
 11 13  1  0
 13 14  1  0
 14 15  1  0
 15 16  1  0
 16 17  1  0
 17 18  1  0
 18 19  1  0
 19 20  1  0
 13 21  1  0
 21 22  1  0
 22 23  2  0
 23 24  1  0
 24 25  2  0
 25 26  1  0
 26 27  2  0
 27 28  1  0
 28 29  2  0
 21 30  2  0
 30 31  1  0
 31 32  2  0
  5 33  1  0
 33 34  1  0
 34  2  1  0
 32  7  1  0
 31 10  1  0
 20 15  1  0
 29 24  1  0
  1 35  1  0
  1 36  1  0
  1 37  1  0
  3 38  1  0
  3 39  1  0
  4 40  1  0
  4 41  1  0
  6 42  1  0
  6 43  1  0
  8 44  1  0
  9 45  1  0
 14 46  1  0
 14 47  1  0
 15 48  1  0
 16 49  1  0
 16 50  1  0
 17 51  1  0
 17 52  1  0
 18 53  1  0
 18 54  1  0
 19 55  1  0
 19 56  1  0
 20 57  1  0
 20 58  1  0
 22 59  1  0
 23 60  1  0
 25 61  1  0
 26 62  1  0
 28 63  1  0
 29 64  1  0
 32 65  1  0
 33 66  1  0
 33 67  1  0
 34 68  1  0
 34 69  1  0
M  END
>  <smiles>  (44) 
CN1CCN(Cc2ccc3c(=O)n(CC4CCCCC4)c(/C=C/c4ccncc4)nc3c2)CC1

>  <score_type>  (44) 
oracle

>  <origin>  (44) 
autodockgpu

>  <m_score__min__energy>  (44) 
-8.7799999999999994

>  <m_primary>  (44) 
energy

>  <rmsd>  (44) 
8.369233553001711

>  <m_score__min__rmsd>  (44) 
8.369233553001711

>  <meeko>  (44) 
{"free_energy": -8.23, "intermolecular_energy": -10.32, "internal_energy": -1.73, "cluster_size": 24, "cluster_id": 2, "rank_in_cluster": 12}

>  <energy>  (44) 
-8.0

>  <cluster_rmsd>  (44) 
1.97

>  <cluster>  (44) 
5

$$$$

     RDKit          3D

 69 73  0  0  0  0  0  0  0  0999 V2000
  141.2240   82.0480  222.0220 C   0  0  0  0  0  0  0  0  0  0  0  0
  141.2990   81.0860  223.0840 N   0  0  0  0  0  0  0  0  0  0  0  0
  140.0460   80.5280  223.4920 C   0  0  0  0  0  0  0  0  0  0  0  0
  139.9380   79.0590  223.0640 C   0  0  0  0  0  0  0  0  0  0  0  0
  140.7120   78.8550  221.8900 N   0  0  0  0  0  0  0  0  0  0  0  0
  140.2150   77.9520  220.9280 C   0  0  0  0  0  0  0  0  0  0  0  0
  140.1880   76.5290  221.2830 C   0  0  0  0  0  0  0  0  0  0  0  0
  141.3260   75.7490  221.2660 C   0  0  0  0  0  0  0  0  0  0  0  0
  141.3310   74.4090  221.5940 C   0  0  0  0  0  0  0  0  0  0  0  0
  140.1470   73.7890  221.9630 C   0  0  0  0  0  0  0  0  0  0  0  0
  140.0890   72.4490  222.3010 C   0  0  0  0  0  0  0  0  0  0  0  0
  141.1830   71.8260  222.2570 O   0  0  0  0  0  0  0  0  0  0  0  0
  138.9200   71.8430  222.6620 N   0  0  0  0  0  0  0  0  0  0  0  0
  138.9440   70.4570  222.9810 C   0  0  0  0  0  0  0  0  0  0  0  0
  139.5890   70.0380  224.2470 C   0  0  0  0  0  0  0  0  0  0  0  0
  138.8880   68.9010  224.9630 C   0  0  0  0  0  0  0  0  0  0  0  0
  139.5260   68.5580  226.2850 C   0  0  0  0  0  0  0  0  0  0  0  0
  140.9110   69.0810  226.4320 C   0  0  0  0  0  0  0  0  0  0  0  0
  141.0580   70.5310  226.1330 C   0  0  0  0  0  0  0  0  0  0  0  0
  139.9320   71.0850  225.2410 C   0  0  0  0  0  0  0  0  0  0  0  0
  137.8330   72.6330  222.6700 C   0  0  0  0  0  0  0  0  0  0  0  0
  136.5390   72.1110  223.0970 C   0  0  0  0  0  0  0  0  0  0  0  0
  135.4750   72.8830  223.2090 C   0  0  0  0  0  0  0  0  0  0  0  0
  134.8130   73.2020  224.4600 C   0  0  0  0  0  0  0  0  0  0  0  0
  134.2410   72.2640  225.2910 C   0  0  0  0  0  0  0  0  0  0  0  0
  133.6190   72.6070  226.4750 C   0  0  0  0  0  0  0  0  0  0  0  0
  133.5710   73.9230  226.8330 N   0  0  0  0  0  0  0  0  0  0  0  0
  134.1140   74.8700  226.0560 C   0  0  0  0  0  0  0  0  0  0  0  0
  134.7370   74.5180  224.8690 C   0  0  0  0  0  0  0  0  0  0  0  0
  137.8690   73.9450  222.3410 N   0  0  0  0  0  0  0  0  0  0  0  0
  139.0180   74.5520  221.9820 C   0  0  0  0  0  0  0  0  0  0  0  0
  139.0150   75.8850  221.6550 C   0  0  0  0  0  0  0  0  0  0  0  0
  142.1100   79.0230  221.9920 C   0  0  0  0  0  0  0  0  0  0  0  0
  142.3710   80.1450  222.9820 C   0  0  0  0  0  0  0  0  0  0  0  0
  141.1452   83.0591  222.4480 H   0  0  0  0  0  0  0  0  0  0  0  0
  142.1301   81.9810  221.4019 H   0  0  0  0  0  0  0  0  0  0  0  0
  140.3392   81.8414  221.4019 H   0  0  0  0  0  0  0  0  0  0  0  0
  139.9625   80.5915  224.5870 H   0  0  0  0  0  0  0  0  0  0  0  0
  139.2348   81.0953  223.0123 H   0  0  0  0  0  0  0  0  0  0  0  0
  140.3153   78.4125  223.8700 H   0  0  0  0  0  0  0  0  0  0  0  0
  138.8860   78.8104  222.8602 H   0  0  0  0  0  0  0  0  0  0  0  0
  139.1827   78.2531  220.6962 H   0  0  0  0  0  0  0  0  0  0  0  0
  140.9246   78.0177  220.0901 H   0  0  0  0  0  0  0  0  0  0  0  0
  142.2773   76.2193  220.9763 H   0  0  0  0  0  0  0  0  0  0  0  0
  142.2692   73.8356  221.5629 H   0  0  0  0  0  0  0  0  0  0  0  0
  137.8997   70.1135  223.0185 H   0  0  0  0  0  0  0  0  0  0  0  0
  139.5711   70.0090  222.1961 H   0  0  0  0  0  0  0  0  0  0  0  0
  140.5487   69.6952  223.8330 H   0  0  0  0  0  0  0  0  0  0  0  0
  137.8423   69.1911  225.1428 H   0  0  0  0  0  0  0  0  0  0  0  0
  138.9614   68.0112  224.3204 H   0  0  0  0  0  0  0  0  0  0  0  0
  138.9072   68.9814  227.0899 H   0  0  0  0  0  0  0  0  0  0  0  0
  139.5884   67.4610  226.3379 H   0  0  0  0  0  0  0  0  0  0  0  0
  141.2347   68.9096  227.4692 H   0  0  0  0  0  0  0  0  0  0  0  0
  141.5274   68.5455  225.6949 H   0  0  0  0  0  0  0  0  0  0  0  0
  141.0559   71.0855  227.0830 H   0  0  0  0  0  0  0  0  0  0  0  0
  142.0020   70.6565  225.5824 H   0  0  0  0  0  0  0  0  0  0  0  0
  139.0504   71.3227  225.8545 H   0  0  0  0  0  0  0  0  0  0  0  0
  140.2585   72.0054  224.7347 H   0  0  0  0  0  0  0  0  0  0  0  0
  136.4478   71.0405  223.3329 H   0  0  0  0  0  0  0  0  0  0  0  0
  135.0597   73.3162  222.2871 H   0  0  0  0  0  0  0  0  0  0  0  0
  134.2812   71.2037  225.0009 H   0  0  0  0  0  0  0  0  0  0  0  0
  133.1709   71.8345  227.1172 H   0  0  0  0  0  0  0  0  0  0  0  0
  134.0654   75.9260  226.3600 H   0  0  0  0  0  0  0  0  0  0  0  0
  135.1801   75.3039  224.2397 H   0  0  0  0  0  0  0  0  0  0  0  0
  138.0719   76.4503  221.6880 H   0  0  0  0  0  0  0  0  0  0  0  0
  142.5737   78.0921  222.3504 H   0  0  0  0  0  0  0  0  0  0  0  0
  142.5405   79.2687  221.0100 H   0  0  0  0  0  0  0  0  0  0  0  0
  142.5376   79.7002  223.9742 H   0  0  0  0  0  0  0  0  0  0  0  0
  143.2486   80.6978  222.6155 H   0  0  0  0  0  0  0  0  0  0  0  0
  1  2  1  0
  2  3  1  0
  3  4  1  0
  4  5  1  0
  5  6  1  0
  6  7  1  0
  7  8  2  0
  8  9  1  0
  9 10  2  0
 10 11  1  0
 11 12  2  0
 11 13  1  0
 13 14  1  0
 14 15  1  0
 15 16  1  0
 16 17  1  0
 17 18  1  0
 18 19  1  0
 19 20  1  0
 13 21  1  0
 21 22  1  0
 22 23  2  0
 23 24  1  0
 24 25  2  0
 25 26  1  0
 26 27  2  0
 27 28  1  0
 28 29  2  0
 21 30  2  0
 30 31  1  0
 31 32  2  0
  5 33  1  0
 33 34  1  0
 34  2  1  0
 32  7  1  0
 31 10  1  0
 20 15  1  0
 29 24  1  0
  1 35  1  0
  1 36  1  0
  1 37  1  0
  3 38  1  0
  3 39  1  0
  4 40  1  0
  4 41  1  0
  6 42  1  0
  6 43  1  0
  8 44  1  0
  9 45  1  0
 14 46  1  0
 14 47  1  0
 15 48  1  0
 16 49  1  0
 16 50  1  0
 17 51  1  0
 17 52  1  0
 18 53  1  0
 18 54  1  0
 19 55  1  0
 19 56  1  0
 20 57  1  0
 20 58  1  0
 22 59  1  0
 23 60  1  0
 25 61  1  0
 26 62  1  0
 28 63  1  0
 29 64  1  0
 32 65  1  0
 33 66  1  0
 33 67  1  0
 34 68  1  0
 34 69  1  0
M  END
>  <smiles>  (45) 
CN1CCN(Cc2ccc3c(=O)n(CC4CCCCC4)c(/C=C/c4ccncc4)nc3c2)CC1

>  <score_type>  (45) 
oracle

>  <origin>  (45) 
autodockgpu

>  <m_score__min__energy>  (45) 
-8.7799999999999994

>  <m_primary>  (45) 
energy

>  <rmsd>  (45) 
8.688233004244504

>  <m_score__min__rmsd>  (45) 
8.688233004244504

>  <meeko>  (45) 
{"free_energy": -8.39, "intermolecular_energy": -10.47, "internal_energy": -1.64, "cluster_size": 24, "cluster_id": 2, "rank_in_cluster": 2}

>  <energy>  (45) 
-7.9

>  <cluster_rmsd>  (45) 
1.92

>  <cluster>  (45) 
5

$$$$

     RDKit          3D

 69 73  0  0  0  0  0  0  0  0999 V2000
  139.1090   69.9230  228.6910 C   0  0  0  0  0  0  0  0  0  0  0  0
  140.4230   69.6000  228.2130 N   0  0  0  0  0  0  0  0  0  0  0  0
  140.5670   68.2900  227.6560 C   0  0  0  0  0  0  0  0  0  0  0  0
  140.7550   68.3620  226.1360 C   0  0  0  0  0  0  0  0  0  0  0  0
  140.1030   69.5220  225.6370 N   0  0  0  0  0  0  0  0  0  0  0  0
  139.4770   69.4290  224.3770 C   0  0  0  0  0  0  0  0  0  0  0  0
  139.2600   70.6760  223.6340 C   0  0  0  0  0  0  0  0  0  0  0  0
  137.9950   71.1700  223.3880 C   0  0  0  0  0  0  0  0  0  0  0  0
  137.7600   72.3380  222.6930 C   0  0  0  0  0  0  0  0  0  0  0  0
  138.8310   73.0720  222.2050 C   0  0  0  0  0  0  0  0  0  0  0  0
  138.6580   74.2500  221.4990 C   0  0  0  0  0  0  0  0  0  0  0  0
  137.4650   74.6170  221.3300 O   0  0  0  0  0  0  0  0  0  0  0  0
  139.7160   74.9690  221.0190 N   0  0  0  0  0  0  0  0  0  0  0  0
  139.4520   76.1620  220.2910 C   0  0  0  0  0  0  0  0  0  0  0  0
  139.8820   77.4520  220.8760 C   0  0  0  0  0  0  0  0  0  0  0  0
  141.0220   78.1270  220.1400 C   0  0  0  0  0  0  0  0  0  0  0  0
  141.4860   79.3940  220.8110 C   0  0  0  0  0  0  0  0  0  0  0  0
  140.5040   79.9490  221.7810 C   0  0  0  0  0  0  0  0  0  0  0  0
  140.0080   78.9690  222.7850 C   0  0  0  0  0  0  0  0  0  0  0  0
  140.1620   77.5050  222.3330 C   0  0  0  0  0  0  0  0  0  0  0  0
  140.9320   74.4590  221.2800 C   0  0  0  0  0  0  0  0  0  0  0  0
  142.1380   75.1700  220.8690 C   0  0  0  0  0  0  0  0  0  0  0  0
  142.7900   74.8630  219.7650 C   0  0  0  0  0  0  0  0  0  0  0  0
  143.9800   74.0340  219.7110 C   0  0  0  0  0  0  0  0  0  0  0  0
  144.1000   72.9070  218.9280 C   0  0  0  0  0  0  0  0  0  0  0  0
  145.2500   72.1430  218.9040 C   0  0  0  0  0  0  0  0  0  0  0  0
  146.3040   72.5200  219.6850 N   0  0  0  0  0  0  0  0  0  0  0  0
  146.2320   73.6090  220.4620 C   0  0  0  0  0  0  0  0  0  0  0  0
  145.0750   74.3710  220.4810 C   0  0  0  0  0  0  0  0  0  0  0  0
  141.1210   73.3090  221.9660 N   0  0  0  0  0  0  0  0  0  0  0  0
  140.0830   72.5910  222.4430 C   0  0  0  0  0  0  0  0  0  0  0  0
  140.3150   71.4290  223.1350 C   0  0  0  0  0  0  0  0  0  0  0  0
  140.5990   70.7780  226.0480 C   0  0  0  0  0  0  0  0  0  0  0  0
  141.0790   70.6390  227.4820 C   0  0  0  0  0  0  0  0  0  0  0  0
  139.1087   69.9231  229.7910 H   0  0  0  0  0  0  0  0  0  0  0  0
  138.8199   70.9189  228.3242 H   0  0  0  0  0  0  0  0  0  0  0  0
  138.3911   69.1746  228.3242 H   0  0  0  0  0  0  0  0  0  0  0  0
  141.4444   67.8017  228.1051 H   0  0  0  0  0  0  0  0  0  0  0  0
  139.6555   67.7132  227.8715 H   0  0  0  0  0  0  0  0  0  0  0  0
  141.8282   68.4136  225.9004 H   0  0  0  0  0  0  0  0  0  0  0  0
  140.3220   67.4656  225.6681 H   0  0  0  0  0  0  0  0  0  0  0  0
  140.0984   68.7746  223.7480 H   0  0  0  0  0  0  0  0  0  0  0  0
  138.4664   69.0525  224.5935 H   0  0  0  0  0  0  0  0  0  0  0  0
  137.1307   70.6037  223.7652 H   0  0  0  0  0  0  0  0  0  0  0  0
  136.7296   72.6852  222.5267 H   0  0  0  0  0  0  0  0  0  0  0  0
  139.9504   76.0649  219.3152 H   0  0  0  0  0  0  0  0  0  0  0  0
  138.3542   76.2277  220.2674 H   0  0  0  0  0  0  0  0  0  0  0  0
  138.9471   78.0132  220.7314 H   0  0  0  0  0  0  0  0  0  0  0  0
  141.8691   77.4272  220.0879 H   0  0  0  0  0  0  0  0  0  0  0  0
  140.6533   78.3995  219.1401 H   0  0  0  0  0  0  0  0  0  0  0  0
  142.4221   79.1804  221.3477 H   0  0  0  0  0  0  0  0  0  0  0  0
  141.6191   80.1472  220.0205 H   0  0  0  0  0  0  0  0  0  0  0  0
  140.9844   80.7793  222.3194 H   0  0  0  0  0  0  0  0  0  0  0  0
  139.6293   80.2661  221.1943 H   0  0  0  0  0  0  0  0  0  0  0  0
  140.5738   79.1080  223.7180 H   0  0  0  0  0  0  0  0  0  0  0  0
  138.9328   79.1571  222.9212 H   0  0  0  0  0  0  0  0  0  0  0  0
  141.1868   77.1574  222.5307 H   0  0  0  0  0  0  0  0  0  0  0  0
  139.4653   76.8559  222.8836 H   0  0  0  0  0  0  0  0  0  0  0  0
  142.5152   75.9881  221.5003 H   0  0  0  0  0  0  0  0  0  0  0  0
  142.4041   75.2642  218.8162 H   0  0  0  0  0  0  0  0  0  0  0  0
  143.2494   72.6049  218.2994 H   0  0  0  0  0  0  0  0  0  0  0  0
  145.3154   71.2480  218.2679 H   0  0  0  0  0  0  0  0  0  0  0  0
  147.0914   73.8981  221.0848 H   0  0  0  0  0  0  0  0  0  0  0  0
  145.0280   75.2630  221.1230 H   0  0  0  0  0  0  0  0  0  0  0  0
  141.3489   71.0898  223.2964 H   0  0  0  0  0  0  0  0  0  0  0  0
  141.4354   71.0804  225.4008 H   0  0  0  0  0  0  0  0  0  0  0  0
  139.8127   71.5441  225.9778 H   0  0  0  0  0  0  0  0  0  0  0  0
  142.1578   70.4244  227.4671 H   0  0  0  0  0  0  0  0  0  0  0  0
  140.8444   71.5855  227.9910 H   0  0  0  0  0  0  0  0  0  0  0  0
  1  2  1  0
  2  3  1  0
  3  4  1  0
  4  5  1  0
  5  6  1  0
  6  7  1  0
  7  8  2  0
  8  9  1  0
  9 10  2  0
 10 11  1  0
 11 12  2  0
 11 13  1  0
 13 14  1  0
 14 15  1  0
 15 16  1  0
 16 17  1  0
 17 18  1  0
 18 19  1  0
 19 20  1  0
 13 21  1  0
 21 22  1  0
 22 23  2  0
 23 24  1  0
 24 25  2  0
 25 26  1  0
 26 27  2  0
 27 28  1  0
 28 29  2  0
 21 30  2  0
 30 31  1  0
 31 32  2  0
  5 33  1  0
 33 34  1  0
 34  2  1  0
 32  7  1  0
 31 10  1  0
 20 15  1  0
 29 24  1  0
  1 35  1  0
  1 36  1  0
  1 37  1  0
  3 38  1  0
  3 39  1  0
  4 40  1  0
  4 41  1  0
  6 42  1  0
  6 43  1  0
  8 44  1  0
  9 45  1  0
 14 46  1  0
 14 47  1  0
 15 48  1  0
 16 49  1  0
 16 50  1  0
 17 51  1  0
 17 52  1  0
 18 53  1  0
 18 54  1  0
 19 55  1  0
 19 56  1  0
 20 57  1  0
 20 58  1  0
 22 59  1  0
 23 60  1  0
 25 61  1  0
 26 62  1  0
 28 63  1  0
 29 64  1  0
 32 65  1  0
 33 66  1  0
 33 67  1  0
 34 68  1  0
 34 69  1  0
M  END
>  <smiles>  (46) 
CN1CCN(Cc2ccc3c(=O)n(CC4CCCCC4)c(/C=C/c4ccncc4)nc3c2)CC1

>  <score_type>  (46) 
oracle

>  <origin>  (46) 
autodockgpu

>  <m_score__min__energy>  (46) 
-8.7799999999999994

>  <m_primary>  (46) 
energy

>  <rmsd>  (46) 
7.845700460903468

>  <m_score__min__rmsd>  (46) 
7.845700460903468

>  <meeko>  (46) 
{"free_energy": -8.73, "intermolecular_energy": -10.81, "internal_energy": -1.53, "cluster_size": 3, "cluster_id": 1, "rank_in_cluster": 2}

>  <energy>  (46) 
-7.88

>  <cluster_rmsd>  (46) 
1.91

>  <cluster>  (46) 
5

$$$$

     RDKit          3D

 69 73  0  0  0  0  0  0  0  0999 V2000
  140.8850   82.0700  222.3550 C   0  0  0  0  0  0  0  0  0  0  0  0
  140.8830   81.1210  223.4310 N   0  0  0  0  0  0  0  0  0  0  0  0
  139.7650   80.2290  223.4570 C   0  0  0  0  0  0  0  0  0  0  0  0
  140.1950   78.8040  223.0850 C   0  0  0  0  0  0  0  0  0  0  0  0
  141.3200   78.8660  222.2190 N   0  0  0  0  0  0  0  0  0  0  0  0
  141.4080   77.9030  221.1930 C   0  0  0  0  0  0  0  0  0  0  0  0
  140.4700   76.7750  221.2390 C   0  0  0  0  0  0  0  0  0  0  0  0
  139.2390   76.8210  220.6160 C   0  0  0  0  0  0  0  0  0  0  0  0
  138.3370   75.7780  220.6430 C   0  0  0  0  0  0  0  0  0  0  0  0
  138.6570   74.6130  221.3230 C   0  0  0  0  0  0  0  0  0  0  0  0
  137.7930   73.5340  221.3850 C   0  0  0  0  0  0  0  0  0  0  0  0
  136.6970   73.6750  220.7820 O   0  0  0  0  0  0  0  0  0  0  0  0
  138.1130   72.3880  222.0570 N   0  0  0  0  0  0  0  0  0  0  0  0
  137.1620   71.3300  222.0860 C   0  0  0  0  0  0  0  0  0  0  0  0
  136.2370   71.2470  223.2400 C   0  0  0  0  0  0  0  0  0  0  0  0
  135.7610   72.5880  223.7610 C   0  0  0  0  0  0  0  0  0  0  0  0
  134.8880   72.4660  224.9840 C   0  0  0  0  0  0  0  0  0  0  0  0
  134.3310   71.1010  225.1850 C   0  0  0  0  0  0  0  0  0  0  0  0
  135.3420   70.0100  225.1440 C   0  0  0  0  0  0  0  0  0  0  0  0
  136.6300   70.4020  224.3950 C   0  0  0  0  0  0  0  0  0  0  0  0
  139.3190   72.3780  222.6490 C   0  0  0  0  0  0  0  0  0  0  0  0
  139.7940   71.1860  223.3450 C   0  0  0  0  0  0  0  0  0  0  0  0
  140.7040   71.2480  224.2980 C   0  0  0  0  0  0  0  0  0  0  0  0
  140.4510   70.9790  225.7010 C   0  0  0  0  0  0  0  0  0  0  0  0
  139.7620   69.8800  226.1630 C   0  0  0  0  0  0  0  0  0  0  0  0
  139.5400   69.6570  227.5080 C   0  0  0  0  0  0  0  0  0  0  0  0
  140.0230   70.5600  228.4100 N   0  0  0  0  0  0  0  0  0  0  0  0
  140.7000   71.6440  228.0060 C   0  0  0  0  0  0  0  0  0  0  0  0
  140.9180   71.8610  226.6540 C   0  0  0  0  0  0  0  0  0  0  0  0
  140.1770   73.4230  222.6000 N   0  0  0  0  0  0  0  0  0  0  0  0
  139.8700   74.5590  221.9400 C   0  0  0  0  0  0  0  0  0  0  0  0
  140.7670   75.5970  221.9130 C   0  0  0  0  0  0  0  0  0  0  0  0
  142.5170   79.4010  222.7410 C   0  0  0  0  0  0  0  0  0  0  0  0
  142.1450   80.5100  223.7100 C   0  0  0  0  0  0  0  0  0  0  0  0
  140.8871   83.0903  222.7660 H   0  0  0  0  0  0  0  0  0  0  0  0
  141.7828   81.9217  221.7370 H   0  0  0  0  0  0  0  0  0  0  0  0
  139.9865   81.9255  221.7370 H   0  0  0  0  0  0  0  0  0  0  0  0
  139.3325   80.2225  224.4684 H   0  0  0  0  0  0  0  0  0  0  0  0
  139.0212   80.5750  222.7242 H   0  0  0  0  0  0  0  0  0  0  0  0
  140.4630   78.2507  223.9972 H   0  0  0  0  0  0  0  0  0  0  0  0
  139.3662   78.2887  222.5775 H   0  0  0  0  0  0  0  0  0  0  0  0
  141.2495   78.4244  220.2375 H   0  0  0  0  0  0  0  0  0  0  0  0
  142.4007   77.4469  221.3216 H   0  0  0  0  0  0  0  0  0  0  0  0
  138.9636   77.7357  220.0705 H   0  0  0  0  0  0  0  0  0  0  0  0
  137.3694   75.8700  220.1280 H   0  0  0  0  0  0  0  0  0  0  0  0
  136.5448   71.4223  221.1802 H   0  0  0  0  0  0  0  0  0  0  0  0
  137.7731   70.4185  222.1625 H   0  0  0  0  0  0  0  0  0  0  0  0
  135.4109   70.7133  222.7473 H   0  0  0  0  0  0  0  0  0  0  0  0
  136.6404   73.1973  224.0169 H   0  0  0  0  0  0  0  0  0  0  0  0
  135.1564   73.0540  222.9690 H   0  0  0  0  0  0  0  0  0  0  0  0
  135.4881   72.7302  225.8672 H   0  0  0  0  0  0  0  0  0  0  0  0
  134.0343   73.1445  224.8397 H   0  0  0  0  0  0  0  0  0  0  0  0
  133.8352   71.0733  226.1665 H   0  0  0  0  0  0  0  0  0  0  0  0
  133.6399   70.9188  224.3488 H   0  0  0  0  0  0  0  0  0  0  0  0
  135.6069   69.7402  226.1770 H   0  0  0  0  0  0  0  0  0  0  0  0
  134.8911   69.1677  224.5989 H   0  0  0  0  0  0  0  0  0  0  0  0
  137.2959   70.9670  225.0639 H   0  0  0  0  0  0  0  0  0  0  0  0
  137.1666   69.5048  224.0528 H   0  0  0  0  0  0  0  0  0  0  0  0
  139.3803   70.2057  223.0661 H   0  0  0  0  0  0  0  0  0  0  0  0
  141.7287   71.5236  224.0080 H   0  0  0  0  0  0  0  0  0  0  0  0
  139.3741   69.1530  225.4343 H   0  0  0  0  0  0  0  0  0  0  0  0
  138.9849   68.7692  227.8453 H   0  0  0  0  0  0  0  0  0  0  0  0
  141.0826   72.3614  228.7469 H   0  0  0  0  0  0  0  0  0  0  0  0
  141.4745   72.7544  226.3346 H   0  0  0  0  0  0  0  0  0  0  0  0
  141.7321   75.4953  222.4308 H   0  0  0  0  0  0  0  0  0  0  0  0
  143.0792   78.6162  223.2682 H   0  0  0  0  0  0  0  0  0  0  0  0
  143.1482   79.7942  221.9304 H   0  0  0  0  0  0  0  0  0  0  0  0
  142.1084   80.0863  224.7245 H   0  0  0  0  0  0  0  0  0  0  0  0
  142.9099   81.2940  223.6084 H   0  0  0  0  0  0  0  0  0  0  0  0
  1  2  1  0
  2  3  1  0
  3  4  1  0
  4  5  1  0
  5  6  1  0
  6  7  1  0
  7  8  2  0
  8  9  1  0
  9 10  2  0
 10 11  1  0
 11 12  2  0
 11 13  1  0
 13 14  1  0
 14 15  1  0
 15 16  1  0
 16 17  1  0
 17 18  1  0
 18 19  1  0
 19 20  1  0
 13 21  1  0
 21 22  1  0
 22 23  2  0
 23 24  1  0
 24 25  2  0
 25 26  1  0
 26 27  2  0
 27 28  1  0
 28 29  2  0
 21 30  2  0
 30 31  1  0
 31 32  2  0
  5 33  1  0
 33 34  1  0
 34  2  1  0
 32  7  1  0
 31 10  1  0
 20 15  1  0
 29 24  1  0
  1 35  1  0
  1 36  1  0
  1 37  1  0
  3 38  1  0
  3 39  1  0
  4 40  1  0
  4 41  1  0
  6 42  1  0
  6 43  1  0
  8 44  1  0
  9 45  1  0
 14 46  1  0
 14 47  1  0
 15 48  1  0
 16 49  1  0
 16 50  1  0
 17 51  1  0
 17 52  1  0
 18 53  1  0
 18 54  1  0
 19 55  1  0
 19 56  1  0
 20 57  1  0
 20 58  1  0
 22 59  1  0
 23 60  1  0
 25 61  1  0
 26 62  1  0
 28 63  1  0
 29 64  1  0
 32 65  1  0
 33 66  1  0
 33 67  1  0
 34 68  1  0
 34 69  1  0
M  END
>  <smiles>  (47) 
CN1CCN(Cc2ccc3c(=O)n(CC4CCCCC4)c(/C=C/c4ccncc4)nc3c2)CC1

>  <score_type>  (47) 
oracle

>  <origin>  (47) 
autodockgpu

>  <m_score__min__energy>  (47) 
-8.7799999999999994

>  <m_primary>  (47) 
energy

>  <rmsd>  (47) 
7.857442500557311

>  <m_score__min__rmsd>  (47) 
7.857442500557311

>  <meeko>  (47) 
{"free_energy": -8.3, "intermolecular_energy": -10.39, "internal_energy": -1.94, "cluster_size": 11, "cluster_id": 3, "rank_in_cluster": 4}

>  <energy>  (47) 
-7.85

>  <cluster_rmsd>  (47) 
1.84

>  <cluster>  (47) 
5

$$$$

     RDKit          3D

 69 73  0  0  0  0  0  0  0  0999 V2000
  139.6420   80.8850  223.7170 C   0  0  0  0  0  0  0  0  0  0  0  0
  141.0260   81.2290  223.5560 N   0  0  0  0  0  0  0  0  0  0  0  0
  141.9560   80.1980  223.8980 C   0  0  0  0  0  0  0  0  0  0  0  0
  142.6360   79.6380  222.6420 C   0  0  0  0  0  0  0  0  0  0  0  0
  141.7560   79.7720  221.5340 N   0  0  0  0  0  0  0  0  0  0  0  0
  141.7620   78.7450  220.5670 C   0  0  0  0  0  0  0  0  0  0  0  0
  141.1100   77.4790  220.9190 C   0  0  0  0  0  0  0  0  0  0  0  0
  139.7970   77.4250  221.3420 C   0  0  0  0  0  0  0  0  0  0  0  0
  139.1570   76.2500  221.6800 C   0  0  0  0  0  0  0  0  0  0  0  0
  139.8460   75.0480  221.6010 C   0  0  0  0  0  0  0  0  0  0  0  0
  139.2580   73.8390  221.9290 C   0  0  0  0  0  0  0  0  0  0  0  0
  138.0570   73.8970  222.3000 O   0  0  0  0  0  0  0  0  0  0  0  0
  139.9410   72.6580  221.8510 N   0  0  0  0  0  0  0  0  0  0  0  0
  139.2690   71.4600  222.2190 C   0  0  0  0  0  0  0  0  0  0  0  0
  139.6250   70.8220  223.5070 C   0  0  0  0  0  0  0  0  0  0  0  0
  138.4890   70.0680  224.1700 C   0  0  0  0  0  0  0  0  0  0  0  0
  138.8670   69.5020  225.5160 C   0  0  0  0  0  0  0  0  0  0  0  0
  140.3350   69.4210  225.7370 C   0  0  0  0  0  0  0  0  0  0  0  0
  141.0700   70.6870  225.4700 C   0  0  0  0  0  0  0  0  0  0  0  0
  140.3100   71.6460  224.5350 C   0  0  0  0  0  0  0  0  0  0  0  0
  141.2150   72.7490  221.4340 C   0  0  0  0  0  0  0  0  0  0  0  0
  142.0240   71.5480  221.2540 C   0  0  0  0  0  0  0  0  0  0  0  0
  142.7490   71.3480  220.1700 C   0  0  0  0  0  0  0  0  0  0  0  0
  143.9830   72.0450  219.8610 C   0  0  0  0  0  0  0  0  0  0  0  0
  144.7870   72.6470  220.8040 C   0  0  0  0  0  0  0  0  0  0  0  0
  145.9550   73.3030  220.4700 C   0  0  0  0  0  0  0  0  0  0  0  0
  146.3250   73.3560  219.1580 N   0  0  0  0  0  0  0  0  0  0  0  0
  145.5750   72.7840  218.2060 C   0  0  0  0  0  0  0  0  0  0  0  0
  144.4030   72.1280  218.5490 C   0  0  0  0  0  0  0  0  0  0  0  0
  141.8070   73.9220  221.1110 N   0  0  0  0  0  0  0  0  0  0  0  0
  141.1420   75.0930  221.1860 C   0  0  0  0  0  0  0  0  0  0  0  0
  141.7770   76.2620  220.8500 C   0  0  0  0  0  0  0  0  0  0  0  0
  141.4200   81.0790  221.1210 C   0  0  0  0  0  0  0  0  0  0  0  0
  141.3400   81.9510  222.3620 C   0  0  0  0  0  0  0  0  0  0  0  0
  139.4013   80.8252  224.7887 H   0  0  0  0  0  0  0  0  0  0  0  0
  139.0153   81.6547  223.2429 H   0  0  0  0  0  0  0  0  0  0  0  0
  139.4486   79.9115  223.2429 H   0  0  0  0  0  0  0  0  0  0  0  0
  142.7230   80.6124  224.5688 H   0  0  0  0  0  0  0  0  0  0  0  0
  141.4107   79.3830  224.3964 H   0  0  0  0  0  0  0  0  0  0  0  0
  143.5627   80.1970  222.4453 H   0  0  0  0  0  0  0  0  0  0  0  0
  142.8775   78.5758  222.7953 H   0  0  0  0  0  0  0  0  0  0  0  0
  141.2607   79.1352  219.6690 H   0  0  0  0  0  0  0  0  0  0  0  0
  142.8236   78.4871  220.4389 H   0  0  0  0  0  0  0  0  0  0  0  0
  139.2323   78.3663  221.4132 H   0  0  0  0  0  0  0  0  0  0  0  0
  138.1077   76.2661  222.0098 H   0  0  0  0  0  0  0  0  0  0  0  0
  138.1935   71.6879  222.2549 H   0  0  0  0  0  0  0  0  0  0  0  0
  139.5818   70.7291  221.4587 H   0  0  0  0  0  0  0  0  0  0  0  0
  140.3848   70.1197  223.1335 H   0  0  0  0  0  0  0  0  0  0  0  0
  137.6418   70.7566  224.3042 H   0  0  0  0  0  0  0  0  0  0  0  0
  138.2291   69.2217  223.5172 H   0  0  0  0  0  0  0  0  0  0  0  0
  138.4326   70.1431  226.2972 H   0  0  0  0  0  0  0  0  0  0  0  0
  138.4780   68.4738  225.5542 H   0  0  0  0  0  0  0  0  0  0  0  0
  140.5095   69.1370  226.7853 H   0  0  0  0  0  0  0  0  0  0  0  0
  140.7187   68.6795  225.0208 H   0  0  0  0  0  0  0  0  0  0  0  0
  141.2443   71.1984  226.4282 H   0  0  0  0  0  0  0  0  0  0  0  0
  142.0106   70.4182  224.9670 H   0  0  0  0  0  0  0  0  0  0  0  0
  139.5690   72.2212  225.1095 H   0  0  0  0  0  0  0  0  0  0  0  0
  141.0048   72.3553  224.0615 H   0  0  0  0  0  0  0  0  0  0  0  0
  142.0296   70.7856  222.0469 H   0  0  0  0  0  0  0  0  0  0  0  0
  142.3918   70.5985  219.4484 H   0  0  0  0  0  0  0  0  0  0  0  0
  144.4874   72.6034  221.8615 H   0  0  0  0  0  0  0  0  0  0  0  0
  146.5753   73.7739  221.2468 H   0  0  0  0  0  0  0  0  0  0  0  0
  145.8892   72.8350  217.1531 H   0  0  0  0  0  0  0  0  0  0  0  0
  143.7948   71.6637  217.7587 H   0  0  0  0  0  0  0  0  0  0  0  0
  142.8266   76.2354  220.5221 H   0  0  0  0  0  0  0  0  0  0  0  0
  142.1922   81.4666  220.4403 H   0  0  0  0  0  0  0  0  0  0  0  0
  140.4574   81.0786  220.5886 H   0  0  0  0  0  0  0  0  0  0  0  0
  142.3126   82.4456  222.5015 H   0  0  0  0  0  0  0  0  0  0  0  0
  140.5225   82.6683  222.1972 H   0  0  0  0  0  0  0  0  0  0  0  0
  1  2  1  0
  2  3  1  0
  3  4  1  0
  4  5  1  0
  5  6  1  0
  6  7  1  0
  7  8  2  0
  8  9  1  0
  9 10  2  0
 10 11  1  0
 11 12  2  0
 11 13  1  0
 13 14  1  0
 14 15  1  0
 15 16  1  0
 16 17  1  0
 17 18  1  0
 18 19  1  0
 19 20  1  0
 13 21  1  0
 21 22  1  0
 22 23  2  0
 23 24  1  0
 24 25  2  0
 25 26  1  0
 26 27  2  0
 27 28  1  0
 28 29  2  0
 21 30  2  0
 30 31  1  0
 31 32  2  0
  5 33  1  0
 33 34  1  0
 34  2  1  0
 32  7  1  0
 31 10  1  0
 20 15  1  0
 29 24  1  0
  1 35  1  0
  1 36  1  0
  1 37  1  0
  3 38  1  0
  3 39  1  0
  4 40  1  0
  4 41  1  0
  6 42  1  0
  6 43  1  0
  8 44  1  0
  9 45  1  0
 14 46  1  0
 14 47  1  0
 15 48  1  0
 16 49  1  0
 16 50  1  0
 17 51  1  0
 17 52  1  0
 18 53  1  0
 18 54  1  0
 19 55  1  0
 19 56  1  0
 20 57  1  0
 20 58  1  0
 22 59  1  0
 23 60  1  0
 25 61  1  0
 26 62  1  0
 28 63  1  0
 29 64  1  0
 32 65  1  0
 33 66  1  0
 33 67  1  0
 34 68  1  0
 34 69  1  0
M  END
>  <smiles>  (48) 
CN1CCN(Cc2ccc3c(=O)n(CC4CCCCC4)c(/C=C/c4ccncc4)nc3c2)CC1

>  <score_type>  (48) 
oracle

>  <origin>  (48) 
autodockgpu

>  <m_score__min__energy>  (48) 
-8.7799999999999994

>  <m_primary>  (48) 
energy

>  <rmsd>  (48) 
7.799657903376109

>  <m_score__min__rmsd>  (48) 
7.799657903376109

>  <meeko>  (48) 
{"free_energy": -8.35, "intermolecular_energy": -10.43, "internal_energy": -1.85, "cluster_size": 4, "cluster_id": 4, "rank_in_cluster": 3}

>  <energy>  (48) 
-7.83

>  <cluster_rmsd>  (48) 
1.85

>  <cluster>  (48) 
5

$$$$

     RDKit          3D

 69 73  0  0  0  0  0  0  0  0999 V2000
  142.8870   79.5630  222.9940 C   0  0  0  0  0  0  0  0  0  0  0  0
  142.0810   80.7420  222.8480 N   0  0  0  0  0  0  0  0  0  0  0  0
  141.7030   81.0620  221.5060 C   0  0  0  0  0  0  0  0  0  0  0  0
  140.2050   80.8180  221.2870 C   0  0  0  0  0  0  0  0  0  0  0  0
  139.7670   79.7830  222.1580 N   0  0  0  0  0  0  0  0  0  0  0  0
  138.7880   78.8920  221.6740 C   0  0  0  0  0  0  0  0  0  0  0  0
  139.0480   77.4560  221.8170 C   0  0  0  0  0  0  0  0  0  0  0  0
  140.3290   76.9420  221.8450 C   0  0  0  0  0  0  0  0  0  0  0  0
  140.6040   75.5970  221.9780 C   0  0  0  0  0  0  0  0  0  0  0  0
  139.5590   74.6920  222.0910 C   0  0  0  0  0  0  0  0  0  0  0  0
  139.7720   73.3310  222.2250 C   0  0  0  0  0  0  0  0  0  0  0  0
  140.9770   72.9660  222.2420 O   0  0  0  0  0  0  0  0  0  0  0  0
  138.7400   72.4440  222.3340 N   0  0  0  0  0  0  0  0  0  0  0  0
  139.0440   71.0600  222.4540 C   0  0  0  0  0  0  0  0  0  0  0  0
  139.4980   70.5510  223.7690 C   0  0  0  0  0  0  0  0  0  0  0  0
  138.5120   69.6300  224.4600 C   0  0  0  0  0  0  0  0  0  0  0  0
  138.9720   69.1990  225.8300 C   0  0  0  0  0  0  0  0  0  0  0  0
  140.4280   69.3980  226.0590 C   0  0  0  0  0  0  0  0  0  0  0  0
  140.9220   70.7650  225.7400 C   0  0  0  0  0  0  0  0  0  0  0  0
  140.0090   71.5290  224.7620 C   0  0  0  0  0  0  0  0  0  0  0  0
  137.5080   72.9790  222.3060 C   0  0  0  0  0  0  0  0  0  0  0  0
  136.3290   72.1360  222.4750 C   0  0  0  0  0  0  0  0  0  0  0  0
  135.8980   71.7650  223.6650 C   0  0  0  0  0  0  0  0  0  0  0  0
  135.2010   72.6290  224.5980 C   0  0  0  0  0  0  0  0  0  0  0  0
  135.3310   74.0000  224.6250 C   0  0  0  0  0  0  0  0  0  0  0  0
  134.6500   74.7910  225.5300 C   0  0  0  0  0  0  0  0  0  0  0  0
  133.8180   74.1900  226.4290 N   0  0  0  0  0  0  0  0  0  0  0  0
  133.6600   72.8590  226.4400 C   0  0  0  0  0  0  0  0  0  0  0  0
  134.3470   72.0720  225.5290 C   0  0  0  0  0  0  0  0  0  0  0  0
  137.2790   74.3060  222.1740 N   0  0  0  0  0  0  0  0  0  0  0  0
  138.2910   75.1900  222.0640 C   0  0  0  0  0  0  0  0  0  0  0  0
  138.0190   76.5280  221.9320 C   0  0  0  0  0  0  0  0  0  0  0  0
  139.8190   80.0330  223.5470 C   0  0  0  0  0  0  0  0  0  0  0  0
  141.0410   80.8930  223.8180 C   0  0  0  0  0  0  0  0  0  0  0  0
  143.0333   79.3489  224.0630 H   0  0  0  0  0  0  0  0  0  0  0  0
  142.3812   78.7115  222.5154 H   0  0  0  0  0  0  0  0  0  0  0  0
  143.8641   79.7252  222.5154 H   0  0  0  0  0  0  0  0  0  0  0  0
  141.9277   82.1210  221.3112 H   0  0  0  0  0  0  0  0  0  0  0  0
  142.2687   80.4166  220.8179 H   0  0  0  0  0  0  0  0  0  0  0  0
  139.6467   81.7409  221.5026 H   0  0  0  0  0  0  0  0  0  0  0  0
  140.0280   80.5214  220.2427 H   0  0  0  0  0  0  0  0  0  0  0  0
  137.8509   79.1116  222.2065 H   0  0  0  0  0  0  0  0  0  0  0  0
  138.7645   79.0652  220.5880 H   0  0  0  0  0  0  0  0  0  0  0  0
  141.1737   77.6410  221.7567 H   0  0  0  0  0  0  0  0  0  0  0  0
  141.6458   75.2442  221.9943 H   0  0  0  0  0  0  0  0  0  0  0  0
  138.1345   70.5026  222.1856 H   0  0  0  0  0  0  0  0  0  0  0  0
  139.9113   70.9148  221.7932 H   0  0  0  0  0  0  0  0  0  0  0  0
  140.3773   69.9843  223.4288 H   0  0  0  0  0  0  0  0  0  0  0  0
  137.5518   70.1568  224.5619 H   0  0  0  0  0  0  0  0  0  0  0  0
  138.4186   68.7240  223.8431 H   0  0  0  0  0  0  0  0  0  0  0  0
  138.4189   69.7813  226.5817 H   0  0  0  0  0  0  0  0  0  0  0  0
  138.7773   68.1194  225.9109 H   0  0  0  0  0  0  0  0  0  0  0  0
  140.6399   69.1949  227.1191 H   0  0  0  0  0  0  0  0  0  0  0  0
  140.9488   68.7102  225.3766 H   0  0  0  0  0  0  0  0  0  0  0  0
  140.9896   71.3392  226.6758 H   0  0  0  0  0  0  0  0  0  0  0  0
  141.9013   70.6523  225.2518 H   0  0  0  0  0  0  0  0  0  0  0  0
  139.1690   71.9820  225.3090 H   0  0  0  0  0  0  0  0  0  0  0  0
  140.5670   72.3334  224.2605 H   0  0  0  0  0  0  0  0  0  0  0  0
  135.7824   71.7993  221.5817 H   0  0  0  0  0  0  0  0  0  0  0  0
  136.0805   70.7246  223.9720 H   0  0  0  0  0  0  0  0  0  0  0  0
  136.0018   74.4829  223.8992 H   0  0  0  0  0  0  0  0  0  0  0  0
  134.7760   75.8837  225.5259 H   0  0  0  0  0  0  0  0  0  0  0  0
  132.9852   72.3913  227.1720 H   0  0  0  0  0  0  0  0  0  0  0  0
  134.2089   70.9809  225.5482 H   0  0  0  0  0  0  0  0  0  0  0  0
  136.9739   76.8710  221.9170 H   0  0  0  0  0  0  0  0  0  0  0  0
  138.9097   80.5635  223.8661 H   0  0  0  0  0  0  0  0  0  0  0  0
  139.8827   79.0876  224.1056 H   0  0  0  0  0  0  0  0  0  0  0  0
  140.7274   81.9473  223.8286 H   0  0  0  0  0  0  0  0  0  0  0  0
  141.4543   80.5663  224.7836 H   0  0  0  0  0  0  0  0  0  0  0  0
  1  2  1  0
  2  3  1  0
  3  4  1  0
  4  5  1  0
  5  6  1  0
  6  7  1  0
  7  8  2  0
  8  9  1  0
  9 10  2  0
 10 11  1  0
 11 12  2  0
 11 13  1  0
 13 14  1  0
 14 15  1  0
 15 16  1  0
 16 17  1  0
 17 18  1  0
 18 19  1  0
 19 20  1  0
 13 21  1  0
 21 22  1  0
 22 23  2  0
 23 24  1  0
 24 25  2  0
 25 26  1  0
 26 27  2  0
 27 28  1  0
 28 29  2  0
 21 30  2  0
 30 31  1  0
 31 32  2  0
  5 33  1  0
 33 34  1  0
 34  2  1  0
 32  7  1  0
 31 10  1  0
 20 15  1  0
 29 24  1  0
  1 35  1  0
  1 36  1  0
  1 37  1  0
  3 38  1  0
  3 39  1  0
  4 40  1  0
  4 41  1  0
  6 42  1  0
  6 43  1  0
  8 44  1  0
  9 45  1  0
 14 46  1  0
 14 47  1  0
 15 48  1  0
 16 49  1  0
 16 50  1  0
 17 51  1  0
 17 52  1  0
 18 53  1  0
 18 54  1  0
 19 55  1  0
 19 56  1  0
 20 57  1  0
 20 58  1  0
 22 59  1  0
 23 60  1  0
 25 61  1  0
 26 62  1  0
 28 63  1  0
 29 64  1  0
 32 65  1  0
 33 66  1  0
 33 67  1  0
 34 68  1  0
 34 69  1  0
M  END
>  <smiles>  (49) 
CN1CCN(Cc2ccc3c(=O)n(CC4CCCCC4)c(/C=C/c4ccncc4)nc3c2)CC1

>  <score_type>  (49) 
oracle

>  <origin>  (49) 
autodockgpu

>  <m_score__min__energy>  (49) 
-8.7799999999999994

>  <m_primary>  (49) 
energy

>  <rmsd>  (49) 
7.960204236825391

>  <m_score__min__rmsd>  (49) 
7.960204236825391

>  <meeko>  (49) 
{"free_energy": -8.17, "intermolecular_energy": -10.26, "internal_energy": -2.02, "cluster_size": 24, "cluster_id": 2, "rank_in_cluster": 15}

>  <energy>  (49) 
-7.83

>  <cluster_rmsd>  (49) 
1.86

>  <cluster>  (49) 
5

$$$$

     RDKit          3D

 69 73  0  0  0  0  0  0  0  0999 V2000
  139.3720   80.4830  223.7070 C   0  0  0  0  0  0  0  0  0  0  0  0
  140.6260   81.0800  223.3460 N   0  0  0  0  0  0  0  0  0  0  0  0
  141.7880   80.4050  223.8390 C   0  0  0  0  0  0  0  0  0  0  0  0
  142.5450   79.7170  222.6970 C   0  0  0  0  0  0  0  0  0  0  0  0
  141.6260   79.3640  221.6710 N   0  0  0  0  0  0  0  0  0  0  0  0
  141.8500   78.1560  220.9800 C   0  0  0  0  0  0  0  0  0  0  0  0
  140.8040   77.1300  221.0510 C   0  0  0  0  0  0  0  0  0  0  0  0
  139.5430   77.3330  220.5260 C   0  0  0  0  0  0  0  0  0  0  0  0
  138.5390   76.3870  220.5790 C   0  0  0  0  0  0  0  0  0  0  0  0
  138.7820   75.1640  221.1840 C   0  0  0  0  0  0  0  0  0  0  0  0
  137.8150   74.1780  221.2690 C   0  0  0  0  0  0  0  0  0  0  0  0
  136.7000   74.4600  220.7580 O   0  0  0  0  0  0  0  0  0  0  0  0
  138.0580   72.9740  221.8680 N   0  0  0  0  0  0  0  0  0  0  0  0
  137.0060   72.0200  221.9260 C   0  0  0  0  0  0  0  0  0  0  0  0
  136.0880   72.0540  223.0880 C   0  0  0  0  0  0  0  0  0  0  0  0
  135.8360   73.4400  223.6480 C   0  0  0  0  0  0  0  0  0  0  0  0
  134.9640   73.4260  224.8780 C   0  0  0  0  0  0  0  0  0  0  0  0
  134.1980   72.1630  225.0510 C   0  0  0  0  0  0  0  0  0  0  0  0
  135.0210   70.9260  224.9700 C   0  0  0  0  0  0  0  0  0  0  0  0
  136.3480   71.1260  224.2170 C   0  0  0  0  0  0  0  0  0  0  0  0
  139.2960   72.8110  222.3650 C   0  0  0  0  0  0  0  0  0  0  0  0
  139.6910   71.5450  222.9730 C   0  0  0  0  0  0  0  0  0  0  0  0
  140.6830   71.4630  223.8390 C   0  0  0  0  0  0  0  0  0  0  0  0
  140.5290   71.1460  225.2460 C   0  0  0  0  0  0  0  0  0  0  0  0
  141.0710   71.8910  226.2690 C   0  0  0  0  0  0  0  0  0  0  0  0
  140.9020   71.5570  227.5980 C   0  0  0  0  0  0  0  0  0  0  0  0
  140.1710   70.4470  227.9070 N   0  0  0  0  0  0  0  0  0  0  0  0
  139.6240   69.6910  226.9440 C   0  0  0  0  0  0  0  0  0  0  0  0
  139.7980   70.0330  225.6120 C   0  0  0  0  0  0  0  0  0  0  0  0
  140.2550   73.7640  222.2930 N   0  0  0  0  0  0  0  0  0  0  0  0
  140.0240   74.9560  221.7050 C   0  0  0  0  0  0  0  0  0  0  0  0
  141.0210   75.8970  221.6520 C   0  0  0  0  0  0  0  0  0  0  0  0
  140.9720   80.4140  220.9920 C   0  0  0  0  0  0  0  0  0  0  0  0
  140.7220   81.5290  221.9920 C   0  0  0  0  0  0  0  0  0  0  0  0
  139.2871   80.4426  224.8030 H   0  0  0  0  0  0  0  0  0  0  0  0
  138.5477   81.0853  223.2974 H   0  0  0  0  0  0  0  0  0  0  0  0
  139.3199   79.4634  223.2974 H   0  0  0  0  0  0  0  0  0  0  0  0
  142.4521   81.1368  224.3222 H   0  0  0  0  0  0  0  0  0  0  0  0
  141.4702   79.6395  224.5622 H   0  0  0  0  0  0  0  0  0  0  0  0
  143.3025   80.4040  222.2917 H   0  0  0  0  0  0  0  0  0  0  0  0
  143.0407   78.8111  223.0760 H   0  0  0  0  0  0  0  0  0  0  0  0
  141.9947   78.4058  219.9186 H   0  0  0  0  0  0  0  0  0  0  0  0
  142.7192   77.7044  221.4805 H   0  0  0  0  0  0  0  0  0  0  0  0
  139.3278   78.2967  220.0413 H   0  0  0  0  0  0  0  0  0  0  0  0
  137.5521   76.6026  220.1437 H   0  0  0  0  0  0  0  0  0  0  0  0
  136.3929   72.1565  221.0230 H   0  0  0  0  0  0  0  0  0  0  0  0
  137.5224   71.0530  222.0173 H   0  0  0  0  0  0  0  0  0  0  0  0
  135.1842   71.6714  222.5913 H   0  0  0  0  0  0  0  0  0  0  0  0
  136.8032   73.8945  223.9086 H   0  0  0  0  0  0  0  0  0  0  0  0
  135.3075   74.0173  222.8751 H   0  0  0  0  0  0  0  0  0  0  0  0
  135.6053   73.5673  225.7605 H   0  0  0  0  0  0  0  0  0  0  0  0
  134.2286   74.2356  224.7610 H   0  0  0  0  0  0  0  0  0  0  0  0
  133.7120   72.1883  226.0375 H   0  0  0  0  0  0  0  0  0  0  0  0
  133.4801   72.1161  224.2189 H   0  0  0  0  0  0  0  0  0  0  0  0
  135.2471   70.5895  225.9926 H   0  0  0  0  0  0  0  0  0  0  0  0
  134.4367   70.1821  224.4085 H   0  0  0  0  0  0  0  0  0  0  0  0
  137.1010   71.5585  224.8923 H   0  0  0  0  0  0  0  0  0  0  0  0
  136.7304   70.1637  223.8458 H   0  0  0  0  0  0  0  0  0  0  0  0
  139.1445   70.6300  222.7008 H   0  0  0  0  0  0  0  0  0  0  0  0
  141.7013   71.6486  223.4667 H   0  0  0  0  0  0  0  0  0  0  0  0
  141.6604   72.7853  226.0183 H   0  0  0  0  0  0  0  0  0  0  0  0
  141.3479   72.1737  228.3922 H   0  0  0  0  0  0  0  0  0  0  0  0
  139.0373   68.7996  227.2110 H   0  0  0  0  0  0  0  0  0  0  0  0
  139.3447   69.4052  224.8308 H   0  0  0  0  0  0  0  0  0  0  0  0
  142.0042   75.6721  222.0909 H   0  0  0  0  0  0  0  0  0  0  0  0
  141.6065   80.7819  220.1722 H   0  0  0  0  0  0  0  0  0  0  0  0
  140.0219   80.0617  220.5640 H   0  0  0  0  0  0  0  0  0  0  0  0
  141.5512   82.2486  221.9234 H   0  0  0  0  0  0  0  0  0  0  0  0
  139.7516   81.9783  221.7343 H   0  0  0  0  0  0  0  0  0  0  0  0
  1  2  1  0
  2  3  1  0
  3  4  1  0
  4  5  1  0
  5  6  1  0
  6  7  1  0
  7  8  2  0
  8  9  1  0
  9 10  2  0
 10 11  1  0
 11 12  2  0
 11 13  1  0
 13 14  1  0
 14 15  1  0
 15 16  1  0
 16 17  1  0
 17 18  1  0
 18 19  1  0
 19 20  1  0
 13 21  1  0
 21 22  1  0
 22 23  2  0
 23 24  1  0
 24 25  2  0
 25 26  1  0
 26 27  2  0
 27 28  1  0
 28 29  2  0
 21 30  2  0
 30 31  1  0
 31 32  2  0
  5 33  1  0
 33 34  1  0
 34  2  1  0
 32  7  1  0
 31 10  1  0
 20 15  1  0
 29 24  1  0
  1 35  1  0
  1 36  1  0
  1 37  1  0
  3 38  1  0
  3 39  1  0
  4 40  1  0
  4 41  1  0
  6 42  1  0
  6 43  1  0
  8 44  1  0
  9 45  1  0
 14 46  1  0
 14 47  1  0
 15 48  1  0
 16 49  1  0
 16 50  1  0
 17 51  1  0
 17 52  1  0
 18 53  1  0
 18 54  1  0
 19 55  1  0
 19 56  1  0
 20 57  1  0
 20 58  1  0
 22 59  1  0
 23 60  1  0
 25 61  1  0
 26 62  1  0
 28 63  1  0
 29 64  1  0
 32 65  1  0
 33 66  1  0
 33 67  1  0
 34 68  1  0
 34 69  1  0
M  END
>  <smiles>  (50) 
CN1CCN(Cc2ccc3c(=O)n(CC4CCCCC4)c(/C=C/c4ccncc4)nc3c2)CC1

>  <score_type>  (50) 
oracle

>  <origin>  (50) 
autodockgpu

>  <m_score__min__energy>  (50) 
-8.7799999999999994

>  <m_primary>  (50) 
energy

>  <rmsd>  (50) 
7.421231646229599

>  <m_score__min__rmsd>  (50) 
7.421231646229599

>  <meeko>  (50) 
{"free_energy": -8.09, "intermolecular_energy": -10.18, "internal_energy": -1.92, "cluster_size": 11, "cluster_id": 3, "rank_in_cluster": 11}

>  <energy>  (50) 
-7.8

>  <cluster_rmsd>  (50) 
1.82

>  <cluster>  (50) 
5

$$$$
