
     RDKit          3D

 54 57  0  0  0  0  0  0  0  0999 V2000
  135.8370   74.1540  224.2500 N   0  0  0  0  0  0  0  0  0  0  0  0
  134.3590   73.6670  225.0010 S   0  0  0  0  0  0  0  0  0  0  0  0
  134.2660   74.3450  226.3530 O   0  0  0  0  0  0  0  0  0  0  0  0
  133.2040   74.0060  224.1340 O   0  0  0  0  0  0  0  0  0  0  0  0
  134.4730   71.9310  225.3040 C   0  0  0  0  0  0  0  0  0  0  0  0
  134.0570   71.4130  226.5140 C   0  0  0  0  0  0  0  0  0  0  0  0
  134.1620   70.0600  226.7100 C   0  0  0  0  0  0  0  0  0  0  0  0
  134.6650   69.2460  225.7360 C   0  0  0  0  0  0  0  0  0  0  0  0
  135.0980   69.7290  224.4940 C   0  0  0  0  0  0  0  0  0  0  0  0
  135.6290   68.8330  223.4760 C   0  0  0  0  0  0  0  0  0  0  0  0
  136.8920   68.8080  223.0960 C   0  0  0  0  0  0  0  0  0  0  0  0
  137.9420   69.2180  224.0310 C   0  0  0  0  0  0  0  0  0  0  0  0
  138.4070   68.2660  224.8950 N   0  0  0  0  0  0  0  0  0  0  0  0
  139.3580   68.5070  225.7910 C   0  0  0  0  0  0  0  0  0  0  0  0
  139.7880   67.5060  226.6380 C   0  0  0  0  0  0  0  0  0  0  0  0
  140.7830   67.7970  227.5600 C   0  0  0  0  0  0  0  0  0  0  0  0
  141.3330   69.0620  227.6300 C   0  0  0  0  0  0  0  0  0  0  0  0
  140.8760   70.0410  226.7630 C   0  0  0  0  0  0  0  0  0  0  0  0
  139.8860   69.7850  225.8340 C   0  0  0  0  0  0  0  0  0  0  0  0
  139.4110   70.7290  224.9610 C   0  0  0  0  0  0  0  0  0  0  0  0
  139.9380   71.8870  225.0530 O   0  0  0  0  0  0  0  0  0  0  0  0
  138.4360   70.4720  224.0470 N   0  0  0  0  0  0  0  0  0  0  0  0
  137.9640   71.4600  223.1300 C   0  0  0  0  0  0  0  0  0  0  0  0
  138.7370   71.6370  221.8690 C   0  0  0  0  0  0  0  0  0  0  0  0
  140.1910   71.3960  221.9140 C   0  0  0  0  0  0  0  0  0  0  0  0
  141.0090   72.5760  222.3640 C   0  0  0  0  0  0  0  0  0  0  0  0
  140.5910   73.8060  221.7170 N   0  0  0  0  0  0  0  0  0  0  0  0
  139.2180   74.0440  222.0380 C   0  0  0  0  0  0  0  0  0  0  0  0
  138.3750   73.0120  221.3340 C   0  0  0  0  0  0  0  0  0  0  0  0
  134.9820   71.0930  224.3230 C   0  0  0  0  0  0  0  0  0  0  0  0
  136.2620   74.9970  224.6960 H   0  0  0  0  0  0  0  0  0  0  0  0
  136.5090   73.3710  224.3620 H   0  0  0  0  0  0  0  0  0  0  0  0
  133.6523   72.0679  227.2997 H   0  0  0  0  0  0  0  0  0  0  0  0
  133.8362   69.6240  227.6659 H   0  0  0  0  0  0  0  0  0  0  0  0
  134.7331   68.1662  225.9346 H   0  0  0  0  0  0  0  0  0  0  0  0
  134.9322   68.1322  222.9930 H   0  0  0  0  0  0  0  0  0  0  0  0
  137.1558   68.4801  222.0797 H   0  0  0  0  0  0  0  0  0  0  0  0
  139.3508   66.4981  226.5833 H   0  0  0  0  0  0  0  0  0  0  0  0
  141.1380   67.0112  228.2431 H   0  0  0  0  0  0  0  0  0  0  0  0
  142.1215   69.2885  228.3627 H   0  0  0  0  0  0  0  0  0  0  0  0
  141.3130   71.0491  226.8156 H   0  0  0  0  0  0  0  0  0  0  0  0
  136.9342   71.1903  222.8528 H   0  0  0  0  0  0  0  0  0  0  0  0
  138.0654   72.4165  223.6637 H   0  0  0  0  0  0  0  0  0  0  0  0
  138.4394   70.8272  221.1866 H   0  0  0  0  0  0  0  0  0  0  0  0
  140.3793   70.5636  222.6080 H   0  0  0  0  0  0  0  0  0  0  0  0
  140.5023   71.1769  220.8820 H   0  0  0  0  0  0  0  0  0  0  0  0
  140.8971   72.6914  223.4522 H   0  0  0  0  0  0  0  0  0  0  0  0
  142.0573   72.3871  222.0895 H   0  0  0  0  0  0  0  0  0  0  0  0
  140.7720   73.8050  220.7000 H   0  0  0  0  0  0  0  0  0  0  0  0
  139.0720   73.9631  223.1253 H   0  0  0  0  0  0  0  0  0  0  0  0
  138.9253   75.0536  221.7140 H   0  0  0  0  0  0  0  0  0  0  0  0
  137.3101   73.2134  221.5223 H   0  0  0  0  0  0  0  0  0  0  0  0
  138.5614   73.0527  220.2507 H   0  0  0  0  0  0  0  0  0  0  0  0
  135.3066   71.5343  223.3691 H   0  0  0  0  0  0  0  0  0  0  0  0
  1  2  1  0
  2  3  2  0
  2  4  2  0
  2  5  1  0
  5  6  2  0
  6  7  1  0
  7  8  2  0
  8  9  1  0
  9 10  1  0
 10 11  2  0
 11 12  1  0
 12 13  2  0
 13 14  1  0
 14 15  2  0
 15 16  1  0
 16 17  2  0
 17 18  1  0
 18 19  2  0
 19 20  1  0
 20 21  2  0
 20 22  1  0
 22 23  1  0
 23 24  1  0
 24 25  1  0
 25 26  1  0
 26 27  1  0
 27 28  1  0
 28 29  1  0
  9 30  2  0
 30  5  1  0
 22 12  1  0
 29 24  1  0
 19 14  1  0
  1 31  1  0
  1 32  1  0
  6 33  1  0
  7 34  1  0
  8 35  1  0
 10 36  1  0
 11 37  1  0
 15 38  1  0
 16 39  1  0
 17 40  1  0
 18 41  1  0
 23 42  1  0
 23 43  1  0
 24 44  1  0
 25 45  1  0
 25 46  1  0
 26 47  1  0
 26 48  1  0
 27 49  1  0
 28 50  1  0
 28 51  1  0
 29 52  1  0
 29 53  1  0
 30 54  1  0
M  END
>  <smiles>  (1) 
NS(=O)(=O)c1cccc(/C=C/c2nc3ccccc3c(=O)n2CC2CCNCC2)c1

>  <score_type>  (1) 
oracle

>  <origin>  (1) 
autodockgpu

>  <m_score__min__energy>  (1) 
-9.5099999999999998

>  <m_primary>  (1) 
energy

>  <rmsd>  (1) 
9.991230721983708

>  <m_score__min__rmsd>  (1) 
9.991230721983708

>  <meeko>  (1) 
{"free_energy": -7.7, "intermolecular_energy": -9.79, "internal_energy": -2.06, "cluster_size": 2, "cluster_id": 8, "rank_in_cluster": 1}

>  <energy>  (1) 
-9.51

>  <cluster_rmsd>  (1) 
0.0

>  <cluster>  (1) 
1

$$$$

     RDKit          3D

 54 57  0  0  0  0  0  0  0  0999 V2000
  145.9870   73.4160  218.4280 N   0  0  0  0  0  0  0  0  0  0  0  0
  145.3580   72.9010  219.9530 S   0  0  0  0  0  0  0  0  0  0  0  0
  145.0590   71.4180  219.8680 O   0  0  0  0  0  0  0  0  0  0  0  0
  146.3200   73.2070  221.0380 O   0  0  0  0  0  0  0  0  0  0  0  0
  143.8120   73.7230  220.1870 C   0  0  0  0  0  0  0  0  0  0  0  0
  143.5970   74.9620  219.6180 C   0  0  0  0  0  0  0  0  0  0  0  0
  142.3840   75.5680  219.8240 C   0  0  0  0  0  0  0  0  0  0  0  0
  141.4150   74.9630  220.5700 C   0  0  0  0  0  0  0  0  0  0  0  0
  141.5900   73.7060  221.1650 C   0  0  0  0  0  0  0  0  0  0  0  0
  140.5340   73.0880  221.9560 C   0  0  0  0  0  0  0  0  0  0  0  0
  140.3100   71.7890  222.0050 C   0  0  0  0  0  0  0  0  0  0  0  0
  140.0890   71.1350  223.2970 C   0  0  0  0  0  0  0  0  0  0  0  0
  140.6730   71.7130  224.3900 N   0  0  0  0  0  0  0  0  0  0  0  0
  140.5490   71.2220  225.6190 C   0  0  0  0  0  0  0  0  0  0  0  0
  141.1610   71.8490  226.6840 C   0  0  0  0  0  0  0  0  0  0  0  0
  141.0080   71.3050  227.9520 C   0  0  0  0  0  0  0  0  0  0  0  0
  140.2600   70.1600  228.1450 C   0  0  0  0  0  0  0  0  0  0  0  0
  139.6610   69.5600  227.0490 C   0  0  0  0  0  0  0  0  0  0  0  0
  139.7930   70.0750  225.7740 C   0  0  0  0  0  0  0  0  0  0  0  0
  139.2140   69.5060  224.6690 C   0  0  0  0  0  0  0  0  0  0  0  0
  138.5320   68.4490  224.8810 O   0  0  0  0  0  0  0  0  0  0  0  0
  139.3460   70.0170  223.4160 N   0  0  0  0  0  0  0  0  0  0  0  0
  138.7210   69.4260  222.2750 C   0  0  0  0  0  0  0  0  0  0  0  0
  139.4770   68.3530  221.5700 C   0  0  0  0  0  0  0  0  0  0  0  0
  139.6700   68.4890  220.1150 C   0  0  0  0  0  0  0  0  0  0  0  0
  138.5270   67.9770  219.2800 C   0  0  0  0  0  0  0  0  0  0  0  0
  138.0560   66.6840  219.7380 N   0  0  0  0  0  0  0  0  0  0  0  0
  137.6180   66.8130  221.0930 C   0  0  0  0  0  0  0  0  0  0  0  0
  138.8240   67.0390  221.9670 C   0  0  0  0  0  0  0  0  0  0  0  0
  142.8190   73.1190  220.9430 C   0  0  0  0  0  0  0  0  0  0  0  0
  145.3130   74.0010  217.8870 H   0  0  0  0  0  0  0  0  0  0  0  0
  146.8210   74.0020  218.6240 H   0  0  0  0  0  0  0  0  0  0  0  0
  144.3773   75.4501  219.0157 H   0  0  0  0  0  0  0  0  0  0  0  0
  142.1896   76.5561  219.3814 H   0  0  0  0  0  0  0  0  0  0  0  0
  140.4562   75.4835  220.7104 H   0  0  0  0  0  0  0  0  0  0  0  0
  139.8825   73.7461  222.5497 H   0  0  0  0  0  0  0  0  0  0  0  0
  140.2892   71.1980  221.0775 H   0  0  0  0  0  0  0  0  0  0  0  0
  141.7576   72.7606  226.5320 H   0  0  0  0  0  0  0  0  0  0  0  0
  141.4883   71.7918  228.8136 H   0  0  0  0  0  0  0  0  0  0  0  0
  140.1418   69.7319  229.1514 H   0  0  0  0  0  0  0  0  0  0  0  0
  139.0638   68.6484  227.1983 H   0  0  0  0  0  0  0  0  0  0  0  0
  137.7646   68.9953  222.6063 H   0  0  0  0  0  0  0  0  0  0  0  0
  138.6329   70.2420  221.5426 H   0  0  0  0  0  0  0  0  0  0  0  0
  140.5246   68.4206  221.8985 H   0  0  0  0  0  0  0  0  0  0  0  0
  139.8112   69.5556  219.8860 H   0  0  0  0  0  0  0  0  0  0  0  0
  140.5441   67.8727  219.8578 H   0  0  0  0  0  0  0  0  0  0  0  0
  137.6971   68.6969  219.3344 H   0  0  0  0  0  0  0  0  0  0  0  0
  138.8862   67.8612  218.2468 H   0  0  0  0  0  0  0  0  0  0  0  0
  138.7560   65.9350  219.6110 H   0  0  0  0  0  0  0  0  0  0  0  0
  136.9310   67.6676  221.1809 H   0  0  0  0  0  0  0  0  0  0  0  0
  137.0915   65.8996  221.4069 H   0  0  0  0  0  0  0  0  0  0  0  0
  138.5134   67.0841  223.0213 H   0  0  0  0  0  0  0  0  0  0  0  0
  139.5387   66.2127  221.8389 H   0  0  0  0  0  0  0  0  0  0  0  0
  143.0191   72.1313  221.3839 H   0  0  0  0  0  0  0  0  0  0  0  0
  1  2  1  0
  2  3  2  0
  2  4  2  0
  2  5  1  0
  5  6  2  0
  6  7  1  0
  7  8  2  0
  8  9  1  0
  9 10  1  0
 10 11  2  0
 11 12  1  0
 12 13  2  0
 13 14  1  0
 14 15  2  0
 15 16  1  0
 16 17  2  0
 17 18  1  0
 18 19  2  0
 19 20  1  0
 20 21  2  0
 20 22  1  0
 22 23  1  0
 23 24  1  0
 24 25  1  0
 25 26  1  0
 26 27  1  0
 27 28  1  0
 28 29  1  0
  9 30  2  0
 30  5  1  0
 22 12  1  0
 29 24  1  0
 19 14  1  0
  1 31  1  0
  1 32  1  0
  6 33  1  0
  7 34  1  0
  8 35  1  0
 10 36  1  0
 11 37  1  0
 15 38  1  0
 16 39  1  0
 17 40  1  0
 18 41  1  0
 23 42  1  0
 23 43  1  0
 24 44  1  0
 25 45  1  0
 25 46  1  0
 26 47  1  0
 26 48  1  0
 27 49  1  0
 28 50  1  0
 28 51  1  0
 29 52  1  0
 29 53  1  0
 30 54  1  0
M  END
>  <smiles>  (2) 
NS(=O)(=O)c1cccc(/C=C/c2nc3ccccc3c(=O)n2CC2CCNCC2)c1

>  <score_type>  (2) 
oracle

>  <origin>  (2) 
autodockgpu

>  <m_score__min__energy>  (2) 
-9.5099999999999998

>  <m_primary>  (2) 
energy

>  <rmsd>  (2) 
12.346298754037091

>  <m_score__min__rmsd>  (2) 
12.346298754037091

>  <meeko>  (2) 
{"free_energy": -8.84, "intermolecular_energy": -10.93, "internal_energy": -1.21, "cluster_size": 18, "cluster_id": 1, "rank_in_cluster": 11}

>  <energy>  (2) 
-9.48

>  <cluster_rmsd>  (2) 
0.36

>  <cluster>  (2) 
1

$$$$

     RDKit          3D

 54 57  0  0  0  0  0  0  0  0999 V2000
  143.3270   79.4050  222.7070 N   0  0  0  0  0  0  0  0  0  0  0  0
  142.1920   80.1810  223.7530 S   0  0  0  0  0  0  0  0  0  0  0  0
  141.5160   79.1170  224.5950 O   0  0  0  0  0  0  0  0  0  0  0  0
  142.8740   81.1960  224.5920 O   0  0  0  0  0  0  0  0  0  0  0  0
  140.9420   80.8970  222.7310 C   0  0  0  0  0  0  0  0  0  0  0  0
  141.2070   82.0530  222.0250 C   0  0  0  0  0  0  0  0  0  0  0  0
  140.2090   82.5780  221.2430 C   0  0  0  0  0  0  0  0  0  0  0  0
  138.9880   81.9740  221.1650 C   0  0  0  0  0  0  0  0  0  0  0  0
  138.6770   80.8000  221.8640 C   0  0  0  0  0  0  0  0  0  0  0  0
  137.3620   80.1800  221.7570 C   0  0  0  0  0  0  0  0  0  0  0  0
  137.1140   79.0830  221.0690 C   0  0  0  0  0  0  0  0  0  0  0  0
  136.8170   77.8330  221.7730 C   0  0  0  0  0  0  0  0  0  0  0  0
  135.9370   77.9050  222.8160 N   0  0  0  0  0  0  0  0  0  0  0  0
  135.5810   76.8450  223.5350 C   0  0  0  0  0  0  0  0  0  0  0  0
  134.6870   76.9790  224.5770 C   0  0  0  0  0  0  0  0  0  0  0  0
  134.3410   75.8490  225.3040 C   0  0  0  0  0  0  0  0  0  0  0  0
  134.8790   74.6150  224.9930 C   0  0  0  0  0  0  0  0  0  0  0  0
  135.7730   74.5220  223.9390 C   0  0  0  0  0  0  0  0  0  0  0  0
  136.1400   75.6270  223.1950 C   0  0  0  0  0  0  0  0  0  0  0  0
  137.0210   75.5690  222.1470 C   0  0  0  0  0  0  0  0  0  0  0  0
  137.5010   74.4170  221.8860 O   0  0  0  0  0  0  0  0  0  0  0  0
  137.3780   76.6600  221.4170 N   0  0  0  0  0  0  0  0  0  0  0  0
  138.2830   76.5830  220.3130 C   0  0  0  0  0  0  0  0  0  0  0  0
  139.6600   76.0920  220.6020 C   0  0  0  0  0  0  0  0  0  0  0  0
  140.0950   76.0510  222.0100 C   0  0  0  0  0  0  0  0  0  0  0  0
  140.6470   77.3500  222.5340 C   0  0  0  0  0  0  0  0  0  0  0  0
  141.5760   77.9600  221.6010 N   0  0  0  0  0  0  0  0  0  0  0  0
  140.8880   78.2110  220.3730 C   0  0  0  0  0  0  0  0  0  0  0  0
  140.5940   76.8910  219.7090 C   0  0  0  0  0  0  0  0  0  0  0  0
  139.6960   80.2930  222.6430 C   0  0  0  0  0  0  0  0  0  0  0  0
  143.3430   78.3670  222.8220 H   0  0  0  0  0  0  0  0  0  0  0  0
  143.0310   79.6050  221.7320 H   0  0  0  0  0  0  0  0  0  0  0  0
  142.1913   82.5401  222.0875 H   0  0  0  0  0  0  0  0  0  0  0  0
  140.3960   83.4988  220.6710 H   0  0  0  0  0  0  0  0  0  0  0  0
  138.2155   82.4276  220.5267 H   0  0  0  0  0  0  0  0  0  0  0  0
  136.5230   80.6580  222.2840 H   0  0  0  0  0  0  0  0  0  0  0  0
  137.1300   79.1062  219.9694 H   0  0  0  0  0  0  0  0  0  0  0  0
  134.2576   77.9606  224.8262 H   0  0  0  0  0  0  0  0  0  0  0  0
  133.6295   75.9367  226.1383 H   0  0  0  0  0  0  0  0  0  0  0  0
  134.6022   73.7218  225.5723 H   0  0  0  0  0  0  0  0  0  0  0  0
  136.2027   73.5412  223.6873 H   0  0  0  0  0  0  0  0  0  0  0  0
  137.8395   75.9078  219.5664 H   0  0  0  0  0  0  0  0  0  0  0  0
  138.4141   77.6222  219.9771 H   0  0  0  0  0  0  0  0  0  0  0  0
  139.6785   75.0155  220.3765 H   0  0  0  0  0  0  0  0  0  0  0  0
  139.2292   75.7719  222.6285 H   0  0  0  0  0  0  0  0  0  0  0  0
  140.9158   75.3204  222.0613 H   0  0  0  0  0  0  0  0  0  0  0  0
  139.8129   78.0451  222.7107 H   0  0  0  0  0  0  0  0  0  0  0  0
  141.1910   77.1373  223.4661 H   0  0  0  0  0  0  0  0  0  0  0  0
  142.4380   77.4060  221.4730 H   0  0  0  0  0  0  0  0  0  0  0  0
  139.9461   78.7410  220.5775 H   0  0  0  0  0  0  0  0  0  0  0  0
  141.5107   78.8333  219.7135 H   0  0  0  0  0  0  0  0  0  0  0  0
  140.1144   77.0658  218.7346 H   0  0  0  0  0  0  0  0  0  0  0  0
  141.5297   76.3341  219.5529 H   0  0  0  0  0  0  0  0  0  0  0  0
  139.5135   79.3729  223.2176 H   0  0  0  0  0  0  0  0  0  0  0  0
  1  2  1  0
  2  3  2  0
  2  4  2  0
  2  5  1  0
  5  6  2  0
  6  7  1  0
  7  8  2  0
  8  9  1  0
  9 10  1  0
 10 11  2  0
 11 12  1  0
 12 13  2  0
 13 14  1  0
 14 15  2  0
 15 16  1  0
 16 17  2  0
 17 18  1  0
 18 19  2  0
 19 20  1  0
 20 21  2  0
 20 22  1  0
 22 23  1  0
 23 24  1  0
 24 25  1  0
 25 26  1  0
 26 27  1  0
 27 28  1  0
 28 29  1  0
  9 30  2  0
 30  5  1  0
 22 12  1  0
 29 24  1  0
 19 14  1  0
  1 31  1  0
  1 32  1  0
  6 33  1  0
  7 34  1  0
  8 35  1  0
 10 36  1  0
 11 37  1  0
 15 38  1  0
 16 39  1  0
 17 40  1  0
 18 41  1  0
 23 42  1  0
 23 43  1  0
 24 44  1  0
 25 45  1  0
 25 46  1  0
 26 47  1  0
 26 48  1  0
 27 49  1  0
 28 50  1  0
 28 51  1  0
 29 52  1  0
 29 53  1  0
 30 54  1  0
M  END
>  <smiles>  (3) 
NS(=O)(=O)c1cccc(/C=C/c2nc3ccccc3c(=O)n2CC2CCNCC2)c1

>  <score_type>  (3) 
oracle

>  <origin>  (3) 
autodockgpu

>  <m_score__min__energy>  (3) 
-9.5099999999999998

>  <m_primary>  (3) 
energy

>  <rmsd>  (3) 
6.34480248158228

>  <m_score__min__rmsd>  (3) 
6.34480248158228

>  <meeko>  (3) 
{"free_energy": -6.27, "intermolecular_energy": -8.36, "internal_energy": -3.4, "cluster_size": 3, "cluster_id": 14, "rank_in_cluster": 3}

>  <energy>  (3) 
-9.28

>  <cluster_rmsd>  (3) 
0.56

>  <cluster>  (3) 
1

$$$$

     RDKit          3D

 54 57  0  0  0  0  0  0  0  0999 V2000
  146.1380   73.4210  218.5410 N   0  0  0  0  0  0  0  0  0  0  0  0
  145.6900   72.3700  219.8380 S   0  0  0  0  0  0  0  0  0  0  0  0
  145.9850   70.9440  219.4190 O   0  0  0  0  0  0  0  0  0  0  0  0
  146.4160   72.7420  221.0770 O   0  0  0  0  0  0  0  0  0  0  0  0
  143.9390   72.4960  220.0330 C   0  0  0  0  0  0  0  0  0  0  0  0
  143.1150   71.5180  219.5150 C   0  0  0  0  0  0  0  0  0  0  0  0
  141.7610   71.6520  219.6870 C   0  0  0  0  0  0  0  0  0  0  0  0
  141.2420   72.7240  220.3540 C   0  0  0  0  0  0  0  0  0  0  0  0
  142.0410   73.7390  220.8960 C   0  0  0  0  0  0  0  0  0  0  0  0
  141.4530   74.8700  221.6030 C   0  0  0  0  0  0  0  0  0  0  0  0
  140.5940   75.7130  221.0650 C   0  0  0  0  0  0  0  0  0  0  0  0
  140.8560   77.1540  221.1160 C   0  0  0  0  0  0  0  0  0  0  0  0
  141.1240   77.6900  222.3450 N   0  0  0  0  0  0  0  0  0  0  0  0
  141.3800   78.9810  222.5280 C   0  0  0  0  0  0  0  0  0  0  0  0
  141.6450   79.4660  223.7920 C   0  0  0  0  0  0  0  0  0  0  0  0
  141.9070   80.8210  223.9430 C   0  0  0  0  0  0  0  0  0  0  0  0
  141.9040   81.6670  222.8510 C   0  0  0  0  0  0  0  0  0  0  0  0
  141.6340   81.1420  221.5980 C   0  0  0  0  0  0  0  0  0  0  0  0
  141.3680   79.7990  221.4130 C   0  0  0  0  0  0  0  0  0  0  0  0
  141.0970   79.2480  220.1870 C   0  0  0  0  0  0  0  0  0  0  0  0
  141.0990   80.0560  219.2010 O   0  0  0  0  0  0  0  0  0  0  0  0
  140.8370   77.9240  220.0110 N   0  0  0  0  0  0  0  0  0  0  0  0
  140.5750   77.3580  218.7250 C   0  0  0  0  0  0  0  0  0  0  0  0
  141.7210   77.2810  217.7750 C   0  0  0  0  0  0  0  0  0  0  0  0
  141.8630   76.0570  216.9660 C   0  0  0  0  0  0  0  0  0  0  0  0
  142.5930   74.9330  217.6510 C   0  0  0  0  0  0  0  0  0  0  0  0
  143.7970   75.3940  218.3180 N   0  0  0  0  0  0  0  0  0  0  0  0
  143.4290   76.3700  219.2950 C   0  0  0  0  0  0  0  0  0  0  0  0
  142.9660   77.6140  218.5800 C   0  0  0  0  0  0  0  0  0  0  0  0
  143.3980   73.5800  220.7080 C   0  0  0  0  0  0  0  0  0  0  0  0
  145.3640   74.0580  218.2480 H   0  0  0  0  0  0  0  0  0  0  0  0
  146.9160   74.0160  218.8850 H   0  0  0  0  0  0  0  0  0  0  0  0
  143.5331   70.6536  218.9782 H   0  0  0  0  0  0  0  0  0  0  0  0
  141.0841   70.8853  219.2820 H   0  0  0  0  0  0  0  0  0  0  0  0
  140.1504   72.7937  220.4708 H   0  0  0  0  0  0  0  0  0  0  0  0
  141.7444   75.0302  222.6515 H   0  0  0  0  0  0  0  0  0  0  0  0
  139.6824   75.3355  220.5788 H   0  0  0  0  0  0  0  0  0  0  0  0
  141.6486   78.7931  224.6622 H   0  0  0  0  0  0  0  0  0  0  0  0
  142.1194   81.2255  224.9436 H   0  0  0  0  0  0  0  0  0  0  0  0
  142.1126   82.7400  222.9745 H   0  0  0  0  0  0  0  0  0  0  0  0
  141.6313   81.8128  220.7262 H   0  0  0  0  0  0  0  0  0  0  0  0
  140.2043   76.3343  218.8819 H   0  0  0  0  0  0  0  0  0  0  0  0
  139.8562   78.0431  218.2517 H   0  0  0  0  0  0  0  0  0  0  0  0
  141.5302   78.0079  216.9718 H   0  0  0  0  0  0  0  0  0  0  0  0
  140.8560   75.7015  216.7024 H   0  0  0  0  0  0  0  0  0  0  0  0
  142.4675   76.3319  216.0891 H   0  0  0  0  0  0  0  0  0  0  0  0
  141.9251   74.4785  218.3976 H   0  0  0  0  0  0  0  0  0  0  0  0
  142.8880   74.2018  216.8840 H   0  0  0  0  0  0  0  0  0  0  0  0
  144.5150   75.7350  217.6590 H   0  0  0  0  0  0  0  0  0  0  0  0
  142.6147   75.9781  219.9222 H   0  0  0  0  0  0  0  0  0  0  0  0
  144.2914   76.6038  219.9366 H   0  0  0  0  0  0  0  0  0  0  0  0
  142.7321   78.3978  219.3155 H   0  0  0  0  0  0  0  0  0  0  0  0
  143.7589   77.9768  217.9094 H   0  0  0  0  0  0  0  0  0  0  0  0
  144.0792   74.3444  221.1100 H   0  0  0  0  0  0  0  0  0  0  0  0
  1  2  1  0
  2  3  2  0
  2  4  2  0
  2  5  1  0
  5  6  2  0
  6  7  1  0
  7  8  2  0
  8  9  1  0
  9 10  1  0
 10 11  2  0
 11 12  1  0
 12 13  2  0
 13 14  1  0
 14 15  2  0
 15 16  1  0
 16 17  2  0
 17 18  1  0
 18 19  2  0
 19 20  1  0
 20 21  2  0
 20 22  1  0
 22 23  1  0
 23 24  1  0
 24 25  1  0
 25 26  1  0
 26 27  1  0
 27 28  1  0
 28 29  1  0
  9 30  2  0
 30  5  1  0
 22 12  1  0
 29 24  1  0
 19 14  1  0
  1 31  1  0
  1 32  1  0
  6 33  1  0
  7 34  1  0
  8 35  1  0
 10 36  1  0
 11 37  1  0
 15 38  1  0
 16 39  1  0
 17 40  1  0
 18 41  1  0
 23 42  1  0
 23 43  1  0
 24 44  1  0
 25 45  1  0
 25 46  1  0
 26 47  1  0
 26 48  1  0
 27 49  1  0
 28 50  1  0
 28 51  1  0
 29 52  1  0
 29 53  1  0
 30 54  1  0
M  END
>  <smiles>  (4) 
NS(=O)(=O)c1cccc(/C=C/c2nc3ccccc3c(=O)n2CC2CCNCC2)c1

>  <score_type>  (4) 
oracle

>  <origin>  (4) 
autodockgpu

>  <m_score__min__energy>  (4) 
-9.5099999999999998

>  <m_primary>  (4) 
energy

>  <rmsd>  (4) 
6.532655523367103

>  <m_score__min__rmsd>  (4) 
6.532655523367103

>  <meeko>  (4) 
{"free_energy": -7.82, "intermolecular_energy": -9.91, "internal_energy": -2.68, "cluster_size": 4, "cluster_id": 7, "rank_in_cluster": 3}

>  <energy>  (4) 
-9.27

>  <cluster_rmsd>  (4) 
0.56

>  <cluster>  (4) 
1

$$$$

     RDKit          3D

 54 57  0  0  0  0  0  0  0  0999 V2000
  145.4450   73.7740  217.2780 N   0  0  0  0  0  0  0  0  0  0  0  0
  145.5250   73.0410  218.8410 S   0  0  0  0  0  0  0  0  0  0  0  0
  145.5820   71.5380  218.6600 O   0  0  0  0  0  0  0  0  0  0  0  0
  146.6990   73.5500  219.5900 O   0  0  0  0  0  0  0  0  0  0  0  0
  144.0060   73.4010  219.6660 C   0  0  0  0  0  0  0  0  0  0  0  0
  143.5550   74.7040  219.7460 C   0  0  0  0  0  0  0  0  0  0  0  0
  142.3710   74.9420  220.3960 C   0  0  0  0  0  0  0  0  0  0  0  0
  141.6570   73.9190  220.9490 C   0  0  0  0  0  0  0  0  0  0  0  0
  142.0760   72.5830  220.8920 C   0  0  0  0  0  0  0  0  0  0  0  0
  141.2880   71.5150  221.4930 C   0  0  0  0  0  0  0  0  0  0  0  0
  140.1670   71.7070  222.1610 C   0  0  0  0  0  0  0  0  0  0  0  0
  139.9750   71.0660  223.4640 C   0  0  0  0  0  0  0  0  0  0  0  0
  140.5640   71.6670  224.5410 N   0  0  0  0  0  0  0  0  0  0  0  0
  140.4650   71.1890  225.7770 C   0  0  0  0  0  0  0  0  0  0  0  0
  141.0810   71.8390  226.8270 C   0  0  0  0  0  0  0  0  0  0  0  0
  140.9550   71.3080  228.1030 C   0  0  0  0  0  0  0  0  0  0  0  0
  140.2290   70.1530  228.3190 C   0  0  0  0  0  0  0  0  0  0  0  0
  139.6250   69.5290  227.2400 C   0  0  0  0  0  0  0  0  0  0  0  0
  139.7310   70.0300  225.9570 C   0  0  0  0  0  0  0  0  0  0  0  0
  139.1460   69.4390  224.8670 C   0  0  0  0  0  0  0  0  0  0  0  0
  138.4850   68.3730  225.1010 O   0  0  0  0  0  0  0  0  0  0  0  0
  139.2530   69.9370  223.6060 N   0  0  0  0  0  0  0  0  0  0  0  0
  138.6220   69.3210  222.4810 C   0  0  0  0  0  0  0  0  0  0  0  0
  137.3040   69.8740  222.0590 C   0  0  0  0  0  0  0  0  0  0  0  0
  137.0150   71.2840  222.3790 C   0  0  0  0  0  0  0  0  0  0  0  0
  136.4620   71.5130  223.7600 C   0  0  0  0  0  0  0  0  0  0  0  0
  135.4180   70.5620  224.0920 N   0  0  0  0  0  0  0  0  0  0  0  0
  135.9670   69.2430  224.0260 C   0  0  0  0  0  0  0  0  0  0  0  0
  136.2510   68.9130  222.5840 C   0  0  0  0  0  0  0  0  0  0  0  0
  143.2700   72.3710  220.2330 C   0  0  0  0  0  0  0  0  0  0  0  0
  145.4120   74.8170  217.3190 H   0  0  0  0  0  0  0  0  0  0  0  0
  146.3130   73.5100  216.7720 H   0  0  0  0  0  0  0  0  0  0  0  0
  144.1301   75.5289  219.3002 H   0  0  0  0  0  0  0  0  0  0  0  0
  141.9917   75.9717  220.4726 H   0  0  0  0  0  0  0  0  0  0  0  0
  140.7122   74.1531  221.4614 H   0  0  0  0  0  0  0  0  0  0  0  0
  141.6511   70.4826  221.3826 H   0  0  0  0  0  0  0  0  0  0  0  0
  139.3777   72.3474  221.7403 H   0  0  0  0  0  0  0  0  0  0  0  0
  141.6597   72.7587  226.6561 H   0  0  0  0  0  0  0  0  0  0  0  0
  141.4389   71.8128  228.9521 H   0  0  0  0  0  0  0  0  0  0  0  0
  140.1320   69.7353  229.3320 H   0  0  0  0  0  0  0  0  0  0  0  0
  139.0452   68.6096  227.4093 H   0  0  0  0  0  0  0  0  0  0  0  0
  139.3083   69.4093  221.6259 H   0  0  0  0  0  0  0  0  0  0  0  0
  138.4105   68.2899  222.8007 H   0  0  0  0  0  0  0  0  0  0  0  0
  137.3102   69.9355  220.9607 H   0  0  0  0  0  0  0  0  0  0  0  0
  137.9500   71.8557  222.2848 H   0  0  0  0  0  0  0  0  0  0  0  0
  136.2365   71.6103  221.6737 H   0  0  0  0  0  0  0  0  0  0  0  0
  137.2784   71.4135  224.4905 H   0  0  0  0  0  0  0  0  0  0  0  0
  136.0241   72.5217  223.7876 H   0  0  0  0  0  0  0  0  0  0  0  0
  134.5720   70.6750  223.5100 H   0  0  0  0  0  0  0  0  0  0  0  0
  136.9002   69.2004  224.6068 H   0  0  0  0  0  0  0  0  0  0  0  0
  135.2539   68.5175  224.4444 H   0  0  0  0  0  0  0  0  0  0  0  0
  136.6222   67.8803  222.5074 H   0  0  0  0  0  0  0  0  0  0  0  0
  135.3296   69.0083  221.9907 H   0  0  0  0  0  0  0  0  0  0  0  0
  143.6537   71.3431  220.1542 H   0  0  0  0  0  0  0  0  0  0  0  0
  1  2  1  0
  2  3  2  0
  2  4  2  0
  2  5  1  0
  5  6  2  0
  6  7  1  0
  7  8  2  0
  8  9  1  0
  9 10  1  0
 10 11  2  0
 11 12  1  0
 12 13  2  0
 13 14  1  0
 14 15  2  0
 15 16  1  0
 16 17  2  0
 17 18  1  0
 18 19  2  0
 19 20  1  0
 20 21  2  0
 20 22  1  0
 22 23  1  0
 23 24  1  0
 24 25  1  0
 25 26  1  0
 26 27  1  0
 27 28  1  0
 28 29  1  0
  9 30  2  0
 30  5  1  0
 22 12  1  0
 29 24  1  0
 19 14  1  0
  1 31  1  0
  1 32  1  0
  6 33  1  0
  7 34  1  0
  8 35  1  0
 10 36  1  0
 11 37  1  0
 15 38  1  0
 16 39  1  0
 17 40  1  0
 18 41  1  0
 23 42  1  0
 23 43  1  0
 24 44  1  0
 25 45  1  0
 25 46  1  0
 26 47  1  0
 26 48  1  0
 27 49  1  0
 28 50  1  0
 28 51  1  0
 29 52  1  0
 29 53  1  0
 30 54  1  0
M  END
>  <smiles>  (5) 
NS(=O)(=O)c1cccc(/C=C/c2nc3ccccc3c(=O)n2CC2CCNCC2)c1

>  <score_type>  (5) 
oracle

>  <origin>  (5) 
autodockgpu

>  <m_score__min__energy>  (5) 
-9.5099999999999998

>  <m_primary>  (5) 
energy

>  <rmsd>  (5) 
11.676071575234227

>  <m_score__min__rmsd>  (5) 
11.676071575234227

>  <meeko>  (5) 
{"free_energy": -8.42, "intermolecular_energy": -10.51, "internal_energy": -1.43, "cluster_size": 18, "cluster_id": 1, "rank_in_cluster": 18}

>  <energy>  (5) 
-9.25

>  <cluster_rmsd>  (5) 
0.61

>  <cluster>  (5) 
1

$$$$

     RDKit          3D

 54 57  0  0  0  0  0  0  0  0999 V2000
  143.3050   79.4410  222.6810 N   0  0  0  0  0  0  0  0  0  0  0  0
  142.1320   80.1110  223.7590 S   0  0  0  0  0  0  0  0  0  0  0  0
  141.5960   78.9950  224.6330 O   0  0  0  0  0  0  0  0  0  0  0  0
  142.7360   81.2000  224.5660 O   0  0  0  0  0  0  0  0  0  0  0  0
  140.7840   80.6860  222.7750 C   0  0  0  0  0  0  0  0  0  0  0  0
  140.9760   81.7120  221.8730 C   0  0  0  0  0  0  0  0  0  0  0  0
  139.9030   82.1300  221.1280 C   0  0  0  0  0  0  0  0  0  0  0  0
  138.6770   81.5460  221.2740 C   0  0  0  0  0  0  0  0  0  0  0  0
  138.4380   80.5020  222.1760 C   0  0  0  0  0  0  0  0  0  0  0  0
  137.1170   79.9010  222.3060 C   0  0  0  0  0  0  0  0  0  0  0  0
  136.6940   78.8800  221.5860 C   0  0  0  0  0  0  0  0  0  0  0  0
  136.4210   77.5940  222.2320 C   0  0  0  0  0  0  0  0  0  0  0  0
  135.5540   77.6050  223.2890 N   0  0  0  0  0  0  0  0  0  0  0  0
  135.2220   76.5070  223.9610 C   0  0  0  0  0  0  0  0  0  0  0  0
  134.3400   76.5790  225.0190 C   0  0  0  0  0  0  0  0  0  0  0  0
  134.0180   75.4110  225.6950 C   0  0  0  0  0  0  0  0  0  0  0  0
  134.5670   74.2010  225.3180 C   0  0  0  0  0  0  0  0  0  0  0  0
  135.4480   74.1700  224.2490 C   0  0  0  0  0  0  0  0  0  0  0  0
  135.7910   75.3140  223.5550 C   0  0  0  0  0  0  0  0  0  0  0  0
  136.6580   75.3180  222.4940 C   0  0  0  0  0  0  0  0  0  0  0  0
  137.1490   74.1860  222.1720 O   0  0  0  0  0  0  0  0  0  0  0  0
  136.9920   76.4480  221.8120 N   0  0  0  0  0  0  0  0  0  0  0  0
  137.8830   76.4360  220.6950 C   0  0  0  0  0  0  0  0  0  0  0  0
  139.2430   75.8710  220.9210 C   0  0  0  0  0  0  0  0  0  0  0  0
  139.7890   75.9190  222.2900 C   0  0  0  0  0  0  0  0  0  0  0  0
  140.4680   77.2130  222.6490 C   0  0  0  0  0  0  0  0  0  0  0  0
  141.3560   77.6720  221.5960 N   0  0  0  0  0  0  0  0  0  0  0  0
  140.5870   77.8660  220.4070 C   0  0  0  0  0  0  0  0  0  0  0  0
  140.1510   76.5190  219.8910 C   0  0  0  0  0  0  0  0  0  0  0  0
  139.5330   80.1010  222.9130 C   0  0  0  0  0  0  0  0  0  0  0  0
  143.0330   78.5010  222.3170 H   0  0  0  0  0  0  0  0  0  0  0  0
  143.3730   80.0820  221.8680 H   0  0  0  0  0  0  0  0  0  0  0  0
  141.9633   82.1823  221.7545 H   0  0  0  0  0  0  0  0  0  0  0  0
  140.0316   82.9470  220.4028 H   0  0  0  0  0  0  0  0  0  0  0  0
  137.8425   81.9110  220.6572 H   0  0  0  0  0  0  0  0  0  0  0  0
  136.4290   80.3257  223.0518 H   0  0  0  0  0  0  0  0  0  0  0  0
  136.5464   78.9941  220.5019 H   0  0  0  0  0  0  0  0  0  0  0  0
  133.9013   77.5417  225.3203 H   0  0  0  0  0  0  0  0  0  0  0  0
  133.3168   75.4491  226.5417 H   0  0  0  0  0  0  0  0  0  0  0  0
  134.3092   73.2776  225.8573 H   0  0  0  0  0  0  0  0  0  0  0  0
  135.8862   73.2081  223.9447 H   0  0  0  0  0  0  0  0  0  0  0  0
  137.4072   75.8468  219.8972 H   0  0  0  0  0  0  0  0  0  0  0  0
  138.0505   77.4956  220.4517 H   0  0  0  0  0  0  0  0  0  0  0  0
  139.1708   74.7808  220.7932 H   0  0  0  0  0  0  0  0  0  0  0  0
  138.9604   75.7591  222.9956 H   0  0  0  0  0  0  0  0  0  0  0  0
  140.5602   75.1366  222.3454 H   0  0  0  0  0  0  0  0  0  0  0  0
  139.6997   77.9802  222.8251 H   0  0  0  0  0  0  0  0  0  0  0  0
  141.0724   77.0404  223.5517 H   0  0  0  0  0  0  0  0  0  0  0  0
  142.1650   77.0470  221.4540 H   0  0  0  0  0  0  0  0  0  0  0  0
  139.7028   78.4799  220.6336 H   0  0  0  0  0  0  0  0  0  0  0  0
  141.1933   78.3810  219.6473 H   0  0  0  0  0  0  0  0  0  0  0  0
  139.6054   76.6447  218.9442 H   0  0  0  0  0  0  0  0  0  0  0  0
  141.0313   75.8830  219.7159 H   0  0  0  0  0  0  0  0  0  0  0  0
  139.4096   79.2844  223.6396 H   0  0  0  0  0  0  0  0  0  0  0  0
  1  2  1  0
  2  3  2  0
  2  4  2  0
  2  5  1  0
  5  6  2  0
  6  7  1  0
  7  8  2  0
  8  9  1  0
  9 10  1  0
 10 11  2  0
 11 12  1  0
 12 13  2  0
 13 14  1  0
 14 15  2  0
 15 16  1  0
 16 17  2  0
 17 18  1  0
 18 19  2  0
 19 20  1  0
 20 21  2  0
 20 22  1  0
 22 23  1  0
 23 24  1  0
 24 25  1  0
 25 26  1  0
 26 27  1  0
 27 28  1  0
 28 29  1  0
  9 30  2  0
 30  5  1  0
 22 12  1  0
 29 24  1  0
 19 14  1  0
  1 31  1  0
  1 32  1  0
  6 33  1  0
  7 34  1  0
  8 35  1  0
 10 36  1  0
 11 37  1  0
 15 38  1  0
 16 39  1  0
 17 40  1  0
 18 41  1  0
 23 42  1  0
 23 43  1  0
 24 44  1  0
 25 45  1  0
 25 46  1  0
 26 47  1  0
 26 48  1  0
 27 49  1  0
 28 50  1  0
 28 51  1  0
 29 52  1  0
 29 53  1  0
 30 54  1  0
M  END
>  <smiles>  (6) 
NS(=O)(=O)c1cccc(/C=C/c2nc3ccccc3c(=O)n2CC2CCNCC2)c1

>  <score_type>  (6) 
oracle

>  <origin>  (6) 
autodockgpu

>  <m_score__min__energy>  (6) 
-9.5099999999999998

>  <m_primary>  (6) 
energy

>  <rmsd>  (6) 
6.701951620220698

>  <m_score__min__rmsd>  (6) 
6.701951620220698

>  <meeko>  (6) 
{"free_energy": -6.43, "intermolecular_energy": -8.52, "internal_energy": -2.89, "cluster_size": 3, "cluster_id": 14, "rank_in_cluster": 2}

>  <energy>  (6) 
-9.19

>  <cluster_rmsd>  (6) 
1.7

>  <cluster>  (6) 
1

$$$$

     RDKit          3D

 54 57  0  0  0  0  0  0  0  0999 V2000
  141.0520   68.1720  228.0810 N   0  0  0  0  0  0  0  0  0  0  0  0
  140.3800   69.7260  227.7370 S   0  0  0  0  0  0  0  0  0  0  0  0
  139.0890   69.8710  228.5170 O   0  0  0  0  0  0  0  0  0  0  0  0
  141.3510   70.7940  228.0780 O   0  0  0  0  0  0  0  0  0  0  0  0
  139.9500   69.7440  226.0240 C   0  0  0  0  0  0  0  0  0  0  0  0
  139.4780   68.5970  225.4190 C   0  0  0  0  0  0  0  0  0  0  0  0
  139.1560   68.6520  224.0870 C   0  0  0  0  0  0  0  0  0  0  0  0
  139.2980   69.8100  223.3780 C   0  0  0  0  0  0  0  0  0  0  0  0
  139.7730   70.9970  223.9520 C   0  0  0  0  0  0  0  0  0  0  0  0
  139.9120   72.2160  223.1660 C   0  0  0  0  0  0  0  0  0  0  0  0
  140.7010   72.3340  222.1160 C   0  0  0  0  0  0  0  0  0  0  0  0
  141.0570   73.6640  221.6170 C   0  0  0  0  0  0  0  0  0  0  0  0
  140.4290   74.7310  222.1980 N   0  0  0  0  0  0  0  0  0  0  0  0
  140.6630   75.9890  221.8390 C   0  0  0  0  0  0  0  0  0  0  0  0
  140.0000   77.0260  222.4620 C   0  0  0  0  0  0  0  0  0  0  0  0
  140.2710   78.3250  222.0590 C   0  0  0  0  0  0  0  0  0  0  0  0
  141.1860   78.5780  221.0550 C   0  0  0  0  0  0  0  0  0  0  0  0
  141.8320   77.5100  220.4540 C   0  0  0  0  0  0  0  0  0  0  0  0
  141.5850   76.2040  220.8300 C   0  0  0  0  0  0  0  0  0  0  0  0
  142.2060   75.1250  220.2570 C   0  0  0  0  0  0  0  0  0  0  0  0
  143.0430   75.3920  219.3320 O   0  0  0  0  0  0  0  0  0  0  0  0
  141.9600   73.8410  220.6320 N   0  0  0  0  0  0  0  0  0  0  0  0
  142.6290   72.7260  220.0400 C   0  0  0  0  0  0  0  0  0  0  0  0
  143.7320   72.1050  220.8260 C   0  0  0  0  0  0  0  0  0  0  0  0
  144.8770   72.9560  221.1970 C   0  0  0  0  0  0  0  0  0  0  0  0
  145.9430   73.0710  220.1400 C   0  0  0  0  0  0  0  0  0  0  0  0
  146.2740   71.7830  219.5600 N   0  0  0  0  0  0  0  0  0  0  0  0
  145.0930   71.2340  218.9700 C   0  0  0  0  0  0  0  0  0  0  0  0
  144.1390   70.8500  220.0720 C   0  0  0  0  0  0  0  0  0  0  0  0
  140.0900   70.9140  225.2920 C   0  0  0  0  0  0  0  0  0  0  0  0
  140.3670   67.3950  227.9500 H   0  0  0  0  0  0  0  0  0  0  0  0
  141.8280   68.0190  227.4080 H   0  0  0  0  0  0  0  0  0  0  0  0
  139.3631   67.6637  225.9898 H   0  0  0  0  0  0  0  0  0  0  0  0
  138.7780   67.7504  223.5828 H   0  0  0  0  0  0  0  0  0  0  0  0
  139.0283   69.8114  222.3116 H   0  0  0  0  0  0  0  0  0  0  0  0
  139.3213   73.0935  223.4676 H   0  0  0  0  0  0  0  0  0  0  0  0
  141.0910   71.4352  221.6159 H   0  0  0  0  0  0  0  0  0  0  0  0
  139.2716   76.8267  223.2618 H   0  0  0  0  0  0  0  0  0  0  0  0
  139.7512   79.1641  222.5445 H   0  0  0  0  0  0  0  0  0  0  0  0
  141.3979   79.6099  220.7383 H   0  0  0  0  0  0  0  0  0  0  0  0
  142.5619   77.7075  219.6551 H   0  0  0  0  0  0  0  0  0  0  0  0
  141.8749   71.9472  219.8534 H   0  0  0  0  0  0  0  0  0  0  0  0
  143.1122   73.1285  219.1375 H   0  0  0  0  0  0  0  0  0  0  0  0
  143.3366   71.8865  221.8290 H   0  0  0  0  0  0  0  0  0  0  0  0
  144.4979   73.9658  221.4128 H   0  0  0  0  0  0  0  0  0  0  0  0
  145.3514   72.4774  222.0664 H   0  0  0  0  0  0  0  0  0  0  0  0
  145.5822   73.7374  219.3427 H   0  0  0  0  0  0  0  0  0  0  0  0
  146.8502   73.4734  220.6145 H   0  0  0  0  0  0  0  0  0  0  0  0
  146.7210   71.1430  220.2360 H   0  0  0  0  0  0  0  0  0  0  0  0
  144.6223   71.9835  218.3167 H   0  0  0  0  0  0  0  0  0  0  0  0
  145.3495   70.3488  218.3695 H   0  0  0  0  0  0  0  0  0  0  0  0
  143.2472   70.3728  219.6395 H   0  0  0  0  0  0  0  0  0  0  0  0
  144.6264   70.1425  220.7590 H   0  0  0  0  0  0  0  0  0  0  0  0
  140.4693   71.8124  225.8009 H   0  0  0  0  0  0  0  0  0  0  0  0
  1  2  1  0
  2  3  2  0
  2  4  2  0
  2  5  1  0
  5  6  2  0
  6  7  1  0
  7  8  2  0
  8  9  1  0
  9 10  1  0
 10 11  2  0
 11 12  1  0
 12 13  2  0
 13 14  1  0
 14 15  2  0
 15 16  1  0
 16 17  2  0
 17 18  1  0
 18 19  2  0
 19 20  1  0
 20 21  2  0
 20 22  1  0
 22 23  1  0
 23 24  1  0
 24 25  1  0
 25 26  1  0
 26 27  1  0
 27 28  1  0
 28 29  1  0
  9 30  2  0
 30  5  1  0
 22 12  1  0
 29 24  1  0
 19 14  1  0
  1 31  1  0
  1 32  1  0
  6 33  1  0
  7 34  1  0
  8 35  1  0
 10 36  1  0
 11 37  1  0
 15 38  1  0
 16 39  1  0
 17 40  1  0
 18 41  1  0
 23 42  1  0
 23 43  1  0
 24 44  1  0
 25 45  1  0
 25 46  1  0
 26 47  1  0
 26 48  1  0
 27 49  1  0
 28 50  1  0
 28 51  1  0
 29 52  1  0
 29 53  1  0
 30 54  1  0
M  END
>  <smiles>  (7) 
NS(=O)(=O)c1cccc(/C=C/c2nc3ccccc3c(=O)n2CC2CCNCC2)c1

>  <score_type>  (7) 
oracle

>  <origin>  (7) 
autodockgpu

>  <m_score__min__energy>  (7) 
-9.5099999999999998

>  <m_primary>  (7) 
energy

>  <rmsd>  (7) 
8.048009051715391

>  <m_score__min__rmsd>  (7) 
8.048009051715391

>  <meeko>  (7) 
{"free_energy": -9.16, "intermolecular_energy": -11.25, "internal_energy": -1.23, "cluster_size": 4, "cluster_id": 2, "rank_in_cluster": 2}

>  <energy>  (7) 
-9.17

>  <cluster_rmsd>  (7) 
0.79

>  <cluster>  (7) 
1

$$$$

     RDKit          3D

 54 57  0  0  0  0  0  0  0  0999 V2000
  141.0730   72.2390  228.0220 N   0  0  0  0  0  0  0  0  0  0  0  0
  140.3630   70.6750  227.8330 S   0  0  0  0  0  0  0  0  0  0  0  0
  141.4220   69.6320  228.1280 O   0  0  0  0  0  0  0  0  0  0  0  0
  139.1860   70.5310  228.7240 O   0  0  0  0  0  0  0  0  0  0  0  0
  139.9300   70.4990  226.1300 C   0  0  0  0  0  0  0  0  0  0  0  0
  138.9180   69.6350  225.7610 C   0  0  0  0  0  0  0  0  0  0  0  0
  138.6120   69.5270  224.4280 C   0  0  0  0  0  0  0  0  0  0  0  0
  139.2890   70.2530  223.4920 C   0  0  0  0  0  0  0  0  0  0  0  0
  140.3210   71.1410  223.8220 C   0  0  0  0  0  0  0  0  0  0  0  0
  141.0230   71.9020  222.7960 C   0  0  0  0  0  0  0  0  0  0  0  0
  140.4260   72.5410  221.8100 C   0  0  0  0  0  0  0  0  0  0  0  0
  140.8480   73.9000  221.4590 C   0  0  0  0  0  0  0  0  0  0  0  0
  140.1580   74.9300  222.0350 N   0  0  0  0  0  0  0  0  0  0  0  0
  140.4410   76.2070  221.8030 C   0  0  0  0  0  0  0  0  0  0  0  0
  139.7120   77.2050  222.4140 C   0  0  0  0  0  0  0  0  0  0  0  0
  140.0370   78.5270  222.1460 C   0  0  0  0  0  0  0  0  0  0  0  0
  141.0710   78.8390  221.2840 C   0  0  0  0  0  0  0  0  0  0  0  0
  141.7810   77.8090  220.6890 C   0  0  0  0  0  0  0  0  0  0  0  0
  141.4820   76.4820  220.9340 C   0  0  0  0  0  0  0  0  0  0  0  0
  142.1650   75.4400  220.3630 C   0  0  0  0  0  0  0  0  0  0  0  0
  143.1110   75.7610  219.5710 O   0  0  0  0  0  0  0  0  0  0  0  0
  141.8670   74.1350  220.6090 N   0  0  0  0  0  0  0  0  0  0  0  0
  142.5990   73.0570  220.0220 C   0  0  0  0  0  0  0  0  0  0  0  0
  143.6850   72.4520  220.8430 C   0  0  0  0  0  0  0  0  0  0  0  0
  144.8330   73.3050  221.2010 C   0  0  0  0  0  0  0  0  0  0  0  0
  145.9130   73.3750  220.1550 C   0  0  0  0  0  0  0  0  0  0  0  0
  146.2390   72.0650  219.6230 N   0  0  0  0  0  0  0  0  0  0  0  0
  145.0620   71.5070  219.0360 C   0  0  0  0  0  0  0  0  0  0  0  0
  144.0900   71.1690  220.1370 C   0  0  0  0  0  0  0  0  0  0  0  0
  140.6100   71.2310  225.1680 C   0  0  0  0  0  0  0  0  0  0  0  0
  141.6040   72.5490  227.1790 H   0  0  0  0  0  0  0  0  0  0  0  0
  140.2960   72.9110  228.1670 H   0  0  0  0  0  0  0  0  0  0  0  0
  138.3721   69.0493  226.5153 H   0  0  0  0  0  0  0  0  0  0  0  0
  137.8095   68.8455  224.1093 H   0  0  0  0  0  0  0  0  0  0  0  0
  139.0128   70.1361  222.4337 H   0  0  0  0  0  0  0  0  0  0  0  0
  142.1209   71.9457  222.8480 H   0  0  0  0  0  0  0  0  0  0  0  0
  139.6124   72.0552  221.2514 H   0  0  0  0  0  0  0  0  0  0  0  0
  138.8888   76.9580  223.1006 H   0  0  0  0  0  0  0  0  0  0  0  0
  139.4653   79.3356  222.6249 H   0  0  0  0  0  0  0  0  0  0  0  0
  141.3261   79.8881  221.0737 H   0  0  0  0  0  0  0  0  0  0  0  0
  142.6052   78.0539  220.0029 H   0  0  0  0  0  0  0  0  0  0  0  0
  141.8804   72.2594  219.7823 H   0  0  0  0  0  0  0  0  0  0  0  0
  143.1091   73.4975  219.1526 H   0  0  0  0  0  0  0  0  0  0  0  0
  143.2742   72.2698  221.8470 H   0  0  0  0  0  0  0  0  0  0  0  0
  144.4605   74.3247  221.3781 H   0  0  0  0  0  0  0  0  0  0  0  0
  145.2916   72.8518  222.0922 H   0  0  0  0  0  0  0  0  0  0  0  0
  145.5686   74.0174  219.3312 H   0  0  0  0  0  0  0  0  0  0  0  0
  146.8178   73.7852  220.6272 H   0  0  0  0  0  0  0  0  0  0  0  0
  146.6720   71.4430  220.3250 H   0  0  0  0  0  0  0  0  0  0  0  0
  144.6070   72.2379  218.3514 H   0  0  0  0  0  0  0  0  0  0  0  0
  145.3184   70.5998  218.4692 H   0  0  0  0  0  0  0  0  0  0  0  0
  143.1995   70.6857  219.7086 H   0  0  0  0  0  0  0  0  0  0  0  0
  144.5615   70.4806  220.8538 H   0  0  0  0  0  0  0  0  0  0  0  0
  141.4121   71.9108  225.4913 H   0  0  0  0  0  0  0  0  0  0  0  0
  1  2  1  0
  2  3  2  0
  2  4  2  0
  2  5  1  0
  5  6  2  0
  6  7  1  0
  7  8  2  0
  8  9  1  0
  9 10  1  0
 10 11  2  0
 11 12  1  0
 12 13  2  0
 13 14  1  0
 14 15  2  0
 15 16  1  0
 16 17  2  0
 17 18  1  0
 18 19  2  0
 19 20  1  0
 20 21  2  0
 20 22  1  0
 22 23  1  0
 23 24  1  0
 24 25  1  0
 25 26  1  0
 26 27  1  0
 27 28  1  0
 28 29  1  0
  9 30  2  0
 30  5  1  0
 22 12  1  0
 29 24  1  0
 19 14  1  0
  1 31  1  0
  1 32  1  0
  6 33  1  0
  7 34  1  0
  8 35  1  0
 10 36  1  0
 11 37  1  0
 15 38  1  0
 16 39  1  0
 17 40  1  0
 18 41  1  0
 23 42  1  0
 23 43  1  0
 24 44  1  0
 25 45  1  0
 25 46  1  0
 26 47  1  0
 26 48  1  0
 27 49  1  0
 28 50  1  0
 28 51  1  0
 29 52  1  0
 29 53  1  0
 30 54  1  0
M  END
>  <smiles>  (8) 
NS(=O)(=O)c1cccc(/C=C/c2nc3ccccc3c(=O)n2CC2CCNCC2)c1

>  <score_type>  (8) 
oracle

>  <origin>  (8) 
autodockgpu

>  <m_score__min__energy>  (8) 
-9.5099999999999998

>  <m_primary>  (8) 
energy

>  <rmsd>  (8) 
7.894218614978294

>  <m_score__min__rmsd>  (8) 
7.894218614978294

>  <meeko>  (8) 
{"free_energy": -9.08, "intermolecular_energy": -11.16, "internal_energy": -1.27, "cluster_size": 2, "cluster_id": 3, "rank_in_cluster": 1}

>  <energy>  (8) 
-9.17

>  <cluster_rmsd>  (8) 
0.8

>  <cluster>  (8) 
1

$$$$

     RDKit          3D

 54 57  0  0  0  0  0  0  0  0999 V2000
  135.8910   81.4650  230.6340 N   0  0  0  0  0  0  0  0  0  0  0  0
  134.3710   81.7760  229.8730 S   0  0  0  0  0  0  0  0  0  0  0  0
  133.3590   80.7830  230.4070 O   0  0  0  0  0  0  0  0  0  0  0  0
  133.9490   83.1770  230.1160 O   0  0  0  0  0  0  0  0  0  0  0  0
  134.5670   81.4340  228.1510 C   0  0  0  0  0  0  0  0  0  0  0  0
  133.5070   80.9370  227.4210 C   0  0  0  0  0  0  0  0  0  0  0  0
  133.7000   80.6840  226.0870 C   0  0  0  0  0  0  0  0  0  0  0  0
  134.9090   80.9160  225.4970 C   0  0  0  0  0  0  0  0  0  0  0  0
  136.0110   81.4200  226.1990 C   0  0  0  0  0  0  0  0  0  0  0  0
  137.2880   81.6570  225.5380 C   0  0  0  0  0  0  0  0  0  0  0  0
  137.4940   81.4920  224.2460 C   0  0  0  0  0  0  0  0  0  0  0  0
  137.7690   80.1550  223.7160 C   0  0  0  0  0  0  0  0  0  0  0  0
  136.6880   79.3810  223.3970 N   0  0  0  0  0  0  0  0  0  0  0  0
  136.8000   78.1510  222.9070 C   0  0  0  0  0  0  0  0  0  0  0  0
  135.6720   77.4170  222.6030 C   0  0  0  0  0  0  0  0  0  0  0  0
  135.8300   76.1360  222.0930 C   0  0  0  0  0  0  0  0  0  0  0  0
  137.0900   75.6050  221.8930 C   0  0  0  0  0  0  0  0  0  0  0  0
  138.1980   76.3740  222.2100 C   0  0  0  0  0  0  0  0  0  0  0  0
  138.0760   77.6520  222.7210 C   0  0  0  0  0  0  0  0  0  0  0  0
  139.1510   78.4390  223.0440 C   0  0  0  0  0  0  0  0  0  0  0  0
  140.2990   77.9190  222.8500 O   0  0  0  0  0  0  0  0  0  0  0  0
  139.0250   79.6980  223.5450 N   0  0  0  0  0  0  0  0  0  0  0  0
  140.1540   80.5150  223.8600 C   0  0  0  0  0  0  0  0  0  0  0  0
  140.8050   81.2340  222.7290 C   0  0  0  0  0  0  0  0  0  0  0  0
  140.2370   81.0520  221.3810 C   0  0  0  0  0  0  0  0  0  0  0  0
  140.7330   79.8340  220.6500 C   0  0  0  0  0  0  0  0  0  0  0  0
  142.1720   79.6850  220.7550 N   0  0  0  0  0  0  0  0  0  0  0  0
  142.5160   79.5680  222.1380 C   0  0  0  0  0  0  0  0  0  0  0  0
  142.2850   80.8990  222.8050 C   0  0  0  0  0  0  0  0  0  0  0  0
  135.7900   81.6650  227.5390 C   0  0  0  0  0  0  0  0  0  0  0  0
  136.1630   80.4580  230.6030 H   0  0  0  0  0  0  0  0  0  0  0  0
  136.6100   81.9980  230.1080 H   0  0  0  0  0  0  0  0  0  0  0  0
  132.5330   80.7487  227.8963 H   0  0  0  0  0  0  0  0  0  0  0  0
  132.8692   80.2887  225.4841 H   0  0  0  0  0  0  0  0  0  0  0  0
  135.0224   80.6978  224.4248 H   0  0  0  0  0  0  0  0  0  0  0  0
  138.1332   81.9948  226.1557 H   0  0  0  0  0  0  0  0  0  0  0  0
  137.4593   82.3572  223.5676 H   0  0  0  0  0  0  0  0  0  0  0  0
  134.6683   77.8384  222.7616 H   0  0  0  0  0  0  0  0  0  0  0  0
  134.9418   75.5363  221.8451 H   0  0  0  0  0  0  0  0  0  0  0  0
  137.2112   74.5891  221.4890 H   0  0  0  0  0  0  0  0  0  0  0  0
  139.2027   75.9555  222.0505 H   0  0  0  0  0  0  0  0  0  0  0  0
  139.8239   81.2709  224.5878 H   0  0  0  0  0  0  0  0  0  0  0  0
  140.9177   79.8160  224.2317 H   0  0  0  0  0  0  0  0  0  0  0  0
  140.6078   82.3075  222.8659 H   0  0  0  0  0  0  0  0  0  0  0  0
  139.1441   80.9726  221.4773 H   0  0  0  0  0  0  0  0  0  0  0  0
  140.5567   81.9220  220.7886 H   0  0  0  0  0  0  0  0  0  0  0  0
  140.2516   78.9424  221.0782 H   0  0  0  0  0  0  0  0  0  0  0  0
  140.4805   79.9505  219.5857 H   0  0  0  0  0  0  0  0  0  0  0  0
  142.6890   80.4390  220.2740 H   0  0  0  0  0  0  0  0  0  0  0  0
  141.8863   78.8012  222.6129 H   0  0  0  0  0  0  0  0  0  0  0  0
  143.5714   79.2751  222.2392 H   0  0  0  0  0  0  0  0  0  0  0  0
  142.5981   80.8442  223.8581 H   0  0  0  0  0  0  0  0  0  0  0  0
  142.8714   81.6787  222.2968 H   0  0  0  0  0  0  0  0  0  0  0  0
  136.6177   82.0597  228.1466 H   0  0  0  0  0  0  0  0  0  0  0  0
  1  2  1  0
  2  3  2  0
  2  4  2  0
  2  5  1  0
  5  6  2  0
  6  7  1  0
  7  8  2  0
  8  9  1  0
  9 10  1  0
 10 11  2  0
 11 12  1  0
 12 13  2  0
 13 14  1  0
 14 15  2  0
 15 16  1  0
 16 17  2  0
 17 18  1  0
 18 19  2  0
 19 20  1  0
 20 21  2  0
 20 22  1  0
 22 23  1  0
 23 24  1  0
 24 25  1  0
 25 26  1  0
 26 27  1  0
 27 28  1  0
 28 29  1  0
  9 30  2  0
 30  5  1  0
 22 12  1  0
 29 24  1  0
 19 14  1  0
  1 31  1  0
  1 32  1  0
  6 33  1  0
  7 34  1  0
  8 35  1  0
 10 36  1  0
 11 37  1  0
 15 38  1  0
 16 39  1  0
 17 40  1  0
 18 41  1  0
 23 42  1  0
 23 43  1  0
 24 44  1  0
 25 45  1  0
 25 46  1  0
 26 47  1  0
 26 48  1  0
 27 49  1  0
 28 50  1  0
 28 51  1  0
 29 52  1  0
 29 53  1  0
 30 54  1  0
M  END
>  <smiles>  (9) 
NS(=O)(=O)c1cccc(/C=C/c2nc3ccccc3c(=O)n2CC2CCNCC2)c1

>  <score_type>  (9) 
oracle

>  <origin>  (9) 
autodockgpu

>  <m_score__min__energy>  (9) 
-9.5099999999999998

>  <m_primary>  (9) 
energy

>  <rmsd>  (9) 
4.009040995816924

>  <m_score__min__rmsd>  (9) 
4.009040995816924

>  <meeko>  (9) 
{"free_energy": -7.38, "intermolecular_energy": -9.47, "internal_energy": -1.49, "cluster_size": 1, "cluster_id": 11, "rank_in_cluster": 1}

>  <energy>  (9) 
-9.1

>  <cluster_rmsd>  (9) 
0.73

>  <cluster>  (9) 
1

$$$$

     RDKit          3D

 54 57  0  0  0  0  0  0  0  0999 V2000
  145.4320   71.0500  219.7370 N   0  0  0  0  0  0  0  0  0  0  0  0
  145.5300   72.7750  219.7890 S   0  0  0  0  0  0  0  0  0  0  0  0
  146.4900   73.1640  220.8950 O   0  0  0  0  0  0  0  0  0  0  0  0
  145.9610   73.3060  218.4730 O   0  0  0  0  0  0  0  0  0  0  0  0
  143.9370   73.3760  220.2570 C   0  0  0  0  0  0  0  0  0  0  0  0
  143.6430   74.7190  220.1330 C   0  0  0  0  0  0  0  0  0  0  0  0
  142.3940   75.1470  220.5070 C   0  0  0  0  0  0  0  0  0  0  0  0
  141.4680   74.2680  220.9900 C   0  0  0  0  0  0  0  0  0  0  0  0
  141.7240   72.8980  221.1320 C   0  0  0  0  0  0  0  0  0  0  0  0
  140.7110   71.9880  221.6510 C   0  0  0  0  0  0  0  0  0  0  0  0
  140.0080   72.2080  222.7450 C   0  0  0  0  0  0  0  0  0  0  0  0
  139.9670   71.1950  223.8020 C   0  0  0  0  0  0  0  0  0  0  0  0
  140.4900   71.5460  225.0150 N   0  0  0  0  0  0  0  0  0  0  0  0
  140.5130   70.7210  226.0570 C   0  0  0  0  0  0  0  0  0  0  0  0
  141.0540   71.1300  227.2580 C   0  0  0  0  0  0  0  0  0  0  0  0
  141.0600   70.2400  228.3220 C   0  0  0  0  0  0  0  0  0  0  0  0
  140.5360   68.9690  228.1840 C   0  0  0  0  0  0  0  0  0  0  0  0
  140.0020   68.5950  226.9620 C   0  0  0  0  0  0  0  0  0  0  0  0
  139.9800   69.4570  225.8820 C   0  0  0  0  0  0  0  0  0  0  0  0
  139.4590   69.1180  224.6600 C   0  0  0  0  0  0  0  0  0  0  0  0
  138.9860   67.9380  224.5640 O   0  0  0  0  0  0  0  0  0  0  0  0
  139.4400   69.9710  223.6000 N   0  0  0  0  0  0  0  0  0  0  0  0
  138.8760   69.6130  222.3370 C   0  0  0  0  0  0  0  0  0  0  0  0
  137.4500   69.9790  222.1050 C   0  0  0  0  0  0  0  0  0  0  0  0
  136.6550   70.4170  223.2660 C   0  0  0  0  0  0  0  0  0  0  0  0
  136.0460   69.2970  224.0670 C   0  0  0  0  0  0  0  0  0  0  0  0
  135.4280   68.2960  223.2190 N   0  0  0  0  0  0  0  0  0  0  0  0
  136.4290   67.7540  222.3530 C   0  0  0  0  0  0  0  0  0  0  0  0
  136.8260   68.8130  221.3570 C   0  0  0  0  0  0  0  0  0  0  0  0
  142.9860   72.4950  220.7490 C   0  0  0  0  0  0  0  0  0  0  0  0
  145.0630   70.6370  220.6220 H   0  0  0  0  0  0  0  0  0  0  0  0
  144.7670   70.8050  218.9780 H   0  0  0  0  0  0  0  0  0  0  0  0
  144.3899   75.4271  219.7448 H   0  0  0  0  0  0  0  0  0  0  0  0
  142.1356   76.2124  220.4164 H   0  0  0  0  0  0  0  0  0  0  0  0
  140.4787   74.6517  221.2801 H   0  0  0  0  0  0  0  0  0  0  0  0
  140.5205   71.0583  221.0948 H   0  0  0  0  0  0  0  0  0  0  0  0
  139.4535   73.1506  222.8634 H   0  0  0  0  0  0  0  0  0  0  0  0
  141.4722   72.1413  227.3698 H   0  0  0  0  0  0  0  0  0  0  0  0
  141.4871   70.5498  229.2872 H   0  0  0  0  0  0  0  0  0  0  0  0
  140.5428   68.2662  229.0302 H   0  0  0  0  0  0  0  0  0  0  0  0
  139.5839   67.5840  226.8480 H   0  0  0  0  0  0  0  0  0  0  0  0
  139.4756   70.1021  221.5552 H   0  0  0  0  0  0  0  0  0  0  0  0
  138.8958   68.5134  222.3165 H   0  0  0  0  0  0  0  0  0  0  0  0
  137.4414   70.9095  221.5185 H   0  0  0  0  0  0  0  0  0  0  0  0
  137.3107   70.9976  223.9315 H   0  0  0  0  0  0  0  0  0  0  0  0
  135.8165   71.0057  222.8655 H   0  0  0  0  0  0  0  0  0  0  0  0
  136.8354   68.8178  224.6646 H   0  0  0  0  0  0  0  0  0  0  0  0
  135.2643   69.7261  224.7111 H   0  0  0  0  0  0  0  0  0  0  0  0
  134.6060   68.6550  222.7080 H   0  0  0  0  0  0  0  0  0  0  0  0
  137.3067   67.4528  222.9437 H   0  0  0  0  0  0  0  0  0  0  0  0
  136.0343   66.8720  221.8273 H   0  0  0  0  0  0  0  0  0  0  0  0
  137.5551   68.3972  220.6460 H   0  0  0  0  0  0  0  0  0  0  0  0
  135.9399   69.1557  220.8026 H   0  0  0  0  0  0  0  0  0  0  0  0
  143.2491   71.4306  220.8374 H   0  0  0  0  0  0  0  0  0  0  0  0
  1  2  1  0
  2  3  2  0
  2  4  2  0
  2  5  1  0
  5  6  2  0
  6  7  1  0
  7  8  2  0
  8  9  1  0
  9 10  1  0
 10 11  2  0
 11 12  1  0
 12 13  2  0
 13 14  1  0
 14 15  2  0
 15 16  1  0
 16 17  2  0
 17 18  1  0
 18 19  2  0
 19 20  1  0
 20 21  2  0
 20 22  1  0
 22 23  1  0
 23 24  1  0
 24 25  1  0
 25 26  1  0
 26 27  1  0
 27 28  1  0
 28 29  1  0
  9 30  2  0
 30  5  1  0
 22 12  1  0
 29 24  1  0
 19 14  1  0
  1 31  1  0
  1 32  1  0
  6 33  1  0
  7 34  1  0
  8 35  1  0
 10 36  1  0
 11 37  1  0
 15 38  1  0
 16 39  1  0
 17 40  1  0
 18 41  1  0
 23 42  1  0
 23 43  1  0
 24 44  1  0
 25 45  1  0
 25 46  1  0
 26 47  1  0
 26 48  1  0
 27 49  1  0
 28 50  1  0
 28 51  1  0
 29 52  1  0
 29 53  1  0
 30 54  1  0
M  END
>  <smiles>  (10) 
NS(=O)(=O)c1cccc(/C=C/c2nc3ccccc3c(=O)n2CC2CCNCC2)c1

>  <score_type>  (10) 
oracle

>  <origin>  (10) 
autodockgpu

>  <m_score__min__energy>  (10) 
-9.5099999999999998

>  <m_primary>  (10) 
energy

>  <rmsd>  (10) 
12.156381657983584

>  <m_score__min__rmsd>  (10) 
12.156381657983584

>  <meeko>  (10) 
{"free_energy": -8.73, "intermolecular_energy": -10.82, "internal_energy": -1.34, "cluster_size": 18, "cluster_id": 1, "rank_in_cluster": 14}

>  <energy>  (10) 
-9.08

>  <cluster_rmsd>  (10) 
0.62

>  <cluster>  (10) 
1

$$$$

     RDKit          3D

 54 57  0  0  0  0  0  0  0  0999 V2000
  144.7970   74.5100  219.8440 N   0  0  0  0  0  0  0  0  0  0  0  0
  145.1390   72.8960  220.3570 S   0  0  0  0  0  0  0  0  0  0  0  0
  145.9650   72.2190  219.2820 O   0  0  0  0  0  0  0  0  0  0  0  0
  145.8410   72.9080  221.6630 O   0  0  0  0  0  0  0  0  0  0  0  0
  143.6000   72.0340  220.4400 C   0  0  0  0  0  0  0  0  0  0  0  0
  143.4310   70.8540  219.7460 C   0  0  0  0  0  0  0  0  0  0  0  0
  142.2200   70.2160  219.8370 C   0  0  0  0  0  0  0  0  0  0  0  0
  141.2090   70.7340  220.5920 C   0  0  0  0  0  0  0  0  0  0  0  0
  141.3360   71.9290  221.3130 C   0  0  0  0  0  0  0  0  0  0  0  0
  140.2360   72.4540  222.1110 C   0  0  0  0  0  0  0  0  0  0  0  0
  139.2580   71.7170  222.6000 C   0  0  0  0  0  0  0  0  0  0  0  0
  139.4940   70.8860  223.7840 C   0  0  0  0  0  0  0  0  0  0  0  0
  140.0340   71.5050  224.8760 N   0  0  0  0  0  0  0  0  0  0  0  0
  140.2950   70.8670  226.0120 C   0  0  0  0  0  0  0  0  0  0  0  0
  140.8400   71.5440  227.0830 C   0  0  0  0  0  0  0  0  0  0  0  0
  141.0980   70.8430  228.2520 C   0  0  0  0  0  0  0  0  0  0  0  0
  140.8160   69.4930  228.3430 C   0  0  0  0  0  0  0  0  0  0  0  0
  140.2690   68.8480  227.2470 C   0  0  0  0  0  0  0  0  0  0  0  0
  140.0000   69.5170  226.0680 C   0  0  0  0  0  0  0  0  0  0  0  0
  139.4580   68.9090  224.9650 C   0  0  0  0  0  0  0  0  0  0  0  0
  139.2110   67.6630  225.0810 O   0  0  0  0  0  0  0  0  0  0  0  0
  139.1950   69.5720  223.8070 N   0  0  0  0  0  0  0  0  0  0  0  0
  138.6120   68.9310  222.6700 C   0  0  0  0  0  0  0  0  0  0  0  0
  137.1960   68.4830  222.7990 C   0  0  0  0  0  0  0  0  0  0  0  0
  136.3870   68.3970  221.5700 C   0  0  0  0  0  0  0  0  0  0  0  0
  135.7460   69.6920  221.1490 C   0  0  0  0  0  0  0  0  0  0  0  0
  135.1280   70.3810  222.2670 N   0  0  0  0  0  0  0  0  0  0  0  0
  136.1360   70.6590  223.2420 C   0  0  0  0  0  0  0  0  0  0  0  0
  136.5670   69.3590  223.8700 C   0  0  0  0  0  0  0  0  0  0  0  0
  142.5630   72.5510  221.2050 C   0  0  0  0  0  0  0  0  0  0  0  0
  145.4790   75.2080  220.2140 H   0  0  0  0  0  0  0  0  0  0  0  0
  144.8700   74.5230  218.8080 H   0  0  0  0  0  0  0  0  0  0  0  0
  144.2453   70.4358  219.1360 H   0  0  0  0  0  0  0  0  0  0  0  0
  142.0620   69.2730  219.2932 H   0  0  0  0  0  0  0  0  0  0  0  0
  140.2535   70.1908  220.6368 H   0  0  0  0  0  0  0  0  0  0  0  0
  140.2203   73.5341  222.3188 H   0  0  0  0  0  0  0  0  0  0  0  0
  138.2679   71.7259  222.1207 H   0  0  0  0  0  0  0  0  0  0  0  0
  141.0655   72.6183  227.0116 H   0  0  0  0  0  0  0  0  0  0  0  0
  141.5319   71.3674  229.1161 H   0  0  0  0  0  0  0  0  0  0  0  0
  141.0228   68.9401  229.2712 H   0  0  0  0  0  0  0  0  0  0  0  0
  140.0423   67.7739  227.3164 H   0  0  0  0  0  0  0  0  0  0  0  0
  138.6613   69.6380  221.8287 H   0  0  0  0  0  0  0  0  0  0  0  0
  139.1931   68.0071  222.5332 H   0  0  0  0  0  0  0  0  0  0  0  0
  137.2128   67.4194  223.0793 H   0  0  0  0  0  0  0  0  0  0  0  0
  137.0397   68.0559  220.7529 H   0  0  0  0  0  0  0  0  0  0  0  0
  135.5651   67.6987  221.7865 H   0  0  0  0  0  0  0  0  0  0  0  0
  136.5165   70.3441  220.7119 H   0  0  0  0  0  0  0  0  0  0  0  0
  134.9593   69.4595  220.4161 H   0  0  0  0  0  0  0  0  0  0  0  0
  134.3210   69.8680  222.6570 H   0  0  0  0  0  0  0  0  0  0  0  0
  136.9981   71.1404  222.7572 H   0  0  0  0  0  0  0  0  0  0  0  0
  135.7378   71.3354  224.0126 H   0  0  0  0  0  0  0  0  0  0  0  0
  137.3020   69.5576  224.6639 H   0  0  0  0  0  0  0  0  0  0  0  0
  135.6964   68.8482  224.3072 H   0  0  0  0  0  0  0  0  0  0  0  0
  142.7261   73.4944  221.7467 H   0  0  0  0  0  0  0  0  0  0  0  0
  1  2  1  0
  2  3  2  0
  2  4  2  0
  2  5  1  0
  5  6  2  0
  6  7  1  0
  7  8  2  0
  8  9  1  0
  9 10  1  0
 10 11  2  0
 11 12  1  0
 12 13  2  0
 13 14  1  0
 14 15  2  0
 15 16  1  0
 16 17  2  0
 17 18  1  0
 18 19  2  0
 19 20  1  0
 20 21  2  0
 20 22  1  0
 22 23  1  0
 23 24  1  0
 24 25  1  0
 25 26  1  0
 26 27  1  0
 27 28  1  0
 28 29  1  0
  9 30  2  0
 30  5  1  0
 22 12  1  0
 29 24  1  0
 19 14  1  0
  1 31  1  0
  1 32  1  0
  6 33  1  0
  7 34  1  0
  8 35  1  0
 10 36  1  0
 11 37  1  0
 15 38  1  0
 16 39  1  0
 17 40  1  0
 18 41  1  0
 23 42  1  0
 23 43  1  0
 24 44  1  0
 25 45  1  0
 25 46  1  0
 26 47  1  0
 26 48  1  0
 27 49  1  0
 28 50  1  0
 28 51  1  0
 29 52  1  0
 29 53  1  0
 30 54  1  0
M  END
>  <smiles>  (11) 
NS(=O)(=O)c1cccc(/C=C/c2nc3ccccc3c(=O)n2CC2CCNCC2)c1

>  <score_type>  (11) 
oracle

>  <origin>  (11) 
autodockgpu

>  <m_score__min__energy>  (11) 
-9.5099999999999998

>  <m_primary>  (11) 
energy

>  <rmsd>  (11) 
11.926583228533437

>  <m_score__min__rmsd>  (11) 
11.926583228533437

>  <meeko>  (11) 
{"free_energy": -8.44, "intermolecular_energy": -10.52, "internal_energy": -1.56, "cluster_size": 18, "cluster_id": 1, "rank_in_cluster": 17}

>  <energy>  (11) 
-8.84

>  <cluster_rmsd>  (11) 
1.8

>  <cluster>  (11) 
1

$$$$

     RDKit          3D

 54 57  0  0  0  0  0  0  0  0999 V2000
  146.0790   73.3880  218.9520 N   0  0  0  0  0  0  0  0  0  0  0  0
  145.2490   72.7660  220.3340 S   0  0  0  0  0  0  0  0  0  0  0  0
  144.8730   71.3240  220.0550 O   0  0  0  0  0  0  0  0  0  0  0  0
  146.0980   72.8880  221.5440 O   0  0  0  0  0  0  0  0  0  0  0  0
  143.7400   73.6690  220.4900 C   0  0  0  0  0  0  0  0  0  0  0  0
  143.6560   74.9600  220.0080 C   0  0  0  0  0  0  0  0  0  0  0  0
  142.4660   75.6280  220.1490 C   0  0  0  0  0  0  0  0  0  0  0  0
  141.3940   75.0330  220.7490 C   0  0  0  0  0  0  0  0  0  0  0  0
  141.4350   73.7260  221.2510 C   0  0  0  0  0  0  0  0  0  0  0  0
  140.2720   73.1210  221.8860 C   0  0  0  0  0  0  0  0  0  0  0  0
  140.0260   71.8250  221.9000 C   0  0  0  0  0  0  0  0  0  0  0  0
  139.9690   71.1070  223.1750 C   0  0  0  0  0  0  0  0  0  0  0  0
  140.4930   71.7420  224.2660 N   0  0  0  0  0  0  0  0  0  0  0  0
  140.5030   71.2020  225.4800 C   0  0  0  0  0  0  0  0  0  0  0  0
  141.0450   71.8910  226.5450 C   0  0  0  0  0  0  0  0  0  0  0  0
  141.0370   71.2930  227.7970 C   0  0  0  0  0  0  0  0  0  0  0  0
  140.4970   70.0340  227.9760 C   0  0  0  0  0  0  0  0  0  0  0  0
  139.9620   69.3740  226.8820 C   0  0  0  0  0  0  0  0  0  0  0  0
  139.9550   69.9400  225.6210 C   0  0  0  0  0  0  0  0  0  0  0  0
  139.4330   69.3140  224.5190 C   0  0  0  0  0  0  0  0  0  0  0  0
  138.9450   68.1530  224.7170 O   0  0  0  0  0  0  0  0  0  0  0  0
  139.4270   69.8770  223.2800 N   0  0  0  0  0  0  0  0  0  0  0  0
  138.8630   69.2230  222.1420 C   0  0  0  0  0  0  0  0  0  0  0  0
  137.4610   69.5800  221.7840 C   0  0  0  0  0  0  0  0  0  0  0  0
  136.6270   70.2170  222.8200 C   0  0  0  0  0  0  0  0  0  0  0  0
  135.9480   69.2560  223.7580 C   0  0  0  0  0  0  0  0  0  0  0  0
  135.3390   68.1450  223.0510 N   0  0  0  0  0  0  0  0  0  0  0  0
  136.3610   67.4480  222.3340 C   0  0  0  0  0  0  0  0  0  0  0  0
  136.8360   68.3230  221.2030 C   0  0  0  0  0  0  0  0  0  0  0  0
  142.6430   73.0770  221.0980 C   0  0  0  0  0  0  0  0  0  0  0  0
  145.4470   73.8930  218.2920 H   0  0  0  0  0  0  0  0  0  0  0  0
  146.7790   74.0720  219.2980 H   0  0  0  0  0  0  0  0  0  0  0  0
  144.5195   75.4399  219.5242 H   0  0  0  0  0  0  0  0  0  0  0  0
  142.3745   76.6578  219.7732 H   0  0  0  0  0  0  0  0  0  0  0  0
  140.4584   75.6040  220.8422 H   0  0  0  0  0  0  0  0  0  0  0  0
  139.5532   73.7871  222.3856 H   0  0  0  0  0  0  0  0  0  0  0  0
  139.8640   71.2847  220.9556 H   0  0  0  0  0  0  0  0  0  0  0  0
  141.4747   72.8938  226.4046 H   0  0  0  0  0  0  0  0  0  0  0  0
  141.4658   71.8277  228.6574 H   0  0  0  0  0  0  0  0  0  0  0  0
  140.4920   69.5637  228.9704 H   0  0  0  0  0  0  0  0  0  0  0  0
  139.5307   68.3716  227.0206 H   0  0  0  0  0  0  0  0  0  0  0  0
  139.4975   69.4590  221.2750 H   0  0  0  0  0  0  0  0  0  0  0  0
  138.8269   68.1575  222.4129 H   0  0  0  0  0  0  0  0  0  0  0  0
  137.5080   70.4040  221.0568 H   0  0  0  0  0  0  0  0  0  0  0  0
  137.2693   70.8819  223.4162 H   0  0  0  0  0  0  0  0  0  0  0  0
  135.8258   70.7519  222.2890 H   0  0  0  0  0  0  0  0  0  0  0  0
  136.6940   68.8617  224.4638 H   0  0  0  0  0  0  0  0  0  0  0  0
  135.1510   69.8013  224.2848 H   0  0  0  0  0  0  0  0  0  0  0  0
  134.5530   68.4360  222.4490 H   0  0  0  0  0  0  0  0  0  0  0  0
  137.2010   67.2254  223.0084 H   0  0  0  0  0  0  0  0  0  0  0  0
  135.9634   66.5025  221.9365 H   0  0  0  0  0  0  0  0  0  0  0  0
  137.5837   67.7809  220.6054 H   0  0  0  0  0  0  0  0  0  0  0  0
  135.9869   68.5924  220.5576 H   0  0  0  0  0  0  0  0  0  0  0  0
  142.7400   72.0477  221.4737 H   0  0  0  0  0  0  0  0  0  0  0  0
  1  2  1  0
  2  3  2  0
  2  4  2  0
  2  5  1  0
  5  6  2  0
  6  7  1  0
  7  8  2  0
  8  9  1  0
  9 10  1  0
 10 11  2  0
 11 12  1  0
 12 13  2  0
 13 14  1  0
 14 15  2  0
 15 16  1  0
 16 17  2  0
 17 18  1  0
 18 19  2  0
 19 20  1  0
 20 21  2  0
 20 22  1  0
 22 23  1  0
 23 24  1  0
 24 25  1  0
 25 26  1  0
 26 27  1  0
 27 28  1  0
 28 29  1  0
  9 30  2  0
 30  5  1  0
 22 12  1  0
 29 24  1  0
 19 14  1  0
  1 31  1  0
  1 32  1  0
  6 33  1  0
  7 34  1  0
  8 35  1  0
 10 36  1  0
 11 37  1  0
 15 38  1  0
 16 39  1  0
 17 40  1  0
 18 41  1  0
 23 42  1  0
 23 43  1  0
 24 44  1  0
 25 45  1  0
 25 46  1  0
 26 47  1  0
 26 48  1  0
 27 49  1  0
 28 50  1  0
 28 51  1  0
 29 52  1  0
 29 53  1  0
 30 54  1  0
M  END
>  <smiles>  (12) 
NS(=O)(=O)c1cccc(/C=C/c2nc3ccccc3c(=O)n2CC2CCNCC2)c1

>  <score_type>  (12) 
oracle

>  <origin>  (12) 
autodockgpu

>  <m_score__min__energy>  (12) 
-9.5099999999999998

>  <m_primary>  (12) 
energy

>  <rmsd>  (12) 
12.065687764738323

>  <m_score__min__rmsd>  (12) 
12.065687764738323

>  <meeko>  (12) 
{"free_energy": -9.08, "intermolecular_energy": -11.17, "internal_energy": -1.47, "cluster_size": 18, "cluster_id": 1, "rank_in_cluster": 10}

>  <energy>  (12) 
-8.83

>  <cluster_rmsd>  (12) 
1.04

>  <cluster>  (12) 
1

$$$$

     RDKit          3D

 54 57  0  0  0  0  0  0  0  0999 V2000
  145.1590   71.3440  220.0790 N   0  0  0  0  0  0  0  0  0  0  0  0
  145.4000   73.0520  219.9660 S   0  0  0  0  0  0  0  0  0  0  0  0
  146.2850   73.4860  221.1170 O   0  0  0  0  0  0  0  0  0  0  0  0
  145.9930   73.4040  218.6530 O   0  0  0  0  0  0  0  0  0  0  0  0
  143.8280   73.8200  220.2090 C   0  0  0  0  0  0  0  0  0  0  0  0
  143.5580   75.0410  219.6260 C   0  0  0  0  0  0  0  0  0  0  0  0
  142.3260   75.6040  219.8400 C   0  0  0  0  0  0  0  0  0  0  0  0
  141.3910   74.9740  220.6090 C   0  0  0  0  0  0  0  0  0  0  0  0
  141.6220   73.7340  221.2200 C   0  0  0  0  0  0  0  0  0  0  0  0
  140.6010   73.0890  222.0350 C   0  0  0  0  0  0  0  0  0  0  0  0
  140.4120   71.7840  222.0900 C   0  0  0  0  0  0  0  0  0  0  0  0
  140.2490   71.1250  223.3880 C   0  0  0  0  0  0  0  0  0  0  0  0
  140.7340   71.7860  224.4820 N   0  0  0  0  0  0  0  0  0  0  0  0
  140.6490   71.2990  225.7160 C   0  0  0  0  0  0  0  0  0  0  0  0
  141.1560   72.0110  226.7820 C   0  0  0  0  0  0  0  0  0  0  0  0
  141.0480   71.4690  228.0550 C   0  0  0  0  0  0  0  0  0  0  0  0
  140.4440   70.2420  228.2520 C   0  0  0  0  0  0  0  0  0  0  0  0
  139.9470   69.5580  227.1560 C   0  0  0  0  0  0  0  0  0  0  0  0
  140.0390   70.0680  225.8750 C   0  0  0  0  0  0  0  0  0  0  0  0
  139.5560   69.4170  224.7690 C   0  0  0  0  0  0  0  0  0  0  0  0
  139.0070   68.2860  224.9840 O   0  0  0  0  0  0  0  0  0  0  0  0
  139.6490   69.9250  223.5100 N   0  0  0  0  0  0  0  0  0  0  0  0
  139.1240   69.2450  222.3680 C   0  0  0  0  0  0  0  0  0  0  0  0
  137.6410   69.1560  222.2570 C   0  0  0  0  0  0  0  0  0  0  0  0
  137.0510   69.1590  220.9060 C   0  0  0  0  0  0  0  0  0  0  0  0
  136.8270   70.5280  220.3220 C   0  0  0  0  0  0  0  0  0  0  0  0
  136.2220   71.4350  221.2800 N   0  0  0  0  0  0  0  0  0  0  0  0
  137.0910   71.5490  222.4090 C   0  0  0  0  0  0  0  0  0  0  0  0
  137.0790   70.2420  223.1590 C   0  0  0  0  0  0  0  0  0  0  0  0
  142.8690   73.1900  220.9890 C   0  0  0  0  0  0  0  0  0  0  0  0
  146.0550   70.8080  220.0940 H   0  0  0  0  0  0  0  0  0  0  0  0
  144.6720   71.1630  220.9770 H   0  0  0  0  0  0  0  0  0  0  0  0
  144.3110   75.5494  219.0060 H   0  0  0  0  0  0  0  0  0  0  0  0
  142.0881   76.5770  219.3854 H   0  0  0  0  0  0  0  0  0  0  0  0
  140.4150   75.4599  220.7554 H   0  0  0  0  0  0  0  0  0  0  0  0
  139.9461   73.7304  222.6431 H   0  0  0  0  0  0  0  0  0  0  0  0
  140.3770   71.1925  221.1632 H   0  0  0  0  0  0  0  0  0  0  0  0
  141.6362   72.9884  226.6268 H   0  0  0  0  0  0  0  0  0  0  0  0
  141.4479   72.0227  228.9173 H   0  0  0  0  0  0  0  0  0  0  0  0
  140.3595   69.8160  229.2626 H   0  0  0  0  0  0  0  0  0  0  0  0
  139.4653   68.5810  227.3091 H   0  0  0  0  0  0  0  0  0  0  0  0
  139.4932   69.7663  221.4725 H   0  0  0  0  0  0  0  0  0  0  0  0
  139.4658   68.2047  222.4726 H   0  0  0  0  0  0  0  0  0  0  0  0
  137.3479   68.1461  222.5799 H   0  0  0  0  0  0  0  0  0  0  0  0
  137.7260   68.6066  220.2358 H   0  0  0  0  0  0  0  0  0  0  0  0
  136.0585   68.6940  220.9988 H   0  0  0  0  0  0  0  0  0  0  0  0
  137.7955   70.9414  220.0041 H   0  0  0  0  0  0  0  0  0  0  0  0
  136.1393   70.4256  219.4696 H   0  0  0  0  0  0  0  0  0  0  0  0
  135.2600   71.1610  221.5390 H   0  0  0  0  0  0  0  0  0  0  0  0
  138.1131   71.7717  222.0689 H   0  0  0  0  0  0  0  0  0  0  0  0
  136.7489   72.3623  223.0659 H   0  0  0  0  0  0  0  0  0  0  0  0
  137.6987   70.3289  224.0636 H   0  0  0  0  0  0  0  0  0  0  0  0
  136.0497   69.9887  223.4531 H   0  0  0  0  0  0  0  0  0  0  0  0
  143.1126   72.2175  221.4416 H   0  0  0  0  0  0  0  0  0  0  0  0
  1  2  1  0
  2  3  2  0
  2  4  2  0
  2  5  1  0
  5  6  2  0
  6  7  1  0
  7  8  2  0
  8  9  1  0
  9 10  1  0
 10 11  2  0
 11 12  1  0
 12 13  2  0
 13 14  1  0
 14 15  2  0
 15 16  1  0
 16 17  2  0
 17 18  1  0
 18 19  2  0
 19 20  1  0
 20 21  2  0
 20 22  1  0
 22 23  1  0
 23 24  1  0
 24 25  1  0
 25 26  1  0
 26 27  1  0
 27 28  1  0
 28 29  1  0
  9 30  2  0
 30  5  1  0
 22 12  1  0
 29 24  1  0
 19 14  1  0
  1 31  1  0
  1 32  1  0
  6 33  1  0
  7 34  1  0
  8 35  1  0
 10 36  1  0
 11 37  1  0
 15 38  1  0
 16 39  1  0
 17 40  1  0
 18 41  1  0
 23 42  1  0
 23 43  1  0
 24 44  1  0
 25 45  1  0
 25 46  1  0
 26 47  1  0
 26 48  1  0
 27 49  1  0
 28 50  1  0
 28 51  1  0
 29 52  1  0
 29 53  1  0
 30 54  1  0
M  END
>  <smiles>  (13) 
NS(=O)(=O)c1cccc(/C=C/c2nc3ccccc3c(=O)n2CC2CCNCC2)c1

>  <score_type>  (13) 
oracle

>  <origin>  (13) 
autodockgpu

>  <m_score__min__energy>  (13) 
-9.5099999999999998

>  <m_primary>  (13) 
energy

>  <rmsd>  (13) 
11.25551737998463

>  <m_score__min__rmsd>  (13) 
11.25551737998463

>  <meeko>  (13) 
{"free_energy": -8.51, "intermolecular_energy": -10.6, "internal_energy": -1.33, "cluster_size": 18, "cluster_id": 1, "rank_in_cluster": 16}

>  <energy>  (13) 
-8.76

>  <cluster_rmsd>  (13) 
0.78

>  <cluster>  (13) 
1

$$$$

     RDKit          3D

 54 57  0  0  0  0  0  0  0  0999 V2000
  136.1620   74.3800  223.2660 N   0  0  0  0  0  0  0  0  0  0  0  0
  136.7450   75.6930  222.3050 S   0  0  0  0  0  0  0  0  0  0  0  0
  136.0540   75.6410  220.9570 O   0  0  0  0  0  0  0  0  0  0  0  0
  136.5070   76.9840  222.9960 O   0  0  0  0  0  0  0  0  0  0  0  0
  138.4630   75.4060  222.0130 C   0  0  0  0  0  0  0  0  0  0  0  0
  139.3030   76.4660  221.7400 C   0  0  0  0  0  0  0  0  0  0  0  0
  140.6310   76.2010  221.5180 C   0  0  0  0  0  0  0  0  0  0  0  0
  141.1080   74.9230  221.5670 C   0  0  0  0  0  0  0  0  0  0  0  0
  140.2920   73.8180  221.8410 C   0  0  0  0  0  0  0  0  0  0  0  0
  140.8350   72.4670  221.8860 C   0  0  0  0  0  0  0  0  0  0  0  0
  140.1100   71.3840  222.0930 C   0  0  0  0  0  0  0  0  0  0  0  0
  140.0080   70.8220  223.4420 C   0  0  0  0  0  0  0  0  0  0  0  0
  140.5830   71.5370  224.4550 N   0  0  0  0  0  0  0  0  0  0  0  0
  140.5600   71.1390  225.7230 C   0  0  0  0  0  0  0  0  0  0  0  0
  141.1570   71.9040  226.7040 C   0  0  0  0  0  0  0  0  0  0  0  0
  141.1120   71.4550  228.0160 C   0  0  0  0  0  0  0  0  0  0  0  0
  140.4830   70.2670  228.3350 C   0  0  0  0  0  0  0  0  0  0  0  0
  139.8950   69.5270  227.3220 C   0  0  0  0  0  0  0  0  0  0  0  0
  139.9220   69.9450  226.0050 C   0  0  0  0  0  0  0  0  0  0  0  0
  139.3500   69.2380  224.9800 C   0  0  0  0  0  0  0  0  0  0  0  0
  138.7800   68.1460  225.3070 O   0  0  0  0  0  0  0  0  0  0  0  0
  139.3790   69.6550  223.6850 N   0  0  0  0  0  0  0  0  0  0  0  0
  138.7620   68.9180  222.6270 C   0  0  0  0  0  0  0  0  0  0  0  0
  137.3130   69.1680  222.3860 C   0  0  0  0  0  0  0  0  0  0  0  0
  136.9380   69.9410  221.1880 C   0  0  0  0  0  0  0  0  0  0  0  0
  136.9770   71.4350  221.3680 C   0  0  0  0  0  0  0  0  0  0  0  0
  136.3510   71.8490  222.6100 N   0  0  0  0  0  0  0  0  0  0  0  0
  137.0480   71.2330  223.6970 C   0  0  0  0  0  0  0  0  0  0  0  0
  136.7610   69.7540  223.6740 C   0  0  0  0  0  0  0  0  0  0  0  0
  138.9620   74.1120  222.0590 C   0  0  0  0  0  0  0  0  0  0  0  0
  135.4420   73.8060  222.7750 H   0  0  0  0  0  0  0  0  0  0  0  0
  136.9720   73.7620  223.4620 H   0  0  0  0  0  0  0  0  0  0  0  0
  138.9185   77.4959  221.7014 H   0  0  0  0  0  0  0  0  0  0  0  0
  141.3203   77.0295  221.2976 H   0  0  0  0  0  0  0  0  0  0  0  0
  142.1793   74.7536  221.3834 H   0  0  0  0  0  0  0  0  0  0  0  0
  141.9178   72.3417  221.7381 H   0  0  0  0  0  0  0  0  0  0  0  0
  139.5835   70.9044  221.2547 H   0  0  0  0  0  0  0  0  0  0  0  0
  141.6581   72.8500  226.4511 H   0  0  0  0  0  0  0  0  0  0  0  0
  141.5825   72.0517  228.8113 H   0  0  0  0  0  0  0  0  0  0  0  0
  140.4496   69.9144  229.3764 H   0  0  0  0  0  0  0  0  0  0  0  0
  139.3930   68.5809  227.5728 H   0  0  0  0  0  0  0  0  0  0  0  0
  139.2995   69.1579  221.6977 H   0  0  0  0  0  0  0  0  0  0  0  0
  138.8230   67.8647  222.9383 H   0  0  0  0  0  0  0  0  0  0  0  0
  136.8519   68.2028  222.1297 H   0  0  0  0  0  0  0  0  0  0  0  0
  137.6320   69.6750  220.3771 H   0  0  0  0  0  0  0  0  0  0  0  0
  135.8927   69.6814  220.9643 H   0  0  0  0  0  0  0  0  0  0  0  0
  138.0263   71.7651  221.3718 H   0  0  0  0  0  0  0  0  0  0  0  0
  136.4194   71.8922  220.5373 H   0  0  0  0  0  0  0  0  0  0  0  0
  135.3350   71.6650  222.6280 H   0  0  0  0  0  0  0  0  0  0  0  0
  138.1293   71.4026  223.5878 H   0  0  0  0  0  0  0  0  0  0  0  0
  136.7146   71.6662  224.6516 H   0  0  0  0  0  0  0  0  0  0  0  0
  137.2430   69.2705  224.5365 H   0  0  0  0  0  0  0  0  0  0  0  0
  135.6757   69.5831  223.7272 H   0  0  0  0  0  0  0  0  0  0  0  0
  138.2685   73.2868  222.2783 H   0  0  0  0  0  0  0  0  0  0  0  0
  1  2  1  0
  2  3  2  0
  2  4  2  0
  2  5  1  0
  5  6  2  0
  6  7  1  0
  7  8  2  0
  8  9  1  0
  9 10  1  0
 10 11  2  0
 11 12  1  0
 12 13  2  0
 13 14  1  0
 14 15  2  0
 15 16  1  0
 16 17  2  0
 17 18  1  0
 18 19  2  0
 19 20  1  0
 20 21  2  0
 20 22  1  0
 22 23  1  0
 23 24  1  0
 24 25  1  0
 25 26  1  0
 26 27  1  0
 27 28  1  0
 28 29  1  0
  9 30  2  0
 30  5  1  0
 22 12  1  0
 29 24  1  0
 19 14  1  0
  1 31  1  0
  1 32  1  0
  6 33  1  0
  7 34  1  0
  8 35  1  0
 10 36  1  0
 11 37  1  0
 15 38  1  0
 16 39  1  0
 17 40  1  0
 18 41  1  0
 23 42  1  0
 23 43  1  0
 24 44  1  0
 25 45  1  0
 25 46  1  0
 26 47  1  0
 26 48  1  0
 27 49  1  0
 28 50  1  0
 28 51  1  0
 29 52  1  0
 29 53  1  0
 30 54  1  0
M  END
>  <smiles>  (14) 
NS(=O)(=O)c1cccc(/C=C/c2nc3ccccc3c(=O)n2CC2CCNCC2)c1

>  <score_type>  (14) 
oracle

>  <origin>  (14) 
autodockgpu

>  <m_score__min__energy>  (14) 
-9.5099999999999998

>  <m_primary>  (14) 
energy

>  <rmsd>  (14) 
11.410347160359397

>  <m_score__min__rmsd>  (14) 
11.410347160359397

>  <meeko>  (14) 
{"free_energy": -7.25, "intermolecular_energy": -9.34, "internal_energy": -2.93, "cluster_size": 6, "cluster_id": 6, "rank_in_cluster": 6}

>  <energy>  (14) 
-8.73

>  <cluster_rmsd>  (14) 
1.16

>  <cluster>  (14) 
1

$$$$

     RDKit          3D

 54 57  0  0  0  0  0  0  0  0999 V2000
  145.9460   73.4150  218.3160 N   0  0  0  0  0  0  0  0  0  0  0  0
  145.8650   72.6600  219.8690 S   0  0  0  0  0  0  0  0  0  0  0  0
  146.3750   71.2390  219.7350 O   0  0  0  0  0  0  0  0  0  0  0  0
  146.6500   73.4340  220.8600 O   0  0  0  0  0  0  0  0  0  0  0  0
  144.1590   72.5530  220.3110 C   0  0  0  0  0  0  0  0  0  0  0  0
  143.5240   71.3280  220.3210 C   0  0  0  0  0  0  0  0  0  0  0  0
  142.1980   71.2880  220.6700 C   0  0  0  0  0  0  0  0  0  0  0  0
  141.5240   72.4290  220.9990 C   0  0  0  0  0  0  0  0  0  0  0  0
  142.1290   73.6920  221.0020 C   0  0  0  0  0  0  0  0  0  0  0  0
  141.3810   74.8900  221.3590 C   0  0  0  0  0  0  0  0  0  0  0  0
  140.9380   75.7740  220.4860 C   0  0  0  0  0  0  0  0  0  0  0  0
  141.2160   77.1990  220.6850 C   0  0  0  0  0  0  0  0  0  0  0  0
  141.0680   77.6860  221.9530 N   0  0  0  0  0  0  0  0  0  0  0  0
  141.2900   78.9580  222.2680 C   0  0  0  0  0  0  0  0  0  0  0  0
  141.1250   79.3940  223.5670 C   0  0  0  0  0  0  0  0  0  0  0  0
  141.3670   80.7290  223.8550 C   0  0  0  0  0  0  0  0  0  0  0  0
  141.7650   81.6060  222.8650 C   0  0  0  0  0  0  0  0  0  0  0  0
  141.9200   81.1300  221.5730 C   0  0  0  0  0  0  0  0  0  0  0  0
  141.6870   79.8070  221.2510 C   0  0  0  0  0  0  0  0  0  0  0  0
  141.8320   79.3050  219.9840 C   0  0  0  0  0  0  0  0  0  0  0  0
  142.1980   80.1390  219.0920 O   0  0  0  0  0  0  0  0  0  0  0  0
  141.6020   78.0000  219.6730 N   0  0  0  0  0  0  0  0  0  0  0  0
  141.7750   77.4840  218.3520 C   0  0  0  0  0  0  0  0  0  0  0  0
  143.1740   77.2410  217.8990 C   0  0  0  0  0  0  0  0  0  0  0  0
  143.4190   77.1260  216.4500 C   0  0  0  0  0  0  0  0  0  0  0  0
  143.1920   75.7500  215.8830 C   0  0  0  0  0  0  0  0  0  0  0  0
  143.7860   74.7160  216.7090 N   0  0  0  0  0  0  0  0  0  0  0  0
  143.2000   74.7830  218.0120 C   0  0  0  0  0  0  0  0  0  0  0  0
  143.6760   76.0430  218.6880 C   0  0  0  0  0  0  0  0  0  0  0  0
  143.4630   73.7050  220.6470 C   0  0  0  0  0  0  0  0  0  0  0  0
  145.2080   74.1400  218.1780 H   0  0  0  0  0  0  0  0  0  0  0  0
  146.8670   73.8910  218.2560 H   0  0  0  0  0  0  0  0  0  0  0  0
  144.0664   70.4084  220.0563 H   0  0  0  0  0  0  0  0  0  0  0  0
  141.6702   70.3230  220.6850 H   0  0  0  0  0  0  0  0  0  0  0  0
  140.4614   72.3530  221.2731 H   0  0  0  0  0  0  0  0  0  0  0  0
  141.1724   75.0687  222.4241 H   0  0  0  0  0  0  0  0  0  0  0  0
  140.3610   75.4422  219.6102 H   0  0  0  0  0  0  0  0  0  0  0  0
  140.8083   78.6974  224.3572 H   0  0  0  0  0  0  0  0  0  0  0  0
  141.2404   81.0939  224.8849 H   0  0  0  0  0  0  0  0  0  0  0  0
  141.9556   82.6640  223.0982 H   0  0  0  0  0  0  0  0  0  0  0  0
  142.2374   81.8250  220.7816 H   0  0  0  0  0  0  0  0  0  0  0  0
  141.2370   76.5261  218.2967 H   0  0  0  0  0  0  0  0  0  0  0  0
  141.3910   78.2702  217.6853 H   0  0  0  0  0  0  0  0  0  0  0  0
  143.7489   78.1555  218.1069 H   0  0  0  0  0  0  0  0  0  0  0  0
  142.7468   77.8257  215.9318 H   0  0  0  0  0  0  0  0  0  0  0  0
  144.4836   77.3553  216.2948 H   0  0  0  0  0  0  0  0  0  0  0  0
  142.1092   75.5694  215.8123 H   0  0  0  0  0  0  0  0  0  0  0  0
  143.6684   75.7084  214.8924 H   0  0  0  0  0  0  0  0  0  0  0  0
  144.8180   74.7630  216.7290 H   0  0  0  0  0  0  0  0  0  0  0  0
  142.1036   74.8004  217.9250 H   0  0  0  0  0  0  0  0  0  0  0  0
  143.4961   73.9040  218.6033 H   0  0  0  0  0  0  0  0  0  0  0  0
  143.2812   76.0841  219.7139 H   0  0  0  0  0  0  0  0  0  0  0  0
  144.7753   76.0545  218.7264 H   0  0  0  0  0  0  0  0  0  0  0  0
  143.9954   74.6674  220.6299 H   0  0  0  0  0  0  0  0  0  0  0  0
  1  2  1  0
  2  3  2  0
  2  4  2  0
  2  5  1  0
  5  6  2  0
  6  7  1  0
  7  8  2  0
  8  9  1  0
  9 10  1  0
 10 11  2  0
 11 12  1  0
 12 13  2  0
 13 14  1  0
 14 15  2  0
 15 16  1  0
 16 17  2  0
 17 18  1  0
 18 19  2  0
 19 20  1  0
 20 21  2  0
 20 22  1  0
 22 23  1  0
 23 24  1  0
 24 25  1  0
 25 26  1  0
 26 27  1  0
 27 28  1  0
 28 29  1  0
  9 30  2  0
 30  5  1  0
 22 12  1  0
 29 24  1  0
 19 14  1  0
  1 31  1  0
  1 32  1  0
  6 33  1  0
  7 34  1  0
  8 35  1  0
 10 36  1  0
 11 37  1  0
 15 38  1  0
 16 39  1  0
 17 40  1  0
 18 41  1  0
 23 42  1  0
 23 43  1  0
 24 44  1  0
 25 45  1  0
 25 46  1  0
 26 47  1  0
 26 48  1  0
 27 49  1  0
 28 50  1  0
 28 51  1  0
 29 52  1  0
 29 53  1  0
 30 54  1  0
M  END
>  <smiles>  (15) 
NS(=O)(=O)c1cccc(/C=C/c2nc3ccccc3c(=O)n2CC2CCNCC2)c1

>  <score_type>  (15) 
oracle

>  <origin>  (15) 
autodockgpu

>  <m_score__min__energy>  (15) 
-9.5099999999999998

>  <m_primary>  (15) 
energy

>  <rmsd>  (15) 
6.963457986903718

>  <m_score__min__rmsd>  (15) 
6.963457986903718

>  <meeko>  (15) 
{"free_energy": -7.92, "intermolecular_energy": -10.01, "internal_energy": -2.39, "cluster_size": 4, "cluster_id": 7, "rank_in_cluster": 1}

>  <energy>  (15) 
-8.68

>  <cluster_rmsd>  (15) 
2.0

>  <cluster>  (15) 
1

$$$$

     RDKit          3D

 54 57  0  0  0  0  0  0  0  0999 V2000
  132.7460   73.2850  227.5790 N   0  0  0  0  0  0  0  0  0  0  0  0
  133.5590   73.7320  226.1210 S   0  0  0  0  0  0  0  0  0  0  0  0
  132.5130   74.0640  225.0750 O   0  0  0  0  0  0  0  0  0  0  0  0
  134.4720   74.8740  226.3680 O   0  0  0  0  0  0  0  0  0  0  0  0
  134.4240   72.3040  225.5450 C   0  0  0  0  0  0  0  0  0  0  0  0
  134.2410   71.0870  226.1690 C   0  0  0  0  0  0  0  0  0  0  0  0
  134.9330   70.0030  225.6920 C   0  0  0  0  0  0  0  0  0  0  0  0
  135.7790   70.1240  224.6280 C   0  0  0  0  0  0  0  0  0  0  0  0
  135.9940   71.3390  223.9640 C   0  0  0  0  0  0  0  0  0  0  0  0
  136.9050   71.4320  222.8310 C   0  0  0  0  0  0  0  0  0  0  0  0
  138.2000   71.1940  222.9000 C   0  0  0  0  0  0  0  0  0  0  0  0
  138.7540   70.5040  224.0670 C   0  0  0  0  0  0  0  0  0  0  0  0
  139.3860   71.2770  225.0010 N   0  0  0  0  0  0  0  0  0  0  0  0
  139.9290   70.7750  226.1050 C   0  0  0  0  0  0  0  0  0  0  0  0
  140.5540   71.6050  227.0130 C   0  0  0  0  0  0  0  0  0  0  0  0
  141.1090   71.0430  228.1540 C   0  0  0  0  0  0  0  0  0  0  0  0
  141.0390   69.6820  228.3770 C   0  0  0  0  0  0  0  0  0  0  0  0
  140.4040   68.8820  227.4420 C   0  0  0  0  0  0  0  0  0  0  0  0
  139.8400   69.4080  226.2950 C   0  0  0  0  0  0  0  0  0  0  0  0
  139.2040   68.6450  225.3510 C   0  0  0  0  0  0  0  0  0  0  0  0
  139.1590   67.3930  225.5860 O   0  0  0  0  0  0  0  0  0  0  0  0
  138.6510   69.1690  224.2240 N   0  0  0  0  0  0  0  0  0  0  0  0
  137.9730   68.3650  223.2560 C   0  0  0  0  0  0  0  0  0  0  0  0
  138.8210   67.6090  222.2930 C   0  0  0  0  0  0  0  0  0  0  0  0
  139.5130   68.3720  221.2380 C   0  0  0  0  0  0  0  0  0  0  0  0
  138.6830   68.6420  220.0120 C   0  0  0  0  0  0  0  0  0  0  0  0
  137.9650   67.4600  219.5710 N   0  0  0  0  0  0  0  0  0  0  0  0
  137.1040   67.0310  220.6280 C   0  0  0  0  0  0  0  0  0  0  0  0
  137.9530   66.4870  221.7490 C   0  0  0  0  0  0  0  0  0  0  0  0
  135.2880   72.4130  224.4640 C   0  0  0  0  0  0  0  0  0  0  0  0
  133.0960   72.3870  227.9810 H   0  0  0  0  0  0  0  0  0  0  0  0
  132.9340   74.0320  228.2740 H   0  0  0  0  0  0  0  0  0  0  0  0
  133.5585   70.9888  227.0260 H   0  0  0  0  0  0  0  0  0  0  0  0
  134.8043   69.0225  226.1738 H   0  0  0  0  0  0  0  0  0  0  0  0
  136.3148   69.2298  224.2768 H   0  0  0  0  0  0  0  0  0  0  0  0
  136.4856   71.7192  221.8555 H   0  0  0  0  0  0  0  0  0  0  0  0
  138.8632   71.5131  222.0825 H   0  0  0  0  0  0  0  0  0  0  0  0
  140.6111   72.6892  226.8362 H   0  0  0  0  0  0  0  0  0  0  0  0
  141.6105   71.6892  228.8894 H   0  0  0  0  0  0  0  0  0  0  0  0
  141.4805   69.2406  229.2827 H   0  0  0  0  0  0  0  0  0  0  0  0
  140.3468   67.7975  227.6170 H   0  0  0  0  0  0  0  0  0  0  0  0
  137.3592   67.6341  223.8027 H   0  0  0  0  0  0  0  0  0  0  0  0
  137.4054   69.0774  222.6393 H   0  0  0  0  0  0  0  0  0  0  0  0
  139.6943   67.2362  222.8484 H   0  0  0  0  0  0  0  0  0  0  0  0
  139.8236   69.3385  221.6615 H   0  0  0  0  0  0  0  0  0  0  0  0
  140.3602   67.7518  220.9100 H   0  0  0  0  0  0  0  0  0  0  0  0
  137.9555   69.4341  220.2429 H   0  0  0  0  0  0  0  0  0  0  0  0
  139.3618   68.9492  219.2027 H   0  0  0  0  0  0  0  0  0  0  0  0
  138.5930   66.7120  219.2350 H   0  0  0  0  0  0  0  0  0  0  0  0
  136.5112   67.8831  220.9920 H   0  0  0  0  0  0  0  0  0  0  0  0
  136.4197   66.2512  220.2623 H   0  0  0  0  0  0  0  0  0  0  0  0
  137.3052   66.0993  222.5490 H   0  0  0  0  0  0  0  0  0  0  0  0
  138.5880   65.6703  221.3751 H   0  0  0  0  0  0  0  0  0  0  0  0
  135.4147   73.3960  223.9868 H   0  0  0  0  0  0  0  0  0  0  0  0
  1  2  1  0
  2  3  2  0
  2  4  2  0
  2  5  1  0
  5  6  2  0
  6  7  1  0
  7  8  2  0
  8  9  1  0
  9 10  1  0
 10 11  2  0
 11 12  1  0
 12 13  2  0
 13 14  1  0
 14 15  2  0
 15 16  1  0
 16 17  2  0
 17 18  1  0
 18 19  2  0
 19 20  1  0
 20 21  2  0
 20 22  1  0
 22 23  1  0
 23 24  1  0
 24 25  1  0
 25 26  1  0
 26 27  1  0
 27 28  1  0
 28 29  1  0
  9 30  2  0
 30  5  1  0
 22 12  1  0
 29 24  1  0
 19 14  1  0
  1 31  1  0
  1 32  1  0
  6 33  1  0
  7 34  1  0
  8 35  1  0
 10 36  1  0
 11 37  1  0
 15 38  1  0
 16 39  1  0
 17 40  1  0
 18 41  1  0
 23 42  1  0
 23 43  1  0
 24 44  1  0
 25 45  1  0
 25 46  1  0
 26 47  1  0
 26 48  1  0
 27 49  1  0
 28 50  1  0
 28 51  1  0
 29 52  1  0
 29 53  1  0
 30 54  1  0
M  END
>  <smiles>  (16) 
NS(=O)(=O)c1cccc(/C=C/c2nc3ccccc3c(=O)n2CC2CCNCC2)c1

>  <score_type>  (16) 
oracle

>  <origin>  (16) 
autodockgpu

>  <m_score__min__energy>  (16) 
-9.5099999999999998

>  <m_primary>  (16) 
energy

>  <rmsd>  (16) 
12.814942111956597

>  <m_score__min__rmsd>  (16) 
12.814942111956597

>  <meeko>  (16) 
{"free_energy": -8.36, "intermolecular_energy": -10.45, "internal_energy": -1.68, "cluster_size": 3, "cluster_id": 5, "rank_in_cluster": 1}

>  <energy>  (16) 
-8.51

>  <cluster_rmsd>  (16) 
1.59

>  <cluster>  (16) 
1

$$$$

     RDKit          3D

 54 57  0  0  0  0  0  0  0  0999 V2000
  133.0900   73.1810  227.6230 N   0  0  0  0  0  0  0  0  0  0  0  0
  133.6060   73.5770  226.0220 S   0  0  0  0  0  0  0  0  0  0  0  0
  132.3770   73.8440  225.1770 O   0  0  0  0  0  0  0  0  0  0  0  0
  134.5200   74.7440  226.0480 O   0  0  0  0  0  0  0  0  0  0  0  0
  134.3860   72.1400  225.3530 C   0  0  0  0  0  0  0  0  0  0  0  0
  134.0090   70.8850  225.7870 C   0  0  0  0  0  0  0  0  0  0  0  0
  134.6400   69.7950  225.2430 C   0  0  0  0  0  0  0  0  0  0  0  0
  135.6140   69.9470  224.2980 C   0  0  0  0  0  0  0  0  0  0  0  0
  136.0260   71.2010  223.8290 C   0  0  0  0  0  0  0  0  0  0  0  0
  137.0690   71.3260  222.8190 C   0  0  0  0  0  0  0  0  0  0  0  0
  138.3610   71.3340  223.0850 C   0  0  0  0  0  0  0  0  0  0  0  0
  138.8880   70.5020  224.1690 C   0  0  0  0  0  0  0  0  0  0  0  0
  139.4770   71.1520  225.2180 N   0  0  0  0  0  0  0  0  0  0  0  0
  139.9930   70.5150  226.2640 C   0  0  0  0  0  0  0  0  0  0  0  0
  140.5750   71.2240  227.2940 C   0  0  0  0  0  0  0  0  0  0  0  0
  141.1020   70.5230  228.3690 C   0  0  0  0  0  0  0  0  0  0  0  0
  141.0470   69.1430  228.4080 C   0  0  0  0  0  0  0  0  0  0  0  0
  140.4540   68.4670  227.3550 C   0  0  0  0  0  0  0  0  0  0  0  0
  139.9190   69.1340  226.2690 C   0  0  0  0  0  0  0  0  0  0  0  0
  139.3260   68.4950  225.2120 C   0  0  0  0  0  0  0  0  0  0  0  0
  139.2930   67.2220  225.2780 O   0  0  0  0  0  0  0  0  0  0  0  0
  138.8000   69.1570  224.1450 N   0  0  0  0  0  0  0  0  0  0  0  0
  138.1670   68.4810  223.0580 C   0  0  0  0  0  0  0  0  0  0  0  0
  139.0190   68.1430  221.8840 C   0  0  0  0  0  0  0  0  0  0  0  0
  138.5520   68.5630  220.5500 C   0  0  0  0  0  0  0  0  0  0  0  0
  137.5890   67.6100  219.8930 C   0  0  0  0  0  0  0  0  0  0  0  0
  138.0290   66.2320  220.0050 N   0  0  0  0  0  0  0  0  0  0  0  0
  138.1360   65.8990  221.3910 C   0  0  0  0  0  0  0  0  0  0  0  0
  139.3030   66.6530  221.9760 C   0  0  0  0  0  0  0  0  0  0  0  0
  135.3770   72.2800  224.3930 C   0  0  0  0  0  0  0  0  0  0  0  0
  132.2680   72.5380  227.6380 H   0  0  0  0  0  0  0  0  0  0  0  0
  133.8790   72.6900  228.0850 H   0  0  0  0  0  0  0  0  0  0  0  0
  133.2243   70.7623  226.5480 H   0  0  0  0  0  0  0  0  0  0  0  0
  134.3574   68.7843  225.5727 H   0  0  0  0  0  0  0  0  0  0  0  0
  136.0953   69.0469  223.8879 H   0  0  0  0  0  0  0  0  0  0  0  0
  136.7592   71.4197  221.7677 H   0  0  0  0  0  0  0  0  0  0  0  0
  139.0414   71.9645  222.4937 H   0  0  0  0  0  0  0  0  0  0  0  0
  140.6204   72.3226  227.2638 H   0  0  0  0  0  0  0  0  0  0  0  0
  141.5690   71.0722  229.1998 H   0  0  0  0  0  0  0  0  0  0  0  0
  141.4673   68.5905  229.2613 H   0  0  0  0  0  0  0  0  0  0  0  0
  140.4074   67.3684  227.3836 H   0  0  0  0  0  0  0  0  0  0  0  0
  137.7520   67.5402  223.4487 H   0  0  0  0  0  0  0  0  0  0  0  0
  137.4212   69.1927  222.6743 H   0  0  0  0  0  0  0  0  0  0  0  0
  139.9318   68.7526  221.9568 H   0  0  0  0  0  0  0  0  0  0  0  0
  138.0532   69.5380  220.6526 H   0  0  0  0  0  0  0  0  0  0  0  0
  139.4427   68.5990  219.9055 H   0  0  0  0  0  0  0  0  0  0  0  0
  136.6055   67.7095  220.3756 H   0  0  0  0  0  0  0  0  0  0  0  0
  137.5343   67.8642  218.8242 H   0  0  0  0  0  0  0  0  0  0  0  0
  138.8970   66.0440  219.4780 H   0  0  0  0  0  0  0  0  0  0  0  0
  137.2109   66.1839  221.9134 H   0  0  0  0  0  0  0  0  0  0  0  0
  138.2907   64.8162  221.5074 H   0  0  0  0  0  0  0  0  0  0  0  0
  139.4375   66.3666  223.0295 H   0  0  0  0  0  0  0  0  0  0  0  0
  140.2205   66.4123  221.4190 H   0  0  0  0  0  0  0  0  0  0  0  0
  135.6571   73.2928  224.0679 H   0  0  0  0  0  0  0  0  0  0  0  0
  1  2  1  0
  2  3  2  0
  2  4  2  0
  2  5  1  0
  5  6  2  0
  6  7  1  0
  7  8  2  0
  8  9  1  0
  9 10  1  0
 10 11  2  0
 11 12  1  0
 12 13  2  0
 13 14  1  0
 14 15  2  0
 15 16  1  0
 16 17  2  0
 17 18  1  0
 18 19  2  0
 19 20  1  0
 20 21  2  0
 20 22  1  0
 22 23  1  0
 23 24  1  0
 24 25  1  0
 25 26  1  0
 26 27  1  0
 27 28  1  0
 28 29  1  0
  9 30  2  0
 30  5  1  0
 22 12  1  0
 29 24  1  0
 19 14  1  0
  1 31  1  0
  1 32  1  0
  6 33  1  0
  7 34  1  0
  8 35  1  0
 10 36  1  0
 11 37  1  0
 15 38  1  0
 16 39  1  0
 17 40  1  0
 18 41  1  0
 23 42  1  0
 23 43  1  0
 24 44  1  0
 25 45  1  0
 25 46  1  0
 26 47  1  0
 26 48  1  0
 27 49  1  0
 28 50  1  0
 28 51  1  0
 29 52  1  0
 29 53  1  0
 30 54  1  0
M  END
>  <smiles>  (17) 
NS(=O)(=O)c1cccc(/C=C/c2nc3ccccc3c(=O)n2CC2CCNCC2)c1

>  <score_type>  (17) 
oracle

>  <origin>  (17) 
autodockgpu

>  <m_score__min__energy>  (17) 
-9.5099999999999998

>  <m_primary>  (17) 
energy

>  <rmsd>  (17) 
13.12576640130762

>  <m_score__min__rmsd>  (17) 
13.12576640130762

>  <meeko>  (17) 
{"free_energy": -7.64, "intermolecular_energy": -9.72, "internal_energy": -1.6, "cluster_size": 3, "cluster_id": 5, "rank_in_cluster": 2}

>  <energy>  (17) 
-8.44

>  <cluster_rmsd>  (17) 
1.16

>  <cluster>  (17) 
1

$$$$

     RDKit          3D

 54 57  0  0  0  0  0  0  0  0999 V2000
  139.2680   67.0080  226.8550 N   0  0  0  0  0  0  0  0  0  0  0  0
  140.0850   68.5260  226.7350 S   0  0  0  0  0  0  0  0  0  0  0  0
  139.5380   69.4480  227.8070 O   0  0  0  0  0  0  0  0  0  0  0  0
  141.5500   68.3350  226.8680 O   0  0  0  0  0  0  0  0  0  0  0  0
  139.6480   69.2350  225.1770 C   0  0  0  0  0  0  0  0  0  0  0  0
  138.6650   68.6500  224.4050 C   0  0  0  0  0  0  0  0  0  0  0  0
  138.3560   69.2310  223.2010 C   0  0  0  0  0  0  0  0  0  0  0  0
  139.0020   70.3560  222.7780 C   0  0  0  0  0  0  0  0  0  0  0  0
  140.0050   70.9820  223.5300 C   0  0  0  0  0  0  0  0  0  0  0  0
  140.6750   72.1830  223.0480 C   0  0  0  0  0  0  0  0  0  0  0  0
  140.5030   72.6950  221.8450 C   0  0  0  0  0  0  0  0  0  0  0  0
  140.6110   74.1420  221.6450 C   0  0  0  0  0  0  0  0  0  0  0  0
  139.6360   74.9180  222.2080 N   0  0  0  0  0  0  0  0  0  0  0  0
  139.6180   76.2430  222.1040 C   0  0  0  0  0  0  0  0  0  0  0  0
  138.6080   76.9740  222.6940 C   0  0  0  0  0  0  0  0  0  0  0  0
  138.6240   78.3550  222.5620 C   0  0  0  0  0  0  0  0  0  0  0  0
  139.6290   78.9870  221.8550 C   0  0  0  0  0  0  0  0  0  0  0  0
  140.6250   78.2170  221.2760 C   0  0  0  0  0  0  0  0  0  0  0  0
  140.6390   76.8400  221.3880 C   0  0  0  0  0  0  0  0  0  0  0  0
  141.6100   76.0500  220.8290 C   0  0  0  0  0  0  0  0  0  0  0  0
  142.5220   76.6630  220.1810 O   0  0  0  0  0  0  0  0  0  0  0  0
  141.6190   74.6940  220.9430 N   0  0  0  0  0  0  0  0  0  0  0  0
  142.6480   73.8830  220.3720 C   0  0  0  0  0  0  0  0  0  0  0  0
  143.8290   74.5910  219.8020 C   0  0  0  0  0  0  0  0  0  0  0  0
  144.0620   74.4820  218.3500 C   0  0  0  0  0  0  0  0  0  0  0  0
  144.8260   73.2550  217.9280 C   0  0  0  0  0  0  0  0  0  0  0  0
  145.9790   73.0160  218.7750 N   0  0  0  0  0  0  0  0  0  0  0  0
  145.5270   72.8400  220.1200 C   0  0  0  0  0  0  0  0  0  0  0  0
  145.0260   74.1650  220.6340 C   0  0  0  0  0  0  0  0  0  0  0  0
  140.2980   70.3780  224.7350 C   0  0  0  0  0  0  0  0  0  0  0  0
  139.9190   66.1930  226.8380 H   0  0  0  0  0  0  0  0  0  0  0  0
  138.7780   66.9970  227.7700 H   0  0  0  0  0  0  0  0  0  0  0  0
  138.1437   67.7432  224.7454 H   0  0  0  0  0  0  0  0  0  0  0  0
  137.5761   68.7833  222.5675 H   0  0  0  0  0  0  0  0  0  0  0  0
  138.7238   70.7896  221.8061 H   0  0  0  0  0  0  0  0  0  0  0  0
  141.3685   72.6951  223.7313 H   0  0  0  0  0  0  0  0  0  0  0  0
  140.2788   72.0364  220.9930 H   0  0  0  0  0  0  0  0  0  0  0  0
  137.8070   76.4727  223.2571 H   0  0  0  0  0  0  0  0  0  0  0  0
  137.8267   78.9543  223.0259 H   0  0  0  0  0  0  0  0  0  0  0  0
  139.6382   80.0823  221.7536 H   0  0  0  0  0  0  0  0  0  0  0  0
  141.4266   78.7159  220.7116 H   0  0  0  0  0  0  0  0  0  0  0  0
  143.0140   73.2080  221.1596 H   0  0  0  0  0  0  0  0  0  0  0  0
  142.1743   73.3817  219.5151 H   0  0  0  0  0  0  0  0  0  0  0  0
  143.6290   75.6704  219.8727 H   0  0  0  0  0  0  0  0  0  0  0  0
  143.0845   74.4678  217.8458 H   0  0  0  0  0  0  0  0  0  0  0  0
  144.6806   75.3467  218.0678 H   0  0  0  0  0  0  0  0  0  0  0  0
  144.1573   72.3834  217.9838 H   0  0  0  0  0  0  0  0  0  0  0  0
  145.1857   73.4147  216.9008 H   0  0  0  0  0  0  0  0  0  0  0  0
  146.7010   73.7490  218.6860 H   0  0  0  0  0  0  0  0  0  0  0  0
  144.7126   72.1009  220.1439 H   0  0  0  0  0  0  0  0  0  0  0  0
  146.3529   72.4793  220.7507 H   0  0  0  0  0  0  0  0  0  0  0  0
  144.7268   74.0637  221.6877 H   0  0  0  0  0  0  0  0  0  0  0  0
  145.8219   74.9206  220.5586 H   0  0  0  0  0  0  0  0  0  0  0  0
  141.0787   70.8206  225.3712 H   0  0  0  0  0  0  0  0  0  0  0  0
  1  2  1  0
  2  3  2  0
  2  4  2  0
  2  5  1  0
  5  6  2  0
  6  7  1  0
  7  8  2  0
  8  9  1  0
  9 10  1  0
 10 11  2  0
 11 12  1  0
 12 13  2  0
 13 14  1  0
 14 15  2  0
 15 16  1  0
 16 17  2  0
 17 18  1  0
 18 19  2  0
 19 20  1  0
 20 21  2  0
 20 22  1  0
 22 23  1  0
 23 24  1  0
 24 25  1  0
 25 26  1  0
 26 27  1  0
 27 28  1  0
 28 29  1  0
  9 30  2  0
 30  5  1  0
 22 12  1  0
 29 24  1  0
 19 14  1  0
  1 31  1  0
  1 32  1  0
  6 33  1  0
  7 34  1  0
  8 35  1  0
 10 36  1  0
 11 37  1  0
 15 38  1  0
 16 39  1  0
 17 40  1  0
 18 41  1  0
 23 42  1  0
 23 43  1  0
 24 44  1  0
 25 45  1  0
 25 46  1  0
 26 47  1  0
 26 48  1  0
 27 49  1  0
 28 50  1  0
 28 51  1  0
 29 52  1  0
 29 53  1  0
 30 54  1  0
M  END
>  <smiles>  (18) 
NS(=O)(=O)c1cccc(/C=C/c2nc3ccccc3c(=O)n2CC2CCNCC2)c1

>  <score_type>  (18) 
oracle

>  <origin>  (18) 
autodockgpu

>  <m_score__min__energy>  (18) 
-9.5099999999999998

>  <m_primary>  (18) 
energy

>  <rmsd>  (18) 
7.383654461758271

>  <m_score__min__rmsd>  (18) 
7.383654461758271

>  <meeko>  (18) 
{"free_energy": -9.4, "intermolecular_energy": -11.49, "internal_energy": -0.59, "cluster_size": 4, "cluster_id": 2, "rank_in_cluster": 1}

>  <energy>  (18) 
-8.42

>  <cluster_rmsd>  (18) 
1.0

>  <cluster>  (18) 
1

$$$$

     RDKit          3D

 54 57  0  0  0  0  0  0  0  0999 V2000
  136.1670   74.2500  223.3480 N   0  0  0  0  0  0  0  0  0  0  0  0
  136.7160   75.5690  222.3760 S   0  0  0  0  0  0  0  0  0  0  0  0
  136.0090   75.5000  221.0370 O   0  0  0  0  0  0  0  0  0  0  0  0
  136.4650   76.8570  223.0650 O   0  0  0  0  0  0  0  0  0  0  0  0
  138.4340   75.3090  222.0630 C   0  0  0  0  0  0  0  0  0  0  0  0
  139.2570   76.3840  221.7950 C   0  0  0  0  0  0  0  0  0  0  0  0
  140.5860   76.1400  221.5560 C   0  0  0  0  0  0  0  0  0  0  0  0
  141.0810   74.8690  221.5830 C   0  0  0  0  0  0  0  0  0  0  0  0
  140.2830   73.7490  221.8510 C   0  0  0  0  0  0  0  0  0  0  0  0
  140.8450   72.4050  221.8720 C   0  0  0  0  0  0  0  0  0  0  0  0
  140.1410   71.3110  222.0900 C   0  0  0  0  0  0  0  0  0  0  0  0
  140.0440   70.7630  223.4450 C   0  0  0  0  0  0  0  0  0  0  0  0
  140.6120   71.4950  224.4500 N   0  0  0  0  0  0  0  0  0  0  0  0
  140.5930   71.1110  225.7220 C   0  0  0  0  0  0  0  0  0  0  0  0
  141.1830   71.8920  226.6940 C   0  0  0  0  0  0  0  0  0  0  0  0
  141.1420   71.4560  228.0110 C   0  0  0  0  0  0  0  0  0  0  0  0
  140.5250   70.2660  228.3430 C   0  0  0  0  0  0  0  0  0  0  0  0
  139.9450   69.5100  227.3390 C   0  0  0  0  0  0  0  0  0  0  0  0
  139.9680   69.9130  226.0170 C   0  0  0  0  0  0  0  0  0  0  0  0
  139.4030   69.1890  225.0000 C   0  0  0  0  0  0  0  0  0  0  0  0
  138.8430   68.0950  225.3390 O   0  0  0  0  0  0  0  0  0  0  0  0
  139.4270   69.5920  223.7000 N   0  0  0  0  0  0  0  0  0  0  0  0
  138.8170   68.8380  222.6510 C   0  0  0  0  0  0  0  0  0  0  0  0
  137.3650   69.0680  222.4090 C   0  0  0  0  0  0  0  0  0  0  0  0
  136.9810   69.8530  221.2220 C   0  0  0  0  0  0  0  0  0  0  0  0
  136.9960   71.3450  221.4240 C   0  0  0  0  0  0  0  0  0  0  0  0
  136.3610   71.7300  222.6710 N   0  0  0  0  0  0  0  0  0  0  0  0
  137.0640   71.1100  223.7500 C   0  0  0  0  0  0  0  0  0  0  0  0
  136.8000   69.6270  223.7050 C   0  0  0  0  0  0  0  0  0  0  0  0
  138.9510   74.0220  222.0860 C   0  0  0  0  0  0  0  0  0  0  0  0
  135.4290   73.6790  222.8800 H   0  0  0  0  0  0  0  0  0  0  0  0
  136.9840   73.6300  223.5110 H   0  0  0  0  0  0  0  0  0  0  0  0
  138.8582   77.4090  221.7736 H   0  0  0  0  0  0  0  0  0  0  0  0
  141.2615   76.9807  221.3397 H   0  0  0  0  0  0  0  0  0  0  0  0
  142.1525   74.7170  221.3859 H   0  0  0  0  0  0  0  0  0  0  0  0
  141.9251   72.2956  221.6948 H   0  0  0  0  0  0  0  0  0  0  0  0
  139.6276   70.8110  221.2555 H   0  0  0  0  0  0  0  0  0  0  0  0
  141.6753   72.8399  226.4310 H   0  0  0  0  0  0  0  0  0  0  0  0
  141.6066   72.0657  228.7999 H   0  0  0  0  0  0  0  0  0  0  0  0
  140.4949   69.9245  229.3882 H   0  0  0  0  0  0  0  0  0  0  0  0
  139.4520   68.5621  227.6005 H   0  0  0  0  0  0  0  0  0  0  0  0
  139.3504   69.0748  221.7186 H   0  0  0  0  0  0  0  0  0  0  0  0
  138.8902   67.7889  222.9734 H   0  0  0  0  0  0  0  0  0  0  0  0
  136.9203   68.0994  222.1368 H   0  0  0  0  0  0  0  0  0  0  0  0
  137.6811   69.6100  220.4091 H   0  0  0  0  0  0  0  0  0  0  0  0
  135.9404   69.5805  220.9920 H   0  0  0  0  0  0  0  0  0  0  0  0
  138.0399   71.6917  221.4349 H   0  0  0  0  0  0  0  0  0  0  0  0
  136.4330   71.8058  220.5989 H   0  0  0  0  0  0  0  0  0  0  0  0
  135.3470   71.5300  222.6830 H   0  0  0  0  0  0  0  0  0  0  0  0
  138.1429   71.2979  223.6463 H   0  0  0  0  0  0  0  0  0  0  0  0
  136.7215   71.5243  224.7097 H   0  0  0  0  0  0  0  0  0  0  0  0
  137.2872   69.1386  224.5618 H   0  0  0  0  0  0  0  0  0  0  0  0
  135.7173   69.4384  223.7528 H   0  0  0  0  0  0  0  0  0  0  0  0
  138.2710   73.1844  222.3004 H   0  0  0  0  0  0  0  0  0  0  0  0
  1  2  1  0
  2  3  2  0
  2  4  2  0
  2  5  1  0
  5  6  2  0
  6  7  1  0
  7  8  2  0
  8  9  1  0
  9 10  1  0
 10 11  2  0
 11 12  1  0
 12 13  2  0
 13 14  1  0
 14 15  2  0
 15 16  1  0
 16 17  2  0
 17 18  1  0
 18 19  2  0
 19 20  1  0
 20 21  2  0
 20 22  1  0
 22 23  1  0
 23 24  1  0
 24 25  1  0
 25 26  1  0
 26 27  1  0
 27 28  1  0
 28 29  1  0
  9 30  2  0
 30  5  1  0
 22 12  1  0
 29 24  1  0
 19 14  1  0
  1 31  1  0
  1 32  1  0
  6 33  1  0
  7 34  1  0
  8 35  1  0
 10 36  1  0
 11 37  1  0
 15 38  1  0
 16 39  1  0
 17 40  1  0
 18 41  1  0
 23 42  1  0
 23 43  1  0
 24 44  1  0
 25 45  1  0
 25 46  1  0
 26 47  1  0
 26 48  1  0
 27 49  1  0
 28 50  1  0
 28 51  1  0
 29 52  1  0
 29 53  1  0
 30 54  1  0
M  END
>  <smiles>  (19) 
NS(=O)(=O)c1cccc(/C=C/c2nc3ccccc3c(=O)n2CC2CCNCC2)c1

>  <score_type>  (19) 
oracle

>  <origin>  (19) 
autodockgpu

>  <m_score__min__energy>  (19) 
-9.5099999999999998

>  <m_primary>  (19) 
energy

>  <rmsd>  (19) 
11.468691166953148

>  <m_score__min__rmsd>  (19) 
11.468691166953148

>  <meeko>  (19) 
{"free_energy": -7.25, "intermolecular_energy": -9.34, "internal_energy": -2.94, "cluster_size": 6, "cluster_id": 6, "rank_in_cluster": 5}

>  <energy>  (19) 
-9.4

>  <cluster_rmsd>  (19) 
0.0

>  <cluster>  (19) 
2

$$$$

     RDKit          3D

 54 57  0  0  0  0  0  0  0  0999 V2000
  145.8730   73.3770  217.9690 N   0  0  0  0  0  0  0  0  0  0  0  0
  145.7510   73.0100  219.6530 S   0  0  0  0  0  0  0  0  0  0  0  0
  145.9360   71.5160  219.8300 O   0  0  0  0  0  0  0  0  0  0  0  0
  146.7540   73.7840  220.4240 O   0  0  0  0  0  0  0  0  0  0  0  0
  144.0990   73.3850  220.1530 C   0  0  0  0  0  0  0  0  0  0  0  0
  143.6520   74.6900  220.1340 C   0  0  0  0  0  0  0  0  0  0  0  0
  142.3620   74.9390  220.5300 C   0  0  0  0  0  0  0  0  0  0  0  0
  141.5430   73.9240  220.9320 C   0  0  0  0  0  0  0  0  0  0  0  0
  141.9550   72.5860  220.9660 C   0  0  0  0  0  0  0  0  0  0  0  0
  141.0540   71.5260  221.4000 C   0  0  0  0  0  0  0  0  0  0  0  0
  140.0080   71.7170  222.1800 C   0  0  0  0  0  0  0  0  0  0  0  0
  139.9390   71.0530  223.4840 C   0  0  0  0  0  0  0  0  0  0  0  0
  140.5020   71.7090  224.5430 N   0  0  0  0  0  0  0  0  0  0  0  0
  140.5060   71.2170  225.7780 C   0  0  0  0  0  0  0  0  0  0  0  0
  141.0880   71.9250  226.8080 C   0  0  0  0  0  0  0  0  0  0  0  0
  141.0720   71.3770  228.0830 C   0  0  0  0  0  0  0  0  0  0  0  0
  140.4850   70.1490  228.3170 C   0  0  0  0  0  0  0  0  0  0  0  0
  139.9100   69.4680  227.2570 C   0  0  0  0  0  0  0  0  0  0  0  0
  139.9090   69.9840  225.9750 C   0  0  0  0  0  0  0  0  0  0  0  0
  139.3490   69.3380  224.9040 C   0  0  0  0  0  0  0  0  0  0  0  0
  138.8180   68.2050  225.1530 O   0  0  0  0  0  0  0  0  0  0  0  0
  139.3510   69.8510  223.6440 N   0  0  0  0  0  0  0  0  0  0  0  0
  138.7460   69.1760  222.5390 C   0  0  0  0  0  0  0  0  0  0  0  0
  137.3860   69.6290  222.1330 C   0  0  0  0  0  0  0  0  0  0  0  0
  136.5000   70.1710  223.1790 C   0  0  0  0  0  0  0  0  0  0  0  0
  135.7240   69.1320  223.9450 C   0  0  0  0  0  0  0  0  0  0  0  0
  135.1340   68.1390  223.0670 N   0  0  0  0  0  0  0  0  0  0  0  0
  136.1830   67.4920  222.3420 C   0  0  0  0  0  0  0  0  0  0  0  0
  136.7650   68.4770  221.3610 C   0  0  0  0  0  0  0  0  0  0  0  0
  143.2560   72.3620  220.5640 C   0  0  0  0  0  0  0  0  0  0  0  0
  145.0390   73.0670  217.4240 H   0  0  0  0  0  0  0  0  0  0  0  0
  145.9340   74.4100  217.8850 H   0  0  0  0  0  0  0  0  0  0  0  0
  144.3116   75.5086  219.8103 H   0  0  0  0  0  0  0  0  0  0  0  0
  141.9826   75.9715  220.5233 H   0  0  0  0  0  0  0  0  0  0  0  0
  140.5161   74.1671  221.2424 H   0  0  0  0  0  0  0  0  0  0  0  0
  141.2594   70.5018  221.0552 H   0  0  0  0  0  0  0  0  0  0  0  0
  139.1887   72.3737  221.8521 H   0  0  0  0  0  0  0  0  0  0  0  0
  141.5552   72.9036  226.6231 H   0  0  0  0  0  0  0  0  0  0  0  0
  141.5323   71.9272  228.9169 H   0  0  0  0  0  0  0  0  0  0  0  0
  140.4743   69.7186  229.3293 H   0  0  0  0  0  0  0  0  0  0  0  0
  139.4414   68.4899  227.4405 H   0  0  0  0  0  0  0  0  0  0  0  0
  139.4100   69.2994  221.6707 H   0  0  0  0  0  0  0  0  0  0  0  0
  138.6127   68.1376  222.8764 H   0  0  0  0  0  0  0  0  0  0  0  0
  137.5119   70.5316  221.5170 H   0  0  0  0  0  0  0  0  0  0  0  0
  137.1180   70.7337  223.8941 H   0  0  0  0  0  0  0  0  0  0  0  0
  135.7569   70.7974  222.6637 H   0  0  0  0  0  0  0  0  0  0  0  0
  136.4037   68.6267  224.6469 H   0  0  0  0  0  0  0  0  0  0  0  0
  134.9084   69.6416  224.4790 H   0  0  0  0  0  0  0  0  0  0  0  0
  134.4020   68.5310  222.4530 H   0  0  0  0  0  0  0  0  0  0  0  0
  136.9647   67.1576  223.0399 H   0  0  0  0  0  0  0  0  0  0  0  0
  135.7866   66.6167  221.8066 H   0  0  0  0  0  0  0  0  0  0  0  0
  137.5361   67.9813  220.7529 H   0  0  0  0  0  0  0  0  0  0  0  0
  135.9734   68.8556  220.6977 H   0  0  0  0  0  0  0  0  0  0  0  0
  143.6403   71.3313  220.5695 H   0  0  0  0  0  0  0  0  0  0  0  0
  1  2  1  0
  2  3  2  0
  2  4  2  0
  2  5  1  0
  5  6  2  0
  6  7  1  0
  7  8  2  0
  8  9  1  0
  9 10  1  0
 10 11  2  0
 11 12  1  0
 12 13  2  0
 13 14  1  0
 14 15  2  0
 15 16  1  0
 16 17  2  0
 17 18  1  0
 18 19  2  0
 19 20  1  0
 20 21  2  0
 20 22  1  0
 22 23  1  0
 23 24  1  0
 24 25  1  0
 25 26  1  0
 26 27  1  0
 27 28  1  0
 28 29  1  0
  9 30  2  0
 30  5  1  0
 22 12  1  0
 29 24  1  0
 19 14  1  0
  1 31  1  0
  1 32  1  0
  6 33  1  0
  7 34  1  0
  8 35  1  0
 10 36  1  0
 11 37  1  0
 15 38  1  0
 16 39  1  0
 17 40  1  0
 18 41  1  0
 23 42  1  0
 23 43  1  0
 24 44  1  0
 25 45  1  0
 25 46  1  0
 26 47  1  0
 26 48  1  0
 27 49  1  0
 28 50  1  0
 28 51  1  0
 29 52  1  0
 29 53  1  0
 30 54  1  0
M  END
>  <smiles>  (20) 
NS(=O)(=O)c1cccc(/C=C/c2nc3ccccc3c(=O)n2CC2CCNCC2)c1

>  <score_type>  (20) 
oracle

>  <origin>  (20) 
autodockgpu

>  <m_score__min__energy>  (20) 
-9.5099999999999998

>  <m_primary>  (20) 
energy

>  <rmsd>  (20) 
12.187916875121013

>  <m_score__min__rmsd>  (20) 
12.187916875121013

>  <meeko>  (20) 
{"free_energy": -9.25, "intermolecular_energy": -11.34, "internal_energy": -1.37, "cluster_size": 18, "cluster_id": 1, "rank_in_cluster": 5}

>  <energy>  (20) 
-9.16

>  <cluster_rmsd>  (20) 
1.45

>  <cluster>  (20) 
2

$$$$

     RDKit          3D

 54 57  0  0  0  0  0  0  0  0999 V2000
  146.0550   73.3860  218.8190 N   0  0  0  0  0  0  0  0  0  0  0  0
  145.4970   73.6090  220.4390 S   0  0  0  0  0  0  0  0  0  0  0  0
  146.3110   72.7140  221.3510 O   0  0  0  0  0  0  0  0  0  0  0  0
  145.6050   75.0360  220.8290 O   0  0  0  0  0  0  0  0  0  0  0  0
  143.8300   73.0290  220.5040 C   0  0  0  0  0  0  0  0  0  0  0  0
  143.5400   71.7250  220.1590 C   0  0  0  0  0  0  0  0  0  0  0  0
  142.2320   71.3130  220.2220 C   0  0  0  0  0  0  0  0  0  0  0  0
  141.2450   72.1700  220.6160 C   0  0  0  0  0  0  0  0  0  0  0  0
  141.4950   73.5010  220.9740 C   0  0  0  0  0  0  0  0  0  0  0  0
  140.4180   74.3890  221.3900 C   0  0  0  0  0  0  0  0  0  0  0  0
  140.0130   75.4370  220.6990 C   0  0  0  0  0  0  0  0  0  0  0  0
  140.6360   76.7430  220.9220 C   0  0  0  0  0  0  0  0  0  0  0  0
  140.7780   77.1460  222.2210 N   0  0  0  0  0  0  0  0  0  0  0  0
  141.3280   78.3070  222.5600 C   0  0  0  0  0  0  0  0  0  0  0  0
  141.4470   78.6610  223.8880 C   0  0  0  0  0  0  0  0  0  0  0  0
  142.0260   79.8820  224.2020 C   0  0  0  0  0  0  0  0  0  0  0  0
  142.4760   80.7270  223.2070 C   0  0  0  0  0  0  0  0  0  0  0  0
  142.3400   80.3370  221.8850 C   0  0  0  0  0  0  0  0  0  0  0  0
  141.7670   79.1280  221.5370 C   0  0  0  0  0  0  0  0  0  0  0  0
  141.6180   78.7120  220.2400 C   0  0  0  0  0  0  0  0  0  0  0  0
  142.0410   79.5160  219.3450 O   0  0  0  0  0  0  0  0  0  0  0  0
  141.0530   77.5200  219.9040 N   0  0  0  0  0  0  0  0  0  0  0  0
  140.9210   77.0890  218.5480 C   0  0  0  0  0  0  0  0  0  0  0  0
  142.1080   77.2630  217.6650 C   0  0  0  0  0  0  0  0  0  0  0  0
  142.1960   76.4240  216.4560 C   0  0  0  0  0  0  0  0  0  0  0  0
  142.7940   75.0610  216.6810 C   0  0  0  0  0  0  0  0  0  0  0  0
  143.9920   75.1210  217.4990 N   0  0  0  0  0  0  0  0  0  0  0  0
  143.6490   75.6910  218.7640 C   0  0  0  0  0  0  0  0  0  0  0  0
  143.3290   77.1500  218.5620 C   0  0  0  0  0  0  0  0  0  0  0  0
  142.8170   73.8900  220.9020 C   0  0  0  0  0  0  0  0  0  0  0  0
  145.3220   73.5920  218.1040 H   0  0  0  0  0  0  0  0  0  0  0  0
  146.8330   74.0560  218.6690 H   0  0  0  0  0  0  0  0  0  0  0  0
  144.3352   71.0342  219.8421 H   0  0  0  0  0  0  0  0  0  0  0  0
  141.9756   70.2781  219.9513 H   0  0  0  0  0  0  0  0  0  0  0  0
  140.2099   71.7997  220.6539 H   0  0  0  0  0  0  0  0  0  0  0  0
  139.9100   74.1718  222.3412 H   0  0  0  0  0  0  0  0  0  0  0  0
  139.2085   75.3299  219.9565 H   0  0  0  0  0  0  0  0  0  0  0  0
  141.0900   77.9886  224.6820 H   0  0  0  0  0  0  0  0  0  0  0  0
  142.1278   80.1804  225.2558 H   0  0  0  0  0  0  0  0  0  0  0  0
  142.9350   81.6941  223.4601 H   0  0  0  0  0  0  0  0  0  0  0  0
  142.6978   81.0078  221.0900 H   0  0  0  0  0  0  0  0  0  0  0  0
  140.6727   76.0175  218.5630 H   0  0  0  0  0  0  0  0  0  0  0  0
  140.1455   77.7385  218.1158 H   0  0  0  0  0  0  0  0  0  0  0  0
  142.0214   78.2525  217.1924 H   0  0  0  0  0  0  0  0  0  0  0  0
  141.1800   76.2911  216.0560 H   0  0  0  0  0  0  0  0  0  0  0  0
  142.8683   76.9484  215.7610 H   0  0  0  0  0  0  0  0  0  0  0  0
  142.0509   74.4260  217.1856 H   0  0  0  0  0  0  0  0  0  0  0  0
  143.0722   74.6460  215.7010 H   0  0  0  0  0  0  0  0  0  0  0  0
  144.7710   75.6130  217.0330 H   0  0  0  0  0  0  0  0  0  0  0  0
  142.7716   75.1729  219.1785 H   0  0  0  0  0  0  0  0  0  0  0  0
  144.4896   75.5838  219.4653 H   0  0  0  0  0  0  0  0  0  0  0  0
  143.1188   77.6205  219.5338 H   0  0  0  0  0  0  0  0  0  0  0  0
  144.1847   77.6595  218.0949 H   0  0  0  0  0  0  0  0  0  0  0  0
  143.0784   74.9241  221.1709 H   0  0  0  0  0  0  0  0  0  0  0  0
  1  2  1  0
  2  3  2  0
  2  4  2  0
  2  5  1  0
  5  6  2  0
  6  7  1  0
  7  8  2  0
  8  9  1  0
  9 10  1  0
 10 11  2  0
 11 12  1  0
 12 13  2  0
 13 14  1  0
 14 15  2  0
 15 16  1  0
 16 17  2  0
 17 18  1  0
 18 19  2  0
 19 20  1  0
 20 21  2  0
 20 22  1  0
 22 23  1  0
 23 24  1  0
 24 25  1  0
 25 26  1  0
 26 27  1  0
 27 28  1  0
 28 29  1  0
  9 30  2  0
 30  5  1  0
 22 12  1  0
 29 24  1  0
 19 14  1  0
  1 31  1  0
  1 32  1  0
  6 33  1  0
  7 34  1  0
  8 35  1  0
 10 36  1  0
 11 37  1  0
 15 38  1  0
 16 39  1  0
 17 40  1  0
 18 41  1  0
 23 42  1  0
 23 43  1  0
 24 44  1  0
 25 45  1  0
 25 46  1  0
 26 47  1  0
 26 48  1  0
 27 49  1  0
 28 50  1  0
 28 51  1  0
 29 52  1  0
 29 53  1  0
 30 54  1  0
M  END
>  <smiles>  (21) 
NS(=O)(=O)c1cccc(/C=C/c2nc3ccccc3c(=O)n2CC2CCNCC2)c1

>  <score_type>  (21) 
oracle

>  <origin>  (21) 
autodockgpu

>  <m_score__min__energy>  (21) 
-9.5099999999999998

>  <m_primary>  (21) 
energy

>  <rmsd>  (21) 
6.69164411936206

>  <m_score__min__rmsd>  (21) 
6.69164411936206

>  <meeko>  (21) 
{"free_energy": -7.79, "intermolecular_energy": -9.88, "internal_energy": -2.36, "cluster_size": 4, "cluster_id": 7, "rank_in_cluster": 4}

>  <energy>  (21) 
-9.08

>  <cluster_rmsd>  (21) 
1.44

>  <cluster>  (21) 
2

$$$$

     RDKit          3D

 54 57  0  0  0  0  0  0  0  0999 V2000
  146.1550   73.3950  218.6040 N   0  0  0  0  0  0  0  0  0  0  0  0
  145.4420   72.7640  220.0470 S   0  0  0  0  0  0  0  0  0  0  0  0
  145.0730   71.3150  219.8010 O   0  0  0  0  0  0  0  0  0  0  0  0
  146.3760   72.9080  221.1900 O   0  0  0  0  0  0  0  0  0  0  0  0
  143.9320   73.6410  220.3110 C   0  0  0  0  0  0  0  0  0  0  0  0
  143.7960   74.9360  219.8530 C   0  0  0  0  0  0  0  0  0  0  0  0
  142.6070   75.5820  220.0800 C   0  0  0  0  0  0  0  0  0  0  0  0
  141.5860   74.9620  220.7390 C   0  0  0  0  0  0  0  0  0  0  0  0
  141.6800   73.6500  221.2210 C   0  0  0  0  0  0  0  0  0  0  0  0
  140.5700   73.0180  221.9210 C   0  0  0  0  0  0  0  0  0  0  0  0
  140.3810   71.7140  221.9850 C   0  0  0  0  0  0  0  0  0  0  0  0
  140.1850   71.0680  223.2850 C   0  0  0  0  0  0  0  0  0  0  0  0
  140.7330   71.6900  224.3720 N   0  0  0  0  0  0  0  0  0  0  0  0
  140.6270   71.2100  225.6070 C   0  0  0  0  0  0  0  0  0  0  0  0
  141.2000   71.8820  226.6670 C   0  0  0  0  0  0  0  0  0  0  0  0
  141.0680   71.3490  227.9410 C   0  0  0  0  0  0  0  0  0  0  0  0
  140.3770   70.1700  228.1460 C   0  0  0  0  0  0  0  0  0  0  0  0
  139.8150   69.5250  227.0570 C   0  0  0  0  0  0  0  0  0  0  0  0
  139.9290   70.0280  225.7750 C   0  0  0  0  0  0  0  0  0  0  0  0
  139.3850   69.4160  224.6760 C   0  0  0  0  0  0  0  0  0  0  0  0
  138.7560   68.3290  224.8980 O   0  0  0  0  0  0  0  0  0  0  0  0
  139.4990   69.9160  223.4150 N   0  0  0  0  0  0  0  0  0  0  0  0
  138.9110   69.2780  222.2800 C   0  0  0  0  0  0  0  0  0  0  0  0
  137.5130   69.6630  221.9380 C   0  0  0  0  0  0  0  0  0  0  0  0
  136.6710   70.2230  223.0100 C   0  0  0  0  0  0  0  0  0  0  0  0
  135.9820   69.1960  223.8680 C   0  0  0  0  0  0  0  0  0  0  0  0
  135.3780   68.1420  223.0740 N   0  0  0  0  0  0  0  0  0  0  0  0
  136.4060   67.4990  222.3160 C   0  0  0  0  0  0  0  0  0  0  0  0
  136.8910   68.4550  221.2580 C   0  0  0  0  0  0  0  0  0  0  0  0
  142.8860   73.0230  220.9810 C   0  0  0  0  0  0  0  0  0  0  0  0
  145.5110   74.0220  218.0730 H   0  0  0  0  0  0  0  0  0  0  0  0
  146.9750   73.9620  218.8930 H   0  0  0  0  0  0  0  0  0  0  0  0
  144.6183   75.4364  219.3206 H   0  0  0  0  0  0  0  0  0  0  0  0
  142.4751   76.6149  219.7255 H   0  0  0  0  0  0  0  0  0  0  0  0
  140.6491   75.5158  220.8987 H   0  0  0  0  0  0  0  0  0  0  0  0
  139.8432   73.6694  222.4285 H   0  0  0  0  0  0  0  0  0  0  0  0
  140.3706   71.1129  221.0638 H   0  0  0  0  0  0  0  0  0  0  0  0
  141.7500   72.8208  226.5053 H   0  0  0  0  0  0  0  0  0  0  0  0
  141.5186   71.8710  228.7980 H   0  0  0  0  0  0  0  0  0  0  0  0
  140.2750   69.7506  229.1578 H   0  0  0  0  0  0  0  0  0  0  0  0
  139.2630   68.5870  227.2168 H   0  0  0  0  0  0  0  0  0  0  0  0
  139.5410   69.5058  221.4076 H   0  0  0  0  0  0  0  0  0  0  0  0
  138.8573   68.2122  222.5467 H   0  0  0  0  0  0  0  0  0  0  0  0
  137.5681   70.5392  221.2752 H   0  0  0  0  0  0  0  0  0  0  0  0
  137.3087   70.8405  223.6596 H   0  0  0  0  0  0  0  0  0  0  0  0
  135.8756   70.7977  222.5130 H   0  0  0  0  0  0  0  0  0  0  0  0
  136.7209   68.7486  224.5491 H   0  0  0  0  0  0  0  0  0  0  0  0
  135.1811   69.7020  224.4271 H   0  0  0  0  0  0  0  0  0  0  0  0
  134.5970   68.4790  222.4890 H   0  0  0  0  0  0  0  0  0  0  0  0
  137.2400   67.2259  222.9793 H   0  0  0  0  0  0  0  0  0  0  0  0
  136.0116   66.5861  221.8458 H   0  0  0  0  0  0  0  0  0  0  0  0
  137.6427   67.9580  220.6271 H   0  0  0  0  0  0  0  0  0  0  0  0
  136.0480   68.7738  220.6274 H   0  0  0  0  0  0  0  0  0  0  0  0
  143.0235   71.9908  221.3356 H   0  0  0  0  0  0  0  0  0  0  0  0
  1  2  1  0
  2  3  2  0
  2  4  2  0
  2  5  1  0
  5  6  2  0
  6  7  1  0
  7  8  2  0
  8  9  1  0
  9 10  1  0
 10 11  2  0
 11 12  1  0
 12 13  2  0
 13 14  1  0
 14 15  2  0
 15 16  1  0
 16 17  2  0
 17 18  1  0
 18 19  2  0
 19 20  1  0
 20 21  2  0
 20 22  1  0
 22 23  1  0
 23 24  1  0
 24 25  1  0
 25 26  1  0
 26 27  1  0
 27 28  1  0
 28 29  1  0
  9 30  2  0
 30  5  1  0
 22 12  1  0
 29 24  1  0
 19 14  1  0
  1 31  1  0
  1 32  1  0
  6 33  1  0
  7 34  1  0
  8 35  1  0
 10 36  1  0
 11 37  1  0
 15 38  1  0
 16 39  1  0
 17 40  1  0
 18 41  1  0
 23 42  1  0
 23 43  1  0
 24 44  1  0
 25 45  1  0
 25 46  1  0
 26 47  1  0
 26 48  1  0
 27 49  1  0
 28 50  1  0
 28 51  1  0
 29 52  1  0
 29 53  1  0
 30 54  1  0
M  END
>  <smiles>  (22) 
NS(=O)(=O)c1cccc(/C=C/c2nc3ccccc3c(=O)n2CC2CCNCC2)c1

>  <score_type>  (22) 
oracle

>  <origin>  (22) 
autodockgpu

>  <m_score__min__energy>  (22) 
-9.5099999999999998

>  <m_primary>  (22) 
energy

>  <rmsd>  (22) 
12.059185533565786

>  <m_score__min__rmsd>  (22) 
12.059185533565786

>  <meeko>  (22) 
{"free_energy": -9.28, "intermolecular_energy": -11.37, "internal_energy": -1.4, "cluster_size": 18, "cluster_id": 1, "rank_in_cluster": 3}

>  <energy>  (22) 
-8.36

>  <cluster_rmsd>  (22) 
1.52

>  <cluster>  (22) 
2

$$$$

     RDKit          3D

 54 57  0  0  0  0  0  0  0  0999 V2000
  142.1990   77.9020  220.8760 N   0  0  0  0  0  0  0  0  0  0  0  0
  140.8320   78.0520  221.9230 S   0  0  0  0  0  0  0  0  0  0  0  0
  141.3350   78.1800  223.3470 O   0  0  0  0  0  0  0  0  0  0  0  0
  140.0030   79.2150  221.5250 O   0  0  0  0  0  0  0  0  0  0  0  0
  139.9330   76.5350  221.8300 C   0  0  0  0  0  0  0  0  0  0  0  0
  138.5690   76.5530  221.6180 C   0  0  0  0  0  0  0  0  0  0  0  0
  137.9070   75.3530  221.5530 C   0  0  0  0  0  0  0  0  0  0  0  0
  138.5790   74.1730  221.6940 C   0  0  0  0  0  0  0  0  0  0  0  0
  139.9610   74.1080  221.9110 C   0  0  0  0  0  0  0  0  0  0  0  0
  140.6470   72.8310  222.0570 C   0  0  0  0  0  0  0  0  0  0  0  0
  140.0320   71.6700  222.1780 C   0  0  0  0  0  0  0  0  0  0  0  0
  139.9560   71.0180  223.4880 C   0  0  0  0  0  0  0  0  0  0  0  0
  140.5210   71.6810  224.5420 N   0  0  0  0  0  0  0  0  0  0  0  0
  140.5200   71.2000  225.7810 C   0  0  0  0  0  0  0  0  0  0  0  0
  141.1050   71.9140  226.8060 C   0  0  0  0  0  0  0  0  0  0  0  0
  141.0830   71.3790  228.0860 C   0  0  0  0  0  0  0  0  0  0  0  0
  140.4880   70.1560  228.3310 C   0  0  0  0  0  0  0  0  0  0  0  0
  139.9110   69.4690  227.2750 C   0  0  0  0  0  0  0  0  0  0  0  0
  139.9150   69.9740  225.9890 C   0  0  0  0  0  0  0  0  0  0  0  0
  139.3530   69.3200  224.9230 C   0  0  0  0  0  0  0  0  0  0  0  0
  138.8140   68.1940  225.1820 O   0  0  0  0  0  0  0  0  0  0  0  0
  139.3600   69.8220  223.6580 N   0  0  0  0  0  0  0  0  0  0  0  0
  138.7530   69.1400  222.5590 C   0  0  0  0  0  0  0  0  0  0  0  0
  137.3730   69.5570  222.1840 C   0  0  0  0  0  0  0  0  0  0  0  0
  137.0490   70.9940  222.2400 C   0  0  0  0  0  0  0  0  0  0  0  0
  136.6320   71.4900  223.5990 C   0  0  0  0  0  0  0  0  0  0  0  0
  135.6760   70.6010  224.2320 N   0  0  0  0  0  0  0  0  0  0  0  0
  136.2800   69.3130  224.3750 C   0  0  0  0  0  0  0  0  0  0  0  0
  136.4280   68.6980  223.0070 C   0  0  0  0  0  0  0  0  0  0  0  0
  140.6030   75.3280  221.9730 C   0  0  0  0  0  0  0  0  0  0  0  0
  142.9860   78.5350  221.1420 H   0  0  0  0  0  0  0  0  0  0  0  0
  142.5430   76.9260  220.9600 H   0  0  0  0  0  0  0  0  0  0  0  0
  138.0275   77.5037  221.5043 H   0  0  0  0  0  0  0  0  0  0  0  0
  136.8200   75.3415  221.3850 H   0  0  0  0  0  0  0  0  0  0  0  0
  138.0106   73.2331  221.6346 H   0  0  0  0  0  0  0  0  0  0  0  0
  141.7470   72.8351  222.0670 H   0  0  0  0  0  0  0  0  0  0  0  0
  139.5774   71.1926  221.2974 H   0  0  0  0  0  0  0  0  0  0  0  0
  141.5792   72.8875  226.6126 H   0  0  0  0  0  0  0  0  0  0  0  0
  141.5445   71.9348  228.9155 H   0  0  0  0  0  0  0  0  0  0  0  0
  140.4727   69.7350  229.3471 H   0  0  0  0  0  0  0  0  0  0  0  0
  139.4368   68.4950  227.4658 H   0  0  0  0  0  0  0  0  0  0  0  0
  139.3958   69.2903  221.6791 H   0  0  0  0  0  0  0  0  0  0  0  0
  138.6562   68.0952  222.8891 H   0  0  0  0  0  0  0  0  0  0  0  0
  137.2629   69.3886  221.1026 H   0  0  0  0  0  0  0  0  0  0  0  0
  137.9394   71.5589  221.9269 H   0  0  0  0  0  0  0  0  0  0  0  0
  136.1861   71.1452  221.5747 H   0  0  0  0  0  0  0  0  0  0  0  0
  137.5238   71.5659  224.2384 H   0  0  0  0  0  0  0  0  0  0  0  0
  136.1505   72.4705  223.4699 H   0  0  0  0  0  0  0  0  0  0  0  0
  134.7700   70.5680  223.7380 H   0  0  0  0  0  0  0  0  0  0  0  0
  137.2697   69.4176  224.8436 H   0  0  0  0  0  0  0  0  0  0  0  0
  135.6517   68.6712  225.0101 H   0  0  0  0  0  0  0  0  0  0  0  0
  136.8389   67.6819  223.1009 H   0  0  0  0  0  0  0  0  0  0  0  0
  135.4465   68.6436  222.5134 H   0  0  0  0  0  0  0  0  0  0  0  0
  141.6897   75.3445  222.1426 H   0  0  0  0  0  0  0  0  0  0  0  0
  1  2  1  0
  2  3  2  0
  2  4  2  0
  2  5  1  0
  5  6  2  0
  6  7  1  0
  7  8  2  0
  8  9  1  0
  9 10  1  0
 10 11  2  0
 11 12  1  0
 12 13  2  0
 13 14  1  0
 14 15  2  0
 15 16  1  0
 16 17  2  0
 17 18  1  0
 18 19  2  0
 19 20  1  0
 20 21  2  0
 20 22  1  0
 22 23  1  0
 23 24  1  0
 24 25  1  0
 25 26  1  0
 26 27  1  0
 27 28  1  0
 28 29  1  0
  9 30  2  0
 30  5  1  0
 22 12  1  0
 29 24  1  0
 19 14  1  0
  1 31  1  0
  1 32  1  0
  6 33  1  0
  7 34  1  0
  8 35  1  0
 10 36  1  0
 11 37  1  0
 15 38  1  0
 16 39  1  0
 17 40  1  0
 18 41  1  0
 23 42  1  0
 23 43  1  0
 24 44  1  0
 25 45  1  0
 25 46  1  0
 26 47  1  0
 26 48  1  0
 27 49  1  0
 28 50  1  0
 28 51  1  0
 29 52  1  0
 29 53  1  0
 30 54  1  0
M  END
>  <smiles>  (23) 
NS(=O)(=O)c1cccc(/C=C/c2nc3ccccc3c(=O)n2CC2CCNCC2)c1

>  <score_type>  (23) 
oracle

>  <origin>  (23) 
autodockgpu

>  <m_score__min__energy>  (23) 
-9.5099999999999998

>  <m_primary>  (23) 
energy

>  <rmsd>  (23) 
11.735755731099639

>  <m_score__min__rmsd>  (23) 
11.735755731099639

>  <meeko>  (23) 
{"free_energy": -8.22, "intermolecular_energy": -10.3, "internal_energy": -1.63, "cluster_size": 6, "cluster_id": 6, "rank_in_cluster": 1}

>  <energy>  (23) 
-9.08

>  <cluster_rmsd>  (23) 
0.0

>  <cluster>  (23) 
3

$$$$

     RDKit          3D

 54 57  0  0  0  0  0  0  0  0999 V2000
  145.9970   73.4110  218.8970 N   0  0  0  0  0  0  0  0  0  0  0  0
  145.2300   72.7480  220.2960 S   0  0  0  0  0  0  0  0  0  0  0  0
  144.9580   71.2790  220.0390 O   0  0  0  0  0  0  0  0  0  0  0  0
  146.0800   72.9490  221.4940 O   0  0  0  0  0  0  0  0  0  0  0  0
  143.6590   73.5400  220.4580 C   0  0  0  0  0  0  0  0  0  0  0  0
  143.5460   74.8980  220.2410 C   0  0  0  0  0  0  0  0  0  0  0  0
  142.3090   75.4750  220.3780 C   0  0  0  0  0  0  0  0  0  0  0  0
  141.2190   74.7270  220.7180 C   0  0  0  0  0  0  0  0  0  0  0  0
  141.2890   73.3460  220.9460 C   0  0  0  0  0  0  0  0  0  0  0  0
  140.1050   72.5770  221.3070 C   0  0  0  0  0  0  0  0  0  0  0  0
  139.9100   72.0300  222.4910 C   0  0  0  0  0  0  0  0  0  0  0  0
  139.5940   70.6030  222.5920 C   0  0  0  0  0  0  0  0  0  0  0  0
  139.4450   69.9180  221.4190 N   0  0  0  0  0  0  0  0  0  0  0  0
  139.1600   68.6210  221.3710 C   0  0  0  0  0  0  0  0  0  0  0  0
  139.0220   67.9820  220.1570 C   0  0  0  0  0  0  0  0  0  0  0  0
  138.7240   66.6270  220.1490 C   0  0  0  0  0  0  0  0  0  0  0  0
  138.5670   65.9300  221.3320 C   0  0  0  0  0  0  0  0  0  0  0  0
  138.7130   66.6070  222.5310 C   0  0  0  0  0  0  0  0  0  0  0  0
  139.0100   67.9560  222.5750 C   0  0  0  0  0  0  0  0  0  0  0  0
  139.1610   68.6560  223.7440 C   0  0  0  0  0  0  0  0  0  0  0  0
  139.0080   67.9850  224.8180 O   0  0  0  0  0  0  0  0  0  0  0  0
  139.4540   69.9840  223.7810 N   0  0  0  0  0  0  0  0  0  0  0  0
  139.6290   70.6980  225.0070 C   0  0  0  0  0  0  0  0  0  0  0  0
  140.7150   70.2280  225.9130 C   0  0  0  0  0  0  0  0  0  0  0  0
  140.3240   69.5690  227.1720 C   0  0  0  0  0  0  0  0  0  0  0  0
  140.0340   70.5110  228.3090 C   0  0  0  0  0  0  0  0  0  0  0  0
  141.0400   71.5500  228.4250 N   0  0  0  0  0  0  0  0  0  0  0  0
  141.0680   72.2930  227.2040 C   0  0  0  0  0  0  0  0  0  0  0  0
  141.6400   71.4160  226.1210 C   0  0  0  0  0  0  0  0  0  0  0  0
  142.5440   72.7910  220.8030 C   0  0  0  0  0  0  0  0  0  0  0  0
  145.3560   74.0060  218.3260 H   0  0  0  0  0  0  0  0  0  0  0  0
  146.7700   74.0180  219.2310 H   0  0  0  0  0  0  0  0  0  0  0  0
  144.4237   75.5013  219.9657 H   0  0  0  0  0  0  0  0  0  0  0  0
  142.1938   76.5562  220.2115 H   0  0  0  0  0  0  0  0  0  0  0  0
  140.2453   75.2290  220.8171 H   0  0  0  0  0  0  0  0  0  0  0  0
  139.3244   72.4444  220.5435 H   0  0  0  0  0  0  0  0  0  0  0  0
  139.9845   72.6438  223.4008 H   0  0  0  0  0  0  0  0  0  0  0  0
  139.1456   68.5351  219.2143 H   0  0  0  0  0  0  0  0  0  0  0  0
  138.6113   66.1011  219.1895 H   0  0  0  0  0  0  0  0  0  0  0  0
  138.3301   64.8559  221.3213 H   0  0  0  0  0  0  0  0  0  0  0  0
  138.5891   66.0557  223.4748 H   0  0  0  0  0  0  0  0  0  0  0  0
  139.8393   71.7474  224.7531 H   0  0  0  0  0  0  0  0  0  0  0  0
  138.6972   70.5353  225.5686 H   0  0  0  0  0  0  0  0  0  0  0  0
  141.2154   69.3842  225.4155 H   0  0  0  0  0  0  0  0  0  0  0  0
  139.4192   68.9734  226.9808 H   0  0  0  0  0  0  0  0  0  0  0  0
  141.1844   68.9591  227.4846 H   0  0  0  0  0  0  0  0  0  0  0  0
  139.0548   70.9824  228.1386 H   0  0  0  0  0  0  0  0  0  0  0  0
  140.0385   69.9284  229.2421 H   0  0  0  0  0  0  0  0  0  0  0  0
  141.9670   71.1820  228.6930 H   0  0  0  0  0  0  0  0  0  0  0  0
  140.0467   72.5986  226.9326 H   0  0  0  0  0  0  0  0  0  0  0  0
  141.6886   73.1930  227.3258 H   0  0  0  0  0  0  0  0  0  0  0  0
  141.7216   71.9892  225.1857 H   0  0  0  0  0  0  0  0  0  0  0  0
  142.6400   71.0641  226.4144 H   0  0  0  0  0  0  0  0  0  0  0  0
  142.6651   71.7104  220.9694 H   0  0  0  0  0  0  0  0  0  0  0  0
  1  2  1  0
  2  3  2  0
  2  4  2  0
  2  5  1  0
  5  6  2  0
  6  7  1  0
  7  8  2  0
  8  9  1  0
  9 10  1  0
 10 11  2  0
 11 12  1  0
 12 13  2  0
 13 14  1  0
 14 15  2  0
 15 16  1  0
 16 17  2  0
 17 18  1  0
 18 19  2  0
 19 20  1  0
 20 21  2  0
 20 22  1  0
 22 23  1  0
 23 24  1  0
 24 25  1  0
 25 26  1  0
 26 27  1  0
 27 28  1  0
 28 29  1  0
  9 30  2  0
 30  5  1  0
 22 12  1  0
 29 24  1  0
 19 14  1  0
  1 31  1  0
  1 32  1  0
  6 33  1  0
  7 34  1  0
  8 35  1  0
 10 36  1  0
 11 37  1  0
 15 38  1  0
 16 39  1  0
 17 40  1  0
 18 41  1  0
 23 42  1  0
 23 43  1  0
 24 44  1  0
 25 45  1  0
 25 46  1  0
 26 47  1  0
 26 48  1  0
 27 49  1  0
 28 50  1  0
 28 51  1  0
 29 52  1  0
 29 53  1  0
 30 54  1  0
M  END
>  <smiles>  (24) 
NS(=O)(=O)c1cccc(/C=C/c2nc3ccccc3c(=O)n2CC2CCNCC2)c1

>  <score_type>  (24) 
oracle

>  <origin>  (24) 
autodockgpu

>  <m_score__min__energy>  (24) 
-9.5099999999999998

>  <m_primary>  (24) 
energy

>  <rmsd>  (24) 
10.946965789578138

>  <m_score__min__rmsd>  (24) 
10.946965789578138

>  <meeko>  (24) 
{"free_energy": -8.74, "intermolecular_energy": -10.83, "internal_energy": -1.22, "cluster_size": 2, "cluster_id": 4, "rank_in_cluster": 2}

>  <energy>  (24) 
-8.55

>  <cluster_rmsd>  (24) 
0.8

>  <cluster>  (24) 
3

$$$$

     RDKit          3D

 54 57  0  0  0  0  0  0  0  0999 V2000
  144.3920   71.9020  220.8270 N   0  0  0  0  0  0  0  0  0  0  0  0
  145.1240   73.4150  220.4260 S   0  0  0  0  0  0  0  0  0  0  0  0
  145.9800   73.8550  221.5980 O   0  0  0  0  0  0  0  0  0  0  0  0
  145.9200   73.2900  219.1810 O   0  0  0  0  0  0  0  0  0  0  0  0
  143.8250   74.6000  220.2660 C   0  0  0  0  0  0  0  0  0  0  0  0
  144.0750   75.8230  219.6770 C   0  0  0  0  0  0  0  0  0  0  0  0
  143.0380   76.7160  219.5720 C   0  0  0  0  0  0  0  0  0  0  0  0
  141.7940   76.4040  220.0370 C   0  0  0  0  0  0  0  0  0  0  0  0
  141.4960   75.1750  220.6410 C   0  0  0  0  0  0  0  0  0  0  0  0
  140.1550   74.8740  221.1260 C   0  0  0  0  0  0  0  0  0  0  0  0
  139.6220   75.4070  222.2080 C   0  0  0  0  0  0  0  0  0  0  0  0
  139.7410   76.8470  222.4460 C   0  0  0  0  0  0  0  0  0  0  0  0
  140.9850   77.3220  222.7560 N   0  0  0  0  0  0  0  0  0  0  0  0
  141.2280   78.6070  222.9930 C   0  0  0  0  0  0  0  0  0  0  0  0
  142.5050   79.0290  223.3010 C   0  0  0  0  0  0  0  0  0  0  0  0
  142.7190   80.3780  223.5420 C   0  0  0  0  0  0  0  0  0  0  0  0
  141.6770   81.2820  223.4760 C   0  0  0  0  0  0  0  0  0  0  0  0
  140.4090   80.8200  223.1640 C   0  0  0  0  0  0  0  0  0  0  0  0
  140.1610   79.4830  222.9190 C   0  0  0  0  0  0  0  0  0  0  0  0
  138.9190   78.9930  222.6080 C   0  0  0  0  0  0  0  0  0  0  0  0
  137.9780   79.8520  222.5570 O   0  0  0  0  0  0  0  0  0  0  0  0
  138.6810   77.6750  222.3660 N   0  0  0  0  0  0  0  0  0  0  0  0
  137.3850   77.1800  222.0230 C   0  0  0  0  0  0  0  0  0  0  0  0
  136.6090   76.5110  223.1050 C   0  0  0  0  0  0  0  0  0  0  0  0
  136.2100   75.1070  222.8990 C   0  0  0  0  0  0  0  0  0  0  0  0
  134.9330   74.9260  222.1230 C   0  0  0  0  0  0  0  0  0  0  0  0
  133.8870   75.8210  222.5820 N   0  0  0  0  0  0  0  0  0  0  0  0
  134.3380   77.1670  222.4210 C   0  0  0  0  0  0  0  0  0  0  0  0
  135.4380   77.4270  223.4190 C   0  0  0  0  0  0  0  0  0  0  0  0
  142.5550   74.2960  220.7350 C   0  0  0  0  0  0  0  0  0  0  0  0
  144.7340   71.5110  221.7320 H   0  0  0  0  0  0  0  0  0  0  0  0
  143.3730   72.0730  220.9260 H   0  0  0  0  0  0  0  0  0  0  0  0
  145.0779   76.0751  219.3020 H   0  0  0  0  0  0  0  0  0  0  0  0
  143.2124   77.6972  219.1063 H   0  0  0  0  0  0  0  0  0  0  0  0
  140.9909   77.1485  219.9335 H   0  0  0  0  0  0  0  0  0  0  0  0
  139.5490   74.1567  220.5531 H   0  0  0  0  0  0  0  0  0  0  0  0
  139.0891   74.7712  222.9303 H   0  0  0  0  0  0  0  0  0  0  0  0
  143.3362   78.3104  223.3543 H   0  0  0  0  0  0  0  0  0  0  0  0
  143.7308   80.7321  223.7887 H   0  0  0  0  0  0  0  0  0  0  0  0
  141.8511   82.3510  223.6680 H   0  0  0  0  0  0  0  0  0  0  0  0
  139.5767   81.5372  223.1098 H   0  0  0  0  0  0  0  0  0  0  0  0
  136.7884   78.0319  221.6646 H   0  0  0  0  0  0  0  0  0  0  0  0
  137.5676   76.3948  221.2746 H   0  0  0  0  0  0  0  0  0  0  0  0
  137.2860   76.3818  223.9623 H   0  0  0  0  0  0  0  0  0  0  0  0
  137.0180   74.5971  222.3538 H   0  0  0  0  0  0  0  0  0  0  0  0
  136.0302   74.6841  223.8984 H   0  0  0  0  0  0  0  0  0  0  0  0
  135.1317   75.1274  221.0600 H   0  0  0  0  0  0  0  0  0  0  0  0
  134.5869   73.8928  222.2740 H   0  0  0  0  0  0  0  0  0  0  0  0
  133.5750   75.6130  223.5440 H   0  0  0  0  0  0  0  0  0  0  0  0
  134.7221   77.3098  221.4002 H   0  0  0  0  0  0  0  0  0  0  0  0
  133.5050   77.8656  222.5885 H   0  0  0  0  0  0  0  0  0  0  0  0
  135.7602   78.4764  223.3493 H   0  0  0  0  0  0  0  0  0  0  0  0
  135.0727   77.2315  224.4380 H   0  0  0  0  0  0  0  0  0  0  0  0
  142.3857   73.3140  221.2008 H   0  0  0  0  0  0  0  0  0  0  0  0
  1  2  1  0
  2  3  2  0
  2  4  2  0
  2  5  1  0
  5  6  2  0
  6  7  1  0
  7  8  2  0
  8  9  1  0
  9 10  1  0
 10 11  2  0
 11 12  1  0
 12 13  2  0
 13 14  1  0
 14 15  2  0
 15 16  1  0
 16 17  2  0
 17 18  1  0
 18 19  2  0
 19 20  1  0
 20 21  2  0
 20 22  1  0
 22 23  1  0
 23 24  1  0
 24 25  1  0
 25 26  1  0
 26 27  1  0
 27 28  1  0
 28 29  1  0
  9 30  2  0
 30  5  1  0
 22 12  1  0
 29 24  1  0
 19 14  1  0
  1 31  1  0
  1 32  1  0
  6 33  1  0
  7 34  1  0
  8 35  1  0
 10 36  1  0
 11 37  1  0
 15 38  1  0
 16 39  1  0
 17 40  1  0
 18 41  1  0
 23 42  1  0
 23 43  1  0
 24 44  1  0
 25 45  1  0
 25 46  1  0
 26 47  1  0
 26 48  1  0
 27 49  1  0
 28 50  1  0
 28 51  1  0
 29 52  1  0
 29 53  1  0
 30 54  1  0
M  END
>  <smiles>  (25) 
NS(=O)(=O)c1cccc(/C=C/c2nc3ccccc3c(=O)n2CC2CCNCC2)c1

>  <score_type>  (25) 
oracle

>  <origin>  (25) 
autodockgpu

>  <m_score__min__energy>  (25) 
-9.5099999999999998

>  <m_primary>  (25) 
energy

>  <rmsd>  (25) 
6.773221283582182

>  <m_score__min__rmsd>  (25) 
6.773221283582182

>  <meeko>  (25) 
{"free_energy": -7.67, "intermolecular_energy": -9.76, "internal_energy": -1.51, "cluster_size": 1, "cluster_id": 9, "rank_in_cluster": 1}

>  <energy>  (25) 
-8.99

>  <cluster_rmsd>  (25) 
0.0

>  <cluster>  (25) 
4

$$$$

     RDKit          3D

 54 57  0  0  0  0  0  0  0  0999 V2000
  145.9200   73.4120  218.7350 N   0  0  0  0  0  0  0  0  0  0  0  0
  145.4790   73.5960  220.3960 S   0  0  0  0  0  0  0  0  0  0  0  0
  146.3430   72.6670  221.2240 O   0  0  0  0  0  0  0  0  0  0  0  0
  145.6310   75.0100  220.8160 O   0  0  0  0  0  0  0  0  0  0  0  0
  143.8130   73.0320  220.5610 C   0  0  0  0  0  0  0  0  0  0  0  0
  143.5240   71.6880  220.4390 C   0  0  0  0  0  0  0  0  0  0  0  0
  142.2180   71.2910  220.5730 C   0  0  0  0  0  0  0  0  0  0  0  0
  141.2310   72.2000  220.8220 C   0  0  0  0  0  0  0  0  0  0  0  0
  141.4790   73.5720  220.9540 C   0  0  0  0  0  0  0  0  0  0  0  0
  140.4010   74.5150  221.2200 C   0  0  0  0  0  0  0  0  0  0  0  0
  140.0980   75.5340  220.4380 C   0  0  0  0  0  0  0  0  0  0  0  0
  140.6310   76.8650  220.7360 C   0  0  0  0  0  0  0  0  0  0  0  0
  140.9120   77.1400  222.0450 N   0  0  0  0  0  0  0  0  0  0  0  0
  141.4010   78.3090  222.4480 C   0  0  0  0  0  0  0  0  0  0  0  0
  141.6660   78.5290  223.7840 C   0  0  0  0  0  0  0  0  0  0  0  0
  142.1760   79.7620  224.1660 C   0  0  0  0  0  0  0  0  0  0  0  0
  142.4130   80.7490  223.2290 C   0  0  0  0  0  0  0  0  0  0  0  0
  142.1350   80.4900  221.8970 C   0  0  0  0  0  0  0  0  0  0  0  0
  141.6260   79.2730  221.4830 C   0  0  0  0  0  0  0  0  0  0  0  0
  141.3400   78.9840  220.1740 C   0  0  0  0  0  0  0  0  0  0  0  0
  141.5680   79.9170  219.3350 O   0  0  0  0  0  0  0  0  0  0  0  0
  140.8400   77.7840  219.7720 N   0  0  0  0  0  0  0  0  0  0  0  0
  140.5640   77.4880  218.4020 C   0  0  0  0  0  0  0  0  0  0  0  0
  141.7370   77.2840  217.5060 C   0  0  0  0  0  0  0  0  0  0  0  0
  141.8480   75.9940  216.8010 C   0  0  0  0  0  0  0  0  0  0  0  0
  142.5000   74.8960  217.5990 C   0  0  0  0  0  0  0  0  0  0  0  0
  143.7000   75.3550  218.2730 N   0  0  0  0  0  0  0  0  0  0  0  0
  143.3460   76.4220  219.1560 C   0  0  0  0  0  0  0  0  0  0  0  0
  142.9680   77.6240  218.3290 C   0  0  0  0  0  0  0  0  0  0  0  0
  142.8000   73.9450  220.8140 C   0  0  0  0  0  0  0  0  0  0  0  0
  145.3010   73.9480  218.0880 H   0  0  0  0  0  0  0  0  0  0  0  0
  146.8810   73.7890  218.6310 H   0  0  0  0  0  0  0  0  0  0  0  0
  144.3196   70.9550  220.2397 H   0  0  0  0  0  0  0  0  0  0  0  0
  141.9626   70.2252  220.4785 H   0  0  0  0  0  0  0  0  0  0  0  0
  140.1966   71.8397  220.9234 H   0  0  0  0  0  0  0  0  0  0  0  0
  139.8014   74.3684  222.1305 H   0  0  0  0  0  0  0  0  0  0  0  0
  139.4466   75.3839  219.5644 H   0  0  0  0  0  0  0  0  0  0  0  0
  141.4771   77.7437  224.5307 H   0  0  0  0  0  0  0  0  0  0  0  0
  142.3939   79.9554  225.2267 H   0  0  0  0  0  0  0  0  0  0  0  0
  142.8162   81.7254  223.5359 H   0  0  0  0  0  0  0  0  0  0  0  0
  142.3242   81.2736  221.1485 H   0  0  0  0  0  0  0  0  0  0  0  0
  139.9620   76.5677  218.3758 H   0  0  0  0  0  0  0  0  0  0  0  0
  140.0579   78.3834  218.0119 H   0  0  0  0  0  0  0  0  0  0  0  0
  141.6092   77.9525  216.6419 H   0  0  0  0  0  0  0  0  0  0  0  0
  140.8347   75.6642  216.5281 H   0  0  0  0  0  0  0  0  0  0  0  0
  142.4946   76.1707  215.9288 H   0  0  0  0  0  0  0  0  0  0  0  0
  141.7860   74.5324  218.3527 H   0  0  0  0  0  0  0  0  0  0  0  0
  142.7862   74.0934  216.9033 H   0  0  0  0  0  0  0  0  0  0  0  0
  144.4560   75.6100  217.6170 H   0  0  0  0  0  0  0  0  0  0  0  0
  142.4929   76.1187  219.7807 H   0  0  0  0  0  0  0  0  0  0  0  0
  144.1962   76.6673  219.8095 H   0  0  0  0  0  0  0  0  0  0  0  0
  142.7468   78.4739  218.9914 H   0  0  0  0  0  0  0  0  0  0  0  0
  143.7999   77.8960  217.6627 H   0  0  0  0  0  0  0  0  0  0  0  0
  143.0603   75.0097  220.9068 H   0  0  0  0  0  0  0  0  0  0  0  0
  1  2  1  0
  2  3  2  0
  2  4  2  0
  2  5  1  0
  5  6  2  0
  6  7  1  0
  7  8  2  0
  8  9  1  0
  9 10  1  0
 10 11  2  0
 11 12  1  0
 12 13  2  0
 13 14  1  0
 14 15  2  0
 15 16  1  0
 16 17  2  0
 17 18  1  0
 18 19  2  0
 19 20  1  0
 20 21  2  0
 20 22  1  0
 22 23  1  0
 23 24  1  0
 24 25  1  0
 25 26  1  0
 26 27  1  0
 27 28  1  0
 28 29  1  0
  9 30  2  0
 30  5  1  0
 22 12  1  0
 29 24  1  0
 19 14  1  0
  1 31  1  0
  1 32  1  0
  6 33  1  0
  7 34  1  0
  8 35  1  0
 10 36  1  0
 11 37  1  0
 15 38  1  0
 16 39  1  0
 17 40  1  0
 18 41  1  0
 23 42  1  0
 23 43  1  0
 24 44  1  0
 25 45  1  0
 25 46  1  0
 26 47  1  0
 26 48  1  0
 27 49  1  0
 28 50  1  0
 28 51  1  0
 29 52  1  0
 29 53  1  0
 30 54  1  0
M  END
>  <smiles>  (26) 
NS(=O)(=O)c1cccc(/C=C/c2nc3ccccc3c(=O)n2CC2CCNCC2)c1

>  <score_type>  (26) 
oracle

>  <origin>  (26) 
autodockgpu

>  <m_score__min__energy>  (26) 
-9.5099999999999998

>  <m_primary>  (26) 
energy

>  <rmsd>  (26) 
6.456273906237145

>  <m_score__min__rmsd>  (26) 
6.456273906237145

>  <meeko>  (26) 
{"free_energy": -7.89, "intermolecular_energy": -9.97, "internal_energy": -2.56, "cluster_size": 4, "cluster_id": 7, "rank_in_cluster": 2}

>  <energy>  (26) 
-8.74

>  <cluster_rmsd>  (26) 
0.79

>  <cluster>  (26) 
4

$$$$

     RDKit          3D

 54 57  0  0  0  0  0  0  0  0999 V2000
  146.2540   73.4080  218.3730 N   0  0  0  0  0  0  0  0  0  0  0  0
  145.7000   72.5820  219.7870 S   0  0  0  0  0  0  0  0  0  0  0  0
  146.1700   71.1430  219.7130 O   0  0  0  0  0  0  0  0  0  0  0  0
  146.1970   73.2610  221.0080 O   0  0  0  0  0  0  0  0  0  0  0  0
  143.9360   72.5510  219.7180 C   0  0  0  0  0  0  0  0  0  0  0  0
  143.2950   72.4410  218.5010 C   0  0  0  0  0  0  0  0  0  0  0  0
  141.9230   72.4210  218.4910 C   0  0  0  0  0  0  0  0  0  0  0  0
  141.2110   72.5070  219.6520 C   0  0  0  0  0  0  0  0  0  0  0  0
  141.8210   72.6190  220.9080 C   0  0  0  0  0  0  0  0  0  0  0  0
  141.0300   72.7080  222.1290 C   0  0  0  0  0  0  0  0  0  0  0  0
  139.9690   71.9660  222.3800 C   0  0  0  0  0  0  0  0  0  0  0  0
  139.9220   71.1490  223.5950 C   0  0  0  0  0  0  0  0  0  0  0  0
  140.4540   71.6970  224.7300 N   0  0  0  0  0  0  0  0  0  0  0  0
  140.4720   71.0630  225.8970 C   0  0  0  0  0  0  0  0  0  0  0  0
  141.0220   71.6660  227.0090 C   0  0  0  0  0  0  0  0  0  0  0  0
  141.0220   70.9710  228.2100 C   0  0  0  0  0  0  0  0  0  0  0  0
  140.4840   69.7020  228.2930 C   0  0  0  0  0  0  0  0  0  0  0  0
  139.9410   69.1300  227.1540 C   0  0  0  0  0  0  0  0  0  0  0  0
  139.9250   69.7930  225.9420 C   0  0  0  0  0  0  0  0  0  0  0  0
  139.3950   69.2560  224.7980 C   0  0  0  0  0  0  0  0  0  0  0  0
  138.9080   68.0830  224.9070 O   0  0  0  0  0  0  0  0  0  0  0  0
  139.3810   69.9150  223.6070 N   0  0  0  0  0  0  0  0  0  0  0  0
  138.8080   69.3520  222.4250 C   0  0  0  0  0  0  0  0  0  0  0  0
  137.4090   69.7470  222.0980 C   0  0  0  0  0  0  0  0  0  0  0  0
  136.5570   70.2360  223.1980 C   0  0  0  0  0  0  0  0  0  0  0  0
  135.8710   69.1550  223.9890 C   0  0  0  0  0  0  0  0  0  0  0  0
  135.2790   68.1460  223.1300 N   0  0  0  0  0  0  0  0  0  0  0  0
  136.3160   67.5560  222.3410 C   0  0  0  0  0  0  0  0  0  0  0  0
  136.8000   68.5770  221.3440 C   0  0  0  0  0  0  0  0  0  0  0  0
  143.2000   72.6380  220.8910 C   0  0  0  0  0  0  0  0  0  0  0  0
  145.5500   74.0770  217.9910 H   0  0  0  0  0  0  0  0  0  0  0  0
  147.0900   73.9580  218.6490 H   0  0  0  0  0  0  0  0  0  0  0  0
  143.8681   72.3713  217.5647 H   0  0  0  0  0  0  0  0  0  0  0  0
  141.3892   72.3344  217.5331 H   0  0  0  0  0  0  0  0  0  0  0  0
  140.1124   72.4876  219.5993 H   0  0  0  0  0  0  0  0  0  0  0  0
  141.3376   73.4407  222.8896 H   0  0  0  0  0  0  0  0  0  0  0  0
  139.1215   71.9606  221.6788 H   0  0  0  0  0  0  0  0  0  0  0  0
  141.4516   72.6766  226.9450 H   0  0  0  0  0  0  0  0  0  0  0  0
  141.4560   71.4367  229.1071 H   0  0  0  0  0  0  0  0  0  0  0  0
  140.4865   69.1546  229.2471 H   0  0  0  0  0  0  0  0  0  0  0  0
  139.5105   68.1196  227.2164 H   0  0  0  0  0  0  0  0  0  0  0  0
  139.4429   69.6455  221.5760 H   0  0  0  0  0  0  0  0  0  0  0  0
  138.7622   68.2698  222.6169 H   0  0  0  0  0  0  0  0  0  0  0  0
  137.4605   70.6613  221.4885 H   0  0  0  0  0  0  0  0  0  0  0  0
  137.1870   70.8177  223.8870 H   0  0  0  0  0  0  0  0  0  0  0  0
  135.7600   70.8339  222.7320 H   0  0  0  0  0  0  0  0  0  0  0  0
  136.6094   68.6730  224.6465 H   0  0  0  0  0  0  0  0  0  0  0  0
  135.0634   69.6211  224.5725 H   0  0  0  0  0  0  0  0  0  0  0  0
  134.4990   68.5120  222.5610 H   0  0  0  0  0  0  0  0  0  0  0  0
  137.1483   67.2497  222.9918 H   0  0  0  0  0  0  0  0  0  0  0  0
  135.9308   66.6699  221.8152 H   0  0  0  0  0  0  0  0  0  0  0  0
  137.5590   68.1237  220.6894 H   0  0  0  0  0  0  0  0  0  0  0  0
  135.9581   68.9266  220.7283 H   0  0  0  0  0  0  0  0  0  0  0  0
  143.7382   72.7257  221.8463 H   0  0  0  0  0  0  0  0  0  0  0  0
  1  2  1  0
  2  3  2  0
  2  4  2  0
  2  5  1  0
  5  6  2  0
  6  7  1  0
  7  8  2  0
  8  9  1  0
  9 10  1  0
 10 11  2  0
 11 12  1  0
 12 13  2  0
 13 14  1  0
 14 15  2  0
 15 16  1  0
 16 17  2  0
 17 18  1  0
 18 19  2  0
 19 20  1  0
 20 21  2  0
 20 22  1  0
 22 23  1  0
 23 24  1  0
 24 25  1  0
 25 26  1  0
 26 27  1  0
 27 28  1  0
 28 29  1  0
  9 30  2  0
 30  5  1  0
 22 12  1  0
 29 24  1  0
 19 14  1  0
  1 31  1  0
  1 32  1  0
  6 33  1  0
  7 34  1  0
  8 35  1  0
 10 36  1  0
 11 37  1  0
 15 38  1  0
 16 39  1  0
 17 40  1  0
 18 41  1  0
 23 42  1  0
 23 43  1  0
 24 44  1  0
 25 45  1  0
 25 46  1  0
 26 47  1  0
 26 48  1  0
 27 49  1  0
 28 50  1  0
 28 51  1  0
 29 52  1  0
 29 53  1  0
 30 54  1  0
M  END
>  <smiles>  (27) 
NS(=O)(=O)c1cccc(/C=C/c2nc3ccccc3c(=O)n2CC2CCNCC2)c1

>  <score_type>  (27) 
oracle

>  <origin>  (27) 
autodockgpu

>  <m_score__min__energy>  (27) 
-9.5099999999999998

>  <m_primary>  (27) 
energy

>  <rmsd>  (27) 
12.182591686355872

>  <m_score__min__rmsd>  (27) 
12.182591686355872

>  <meeko>  (27) 
{"free_energy": -8.76, "intermolecular_energy": -10.84, "internal_energy": -1.42, "cluster_size": 18, "cluster_id": 1, "rank_in_cluster": 13}

>  <energy>  (27) 
-8.36

>  <cluster_rmsd>  (27) 
0.0

>  <cluster>  (27) 
5

$$$$

     RDKit          3D

 54 57  0  0  0  0  0  0  0  0999 V2000
  145.9610   73.4170  218.5580 N   0  0  0  0  0  0  0  0  0  0  0  0
  145.3790   72.9000  220.1010 S   0  0  0  0  0  0  0  0  0  0  0  0
  145.1290   71.4060  220.0400 O   0  0  0  0  0  0  0  0  0  0  0  0
  146.3530   73.2520  221.1630 O   0  0  0  0  0  0  0  0  0  0  0  0
  143.8120   73.6730  220.3560 C   0  0  0  0  0  0  0  0  0  0  0  0
  143.5990   74.9630  219.9150 C   0  0  0  0  0  0  0  0  0  0  0  0
  142.3680   75.5280  220.1330 C   0  0  0  0  0  0  0  0  0  0  0  0
  141.3800   74.8340  220.7690 C   0  0  0  0  0  0  0  0  0  0  0  0
  141.5530   73.5230  221.2330 C   0  0  0  0  0  0  0  0  0  0  0  0
  140.4760   72.8100  221.9080 C   0  0  0  0  0  0  0  0  0  0  0  0
  140.4410   71.5010  222.0690 C   0  0  0  0  0  0  0  0  0  0  0  0
  140.2260   70.9350  223.4030 C   0  0  0  0  0  0  0  0  0  0  0  0
  140.7740   71.6120  224.4570 N   0  0  0  0  0  0  0  0  0  0  0  0
  140.6510   71.2070  225.7170 C   0  0  0  0  0  0  0  0  0  0  0  0
  141.2260   71.9310  226.7400 C   0  0  0  0  0  0  0  0  0  0  0  0
  141.0750   71.4760  228.0420 C   0  0  0  0  0  0  0  0  0  0  0  0
  140.3660   70.3210  228.3100 C   0  0  0  0  0  0  0  0  0  0  0  0
  139.8030   69.6210  227.2550 C   0  0  0  0  0  0  0  0  0  0  0  0
  139.9340   70.0470  225.9470 C   0  0  0  0  0  0  0  0  0  0  0  0
  139.3910   69.3790  224.8800 C   0  0  0  0  0  0  0  0  0  0  0  0
  138.7440   68.3160  225.1610 O   0  0  0  0  0  0  0  0  0  0  0  0
  139.5220   69.8030  223.5940 N   0  0  0  0  0  0  0  0  0  0  0  0
  138.9340   69.1080  222.4930 C   0  0  0  0  0  0  0  0  0  0  0  0
  137.6260   69.6180  221.9930 C   0  0  0  0  0  0  0  0  0  0  0  0
  137.2600   71.0090  222.3180 C   0  0  0  0  0  0  0  0  0  0  0  0
  136.6070   71.1880  223.6620 C   0  0  0  0  0  0  0  0  0  0  0  0
  135.5820   70.1900  223.9050 N   0  0  0  0  0  0  0  0  0  0  0  0
  136.1860   68.8950  223.8520 C   0  0  0  0  0  0  0  0  0  0  0  0
  136.5790   68.6070  222.4260 C   0  0  0  0  0  0  0  0  0  0  0  0
  142.7990   72.9790  221.0020 C   0  0  0  0  0  0  0  0  0  0  0  0
  145.3470   74.1330  218.1110 H   0  0  0  0  0  0  0  0  0  0  0  0
  146.8890   73.8550  218.7130 H   0  0  0  0  0  0  0  0  0  0  0  0
  144.3948   75.5233  219.4024 H   0  0  0  0  0  0  0  0  0  0  0  0
  142.1746   76.5552  219.7902 H   0  0  0  0  0  0  0  0  0  0  0  0
  140.4074   75.3240  220.9239 H   0  0  0  0  0  0  0  0  0  0  0  0
  139.6391   73.4008  222.3087 H   0  0  0  0  0  0  0  0  0  0  0  0
  140.5730   70.8357  221.2030 H   0  0  0  0  0  0  0  0  0  0  0  0
  141.7924   72.8499  226.5283 H   0  0  0  0  0  0  0  0  0  0  0  0
  141.5253   72.0418  228.8709 H   0  0  0  0  0  0  0  0  0  0  0  0
  140.2503   69.9630  229.3437 H   0  0  0  0  0  0  0  0  0  0  0  0
  139.2366   68.7016  227.4643 H   0  0  0  0  0  0  0  0  0  0  0  0
  139.6473   69.1471  221.6565 H   0  0  0  0  0  0  0  0  0  0  0  0
  138.7209   68.0980  222.8731 H   0  0  0  0  0  0  0  0  0  0  0  0
  137.7041   69.7022  220.8990 H   0  0  0  0  0  0  0  0  0  0  0  0
  138.1756   71.6183  222.2977 H   0  0  0  0  0  0  0  0  0  0  0  0
  136.5181   71.3193  221.5675 H   0  0  0  0  0  0  0  0  0  0  0  0
  137.3758   71.1054  224.4443 H   0  0  0  0  0  0  0  0  0  0  0  0
  136.1281   72.1782  223.6782 H   0  0  0  0  0  0  0  0  0  0  0  0
  134.7730   70.2830  223.2690 H   0  0  0  0  0  0  0  0  0  0  0  0
  137.0791   68.8759  224.4938 H   0  0  0  0  0  0  0  0  0  0  0  0
  135.4760   68.1338  224.2077 H   0  0  0  0  0  0  0  0  0  0  0  0
  136.9946   67.5910  222.3551 H   0  0  0  0  0  0  0  0  0  0  0  0
  135.6966   68.6800  221.7732 H   0  0  0  0  0  0  0  0  0  0  0  0
  142.9979   71.9526  221.3440 H   0  0  0  0  0  0  0  0  0  0  0  0
  1  2  1  0
  2  3  2  0
  2  4  2  0
  2  5  1  0
  5  6  2  0
  6  7  1  0
  7  8  2  0
  8  9  1  0
  9 10  1  0
 10 11  2  0
 11 12  1  0
 12 13  2  0
 13 14  1  0
 14 15  2  0
 15 16  1  0
 16 17  2  0
 17 18  1  0
 18 19  2  0
 19 20  1  0
 20 21  2  0
 20 22  1  0
 22 23  1  0
 23 24  1  0
 24 25  1  0
 25 26  1  0
 26 27  1  0
 27 28  1  0
 28 29  1  0
  9 30  2  0
 30  5  1  0
 22 12  1  0
 29 24  1  0
 19 14  1  0
  1 31  1  0
  1 32  1  0
  6 33  1  0
  7 34  1  0
  8 35  1  0
 10 36  1  0
 11 37  1  0
 15 38  1  0
 16 39  1  0
 17 40  1  0
 18 41  1  0
 23 42  1  0
 23 43  1  0
 24 44  1  0
 25 45  1  0
 25 46  1  0
 26 47  1  0
 26 48  1  0
 27 49  1  0
 28 50  1  0
 28 51  1  0
 29 52  1  0
 29 53  1  0
 30 54  1  0
M  END
>  <smiles>  (28) 
NS(=O)(=O)c1cccc(/C=C/c2nc3ccccc3c(=O)n2CC2CCNCC2)c1

>  <score_type>  (28) 
oracle

>  <origin>  (28) 
autodockgpu

>  <m_score__min__energy>  (28) 
-9.5099999999999998

>  <m_primary>  (28) 
energy

>  <rmsd>  (28) 
11.758846566797061

>  <m_score__min__rmsd>  (28) 
11.758846566797061

>  <meeko>  (28) 
{"free_energy": -9.1, "intermolecular_energy": -11.19, "internal_energy": -1.53, "cluster_size": 18, "cluster_id": 1, "rank_in_cluster": 9}

>  <energy>  (28) 
-7.64

>  <cluster_rmsd>  (28) 
0.56

>  <cluster>  (28) 
5

$$$$

     RDKit          3D

 54 57  0  0  0  0  0  0  0  0999 V2000
  131.6980   73.4390  228.0100 N   0  0  0  0  0  0  0  0  0  0  0  0
  132.6760   73.7450  226.6180 S   0  0  0  0  0  0  0  0  0  0  0  0
  131.7600   74.0000  225.4380 O   0  0  0  0  0  0  0  0  0  0  0  0
  133.5840   74.8910  226.8680 O   0  0  0  0  0  0  0  0  0  0  0  0
  133.5650   72.2600  226.2670 C   0  0  0  0  0  0  0  0  0  0  0  0
  133.6160   71.2480  227.2030 C   0  0  0  0  0  0  0  0  0  0  0  0
  134.3180   70.1110  226.8910 C   0  0  0  0  0  0  0  0  0  0  0  0
  134.9490   69.9840  225.6880 C   0  0  0  0  0  0  0  0  0  0  0  0
  134.9230   70.9860  224.7090 C   0  0  0  0  0  0  0  0  0  0  0  0
  135.6070   70.8170  223.4330 C   0  0  0  0  0  0  0  0  0  0  0  0
  136.5900   69.9620  223.2280 C   0  0  0  0  0  0  0  0  0  0  0  0
  137.8230   70.0650  224.0130 C   0  0  0  0  0  0  0  0  0  0  0  0
  138.0150   69.1260  224.9890 N   0  0  0  0  0  0  0  0  0  0  0  0
  139.0900   69.1060  225.7690 C   0  0  0  0  0  0  0  0  0  0  0  0
  139.2310   68.1330  226.7370 C   0  0  0  0  0  0  0  0  0  0  0  0
  140.3680   68.1460  227.5320 C   0  0  0  0  0  0  0  0  0  0  0  0
  141.3400   69.1120  227.3600 C   0  0  0  0  0  0  0  0  0  0  0  0
  141.1630   70.0730  226.3780 C   0  0  0  0  0  0  0  0  0  0  0  0
  140.0420   70.0890  225.5690 C   0  0  0  0  0  0  0  0  0  0  0  0
  139.8360   71.0240  224.5880 C   0  0  0  0  0  0  0  0  0  0  0  0
  140.7510   71.9030  224.4560 O   0  0  0  0  0  0  0  0  0  0  0  0
  138.7320   71.0350  223.7940 N   0  0  0  0  0  0  0  0  0  0  0  0
  138.5380   72.0040  222.7610 C   0  0  0  0  0  0  0  0  0  0  0  0
  139.1400   71.7030  221.4320 C   0  0  0  0  0  0  0  0  0  0  0  0
  140.4740   71.0760  221.4060 C   0  0  0  0  0  0  0  0  0  0  0  0
  141.6240   72.0420  221.5030 C   0  0  0  0  0  0  0  0  0  0  0  0
  141.4460   73.1870  220.6300 N   0  0  0  0  0  0  0  0  0  0  0  0
  140.2420   73.8610  221.0040 C   0  0  0  0  0  0  0  0  0  0  0  0
  139.0700   72.9920  220.6300 C   0  0  0  0  0  0  0  0  0  0  0  0
  134.2120   72.1180  225.0470 C   0  0  0  0  0  0  0  0  0  0  0  0
  131.7920   72.4630  228.3660 H   0  0  0  0  0  0  0  0  0  0  0  0
  132.0260   74.0780  228.7600 H   0  0  0  0  0  0  0  0  0  0  0  0
  133.1077   71.3497  228.1732 H   0  0  0  0  0  0  0  0  0  0  0  0
  134.3728   69.2902  227.6212 H   0  0  0  0  0  0  0  0  0  0  0  0
  135.5012   69.0562  225.4779 H   0  0  0  0  0  0  0  0  0  0  0  0
  135.2829   71.4420  222.5878 H   0  0  0  0  0  0  0  0  0  0  0  0
  136.4845   69.1729  222.4690 H   0  0  0  0  0  0  0  0  0  0  0  0
  138.4579   67.3628  226.8756 H   0  0  0  0  0  0  0  0  0  0  0  0
  140.4968   67.3777  228.3086 H   0  0  0  0  0  0  0  0  0  0  0  0
  142.2400   69.1182  227.9924 H   0  0  0  0  0  0  0  0  0  0  0  0
  141.9350   70.8440  226.2382 H   0  0  0  0  0  0  0  0  0  0  0  0
  137.4541   72.1221  222.6156 H   0  0  0  0  0  0  0  0  0  0  0  0
  139.0586   72.9066  223.1135 H   0  0  0  0  0  0  0  0  0  0  0  0
  138.5495   70.8915  220.9817 H   0  0  0  0  0  0  0  0  0  0  0  0
  140.5409   70.3772  222.2529 H   0  0  0  0  0  0  0  0  0  0  0  0
  140.5657   70.5803  220.4283 H   0  0  0  0  0  0  0  0  0  0  0  0
  141.7040   72.3960  222.5414 H   0  0  0  0  0  0  0  0  0  0  0  0
  142.5379   71.5153  221.1911 H   0  0  0  0  0  0  0  0  0  0  0  0
  141.4720   72.9360  219.6290 H   0  0  0  0  0  0  0  0  0  0  0  0
  140.2392   74.0403  222.0893 H   0  0  0  0  0  0  0  0  0  0  0  0
  140.1748   74.8277  220.4835 H   0  0  0  0  0  0  0  0  0  0  0  0
  138.1316   73.5187  220.8580 H   0  0  0  0  0  0  0  0  0  0  0  0
  139.1016   72.7648  219.5542 H   0  0  0  0  0  0  0  0  0  0  0  0
  134.1552   72.9420  224.3205 H   0  0  0  0  0  0  0  0  0  0  0  0
  1  2  1  0
  2  3  2  0
  2  4  2  0
  2  5  1  0
  5  6  2  0
  6  7  1  0
  7  8  2  0
  8  9  1  0
  9 10  1  0
 10 11  2  0
 11 12  1  0
 12 13  2  0
 13 14  1  0
 14 15  2  0
 15 16  1  0
 16 17  2  0
 17 18  1  0
 18 19  2  0
 19 20  1  0
 20 21  2  0
 20 22  1  0
 22 23  1  0
 23 24  1  0
 24 25  1  0
 25 26  1  0
 26 27  1  0
 27 28  1  0
 28 29  1  0
  9 30  2  0
 30  5  1  0
 22 12  1  0
 29 24  1  0
 19 14  1  0
  1 31  1  0
  1 32  1  0
  6 33  1  0
  7 34  1  0
  8 35  1  0
 10 36  1  0
 11 37  1  0
 15 38  1  0
 16 39  1  0
 17 40  1  0
 18 41  1  0
 23 42  1  0
 23 43  1  0
 24 44  1  0
 25 45  1  0
 25 46  1  0
 26 47  1  0
 26 48  1  0
 27 49  1  0
 28 50  1  0
 28 51  1  0
 29 52  1  0
 29 53  1  0
 30 54  1  0
M  END
>  <smiles>  (29) 
NS(=O)(=O)c1cccc(/C=C/c2nc3ccccc3c(=O)n2CC2CCNCC2)c1

>  <score_type>  (29) 
oracle

>  <origin>  (29) 
autodockgpu

>  <m_score__min__energy>  (29) 
-9.5099999999999998

>  <m_primary>  (29) 
energy

>  <rmsd>  (29) 
9.760538691042

>  <m_score__min__rmsd>  (29) 
9.760538691042

>  <meeko>  (29) 
{"free_energy": -7.67, "intermolecular_energy": -9.75, "internal_energy": -1.55, "cluster_size": 1, "cluster_id": 10, "rank_in_cluster": 1}

>  <energy>  (29) 
-7.63

>  <cluster_rmsd>  (29) 
0.69

>  <cluster>  (29) 
5

$$$$

     RDKit          3D

 54 57  0  0  0  0  0  0  0  0999 V2000
  143.3290   79.4010  222.7760 N   0  0  0  0  0  0  0  0  0  0  0  0
  142.1440   80.6450  222.9680 S   0  0  0  0  0  0  0  0  0  0  0  0
  142.3620   81.3060  224.3140 O   0  0  0  0  0  0  0  0  0  0  0  0
  142.2350   81.6200  221.8540 O   0  0  0  0  0  0  0  0  0  0  0  0
  140.5640   79.8580  223.0310 C   0  0  0  0  0  0  0  0  0  0  0  0
  139.4560   80.5690  223.4450 C   0  0  0  0  0  0  0  0  0  0  0  0
  138.2470   79.9210  223.4810 C   0  0  0  0  0  0  0  0  0  0  0  0
  138.1420   78.6100  223.1180 C   0  0  0  0  0  0  0  0  0  0  0  0
  139.2410   77.8510  222.6920 C   0  0  0  0  0  0  0  0  0  0  0  0
  139.0940   76.4530  222.3100 C   0  0  0  0  0  0  0  0  0  0  0  0
  139.3850   75.9770  221.1150 C   0  0  0  0  0  0  0  0  0  0  0  0
  140.7600   75.5820  220.8030 C   0  0  0  0  0  0  0  0  0  0  0  0
  141.1070   74.2860  221.0670 N   0  0  0  0  0  0  0  0  0  0  0  0
  142.3210   73.8000  220.8280 C   0  0  0  0  0  0  0  0  0  0  0  0
  142.6130   72.4830  221.1140 C   0  0  0  0  0  0  0  0  0  0  0  0
  143.8920   72.0140  220.8510 C   0  0  0  0  0  0  0  0  0  0  0  0
  144.8540   72.8460  220.3140 C   0  0  0  0  0  0  0  0  0  0  0  0
  144.5220   74.1630  220.0400 C   0  0  0  0  0  0  0  0  0  0  0  0
  143.2580   74.6630  220.2900 C   0  0  0  0  0  0  0  0  0  0  0  0
  142.8970   75.9600  220.0310 C   0  0  0  0  0  0  0  0  0  0  0  0
  143.8090   76.7030  219.5370 O   0  0  0  0  0  0  0  0  0  0  0  0
  141.6510   76.4460  220.2780 N   0  0  0  0  0  0  0  0  0  0  0  0
  141.2810   77.7950  219.9850 C   0  0  0  0  0  0  0  0  0  0  0  0
  141.4150   78.2400  218.5690 C   0  0  0  0  0  0  0  0  0  0  0  0
  142.6160   79.0110  218.2000 C   0  0  0  0  0  0  0  0  0  0  0  0
  142.5160   80.4900  218.4620 C   0  0  0  0  0  0  0  0  0  0  0  0
  141.2490   81.0370  218.0130 N   0  0  0  0  0  0  0  0  0  0  0  0
  140.1940   80.3710  218.7100 C   0  0  0  0  0  0  0  0  0  0  0  0
  140.1170   78.9480  218.2200 C   0  0  0  0  0  0  0  0  0  0  0  0
  140.4440   78.5260  222.6650 C   0  0  0  0  0  0  0  0  0  0  0  0
  143.0120   78.6320  222.1450 H   0  0  0  0  0  0  0  0  0  0  0  0
  144.1620   79.8390  222.3390 H   0  0  0  0  0  0  0  0  0  0  0  0
  139.5397   81.6259  223.7380 H   0  0  0  0  0  0  0  0  0  0  0  0
  137.3493   80.4665  223.8073 H   0  0  0  0  0  0  0  0  0  0  0  0
  137.1539   78.1285  223.1614 H   0  0  0  0  0  0  0  0  0  0  0  0
  138.7162   75.7495  223.0665 H   0  0  0  0  0  0  0  0  0  0  0  0
  138.5966   75.8769  220.3545 H   0  0  0  0  0  0  0  0  0  0  0  0
  141.8480   71.8183  221.5417 H   0  0  0  0  0  0  0  0  0  0  0  0
  144.1427   70.9662  221.0731 H   0  0  0  0  0  0  0  0  0  0  0  0
  145.8668   72.4698  220.1072 H   0  0  0  0  0  0  0  0  0  0  0  0
  145.2855   74.8290  219.6117 H   0  0  0  0  0  0  0  0  0  0  0  0
  140.2271   77.9205  220.2742 H   0  0  0  0  0  0  0  0  0  0  0  0
  141.9930   78.4158  220.5486 H   0  0  0  0  0  0  0  0  0  0  0  0
  141.5836   77.3415  217.9573 H   0  0  0  0  0  0  0  0  0  0  0  0
  143.4667   78.6173  218.7756 H   0  0  0  0  0  0  0  0  0  0  0  0
  142.7396   78.8945  217.1132 H   0  0  0  0  0  0  0  0  0  0  0  0
  142.6160   80.6667  219.5431 H   0  0  0  0  0  0  0  0  0  0  0  0
  143.3197   80.9896  217.9012 H   0  0  0  0  0  0  0  0  0  0  0  0
  141.1380   81.0010  216.9870 H   0  0  0  0  0  0  0  0  0  0  0  0
  140.4001   80.3802  219.7905 H   0  0  0  0  0  0  0  0  0  0  0  0
  139.2388   80.8843  218.5250 H   0  0  0  0  0  0  0  0  0  0  0  0
  139.2737   78.4348  218.7053 H   0  0  0  0  0  0  0  0  0  0  0  0
  139.9651   78.9352  217.1306 H   0  0  0  0  0  0  0  0  0  0  0  0
  141.3450   77.9852  222.3397 H   0  0  0  0  0  0  0  0  0  0  0  0
  1  2  1  0
  2  3  2  0
  2  4  2  0
  2  5  1  0
  5  6  2  0
  6  7  1  0
  7  8  2  0
  8  9  1  0
  9 10  1  0
 10 11  2  0
 11 12  1  0
 12 13  2  0
 13 14  1  0
 14 15  2  0
 15 16  1  0
 16 17  2  0
 17 18  1  0
 18 19  2  0
 19 20  1  0
 20 21  2  0
 20 22  1  0
 22 23  1  0
 23 24  1  0
 24 25  1  0
 25 26  1  0
 26 27  1  0
 27 28  1  0
 28 29  1  0
  9 30  2  0
 30  5  1  0
 22 12  1  0
 29 24  1  0
 19 14  1  0
  1 31  1  0
  1 32  1  0
  6 33  1  0
  7 34  1  0
  8 35  1  0
 10 36  1  0
 11 37  1  0
 15 38  1  0
 16 39  1  0
 17 40  1  0
 18 41  1  0
 23 42  1  0
 23 43  1  0
 24 44  1  0
 25 45  1  0
 25 46  1  0
 26 47  1  0
 26 48  1  0
 27 49  1  0
 28 50  1  0
 28 51  1  0
 29 52  1  0
 29 53  1  0
 30 54  1  0
M  END
>  <smiles>  (30) 
NS(=O)(=O)c1cccc(/C=C/c2nc3ccccc3c(=O)n2CC2CCNCC2)c1

>  <score_type>  (30) 
oracle

>  <origin>  (30) 
autodockgpu

>  <m_score__min__energy>  (30) 
-9.5099999999999998

>  <m_primary>  (30) 
energy

>  <rmsd>  (30) 
4.760670569313683

>  <m_score__min__rmsd>  (30) 
4.760670569313683

>  <meeko>  (30) 
{"free_energy": -7.35, "intermolecular_energy": -9.44, "internal_energy": -1.92, "cluster_size": 1, "cluster_id": 12, "rank_in_cluster": 1}

>  <energy>  (30) 
-8.22

>  <cluster_rmsd>  (30) 
0.0

>  <cluster>  (30) 
6

$$$$

     RDKit          3D

 54 57  0  0  0  0  0  0  0  0999 V2000
  141.0710   76.4630  222.6500 N   0  0  0  0  0  0  0  0  0  0  0  0
  141.1350   78.1840  222.5080 S   0  0  0  0  0  0  0  0  0  0  0  0
  139.7270   78.7270  222.6480 O   0  0  0  0  0  0  0  0  0  0  0  0
  142.0490   78.7520  223.5290 O   0  0  0  0  0  0  0  0  0  0  0  0
  141.6670   78.5550  220.8650 C   0  0  0  0  0  0  0  0  0  0  0  0
  141.5710   79.8440  220.3830 C   0  0  0  0  0  0  0  0  0  0  0  0
  141.9940   80.0900  219.1010 C   0  0  0  0  0  0  0  0  0  0  0  0
  142.4960   79.0870  218.3230 C   0  0  0  0  0  0  0  0  0  0  0  0
  142.6110   77.7650  218.7720 C   0  0  0  0  0  0  0  0  0  0  0  0
  143.1520   76.7180  217.9150 C   0  0  0  0  0  0  0  0  0  0  0  0
  142.6240   75.5160  217.7920 C   0  0  0  0  0  0  0  0  0  0  0  0
  141.5960   75.0700  218.7350 C   0  0  0  0  0  0  0  0  0  0  0  0
  140.3090   75.0370  218.2760 N   0  0  0  0  0  0  0  0  0  0  0  0
  139.2840   74.6510  219.0290 C   0  0  0  0  0  0  0  0  0  0  0  0
  138.0050   74.6380  218.5120 C   0  0  0  0  0  0  0  0  0  0  0  0
  136.9620   74.2280  219.3300 C   0  0  0  0  0  0  0  0  0  0  0  0
  137.1960   73.8420  220.6350 C   0  0  0  0  0  0  0  0  0  0  0  0
  138.4940   73.8690  221.1180 C   0  0  0  0  0  0  0  0  0  0  0  0
  139.5560   74.2720  220.3310 C   0  0  0  0  0  0  0  0  0  0  0  0
  140.8510   74.3100  220.7780 C   0  0  0  0  0  0  0  0  0  0  0  0
  141.0340   73.9500  221.9870 O   0  0  0  0  0  0  0  0  0  0  0  0
  141.8940   74.7060  219.9980 N   0  0  0  0  0  0  0  0  0  0  0  0
  143.2420   74.7230  220.4700 C   0  0  0  0  0  0  0  0  0  0  0  0
  143.8720   73.4040  220.7620 C   0  0  0  0  0  0  0  0  0  0  0  0
  145.2840   73.3950  221.1860 C   0  0  0  0  0  0  0  0  0  0  0  0
  146.2790   73.4120  220.0570 C   0  0  0  0  0  0  0  0  0  0  0  0
  145.9270   72.4740  219.0080 N   0  0  0  0  0  0  0  0  0  0  0  0
  144.6390   72.8260  218.4960 C   0  0  0  0  0  0  0  0  0  0  0  0
  143.6050   72.5260  219.5510 C   0  0  0  0  0  0  0  0  0  0  0  0
  142.1780   77.5440  220.0630 C   0  0  0  0  0  0  0  0  0  0  0  0
  140.2230   76.0500  222.2030 H   0  0  0  0  0  0  0  0  0  0  0  0
  141.9000   76.0850  222.1540 H   0  0  0  0  0  0  0  0  0  0  0  0
  141.1663   80.6527  221.0093 H   0  0  0  0  0  0  0  0  0  0  0  0
  141.9276   81.1100  218.6945 H   0  0  0  0  0  0  0  0  0  0  0  0
  142.8239   79.3268  217.3008 H   0  0  0  0  0  0  0  0  0  0  0  0
  144.0581   76.9447  217.3339 H   0  0  0  0  0  0  0  0  0  0  0  0
  142.9552   74.8492  216.9823 H   0  0  0  0  0  0  0  0  0  0  0  0
  137.8161   74.9462  217.4731 H   0  0  0  0  0  0  0  0  0  0  0  0
  135.9359   74.2102  218.9340 H   0  0  0  0  0  0  0  0  0  0  0  0
  136.3658   73.5186  221.2801 H   0  0  0  0  0  0  0  0  0  0  0  0
  138.6846   73.5612  222.1567 H   0  0  0  0  0  0  0  0  0  0  0  0
  143.8554   75.2220  219.7053 H   0  0  0  0  0  0  0  0  0  0  0  0
  143.1993   75.2408  221.4396 H   0  0  0  0  0  0  0  0  0  0  0  0
  143.4052   73.0131  221.6781 H   0  0  0  0  0  0  0  0  0  0  0  0
  145.4598   74.2828  221.8113 H   0  0  0  0  0  0  0  0  0  0  0  0
  145.4409   72.4488  221.7246 H   0  0  0  0  0  0  0  0  0  0  0  0
  146.3145   74.4252  219.6302 H   0  0  0  0  0  0  0  0  0  0  0  0
  147.2579   73.1165  220.4625 H   0  0  0  0  0  0  0  0  0  0  0  0
  145.9820   71.4890  219.3160 H   0  0  0  0  0  0  0  0  0  0  0  0
  144.6179   73.8980  218.2504 H   0  0  0  0  0  0  0  0  0  0  0  0
  144.4255   72.2480  217.5848 H   0  0  0  0  0  0  0  0  0  0  0  0
  142.6008   72.7376  219.1551 H   0  0  0  0  0  0  0  0  0  0  0  0
  143.6611   71.4657  219.8384 H   0  0  0  0  0  0  0  0  0  0  0  0
  142.2402   76.5253  220.4734 H   0  0  0  0  0  0  0  0  0  0  0  0
  1  2  1  0
  2  3  2  0
  2  4  2  0
  2  5  1  0
  5  6  2  0
  6  7  1  0
  7  8  2  0
  8  9  1  0
  9 10  1  0
 10 11  2  0
 11 12  1  0
 12 13  2  0
 13 14  1  0
 14 15  2  0
 15 16  1  0
 16 17  2  0
 17 18  1  0
 18 19  2  0
 19 20  1  0
 20 21  2  0
 20 22  1  0
 22 23  1  0
 23 24  1  0
 24 25  1  0
 25 26  1  0
 26 27  1  0
 27 28  1  0
 28 29  1  0
  9 30  2  0
 30  5  1  0
 22 12  1  0
 29 24  1  0
 19 14  1  0
  1 31  1  0
  1 32  1  0
  6 33  1  0
  7 34  1  0
  8 35  1  0
 10 36  1  0
 11 37  1  0
 15 38  1  0
 16 39  1  0
 17 40  1  0
 18 41  1  0
 23 42  1  0
 23 43  1  0
 24 44  1  0
 25 45  1  0
 25 46  1  0
 26 47  1  0
 26 48  1  0
 27 49  1  0
 28 50  1  0
 28 51  1  0
 29 52  1  0
 29 53  1  0
 30 54  1  0
M  END
>  <smiles>  (31) 
NS(=O)(=O)c1cccc(/C=C/c2nc3ccccc3c(=O)n2CC2CCNCC2)c1

>  <score_type>  (31) 
oracle

>  <origin>  (31) 
autodockgpu

>  <m_score__min__energy>  (31) 
-9.5099999999999998

>  <m_primary>  (31) 
energy

>  <rmsd>  (31) 
7.324220030321565

>  <m_score__min__rmsd>  (31) 
7.324220030321565

>  <meeko>  (31) 
{"free_energy": -6.45, "intermolecular_energy": -8.54, "internal_energy": -2.71, "cluster_size": 1, "cluster_id": 15, "rank_in_cluster": 1}

>  <energy>  (31) 
-8.12

>  <cluster_rmsd>  (31) 
0.35

>  <cluster>  (31) 
6

$$$$

     RDKit          3D

 54 57  0  0  0  0  0  0  0  0999 V2000
  146.3190   72.6490  221.3920 N   0  0  0  0  0  0  0  0  0  0  0  0
  145.2980   72.4030  220.0190 S   0  0  0  0  0  0  0  0  0  0  0  0
  145.8640   73.1940  218.8570 O   0  0  0  0  0  0  0  0  0  0  0  0
  145.1990   70.9570  219.7030 O   0  0  0  0  0  0  0  0  0  0  0  0
  143.7250   73.1070  220.4030 C   0  0  0  0  0  0  0  0  0  0  0  0
  143.5400   74.4720  220.3160 C   0  0  0  0  0  0  0  0  0  0  0  0
  142.3030   74.9790  220.6240 C   0  0  0  0  0  0  0  0  0  0  0  0
  141.2820   74.1570  221.0040 C   0  0  0  0  0  0  0  0  0  0  0  0
  141.4260   72.7670  221.1050 C   0  0  0  0  0  0  0  0  0  0  0  0
  140.3140   71.9180  221.5140 C   0  0  0  0  0  0  0  0  0  0  0  0
  139.5540   72.1490  222.5670 C   0  0  0  0  0  0  0  0  0  0  0  0
  139.6380   71.2690  223.7350 C   0  0  0  0  0  0  0  0  0  0  0  0
  140.2580   71.7730  224.8450 N   0  0  0  0  0  0  0  0  0  0  0  0
  140.3990   71.0790  225.9690 C   0  0  0  0  0  0  0  0  0  0  0  0
  141.0340   71.6390  227.0590 C   0  0  0  0  0  0  0  0  0  0  0  0
  141.1620   70.8830  228.2150 C   0  0  0  0  0  0  0  0  0  0  0  0
  140.6650   69.5950  228.2760 C   0  0  0  0  0  0  0  0  0  0  0  0
  140.0340   69.0680  227.1620 C   0  0  0  0  0  0  0  0  0  0  0  0
  139.8900   69.7930  225.9940 C   0  0  0  0  0  0  0  0  0  0  0  0
  139.2710   69.3020  224.8740 C   0  0  0  0  0  0  0  0  0  0  0  0
  138.8250   68.1100  224.9630 O   0  0  0  0  0  0  0  0  0  0  0  0
  139.1310   70.0210  223.7280 N   0  0  0  0  0  0  0  0  0  0  0  0
  138.4670   69.5040  222.5730 C   0  0  0  0  0  0  0  0  0  0  0  0
  139.1240   68.3680  221.8670 C   0  0  0  0  0  0  0  0  0  0  0  0
  140.0620   68.6870  220.7760 C   0  0  0  0  0  0  0  0  0  0  0  0
  139.4130   68.9050  219.4350 C   0  0  0  0  0  0  0  0  0  0  0  0
  138.4200   67.8880  219.1400 N   0  0  0  0  0  0  0  0  0  0  0  0
  137.4130   67.9300  220.1540 C   0  0  0  0  0  0  0  0  0  0  0  0
  138.0090   67.4270  221.4430 C   0  0  0  0  0  0  0  0  0  0  0  0
  142.6790   72.2820  220.7910 C   0  0  0  0  0  0  0  0  0  0  0  0
  145.8180   72.5220  222.2990 H   0  0  0  0  0  0  0  0  0  0  0  0
  147.0680   71.9310  221.3470 H   0  0  0  0  0  0  0  0  0  0  0  0
  144.3618   75.1352  220.0081 H   0  0  0  0  0  0  0  0  0  0  0  0
  142.1316   76.0639  220.5638 H   0  0  0  0  0  0  0  0  0  0  0  0
  140.3054   74.6044  221.2408 H   0  0  0  0  0  0  0  0  0  0  0  0
  140.0947   71.0280  220.9058 H   0  0  0  0  0  0  0  0  0  0  0  0
  138.8583   73.0010  222.5681 H   0  0  0  0  0  0  0  0  0  0  0  0
  141.4305   72.6640  227.0120 H   0  0  0  0  0  0  0  0  0  0  0  0
  141.6650   71.3138  229.0933 H   0  0  0  0  0  0  0  0  0  0  0  0
  140.7690   68.9984  229.1943 H   0  0  0  0  0  0  0  0  0  0  0  0
  139.6361   68.0435  227.2077 H   0  0  0  0  0  0  0  0  0  0  0  0
  137.4685   69.1664  222.8876 H   0  0  0  0  0  0  0  0  0  0  0  0
  138.4696   70.3310  221.8478 H   0  0  0  0  0  0  0  0  0  0  0  0
  139.8234   67.9009  222.5760 H   0  0  0  0  0  0  0  0  0  0  0  0
  140.6049   69.6043  221.0476 H   0  0  0  0  0  0  0  0  0  0  0  0
  140.7203   67.8127  220.6653 H   0  0  0  0  0  0  0  0  0  0  0  0
  138.9238   69.8902  219.4331 H   0  0  0  0  0  0  0  0  0  0  0  0
  140.1965   68.8485  218.6650 H   0  0  0  0  0  0  0  0  0  0  0  0
  138.8320   66.9490  219.0200 H   0  0  0  0  0  0  0  0  0  0  0  0
  137.0629   68.9644  220.2862 H   0  0  0  0  0  0  0  0  0  0  0  0
  136.5596   67.2999  219.8630 H   0  0  0  0  0  0  0  0  0  0  0  0
  137.2333   67.3980  222.2224 H   0  0  0  0  0  0  0  0  0  0  0  0
  138.4104   66.4131  221.2985 H   0  0  0  0  0  0  0  0  0  0  0  0
  142.8558   71.1979  220.8507 H   0  0  0  0  0  0  0  0  0  0  0  0
  1  2  1  0
  2  3  2  0
  2  4  2  0
  2  5  1  0
  5  6  2  0
  6  7  1  0
  7  8  2  0
  8  9  1  0
  9 10  1  0
 10 11  2  0
 11 12  1  0
 12 13  2  0
 13 14  1  0
 14 15  2  0
 15 16  1  0
 16 17  2  0
 17 18  1  0
 18 19  2  0
 19 20  1  0
 20 21  2  0
 20 22  1  0
 22 23  1  0
 23 24  1  0
 24 25  1  0
 25 26  1  0
 26 27  1  0
 27 28  1  0
 28 29  1  0
  9 30  2  0
 30  5  1  0
 22 12  1  0
 29 24  1  0
 19 14  1  0
  1 31  1  0
  1 32  1  0
  6 33  1  0
  7 34  1  0
  8 35  1  0
 10 36  1  0
 11 37  1  0
 15 38  1  0
 16 39  1  0
 17 40  1  0
 18 41  1  0
 23 42  1  0
 23 43  1  0
 24 44  1  0
 25 45  1  0
 25 46  1  0
 26 47  1  0
 26 48  1  0
 27 49  1  0
 28 50  1  0
 28 51  1  0
 29 52  1  0
 29 53  1  0
 30 54  1  0
M  END
>  <smiles>  (32) 
NS(=O)(=O)c1cccc(/C=C/c2nc3ccccc3c(=O)n2CC2CCNCC2)c1

>  <score_type>  (32) 
oracle

>  <origin>  (32) 
autodockgpu

>  <m_score__min__energy>  (32) 
-9.5099999999999998

>  <m_primary>  (32) 
energy

>  <rmsd>  (32) 
12.200891571921867

>  <m_score__min__rmsd>  (32) 
12.200891571921867

>  <meeko>  (32) 
{"free_energy": -8.68, "intermolecular_energy": -10.77, "internal_energy": -1.38, "cluster_size": 18, "cluster_id": 1, "rank_in_cluster": 15}

>  <energy>  (32) 
-7.91

>  <cluster_rmsd>  (32) 
1.01

>  <cluster>  (32) 
6

$$$$

     RDKit          3D

 54 57  0  0  0  0  0  0  0  0999 V2000
  142.5130   79.2860  221.9710 N   0  0  0  0  0  0  0  0  0  0  0  0
  141.3130   78.2890  222.7150 S   0  0  0  0  0  0  0  0  0  0  0  0
  141.8390   77.8360  224.0630 O   0  0  0  0  0  0  0  0  0  0  0  0
  140.0340   79.0290  222.8440 O   0  0  0  0  0  0  0  0  0  0  0  0
  141.1430   76.8410  221.7180 C   0  0  0  0  0  0  0  0  0  0  0  0
  141.5570   76.8580  220.4010 C   0  0  0  0  0  0  0  0  0  0  0  0
  141.4070   75.7130  219.6600 C   0  0  0  0  0  0  0  0  0  0  0  0
  140.8630   74.5880  220.2090 C   0  0  0  0  0  0  0  0  0  0  0  0
  140.4310   74.5270  221.5410 C   0  0  0  0  0  0  0  0  0  0  0  0
  139.8550   73.3090  222.0950 C   0  0  0  0  0  0  0  0  0  0  0  0
  140.5460   72.2160  222.3560 C   0  0  0  0  0  0  0  0  0  0  0  0
  140.2590   71.4440  223.5680 C   0  0  0  0  0  0  0  0  0  0  0  0
  140.7430   71.9400  224.7460 N   0  0  0  0  0  0  0  0  0  0  0  0
  140.5520   71.3380  225.9150 C   0  0  0  0  0  0  0  0  0  0  0  0
  141.0640   71.8850  227.0730 C   0  0  0  0  0  0  0  0  0  0  0  0
  140.8430   71.2270  228.2740 C   0  0  0  0  0  0  0  0  0  0  0  0
  140.1260   70.0470  228.3120 C   0  0  0  0  0  0  0  0  0  0  0  0
  139.6270   69.5290  227.1280 C   0  0  0  0  0  0  0  0  0  0  0  0
  139.8290   70.1580  225.9150 C   0  0  0  0  0  0  0  0  0  0  0  0
  139.3490   69.6730  224.7260 C   0  0  0  0  0  0  0  0  0  0  0  0
  138.6930   68.5820  224.7950 O   0  0  0  0  0  0  0  0  0  0  0  0
  139.5510   70.2980  223.5350 N   0  0  0  0  0  0  0  0  0  0  0  0
  139.0280   69.7920  222.3050 C   0  0  0  0  0  0  0  0  0  0  0  0
  137.7030   70.3140  221.8670 C   0  0  0  0  0  0  0  0  0  0  0  0
  137.1520   71.4780  222.5840 C   0  0  0  0  0  0  0  0  0  0  0  0
  136.3980   71.1420  223.8420 C   0  0  0  0  0  0  0  0  0  0  0  0
  135.4870   70.0290  223.6480 N   0  0  0  0  0  0  0  0  0  0  0  0
  136.2460   68.8860  223.2430 C   0  0  0  0  0  0  0  0  0  0  0  0
  136.7600   69.1230  221.8470 C   0  0  0  0  0  0  0  0  0  0  0  0
  140.5920   75.6910  222.2630 C   0  0  0  0  0  0  0  0  0  0  0  0
  143.4750   79.1030  222.3330 H   0  0  0  0  0  0  0  0  0  0  0  0
  142.5130   79.0590  220.9580 H   0  0  0  0  0  0  0  0  0  0  0  0
  141.9951   77.7645  219.9580 H   0  0  0  0  0  0  0  0  0  0  0  0
  141.7298   75.7015  218.6085 H   0  0  0  0  0  0  0  0  0  0  0  0
  140.7593   73.6917  219.5798 H   0  0  0  0  0  0  0  0  0  0  0  0
  138.7761   73.3001  222.3091 H   0  0  0  0  0  0  0  0  0  0  0  0
  141.3357   71.8849  221.6655 H   0  0  0  0  0  0  0  0  0  0  0  0
  141.6360   72.8241  227.0447 H   0  0  0  0  0  0  0  0  0  0  0  0
  141.2435   71.6499  229.2071 H   0  0  0  0  0  0  0  0  0  0  0  0
  139.9542   69.5274  229.2662 H   0  0  0  0  0  0  0  0  0  0  0  0
  139.0539   68.5905  227.1547 H   0  0  0  0  0  0  0  0  0  0  0  0
  139.7551   70.0270  221.5137 H   0  0  0  0  0  0  0  0  0  0  0  0
  138.8670   68.7186  222.4835 H   0  0  0  0  0  0  0  0  0  0  0  0
  137.8396   70.7612  220.8713 H   0  0  0  0  0  0  0  0  0  0  0  0
  137.9869   72.1421  222.8519 H   0  0  0  0  0  0  0  0  0  0  0  0
  136.4269   71.9477  221.9031 H   0  0  0  0  0  0  0  0  0  0  0  0
  137.1197   70.8774  224.6289 H   0  0  0  0  0  0  0  0  0  0  0  0
  135.8035   72.0223  224.1276 H   0  0  0  0  0  0  0  0  0  0  0  0
  134.7160   70.2500  222.9990 H   0  0  0  0  0  0  0  0  0  0  0  0
  137.0925   68.7403  223.9302 H   0  0  0  0  0  0  0  0  0  0  0  0
  135.6128   67.9868  223.2636 H   0  0  0  0  0  0  0  0  0  0  0  0
  137.2989   68.2309  221.4952 H   0  0  0  0  0  0  0  0  0  0  0  0
  135.9181   69.3248  221.1684 H   0  0  0  0  0  0  0  0  0  0  0  0
  140.2700   75.7079  223.3147 H   0  0  0  0  0  0  0  0  0  0  0  0
  1  2  1  0
  2  3  2  0
  2  4  2  0
  2  5  1  0
  5  6  2  0
  6  7  1  0
  7  8  2  0
  8  9  1  0
  9 10  1  0
 10 11  2  0
 11 12  1  0
 12 13  2  0
 13 14  1  0
 14 15  2  0
 15 16  1  0
 16 17  2  0
 17 18  1  0
 18 19  2  0
 19 20  1  0
 20 21  2  0
 20 22  1  0
 22 23  1  0
 23 24  1  0
 24 25  1  0
 25 26  1  0
 26 27  1  0
 27 28  1  0
 28 29  1  0
  9 30  2  0
 30  5  1  0
 22 12  1  0
 29 24  1  0
 19 14  1  0
  1 31  1  0
  1 32  1  0
  6 33  1  0
  7 34  1  0
  8 35  1  0
 10 36  1  0
 11 37  1  0
 15 38  1  0
 16 39  1  0
 17 40  1  0
 18 41  1  0
 23 42  1  0
 23 43  1  0
 24 44  1  0
 25 45  1  0
 25 46  1  0
 26 47  1  0
 26 48  1  0
 27 49  1  0
 28 50  1  0
 28 51  1  0
 29 52  1  0
 29 53  1  0
 30 54  1  0
M  END
>  <smiles>  (33) 
NS(=O)(=O)c1cccc(/C=C/c2nc3ccccc3c(=O)n2CC2CCNCC2)c1

>  <score_type>  (33) 
oracle

>  <origin>  (33) 
autodockgpu

>  <m_score__min__energy>  (33) 
-9.5099999999999998

>  <m_primary>  (33) 
energy

>  <rmsd>  (33) 
11.547142008313545

>  <m_score__min__rmsd>  (33) 
11.547142008313545

>  <meeko>  (33) 
{"free_energy": -7.91, "intermolecular_energy": -9.99, "internal_energy": -1.54, "cluster_size": 6, "cluster_id": 6, "rank_in_cluster": 3}

>  <energy>  (33) 
-7.28

>  <cluster_rmsd>  (33) 
1.95

>  <cluster>  (33) 
6

$$$$

     RDKit          3D

 54 57  0  0  0  0  0  0  0  0999 V2000
  141.5140   68.1010  226.4400 N   0  0  0  0  0  0  0  0  0  0  0  0
  139.8240   68.3380  226.7160 S   0  0  0  0  0  0  0  0  0  0  0  0
  139.1190   67.0110  226.5190 O   0  0  0  0  0  0  0  0  0  0  0  0
  139.5960   68.8860  228.0750 O   0  0  0  0  0  0  0  0  0  0  0  0
  139.2340   69.4250  225.4560 C   0  0  0  0  0  0  0  0  0  0  0  0
  137.9120   69.3740  225.0640 C   0  0  0  0  0  0  0  0  0  0  0  0
  137.4940   70.2360  224.0810 C   0  0  0  0  0  0  0  0  0  0  0  0
  138.3610   71.1190  223.5070 C   0  0  0  0  0  0  0  0  0  0  0  0
  139.7100   71.2050  223.8750 C   0  0  0  0  0  0  0  0  0  0  0  0
  140.6090   72.1610  223.2410 C   0  0  0  0  0  0  0  0  0  0  0  0
  140.7270   72.3140  221.9370 C   0  0  0  0  0  0  0  0  0  0  0  0
  141.1620   73.6010  221.3890 C   0  0  0  0  0  0  0  0  0  0  0  0
  140.6590   74.7260  221.9820 N   0  0  0  0  0  0  0  0  0  0  0  0
  140.9740   75.9540  221.5830 C   0  0  0  0  0  0  0  0  0  0  0  0
  140.4350   77.0530  222.2190 C   0  0  0  0  0  0  0  0  0  0  0  0
  140.7890   78.3190  221.7740 C   0  0  0  0  0  0  0  0  0  0  0  0
  141.6610   78.4770  220.7140 C   0  0  0  0  0  0  0  0  0  0  0  0
  142.1810   77.3490  220.1010 C   0  0  0  0  0  0  0  0  0  0  0  0
  141.8500   76.0750  220.5190 C   0  0  0  0  0  0  0  0  0  0  0  0
  142.3460   74.9380  219.9350 C   0  0  0  0  0  0  0  0  0  0  0  0
  143.1460   75.1190  218.9580 O   0  0  0  0  0  0  0  0  0  0  0  0
  142.0170   73.6860  220.3510 N   0  0  0  0  0  0  0  0  0  0  0  0
  142.5570   72.5090  219.7460 C   0  0  0  0  0  0  0  0  0  0  0  0
  143.8090   71.9590  220.3370 C   0  0  0  0  0  0  0  0  0  0  0  0
  144.6390   72.8620  221.1540 C   0  0  0  0  0  0  0  0  0  0  0  0
  145.6020   73.7120  220.3680 C   0  0  0  0  0  0  0  0  0  0  0  0
  146.3070   72.9430  219.3600 N   0  0  0  0  0  0  0  0  0  0  0  0
  145.3460   72.3810  218.4630 C   0  0  0  0  0  0  0  0  0  0  0  0
  144.5740   71.3140  219.1940 C   0  0  0  0  0  0  0  0  0  0  0  0
  140.1050   70.3280  224.8640 C   0  0  0  0  0  0  0  0  0  0  0  0
  141.7650   68.1080  225.4260 H   0  0  0  0  0  0  0  0  0  0  0  0
  142.0100   68.8940  226.8900 H   0  0  0  0  0  0  0  0  0  0  0  0
  137.2124   68.6622  225.5265 H   0  0  0  0  0  0  0  0  0  0  0  0
  136.4448   70.2145  223.7513 H   0  0  0  0  0  0  0  0  0  0  0  0
  137.9851   71.7918  222.7222 H   0  0  0  0  0  0  0  0  0  0  0  0
  141.2285   72.7953  223.8921 H   0  0  0  0  0  0  0  0  0  0  0  0
  140.4992   71.4764  221.2613 H   0  0  0  0  0  0  0  0  0  0  0  0
  139.7389   76.9285  223.0616 H   0  0  0  0  0  0  0  0  0  0  0  0
  140.3706   79.2067  222.2709 H   0  0  0  0  0  0  0  0  0  0  0  0
  141.9377   79.4820  220.3627 H   0  0  0  0  0  0  0  0  0  0  0  0
  142.8769   77.4713  219.2579 H   0  0  0  0  0  0  0  0  0  0  0  0
  141.7892   71.7235  219.8047 H   0  0  0  0  0  0  0  0  0  0  0  0
  142.8321   72.8127  218.7252 H   0  0  0  0  0  0  0  0  0  0  0  0
  143.5146   71.2343  221.1104 H   0  0  0  0  0  0  0  0  0  0  0  0
  143.9690   73.5311  221.7138 H   0  0  0  0  0  0  0  0  0  0  0  0
  145.2502   72.2196  221.8049 H   0  0  0  0  0  0  0  0  0  0  0  0
  145.0413   74.5181  219.8721 H   0  0  0  0  0  0  0  0  0  0  0  0
  146.3467   74.1182  221.0683 H   0  0  0  0  0  0  0  0  0  0  0  0
  146.9400   72.2360  219.7660 H   0  0  0  0  0  0  0  0  0  0  0  0
  144.6573   73.1663  218.1180 H   0  0  0  0  0  0  0  0  0  0  0  0
  145.8553   71.9458  217.5905 H   0  0  0  0  0  0  0  0  0  0  0  0
  143.8679   70.8299  218.5033 H   0  0  0  0  0  0  0  0  0  0  0  0
  145.2665   70.5560  219.5887 H   0  0  0  0  0  0  0  0  0  0  0  0
  141.1533   70.3455  225.1967 H   0  0  0  0  0  0  0  0  0  0  0  0
  1  2  1  0
  2  3  2  0
  2  4  2  0
  2  5  1  0
  5  6  2  0
  6  7  1  0
  7  8  2  0
  8  9  1  0
  9 10  1  0
 10 11  2  0
 11 12  1  0
 12 13  2  0
 13 14  1  0
 14 15  2  0
 15 16  1  0
 16 17  2  0
 17 18  1  0
 18 19  2  0
 19 20  1  0
 20 21  2  0
 20 22  1  0
 22 23  1  0
 23 24  1  0
 24 25  1  0
 25 26  1  0
 26 27  1  0
 27 28  1  0
 28 29  1  0
  9 30  2  0
 30  5  1  0
 22 12  1  0
 29 24  1  0
 19 14  1  0
  1 31  1  0
  1 32  1  0
  6 33  1  0
  7 34  1  0
  8 35  1  0
 10 36  1  0
 11 37  1  0
 15 38  1  0
 16 39  1  0
 17 40  1  0
 18 41  1  0
 23 42  1  0
 23 43  1  0
 24 44  1  0
 25 45  1  0
 25 46  1  0
 26 47  1  0
 26 48  1  0
 27 49  1  0
 28 50  1  0
 28 51  1  0
 29 52  1  0
 29 53  1  0
 30 54  1  0
M  END
>  <smiles>  (34) 
NS(=O)(=O)c1cccc(/C=C/c2nc3ccccc3c(=O)n2CC2CCNCC2)c1

>  <score_type>  (34) 
oracle

>  <origin>  (34) 
autodockgpu

>  <m_score__min__energy>  (34) 
-9.5099999999999998

>  <m_primary>  (34) 
energy

>  <rmsd>  (34) 
7.7916597036286666

>  <m_score__min__rmsd>  (34) 
7.7916597036286666

>  <meeko>  (34) 
{"free_energy": -8.36, "intermolecular_energy": -10.45, "internal_energy": -1.36, "cluster_size": 4, "cluster_id": 2, "rank_in_cluster": 4}

>  <energy>  (34) 
-7.25

>  <cluster_rmsd>  (34) 
1.96

>  <cluster>  (34) 
6

$$$$

     RDKit          3D

 54 57  0  0  0  0  0  0  0  0999 V2000
  146.7370   73.8660  220.4840 N   0  0  0  0  0  0  0  0  0  0  0  0
  145.6930   72.9280  219.4770 S   0  0  0  0  0  0  0  0  0  0  0  0
  145.8830   73.3770  218.0430 O   0  0  0  0  0  0  0  0  0  0  0  0
  145.9790   71.4820  219.6430 O   0  0  0  0  0  0  0  0  0  0  0  0
  144.0330   73.3300  219.9250 C   0  0  0  0  0  0  0  0  0  0  0  0
  143.5540   74.6080  219.7220 C   0  0  0  0  0  0  0  0  0  0  0  0
  142.2590   74.8810  220.0840 C   0  0  0  0  0  0  0  0  0  0  0  0
  141.4650   73.9140  220.6300 C   0  0  0  0  0  0  0  0  0  0  0  0
  141.9100   72.6040  220.8530 C   0  0  0  0  0  0  0  0  0  0  0  0
  141.0350   71.5960  221.4380 C   0  0  0  0  0  0  0  0  0  0  0  0
  140.0650   71.8620  222.2910 C   0  0  0  0  0  0  0  0  0  0  0  0
  139.9800   71.1230  223.5530 C   0  0  0  0  0  0  0  0  0  0  0  0
  140.5370   71.7120  224.6540 N   0  0  0  0  0  0  0  0  0  0  0  0
  140.5270   71.1490  225.8570 C   0  0  0  0  0  0  0  0  0  0  0  0
  141.1040   71.7920  226.9320 C   0  0  0  0  0  0  0  0  0  0  0  0
  141.0730   71.1710  228.1730 C   0  0  0  0  0  0  0  0  0  0  0  0
  140.4770   69.9350  228.3300 C   0  0  0  0  0  0  0  0  0  0  0  0
  139.9080   69.3210  227.2270 C   0  0  0  0  0  0  0  0  0  0  0  0
  139.9220   69.9110  225.9770 C   0  0  0  0  0  0  0  0  0  0  0  0
  139.3670   69.3320  224.8650 C   0  0  0  0  0  0  0  0  0  0  0  0
  138.8270   68.1900  225.0430 O   0  0  0  0  0  0  0  0  0  0  0  0
  139.3830   69.9180  223.6370 N   0  0  0  0  0  0  0  0  0  0  0  0
  138.7840   69.3120  222.4900 C   0  0  0  0  0  0  0  0  0  0  0  0
  137.4140   69.7680  222.1230 C   0  0  0  0  0  0  0  0  0  0  0  0
  137.0800   71.1870  222.3400 C   0  0  0  0  0  0  0  0  0  0  0  0
  136.6170   71.5170  223.7340 C   0  0  0  0  0  0  0  0  0  0  0  0
  135.6480   70.5560  224.2260 N   0  0  0  0  0  0  0  0  0  0  0  0
  136.2550   69.2620  224.2340 C   0  0  0  0  0  0  0  0  0  0  0  0
  136.4490   68.8140  222.8080 C   0  0  0  0  0  0  0  0  0  0  0  0
  143.2150   72.3570  220.4820 C   0  0  0  0  0  0  0  0  0  0  0  0
  147.0140   74.7740  220.0490 H   0  0  0  0  0  0  0  0  0  0  0  0
  146.2100   74.0850  221.3520 H   0  0  0  0  0  0  0  0  0  0  0  0
  144.1934   75.3873  219.2816 H   0  0  0  0  0  0  0  0  0  0  0  0
  141.8551   75.8928  219.9322 H   0  0  0  0  0  0  0  0  0  0  0  0
  140.4326   74.1740  220.9065 H   0  0  0  0  0  0  0  0  0  0  0  0
  141.1938   70.5464  221.1497 H   0  0  0  0  0  0  0  0  0  0  0  0
  139.3212   72.6373  222.0553 H   0  0  0  0  0  0  0  0  0  0  0  0
  141.5789   72.7765  226.8085 H   0  0  0  0  0  0  0  0  0  0  0  0
  141.5284   71.6691  229.0416 H   0  0  0  0  0  0  0  0  0  0  0  0
  140.4547   69.4463  229.3152 H   0  0  0  0  0  0  0  0  0  0  0  0
  139.4319   68.3369  227.3488 H   0  0  0  0  0  0  0  0  0  0  0  0
  139.4408   69.5082  221.6297 H   0  0  0  0  0  0  0  0  0  0  0  0
  138.6709   68.2501  222.7538 H   0  0  0  0  0  0  0  0  0  0  0  0
  137.3385   69.7302  221.0262 H   0  0  0  0  0  0  0  0  0  0  0  0
  137.9767   71.7870  222.1255 H   0  0  0  0  0  0  0  0  0  0  0  0
  136.2375   71.4144  221.6702 H   0  0  0  0  0  0  0  0  0  0  0  0
  137.4877   71.5195  224.4062 H   0  0  0  0  0  0  0  0  0  0  0  0
  136.1329   72.5044  223.7067 H   0  0  0  0  0  0  0  0  0  0  0  0
  134.7580   70.5800  223.7030 H   0  0  0  0  0  0  0  0  0  0  0  0
  137.2291   69.3126  224.7425 H   0  0  0  0  0  0  0  0  0  0  0  0
  135.6113   68.5478  224.7684 H   0  0  0  0  0  0  0  0  0  0  0  0
  136.8633   67.7951  222.7935 H   0  0  0  0  0  0  0  0  0  0  0  0
  135.4837   68.8156  222.2806 H   0  0  0  0  0  0  0  0  0  0  0  0
  143.6244   71.3474  220.6337 H   0  0  0  0  0  0  0  0  0  0  0  0
  1  2  1  0
  2  3  2  0
  2  4  2  0
  2  5  1  0
  5  6  2  0
  6  7  1  0
  7  8  2  0
  8  9  1  0
  9 10  1  0
 10 11  2  0
 11 12  1  0
 12 13  2  0
 13 14  1  0
 14 15  2  0
 15 16  1  0
 16 17  2  0
 17 18  1  0
 18 19  2  0
 19 20  1  0
 20 21  2  0
 20 22  1  0
 22 23  1  0
 23 24  1  0
 24 25  1  0
 25 26  1  0
 26 27  1  0
 27 28  1  0
 28 29  1  0
  9 30  2  0
 30  5  1  0
 22 12  1  0
 29 24  1  0
 19 14  1  0
  1 31  1  0
  1 32  1  0
  6 33  1  0
  7 34  1  0
  8 35  1  0
 10 36  1  0
 11 37  1  0
 15 38  1  0
 16 39  1  0
 17 40  1  0
 18 41  1  0
 23 42  1  0
 23 43  1  0
 24 44  1  0
 25 45  1  0
 25 46  1  0
 26 47  1  0
 26 48  1  0
 27 49  1  0
 28 50  1  0
 28 51  1  0
 29 52  1  0
 29 53  1  0
 30 54  1  0
M  END
>  <smiles>  (35) 
NS(=O)(=O)c1cccc(/C=C/c2nc3ccccc3c(=O)n2CC2CCNCC2)c1

>  <score_type>  (35) 
oracle

>  <origin>  (35) 
autodockgpu

>  <m_score__min__energy>  (35) 
-9.5099999999999998

>  <m_primary>  (35) 
energy

>  <rmsd>  (35) 
11.714401455829005

>  <m_score__min__rmsd>  (35) 
11.714401455829005

>  <meeko>  (35) 
{"free_energy": -8.83, "intermolecular_energy": -10.91, "internal_energy": -1.35, "cluster_size": 18, "cluster_id": 1, "rank_in_cluster": 12}

>  <energy>  (35) 
-7.25

>  <cluster_rmsd>  (35) 
1.96

>  <cluster>  (35) 
6

$$$$

     RDKit          3D

 54 57  0  0  0  0  0  0  0  0999 V2000
  145.9490   73.4040  218.4470 N   0  0  0  0  0  0  0  0  0  0  0  0
  145.5450   72.6540  219.9500 S   0  0  0  0  0  0  0  0  0  0  0  0
  145.4950   71.1540  219.7360 O   0  0  0  0  0  0  0  0  0  0  0  0
  146.5300   73.0280  220.9940 O   0  0  0  0  0  0  0  0  0  0  0  0
  143.9080   73.1680  220.3700 C   0  0  0  0  0  0  0  0  0  0  0  0
  143.5820   74.5090  220.3580 C   0  0  0  0  0  0  0  0  0  0  0  0
  142.3000   74.8670  220.6910 C   0  0  0  0  0  0  0  0  0  0  0  0
  141.3720   73.9230  221.0230 C   0  0  0  0  0  0  0  0  0  0  0  0
  141.6600   72.5520  221.0470 C   0  0  0  0  0  0  0  0  0  0  0  0
  140.6440   71.5710  221.4070 C   0  0  0  0  0  0  0  0  0  0  0  0
  139.6940   71.7810  222.2970 C   0  0  0  0  0  0  0  0  0  0  0  0
  139.7170   71.0590  223.5720 C   0  0  0  0  0  0  0  0  0  0  0  0
  140.3240   71.6840  224.6250 N   0  0  0  0  0  0  0  0  0  0  0  0
  140.4110   71.1400  225.8350 C   0  0  0  0  0  0  0  0  0  0  0  0
  141.0350   71.8190  226.8610 C   0  0  0  0  0  0  0  0  0  0  0  0
  141.1060   71.2170  228.1090 C   0  0  0  0  0  0  0  0  0  0  0  0
  140.5630   69.9650  228.3220 C   0  0  0  0  0  0  0  0  0  0  0  0
  139.9440   69.3150  227.2670 C   0  0  0  0  0  0  0  0  0  0  0  0
  139.8570   69.8850  226.0110 C   0  0  0  0  0  0  0  0  0  0  0  0
  139.2510   69.2700  224.9460 C   0  0  0  0  0  0  0  0  0  0  0  0
  138.7620   68.1150  225.1750 O   0  0  0  0  0  0  0  0  0  0  0  0
  139.1670   69.8370  223.7120 N   0  0  0  0  0  0  0  0  0  0  0  0
  138.5160   69.1940  222.6150 C   0  0  0  0  0  0  0  0  0  0  0  0
  139.2370   68.0600  221.9710 C   0  0  0  0  0  0  0  0  0  0  0  0
  139.7400   68.2550  220.5990 C   0  0  0  0  0  0  0  0  0  0  0  0
  138.7300   67.9850  219.5160 C   0  0  0  0  0  0  0  0  0  0  0  0
  137.9940   66.7570  219.7530 N   0  0  0  0  0  0  0  0  0  0  0  0
  137.3130   66.8690  221.0050 C   0  0  0  0  0  0  0  0  0  0  0  0
  138.3350   66.8450  222.1120 C   0  0  0  0  0  0  0  0  0  0  0  0
  142.9550   72.2190  220.7100 C   0  0  0  0  0  0  0  0  0  0  0  0
  145.2530   74.1240  218.1520 H   0  0  0  0  0  0  0  0  0  0  0  0
  146.8580   73.8860  218.5810 H   0  0  0  0  0  0  0  0  0  0  0  0
  144.3294   75.2699  220.0889 H   0  0  0  0  0  0  0  0  0  0  0  0
  142.0162   75.9298  220.6904 H   0  0  0  0  0  0  0  0  0  0  0  0
  140.3551   74.2523  221.2827 H   0  0  0  0  0  0  0  0  0  0  0  0
  140.6714   70.5930  220.9042 H   0  0  0  0  0  0  0  0  0  0  0  0
  138.8863   72.4963  222.0829 H   0  0  0  0  0  0  0  0  0  0  0  0
  141.4671   72.8166  226.6932 H   0  0  0  0  0  0  0  0  0  0  0  0
  141.6007   71.7431  228.9388 H   0  0  0  0  0  0  0  0  0  0  0  0
  140.6212   69.4918  229.3133 H   0  0  0  0  0  0  0  0  0  0  0  0
  139.5099   68.3181  227.4334 H   0  0  0  0  0  0  0  0  0  0  0  0
  137.5521   68.8099  222.9801 H   0  0  0  0  0  0  0  0  0  0  0  0
  138.4421   69.9656  221.8346 H   0  0  0  0  0  0  0  0  0  0  0  0
  140.1945   67.9380  222.4986 H   0  0  0  0  0  0  0  0  0  0  0  0
  140.0763   69.2978  220.5020 H   0  0  0  0  0  0  0  0  0  0  0  0
  140.5505   67.5248  220.4578 H   0  0  0  0  0  0  0  0  0  0  0  0
  138.0189   68.8233  219.4766 H   0  0  0  0  0  0  0  0  0  0  0  0
  139.2721   67.8781  218.5648 H   0  0  0  0  0  0  0  0  0  0  0  0
  138.5900   65.9150  219.6930 H   0  0  0  0  0  0  0  0  0  0  0  0
  136.7524   67.8149  221.0386 H   0  0  0  0  0  0  0  0  0  0  0  0
  136.6086   66.0328  221.1257 H   0  0  0  0  0  0  0  0  0  0  0  0
  137.8255   66.8737  223.0865 H   0  0  0  0  0  0  0  0  0  0  0  0
  138.9342   65.9248  222.0481 H   0  0  0  0  0  0  0  0  0  0  0  0
  143.2441   71.1577  220.7108 H   0  0  0  0  0  0  0  0  0  0  0  0
  1  2  1  0
  2  3  2  0
  2  4  2  0
  2  5  1  0
  5  6  2  0
  6  7  1  0
  7  8  2  0
  8  9  1  0
  9 10  1  0
 10 11  2  0
 11 12  1  0
 12 13  2  0
 13 14  1  0
 14 15  2  0
 15 16  1  0
 16 17  2  0
 17 18  1  0
 18 19  2  0
 19 20  1  0
 20 21  2  0
 20 22  1  0
 22 23  1  0
 23 24  1  0
 24 25  1  0
 25 26  1  0
 26 27  1  0
 27 28  1  0
 28 29  1  0
  9 30  2  0
 30  5  1  0
 22 12  1  0
 29 24  1  0
 19 14  1  0
  1 31  1  0
  1 32  1  0
  6 33  1  0
  7 34  1  0
  8 35  1  0
 10 36  1  0
 11 37  1  0
 15 38  1  0
 16 39  1  0
 17 40  1  0
 18 41  1  0
 23 42  1  0
 23 43  1  0
 24 44  1  0
 25 45  1  0
 25 46  1  0
 26 47  1  0
 26 48  1  0
 27 49  1  0
 28 50  1  0
 28 51  1  0
 29 52  1  0
 29 53  1  0
 30 54  1  0
M  END
>  <smiles>  (36) 
NS(=O)(=O)c1cccc(/C=C/c2nc3ccccc3c(=O)n2CC2CCNCC2)c1

>  <score_type>  (36) 
oracle

>  <origin>  (36) 
autodockgpu

>  <m_score__min__energy>  (36) 
-9.5099999999999998

>  <m_primary>  (36) 
energy

>  <rmsd>  (36) 
12.537555705412458

>  <m_score__min__rmsd>  (36) 
12.537555705412458

>  <meeko>  (36) 
{"free_energy": -9.19, "intermolecular_energy": -11.28, "internal_energy": -1.33, "cluster_size": 18, "cluster_id": 1, "rank_in_cluster": 6}

>  <energy>  (36) 
-7.92

>  <cluster_rmsd>  (36) 
0.0

>  <cluster>  (36) 
7

$$$$

     RDKit          3D

 54 57  0  0  0  0  0  0  0  0999 V2000
  146.2920   73.3990  218.7570 N   0  0  0  0  0  0  0  0  0  0  0  0
  145.6330   72.5480  220.1090 S   0  0  0  0  0  0  0  0  0  0  0  0
  145.4440   71.0970  219.7130 O   0  0  0  0  0  0  0  0  0  0  0  0
  146.5210   72.6850  221.2880 O   0  0  0  0  0  0  0  0  0  0  0  0
  144.0240   73.2110  220.4120 C   0  0  0  0  0  0  0  0  0  0  0  0
  143.7770   74.5500  220.1880 C   0  0  0  0  0  0  0  0  0  0  0  0
  142.5140   75.0260  220.4360 C   0  0  0  0  0  0  0  0  0  0  0  0
  141.5290   74.1980  220.8910 C   0  0  0  0  0  0  0  0  0  0  0  0
  141.7360   72.8340  221.1300 C   0  0  0  0  0  0  0  0  0  0  0  0
  140.6610   71.9780  221.6150 C   0  0  0  0  0  0  0  0  0  0  0  0
  139.9230   72.2440  222.6750 C   0  0  0  0  0  0  0  0  0  0  0  0
  139.8870   71.3010  223.7950 C   0  0  0  0  0  0  0  0  0  0  0  0
  140.4620   71.7090  224.9670 N   0  0  0  0  0  0  0  0  0  0  0  0
  140.4950   70.9500  226.0570 C   0  0  0  0  0  0  0  0  0  0  0  0
  141.0880   71.4160  227.2120 C   0  0  0  0  0  0  0  0  0  0  0  0
  141.1030   70.5940  228.3300 C   0  0  0  0  0  0  0  0  0  0  0  0
  140.5360   69.3350  228.2890 C   0  0  0  0  0  0  0  0  0  0  0  0
  139.9500   68.9030  227.1110 C   0  0  0  0  0  0  0  0  0  0  0  0
  139.9180   69.6960  225.9790 C   0  0  0  0  0  0  0  0  0  0  0  0
  139.3460   69.2990  224.7980 C   0  0  0  0  0  0  0  0  0  0  0  0
  138.8340   68.1310  224.7930 O   0  0  0  0  0  0  0  0  0  0  0  0
  139.3170   70.0840  223.6880 N   0  0  0  0  0  0  0  0  0  0  0  0
  138.7000   69.6670  222.4680 C   0  0  0  0  0  0  0  0  0  0  0  0
  137.2820   70.0720  222.2560 C   0  0  0  0  0  0  0  0  0  0  0  0
  136.5240   70.5630  223.4210 C   0  0  0  0  0  0  0  0  0  0  0  0
  135.8970   69.4830  224.2610 C   0  0  0  0  0  0  0  0  0  0  0  0
  135.2320   68.4800  223.4500 N   0  0  0  0  0  0  0  0  0  0  0  0
  136.1970   67.8870  222.5790 C   0  0  0  0  0  0  0  0  0  0  0  0
  136.6070   68.9080  221.5490 C   0  0  0  0  0  0  0  0  0  0  0  0
  143.0140   72.3810  220.8740 C   0  0  0  0  0  0  0  0  0  0  0  0
  145.5790   73.9660  218.2460 H   0  0  0  0  0  0  0  0  0  0  0  0
  147.0050   74.0560  219.1280 H   0  0  0  0  0  0  0  0  0  0  0  0
  144.5705   75.2174  219.8208 H   0  0  0  0  0  0  0  0  0  0  0  0
  142.2924   76.0899  220.2657 H   0  0  0  0  0  0  0  0  0  0  0  0
  140.5305   74.6200  221.0778 H   0  0  0  0  0  0  0  0  0  0  0  0
  140.4518   71.0507  221.0615 H   0  0  0  0  0  0  0  0  0  0  0  0
  139.3353   73.1728  222.7179 H   0  0  0  0  0  0  0  0  0  0  0  0
  141.5396   72.4184  227.2461 H   0  0  0  0  0  0  0  0  0  0  0  0
  141.5718   70.9491  229.2596 H   0  0  0  0  0  0  0  0  0  0  0  0
  140.5497   68.6864  229.1773 H   0  0  0  0  0  0  0  0  0  0  0  0
  139.4974   67.9011  227.0750 H   0  0  0  0  0  0  0  0  0  0  0  0
  139.2914   70.0813  221.6382 H   0  0  0  0  0  0  0  0  0  0  0  0
  138.6795   68.5683  222.5184 H   0  0  0  0  0  0  0  0  0  0  0  0
  137.2905   70.9885  221.6478 H   0  0  0  0  0  0  0  0  0  0  0  0
  137.2105   71.1388  224.0591 H   0  0  0  0  0  0  0  0  0  0  0  0
  135.6962   71.1677  223.0220 H   0  0  0  0  0  0  0  0  0  0  0  0
  136.6829   68.9946  224.8558 H   0  0  0  0  0  0  0  0  0  0  0  0
  135.1413   69.9520  224.9082 H   0  0  0  0  0  0  0  0  0  0  0  0
  134.4110   68.8530  222.9460 H   0  0  0  0  0  0  0  0  0  0  0  0
  137.0767   67.5727  223.1598 H   0  0  0  0  0  0  0  0  0  0  0  0
  135.7641   67.0058  222.0829 H   0  0  0  0  0  0  0  0  0  0  0  0
  137.3085   68.4519  220.8350 H   0  0  0  0  0  0  0  0  0  0  0  0
  135.7214   69.2648  221.0028 H   0  0  0  0  0  0  0  0  0  0  0  0
  143.2408   71.3180  221.0433 H   0  0  0  0  0  0  0  0  0  0  0  0
  1  2  1  0
  2  3  2  0
  2  4  2  0
  2  5  1  0
  5  6  2  0
  6  7  1  0
  7  8  2  0
  8  9  1  0
  9 10  1  0
 10 11  2  0
 11 12  1  0
 12 13  2  0
 13 14  1  0
 14 15  2  0
 15 16  1  0
 16 17  2  0
 17 18  1  0
 18 19  2  0
 19 20  1  0
 20 21  2  0
 20 22  1  0
 22 23  1  0
 23 24  1  0
 24 25  1  0
 25 26  1  0
 26 27  1  0
 27 28  1  0
 28 29  1  0
  9 30  2  0
 30  5  1  0
 22 12  1  0
 29 24  1  0
 19 14  1  0
  1 31  1  0
  1 32  1  0
  6 33  1  0
  7 34  1  0
  8 35  1  0
 10 36  1  0
 11 37  1  0
 15 38  1  0
 16 39  1  0
 17 40  1  0
 18 41  1  0
 23 42  1  0
 23 43  1  0
 24 44  1  0
 25 45  1  0
 25 46  1  0
 26 47  1  0
 26 48  1  0
 27 49  1  0
 28 50  1  0
 28 51  1  0
 29 52  1  0
 29 53  1  0
 30 54  1  0
M  END
>  <smiles>  (37) 
NS(=O)(=O)c1cccc(/C=C/c2nc3ccccc3c(=O)n2CC2CCNCC2)c1

>  <score_type>  (37) 
oracle

>  <origin>  (37) 
autodockgpu

>  <m_score__min__energy>  (37) 
-9.5099999999999998

>  <m_primary>  (37) 
energy

>  <rmsd>  (37) 
12.089241344613166

>  <m_score__min__rmsd>  (37) 
12.089241344613166

>  <meeko>  (37) 
{"free_energy": -9.51, "intermolecular_energy": -11.6, "internal_energy": -1.39, "cluster_size": 18, "cluster_id": 1, "rank_in_cluster": 1}

>  <energy>  (37) 
-7.89

>  <cluster_rmsd>  (37) 
0.92

>  <cluster>  (37) 
7

$$$$

     RDKit          3D

 54 57  0  0  0  0  0  0  0  0999 V2000
  140.8360   72.2260  227.8990 N   0  0  0  0  0  0  0  0  0  0  0  0
  140.2850   70.5880  227.9230 S   0  0  0  0  0  0  0  0  0  0  0  0
  141.4500   69.6990  228.3090 O   0  0  0  0  0  0  0  0  0  0  0  0
  139.1450   70.4400  228.8600 O   0  0  0  0  0  0  0  0  0  0  0  0
  139.8410   70.1610  226.2680 C   0  0  0  0  0  0  0  0  0  0  0  0
  139.3080   68.9170  225.9950 C   0  0  0  0  0  0  0  0  0  0  0  0
  138.9770   68.6240  224.6960 C   0  0  0  0  0  0  0  0  0  0  0  0
  139.1680   69.5380  223.7000 C   0  0  0  0  0  0  0  0  0  0  0  0
  139.7040   70.8110  223.9320 C   0  0  0  0  0  0  0  0  0  0  0  0
  139.8940   71.7630  222.8450 C   0  0  0  0  0  0  0  0  0  0  0  0
  141.0350   71.9410  222.2080 C   0  0  0  0  0  0  0  0  0  0  0  0
  141.3270   73.2330  221.5810 C   0  0  0  0  0  0  0  0  0  0  0  0
  140.7700   74.3400  222.1590 N   0  0  0  0  0  0  0  0  0  0  0  0
  140.9570   75.5690  221.6910 C   0  0  0  0  0  0  0  0  0  0  0  0
  140.3700   76.6500  222.3170 C   0  0  0  0  0  0  0  0  0  0  0  0
  140.5890   77.9170  221.7970 C   0  0  0  0  0  0  0  0  0  0  0  0
  141.3770   78.0960  220.6780 C   0  0  0  0  0  0  0  0  0  0  0  0
  141.9500   76.9870  220.0780 C   0  0  0  0  0  0  0  0  0  0  0  0
  141.7520   75.7100  220.5680 C   0  0  0  0  0  0  0  0  0  0  0  0
  142.3030   74.5920  219.9990 C   0  0  0  0  0  0  0  0  0  0  0  0
  143.0240   74.7910  218.9660 O   0  0  0  0  0  0  0  0  0  0  0  0
  142.1060   73.3370  220.4870 N   0  0  0  0  0  0  0  0  0  0  0  0
  142.7030   72.1810  219.8960 C   0  0  0  0  0  0  0  0  0  0  0  0
  144.0520   71.7900  220.3920 C   0  0  0  0  0  0  0  0  0  0  0  0
  144.7850   72.7560  221.2300 C   0  0  0  0  0  0  0  0  0  0  0  0
  145.5680   73.7860  220.4620 C   0  0  0  0  0  0  0  0  0  0  0  0
  146.3220   73.1940  219.3720 N   0  0  0  0  0  0  0  0  0  0  0  0
  145.4060   72.5510  218.4830 C   0  0  0  0  0  0  0  0  0  0  0  0
  144.8400   71.3370  219.1730 C   0  0  0  0  0  0  0  0  0  0  0  0
  140.0300   71.0800  225.2460 C   0  0  0  0  0  0  0  0  0  0  0  0
  140.6550   72.7030  226.9880 H   0  0  0  0  0  0  0  0  0  0  0  0
  140.3030   72.7370  228.6300 H   0  0  0  0  0  0  0  0  0  0  0  0
  139.1529   68.1806  226.7972 H   0  0  0  0  0  0  0  0  0  0  0  0
  138.5518   67.6389  224.4537 H   0  0  0  0  0  0  0  0  0  0  0  0
  138.8892   69.2631  222.6720 H   0  0  0  0  0  0  0  0  0  0  0  0
  139.0312   72.3715  222.5364 H   0  0  0  0  0  0  0  0  0  0  0  0
  141.7661   71.1213  222.1474 H   0  0  0  0  0  0  0  0  0  0  0  0
  139.7420   76.5097  223.2091 H   0  0  0  0  0  0  0  0  0  0  0  0
  140.1289   78.7903  222.2825 H   0  0  0  0  0  0  0  0  0  0  0  0
  141.5471   79.1030  220.2694 H   0  0  0  0  0  0  0  0  0  0  0  0
  142.5799   77.1264  219.1871 H   0  0  0  0  0  0  0  0  0  0  0  0
  142.0260   71.3317  220.0703 H   0  0  0  0  0  0  0  0  0  0  0  0
  142.8521   72.4446  218.8385 H   0  0  0  0  0  0  0  0  0  0  0  0
  143.9093   70.9846  221.1275 H   0  0  0  0  0  0  0  0  0  0  0  0
  144.0562   73.2821  221.8641 H   0  0  0  0  0  0  0  0  0  0  0  0
  145.5188   72.1737  221.8066 H   0  0  0  0  0  0  0  0  0  0  0  0
  144.8690   74.5279  220.0485 H   0  0  0  0  0  0  0  0  0  0  0  0
  146.2826   74.2553  221.1541 H   0  0  0  0  0  0  0  0  0  0  0  0
  147.0730   72.5660  219.7000 H   0  0  0  0  0  0  0  0  0  0  0  0
  144.5917   73.2440  218.2247 H   0  0  0  0  0  0  0  0  0  0  0  0
  145.9246   72.2517  217.5603 H   0  0  0  0  0  0  0  0  0  0  0  0
  144.1756   70.7958  218.4833 H   0  0  0  0  0  0  0  0  0  0  0  0
  145.6565   70.6681  219.4828 H   0  0  0  0  0  0  0  0  0  0  0  0
  140.4571   72.0632  225.4929 H   0  0  0  0  0  0  0  0  0  0  0  0
  1  2  1  0
  2  3  2  0
  2  4  2  0
  2  5  1  0
  5  6  2  0
  6  7  1  0
  7  8  2  0
  8  9  1  0
  9 10  1  0
 10 11  2  0
 11 12  1  0
 12 13  2  0
 13 14  1  0
 14 15  2  0
 15 16  1  0
 16 17  2  0
 17 18  1  0
 18 19  2  0
 19 20  1  0
 20 21  2  0
 20 22  1  0
 22 23  1  0
 23 24  1  0
 24 25  1  0
 25 26  1  0
 26 27  1  0
 27 28  1  0
 28 29  1  0
  9 30  2  0
 30  5  1  0
 22 12  1  0
 29 24  1  0
 19 14  1  0
  1 31  1  0
  1 32  1  0
  6 33  1  0
  7 34  1  0
  8 35  1  0
 10 36  1  0
 11 37  1  0
 15 38  1  0
 16 39  1  0
 17 40  1  0
 18 41  1  0
 23 42  1  0
 23 43  1  0
 24 44  1  0
 25 45  1  0
 25 46  1  0
 26 47  1  0
 26 48  1  0
 27 49  1  0
 28 50  1  0
 28 51  1  0
 29 52  1  0
 29 53  1  0
 30 54  1  0
M  END
>  <smiles>  (38) 
NS(=O)(=O)c1cccc(/C=C/c2nc3ccccc3c(=O)n2CC2CCNCC2)c1

>  <score_type>  (38) 
oracle

>  <origin>  (38) 
autodockgpu

>  <m_score__min__energy>  (38) 
-9.5099999999999998

>  <m_primary>  (38) 
energy

>  <rmsd>  (38) 
7.789916813650408

>  <m_score__min__rmsd>  (38) 
7.789916813650408

>  <meeko>  (38) 
{"free_energy": -8.55, "intermolecular_energy": -10.64, "internal_energy": -1.35, "cluster_size": 2, "cluster_id": 3, "rank_in_cluster": 2}

>  <energy>  (38) 
-7.82

>  <cluster_rmsd>  (38) 
0.79

>  <cluster>  (38) 
7

$$$$

     RDKit          3D

 54 57  0  0  0  0  0  0  0  0999 V2000
  146.0390   73.4220  218.5370 N   0  0  0  0  0  0  0  0  0  0  0  0
  145.5160   72.6460  219.9900 S   0  0  0  0  0  0  0  0  0  0  0  0
  145.3880   71.1610  219.7170 O   0  0  0  0  0  0  0  0  0  0  0  0
  146.4670   72.9230  221.0940 O   0  0  0  0  0  0  0  0  0  0  0  0
  143.8930   73.2450  220.3480 C   0  0  0  0  0  0  0  0  0  0  0  0
  143.5720   74.5620  220.0930 C   0  0  0  0  0  0  0  0  0  0  0  0
  142.3010   74.9880  220.3870 C   0  0  0  0  0  0  0  0  0  0  0  0
  141.3790   74.1320  220.9160 C   0  0  0  0  0  0  0  0  0  0  0  0
  141.6620   72.7870  221.1900 C   0  0  0  0  0  0  0  0  0  0  0  0
  140.6540   71.9000  221.7540 C   0  0  0  0  0  0  0  0  0  0  0  0
  140.0330   72.1170  222.8980 C   0  0  0  0  0  0  0  0  0  0  0  0
  139.9640   71.0540  223.9030 C   0  0  0  0  0  0  0  0  0  0  0  0
  140.5150   71.3220  225.1260 N   0  0  0  0  0  0  0  0  0  0  0  0
  140.5170   70.4450  226.1240 C   0  0  0  0  0  0  0  0  0  0  0  0
  141.0870   70.7720  227.3370 C   0  0  0  0  0  0  0  0  0  0  0  0
  141.0690   69.8300  228.3550 C   0  0  0  0  0  0  0  0  0  0  0  0
  140.4930   68.5890  228.1600 C   0  0  0  0  0  0  0  0  0  0  0  0
  139.9310   68.2980  226.9280 C   0  0  0  0  0  0  0  0  0  0  0  0
  139.9320   69.2140  225.8930 C   0  0  0  0  0  0  0  0  0  0  0  0
  139.3840   68.9580  224.6630 C   0  0  0  0  0  0  0  0  0  0  0  0
  138.8620   67.8040  224.5150 O   0  0  0  0  0  0  0  0  0  0  0  0
  139.3870   69.8640  223.6470 N   0  0  0  0  0  0  0  0  0  0  0  0
  138.7950   69.5920  222.3750 C   0  0  0  0  0  0  0  0  0  0  0  0
  137.3800   70.0200  222.1830 C   0  0  0  0  0  0  0  0  0  0  0  0
  136.6170   70.4300  223.3760 C   0  0  0  0  0  0  0  0  0  0  0  0
  135.9790   69.2960  224.1330 C   0  0  0  0  0  0  0  0  0  0  0  0
  135.3130   68.3590  223.2470 N   0  0  0  0  0  0  0  0  0  0  0  0
  136.2820   67.8240  222.3410 C   0  0  0  0  0  0  0  0  0  0  0  0
  136.7040   68.9140  221.3910 C   0  0  0  0  0  0  0  0  0  0  0  0
  142.9470   72.3850  220.8870 C   0  0  0  0  0  0  0  0  0  0  0  0
  145.3530   74.1250  218.1810 H   0  0  0  0  0  0  0  0  0  0  0  0
  146.9170   73.9300  218.7610 H   0  0  0  0  0  0  0  0  0  0  0  0
  144.3145   75.2520  219.6657 H   0  0  0  0  0  0  0  0  0  0  0  0
  142.0214   76.0341  220.1935 H   0  0  0  0  0  0  0  0  0  0  0  0
  140.3713   74.5138  221.1366 H   0  0  0  0  0  0  0  0  0  0  0  0
  140.3938   70.9917  221.1908 H   0  0  0  0  0  0  0  0  0  0  0  0
  139.5682   73.0941  223.0963 H   0  0  0  0  0  0  0  0  0  0  0  0
  141.5462   71.7592  227.4936 H   0  0  0  0  0  0  0  0  0  0  0  0
  141.5185   70.0736  229.3290 H   0  0  0  0  0  0  0  0  0  0  0  0
  140.4811   67.8447  228.9698 H   0  0  0  0  0  0  0  0  0  0  0  0
  139.4715   67.3113  226.7690 H   0  0  0  0  0  0  0  0  0  0  0  0
  139.4020   70.0995  221.6109 H   0  0  0  0  0  0  0  0  0  0  0  0
  138.7753   68.4949  222.2972 H   0  0  0  0  0  0  0  0  0  0  0  0
  137.3974   70.9775  221.6418 H   0  0  0  0  0  0  0  0  0  0  0  0
  137.3024   70.9548  224.0578 H   0  0  0  0  0  0  0  0  0  0  0  0
  135.7947   71.0660  223.0164 H   0  0  0  0  0  0  0  0  0  0  0  0
  136.7586   68.7609  224.6950 H   0  0  0  0  0  0  0  0  0  0  0  0
  135.2227   69.7212  224.8092 H   0  0  0  0  0  0  0  0  0  0  0  0
  134.4980   68.7710  222.7660 H   0  0  0  0  0  0  0  0  0  0  0  0
  137.1560   67.4635  222.9034 H   0  0  0  0  0  0  0  0  0  0  0  0
  135.8482   66.9832  221.7798 H   0  0  0  0  0  0  0  0  0  0  0  0
  137.4078   68.5066  220.6503 H   0  0  0  0  0  0  0  0  0  0  0  0
  135.8235   69.3144  220.8672 H   0  0  0  0  0  0  0  0  0  0  0  0
  143.2328   71.3406  221.0806 H   0  0  0  0  0  0  0  0  0  0  0  0
  1  2  1  0
  2  3  2  0
  2  4  2  0
  2  5  1  0
  5  6  2  0
  6  7  1  0
  7  8  2  0
  8  9  1  0
  9 10  1  0
 10 11  2  0
 11 12  1  0
 12 13  2  0
 13 14  1  0
 14 15  2  0
 15 16  1  0
 16 17  2  0
 17 18  1  0
 18 19  2  0
 19 20  1  0
 20 21  2  0
 20 22  1  0
 22 23  1  0
 23 24  1  0
 24 25  1  0
 25 26  1  0
 26 27  1  0
 27 28  1  0
 28 29  1  0
  9 30  2  0
 30  5  1  0
 22 12  1  0
 29 24  1  0
 19 14  1  0
  1 31  1  0
  1 32  1  0
  6 33  1  0
  7 34  1  0
  8 35  1  0
 10 36  1  0
 11 37  1  0
 15 38  1  0
 16 39  1  0
 17 40  1  0
 18 41  1  0
 23 42  1  0
 23 43  1  0
 24 44  1  0
 25 45  1  0
 25 46  1  0
 26 47  1  0
 26 48  1  0
 27 49  1  0
 28 50  1  0
 28 51  1  0
 29 52  1  0
 29 53  1  0
 30 54  1  0
M  END
>  <smiles>  (39) 
NS(=O)(=O)c1cccc(/C=C/c2nc3ccccc3c(=O)n2CC2CCNCC2)c1

>  <score_type>  (39) 
oracle

>  <origin>  (39) 
autodockgpu

>  <m_score__min__energy>  (39) 
-9.5099999999999998

>  <m_primary>  (39) 
energy

>  <rmsd>  (39) 
12.23667859479669

>  <m_score__min__rmsd>  (39) 
12.23667859479669

>  <meeko>  (39) 
{"free_energy": -9.48, "intermolecular_energy": -11.57, "internal_energy": -1.34, "cluster_size": 18, "cluster_id": 1, "rank_in_cluster": 2}

>  <energy>  (39) 
-7.79

>  <cluster_rmsd>  (39) 
0.88

>  <cluster>  (39) 
7

$$$$

     RDKit          3D

 54 57  0  0  0  0  0  0  0  0999 V2000
  142.9550   79.0330  222.3340 N   0  0  0  0  0  0  0  0  0  0  0  0
  142.2500   79.8550  223.6810 S   0  0  0  0  0  0  0  0  0  0  0  0
  141.8180   78.8180  224.6980 O   0  0  0  0  0  0  0  0  0  0  0  0
  143.2150   80.8220  224.2570 O   0  0  0  0  0  0  0  0  0  0  0  0
  140.7830   80.6480  223.1020 C   0  0  0  0  0  0  0  0  0  0  0  0
  140.8710   81.8270  222.3900 C   0  0  0  0  0  0  0  0  0  0  0  0
  139.7080   82.4120  221.9580 C   0  0  0  0  0  0  0  0  0  0  0  0
  138.4960   81.8450  222.2250 C   0  0  0  0  0  0  0  0  0  0  0  0
  138.3600   80.6500  222.9440 C   0  0  0  0  0  0  0  0  0  0  0  0
  137.0500   80.0710  223.2110 C   0  0  0  0  0  0  0  0  0  0  0  0
  136.4450   79.2090  222.4170 C   0  0  0  0  0  0  0  0  0  0  0  0
  136.2820   77.8160  222.8410 C   0  0  0  0  0  0  0  0  0  0  0  0
  135.3780   77.5750  223.8370 N   0  0  0  0  0  0  0  0  0  0  0  0
  135.1340   76.3580  224.3120 C   0  0  0  0  0  0  0  0  0  0  0  0
  134.2090   76.1750  225.3180 C   0  0  0  0  0  0  0  0  0  0  0  0
  133.9830   74.8890  225.7870 C   0  0  0  0  0  0  0  0  0  0  0  0
  134.6690   73.8130  225.2580 C   0  0  0  0  0  0  0  0  0  0  0  0
  135.5900   74.0370  224.2490 C   0  0  0  0  0  0  0  0  0  0  0  0
  135.8400   75.3050  223.7590 C   0  0  0  0  0  0  0  0  0  0  0  0
  136.7440   75.5610  222.7610 C   0  0  0  0  0  0  0  0  0  0  0  0
  137.3620   74.5470  222.2960 O   0  0  0  0  0  0  0  0  0  0  0  0
  136.9850   76.8110  222.2820 N   0  0  0  0  0  0  0  0  0  0  0  0
  137.9160   77.0630  221.2270 C   0  0  0  0  0  0  0  0  0  0  0  0
  139.1760   77.7680  221.5920 C   0  0  0  0  0  0  0  0  0  0  0  0
  139.9910   78.3310  220.5010 C   0  0  0  0  0  0  0  0  0  0  0  0
  140.9400   77.3550  219.8580 C   0  0  0  0  0  0  0  0  0  0  0  0
  141.6580   76.5670  220.8430 N   0  0  0  0  0  0  0  0  0  0  0  0
  140.7070   75.8420  221.6260 C   0  0  0  0  0  0  0  0  0  0  0  0
  139.9520   76.8180  222.4900 C   0  0  0  0  0  0  0  0  0  0  0  0
  139.5440   80.0820  223.3670 C   0  0  0  0  0  0  0  0  0  0  0  0
  142.3780   78.2290  222.0010 H   0  0  0  0  0  0  0  0  0  0  0  0
  143.0120   79.7170  221.5550 H   0  0  0  0  0  0  0  0  0  0  0  0
  141.8476   82.2852  222.1747 H   0  0  0  0  0  0  0  0  0  0  0  0
  139.7531   83.3518  221.3881 H   0  0  0  0  0  0  0  0  0  0  0  0
  137.5876   82.3470  221.8606 H   0  0  0  0  0  0  0  0  0  0  0  0
  136.5324   80.3720  224.1338 H   0  0  0  0  0  0  0  0  0  0  0  0
  136.0635   79.5353  221.4382 H   0  0  0  0  0  0  0  0  0  0  0  0
  133.6616   77.0308  225.7399 H   0  0  0  0  0  0  0  0  0  0  0  0
  133.2489   74.7243  226.5895 H   0  0  0  0  0  0  0  0  0  0  0  0
  134.4865   72.7949  225.6323 H   0  0  0  0  0  0  0  0  0  0  0  0
  136.1379   73.1823  223.8256 H   0  0  0  0  0  0  0  0  0  0  0  0
  138.1933   76.0923  220.7901 H   0  0  0  0  0  0  0  0  0  0  0  0
  137.3937   77.7472  220.5421 H   0  0  0  0  0  0  0  0  0  0  0  0
  138.8933   78.6990  222.1051 H   0  0  0  0  0  0  0  0  0  0  0  0
  139.3100   78.7093  219.7244 H   0  0  0  0  0  0  0  0  0  0  0  0
  140.6127   79.1186  220.9516 H   0  0  0  0  0  0  0  0  0  0  0  0
  140.3664   76.6764  219.2096 H   0  0  0  0  0  0  0  0  0  0  0  0
  141.6777   77.9293  219.2784 H   0  0  0  0  0  0  0  0  0  0  0  0
  142.3030   77.1340  221.4170 H   0  0  0  0  0  0  0  0  0  0  0  0
  140.0056   75.3148  220.9625 H   0  0  0  0  0  0  0  0  0  0  0  0
  141.2241   75.1038  222.2566 H   0  0  0  0  0  0  0  0  0  0  0  0
  139.2539   76.2719  223.1416 H   0  0  0  0  0  0  0  0  0  0  0  0
  140.6562   77.3861  223.1156 H   0  0  0  0  0  0  0  0  0  0  0  0
  139.5043   79.1423  223.9375 H   0  0  0  0  0  0  0  0  0  0  0  0
  1  2  1  0
  2  3  2  0
  2  4  2  0
  2  5  1  0
  5  6  2  0
  6  7  1  0
  7  8  2  0
  8  9  1  0
  9 10  1  0
 10 11  2  0
 11 12  1  0
 12 13  2  0
 13 14  1  0
 14 15  2  0
 15 16  1  0
 16 17  2  0
 17 18  1  0
 18 19  2  0
 19 20  1  0
 20 21  2  0
 20 22  1  0
 22 23  1  0
 23 24  1  0
 24 25  1  0
 25 26  1  0
 26 27  1  0
 27 28  1  0
 28 29  1  0
  9 30  2  0
 30  5  1  0
 22 12  1  0
 29 24  1  0
 19 14  1  0
  1 31  1  0
  1 32  1  0
  6 33  1  0
  7 34  1  0
  8 35  1  0
 10 36  1  0
 11 37  1  0
 15 38  1  0
 16 39  1  0
 17 40  1  0
 18 41  1  0
 23 42  1  0
 23 43  1  0
 24 44  1  0
 25 45  1  0
 25 46  1  0
 26 47  1  0
 26 48  1  0
 27 49  1  0
 28 50  1  0
 28 51  1  0
 29 52  1  0
 29 53  1  0
 30 54  1  0
M  END
>  <smiles>  (40) 
NS(=O)(=O)c1cccc(/C=C/c2nc3ccccc3c(=O)n2CC2CCNCC2)c1

>  <score_type>  (40) 
oracle

>  <origin>  (40) 
autodockgpu

>  <m_score__min__energy>  (40) 
-9.5099999999999998

>  <m_primary>  (40) 
energy

>  <rmsd>  (40) 
6.8827599666301795

>  <m_score__min__rmsd>  (40) 
6.8827599666301795

>  <meeko>  (40) 
{"free_energy": -6.73, "intermolecular_energy": -8.81, "internal_energy": -3.17, "cluster_size": 3, "cluster_id": 14, "rank_in_cluster": 1}

>  <energy>  (40) 
-7.7

>  <cluster_rmsd>  (40) 
0.0

>  <cluster>  (40) 
8

$$$$

     RDKit          3D

 54 57  0  0  0  0  0  0  0  0999 V2000
  145.9490   73.3910  218.4960 N   0  0  0  0  0  0  0  0  0  0  0  0
  145.3780   72.9180  220.0570 S   0  0  0  0  0  0  0  0  0  0  0  0
  145.1440   71.4210  220.0450 O   0  0  0  0  0  0  0  0  0  0  0  0
  146.3490   73.3150  221.1040 O   0  0  0  0  0  0  0  0  0  0  0  0
  143.8020   73.6810  220.2910 C   0  0  0  0  0  0  0  0  0  0  0  0
  143.5530   74.9280  219.7530 C   0  0  0  0  0  0  0  0  0  0  0  0
  142.3170   75.4870  219.9590 C   0  0  0  0  0  0  0  0  0  0  0  0
  141.3590   74.8280  220.6750 C   0  0  0  0  0  0  0  0  0  0  0  0
  141.5700   73.5630  221.2380 C   0  0  0  0  0  0  0  0  0  0  0  0
  140.5250   72.8880  221.9970 C   0  0  0  0  0  0  0  0  0  0  0  0
  140.4170   71.5770  222.1040 C   0  0  0  0  0  0  0  0  0  0  0  0
  140.2070   70.9690  223.4200 C   0  0  0  0  0  0  0  0  0  0  0  0
  140.7230   71.6330  224.4980 N   0  0  0  0  0  0  0  0  0  0  0  0
  140.6010   71.1900  225.7450 C   0  0  0  0  0  0  0  0  0  0  0  0
  141.1420   71.9040  226.7940 C   0  0  0  0  0  0  0  0  0  0  0  0
  140.9940   71.4080  228.0810 C   0  0  0  0  0  0  0  0  0  0  0  0
  140.3200   70.2240  228.3100 C   0  0  0  0  0  0  0  0  0  0  0  0
  139.7910   69.5360  227.2310 C   0  0  0  0  0  0  0  0  0  0  0  0
  139.9210   70.0010  225.9360 C   0  0  0  0  0  0  0  0  0  0  0  0
  139.4090   69.3450  224.8460 C   0  0  0  0  0  0  0  0  0  0  0  0
  138.7950   68.2550  225.0910 O   0  0  0  0  0  0  0  0  0  0  0  0
  139.5390   69.8090  223.5730 N   0  0  0  0  0  0  0  0  0  0  0  0
  138.9840   69.1250  222.4480 C   0  0  0  0  0  0  0  0  0  0  0  0
  137.6570   69.5950  221.9590 C   0  0  0  0  0  0  0  0  0  0  0  0
  137.3410   71.0280  222.0960 C   0  0  0  0  0  0  0  0  0  0  0  0
  136.7810   71.4220  223.4360 C   0  0  0  0  0  0  0  0  0  0  0  0
  135.7550   70.5020  223.8890 N   0  0  0  0  0  0  0  0  0  0  0  0
  136.3290   69.1960  223.9920 C   0  0  0  0  0  0  0  0  0  0  0  0
  136.6210   68.6890  222.6030 C   0  0  0  0  0  0  0  0  0  0  0  0
  142.8210   73.0240  221.0170 C   0  0  0  0  0  0  0  0  0  0  0  0
  145.3520   74.1210  218.0480 H   0  0  0  0  0  0  0  0  0  0  0  0
  146.8940   73.8000  218.6280 H   0  0  0  0  0  0  0  0  0  0  0  0
  144.3241   75.4586  219.1753 H   0  0  0  0  0  0  0  0  0  0  0  0
  142.0947   76.4801  219.5415 H   0  0  0  0  0  0  0  0  0  0  0  0
  140.3807   75.3108  220.8155 H   0  0  0  0  0  0  0  0  0  0  0  0
  139.7792   73.5104  222.5132 H   0  0  0  0  0  0  0  0  0  0  0  0
  140.4845   70.9429  221.2077 H   0  0  0  0  0  0  0  0  0  0  0  0
  141.6794   72.8467  226.6138 H   0  0  0  0  0  0  0  0  0  0  0  0
  141.4186   71.9643  228.9297 H   0  0  0  0  0  0  0  0  0  0  0  0
  140.2055   69.8344  229.3323 H   0  0  0  0  0  0  0  0  0  0  0  0
  139.2525   68.5936  227.4094 H   0  0  0  0  0  0  0  0  0  0  0  0
  139.6973   69.2207  221.6162 H   0  0  0  0  0  0  0  0  0  0  0  0
  138.8128   68.0953  222.7951 H   0  0  0  0  0  0  0  0  0  0  0  0
  137.6645   69.5162  220.8619 H   0  0  0  0  0  0  0  0  0  0  0  0
  138.2654   71.6004  221.9290 H   0  0  0  0  0  0  0  0  0  0  0  0
  136.5578   71.2461  221.3551 H   0  0  0  0  0  0  0  0  0  0  0  0
  137.5979   71.4334  224.1726 H   0  0  0  0  0  0  0  0  0  0  0  0
  136.3233   72.4169  223.3333 H   0  0  0  0  0  0  0  0  0  0  0  0
  134.9080   70.5230  223.2970 H   0  0  0  0  0  0  0  0  0  0  0  0
  137.2622   69.2459  224.5722 H   0  0  0  0  0  0  0  0  0  0  0  0
  135.6293   68.5167  224.5010 H   0  0  0  0  0  0  0  0  0  0  0  0
  137.0114   67.6621  222.6587 H   0  0  0  0  0  0  0  0  0  0  0  0
  135.6990   68.6900  222.0031 H   0  0  0  0  0  0  0  0  0  0  0  0
  143.0490   72.0321  221.4342 H   0  0  0  0  0  0  0  0  0  0  0  0
  1  2  1  0
  2  3  2  0
  2  4  2  0
  2  5  1  0
  5  6  2  0
  6  7  1  0
  7  8  2  0
  8  9  1  0
  9 10  1  0
 10 11  2  0
 11 12  1  0
 12 13  2  0
 13 14  1  0
 14 15  2  0
 15 16  1  0
 16 17  2  0
 17 18  1  0
 18 19  2  0
 19 20  1  0
 20 21  2  0
 20 22  1  0
 22 23  1  0
 23 24  1  0
 24 25  1  0
 25 26  1  0
 26 27  1  0
 27 28  1  0
 28 29  1  0
  9 30  2  0
 30  5  1  0
 22 12  1  0
 29 24  1  0
 19 14  1  0
  1 31  1  0
  1 32  1  0
  6 33  1  0
  7 34  1  0
  8 35  1  0
 10 36  1  0
 11 37  1  0
 15 38  1  0
 16 39  1  0
 17 40  1  0
 18 41  1  0
 23 42  1  0
 23 43  1  0
 24 44  1  0
 25 45  1  0
 25 46  1  0
 26 47  1  0
 26 48  1  0
 27 49  1  0
 28 50  1  0
 28 51  1  0
 29 52  1  0
 29 53  1  0
 30 54  1  0
M  END
>  <smiles>  (41) 
NS(=O)(=O)c1cccc(/C=C/c2nc3ccccc3c(=O)n2CC2CCNCC2)c1

>  <score_type>  (41) 
oracle

>  <origin>  (41) 
autodockgpu

>  <m_score__min__energy>  (41) 
-9.5099999999999998

>  <m_primary>  (41) 
energy

>  <rmsd>  (41) 
11.692466058884294

>  <m_score__min__rmsd>  (41) 
11.692466058884294

>  <meeko>  (41) 
{"free_energy": -9.17, "intermolecular_energy": -11.25, "internal_energy": -1.45, "cluster_size": 18, "cluster_id": 1, "rank_in_cluster": 7}

>  <energy>  (41) 
-7.41

>  <cluster_rmsd>  (41) 
1.2

>  <cluster>  (41) 
8

$$$$

     RDKit          3D

 54 57  0  0  0  0  0  0  0  0999 V2000
  146.1410   73.3890  218.6080 N   0  0  0  0  0  0  0  0  0  0  0  0
  145.3880   72.7040  220.0040 S   0  0  0  0  0  0  0  0  0  0  0  0
  145.0360   71.2620  219.6960 O   0  0  0  0  0  0  0  0  0  0  0  0
  146.2850   72.8120  221.1800 O   0  0  0  0  0  0  0  0  0  0  0  0
  143.8640   73.5620  220.2520 C   0  0  0  0  0  0  0  0  0  0  0  0
  143.6870   74.8210  219.7150 C   0  0  0  0  0  0  0  0  0  0  0  0
  142.4890   75.4550  219.9310 C   0  0  0  0  0  0  0  0  0  0  0  0
  141.5000   74.8560  220.6560 C   0  0  0  0  0  0  0  0  0  0  0  0
  141.6370   73.5800  221.2180 C   0  0  0  0  0  0  0  0  0  0  0  0
  140.5600   72.9710  221.9870 C   0  0  0  0  0  0  0  0  0  0  0  0
  140.3380   71.6720  222.0500 C   0  0  0  0  0  0  0  0  0  0  0  0
  140.1480   71.0270  223.3510 C   0  0  0  0  0  0  0  0  0  0  0  0
  140.6670   71.6690  224.4410 N   0  0  0  0  0  0  0  0  0  0  0  0
  140.5620   71.1910  225.6770 C   0  0  0  0  0  0  0  0  0  0  0  0
  141.1050   71.8840  226.7390 C   0  0  0  0  0  0  0  0  0  0  0  0
  140.9760   71.3530  228.0140 C   0  0  0  0  0  0  0  0  0  0  0  0
  140.3170   70.1560  228.2180 C   0  0  0  0  0  0  0  0  0  0  0  0
  139.7850   69.4900  227.1260 C   0  0  0  0  0  0  0  0  0  0  0  0
  139.8970   69.9900  225.8430 C   0  0  0  0  0  0  0  0  0  0  0  0
  139.3820   69.3580  224.7410 C   0  0  0  0  0  0  0  0  0  0  0  0
  138.7820   68.2540  224.9630 O   0  0  0  0  0  0  0  0  0  0  0  0
  139.4940   69.8560  223.4800 N   0  0  0  0  0  0  0  0  0  0  0  0
  138.9360   69.1960  222.3420 C   0  0  0  0  0  0  0  0  0  0  0  0
  137.5620   69.6030  221.9320 C   0  0  0  0  0  0  0  0  0  0  0  0
  136.6940   70.2190  222.9510 C   0  0  0  0  0  0  0  0  0  0  0  0
  135.9460   69.2390  223.8140 C   0  0  0  0  0  0  0  0  0  0  0  0
  135.3470   68.1730  223.0320 N   0  0  0  0  0  0  0  0  0  0  0  0
  136.3870   67.4800  222.3370 C   0  0  0  0  0  0  0  0  0  0  0  0
  136.9370   68.3880  221.2680 C   0  0  0  0  0  0  0  0  0  0  0  0
  142.8510   72.9660  220.9870 C   0  0  0  0  0  0  0  0  0  0  0  0
  145.4950   73.9920  218.0520 H   0  0  0  0  0  0  0  0  0  0  0  0
  146.9170   73.9900  218.9440 H   0  0  0  0  0  0  0  0  0  0  0  0
  144.4841   75.3031  219.1300 H   0  0  0  0  0  0  0  0  0  0  0  0
  142.3238   76.4595  219.5141 H   0  0  0  0  0  0  0  0  0  0  0  0
  140.5547   75.3983  220.8055 H   0  0  0  0  0  0  0  0  0  0  0  0
  139.8895   73.6362  222.5508 H   0  0  0  0  0  0  0  0  0  0  0  0
  140.2957   71.0747  221.1273 H   0  0  0  0  0  0  0  0  0  0  0  0
  141.6292   72.8376  226.5782 H   0  0  0  0  0  0  0  0  0  0  0  0
  141.4034   71.8913  228.8728 H   0  0  0  0  0  0  0  0  0  0  0  0
  140.2164   69.7387  229.2308 H   0  0  0  0  0  0  0  0  0  0  0  0
  139.2590   68.5370  227.2848 H   0  0  0  0  0  0  0  0  0  0  0  0
  139.6056   69.3811  221.4892 H   0  0  0  0  0  0  0  0  0  0  0  0
  138.8456   68.1407  222.6388 H   0  0  0  0  0  0  0  0  0  0  0  0
  137.6643   70.4546  221.2433 H   0  0  0  0  0  0  0  0  0  0  0  0
  137.3218   70.8421  223.6049 H   0  0  0  0  0  0  0  0  0  0  0  0
  135.9335   70.7960  222.4044 H   0  0  0  0  0  0  0  0  0  0  0  0
  136.6459   68.7976  224.5388 H   0  0  0  0  0  0  0  0  0  0  0  0
  135.1368   69.7830  224.3231 H   0  0  0  0  0  0  0  0  0  0  0  0
  134.5980   68.5090  222.4050 H   0  0  0  0  0  0  0  0  0  0  0  0
  137.1873   67.2094  223.0415 H   0  0  0  0  0  0  0  0  0  0  0  0
  135.9881   66.5615  221.8819 H   0  0  0  0  0  0  0  0  0  0  0  0
  137.7000   67.8522  220.6844 H   0  0  0  0  0  0  0  0  0  0  0  0
  136.1275   68.7052  220.5941 H   0  0  0  0  0  0  0  0  0  0  0  0
  143.0219   71.9623  221.4033 H   0  0  0  0  0  0  0  0  0  0  0  0
  1  2  1  0
  2  3  2  0
  2  4  2  0
  2  5  1  0
  5  6  2  0
  6  7  1  0
  7  8  2  0
  8  9  1  0
  9 10  1  0
 10 11  2  0
 11 12  1  0
 12 13  2  0
 13 14  1  0
 14 15  2  0
 15 16  1  0
 16 17  2  0
 17 18  1  0
 18 19  2  0
 19 20  1  0
 20 21  2  0
 20 22  1  0
 22 23  1  0
 23 24  1  0
 24 25  1  0
 25 26  1  0
 26 27  1  0
 27 28  1  0
 28 29  1  0
  9 30  2  0
 30  5  1  0
 22 12  1  0
 29 24  1  0
 19 14  1  0
  1 31  1  0
  1 32  1  0
  6 33  1  0
  7 34  1  0
  8 35  1  0
 10 36  1  0
 11 37  1  0
 15 38  1  0
 16 39  1  0
 17 40  1  0
 18 41  1  0
 23 42  1  0
 23 43  1  0
 24 44  1  0
 25 45  1  0
 25 46  1  0
 26 47  1  0
 26 48  1  0
 27 49  1  0
 28 50  1  0
 28 51  1  0
 29 52  1  0
 29 53  1  0
 30 54  1  0
M  END
>  <smiles>  (42) 
NS(=O)(=O)c1cccc(/C=C/c2nc3ccccc3c(=O)n2CC2CCNCC2)c1

>  <score_type>  (42) 
oracle

>  <origin>  (42) 
autodockgpu

>  <m_score__min__energy>  (42) 
-9.5099999999999998

>  <m_primary>  (42) 
energy

>  <rmsd>  (42) 
12.107951578187024

>  <m_score__min__rmsd>  (42) 
12.107951578187024

>  <meeko>  (42) 
{"free_energy": -9.27, "intermolecular_energy": -11.36, "internal_energy": -1.41, "cluster_size": 18, "cluster_id": 1, "rank_in_cluster": 4}

>  <energy>  (42) 
-7.67

>  <cluster_rmsd>  (42) 
0.0

>  <cluster>  (42) 
9

$$$$

     RDKit          3D

 54 57  0  0  0  0  0  0  0  0999 V2000
  141.0280   68.1370  228.0080 N   0  0  0  0  0  0  0  0  0  0  0  0
  140.3190   69.7020  227.8230 S   0  0  0  0  0  0  0  0  0  0  0  0
  139.0650   69.7600  228.6710 O   0  0  0  0  0  0  0  0  0  0  0  0
  141.2900   70.7570  228.2040 O   0  0  0  0  0  0  0  0  0  0  0  0
  139.8080   69.8500  226.1390 C   0  0  0  0  0  0  0  0  0  0  0  0
  138.7620   69.0840  225.6660 C   0  0  0  0  0  0  0  0  0  0  0  0
  138.3960   69.2280  224.3520 C   0  0  0  0  0  0  0  0  0  0  0  0
  139.0470   70.1060  223.5340 C   0  0  0  0  0  0  0  0  0  0  0  0
  140.1130   70.9030  223.9730 C   0  0  0  0  0  0  0  0  0  0  0  0
  140.7860   71.8300  223.0730 C   0  0  0  0  0  0  0  0  0  0  0  0
  140.1940   72.4530  222.0720 C   0  0  0  0  0  0  0  0  0  0  0  0
  140.7270   73.7290  221.5890 C   0  0  0  0  0  0  0  0  0  0  0  0
  140.1830   74.8660  222.1180 N   0  0  0  0  0  0  0  0  0  0  0  0
  140.5780   76.0860  221.7670 C   0  0  0  0  0  0  0  0  0  0  0  0
  139.9930   77.1980  222.3350 C   0  0  0  0  0  0  0  0  0  0  0  0
  140.4330   78.4540  221.9430 C   0  0  0  0  0  0  0  0  0  0  0  0
  141.4350   78.5900  221.0020 C   0  0  0  0  0  0  0  0  0  0  0  0
  141.9980   77.4490  220.4540 C   0  0  0  0  0  0  0  0  0  0  0  0
  141.5840   76.1840  220.8220 C   0  0  0  0  0  0  0  0  0  0  0  0
  142.1200   75.0350  220.3010 C   0  0  0  0  0  0  0  0  0  0  0  0
  143.0410   75.1950  219.4340 O   0  0  0  0  0  0  0  0  0  0  0  0
  141.7080   73.7910  220.6680 N   0  0  0  0  0  0  0  0  0  0  0  0
  142.2890   72.6010  220.1300 C   0  0  0  0  0  0  0  0  0  0  0  0
  143.4740   72.0460  220.8430 C   0  0  0  0  0  0  0  0  0  0  0  0
  144.5850   72.9650  221.1500 C   0  0  0  0  0  0  0  0  0  0  0  0
  145.5750   73.1490  220.0310 C   0  0  0  0  0  0  0  0  0  0  0  0
  145.9480   71.8860  219.4230 N   0  0  0  0  0  0  0  0  0  0  0  0
  144.7690   71.2670  218.9020 C   0  0  0  0  0  0  0  0  0  0  0  0
  143.9100   70.8220  220.0570 C   0  0  0  0  0  0  0  0  0  0  0  0
  140.4620   70.7380  225.2970 C   0  0  0  0  0  0  0  0  0  0  0  0
  140.3380   67.3620  227.8970 H   0  0  0  0  0  0  0  0  0  0  0  0
  141.7370   68.0320  227.2560 H   0  0  0  0  0  0  0  0  0  0  0  0
  138.2362   68.3773  226.3248 H   0  0  0  0  0  0  0  0  0  0  0  0
  137.5660   68.6274  223.9515 H   0  0  0  0  0  0  0  0  0  0  0  0
  138.7213   70.1915  222.4868 H   0  0  0  0  0  0  0  0  0  0  0  0
  141.8562   72.0229  223.2386 H   0  0  0  0  0  0  0  0  0  0  0  0
  139.3017   72.0150  221.6009 H   0  0  0  0  0  0  0  0  0  0  0  0
  139.1940   77.0914  223.0835 H   0  0  0  0  0  0  0  0  0  0  0  0
  139.9786   79.3521  222.3868 H   0  0  0  0  0  0  0  0  0  0  0  0
  141.7802   79.5877  220.6929 H   0  0  0  0  0  0  0  0  0  0  0  0
  142.7969   77.5535  219.7051 H   0  0  0  0  0  0  0  0  0  0  0  0
  141.5103   71.8241  220.1254 H   0  0  0  0  0  0  0  0  0  0  0  0
  142.6620   72.8887  219.1360 H   0  0  0  0  0  0  0  0  0  0  0  0
  143.1550   71.7994  221.8664 H   0  0  0  0  0  0  0  0  0  0  0  0
  144.1584   73.9487  221.3956 H   0  0  0  0  0  0  0  0  0  0  0  0
  145.1402   72.5139  221.9857 H   0  0  0  0  0  0  0  0  0  0  0  0
  145.1259   73.7946  219.2619 H   0  0  0  0  0  0  0  0  0  0  0  0
  146.4832   73.6050  220.4521 H   0  0  0  0  0  0  0  0  0  0  0  0
  146.4750   71.2720  220.0650 H   0  0  0  0  0  0  0  0  0  0  0  0
  144.2142   71.9879  218.2836 H   0  0  0  0  0  0  0  0  0  0  0  0
  145.0420   70.4011  218.2809 H   0  0  0  0  0  0  0  0  0  0  0  0
  143.0243   70.2923  219.6764 H   0  0  0  0  0  0  0  0  0  0  0  0
  144.4813   70.1439  220.7080 H   0  0  0  0  0  0  0  0  0  0  0  0
  141.2927   71.3347  225.7020 H   0  0  0  0  0  0  0  0  0  0  0  0
  1  2  1  0
  2  3  2  0
  2  4  2  0
  2  5  1  0
  5  6  2  0
  6  7  1  0
  7  8  2  0
  8  9  1  0
  9 10  1  0
 10 11  2  0
 11 12  1  0
 12 13  2  0
 13 14  1  0
 14 15  2  0
 15 16  1  0
 16 17  2  0
 17 18  1  0
 18 19  2  0
 19 20  1  0
 20 21  2  0
 20 22  1  0
 22 23  1  0
 23 24  1  0
 24 25  1  0
 25 26  1  0
 26 27  1  0
 27 28  1  0
 28 29  1  0
  9 30  2  0
 30  5  1  0
 22 12  1  0
 29 24  1  0
 19 14  1  0
  1 31  1  0
  1 32  1  0
  6 33  1  0
  7 34  1  0
  8 35  1  0
 10 36  1  0
 11 37  1  0
 15 38  1  0
 16 39  1  0
 17 40  1  0
 18 41  1  0
 23 42  1  0
 23 43  1  0
 24 44  1  0
 25 45  1  0
 25 46  1  0
 26 47  1  0
 26 48  1  0
 27 49  1  0
 28 50  1  0
 28 51  1  0
 29 52  1  0
 29 53  1  0
 30 54  1  0
M  END
>  <smiles>  (43) 
NS(=O)(=O)c1cccc(/C=C/c2nc3ccccc3c(=O)n2CC2CCNCC2)c1

>  <score_type>  (43) 
oracle

>  <origin>  (43) 
autodockgpu

>  <m_score__min__energy>  (43) 
-9.5099999999999998

>  <m_primary>  (43) 
energy

>  <rmsd>  (43) 
7.985950445393922

>  <m_score__min__rmsd>  (43) 
7.985950445393922

>  <meeko>  (43) 
{"free_energy": -9.08, "intermolecular_energy": -11.16, "internal_energy": -1.31, "cluster_size": 4, "cluster_id": 2, "rank_in_cluster": 3}

>  <energy>  (43) 
-7.67

>  <cluster_rmsd>  (43) 
0.0

>  <cluster>  (43) 
10

$$$$

     RDKit          3D

 54 57  0  0  0  0  0  0  0  0999 V2000
  146.0090   73.3880  218.7860 N   0  0  0  0  0  0  0  0  0  0  0  0
  145.2460   72.7550  220.2020 S   0  0  0  0  0  0  0  0  0  0  0  0
  144.9130   71.2970  219.9530 O   0  0  0  0  0  0  0  0  0  0  0  0
  146.1280   72.9240  221.3820 O   0  0  0  0  0  0  0  0  0  0  0  0
  143.7110   73.6060  220.3950 C   0  0  0  0  0  0  0  0  0  0  0  0
  143.5720   74.8950  219.9210 C   0  0  0  0  0  0  0  0  0  0  0  0
  142.3640   75.5220  220.0910 C   0  0  0  0  0  0  0  0  0  0  0  0
  141.3270   74.8890  220.7120 C   0  0  0  0  0  0  0  0  0  0  0  0
  141.4230   73.5820  221.2080 C   0  0  0  0  0  0  0  0  0  0  0  0
  140.2950   72.9350  221.8660 C   0  0  0  0  0  0  0  0  0  0  0  0
  140.3990   72.1830  222.9440 C   0  0  0  0  0  0  0  0  0  0  0  0
  139.9220   70.7990  222.9170 C   0  0  0  0  0  0  0  0  0  0  0  0
  139.8340   70.1990  221.6910 N   0  0  0  0  0  0  0  0  0  0  0  0
  139.4180   68.9480  221.5280 C   0  0  0  0  0  0  0  0  0  0  0  0
  139.3510   68.3950  220.2660 C   0  0  0  0  0  0  0  0  0  0  0  0
  138.9110   67.0850  220.1360 C   0  0  0  0  0  0  0  0  0  0  0  0
  138.5480   66.3490  221.2470 C   0  0  0  0  0  0  0  0  0  0  0  0
  138.6300   66.9390  222.4970 C   0  0  0  0  0  0  0  0  0  0  0  0
  139.0620   68.2410  222.6620 C   0  0  0  0  0  0  0  0  0  0  0  0
  139.1550   68.8540  223.8840 C   0  0  0  0  0  0  0  0  0  0  0  0
  138.8110   68.1480  224.8890 O   0  0  0  0  0  0  0  0  0  0  0  0
  139.5830   70.1360  224.0400 N   0  0  0  0  0  0  0  0  0  0  0  0
  139.6940   70.7580  225.3220 C   0  0  0  0  0  0  0  0  0  0  0  0
  140.9370   70.4880  226.0980 C   0  0  0  0  0  0  0  0  0  0  0  0
  141.4590   69.1100  226.1040 C   0  0  0  0  0  0  0  0  0  0  0  0
  140.8390   68.2080  227.1360 C   0  0  0  0  0  0  0  0  0  0  0  0
  140.7400   68.8530  228.4330 N   0  0  0  0  0  0  0  0  0  0  0  0
  139.9330   70.0250  228.2970 C   0  0  0  0  0  0  0  0  0  0  0  0
  140.6980   71.0440  227.4920 C   0  0  0  0  0  0  0  0  0  0  0  0
  142.6490   72.9750  221.0250 C   0  0  0  0  0  0  0  0  0  0  0  0
  145.3840   74.0150  218.2330 H   0  0  0  0  0  0  0  0  0  0  0  0
  146.8180   73.9550  219.1040 H   0  0  0  0  0  0  0  0  0  0  0  0
  144.4078   75.4057  219.4203 H   0  0  0  0  0  0  0  0  0  0  0  0
  142.2294   76.5493  219.7216 H   0  0  0  0  0  0  0  0  0  0  0  0
  140.3750   75.4277  220.8282 H   0  0  0  0  0  0  0  0  0  0  0  0
  139.2934   73.0834  221.4361 H   0  0  0  0  0  0  0  0  0  0  0  0
  140.8434   72.5947  223.8621 H   0  0  0  0  0  0  0  0  0  0  0  0
  139.6404   68.9803  219.3807 H   0  0  0  0  0  0  0  0  0  0  0  0
  138.8507   66.6280  219.1373 H   0  0  0  0  0  0  0  0  0  0  0  0
  138.1995   65.3111  221.1405 H   0  0  0  0  0  0  0  0  0  0  0  0
  138.3431   66.3546  223.3837 H   0  0  0  0  0  0  0  0  0  0  0  0
  139.6267   71.8454  225.1705 H   0  0  0  0  0  0  0  0  0  0  0  0
  138.8814   70.3231  225.9225 H   0  0  0  0  0  0  0  0  0  0  0  0
  141.7648   70.9921  225.5777 H   0  0  0  0  0  0  0  0  0  0  0  0
  141.2783   68.6707  225.1119 H   0  0  0  0  0  0  0  0  0  0  0  0
  142.5271   69.1832  226.3565 H   0  0  0  0  0  0  0  0  0  0  0  0
  139.8296   67.9266  226.8013 H   0  0  0  0  0  0  0  0  0  0  0  0
  141.4832   67.3231  227.2449 H   0  0  0  0  0  0  0  0  0  0  0  0
  141.6620   69.0460  228.8550 H   0  0  0  0  0  0  0  0  0  0  0  0
  138.9958   69.7718  227.7798 H   0  0  0  0  0  0  0  0  0  0  0  0
  139.6927   70.4334  229.2897 H   0  0  0  0  0  0  0  0  0  0  0  0
  140.1153   71.9745  227.4240 H   0  0  0  0  0  0  0  0  0  0  0  0
  141.6608   71.2585  227.9789 H   0  0  0  0  0  0  0  0  0  0  0  0
  142.7894   71.9483  221.3941 H   0  0  0  0  0  0  0  0  0  0  0  0
  1  2  1  0
  2  3  2  0
  2  4  2  0
  2  5  1  0
  5  6  2  0
  6  7  1  0
  7  8  2  0
  8  9  1  0
  9 10  1  0
 10 11  2  0
 11 12  1  0
 12 13  2  0
 13 14  1  0
 14 15  2  0
 15 16  1  0
 16 17  2  0
 17 18  1  0
 18 19  2  0
 19 20  1  0
 20 21  2  0
 20 22  1  0
 22 23  1  0
 23 24  1  0
 24 25  1  0
 25 26  1  0
 26 27  1  0
 27 28  1  0
 28 29  1  0
  9 30  2  0
 30  5  1  0
 22 12  1  0
 29 24  1  0
 19 14  1  0
  1 31  1  0
  1 32  1  0
  6 33  1  0
  7 34  1  0
  8 35  1  0
 10 36  1  0
 11 37  1  0
 15 38  1  0
 16 39  1  0
 17 40  1  0
 18 41  1  0
 23 42  1  0
 23 43  1  0
 24 44  1  0
 25 45  1  0
 25 46  1  0
 26 47  1  0
 26 48  1  0
 27 49  1  0
 28 50  1  0
 28 51  1  0
 29 52  1  0
 29 53  1  0
 30 54  1  0
M  END
>  <smiles>  (44) 
NS(=O)(=O)c1cccc(/C=C/c2nc3ccccc3c(=O)n2CC2CCNCC2)c1

>  <score_type>  (44) 
oracle

>  <origin>  (44) 
autodockgpu

>  <m_score__min__energy>  (44) 
-9.5099999999999998

>  <m_primary>  (44) 
energy

>  <rmsd>  (44) 
11.53080098678963

>  <m_score__min__rmsd>  (44) 
11.53080098678963

>  <meeko>  (44) 
{"free_energy": -8.99, "intermolecular_energy": -11.08, "internal_energy": -1.31, "cluster_size": 2, "cluster_id": 4, "rank_in_cluster": 1}

>  <energy>  (44) 
-7.38

>  <cluster_rmsd>  (44) 
0.0

>  <cluster>  (44) 
11

$$$$

     RDKit          3D

 54 57  0  0  0  0  0  0  0  0999 V2000
  136.1730   74.5250  223.0970 N   0  0  0  0  0  0  0  0  0  0  0  0
  136.7940   75.8560  222.1860 S   0  0  0  0  0  0  0  0  0  0  0  0
  136.0420   75.9270  220.8730 O   0  0  0  0  0  0  0  0  0  0  0  0
  136.6680   77.1140  222.9610 O   0  0  0  0  0  0  0  0  0  0  0  0
  138.4760   75.4840  221.7960 C   0  0  0  0  0  0  0  0  0  0  0  0
  139.2470   76.4050  221.1170 C   0  0  0  0  0  0  0  0  0  0  0  0
  140.5490   76.0780  220.8330 C   0  0  0  0  0  0  0  0  0  0  0  0
  141.0670   74.8730  221.2110 C   0  0  0  0  0  0  0  0  0  0  0  0
  140.3210   73.9090  221.9010 C   0  0  0  0  0  0  0  0  0  0  0  0
  140.9070   72.6330  222.2900 C   0  0  0  0  0  0  0  0  0  0  0  0
  140.2440   71.4940  222.3240 C   0  0  0  0  0  0  0  0  0  0  0  0
  140.1000   70.7710  223.5900 C   0  0  0  0  0  0  0  0  0  0  0  0
  140.6480   71.3530  224.7000 N   0  0  0  0  0  0  0  0  0  0  0  0
  140.5860   70.8040  225.9080 C   0  0  0  0  0  0  0  0  0  0  0  0
  141.1560   71.4380  226.9920 C   0  0  0  0  0  0  0  0  0  0  0  0
  141.0710   70.8320  228.2370 C   0  0  0  0  0  0  0  0  0  0  0  0
  140.4290   69.6180  228.3900 C   0  0  0  0  0  0  0  0  0  0  0  0
  139.8690   69.0120  227.2780 C   0  0  0  0  0  0  0  0  0  0  0  0
  139.9360   69.5880  226.0240 C   0  0  0  0  0  0  0  0  0  0  0  0
  139.3920   69.0160  224.9030 C   0  0  0  0  0  0  0  0  0  0  0  0
  138.8090   67.8950  225.0780 O   0  0  0  0  0  0  0  0  0  0  0  0
  139.4610   69.5880  223.6700 N   0  0  0  0  0  0  0  0  0  0  0  0
  138.8720   68.9900  222.5130 C   0  0  0  0  0  0  0  0  0  0  0  0
  137.4280   69.2650  222.2710 C   0  0  0  0  0  0  0  0  0  0  0  0
  137.0680   70.0550  221.0800 C   0  0  0  0  0  0  0  0  0  0  0  0
  137.1300   71.5460  221.2740 C   0  0  0  0  0  0  0  0  0  0  0  0
  136.5080   71.9590  222.5180 N   0  0  0  0  0  0  0  0  0  0  0  0
  137.1920   71.3220  223.6000 C   0  0  0  0  0  0  0  0  0  0  0  0
  136.8820   69.8480  223.5640 C   0  0  0  0  0  0  0  0  0  0  0  0
  139.0160   74.2630  222.1740 C   0  0  0  0  0  0  0  0  0  0  0  0
  135.5360   73.9130  222.5400 H   0  0  0  0  0  0  0  0  0  0  0  0
  136.9850   73.9460  223.3850 H   0  0  0  0  0  0  0  0  0  0  0  0
  138.8290   77.3756  220.8115 H   0  0  0  0  0  0  0  0  0  0  0  0
  141.1837   76.7964  220.2936 H   0  0  0  0  0  0  0  0  0  0  0  0
  142.1151   74.6494  220.9631 H   0  0  0  0  0  0  0  0  0  0  0  0
  141.9698   72.6191  222.5732 H   0  0  0  0  0  0  0  0  0  0  0  0
  139.7998   71.0873  221.4035 H   0  0  0  0  0  0  0  0  0  0  0  0
  141.6676   72.4044  226.8719 H   0  0  0  0  0  0  0  0  0  0  0  0
  141.5199   71.3237  229.1126 H   0  0  0  0  0  0  0  0  0  0  0  0
  140.3639   69.1408  229.3790 H   0  0  0  0  0  0  0  0  0  0  0  0
  139.3569   68.0457  227.3963 H   0  0  0  0  0  0  0  0  0  0  0  0
  139.4296   69.3469  221.6346 H   0  0  0  0  0  0  0  0  0  0  0  0
  138.9308   67.9060  222.6902 H   0  0  0  0  0  0  0  0  0  0  0  0
  136.9525   68.3096  222.0044 H   0  0  0  0  0  0  0  0  0  0  0  0
  137.7595   69.7858  220.2680 H   0  0  0  0  0  0  0  0  0  0  0  0
  136.0192   69.8140  220.8519 H   0  0  0  0  0  0  0  0  0  0  0  0
  138.1844   71.8593  221.2831 H   0  0  0  0  0  0  0  0  0  0  0  0
  136.5812   72.0192  220.4464 H   0  0  0  0  0  0  0  0  0  0  0  0
  135.4890   71.7910  222.5320 H   0  0  0  0  0  0  0  0  0  0  0  0
  138.2761   71.4753  223.4945 H   0  0  0  0  0  0  0  0  0  0  0  0
  136.8627   71.7518  224.5575 H   0  0  0  0  0  0  0  0  0  0  0  0
  137.3547   69.3495  224.4231 H   0  0  0  0  0  0  0  0  0  0  0  0
  135.7941   69.6932  223.6141 H   0  0  0  0  0  0  0  0  0  0  0  0
  138.3773   73.5481  222.7134 H   0  0  0  0  0  0  0  0  0  0  0  0
  1  2  1  0
  2  3  2  0
  2  4  2  0
  2  5  1  0
  5  6  2  0
  6  7  1  0
  7  8  2  0
  8  9  1  0
  9 10  1  0
 10 11  2  0
 11 12  1  0
 12 13  2  0
 13 14  1  0
 14 15  2  0
 15 16  1  0
 16 17  2  0
 17 18  1  0
 18 19  2  0
 19 20  1  0
 20 21  2  0
 20 22  1  0
 22 23  1  0
 23 24  1  0
 24 25  1  0
 25 26  1  0
 26 27  1  0
 27 28  1  0
 28 29  1  0
  9 30  2  0
 30  5  1  0
 22 12  1  0
 29 24  1  0
 19 14  1  0
  1 31  1  0
  1 32  1  0
  6 33  1  0
  7 34  1  0
  8 35  1  0
 10 36  1  0
 11 37  1  0
 15 38  1  0
 16 39  1  0
 17 40  1  0
 18 41  1  0
 23 42  1  0
 23 43  1  0
 24 44  1  0
 25 45  1  0
 25 46  1  0
 26 47  1  0
 26 48  1  0
 27 49  1  0
 28 50  1  0
 28 51  1  0
 29 52  1  0
 29 53  1  0
 30 54  1  0
M  END
>  <smiles>  (45) 
NS(=O)(=O)c1cccc(/C=C/c2nc3ccccc3c(=O)n2CC2CCNCC2)c1

>  <score_type>  (45) 
oracle

>  <origin>  (45) 
autodockgpu

>  <m_score__min__energy>  (45) 
-9.5099999999999998

>  <m_primary>  (45) 
energy

>  <rmsd>  (45) 
11.481721265203397

>  <m_score__min__rmsd>  (45) 
11.481721265203397

>  <meeko>  (45) 
{"free_energy": -6.76, "intermolecular_energy": -8.85, "internal_energy": -2.83, "cluster_size": 1, "cluster_id": 13, "rank_in_cluster": 1}

>  <energy>  (45) 
-7.35

>  <cluster_rmsd>  (45) 
0.0

>  <cluster>  (45) 
12

$$$$

     RDKit          3D

 54 57  0  0  0  0  0  0  0  0999 V2000
  142.1850   78.0810  220.8860 N   0  0  0  0  0  0  0  0  0  0  0  0
  141.0440   78.1000  222.1840 S   0  0  0  0  0  0  0  0  0  0  0  0
  141.8090   78.0470  223.4910 O   0  0  0  0  0  0  0  0  0  0  0  0
  140.1850   79.3050  222.0980 O   0  0  0  0  0  0  0  0  0  0  0  0
  140.1050   76.6080  222.0780 C   0  0  0  0  0  0  0  0  0  0  0  0
  138.7260   76.6580  222.1000 C   0  0  0  0  0  0  0  0  0  0  0  0
  138.0330   75.4770  222.0150 C   0  0  0  0  0  0  0  0  0  0  0  0
  138.6890   74.2850  221.9130 C   0  0  0  0  0  0  0  0  0  0  0  0
  140.0860   74.1880  221.8860 C   0  0  0  0  0  0  0  0  0  0  0  0
  140.7550   72.8980  221.7750 C   0  0  0  0  0  0  0  0  0  0  0  0
  140.1610   71.7370  221.9740 C   0  0  0  0  0  0  0  0  0  0  0  0
  140.0610   71.1920  223.3300 C   0  0  0  0  0  0  0  0  0  0  0  0
  140.6970   71.8830  224.3230 N   0  0  0  0  0  0  0  0  0  0  0  0
  140.6830   71.4970  225.5940 C   0  0  0  0  0  0  0  0  0  0  0  0
  141.3430   72.2360  226.5540 C   0  0  0  0  0  0  0  0  0  0  0  0
  141.3040   71.8000  227.8710 C   0  0  0  0  0  0  0  0  0  0  0  0
  140.6200   70.6510  228.2160 C   0  0  0  0  0  0  0  0  0  0  0  0
  139.9690   69.9360  227.2230 C   0  0  0  0  0  0  0  0  0  0  0  0
  139.9880   70.3410  225.9020 C   0  0  0  0  0  0  0  0  0  0  0  0
  139.3550   69.6580  224.8970 C   0  0  0  0  0  0  0  0  0  0  0  0
  138.7340   68.6010  225.2470 O   0  0  0  0  0  0  0  0  0  0  0  0
  139.3760   70.0630  223.5980 N   0  0  0  0  0  0  0  0  0  0  0  0
  138.6950   69.3520  222.5620 C   0  0  0  0  0  0  0  0  0  0  0  0
  137.3380   69.8390  222.1870 C   0  0  0  0  0  0  0  0  0  0  0  0
  137.0270   71.2610  222.4250 C   0  0  0  0  0  0  0  0  0  0  0  0
  136.5540   71.5740  223.8190 C   0  0  0  0  0  0  0  0  0  0  0  0
  135.5610   70.6230  224.2830 N   0  0  0  0  0  0  0  0  0  0  0  0
  136.1440   69.3180  224.2750 C   0  0  0  0  0  0  0  0  0  0  0  0
  136.3480   68.8920  222.8440 C   0  0  0  0  0  0  0  0  0  0  0  0
  140.7590   75.3890  221.9730 C   0  0  0  0  0  0  0  0  0  0  0  0
  142.9290   78.8050  220.9890 H   0  0  0  0  0  0  0  0  0  0  0  0
  142.6490   77.1530  220.9020 H   0  0  0  0  0  0  0  0  0  0  0  0
  138.1968   77.6187  222.1834 H   0  0  0  0  0  0  0  0  0  0  0  0
  136.9332   75.4913  222.0293 H   0  0  0  0  0  0  0  0  0  0  0  0
  138.0956   73.3610  221.8493 H   0  0  0  0  0  0  0  0  0  0  0  0
  141.8222   72.8920  221.5086 H   0  0  0  0  0  0  0  0  0  0  0  0
  139.7417   71.1794  221.1235 H   0  0  0  0  0  0  0  0  0  0  0  0
  141.8886   73.1514  226.2814 H   0  0  0  0  0  0  0  0  0  0  0  0
  141.8244   72.3768  228.6497 H   0  0  0  0  0  0  0  0  0  0  0  0
  140.5923   70.3090  229.2611 H   0  0  0  0  0  0  0  0  0  0  0  0
  139.4221   69.0209  227.4940 H   0  0  0  0  0  0  0  0  0  0  0  0
  139.3241   69.3957  221.6607 H   0  0  0  0  0  0  0  0  0  0  0  0
  138.5343   68.3419  222.9667 H   0  0  0  0  0  0  0  0  0  0  0  0
  137.2750   69.8209  221.0889 H   0  0  0  0  0  0  0  0  0  0  0  0
  137.9367   71.8483  222.2314 H   0  0  0  0  0  0  0  0  0  0  0  0
  136.1971   71.5159  221.7496 H   0  0  0  0  0  0  0  0  0  0  0  0
  137.4167   71.5477  224.5009 H   0  0  0  0  0  0  0  0  0  0  0  0
  136.0887   72.5706  223.8039 H   0  0  0  0  0  0  0  0  0  0  0  0
  134.6780   70.6730  223.7500 H   0  0  0  0  0  0  0  0  0  0  0  0
  137.1123   69.3414  224.7964 H   0  0  0  0  0  0  0  0  0  0  0  0
  135.4804   68.6065  224.7882 H   0  0  0  0  0  0  0  0  0  0  0  0
  136.7440   67.8661  222.8166 H   0  0  0  0  0  0  0  0  0  0  0  0
  135.3894   68.9212  222.3053 H   0  0  0  0  0  0  0  0  0  0  0  0
  141.8589   75.3798  221.9586 H   0  0  0  0  0  0  0  0  0  0  0  0
  1  2  1  0
  2  3  2  0
  2  4  2  0
  2  5  1  0
  5  6  2  0
  6  7  1  0
  7  8  2  0
  8  9  1  0
  9 10  1  0
 10 11  2  0
 11 12  1  0
 12 13  2  0
 13 14  1  0
 14 15  2  0
 15 16  1  0
 16 17  2  0
 17 18  1  0
 18 19  2  0
 19 20  1  0
 20 21  2  0
 20 22  1  0
 22 23  1  0
 23 24  1  0
 24 25  1  0
 25 26  1  0
 26 27  1  0
 27 28  1  0
 28 29  1  0
  9 30  2  0
 30  5  1  0
 22 12  1  0
 29 24  1  0
 19 14  1  0
  1 31  1  0
  1 32  1  0
  6 33  1  0
  7 34  1  0
  8 35  1  0
 10 36  1  0
 11 37  1  0
 15 38  1  0
 16 39  1  0
 17 40  1  0
 18 41  1  0
 23 42  1  0
 23 43  1  0
 24 44  1  0
 25 45  1  0
 25 46  1  0
 26 47  1  0
 26 48  1  0
 27 49  1  0
 28 50  1  0
 28 51  1  0
 29 52  1  0
 29 53  1  0
 30 54  1  0
M  END
>  <smiles>  (46) 
NS(=O)(=O)c1cccc(/C=C/c2nc3ccccc3c(=O)n2CC2CCNCC2)c1

>  <score_type>  (46) 
oracle

>  <origin>  (46) 
autodockgpu

>  <m_score__min__energy>  (46) 
-9.5099999999999998

>  <m_primary>  (46) 
energy

>  <rmsd>  (46) 
11.537107657222036

>  <m_score__min__rmsd>  (46) 
11.537107657222036

>  <meeko>  (46) 
{"free_energy": -8.12, "intermolecular_energy": -10.21, "internal_energy": -1.82, "cluster_size": 6, "cluster_id": 6, "rank_in_cluster": 2}

>  <energy>  (46) 
-6.76

>  <cluster_rmsd>  (46) 
0.0

>  <cluster>  (46) 
13

$$$$

     RDKit          3D

 54 57  0  0  0  0  0  0  0  0999 V2000
  146.2780   73.5180  218.6310 N   0  0  0  0  0  0  0  0  0  0  0  0
  145.7550   72.6480  220.0300 S   0  0  0  0  0  0  0  0  0  0  0  0
  145.7480   71.1700  219.6970 O   0  0  0  0  0  0  0  0  0  0  0  0
  146.6380   72.9490  221.1840 O   0  0  0  0  0  0  0  0  0  0  0  0
  144.0800   73.1130  220.3390 C   0  0  0  0  0  0  0  0  0  0  0  0
  143.6740   74.4150  220.1280 C   0  0  0  0  0  0  0  0  0  0  0  0
  142.3650   74.7360  220.3800 C   0  0  0  0  0  0  0  0  0  0  0  0
  141.4860   73.7930  220.8290 C   0  0  0  0  0  0  0  0  0  0  0  0
  141.8540   72.4600  221.0570 C   0  0  0  0  0  0  0  0  0  0  0  0
  140.8900   71.4790  221.5360 C   0  0  0  0  0  0  0  0  0  0  0  0
  139.9950   71.7170  222.4750 C   0  0  0  0  0  0  0  0  0  0  0  0
  139.9960   70.9190  223.7040 C   0  0  0  0  0  0  0  0  0  0  0  0
  140.4830   71.5200  224.8310 N   0  0  0  0  0  0  0  0  0  0  0  0
  140.5380   70.9070  226.0090 C   0  0  0  0  0  0  0  0  0  0  0  0
  141.0380   71.5650  227.1140 C   0  0  0  0  0  0  0  0  0  0  0  0
  141.0790   70.8910  228.3260 C   0  0  0  0  0  0  0  0  0  0  0  0
  140.6290   69.5890  228.4270 C   0  0  0  0  0  0  0  0  0  0  0  0
  140.1340   68.9620  227.2950 C   0  0  0  0  0  0  0  0  0  0  0  0
  140.0790   69.6040  226.0720 C   0  0  0  0  0  0  0  0  0  0  0  0
  139.5950   69.0130  224.9340 C   0  0  0  0  0  0  0  0  0  0  0  0
  139.1900   67.8110  225.0600 O   0  0  0  0  0  0  0  0  0  0  0  0
  139.5420   69.6500  223.7330 N   0  0  0  0  0  0  0  0  0  0  0  0
  139.0170   69.0300  222.5580 C   0  0  0  0  0  0  0  0  0  0  0  0
  137.5570   68.7330  222.5460 C   0  0  0  0  0  0  0  0  0  0  0  0
  136.8750   68.6820  221.2400 C   0  0  0  0  0  0  0  0  0  0  0  0
  136.4190   70.0180  220.7180 C   0  0  0  0  0  0  0  0  0  0  0  0
  135.7640   70.8080  221.7440 N   0  0  0  0  0  0  0  0  0  0  0  0
  136.6880   71.0190  222.8140 C   0  0  0  0  0  0  0  0  0  0  0  0
  136.9140   69.7070  223.5190 C   0  0  0  0  0  0  0  0  0  0  0  0
  143.1760   72.1650  220.7960 C   0  0  0  0  0  0  0  0  0  0  0  0
  145.5360   74.1350  218.2350 H   0  0  0  0  0  0  0  0  0  0  0  0
  147.0650   74.1270  218.9270 H   0  0  0  0  0  0  0  0  0  0  0  0
  144.3821   75.1755  219.7671 H   0  0  0  0  0  0  0  0  0  0  0  0
  142.0185   75.7674  220.2182 H   0  0  0  0  0  0  0  0  0  0  0  0
  140.4448   74.0920  221.0199 H   0  0  0  0  0  0  0  0  0  0  0  0
  140.9096   70.4755  221.0859 H   0  0  0  0  0  0  0  0  0  0  0  0
  139.2490   72.5133  222.3358 H   0  0  0  0  0  0  0  0  0  0  0  0
  141.3965   72.6020  227.0356 H   0  0  0  0  0  0  0  0  0  0  0  0
  141.4747   71.3997  229.2174 H   0  0  0  0  0  0  0  0  0  0  0  0
  140.6631   69.0587  229.3902 H   0  0  0  0  0  0  0  0  0  0  0  0
  139.7750   67.9251  227.3715 H   0  0  0  0  0  0  0  0  0  0  0  0
  139.2272   69.6966  221.7086 H   0  0  0  0  0  0  0  0  0  0  0  0
  139.5093   68.0475  222.5085 H   0  0  0  0  0  0  0  0  0  0  0  0
  137.4345   67.6844  222.8551 H   0  0  0  0  0  0  0  0  0  0  0  0
  137.5699   68.2464  220.5070 H   0  0  0  0  0  0  0  0  0  0  0  0
  135.9671   68.0783  221.3861 H   0  0  0  0  0  0  0  0  0  0  0  0
  137.2942   70.5721  220.3478 H   0  0  0  0  0  0  0  0  0  0  0  0
  135.6921   69.8377  219.9123 H   0  0  0  0  0  0  0  0  0  0  0  0
  134.8720   70.3940  222.0590 H   0  0  0  0  0  0  0  0  0  0  0  0
  137.6413   71.3929  222.4122 H   0  0  0  0  0  0  0  0  0  0  0  0
  136.2837   71.7600  223.5193 H   0  0  0  0  0  0  0  0  0  0  0  0
  137.5787   69.8606  224.3819 H   0  0  0  0  0  0  0  0  0  0  0  0
  135.9543   69.3028  223.8733 H   0  0  0  0  0  0  0  0  0  0  0  0
  143.5281   71.1354  220.9569 H   0  0  0  0  0  0  0  0  0  0  0  0
  1  2  1  0
  2  3  2  0
  2  4  2  0
  2  5  1  0
  5  6  2  0
  6  7  1  0
  7  8  2  0
  8  9  1  0
  9 10  1  0
 10 11  2  0
 11 12  1  0
 12 13  2  0
 13 14  1  0
 14 15  2  0
 15 16  1  0
 16 17  2  0
 17 18  1  0
 18 19  2  0
 19 20  1  0
 20 21  2  0
 20 22  1  0
 22 23  1  0
 23 24  1  0
 24 25  1  0
 25 26  1  0
 26 27  1  0
 27 28  1  0
 28 29  1  0
  9 30  2  0
 30  5  1  0
 22 12  1  0
 29 24  1  0
 19 14  1  0
  1 31  1  0
  1 32  1  0
  6 33  1  0
  7 34  1  0
  8 35  1  0
 10 36  1  0
 11 37  1  0
 15 38  1  0
 16 39  1  0
 17 40  1  0
 18 41  1  0
 23 42  1  0
 23 43  1  0
 24 44  1  0
 25 45  1  0
 25 46  1  0
 26 47  1  0
 26 48  1  0
 27 49  1  0
 28 50  1  0
 28 51  1  0
 29 52  1  0
 29 53  1  0
 30 54  1  0
M  END
>  <smiles>  (47) 
NS(=O)(=O)c1cccc(/C=C/c2nc3ccccc3c(=O)n2CC2CCNCC2)c1

>  <score_type>  (47) 
oracle

>  <origin>  (47) 
autodockgpu

>  <m_score__min__energy>  (47) 
-9.5099999999999998

>  <m_primary>  (47) 
energy

>  <rmsd>  (47) 
11.71121201633937

>  <m_score__min__rmsd>  (47) 
11.71121201633937

>  <meeko>  (47) 
{"free_energy": -9.17, "intermolecular_energy": -11.25, "internal_energy": -1.34, "cluster_size": 18, "cluster_id": 1, "rank_in_cluster": 8}

>  <energy>  (47) 
-6.73

>  <cluster_rmsd>  (47) 
0.0

>  <cluster>  (47) 
14

$$$$

     RDKit          3D

 54 57  0  0  0  0  0  0  0  0999 V2000
  132.6830   73.9830  227.5870 N   0  0  0  0  0  0  0  0  0  0  0  0
  133.6370   74.1670  226.1570 S   0  0  0  0  0  0  0  0  0  0  0  0
  132.7230   74.5960  225.0270 O   0  0  0  0  0  0  0  0  0  0  0  0
  134.7260   75.1460  226.3870 O   0  0  0  0  0  0  0  0  0  0  0  0
  134.2600   72.5690  225.7350 C   0  0  0  0  0  0  0  0  0  0  0  0
  133.9550   71.4790  226.5240 C   0  0  0  0  0  0  0  0  0  0  0  0
  134.4600   70.2560  226.1620 C   0  0  0  0  0  0  0  0  0  0  0  0
  135.2410   70.1200  225.0520 C   0  0  0  0  0  0  0  0  0  0  0  0
  135.5750   71.1990  224.2220 C   0  0  0  0  0  0  0  0  0  0  0  0
  136.4120   71.0180  223.0430 C   0  0  0  0  0  0  0  0  0  0  0  0
  137.7300   71.0500  223.0590 C   0  0  0  0  0  0  0  0  0  0  0  0
  138.4640   70.3500  224.1160 C   0  0  0  0  0  0  0  0  0  0  0  0
  139.1080   71.1260  225.0400 N   0  0  0  0  0  0  0  0  0  0  0  0
  139.8060   70.6170  226.0490 C   0  0  0  0  0  0  0  0  0  0  0  0
  140.4350   71.4490  226.9520 C   0  0  0  0  0  0  0  0  0  0  0  0
  141.1550   70.8790  227.9920 C   0  0  0  0  0  0  0  0  0  0  0  0
  141.2420   69.5070  228.1220 C   0  0  0  0  0  0  0  0  0  0  0  0
  140.5980   68.7040  227.1960 C   0  0  0  0  0  0  0  0  0  0  0  0
  139.8720   69.2390  226.1480 C   0  0  0  0  0  0  0  0  0  0  0  0
  139.2230   68.4730  225.2150 C   0  0  0  0  0  0  0  0  0  0  0  0
  139.3250   67.2100  225.3620 O   0  0  0  0  0  0  0  0  0  0  0  0
  138.5090   69.0050  224.1860 N   0  0  0  0  0  0  0  0  0  0  0  0
  137.8200   68.1960  223.2310 C   0  0  0  0  0  0  0  0  0  0  0  0
  138.6080   67.7090  222.0630 C   0  0  0  0  0  0  0  0  0  0  0  0
  139.5820   68.6340  221.4570 C   0  0  0  0  0  0  0  0  0  0  0  0
  139.0010   69.5780  220.4370 C   0  0  0  0  0  0  0  0  0  0  0  0
  138.1130   68.8980  219.5130 N   0  0  0  0  0  0  0  0  0  0  0  0
  137.0450   68.3080  220.2590 C   0  0  0  0  0  0  0  0  0  0  0  0
  137.6000   67.1630  221.0660 C   0  0  0  0  0  0  0  0  0  0  0  0
  135.0560   72.4170  224.6090 C   0  0  0  0  0  0  0  0  0  0  0  0
  131.6960   73.7100  227.3850 H   0  0  0  0  0  0  0  0  0  0  0  0
  133.1110   73.2180  228.1430 H   0  0  0  0  0  0  0  0  0  0  0  0
  133.3243   71.5877  227.4186 H   0  0  0  0  0  0  0  0  0  0  0  0
  134.2318   69.3721  226.7758 H   0  0  0  0  0  0  0  0  0  0  0  0
  135.6250   69.1211  224.7974 H   0  0  0  0  0  0  0  0  0  0  0  0
  135.9126   70.8436  222.0785 H   0  0  0  0  0  0  0  0  0  0  0  0
  138.2774   71.6012  222.2802 H   0  0  0  0  0  0  0  0  0  0  0  0
  140.3671   72.5421  226.8495 H   0  0  0  0  0  0  0  0  0  0  0  0
  141.6624   71.5275  228.7214 H   0  0  0  0  0  0  0  0  0  0  0  0
  141.8139   69.0592  228.9481 H   0  0  0  0  0  0  0  0  0  0  0  0
  140.6658   67.6107  227.2968 H   0  0  0  0  0  0  0  0  0  0  0  0
  137.4329   67.3135  223.7614 H   0  0  0  0  0  0  0  0  0  0  0  0
  137.0498   68.8538  222.8019 H   0  0  0  0  0  0  0  0  0  0  0  0
  139.2981   66.9359  222.4320 H   0  0  0  0  0  0  0  0  0  0  0  0
  140.0322   69.2336  222.2619 H   0  0  0  0  0  0  0  0  0  0  0  0
  140.3133   68.0098  220.9226 H   0  0  0  0  0  0  0  0  0  0  0  0
  138.4357   70.3630  220.9606 H   0  0  0  0  0  0  0  0  0  0  0  0
  139.8320   70.0065  219.8575 H   0  0  0  0  0  0  0  0  0  0  0  0
  138.6050   68.2200  218.9090 H   0  0  0  0  0  0  0  0  0  0  0  0
  136.6049   69.0577  220.9329 H   0  0  0  0  0  0  0  0  0  0  0  0
  136.2645   67.9432  219.5750 H   0  0  0  0  0  0  0  0  0  0  0  0
  136.7831   66.6600  221.6042 H   0  0  0  0  0  0  0  0  0  0  0  0
  138.0897   66.4386  220.3986 H   0  0  0  0  0  0  0  0  0  0  0  0
  135.2826   73.3044  223.9997 H   0  0  0  0  0  0  0  0  0  0  0  0
  1  2  1  0
  2  3  2  0
  2  4  2  0
  2  5  1  0
  5  6  2  0
  6  7  1  0
  7  8  2  0
  8  9  1  0
  9 10  1  0
 10 11  2  0
 11 12  1  0
 12 13  2  0
 13 14  1  0
 14 15  2  0
 15 16  1  0
 16 17  2  0
 17 18  1  0
 18 19  2  0
 19 20  1  0
 20 21  2  0
 20 22  1  0
 22 23  1  0
 23 24  1  0
 24 25  1  0
 25 26  1  0
 26 27  1  0
 27 28  1  0
 28 29  1  0
  9 30  2  0
 30  5  1  0
 22 12  1  0
 29 24  1  0
 19 14  1  0
  1 31  1  0
  1 32  1  0
  6 33  1  0
  7 34  1  0
  8 35  1  0
 10 36  1  0
 11 37  1  0
 15 38  1  0
 16 39  1  0
 17 40  1  0
 18 41  1  0
 23 42  1  0
 23 43  1  0
 24 44  1  0
 25 45  1  0
 25 46  1  0
 26 47  1  0
 26 48  1  0
 27 49  1  0
 28 50  1  0
 28 51  1  0
 29 52  1  0
 29 53  1  0
 30 54  1  0
M  END
>  <smiles>  (48) 
NS(=O)(=O)c1cccc(/C=C/c2nc3ccccc3c(=O)n2CC2CCNCC2)c1

>  <score_type>  (48) 
oracle

>  <origin>  (48) 
autodockgpu

>  <m_score__min__energy>  (48) 
-9.5099999999999998

>  <m_primary>  (48) 
energy

>  <rmsd>  (48) 
12.497201594212457

>  <m_score__min__rmsd>  (48) 
12.497201594212457

>  <meeko>  (48) 
{"free_energy": -7.63, "intermolecular_energy": -9.72, "internal_energy": -1.77, "cluster_size": 3, "cluster_id": 5, "rank_in_cluster": 3}

>  <energy>  (48) 
-6.43

>  <cluster_rmsd>  (48) 
0.73

>  <cluster>  (48) 
14

$$$$

     RDKit          3D

 54 57  0  0  0  0  0  0  0  0999 V2000
  136.1740   74.3760  223.1680 N   0  0  0  0  0  0  0  0  0  0  0  0
  136.8010   75.7410  222.3120 S   0  0  0  0  0  0  0  0  0  0  0  0
  136.1190   75.8090  220.9610 O   0  0  0  0  0  0  0  0  0  0  0  0
  136.5940   76.9820  223.0970 O   0  0  0  0  0  0  0  0  0  0  0  0
  138.5120   75.4270  222.0080 C   0  0  0  0  0  0  0  0  0  0  0  0
  139.3620   76.4720  221.7050 C   0  0  0  0  0  0  0  0  0  0  0  0
  140.6840   76.1860  221.4750 C   0  0  0  0  0  0  0  0  0  0  0  0
  141.1470   74.9040  221.5440 C   0  0  0  0  0  0  0  0  0  0  0  0
  140.3200   73.8150  221.8490 C   0  0  0  0  0  0  0  0  0  0  0  0
  140.8480   72.4580  221.9150 C   0  0  0  0  0  0  0  0  0  0  0  0
  140.1080   71.3850  222.1110 C   0  0  0  0  0  0  0  0  0  0  0  0
  140.0020   70.8070  223.4530 C   0  0  0  0  0  0  0  0  0  0  0  0
  140.5600   71.5190  224.4790 N   0  0  0  0  0  0  0  0  0  0  0  0
  140.5310   71.1080  225.7420 C   0  0  0  0  0  0  0  0  0  0  0  0
  141.1110   71.8700  226.7360 C   0  0  0  0  0  0  0  0  0  0  0  0
  141.0600   71.4070  228.0430 C   0  0  0  0  0  0  0  0  0  0  0  0
  140.4430   70.2080  228.3450 C   0  0  0  0  0  0  0  0  0  0  0  0
  139.8730   69.4720  227.3190 C   0  0  0  0  0  0  0  0  0  0  0  0
  139.9060   69.9040  226.0070 C   0  0  0  0  0  0  0  0  0  0  0  0
  139.3510   69.2000  224.9700 C   0  0  0  0  0  0  0  0  0  0  0  0
  138.7910   68.0980  225.2810 O   0  0  0  0  0  0  0  0  0  0  0  0
  139.3850   69.6310  223.6790 N   0  0  0  0  0  0  0  0  0  0  0  0
  138.7860   68.8970  222.6090 C   0  0  0  0  0  0  0  0  0  0  0  0
  137.3390   69.1400  222.3510 C   0  0  0  0  0  0  0  0  0  0  0  0
  136.9760   69.9450  221.1710 C   0  0  0  0  0  0  0  0  0  0  0  0
  136.9970   71.4330  221.3940 C   0  0  0  0  0  0  0  0  0  0  0  0
  136.3470   71.8050  222.6370 N   0  0  0  0  0  0  0  0  0  0  0  0
  137.0310   71.1640  223.7170 C   0  0  0  0  0  0  0  0  0  0  0  0
  136.7590   69.6840  223.6470 C   0  0  0  0  0  0  0  0  0  0  0  0
  138.9960   74.1290  222.0750 C   0  0  0  0  0  0  0  0  0  0  0  0
  135.5180   73.8030  222.5940 H   0  0  0  0  0  0  0  0  0  0  0  0
  136.9820   73.7730  223.4140 H   0  0  0  0  0  0  0  0  0  0  0  0
  138.9895   77.5055  221.6495 H   0  0  0  0  0  0  0  0  0  0  0  0
  141.3807   77.0016  221.2315 H   0  0  0  0  0  0  0  0  0  0  0  0
  142.2140   74.7180  221.3521 H   0  0  0  0  0  0  0  0  0  0  0  0
  141.9326   72.3207  221.7935 H   0  0  0  0  0  0  0  0  0  0  0  0
  139.5711   70.9244  221.2686 H   0  0  0  0  0  0  0  0  0  0  0  0
  141.6033   72.8242  226.4970 H   0  0  0  0  0  0  0  0  0  0  0  0
  141.5161   72.0014  228.8483 H   0  0  0  0  0  0  0  0  0  0  0  0
  140.4051   69.8441  229.3824 H   0  0  0  0  0  0  0  0  0  0  0  0
  139.3805   68.5172  227.5554 H   0  0  0  0  0  0  0  0  0  0  0  0
  139.3339   69.1456  221.6881 H   0  0  0  0  0  0  0  0  0  0  0  0
  138.8492   67.8422  222.9147 H   0  0  0  0  0  0  0  0  0  0  0  0
  136.8929   68.1779  222.0589 H   0  0  0  0  0  0  0  0  0  0  0  0
  137.6856   69.7095  220.3641 H   0  0  0  0  0  0  0  0  0  0  0  0
  135.9367   69.6826  220.9238 H   0  0  0  0  0  0  0  0  0  0  0  0
  138.0427   71.7730  221.4243 H   0  0  0  0  0  0  0  0  0  0  0  0
  136.4482   71.9085  220.5677 H   0  0  0  0  0  0  0  0  0  0  0  0
  135.3330   71.6110  222.6330 H   0  0  0  0  0  0  0  0  0  0  0  0
  138.1124   71.3465  223.6312 H   0  0  0  0  0  0  0  0  0  0  0  0
  136.6770   71.5662  224.6777 H   0  0  0  0  0  0  0  0  0  0  0  0
  137.2311   69.1804  224.5034 H   0  0  0  0  0  0  0  0  0  0  0  0
  135.6747   69.5014  223.6769 H   0  0  0  0  0  0  0  0  0  0  0  0
  138.2953   73.3167  222.3183 H   0  0  0  0  0  0  0  0  0  0  0  0
  1  2  1  0
  2  3  2  0
  2  4  2  0
  2  5  1  0
  5  6  2  0
  6  7  1  0
  7  8  2  0
  8  9  1  0
  9 10  1  0
 10 11  2  0
 11 12  1  0
 12 13  2  0
 13 14  1  0
 14 15  2  0
 15 16  1  0
 16 17  2  0
 17 18  1  0
 18 19  2  0
 19 20  1  0
 20 21  2  0
 20 22  1  0
 22 23  1  0
 23 24  1  0
 24 25  1  0
 25 26  1  0
 26 27  1  0
 27 28  1  0
 28 29  1  0
  9 30  2  0
 30  5  1  0
 22 12  1  0
 29 24  1  0
 19 14  1  0
  1 31  1  0
  1 32  1  0
  6 33  1  0
  7 34  1  0
  8 35  1  0
 10 36  1  0
 11 37  1  0
 15 38  1  0
 16 39  1  0
 17 40  1  0
 18 41  1  0
 23 42  1  0
 23 43  1  0
 24 44  1  0
 25 45  1  0
 25 46  1  0
 26 47  1  0
 26 48  1  0
 27 49  1  0
 28 50  1  0
 28 51  1  0
 29 52  1  0
 29 53  1  0
 30 54  1  0
M  END
>  <smiles>  (49) 
NS(=O)(=O)c1cccc(/C=C/c2nc3ccccc3c(=O)n2CC2CCNCC2)c1

>  <score_type>  (49) 
oracle

>  <origin>  (49) 
autodockgpu

>  <m_score__min__energy>  (49) 
-9.5099999999999998

>  <m_primary>  (49) 
energy

>  <rmsd>  (49) 
11.442033228540055

>  <m_score__min__rmsd>  (49) 
11.442033228540055

>  <meeko>  (49) 
{"free_energy": -7.28, "intermolecular_energy": -9.37, "internal_energy": -2.87, "cluster_size": 6, "cluster_id": 6, "rank_in_cluster": 4}

>  <energy>  (49) 
-6.27

>  <cluster_rmsd>  (49) 
0.93

>  <cluster>  (49) 
14

$$$$

     RDKit          3D

 54 57  0  0  0  0  0  0  0  0999 V2000
  132.5810   74.2770  224.7620 N   0  0  0  0  0  0  0  0  0  0  0  0
  133.5770   73.9310  226.1320 S   0  0  0  0  0  0  0  0  0  0  0  0
  134.8400   74.7620  226.0240 O   0  0  0  0  0  0  0  0  0  0  0  0
  132.8410   74.2100  227.3880 O   0  0  0  0  0  0  0  0  0  0  0  0
  134.0640   72.2380  226.0110 C   0  0  0  0  0  0  0  0  0  0  0  0
  133.9320   71.4030  227.1010 C   0  0  0  0  0  0  0  0  0  0  0  0
  134.3220   70.0940  226.9660 C   0  0  0  0  0  0  0  0  0  0  0  0
  134.8280   69.6310  225.7860 C   0  0  0  0  0  0  0  0  0  0  0  0
  134.9790   70.4440  224.6550 C   0  0  0  0  0  0  0  0  0  0  0  0
  135.5230   69.9170  223.4100 C   0  0  0  0  0  0  0  0  0  0  0  0
  136.6050   69.1660  223.3340 C   0  0  0  0  0  0  0  0  0  0  0  0
  137.7640   69.4700  224.1760 C   0  0  0  0  0  0  0  0  0  0  0  0
  138.1730   68.4930  225.0400 N   0  0  0  0  0  0  0  0  0  0  0  0
  139.2100   68.6400  225.8580 C   0  0  0  0  0  0  0  0  0  0  0  0
  139.5780   67.6180  226.7080 C   0  0  0  0  0  0  0  0  0  0  0  0
  140.6670   67.8100  227.5460 C   0  0  0  0  0  0  0  0  0  0  0  0
  141.3700   68.9990  227.5310 C   0  0  0  0  0  0  0  0  0  0  0  0
  140.9700   70.0010  226.6620 C   0  0  0  0  0  0  0  0  0  0  0  0
  139.8900   69.8430  225.8150 C   0  0  0  0  0  0  0  0  0  0  0  0
  139.4690   70.8140  224.9440 C   0  0  0  0  0  0  0  0  0  0  0  0
  140.1380   71.9000  224.9550 O   0  0  0  0  0  0  0  0  0  0  0  0
  138.4060   70.6530  224.1110 N   0  0  0  0  0  0  0  0  0  0  0  0
  137.9890   71.6660  223.1930 C   0  0  0  0  0  0  0  0  0  0  0  0
  138.7200   71.7450  221.8970 C   0  0  0  0  0  0  0  0  0  0  0  0
  140.1550   71.4090  221.8950 C   0  0  0  0  0  0  0  0  0  0  0  0
  141.0670   72.5470  222.2680 C   0  0  0  0  0  0  0  0  0  0  0  0
  140.7040   73.7780  221.5910 N   0  0  0  0  0  0  0  0  0  0  0  0
  139.3650   74.1190  221.9560 C   0  0  0  0  0  0  0  0  0  0  0  0
  138.4270   73.1230  221.3260 C   0  0  0  0  0  0  0  0  0  0  0  0
  134.5800   71.7550  224.8170 C   0  0  0  0  0  0  0  0  0  0  0  0
  132.7980   75.1990  224.3240 H   0  0  0  0  0  0  0  0  0  0  0  0
  132.7710   73.5430  224.0540 H   0  0  0  0  0  0  0  0  0  0  0  0
  133.5253   71.7761  228.0525 H   0  0  0  0  0  0  0  0  0  0  0  0
  134.2254   69.4085  227.8208 H   0  0  0  0  0  0  0  0  0  0  0  0
  135.1299   68.5753  225.7202 H   0  0  0  0  0  0  0  0  0  0  0  0
  134.9983   70.1608  222.4745 H   0  0  0  0  0  0  0  0  0  0  0  0
  136.6365   68.3134  222.6397 H   0  0  0  0  0  0  0  0  0  0  0  0
  139.0197   66.6703  226.7212 H   0  0  0  0  0  0  0  0  0  0  0  0
  140.9743   67.0057  228.2306 H   0  0  0  0  0  0  0  0  0  0  0  0
  142.2324   69.1476  228.1975 H   0  0  0  0  0  0  0  0  0  0  0  0
  141.5279   70.9489  226.6459 H   0  0  0  0  0  0  0  0  0  0  0  0
  136.9272   71.4911  222.9652 H   0  0  0  0  0  0  0  0  0  0  0  0
  138.2028   72.6181  223.7008 H   0  0  0  0  0  0  0  0  0  0  0  0
  138.3432   70.9332  221.2574 H   0  0  0  0  0  0  0  0  0  0  0  0
  140.3165   70.5909  222.6124 H   0  0  0  0  0  0  0  0  0  0  0  0
  140.4085   71.1333  220.8607 H   0  0  0  0  0  0  0  0  0  0  0  0
  141.0077   72.7083  223.3545 H   0  0  0  0  0  0  0  0  0  0  0  0
  142.0887   72.2786  221.9611 H   0  0  0  0  0  0  0  0  0  0  0  0
  140.8430   73.7290  220.5690 H   0  0  0  0  0  0  0  0  0  0  0  0
  139.2595   74.0866  223.0504 H   0  0  0  0  0  0  0  0  0  0  0  0
  139.1266   75.1339  221.6051 H   0  0  0  0  0  0  0  0  0  0  0  0
  137.3868   73.4022  221.5495 H   0  0  0  0  0  0  0  0  0  0  0  0
  138.5694   73.1136  220.2353 H   0  0  0  0  0  0  0  0  0  0  0  0
  134.6748   72.4448  223.9654 H   0  0  0  0  0  0  0  0  0  0  0  0
  1  2  1  0
  2  3  2  0
  2  4  2  0
  2  5  1  0
  5  6  2  0
  6  7  1  0
  7  8  2  0
  8  9  1  0
  9 10  1  0
 10 11  2  0
 11 12  1  0
 12 13  2  0
 13 14  1  0
 14 15  2  0
 15 16  1  0
 16 17  2  0
 17 18  1  0
 18 19  2  0
 19 20  1  0
 20 21  2  0
 20 22  1  0
 22 23  1  0
 23 24  1  0
 24 25  1  0
 25 26  1  0
 26 27  1  0
 27 28  1  0
 28 29  1  0
  9 30  2  0
 30  5  1  0
 22 12  1  0
 29 24  1  0
 19 14  1  0
  1 31  1  0
  1 32  1  0
  6 33  1  0
  7 34  1  0
  8 35  1  0
 10 36  1  0
 11 37  1  0
 15 38  1  0
 16 39  1  0
 17 40  1  0
 18 41  1  0
 23 42  1  0
 23 43  1  0
 24 44  1  0
 25 45  1  0
 25 46  1  0
 26 47  1  0
 26 48  1  0
 27 49  1  0
 28 50  1  0
 28 51  1  0
 29 52  1  0
 29 53  1  0
 30 54  1  0
M  END
>  <smiles>  (50) 
NS(=O)(=O)c1cccc(/C=C/c2nc3ccccc3c(=O)n2CC2CCNCC2)c1

>  <score_type>  (50) 
oracle

>  <origin>  (50) 
autodockgpu

>  <m_score__min__energy>  (50) 
-9.5099999999999998

>  <m_primary>  (50) 
energy

>  <rmsd>  (50) 
9.913627480118533

>  <m_score__min__rmsd>  (50) 
9.913627480118533

>  <meeko>  (50) 
{"free_energy": -7.41, "intermolecular_energy": -9.5, "internal_energy": -1.66, "cluster_size": 2, "cluster_id": 8, "rank_in_cluster": 2}

>  <energy>  (50) 
-6.45

>  <cluster_rmsd>  (50) 
0.0

>  <cluster>  (50) 
15

$$$$
