
     RDKit          3D

 49 52  0  0  0  0  0  0  0  0999 V2000
  138.9330   71.1120  221.1210 O   0  0  0  0  0  0  0  0  0  0  0  0
  138.7150   71.6160  222.2520 C   0  0  0  0  0  0  0  0  0  0  0  0
  137.8560   72.7730  222.3230 N   0  0  0  0  0  0  0  0  0  0  0  0
  137.3240   73.2400  221.0600 C   0  0  0  0  0  0  0  0  0  0  0  0
  138.3040   73.9820  220.2710 C   0  0  0  0  0  0  0  0  0  0  0  0
  138.0120   74.2510  219.0630 O   0  0  0  0  0  0  0  0  0  0  0  0
  139.5670   74.4330  220.7350 N   0  0  0  0  0  0  0  0  0  0  0  0
  139.6760   75.3140  221.9030 C   0  0  0  0  0  0  0  0  0  0  0  0
  141.0580   75.8530  221.9580 C   0  0  2  0  0  0  0  0  0  0  0  0
  141.0510   77.2630  222.0900 O   0  0  0  0  0  0  0  0  0  0  0  0
  141.6820   75.4740  220.6620 C   0  0  0  0  0  0  0  0  0  0  0  0
  140.8940   74.2140  220.2840 C   0  0  1  0  0  0  0  0  0  0  0  0
  141.6390   73.0670  220.8290 C   0  0  0  0  0  0  0  0  0  0  0  0
  141.7840   71.8200  220.0190 C   0  0  0  0  0  0  0  0  0  0  0  0
  143.0750   71.5940  220.8300 C   0  0  0  0  0  0  0  0  0  0  0  0
  143.1630   73.1300  220.8240 C   0  0  0  0  0  0  0  0  0  0  0  0
  139.2860   71.0900  223.4880 C   0  0  0  0  0  0  0  0  0  0  0  0
  140.2840   71.8620  224.0900 C   0  0  0  0  0  0  0  0  0  0  0  0
  140.8790   71.4550  225.2480 C   0  0  0  0  0  0  0  0  0  0  0  0
  140.4890   70.2780  225.8180 C   0  0  0  0  0  0  0  0  0  0  0  0
  141.0660   69.8350  226.9820 C   0  0  0  0  0  0  0  0  0  0  0  0
  140.6940   68.6550  227.5760 C   0  0  0  0  0  0  0  0  0  0  0  0
  141.4530   68.1200  229.0660 Cl  0  0  0  0  0  0  0  0  0  0  0  0
  139.7020   67.9170  226.9520 C   0  0  0  0  0  0  0  0  0  0  0  0
  139.1090   68.3550  225.7680 C   0  0  0  0  0  0  0  0  0  0  0  0
  139.4970   69.5440  225.1860 C   0  0  0  0  0  0  0  0  0  0  0  0
  138.9110   69.9470  224.0450 N   0  0  0  0  0  0  0  0  0  0  0  0
  137.6570   73.2080  223.2430 H   0  0  0  0  0  0  0  0  0  0  0  0
  136.9898   72.3695  220.4764 H   0  0  0  0  0  0  0  0  0  0  0  0
  136.4933   73.9252  221.2844 H   0  0  0  0  0  0  0  0  0  0  0  0
  138.9579   76.1422  221.8115 H   0  0  0  0  0  0  0  0  0  0  0  0
  139.4536   74.7516  222.8218 H   0  0  0  0  0  0  0  0  0  0  0  0
  141.6062   75.4520  222.8232 H   0  0  0  0  0  0  0  0  0  0  0  0
  142.0070   77.5210  222.1760 H   0  0  0  0  0  0  0  0  0  0  0  0
  141.5534   76.2663  219.9098 H   0  0  0  0  0  0  0  0  0  0  0  0
  142.7688   75.3153  220.7231 H   0  0  0  0  0  0  0  0  0  0  0  0
  140.7971   73.9880  219.2118 H   0  0  0  0  0  0  0  0  0  0  0  0
  141.0431   73.0814  221.7535 H   0  0  0  0  0  0  0  0  0  0  0  0
  140.9968   71.0677  220.1749 H   0  0  0  0  0  0  0  0  0  0  0  0
  141.7613   71.8163  218.9192 H   0  0  0  0  0  0  0  0  0  0  0  0
  142.9354   71.1340  221.8194 H   0  0  0  0  0  0  0  0  0  0  0  0
  143.8932   70.9386  220.4969 H   0  0  0  0  0  0  0  0  0  0  0  0
  143.6184   73.5788  221.7191 H   0  0  0  0  0  0  0  0  0  0  0  0
  143.7427   73.7001  220.0831 H   0  0  0  0  0  0  0  0  0  0  0  0
  140.5932   72.8093  223.6241 H   0  0  0  0  0  0  0  0  0  0  0  0
  141.6633   72.0678  225.7165 H   0  0  0  0  0  0  0  0  0  0  0  0
  141.8509   70.4447  227.4534 H   0  0  0  0  0  0  0  0  0  0  0  0
  139.3753   66.9665  227.3990 H   0  0  0  0  0  0  0  0  0  0  0  0
  138.3246   67.7467  225.2939 H   0  0  0  0  0  0  0  0  0  0  0  0
  1  2  2  0
  2  3  1  0
  3  4  1  0
  4  5  1  0
  5  6  2  0
  5  7  1  0
  7  8  1  0
  8  9  1  0
  9 10  1  0
  9 11  1  0
 11 12  1  0
 12 13  1  0
 13 14  1  0
 14 15  1  0
 15 16  1  0
  2 17  1  0
 17 18  2  0
 18 19  1  0
 19 20  2  0
 20 21  1  0
 21 22  2  0
 22 23  1  0
 22 24  1  0
 24 25  2  0
 25 26  1  0
 26 27  2  0
 12  7  1  0
 16 13  1  0
 27 17  1  0
 26 20  1  0
  3 28  1  0
  4 29  1  0
  4 30  1  0
  8 31  1  0
  8 32  1  0
  9 33  1  1
 10 34  1  0
 11 35  1  0
 11 36  1  0
 12 37  1  6
 13 38  1  0
 14 39  1  0
 14 40  1  0
 15 41  1  0
 15 42  1  0
 16 43  1  0
 16 44  1  0
 18 45  1  0
 19 46  1  0
 21 47  1  0
 24 48  1  0
 25 49  1  0
M  END
>  <smiles>  (1) 
O=C(NCC(=O)N1C[C@H](O)C[C@H]1C1CCC1)c1ccc2cc(Cl)ccc2n1

>  <score_type>  (1) 
oracle

>  <origin>  (1) 
autodockgpu

>  <m_score__min__energy>  (1) 
-8.1300000000000008

>  <m_primary>  (1) 
energy

>  <rmsd>  (1) 
3.183520989069904

>  <m_score__min__rmsd>  (1) 
3.183520989069904

>  <meeko>  (1) 
{"free_energy": -6.63, "intermolecular_energy": -8.42, "internal_energy": -1.94, "cluster_size": 23, "cluster_id": 2, "rank_in_cluster": 22}

>  <energy>  (1) 
-8.13

>  <cluster_rmsd>  (1) 
0.0

>  <cluster>  (1) 
1

$$$$

     RDKit          3D

 49 52  0  0  0  0  0  0  0  0999 V2000
  139.1300   72.6360  220.8710 O   0  0  0  0  0  0  0  0  0  0  0  0
  140.0140   72.7070  221.7620 C   0  0  0  0  0  0  0  0  0  0  0  0
  141.0680   73.6770  221.5940 N   0  0  0  0  0  0  0  0  0  0  0  0
  140.9950   74.4830  220.3940 C   0  0  0  0  0  0  0  0  0  0  0  0
  141.2510   75.9000  220.6450 C   0  0  0  0  0  0  0  0  0  0  0  0
  142.2740   76.4230  220.1010 O   0  0  0  0  0  0  0  0  0  0  0  0
  140.4550   76.7530  221.4520 N   0  0  0  0  0  0  0  0  0  0  0  0
  139.3600   76.2190  222.2700 C   0  0  0  0  0  0  0  0  0  0  0  0
  138.5330   77.3540  222.7480 C   0  0  2  0  0  0  0  0  0  0  0  0
  137.1600   77.1370  222.4750 O   0  0  0  0  0  0  0  0  0  0  0  0
  139.0130   78.5400  221.9880 C   0  0  0  0  0  0  0  0  0  0  0  0
  140.4630   78.1540  221.6750 C   0  0  1  0  0  0  0  0  0  0  0  0
  141.2900   78.6840  222.7700 C   0  0  0  0  0  0  0  0  0  0  0  0
  142.5300   79.4580  222.4600 C   0  0  0  0  0  0  0  0  0  0  0  0
  142.2980   80.1340  223.8260 C   0  0  0  0  0  0  0  0  0  0  0  0
  140.8090   79.9360  223.4970 C   0  0  0  0  0  0  0  0  0  0  0  0
  140.0250   71.8590  222.9500 C   0  0  0  0  0  0  0  0  0  0  0  0
  139.4130   70.6080  222.8280 C   0  0  0  0  0  0  0  0  0  0  0  0
  139.3720   69.7440  223.8830 C   0  0  0  0  0  0  0  0  0  0  0  0
  139.9370   70.1150  225.0680 C   0  0  0  0  0  0  0  0  0  0  0  0
  139.9130   69.2730  226.1520 C   0  0  0  0  0  0  0  0  0  0  0  0
  140.4740   69.6200  227.3560 C   0  0  0  0  0  0  0  0  0  0  0  0
  140.4260   68.5170  228.7210 Cl  0  0  0  0  0  0  0  0  0  0  0  0
  141.0710   70.8670  227.4400 C   0  0  0  0  0  0  0  0  0  0  0  0
  141.1000   71.7320  226.3480 C   0  0  0  0  0  0  0  0  0  0  0  0
  140.5320   71.3640  225.1450 C   0  0  0  0  0  0  0  0  0  0  0  0
  140.5720   72.2150  224.1050 N   0  0  0  0  0  0  0  0  0  0  0  0
  141.8100   73.7580  222.3140 H   0  0  0  0  0  0  0  0  0  0  0  0
  141.7421   74.1129  219.6765 H   0  0  0  0  0  0  0  0  0  0  0  0
  139.9717   74.3969  219.9998 H   0  0  0  0  0  0  0  0  0  0  0  0
  138.7425   75.5388  221.6650 H   0  0  0  0  0  0  0  0  0  0  0  0
  139.7667   75.6618  223.1268 H   0  0  0  0  0  0  0  0  0  0  0  0
  138.6277   77.4827  223.8363 H   0  0  0  0  0  0  0  0  0  0  0  0
  136.8310   77.9950  222.0990 H   0  0  0  0  0  0  0  0  0  0  0  0
  138.4307   78.6863  221.0663 H   0  0  0  0  0  0  0  0  0  0  0  0
  138.9157   79.4877  222.5379 H   0  0  0  0  0  0  0  0  0  0  0  0
  140.9099   78.5848  220.7669 H   0  0  0  0  0  0  0  0  0  0  0  0
  141.3381   77.6955  223.2502 H   0  0  0  0  0  0  0  0  0  0  0  0
  143.4489   78.8579  222.3860 H   0  0  0  0  0  0  0  0  0  0  0  0
  142.6618   80.0261  221.5273 H   0  0  0  0  0  0  0  0  0  0  0  0
  142.6664   79.5733  224.6977 H   0  0  0  0  0  0  0  0  0  0  0  0
  142.7335   81.1053  224.1034 H   0  0  0  0  0  0  0  0  0  0  0  0
  140.1557   79.7553  224.3633 H   0  0  0  0  0  0  0  0  0  0  0  0
  140.1863   80.7090  223.0230 H   0  0  0  0  0  0  0  0  0  0  0  0
  138.9588   70.3167  221.8694 H   0  0  0  0  0  0  0  0  0  0  0  0
  138.8896   68.7609  223.7795 H   0  0  0  0  0  0  0  0  0  0  0  0
  139.4294   68.2900  226.0528 H   0  0  0  0  0  0  0  0  0  0  0  0
  141.5317   71.1809  228.3883 H   0  0  0  0  0  0  0  0  0  0  0  0
  141.5799   72.7170  226.4455 H   0  0  0  0  0  0  0  0  0  0  0  0
  1  2  2  0
  2  3  1  0
  3  4  1  0
  4  5  1  0
  5  6  2  0
  5  7  1  0
  7  8  1  0
  8  9  1  0
  9 10  1  0
  9 11  1  0
 11 12  1  0
 12 13  1  0
 13 14  1  0
 14 15  1  0
 15 16  1  0
  2 17  1  0
 17 18  2  0
 18 19  1  0
 19 20  2  0
 20 21  1  0
 21 22  2  0
 22 23  1  0
 22 24  1  0
 24 25  2  0
 25 26  1  0
 26 27  2  0
 12  7  1  0
 16 13  1  0
 27 17  1  0
 26 20  1  0
  3 28  1  0
  4 29  1  0
  4 30  1  0
  8 31  1  0
  8 32  1  0
  9 33  1  1
 10 34  1  0
 11 35  1  0
 11 36  1  0
 12 37  1  6
 13 38  1  0
 14 39  1  0
 14 40  1  0
 15 41  1  0
 15 42  1  0
 16 43  1  0
 16 44  1  0
 18 45  1  0
 19 46  1  0
 21 47  1  0
 24 48  1  0
 25 49  1  0
M  END
>  <smiles>  (2) 
O=C(NCC(=O)N1C[C@H](O)C[C@H]1C1CCC1)c1ccc2cc(Cl)ccc2n1

>  <score_type>  (2) 
oracle

>  <origin>  (2) 
autodockgpu

>  <m_score__min__energy>  (2) 
-8.1300000000000008

>  <m_primary>  (2) 
energy

>  <rmsd>  (2) 
2.9312537686377755

>  <m_score__min__rmsd>  (2) 
2.9312537686377755

>  <meeko>  (2) 
{"free_energy": -7.27, "intermolecular_energy": -9.06, "internal_energy": -1.35, "cluster_size": 23, "cluster_id": 2, "rank_in_cluster": 19}

>  <energy>  (2) 
-7.56

>  <cluster_rmsd>  (2) 
1.05

>  <cluster>  (2) 
1

$$$$

     RDKit          3D

 49 52  0  0  0  0  0  0  0  0999 V2000
  140.5940   72.5040  220.8180 O   0  0  0  0  0  0  0  0  0  0  0  0
  140.1850   72.8390  221.9590 C   0  0  0  0  0  0  0  0  0  0  0  0
  139.7000   74.1860  222.1340 N   0  0  0  0  0  0  0  0  0  0  0  0
  139.7340   75.0250  220.9550 C   0  0  0  0  0  0  0  0  0  0  0  0
  140.7910   76.0320  221.0040 C   0  0  0  0  0  0  0  0  0  0  0  0
  140.8660   76.7660  222.0400 O   0  0  0  0  0  0  0  0  0  0  0  0
  141.7520   76.2700  219.9880 N   0  0  0  0  0  0  0  0  0  0  0  0
  142.2050   77.6290  219.6740 C   0  0  0  0  0  0  0  0  0  0  0  0
  142.9550   77.5920  218.3940 C   0  0  2  0  0  0  0  0  0  0  0  0
  142.4730   78.5710  217.4900 O   0  0  0  0  0  0  0  0  0  0  0  0
  142.7170   76.2340  217.8360 C   0  0  0  0  0  0  0  0  0  0  0  0
  142.4510   75.4100  219.1010 C   0  0  1  0  0  0  0  0  0  0  0  0
  143.7480   74.8630  219.5320 C   0  0  0  0  0  0  0  0  0  0  0  0
  143.8480   74.1090  220.8190 C   0  0  0  0  0  0  0  0  0  0  0  0
  145.0490   73.3990  220.1630 C   0  0  0  0  0  0  0  0  0  0  0  0
  144.2520   73.5900  218.8610 C   0  0  0  0  0  0  0  0  0  0  0  0
  140.1800   71.9370  223.1060 C   0  0  0  0  0  0  0  0  0  0  0  0
  139.6390   70.6660  222.8950 C   0  0  0  0  0  0  0  0  0  0  0  0
  139.5890   69.7510  223.9060 C   0  0  0  0  0  0  0  0  0  0  0  0
  140.0740   70.0910  225.1350 C   0  0  0  0  0  0  0  0  0  0  0  0
  140.0400   69.1980  226.1770 C   0  0  0  0  0  0  0  0  0  0  0  0
  140.5210   69.5140  227.4230 C   0  0  0  0  0  0  0  0  0  0  0  0
  140.4610   68.3460  228.7320 Cl  0  0  0  0  0  0  0  0  0  0  0  0
  141.0490   70.7830  227.5950 C   0  0  0  0  0  0  0  0  0  0  0  0
  141.0890   71.6990  226.5450 C   0  0  0  0  0  0  0  0  0  0  0  0
  140.6010   71.3630  225.3000 C   0  0  0  0  0  0  0  0  0  0  0  0
  140.6500   72.2630  224.3030 N   0  0  0  0  0  0  0  0  0  0  0  0
  139.3550   74.4900  223.0640 H   0  0  0  0  0  0  0  0  0  0  0  0
  139.8981   74.3865  220.0745 H   0  0  0  0  0  0  0  0  0  0  0  0
  138.7730   75.5576  220.9011 H   0  0  0  0  0  0  0  0  0  0  0  0
  141.3360   78.2962  219.5756 H   0  0  0  0  0  0  0  0  0  0  0  0
  142.8528   78.0056  220.4793 H   0  0  0  0  0  0  0  0  0  0  0  0
  144.0230   77.8015  218.5539 H   0  0  0  0  0  0  0  0  0  0  0  0
  143.2860   79.0040  217.1190 H   0  0  0  0  0  0  0  0  0  0  0  0
  141.8466   76.2255  217.1634 H   0  0  0  0  0  0  0  0  0  0  0  0
  143.5499   75.8534  217.2265 H   0  0  0  0  0  0  0  0  0  0  0  0
  141.8064   74.5250  218.9950 H   0  0  0  0  0  0  0  0  0  0  0  0
  144.2363   75.8402  219.4027 H   0  0  0  0  0  0  0  0  0  0  0  0
  144.0913   74.7201  221.7007 H   0  0  0  0  0  0  0  0  0  0  0  0
  142.9999   73.5643  221.2596 H   0  0  0  0  0  0  0  0  0  0  0  0
  146.0037   73.9429  220.2150 H   0  0  0  0  0  0  0  0  0  0  0  0
  145.4359   72.4259  220.4998 H   0  0  0  0  0  0  0  0  0  0  0  0
  144.8586   73.7435  217.9563 H   0  0  0  0  0  0  0  0  0  0  0  0
  143.5848   72.8223  218.4421 H   0  0  0  0  0  0  0  0  0  0  0  0
  139.2486   70.3998  221.9016 H   0  0  0  0  0  0  0  0  0  0  0  0
  139.1630   68.7518  223.7323 H   0  0  0  0  0  0  0  0  0  0  0  0
  139.6140   68.1980  226.0081 H   0  0  0  0  0  0  0  0  0  0  0  0
  141.4445   71.0736  228.5795 H   0  0  0  0  0  0  0  0  0  0  0  0
  141.5141   72.6998  226.7113 H   0  0  0  0  0  0  0  0  0  0  0  0
  1  2  2  0
  2  3  1  0
  3  4  1  0
  4  5  1  0
  5  6  2  0
  5  7  1  0
  7  8  1  0
  8  9  1  0
  9 10  1  0
  9 11  1  0
 11 12  1  0
 12 13  1  0
 13 14  1  0
 14 15  1  0
 15 16  1  0
  2 17  1  0
 17 18  2  0
 18 19  1  0
 19 20  2  0
 20 21  1  0
 21 22  2  0
 22 23  1  0
 22 24  1  0
 24 25  2  0
 25 26  1  0
 26 27  2  0
 12  7  1  0
 16 13  1  0
 27 17  1  0
 26 20  1  0
  3 28  1  0
  4 29  1  0
  4 30  1  0
  8 31  1  0
  8 32  1  0
  9 33  1  1
 10 34  1  0
 11 35  1  0
 11 36  1  0
 12 37  1  6
 13 38  1  0
 14 39  1  0
 14 40  1  0
 15 41  1  0
 15 42  1  0
 16 43  1  0
 16 44  1  0
 18 45  1  0
 19 46  1  0
 21 47  1  0
 24 48  1  0
 25 49  1  0
M  END
>  <smiles>  (3) 
O=C(NCC(=O)N1C[C@H](O)C[C@H]1C1CCC1)c1ccc2cc(Cl)ccc2n1

>  <score_type>  (3) 
oracle

>  <origin>  (3) 
autodockgpu

>  <m_score__min__energy>  (3) 
-8.1300000000000008

>  <m_primary>  (3) 
energy

>  <rmsd>  (3) 
2.4252974492726627

>  <m_score__min__rmsd>  (3) 
2.4252974492726627

>  <meeko>  (3) 
{"free_energy": -7.8, "intermolecular_energy": -9.59, "internal_energy": -1.55, "cluster_size": 13, "cluster_id": 3, "rank_in_cluster": 2}

>  <energy>  (3) 
-7.25

>  <cluster_rmsd>  (3) 
1.91

>  <cluster>  (3) 
1

$$$$

     RDKit          3D

 49 52  0  0  0  0  0  0  0  0999 V2000
  140.5330   72.4320  220.7580 O   0  0  0  0  0  0  0  0  0  0  0  0
  140.2220   72.8050  221.9180 C   0  0  0  0  0  0  0  0  0  0  0  0
  139.8670   74.1890  222.1120 N   0  0  0  0  0  0  0  0  0  0  0  0
  139.9060   75.0200  220.9270 C   0  0  0  0  0  0  0  0  0  0  0  0
  141.0060   75.9810  220.9430 C   0  0  0  0  0  0  0  0  0  0  0  0
  142.0750   75.6710  220.3280 O   0  0  0  0  0  0  0  0  0  0  0  0
  140.9900   77.2430  221.5920 N   0  0  0  0  0  0  0  0  0  0  0  0
  141.8700   78.3320  221.1560 C   0  0  0  0  0  0  0  0  0  0  0  0
  141.8540   79.3950  222.1920 C   0  0  2  0  0  0  0  0  0  0  0  0
  143.1690   79.7630  222.5670 O   0  0  0  0  0  0  0  0  0  0  0  0
  141.1490   78.7980  223.3580 C   0  0  0  0  0  0  0  0  0  0  0  0
  140.2470   77.7550  222.6880 C   0  0  1  0  0  0  0  0  0  0  0  0
  138.9610   78.4160  222.4140 C   0  0  0  0  0  0  0  0  0  0  0  0
  137.6800   77.6960  222.6860 C   0  0  0  0  0  0  0  0  0  0  0  0
  137.0730   79.1020  222.8610 C   0  0  0  0  0  0  0  0  0  0  0  0
  138.4660   79.4660  223.4030 C   0  0  0  0  0  0  0  0  0  0  0  0
  140.2050   71.9080  223.0700 C   0  0  0  0  0  0  0  0  0  0  0  0
  139.6440   70.6450  222.8670 C   0  0  0  0  0  0  0  0  0  0  0  0
  139.5820   69.7360  223.8830 C   0  0  0  0  0  0  0  0  0  0  0  0
  140.0750   70.0750  225.1090 C   0  0  0  0  0  0  0  0  0  0  0  0
  140.0290   69.1880  226.1550 C   0  0  0  0  0  0  0  0  0  0  0  0
  140.5170   69.5030  227.3990 C   0  0  0  0  0  0  0  0  0  0  0  0
  140.4420   68.3420  228.7150 Cl  0  0  0  0  0  0  0  0  0  0  0  0
  141.0650   70.7640  227.5640 C   0  0  0  0  0  0  0  0  0  0  0  0
  141.1160   71.6740  226.5090 C   0  0  0  0  0  0  0  0  0  0  0  0
  140.6210   71.3390  225.2660 C   0  0  0  0  0  0  0  0  0  0  0  0
  140.6820   72.2330  224.2640 N   0  0  0  0  0  0  0  0  0  0  0  0
  139.6060   74.5240  223.0580 H   0  0  0  0  0  0  0  0  0  0  0  0
  140.0199   74.3706  220.0465 H   0  0  0  0  0  0  0  0  0  0  0  0
  138.9675   75.5928  220.8943 H   0  0  0  0  0  0  0  0  0  0  0  0
  142.8948   77.9527  221.0295 H   0  0  0  0  0  0  0  0  0  0  0  0
  141.5199   78.7373  220.1952 H   0  0  0  0  0  0  0  0  0  0  0  0
  141.3602   80.3048  221.8199 H   0  0  0  0  0  0  0  0  0  0  0  0
  143.7610   79.0970  222.1290 H   0  0  0  0  0  0  0  0  0  0  0  0
  141.8577   78.3251  224.0538 H   0  0  0  0  0  0  0  0  0  0  0  0
  140.6006   79.5318  223.9669 H   0  0  0  0  0  0  0  0  0  0  0  0
  139.9741   76.8730  223.2859 H   0  0  0  0  0  0  0  0  0  0  0  0
  139.2719   78.6607  221.3876 H   0  0  0  0  0  0  0  0  0  0  0  0
  137.2810   77.1171  221.8400 H   0  0  0  0  0  0  0  0  0  0  0  0
  137.5885   76.9073  223.4473 H   0  0  0  0  0  0  0  0  0  0  0  0
  136.7827   79.6092  221.9291 H   0  0  0  0  0  0  0  0  0  0  0  0
  136.1394   79.2954  223.4096 H   0  0  0  0  0  0  0  0  0  0  0  0
  138.7954   80.4957  223.2001 H   0  0  0  0  0  0  0  0  0  0  0  0
  138.7201   79.4561  224.4732 H   0  0  0  0  0  0  0  0  0  0  0  0
  139.2473   70.3798  221.8759 H   0  0  0  0  0  0  0  0  0  0  0  0
  139.1402   68.7427  223.7155 H   0  0  0  0  0  0  0  0  0  0  0  0
  139.5875   68.1938  225.9917 H   0  0  0  0  0  0  0  0  0  0  0  0
  141.4677   71.0531  228.5460 H   0  0  0  0  0  0  0  0  0  0  0  0
  141.5556   72.6695  226.6696 H   0  0  0  0  0  0  0  0  0  0  0  0
  1  2  2  0
  2  3  1  0
  3  4  1  0
  4  5  1  0
  5  6  2  0
  5  7  1  0
  7  8  1  0
  8  9  1  0
  9 10  1  0
  9 11  1  0
 11 12  1  0
 12 13  1  0
 13 14  1  0
 14 15  1  0
 15 16  1  0
  2 17  1  0
 17 18  2  0
 18 19  1  0
 19 20  2  0
 20 21  1  0
 21 22  2  0
 22 23  1  0
 22 24  1  0
 24 25  2  0
 25 26  1  0
 26 27  2  0
 12  7  1  0
 16 13  1  0
 27 17  1  0
 26 20  1  0
  3 28  1  0
  4 29  1  0
  4 30  1  0
  8 31  1  0
  8 32  1  0
  9 33  1  6
 10 34  1  0
 11 35  1  0
 11 36  1  0
 12 37  1  1
 13 38  1  0
 14 39  1  0
 14 40  1  0
 15 41  1  0
 15 42  1  0
 16 43  1  0
 16 44  1  0
 18 45  1  0
 19 46  1  0
 21 47  1  0
 24 48  1  0
 25 49  1  0
M  END
>  <smiles>  (4) 
O=C(NCC(=O)N1C[C@H](O)C[C@H]1C1CCC1)c1ccc2cc(Cl)ccc2n1

>  <score_type>  (4) 
oracle

>  <origin>  (4) 
autodockgpu

>  <m_score__min__energy>  (4) 
-8.1300000000000008

>  <m_primary>  (4) 
energy

>  <rmsd>  (4) 
3.1864161698389135

>  <m_score__min__rmsd>  (4) 
3.1864161698389135

>  <meeko>  (4) 
{"free_energy": -7.94, "intermolecular_energy": -9.73, "internal_energy": -1.25, "cluster_size": 23, "cluster_id": 2, "rank_in_cluster": 2}

>  <energy>  (4) 
-7.16

>  <cluster_rmsd>  (4) 
1.83

>  <cluster>  (4) 
1

$$$$

     RDKit          3D

 49 52  0  0  0  0  0  0  0  0999 V2000
  140.1120   73.9470  222.0130 O   0  0  0  0  0  0  0  0  0  0  0  0
  140.0060   72.6970  221.9230 C   0  0  0  0  0  0  0  0  0  0  0  0
  139.8150   72.1270  220.6120 N   0  0  0  0  0  0  0  0  0  0  0  0
  139.7680   73.0720  219.5160 C   0  0  0  0  0  0  0  0  0  0  0  0
  141.0850   73.3540  218.9510 C   0  0  0  0  0  0  0  0  0  0  0  0
  141.4970   72.6130  218.0040 O   0  0  0  0  0  0  0  0  0  0  0  0
  141.9580   74.3910  219.3710 N   0  0  0  0  0  0  0  0  0  0  0  0
  141.4370   75.6320  219.9530 C   0  0  0  0  0  0  0  0  0  0  0  0
  142.5380   76.6270  220.0050 C   0  0  2  0  0  0  0  0  0  0  0  0
  142.1440   77.8570  219.4250 O   0  0  0  0  0  0  0  0  0  0  0  0
  143.6460   76.0300  219.2110 C   0  0  0  0  0  0  0  0  0  0  0  0
  143.3700   74.5290  219.3540 C   0  0  1  0  0  0  0  0  0  0  0  0
  144.1340   74.0650  220.5230 C   0  0  0  0  0  0  0  0  0  0  0  0
  144.3270   72.6020  220.7550 C   0  0  0  0  0  0  0  0  0  0  0  0
  145.6080   73.0180  221.5050 C   0  0  0  0  0  0  0  0  0  0  0  0
  145.6550   74.1580  220.4730 C   0  0  0  0  0  0  0  0  0  0  0  0
  140.0640   71.8030  223.0750 C   0  0  0  0  0  0  0  0  0  0  0  0
  139.5710   70.5090  222.8830 C   0  0  0  0  0  0  0  0  0  0  0  0
  139.5830   69.5990  223.9000 C   0  0  0  0  0  0  0  0  0  0  0  0
  140.0820   69.9670  225.1150 C   0  0  0  0  0  0  0  0  0  0  0  0
  140.1090   69.0790  226.1620 C   0  0  0  0  0  0  0  0  0  0  0  0
  140.6050   69.4230  227.3950 C   0  0  0  0  0  0  0  0  0  0  0  0
  140.6240   68.2610  228.7110 Cl  0  0  0  0  0  0  0  0  0  0  0  0
  141.0850   70.7130  227.5480 C   0  0  0  0  0  0  0  0  0  0  0  0
  141.0620   71.6240  226.4930 C   0  0  0  0  0  0  0  0  0  0  0  0
  140.5590   71.2600  225.2610 C   0  0  0  0  0  0  0  0  0  0  0  0
  140.5480   72.1550  224.2580 N   0  0  0  0  0  0  0  0  0  0  0  0
  139.7250   71.1000  220.5080 H   0  0  0  0  0  0  0  0  0  0  0  0
  139.1274   72.6583  218.7233 H   0  0  0  0  0  0  0  0  0  0  0  0
  139.3699   74.0176  219.9127 H   0  0  0  0  0  0  0  0  0  0  0  0
  140.6170   76.0183  219.3299 H   0  0  0  0  0  0  0  0  0  0  0  0
  141.0536   75.4410  220.9662 H   0  0  0  0  0  0  0  0  0  0  0  0
  142.8301   76.8420  221.0435 H   0  0  0  0  0  0  0  0  0  0  0  0
  141.2430   77.6880  219.0430 H   0  0  0  0  0  0  0  0  0  0  0  0
  143.5986   76.3463  218.1585 H   0  0  0  0  0  0  0  0  0  0  0  0
  144.6475   76.3306  219.5525 H   0  0  0  0  0  0  0  0  0  0  0  0
  143.7099   73.8781  218.5350 H   0  0  0  0  0  0  0  0  0  0  0  0
  143.5198   74.6746  221.2021 H   0  0  0  0  0  0  0  0  0  0  0  0
  143.5568   72.1222  221.3768 H   0  0  0  0  0  0  0  0  0  0  0  0
  144.3256   71.8630  219.9402 H   0  0  0  0  0  0  0  0  0  0  0  0
  145.4617   73.3330  222.5487 H   0  0  0  0  0  0  0  0  0  0  0  0
  146.4496   72.3350  221.6930 H   0  0  0  0  0  0  0  0  0  0  0  0
  146.0807   75.1048  220.8369 H   0  0  0  0  0  0  0  0  0  0  0  0
  146.2339   74.1050  219.5391 H   0  0  0  0  0  0  0  0  0  0  0  0
  139.1687   70.2209  221.9006 H   0  0  0  0  0  0  0  0  0  0  0  0
  139.1952   68.5818  223.7419 H   0  0  0  0  0  0  0  0  0  0  0  0
  139.7214   68.0611  226.0081 H   0  0  0  0  0  0  0  0  0  0  0  0
  141.4924   71.0249  228.5210 H   0  0  0  0  0  0  0  0  0  0  0  0
  141.4485   72.6427  226.6443 H   0  0  0  0  0  0  0  0  0  0  0  0
  1  2  2  0
  2  3  1  0
  3  4  1  0
  4  5  1  0
  5  6  2  0
  5  7  1  0
  7  8  1  0
  8  9  1  0
  9 10  1  0
  9 11  1  0
 11 12  1  0
 12 13  1  0
 13 14  1  0
 14 15  1  0
 15 16  1  0
  2 17  1  0
 17 18  2  0
 18 19  1  0
 19 20  2  0
 20 21  1  0
 21 22  2  0
 22 23  1  0
 22 24  1  0
 24 25  2  0
 25 26  1  0
 26 27  2  0
 12  7  1  0
 16 13  1  0
 27 17  1  0
 26 20  1  0
  3 28  1  0
  4 29  1  0
  4 30  1  0
  8 31  1  0
  8 32  1  0
  9 33  1  1
 10 34  1  0
 11 35  1  0
 11 36  1  0
 12 37  1  6
 13 38  1  0
 14 39  1  0
 14 40  1  0
 15 41  1  0
 15 42  1  0
 16 43  1  0
 16 44  1  0
 18 45  1  0
 19 46  1  0
 21 47  1  0
 24 48  1  0
 25 49  1  0
M  END
>  <smiles>  (5) 
O=C(NCC(=O)N1C[C@H](O)C[C@H]1C1CCC1)c1ccc2cc(Cl)ccc2n1

>  <score_type>  (5) 
oracle

>  <origin>  (5) 
autodockgpu

>  <m_score__min__energy>  (5) 
-8.1300000000000008

>  <m_primary>  (5) 
energy

>  <rmsd>  (5) 
2.624762030405856

>  <m_score__min__rmsd>  (5) 
2.624762030405856

>  <meeko>  (5) 
{"free_energy": -7.13, "intermolecular_energy": -8.92, "internal_energy": -1.46, "cluster_size": 13, "cluster_id": 3, "rank_in_cluster": 11}

>  <energy>  (5) 
-7.08

>  <cluster_rmsd>  (5) 
1.48

>  <cluster>  (5) 
1

$$$$

     RDKit          3D

 49 52  0  0  0  0  0  0  0  0999 V2000
  140.0010   72.0660  220.5430 O   0  0  0  0  0  0  0  0  0  0  0  0
  139.9220   72.5320  221.7090 C   0  0  0  0  0  0  0  0  0  0  0  0
  139.7510   73.9560  221.8580 N   0  0  0  0  0  0  0  0  0  0  0  0
  139.6860   74.7140  220.6270 C   0  0  0  0  0  0  0  0  0  0  0  0
  140.4430   75.9620  220.6870 C   0  0  0  0  0  0  0  0  0  0  0  0
  140.0930   76.8290  221.5490 O   0  0  0  0  0  0  0  0  0  0  0  0
  141.5450   76.3000  219.8590 N   0  0  0  0  0  0  0  0  0  0  0  0
  141.9940   77.6890  219.7220 C   0  0  0  0  0  0  0  0  0  0  0  0
  142.9400   77.7690  218.5810 C   0  0  2  0  0  0  0  0  0  0  0  0
  142.5740   78.8030  217.6850 O   0  0  0  0  0  0  0  0  0  0  0  0
  142.8410   76.4530  217.8940 C   0  0  0  0  0  0  0  0  0  0  0  0
  142.4060   75.5280  219.0370 C   0  0  1  0  0  0  0  0  0  0  0  0
  143.6350   74.9780  219.6300 C   0  0  0  0  0  0  0  0  0  0  0  0
  143.5460   73.9820  220.7410 C   0  0  0  0  0  0  0  0  0  0  0  0
  144.9200   73.4920  220.2430 C   0  0  0  0  0  0  0  0  0  0  0  0
  144.3900   73.9020  218.8580 C   0  0  0  0  0  0  0  0  0  0  0  0
  139.9960   71.7050  222.9090 C   0  0  0  0  0  0  0  0  0  0  0  0
  139.5090   70.4000  222.7960 C   0  0  0  0  0  0  0  0  0  0  0  0
  139.5340   69.5490  223.8630 C   0  0  0  0  0  0  0  0  0  0  0  0
  140.0420   69.9890  225.0510 C   0  0  0  0  0  0  0  0  0  0  0  0
  140.0830   69.1620  226.1460 C   0  0  0  0  0  0  0  0  0  0  0  0
  140.5880   69.5780  227.3530 C   0  0  0  0  0  0  0  0  0  0  0  0
  140.6260   68.4930  228.7330 Cl  0  0  0  0  0  0  0  0  0  0  0  0
  141.0610   70.8770  227.4280 C   0  0  0  0  0  0  0  0  0  0  0  0
  141.0240   71.7270  226.3230 C   0  0  0  0  0  0  0  0  0  0  0  0
  140.5130   71.2910  225.1180 C   0  0  0  0  0  0  0  0  0  0  0  0
  140.4880   72.1270  224.0660 N   0  0  0  0  0  0  0  0  0  0  0  0
  139.6820   74.3680  222.8070 H   0  0  0  0  0  0  0  0  0  0  0  0
  140.0920   74.0961  219.8125 H   0  0  0  0  0  0  0  0  0  0  0  0
  138.6314   74.9756  220.4558 H   0  0  0  0  0  0  0  0  0  0  0  0
  141.1288   78.3415  219.5329 H   0  0  0  0  0  0  0  0  0  0  0  0
  142.4912   78.0168  220.6469 H   0  0  0  0  0  0  0  0  0  0  0  0
  143.9607   77.9900  218.9264 H   0  0  0  0  0  0  0  0  0  0  0  0
  143.4130   79.0470  217.2130 H   0  0  0  0  0  0  0  0  0  0  0  0
  142.0894   76.4769  217.0912 H   0  0  0  0  0  0  0  0  0  0  0  0
  143.7726   76.1395  217.4001 H   0  0  0  0  0  0  0  0  0  0  0  0
  141.8176   74.6394  218.7647 H   0  0  0  0  0  0  0  0  0  0  0  0
  144.0389   75.9872  219.7980 H   0  0  0  0  0  0  0  0  0  0  0  0
  143.5423   74.4112  221.7538 H   0  0  0  0  0  0  0  0  0  0  0  0
  142.6848   73.3106  220.8734 H   0  0  0  0  0  0  0  0  0  0  0  0
  145.7850   74.0667  220.6056 H   0  0  0  0  0  0  0  0  0  0  0  0
  145.3253   72.4940  220.4661 H   0  0  0  0  0  0  0  0  0  0  0  0
  145.1498   74.2734  218.1546 H   0  0  0  0  0  0  0  0  0  0  0  0
  143.9024   73.2004  218.1652 H   0  0  0  0  0  0  0  0  0  0  0  0
  139.1004   70.0542  221.8351 H   0  0  0  0  0  0  0  0  0  0  0  0
  139.1500   68.5227  223.7667 H   0  0  0  0  0  0  0  0  0  0  0  0
  139.6997   68.1351  226.0535 H   0  0  0  0  0  0  0  0  0  0  0  0
  141.4743   71.2461  228.3782 H   0  0  0  0  0  0  0  0  0  0  0  0
  141.4058   72.7547  226.4131 H   0  0  0  0  0  0  0  0  0  0  0  0
  1  2  2  0
  2  3  1  0
  3  4  1  0
  4  5  1  0
  5  6  2  0
  5  7  1  0
  7  8  1  0
  8  9  1  0
  9 10  1  0
  9 11  1  0
 11 12  1  0
 12 13  1  0
 13 14  1  0
 14 15  1  0
 15 16  1  0
  2 17  1  0
 17 18  2  0
 18 19  1  0
 19 20  2  0
 20 21  1  0
 21 22  2  0
 22 23  1  0
 22 24  1  0
 24 25  2  0
 25 26  1  0
 26 27  2  0
 12  7  1  0
 16 13  1  0
 27 17  1  0
 26 20  1  0
  3 28  1  0
  4 29  1  0
  4 30  1  0
  8 31  1  0
  8 32  1  0
  9 33  1  1
 10 34  1  0
 11 35  1  0
 11 36  1  0
 12 37  1  6
 13 38  1  0
 14 39  1  0
 14 40  1  0
 15 41  1  0
 15 42  1  0
 16 43  1  0
 16 44  1  0
 18 45  1  0
 19 46  1  0
 21 47  1  0
 24 48  1  0
 25 49  1  0
M  END
>  <smiles>  (6) 
O=C(NCC(=O)N1C[C@H](O)C[C@H]1C1CCC1)c1ccc2cc(Cl)ccc2n1

>  <score_type>  (6) 
oracle

>  <origin>  (6) 
autodockgpu

>  <m_score__min__energy>  (6) 
-8.1300000000000008

>  <m_primary>  (6) 
energy

>  <rmsd>  (6) 
2.3456204763509367

>  <m_score__min__rmsd>  (6) 
2.3456204763509367

>  <meeko>  (6) 
{"free_energy": -7.46, "intermolecular_energy": -9.25, "internal_energy": -1.55, "cluster_size": 13, "cluster_id": 3, "rank_in_cluster": 7}

>  <energy>  (6) 
-7.97

>  <cluster_rmsd>  (6) 
0.0

>  <cluster>  (6) 
2

$$$$

     RDKit          3D

 49 52  0  0  0  0  0  0  0  0999 V2000
  139.6770   73.4170  220.2820 O   0  0  0  0  0  0  0  0  0  0  0  0
  139.6350   73.5720  221.5290 C   0  0  0  0  0  0  0  0  0  0  0  0
  139.5490   74.9180  222.0400 N   0  0  0  0  0  0  0  0  0  0  0  0
  139.5180   75.9680  221.0450 C   0  0  0  0  0  0  0  0  0  0  0  0
  140.7270   76.7880  221.0470 C   0  0  0  0  0  0  0  0  0  0  0  0
  141.6660   76.4650  220.2510 O   0  0  0  0  0  0  0  0  0  0  0  0
  140.9530   77.9240  221.8670 N   0  0  0  0  0  0  0  0  0  0  0  0
  141.8350   79.0120  221.4310 C   0  0  0  0  0  0  0  0  0  0  0  0
  142.1130   79.8880  222.5960 C   0  0  2  0  0  0  0  0  0  0  0  0
  143.5050   80.1060  222.7510 O   0  0  0  0  0  0  0  0  0  0  0  0
  141.5870   79.1530  223.7780 C   0  0  0  0  0  0  0  0  0  0  0  0
  140.4820   78.2940  223.1530 C   0  0  1  0  0  0  0  0  0  0  0  0
  139.2350   79.0710  223.2450 C   0  0  0  0  0  0  0  0  0  0  0  0
  139.2530   80.4400  223.8450 C   0  0  0  0  0  0  0  0  0  0  0  0
  138.0200   80.7070  222.9590 C   0  0  0  0  0  0  0  0  0  0  0  0
  138.7070   79.7390  221.9800 C   0  0  0  0  0  0  0  0  0  0  0  0
  139.6700   72.4630  222.4760 C   0  0  0  0  0  0  0  0  0  0  0  0
  138.9510   71.3180  222.1210 C   0  0  0  0  0  0  0  0  0  0  0  0
  138.9220   70.2280  222.9410 C   0  0  0  0  0  0  0  0  0  0  0  0
  139.6070   70.2660  224.1210 C   0  0  0  0  0  0  0  0  0  0  0  0
  139.6000   69.1890  224.9720 C   0  0  0  0  0  0  0  0  0  0  0  0
  140.2790   69.2000  226.1660 C   0  0  0  0  0  0  0  0  0  0  0  0
  140.2490   67.8040  227.2290 Cl  0  0  0  0  0  0  0  0  0  0  0  0
  140.9800   70.3510  226.4840 C   0  0  0  0  0  0  0  0  0  0  0  0
  140.9940   71.4520  225.6290 C   0  0  0  0  0  0  0  0  0  0  0  0
  140.3050   71.4220  224.4340 C   0  0  0  0  0  0  0  0  0  0  0  0
  140.3330   72.4950  223.6240 N   0  0  0  0  0  0  0  0  0  0  0  0
  139.5120   75.0760  223.0640 H   0  0  0  0  0  0  0  0  0  0  0  0
  139.4076   75.5077  220.0521 H   0  0  0  0  0  0  0  0  0  0  0  0
  138.6712   76.6273  221.2866 H   0  0  0  0  0  0  0  0  0  0  0  0
  142.7776   78.5945  221.0474 H   0  0  0  0  0  0  0  0  0  0  0  0
  141.3516   79.5913  220.6305 H   0  0  0  0  0  0  0  0  0  0  0  0
  141.6448   80.8754  222.4701 H   0  0  0  0  0  0  0  0  0  0  0  0
  143.9400   79.4010  222.2040 H   0  0  0  0  0  0  0  0  0  0  0  0
  142.3660   78.5284  224.2394 H   0  0  0  0  0  0  0  0  0  0  0  0
  141.2345   79.8091  224.5875 H   0  0  0  0  0  0  0  0  0  0  0  0
  140.2456   77.3437  223.6541 H   0  0  0  0  0  0  0  0  0  0  0  0
  138.7170   78.2367  223.7406 H   0  0  0  0  0  0  0  0  0  0  0  0
  139.0666   80.4776  224.9284 H   0  0  0  0  0  0  0  0  0  0  0  0
  140.1448   81.0839  223.8370 H   0  0  0  0  0  0  0  0  0  0  0  0
  137.0606   80.3594  223.3698 H   0  0  0  0  0  0  0  0  0  0  0  0
  137.6826   81.7155  222.6777 H   0  0  0  0  0  0  0  0  0  0  0  0
  138.0274   79.1240  221.3718 H   0  0  0  0  0  0  0  0  0  0  0  0
  139.3553   80.0713  221.1558 H   0  0  0  0  0  0  0  0  0  0  0  0
  138.4016   71.2955  221.1683 H   0  0  0  0  0  0  0  0  0  0  0  0
  138.3541   69.3304  222.6550 H   0  0  0  0  0  0  0  0  0  0  0  0
  139.0333   68.2896  224.6891 H   0  0  0  0  0  0  0  0  0  0  0  0
  141.5375   70.3976  227.4311 H   0  0  0  0  0  0  0  0  0  0  0  0
  141.5595   72.3528  225.9096 H   0  0  0  0  0  0  0  0  0  0  0  0
  1  2  2  0
  2  3  1  0
  3  4  1  0
  4  5  1  0
  5  6  2  0
  5  7  1  0
  7  8  1  0
  8  9  1  0
  9 10  1  0
  9 11  1  0
 11 12  1  0
 12 13  1  0
 13 14  1  0
 14 15  1  0
 15 16  1  0
  2 17  1  0
 17 18  2  0
 18 19  1  0
 19 20  2  0
 20 21  1  0
 21 22  2  0
 22 23  1  0
 22 24  1  0
 24 25  2  0
 25 26  1  0
 26 27  2  0
 12  7  1  0
 16 13  1  0
 27 17  1  0
 26 20  1  0
  3 28  1  0
  4 29  1  0
  4 30  1  0
  8 31  1  0
  8 32  1  0
  9 33  1  6
 10 34  1  0
 11 35  1  0
 11 36  1  0
 12 37  1  1
 13 38  1  0
 14 39  1  0
 14 40  1  0
 15 41  1  0
 15 42  1  0
 16 43  1  0
 16 44  1  0
 18 45  1  0
 19 46  1  0
 21 47  1  0
 24 48  1  0
 25 49  1  0
M  END
>  <smiles>  (7) 
O=C(NCC(=O)N1C[C@H](O)C[C@H]1C1CCC1)c1ccc2cc(Cl)ccc2n1

>  <score_type>  (7) 
oracle

>  <origin>  (7) 
autodockgpu

>  <m_score__min__energy>  (7) 
-8.1300000000000008

>  <m_primary>  (7) 
energy

>  <rmsd>  (7) 
3.6947852288307974

>  <m_score__min__rmsd>  (7) 
3.6947852288307974

>  <meeko>  (7) 
{"free_energy": -7.72, "intermolecular_energy": -9.51, "internal_energy": -1.18, "cluster_size": 23, "cluster_id": 2, "rank_in_cluster": 7}

>  <energy>  (7) 
-7.94

>  <cluster_rmsd>  (7) 
0.17

>  <cluster>  (7) 
2

$$$$

     RDKit          3D

 49 52  0  0  0  0  0  0  0  0999 V2000
  140.5570   72.4090  220.7020 O   0  0  0  0  0  0  0  0  0  0  0  0
  140.2200   72.7980  221.8490 C   0  0  0  0  0  0  0  0  0  0  0  0
  139.8470   74.1810  222.0120 N   0  0  0  0  0  0  0  0  0  0  0  0
  139.8990   74.9910  220.8130 C   0  0  0  0  0  0  0  0  0  0  0  0
  140.4970   76.3050  221.0410 C   0  0  0  0  0  0  0  0  0  0  0  0
  141.6380   76.5350  220.5290 O   0  0  0  0  0  0  0  0  0  0  0  0
  139.9150   77.3570  221.7940 N   0  0  0  0  0  0  0  0  0  0  0  0
  138.7520   77.1210  222.6560 C   0  0  0  0  0  0  0  0  0  0  0  0
  138.1910   78.4340  223.0610 C   0  0  2  0  0  0  0  0  0  0  0  0
  136.7980   78.4920  222.8150 O   0  0  0  0  0  0  0  0  0  0  0  0
  138.8910   79.4400  222.2160 C   0  0  0  0  0  0  0  0  0  0  0  0
  140.2210   78.7370  221.9190 C   0  0  1  0  0  0  0  0  0  0  0  0
  141.1660   79.1530  222.9670 C   0  0  0  0  0  0  0  0  0  0  0  0
  142.5890   79.4420  222.6160 C   0  0  0  0  0  0  0  0  0  0  0  0
  142.5730   80.3680  223.8490 C   0  0  0  0  0  0  0  0  0  0  0  0
  141.1000   80.5930  223.4670 C   0  0  0  0  0  0  0  0  0  0  0  0
  140.1900   71.9220  223.0170 C   0  0  0  0  0  0  0  0  0  0  0  0
  139.5920   70.6710  222.8410 C   0  0  0  0  0  0  0  0  0  0  0  0
  139.5150   69.7820  223.8730 C   0  0  0  0  0  0  0  0  0  0  0  0
  140.0310   70.1270  225.0880 C   0  0  0  0  0  0  0  0  0  0  0  0
  139.9710   69.2590  226.1490 C   0  0  0  0  0  0  0  0  0  0  0  0
  140.4820   69.5810  227.3820 C   0  0  0  0  0  0  0  0  0  0  0  0
  140.3890   68.4450  228.7180 Cl  0  0  0  0  0  0  0  0  0  0  0  0
  141.0680   70.8280  227.5190 C   0  0  0  0  0  0  0  0  0  0  0  0
  141.1330   71.7190  226.4490 C   0  0  0  0  0  0  0  0  0  0  0  0
  140.6150   71.3780  225.2170 C   0  0  0  0  0  0  0  0  0  0  0  0
  140.6900   72.2530  224.2000 N   0  0  0  0  0  0  0  0  0  0  0  0
  139.5630   74.5300  222.9460 H   0  0  0  0  0  0  0  0  0  0  0  0
  140.4954   74.4603  220.0563 H   0  0  0  0  0  0  0  0  0  0  0  0
  138.8638   75.1526  220.4781 H   0  0  0  0  0  0  0  0  0  0  0  0
  137.9923   76.5471  222.1051 H   0  0  0  0  0  0  0  0  0  0  0  0
  139.0529   76.5493  223.5463 H   0  0  0  0  0  0  0  0  0  0  0  0
  138.3349   78.6121  224.1369 H   0  0  0  0  0  0  0  0  0  0  0  0
  136.5420   77.5710  222.5460 H   0  0  0  0  0  0  0  0  0  0  0  0
  138.3315   79.6439  221.2912 H   0  0  0  0  0  0  0  0  0  0  0  0
  139.0064   80.4216  222.6989 H   0  0  0  0  0  0  0  0  0  0  0  0
  140.7273   79.0027  220.9793 H   0  0  0  0  0  0  0  0  0  0  0  0
  140.8963   78.2897  223.5930 H   0  0  0  0  0  0  0  0  0  0  0  0
  143.2713   78.5821  222.6865 H   0  0  0  0  0  0  0  0  0  0  0  0
  142.9004   79.7826  221.6175 H   0  0  0  0  0  0  0  0  0  0  0  0
  142.7382   79.8689  224.8152 H   0  0  0  0  0  0  0  0  0  0  0  0
  143.2916   81.1867  224.0018 H   0  0  0  0  0  0  0  0  0  0  0  0
  140.4163   80.7673  224.3109 H   0  0  0  0  0  0  0  0  0  0  0  0
  140.7576   81.4340  222.8461 H   0  0  0  0  0  0  0  0  0  0  0  0
  139.1784   70.3999  221.8584 H   0  0  0  0  0  0  0  0  0  0  0  0
  139.0428   68.7993  223.7273 H   0  0  0  0  0  0  0  0  0  0  0  0
  139.4992   68.2754  226.0075 H   0  0  0  0  0  0  0  0  0  0  0  0
  141.4905   71.1213  228.4913 H   0  0  0  0  0  0  0  0  0  0  0  0
  141.6022   72.7041  226.5886 H   0  0  0  0  0  0  0  0  0  0  0  0
  1  2  2  0
  2  3  1  0
  3  4  1  0
  4  5  1  0
  5  6  2  0
  5  7  1  0
  7  8  1  0
  8  9  1  0
  9 10  1  0
  9 11  1  0
 11 12  1  0
 12 13  1  0
 13 14  1  0
 14 15  1  0
 15 16  1  0
  2 17  1  0
 17 18  2  0
 18 19  1  0
 19 20  2  0
 20 21  1  0
 21 22  2  0
 22 23  1  0
 22 24  1  0
 24 25  2  0
 25 26  1  0
 26 27  2  0
 12  7  1  0
 16 13  1  0
 27 17  1  0
 26 20  1  0
  3 28  1  0
  4 29  1  0
  4 30  1  0
  8 31  1  0
  8 32  1  0
  9 33  1  1
 10 34  1  0
 11 35  1  0
 11 36  1  0
 12 37  1  6
 13 38  1  0
 14 39  1  0
 14 40  1  0
 15 41  1  0
 15 42  1  0
 16 43  1  0
 16 44  1  0
 18 45  1  0
 19 46  1  0
 21 47  1  0
 24 48  1  0
 25 49  1  0
M  END
>  <smiles>  (8) 
O=C(NCC(=O)N1C[C@H](O)C[C@H]1C1CCC1)c1ccc2cc(Cl)ccc2n1

>  <score_type>  (8) 
oracle

>  <origin>  (8) 
autodockgpu

>  <m_score__min__energy>  (8) 
-8.1300000000000008

>  <m_primary>  (8) 
energy

>  <rmsd>  (8) 
3.108642152063093

>  <m_score__min__rmsd>  (8) 
3.108642152063093

>  <meeko>  (8) 
{"free_energy": -7.69, "intermolecular_energy": -9.48, "internal_energy": -1.15, "cluster_size": 23, "cluster_id": 2, "rank_in_cluster": 9}

>  <energy>  (8) 
-7.9

>  <cluster_rmsd>  (8) 
1.08

>  <cluster>  (8) 
2

$$$$

     RDKit          3D

 49 52  0  0  0  0  0  0  0  0999 V2000
  139.6370   71.8220  220.8150 O   0  0  0  0  0  0  0  0  0  0  0  0
  139.7640   72.2820  221.9780 C   0  0  0  0  0  0  0  0  0  0  0  0
  139.7930   73.7150  222.1390 N   0  0  0  0  0  0  0  0  0  0  0  0
  139.6690   74.4870  220.9210 C   0  0  0  0  0  0  0  0  0  0  0  0
  140.8770   74.4520  220.1000 C   0  0  0  0  0  0  0  0  0  0  0  0
  141.2290   75.5230  219.5130 O   0  0  0  0  0  0  0  0  0  0  0  0
  141.7020   73.3150  219.8940 N   0  0  0  0  0  0  0  0  0  0  0  0
  141.3890   72.3300  218.8530 C   0  0  0  0  0  0  0  0  0  0  0  0
  142.2290   71.1270  219.0760 C   0  0  2  0  0  0  0  0  0  0  0  0
  141.4420   69.9490  219.0860 O   0  0  0  0  0  0  0  0  0  0  0  0
  142.8530   71.3230  220.4130 C   0  0  0  0  0  0  0  0  0  0  0  0
  142.8820   72.8510  220.5300 C   0  0  1  0  0  0  0  0  0  0  0  0
  144.1830   73.2940  220.0030 C   0  0  0  0  0  0  0  0  0  0  0  0
  145.0740   74.1520  220.8410 C   0  0  0  0  0  0  0  0  0  0  0  0
  146.2250   73.5430  220.0150 C   0  0  0  0  0  0  0  0  0  0  0  0
  145.3310   72.2910  219.9820 C   0  0  0  0  0  0  0  0  0  0  0  0
  139.8830   71.4400  223.1640 C   0  0  0  0  0  0  0  0  0  0  0  0
  139.4200   70.1270  223.0450 C   0  0  0  0  0  0  0  0  0  0  0  0
  139.4890   69.2630  224.0990 C   0  0  0  0  0  0  0  0  0  0  0  0
  140.0160   69.6960  225.2800 C   0  0  0  0  0  0  0  0  0  0  0  0
  140.1000   68.8560  226.3620 C   0  0  0  0  0  0  0  0  0  0  0  0
  140.6270   69.2660  227.5630 C   0  0  0  0  0  0  0  0  0  0  0  0
  140.7190   68.1630  228.9260 Cl  0  0  0  0  0  0  0  0  0  0  0  0
  141.0750   70.5730  227.6440 C   0  0  0  0  0  0  0  0  0  0  0  0
  140.9940   71.4360  226.5520 C   0  0  0  0  0  0  0  0  0  0  0  0
  140.4630   71.0070  225.3540 C   0  0  0  0  0  0  0  0  0  0  0  0
  140.3950   71.8560  224.3150 N   0  0  0  0  0  0  0  0  0  0  0  0
  139.8960   74.1220  223.0870 H   0  0  0  0  0  0  0  0  0  0  0  0
  138.8327   74.0819  220.3323 H   0  0  0  0  0  0  0  0  0  0  0  0
  139.4968   75.5342  221.2102 H   0  0  0  0  0  0  0  0  0  0  0  0
  140.3253   72.0556  218.9094 H   0  0  0  0  0  0  0  0  0  0  0  0
  141.5938   72.7539  217.8588 H   0  0  0  0  0  0  0  0  0  0  0  0
  142.9739   71.0095  218.2751 H   0  0  0  0  0  0  0  0  0  0  0  0
  140.6360   70.1790  219.6190 H   0  0  0  0  0  0  0  0  0  0  0  0
  142.2420   70.8727  221.2092 H   0  0  0  0  0  0  0  0  0  0  0  0
  143.8416   70.8515  220.5145 H   0  0  0  0  0  0  0  0  0  0  0  0
  142.8440   73.2748  221.5444 H   0  0  0  0  0  0  0  0  0  0  0  0
  143.7124   73.6828  219.0879 H   0  0  0  0  0  0  0  0  0  0  0  0
  144.9316   75.2355  220.7159 H   0  0  0  0  0  0  0  0  0  0  0  0
  145.0553   74.1376  221.9407 H   0  0  0  0  0  0  0  0  0  0  0  0
  146.4074   74.0176  219.0396 H   0  0  0  0  0  0  0  0  0  0  0  0
  147.2724   73.5315  220.3509 H   0  0  0  0  0  0  0  0  0  0  0  0
  145.4073   71.6822  219.0690 H   0  0  0  0  0  0  0  0  0  0  0  0
  145.4236   71.4623  220.6994 H   0  0  0  0  0  0  0  0  0  0  0  0
  138.9946   69.7856  222.0898 H   0  0  0  0  0  0  0  0  0  0  0  0
  139.1241   68.2303  223.9973 H   0  0  0  0  0  0  0  0  0  0  0  0
  139.7344   67.8231  226.2649 H   0  0  0  0  0  0  0  0  0  0  0  0
  141.5036   70.9382  228.5889 H   0  0  0  0  0  0  0  0  0  0  0  0
  141.3575   72.4698  226.6471 H   0  0  0  0  0  0  0  0  0  0  0  0
  1  2  2  0
  2  3  1  0
  3  4  1  0
  4  5  1  0
  5  6  2  0
  5  7  1  0
  7  8  1  0
  8  9  1  0
  9 10  1  0
  9 11  1  0
 11 12  1  0
 12 13  1  0
 13 14  1  0
 14 15  1  0
 15 16  1  0
  2 17  1  0
 17 18  2  0
 18 19  1  0
 19 20  2  0
 20 21  1  0
 21 22  2  0
 22 23  1  0
 22 24  1  0
 24 25  2  0
 25 26  1  0
 26 27  2  0
 12  7  1  0
 16 13  1  0
 27 17  1  0
 26 20  1  0
  3 28  1  0
  4 29  1  0
  4 30  1  0
  8 31  1  0
  8 32  1  0
  9 33  1  6
 10 34  1  0
 11 35  1  0
 11 36  1  0
 12 37  1  1
 13 38  1  0
 14 39  1  0
 14 40  1  0
 15 41  1  0
 15 42  1  0
 16 43  1  0
 16 44  1  0
 18 45  1  0
 19 46  1  0
 21 47  1  0
 24 48  1  0
 25 49  1  0
M  END
>  <smiles>  (9) 
O=C(NCC(=O)N1C[C@H](O)C[C@H]1C1CCC1)c1ccc2cc(Cl)ccc2n1

>  <score_type>  (9) 
oracle

>  <origin>  (9) 
autodockgpu

>  <m_score__min__energy>  (9) 
-8.1300000000000008

>  <m_primary>  (9) 
energy

>  <rmsd>  (9) 
3.1702963961167585

>  <m_score__min__rmsd>  (9) 
3.1702963961167585

>  <meeko>  (9) 
{"free_energy": -6.37, "intermolecular_energy": -8.16, "internal_energy": -2.21, "cluster_size": 13, "cluster_id": 3, "rank_in_cluster": 12}

>  <energy>  (9) 
-7.88

>  <cluster_rmsd>  (9) 
1.09

>  <cluster>  (9) 
2

$$$$

     RDKit          3D

 49 52  0  0  0  0  0  0  0  0999 V2000
  141.0680   72.7180  221.2460 O   0  0  0  0  0  0  0  0  0  0  0  0
  140.2810   72.8180  222.2220 C   0  0  0  0  0  0  0  0  0  0  0  0
  139.3440   73.9140  222.2260 N   0  0  0  0  0  0  0  0  0  0  0  0
  139.4080   74.8000  221.0830 C   0  0  0  0  0  0  0  0  0  0  0  0
  140.3790   75.8780  221.2540 C   0  0  0  0  0  0  0  0  0  0  0  0
  141.6010   75.6210  221.0150 O   0  0  0  0  0  0  0  0  0  0  0  0
  140.0780   77.2010  221.6710 N   0  0  0  0  0  0  0  0  0  0  0  0
  139.0450   77.4630  222.6790 C   0  0  0  0  0  0  0  0  0  0  0  0
  138.7470   78.9170  222.6810 C   0  0  2  0  0  0  0  0  0  0  0  0
  137.3540   79.1530  222.5770 O   0  0  0  0  0  0  0  0  0  0  0  0
  139.4390   79.4640  221.4830 C   0  0  0  0  0  0  0  0  0  0  0  0
  140.5920   78.4700  221.2980 C   0  0  1  0  0  0  0  0  0  0  0  0
  141.7410   79.0080  222.0450 C   0  0  0  0  0  0  0  0  0  0  0  0
  141.7850   80.4590  222.4010 C   0  0  0  0  0  0  0  0  0  0  0  0
  142.6770   80.0130  223.5770 C   0  0  0  0  0  0  0  0  0  0  0  0
  141.8150   78.7390  223.5440 C   0  0  0  0  0  0  0  0  0  0  0  0
  140.2720   71.8830  223.3430 C   0  0  0  0  0  0  0  0  0  0  0  0
  139.7630   70.6080  223.0860 C   0  0  0  0  0  0  0  0  0  0  0  0
  139.7120   69.6640  224.0700 C   0  0  0  0  0  0  0  0  0  0  0  0
  140.1660   69.9790  225.3180 C   0  0  0  0  0  0  0  0  0  0  0  0
  140.1300   69.0570  226.3330 C   0  0  0  0  0  0  0  0  0  0  0  0
  140.5790   69.3470  227.5980 C   0  0  0  0  0  0  0  0  0  0  0  0
  140.5180   68.1410  228.8720 Cl  0  0  0  0  0  0  0  0  0  0  0  0
  141.0760   70.6210  227.8150 C   0  0  0  0  0  0  0  0  0  0  0  0
  141.1170   71.5680  226.7930 C   0  0  0  0  0  0  0  0  0  0  0  0
  140.6610   71.2570  225.5280 C   0  0  0  0  0  0  0  0  0  0  0  0
  140.7110   72.1850  224.5580 N   0  0  0  0  0  0  0  0  0  0  0  0
  138.6820   74.0200  223.0170 H   0  0  0  0  0  0  0  0  0  0  0  0
  139.6894   74.2111  220.1976 H   0  0  0  0  0  0  0  0  0  0  0  0
  138.4169   75.2631  220.9680 H   0  0  0  0  0  0  0  0  0  0  0  0
  138.1341   76.8979  222.4323 H   0  0  0  0  0  0  0  0  0  0  0  0
  139.3993   77.1495  223.6721 H   0  0  0  0  0  0  0  0  0  0  0  0
  139.0839   79.3898  223.6153 H   0  0  0  0  0  0  0  0  0  0  0  0
  137.2610   79.8570  221.8820 H   0  0  0  0  0  0  0  0  0  0  0  0
  138.7742   79.4723  220.6067 H   0  0  0  0  0  0  0  0  0  0  0  0
  139.7677   80.5073  221.5989 H   0  0  0  0  0  0  0  0  0  0  0  0
  140.9748   78.3331  220.2759 H   0  0  0  0  0  0  0  0  0  0  0  0
  142.4502   78.5750  221.3242 H   0  0  0  0  0  0  0  0  0  0  0  0
  142.2773   81.1069  221.6608 H   0  0  0  0  0  0  0  0  0  0  0  0
  140.8794   81.0687  222.5359 H   0  0  0  0  0  0  0  0  0  0  0  0
  143.7401   79.8691  223.3339 H   0  0  0  0  0  0  0  0  0  0  0  0
  142.8324   80.6168  224.4833 H   0  0  0  0  0  0  0  0  0  0  0  0
  142.3338   77.8123  223.8307 H   0  0  0  0  0  0  0  0  0  0  0  0
  140.9273   78.5927  224.1769 H   0  0  0  0  0  0  0  0  0  0  0  0
  139.3987   70.3617  222.0777 H   0  0  0  0  0  0  0  0  0  0  0  0
  139.3101   68.6618  223.8601 H   0  0  0  0  0  0  0  0  0  0  0  0
  139.7288   68.0537  226.1272 H   0  0  0  0  0  0  0  0  0  0  0  0
  141.4463   70.8915  228.8149 H   0  0  0  0  0  0  0  0  0  0  0  0
  141.5165   72.5725  226.9966 H   0  0  0  0  0  0  0  0  0  0  0  0
  1  2  2  0
  2  3  1  0
  3  4  1  0
  4  5  1  0
  5  6  2  0
  5  7  1  0
  7  8  1  0
  8  9  1  0
  9 10  1  0
  9 11  1  0
 11 12  1  0
 12 13  1  0
 13 14  1  0
 14 15  1  0
 15 16  1  0
  2 17  1  0
 17 18  2  0
 18 19  1  0
 19 20  2  0
 20 21  1  0
 21 22  2  0
 22 23  1  0
 22 24  1  0
 24 25  2  0
 25 26  1  0
 26 27  2  0
 12  7  1  0
 16 13  1  0
 27 17  1  0
 26 20  1  0
  3 28  1  0
  4 29  1  0
  4 30  1  0
  8 31  1  0
  8 32  1  0
  9 33  1  1
 10 34  1  0
 11 35  1  0
 11 36  1  0
 12 37  1  6
 13 38  1  0
 14 39  1  0
 14 40  1  0
 15 41  1  0
 15 42  1  0
 16 43  1  0
 16 44  1  0
 18 45  1  0
 19 46  1  0
 21 47  1  0
 24 48  1  0
 25 49  1  0
M  END
>  <smiles>  (10) 
O=C(NCC(=O)N1C[C@H](O)C[C@H]1C1CCC1)c1ccc2cc(Cl)ccc2n1

>  <score_type>  (10) 
oracle

>  <origin>  (10) 
autodockgpu

>  <m_score__min__energy>  (10) 
-8.1300000000000008

>  <m_primary>  (10) 
energy

>  <rmsd>  (10) 
2.883887491593518

>  <m_score__min__rmsd>  (10) 
2.883887491593518

>  <meeko>  (10) 
{"free_energy": -7.77, "intermolecular_energy": -9.56, "internal_energy": -1.03, "cluster_size": 23, "cluster_id": 2, "rank_in_cluster": 6}

>  <energy>  (10) 
-7.82

>  <cluster_rmsd>  (10) 
1.78

>  <cluster>  (10) 
2

$$$$

     RDKit          3D

 49 52  0  0  0  0  0  0  0  0999 V2000
  140.9400   71.5290  221.2640 O   0  0  0  0  0  0  0  0  0  0  0  0
  140.3660   72.4750  221.8620 C   0  0  0  0  0  0  0  0  0  0  0  0
  139.3360   72.1460  222.8160 N   0  0  0  0  0  0  0  0  0  0  0  0
  139.0660   70.7340  222.9880 C   0  0  0  0  0  0  0  0  0  0  0  0
  138.5550   70.4110  224.3180 C   0  0  0  0  0  0  0  0  0  0  0  0
  137.3580   70.7430  224.5910 O   0  0  0  0  0  0  0  0  0  0  0  0
  139.2820   69.7560  225.3450 N   0  0  0  0  0  0  0  0  0  0  0  0
  139.9600   68.4790  225.0990 C   0  0  0  0  0  0  0  0  0  0  0  0
  140.3630   67.9000  226.4050 C   0  0  2  0  0  0  0  0  0  0  0  0
  139.9310   66.5560  226.5240 O   0  0  0  0  0  0  0  0  0  0  0  0
  139.6850   68.7360  227.4330 C   0  0  0  0  0  0  0  0  0  0  0  0
  139.5320   70.0760  226.7050 C   0  0  1  0  0  0  0  0  0  0  0  0
  140.7250   70.8760  227.0290 C   0  0  0  0  0  0  0  0  0  0  0  0
  141.2500   71.8660  226.0400 C   0  0  0  0  0  0  0  0  0  0  0  0
  141.8150   72.6040  227.2700 C   0  0  0  0  0  0  0  0  0  0  0  0
  140.5640   72.0580  227.9790 C   0  0  0  0  0  0  0  0  0  0  0  0
  140.6910   73.8800  221.6380 C   0  0  0  0  0  0  0  0  0  0  0  0
  141.6980   74.1450  220.7050 C   0  0  0  0  0  0  0  0  0  0  0  0
  142.0730   75.4270  220.4260 C   0  0  0  0  0  0  0  0  0  0  0  0
  141.4520   76.4560  221.0730 C   0  0  0  0  0  0  0  0  0  0  0  0
  141.8040   77.7580  220.8190 C   0  0  0  0  0  0  0  0  0  0  0  0
  141.1960   78.8130  221.4550 C   0  0  0  0  0  0  0  0  0  0  0  0
  141.6710   80.4670  221.1050 Cl  0  0  0  0  0  0  0  0  0  0  0  0
  140.2040   78.5130  222.3730 C   0  0  0  0  0  0  0  0  0  0  0  0
  139.8390   77.1940  222.6400 C   0  0  0  0  0  0  0  0  0  0  0  0
  140.4610   76.1480  221.9910 C   0  0  0  0  0  0  0  0  0  0  0  0
  140.0920   74.8840  222.2640 N   0  0  0  0  0  0  0  0  0  0  0  0
  138.8460   72.9050  223.3250 H   0  0  0  0  0  0  0  0  0  0  0  0
  138.3198   70.4257  222.2409 H   0  0  0  0  0  0  0  0  0  0  0  0
  140.0181   70.1979  222.8609 H   0  0  0  0  0  0  0  0  0  0  0  0
  139.2761   67.7893  224.5826 H   0  0  0  0  0  0  0  0  0  0  0  0
  140.8468   68.6387  224.4680 H   0  0  0  0  0  0  0  0  0  0  0  0
  141.4573   67.8967  226.5165 H   0  0  0  0  0  0  0  0  0  0  0  0
  139.2480   66.5650  227.2440 H   0  0  0  0  0  0  0  0  0  0  0  0
  138.7059   68.3162  227.7071 H   0  0  0  0  0  0  0  0  0  0  0  0
  140.2379   68.8074  228.3812 H   0  0  0  0  0  0  0  0  0  0  0  0
  138.6892   70.7150  227.0072 H   0  0  0  0  0  0  0  0  0  0  0  0
  141.2954   69.9725  227.2905 H   0  0  0  0  0  0  0  0  0  0  0  0
  142.0051   71.4742  225.3427 H   0  0  0  0  0  0  0  0  0  0  0  0
  140.6124   72.3565  225.2898 H   0  0  0  0  0  0  0  0  0  0  0  0
  142.7750   72.2227  227.6483 H   0  0  0  0  0  0  0  0  0  0  0  0
  142.0920   73.6685  227.2637 H   0  0  0  0  0  0  0  0  0  0  0  0
  140.6922   71.8247  229.0463 H   0  0  0  0  0  0  0  0  0  0  0  0
  139.6292   72.6287  228.0816 H   0  0  0  0  0  0  0  0  0  0  0  0
  142.1942   73.3096  220.1894 H   0  0  0  0  0  0  0  0  0  0  0  0
  142.8650   75.6285  219.6897 H   0  0  0  0  0  0  0  0  0  0  0  0
  142.5966   77.9629  220.0843 H   0  0  0  0  0  0  0  0  0  0  0  0
  139.6937   79.3313  222.9022 H   0  0  0  0  0  0  0  0  0  0  0  0
  139.0476   76.9858  223.3751 H   0  0  0  0  0  0  0  0  0  0  0  0
  1  2  2  0
  2  3  1  0
  3  4  1  0
  4  5  1  0
  5  6  2  0
  5  7  1  0
  7  8  1  0
  8  9  1  0
  9 10  1  0
  9 11  1  0
 11 12  1  0
 12 13  1  0
 13 14  1  0
 14 15  1  0
 15 16  1  0
  2 17  1  0
 17 18  2  0
 18 19  1  0
 19 20  2  0
 20 21  1  0
 21 22  2  0
 22 23  1  0
 22 24  1  0
 24 25  2  0
 25 26  1  0
 26 27  2  0
 12  7  1  0
 16 13  1  0
 27 17  1  0
 26 20  1  0
  3 28  1  0
  4 29  1  0
  4 30  1  0
  8 31  1  0
  8 32  1  0
  9 33  1  1
 10 34  1  0
 11 35  1  0
 11 36  1  0
 12 37  1  1
 13 38  1  0
 14 39  1  0
 14 40  1  0
 15 41  1  0
 15 42  1  0
 16 43  1  0
 16 44  1  0
 18 45  1  0
 19 46  1  0
 21 47  1  0
 24 48  1  0
 25 49  1  0
M  END
>  <smiles>  (11) 
O=C(NCC(=O)N1C[C@H](O)C[C@H]1C1CCC1)c1ccc2cc(Cl)ccc2n1

>  <score_type>  (11) 
oracle

>  <origin>  (11) 
autodockgpu

>  <m_score__min__energy>  (11) 
-8.1300000000000008

>  <m_primary>  (11) 
energy

>  <rmsd>  (11) 
8.53154186944614

>  <m_score__min__rmsd>  (11) 
8.53154186944614

>  <meeko>  (11) 
{"free_energy": -8.13, "intermolecular_energy": -9.92, "internal_energy": -1.57, "cluster_size": 5, "cluster_id": 1, "rank_in_cluster": 1}

>  <energy>  (11) 
-7.77

>  <cluster_rmsd>  (11) 
1.69

>  <cluster>  (11) 
2

$$$$

     RDKit          3D

 49 52  0  0  0  0  0  0  0  0999 V2000
  136.5780   75.1230  220.8220 O   0  0  0  0  0  0  0  0  0  0  0  0
  137.4780   74.9210  221.6770 C   0  0  0  0  0  0  0  0  0  0  0  0
  137.5080   73.6400  222.3370 N   0  0  0  0  0  0  0  0  0  0  0  0
  136.4800   72.7020  221.9380 C   0  0  0  0  0  0  0  0  0  0  0  0
  135.1560   73.0620  222.4400 C   0  0  0  0  0  0  0  0  0  0  0  0
  134.1580   72.4050  222.0070 O   0  0  0  0  0  0  0  0  0  0  0  0
  134.8810   74.0930  223.3750 N   0  0  0  0  0  0  0  0  0  0  0  0
  134.5510   75.4520  222.9310 C   0  0  0  0  0  0  0  0  0  0  0  0
  134.6180   76.3600  224.1030 C   0  0  2  0  0  0  0  0  0  0  0  0
  135.4220   77.4930  223.8270 O   0  0  0  0  0  0  0  0  0  0  0  0
  135.2410   75.5560  225.1900 C   0  0  0  0  0  0  0  0  0  0  0  0
  134.8520   74.1270  224.7930 C   0  0  1  0  0  0  0  0  0  0  0  0
  133.5830   73.8260  225.4760 C   0  0  0  0  0  0  0  0  0  0  0  0
  133.5190   72.7160  226.4740 C   0  0  0  0  0  0  0  0  0  0  0  0
  132.3540   73.5120  227.0960 C   0  0  0  0  0  0  0  0  0  0  0  0
  133.1410   74.7420  226.6120 C   0  0  0  0  0  0  0  0  0  0  0  0
  138.4860   75.9160  222.0300 C   0  0  0  0  0  0  0  0  0  0  0  0
  139.8190   75.5500  221.8280 C   0  0  0  0  0  0  0  0  0  0  0  0
  140.8340   76.4120  222.1280 C   0  0  0  0  0  0  0  0  0  0  0  0
  140.5320   77.6440  222.6320 C   0  0  0  0  0  0  0  0  0  0  0  0
  141.5260   78.5360  222.9460 C   0  0  0  0  0  0  0  0  0  0  0  0
  141.2520   79.7820  223.4550 C   0  0  0  0  0  0  0  0  0  0  0  0
  142.5490   80.8990  223.8450 Cl  0  0  0  0  0  0  0  0  0  0  0  0
  139.9190   80.1100  223.6420 C   0  0  0  0  0  0  0  0  0  0  0  0
  138.9010   79.2110  223.3270 C   0  0  0  0  0  0  0  0  0  0  0  0
  139.1970   77.9640  222.8170 C   0  0  0  0  0  0  0  0  0  0  0  0
  138.1980   77.1150  222.5210 N   0  0  0  0  0  0  0  0  0  0  0  0
  138.2400   73.4450  223.0460 H   0  0  0  0  0  0  0  0  0  0  0  0
  136.4418   72.6695  220.8391 H   0  0  0  0  0  0  0  0  0  0  0  0
  136.7411   71.7236  222.3676 H   0  0  0  0  0  0  0  0  0  0  0  0
  135.2723   75.7782  222.1673 H   0  0  0  0  0  0  0  0  0  0  0  0
  133.5406   75.4715  222.4966 H   0  0  0  0  0  0  0  0  0  0  0  0
  133.6192   76.7336  224.3730 H   0  0  0  0  0  0  0  0  0  0  0  0
  136.1810   77.1470  223.2880 H   0  0  0  0  0  0  0  0  0  0  0  0
  136.3335   75.6832  225.2052 H   0  0  0  0  0  0  0  0  0  0  0  0
  134.9089   75.8418  226.1990 H   0  0  0  0  0  0  0  0  0  0  0  0
  135.5272   73.3188  225.1108 H   0  0  0  0  0  0  0  0  0  0  0  0
  133.0481   73.7631  224.5168 H   0  0  0  0  0  0  0  0  0  0  0  0
  133.2459   71.7331  226.0625 H   0  0  0  0  0  0  0  0  0  0  0  0
  134.3923   72.3837  227.0545 H   0  0  0  0  0  0  0  0  0  0  0  0
  131.3739   73.3624  226.6196 H   0  0  0  0  0  0  0  0  0  0  0  0
  132.0149   73.3791  228.1339 H   0  0  0  0  0  0  0  0  0  0  0  0
  132.5279   75.6039  226.3100 H   0  0  0  0  0  0  0  0  0  0  0  0
  133.8444   75.2988  227.2485 H   0  0  0  0  0  0  0  0  0  0  0  0
  140.0536   74.5549  221.4222 H   0  0  0  0  0  0  0  0  0  0  0  0
  141.8814   76.1177  221.9657 H   0  0  0  0  0  0  0  0  0  0  0  0
  142.5744   78.2444  222.7852 H   0  0  0  0  0  0  0  0  0  0  0  0
  139.6587   81.0991  224.0469 H   0  0  0  0  0  0  0  0  0  0  0  0
  137.8514   79.4989  223.4867 H   0  0  0  0  0  0  0  0  0  0  0  0
  1  2  2  0
  2  3  1  0
  3  4  1  0
  4  5  1  0
  5  6  2  0
  5  7  1  0
  7  8  1  0
  8  9  1  0
  9 10  1  0
  9 11  1  0
 11 12  1  0
 12 13  1  0
 13 14  1  0
 14 15  1  0
 15 16  1  0
  2 17  1  0
 17 18  2  0
 18 19  1  0
 19 20  2  0
 20 21  1  0
 21 22  2  0
 22 23  1  0
 22 24  1  0
 24 25  2  0
 25 26  1  0
 26 27  2  0
 12  7  1  0
 16 13  1  0
 27 17  1  0
 26 20  1  0
  3 28  1  0
  4 29  1  0
  4 30  1  0
  8 31  1  0
  8 32  1  0
  9 33  1  1
 10 34  1  0
 11 35  1  0
 11 36  1  0
 12 37  1  1
 13 38  1  0
 14 39  1  0
 14 40  1  0
 15 41  1  0
 15 42  1  0
 16 43  1  0
 16 44  1  0
 18 45  1  0
 19 46  1  0
 21 47  1  0
 24 48  1  0
 25 49  1  0
M  END
>  <smiles>  (12) 
O=C(NCC(=O)N1C[C@H](O)C[C@H]1C1CCC1)c1ccc2cc(Cl)ccc2n1

>  <score_type>  (12) 
oracle

>  <origin>  (12) 
autodockgpu

>  <m_score__min__energy>  (12) 
-8.1300000000000008

>  <m_primary>  (12) 
energy

>  <rmsd>  (12) 
7.748132960432751

>  <m_score__min__rmsd>  (12) 
7.748132960432751

>  <meeko>  (12) 
{"free_energy": -5.79, "intermolecular_energy": -7.58, "internal_energy": -2.3, "cluster_size": 1, "cluster_id": 6, "rank_in_cluster": 1}

>  <energy>  (12) 
-7.72

>  <cluster_rmsd>  (12) 
0.94

>  <cluster>  (12) 
2

$$$$

     RDKit          3D

 49 52  0  0  0  0  0  0  0  0999 V2000
  140.0750   72.5220  220.8400 O   0  0  0  0  0  0  0  0  0  0  0  0
  139.8920   72.8570  222.0380 C   0  0  0  0  0  0  0  0  0  0  0  0
  139.5750   74.2360  222.3150 N   0  0  0  0  0  0  0  0  0  0  0  0
  139.4970   75.1070  221.1610 C   0  0  0  0  0  0  0  0  0  0  0  0
  140.7000   75.9150  220.9760 C   0  0  0  0  0  0  0  0  0  0  0  0
  141.8260   75.3590  221.1810 O   0  0  0  0  0  0  0  0  0  0  0  0
  140.7260   77.2790  220.5880 N   0  0  0  0  0  0  0  0  0  0  0  0
  139.6650   77.8510  219.7530 C   0  0  0  0  0  0  0  0  0  0  0  0
  140.1130   79.1800  219.2660 C   0  0  2  0  0  0  0  0  0  0  0  0
  139.9610   79.2870  217.8620 O   0  0  0  0  0  0  0  0  0  0  0  0
  141.5550   79.2650  219.6220 C   0  0  0  0  0  0  0  0  0  0  0  0
  141.6400   78.3360  220.8390 C   0  0  1  0  0  0  0  0  0  0  0  0
  141.4310   79.1750  222.0300 C   0  0  0  0  0  0  0  0  0  0  0  0
  141.5540   78.5770  223.3940 C   0  0  0  0  0  0  0  0  0  0  0  0
  141.9190   80.0040  223.8480 C   0  0  0  0  0  0  0  0  0  0  0  0
  142.5510   80.1210  222.4500 C   0  0  0  0  0  0  0  0  0  0  0  0
  139.9860   71.9220  223.1550 C   0  0  0  0  0  0  0  0  0  0  0  0
  139.5300   70.6220  222.9190 C   0  0  0  0  0  0  0  0  0  0  0  0
  139.5770   69.6750  223.9010 C   0  0  0  0  0  0  0  0  0  0  0  0
  140.0760   70.0120  225.1250 C   0  0  0  0  0  0  0  0  0  0  0  0
  140.1370   69.0870  226.1370 C   0  0  0  0  0  0  0  0  0  0  0  0
  140.6340   69.3990  227.3790 C   0  0  0  0  0  0  0  0  0  0  0  0
  140.6980   68.1890  228.6500 Cl  0  0  0  0  0  0  0  0  0  0  0  0
  141.0770   70.6960  227.5760 C   0  0  0  0  0  0  0  0  0  0  0  0
  141.0180   71.6440  226.5570 C   0  0  0  0  0  0  0  0  0  0  0  0
  140.5160   71.3120  225.3160 C   0  0  0  0  0  0  0  0  0  0  0  0
  140.4700   72.2440  224.3470 N   0  0  0  0  0  0  0  0  0  0  0  0
  139.4180   74.5400  223.2930 H   0  0  0  0  0  0  0  0  0  0  0  0
  139.3484   74.4883  220.2637 H   0  0  0  0  0  0  0  0  0  0  0  0
  138.6572   75.7982  221.3254 H   0  0  0  0  0  0  0  0  0  0  0  0
  139.4692   77.1888  218.8967 H   0  0  0  0  0  0  0  0  0  0  0  0
  138.7402   77.9567  220.3391 H   0  0  0  0  0  0  0  0  0  0  0  0
  139.5187   79.9890  219.7159 H   0  0  0  0  0  0  0  0  0  0  0  0
  139.5260   78.4400  217.5820 H   0  0  0  0  0  0  0  0  0  0  0  0
  142.1912   78.9054  218.7998 H   0  0  0  0  0  0  0  0  0  0  0  0
  141.9022   80.2895  219.8218 H   0  0  0  0  0  0  0  0  0  0  0  0
  142.6049   77.8412  221.0239 H   0  0  0  0  0  0  0  0  0  0  0  0
  140.4623   79.5286  221.6471 H   0  0  0  0  0  0  0  0  0  0  0  0
  140.6195   78.1775  223.8149 H   0  0  0  0  0  0  0  0  0  0  0  0
  142.1855   77.7021  223.6080 H   0  0  0  0  0  0  0  0  0  0  0  0
  141.0650   80.6713  224.0362 H   0  0  0  0  0  0  0  0  0  0  0  0
  142.4624   80.2233  224.7789 H   0  0  0  0  0  0  0  0  0  0  0  0
  142.5141   81.1237  221.9992 H   0  0  0  0  0  0  0  0  0  0  0  0
  143.6148   79.9268  222.2484 H   0  0  0  0  0  0  0  0  0  0  0  0
  139.1282   70.3587  221.9294 H   0  0  0  0  0  0  0  0  0  0  0  0
  139.2172   68.6536  223.7079 H   0  0  0  0  0  0  0  0  0  0  0  0
  139.7770   68.0649  225.9478 H   0  0  0  0  0  0  0  0  0  0  0  0
  141.4836   70.9835  228.5568 H   0  0  0  0  0  0  0  0  0  0  0  0
  141.3753   72.6674  226.7439 H   0  0  0  0  0  0  0  0  0  0  0  0
  1  2  2  0
  2  3  1  0
  3  4  1  0
  4  5  1  0
  5  6  2  0
  5  7  1  0
  7  8  1  0
  8  9  1  0
  9 10  1  0
  9 11  1  0
 11 12  1  0
 12 13  1  0
 13 14  1  0
 14 15  1  0
 15 16  1  0
  2 17  1  0
 17 18  2  0
 18 19  1  0
 19 20  2  0
 20 21  1  0
 21 22  2  0
 22 23  1  0
 22 24  1  0
 24 25  2  0
 25 26  1  0
 26 27  2  0
 12  7  1  0
 16 13  1  0
 27 17  1  0
 26 20  1  0
  3 28  1  0
  4 29  1  0
  4 30  1  0
  8 31  1  0
  8 32  1  0
  9 33  1  1
 10 34  1  0
 11 35  1  0
 11 36  1  0
 12 37  1  1
 13 38  1  0
 14 39  1  0
 14 40  1  0
 15 41  1  0
 15 42  1  0
 16 43  1  0
 16 44  1  0
 18 45  1  0
 19 46  1  0
 21 47  1  0
 24 48  1  0
 25 49  1  0
M  END
>  <smiles>  (13) 
O=C(NCC(=O)N1C[C@H](O)C[C@H]1C1CCC1)c1ccc2cc(Cl)ccc2n1

>  <score_type>  (13) 
oracle

>  <origin>  (13) 
autodockgpu

>  <m_score__min__energy>  (13) 
-8.1300000000000008

>  <m_primary>  (13) 
energy

>  <rmsd>  (13) 
2.1083251007464026

>  <m_score__min__rmsd>  (13) 
2.1083251007464026

>  <meeko>  (13) 
{"free_energy": -7.5, "intermolecular_energy": -9.29, "internal_energy": -1.24, "cluster_size": 23, "cluster_id": 2, "rank_in_cluster": 13}

>  <energy>  (13) 
-7.71

>  <cluster_rmsd>  (13) 
0.39

>  <cluster>  (13) 
2

$$$$

     RDKit          3D

 49 52  0  0  0  0  0  0  0  0999 V2000
  140.5410   72.4510  220.7170 O   0  0  0  0  0  0  0  0  0  0  0  0
  140.2020   72.8220  221.8690 C   0  0  0  0  0  0  0  0  0  0  0  0
  139.8140   74.2000  222.0500 N   0  0  0  0  0  0  0  0  0  0  0  0
  139.8570   75.0260  220.8620 C   0  0  0  0  0  0  0  0  0  0  0  0
  140.9450   75.9990  220.8850 C   0  0  0  0  0  0  0  0  0  0  0  0
  142.0340   75.6870  220.3070 O   0  0  0  0  0  0  0  0  0  0  0  0
  140.8980   77.2750  221.5030 N   0  0  0  0  0  0  0  0  0  0  0  0
  141.5100   78.4490  220.8700 C   0  0  0  0  0  0  0  0  0  0  0  0
  141.5720   79.5450  221.8690 C   0  0  2  0  0  0  0  0  0  0  0  0
  142.8750   80.0950  221.9440 O   0  0  0  0  0  0  0  0  0  0  0  0
  141.2190   78.9130  223.1700 C   0  0  0  0  0  0  0  0  0  0  0  0
  140.3450   77.7350  222.7260 C   0  0  1  0  0  0  0  0  0  0  0  0
  138.9530   78.2130  222.7300 C   0  0  0  0  0  0  0  0  0  0  0  0
  138.3540   78.7720  221.4800 C   0  0  0  0  0  0  0  0  0  0  0  0
  137.0050   78.3190  222.0740 C   0  0  0  0  0  0  0  0  0  0  0  0
  137.8350   77.1760  222.6840 C   0  0  0  0  0  0  0  0  0  0  0  0
  140.1820   71.9320  223.0260 C   0  0  0  0  0  0  0  0  0  0  0  0
  139.6230   70.6660  222.8270 C   0  0  0  0  0  0  0  0  0  0  0  0
  139.5590   69.7620  223.8470 C   0  0  0  0  0  0  0  0  0  0  0  0
  140.0490   70.1070  225.0730 C   0  0  0  0  0  0  0  0  0  0  0  0
  140.0010   69.2250  226.1220 C   0  0  0  0  0  0  0  0  0  0  0  0
  140.4870   69.5460  227.3660 C   0  0  0  0  0  0  0  0  0  0  0  0
  140.4100   68.3910  228.6870 Cl  0  0  0  0  0  0  0  0  0  0  0  0
  141.0340   70.8080  227.5260 C   0  0  0  0  0  0  0  0  0  0  0  0
  141.0870   71.7140  226.4680 C   0  0  0  0  0  0  0  0  0  0  0  0
  140.5940   71.3730  225.2250 C   0  0  0  0  0  0  0  0  0  0  0  0
  140.6570   72.2620  224.2190 N   0  0  0  0  0  0  0  0  0  0  0  0
  139.5290   74.5340  222.9890 H   0  0  0  0  0  0  0  0  0  0  0  0
  139.9879   74.3739  219.9858 H   0  0  0  0  0  0  0  0  0  0  0  0
  138.9126   75.5882  220.8168 H   0  0  0  0  0  0  0  0  0  0  0  0
  142.5258   78.1995  220.5296 H   0  0  0  0  0  0  0  0  0  0  0  0
  140.9116   78.7638  220.0023 H   0  0  0  0  0  0  0  0  0  0  0  0
  140.8919   80.3666  221.5999 H   0  0  0  0  0  0  0  0  0  0  0  0
  143.4860   79.3130  221.9770 H   0  0  0  0  0  0  0  0  0  0  0  0
  142.1169   78.5660  223.7023 H   0  0  0  0  0  0  0  0  0  0  0  0
  140.7192   79.5955  223.8732 H   0  0  0  0  0  0  0  0  0  0  0  0
  140.3286   76.8510  223.3805 H   0  0  0  0  0  0  0  0  0  0  0  0
  139.1425   78.8492  223.6071 H   0  0  0  0  0  0  0  0  0  0  0  0
  138.4671   79.8588  221.3534 H   0  0  0  0  0  0  0  0  0  0  0  0
  138.6914   78.4809  220.4743 H   0  0  0  0  0  0  0  0  0  0  0  0
  136.5529   79.0119  222.7989 H   0  0  0  0  0  0  0  0  0  0  0  0
  136.1004   78.1560  221.4697 H   0  0  0  0  0  0  0  0  0  0  0  0
  137.4887   76.8138  223.6632 H   0  0  0  0  0  0  0  0  0  0  0  0
  137.9446   76.1890  222.2110 H   0  0  0  0  0  0  0  0  0  0  0  0
  139.2299   70.3954  221.8359 H   0  0  0  0  0  0  0  0  0  0  0  0
  139.1180   68.7677  223.6831 H   0  0  0  0  0  0  0  0  0  0  0  0
  139.5598   68.2301  225.9623 H   0  0  0  0  0  0  0  0  0  0  0  0
  141.4347   71.1014  228.5075 H   0  0  0  0  0  0  0  0  0  0  0  0
  141.5260   72.7102  226.6254 H   0  0  0  0  0  0  0  0  0  0  0  0
  1  2  2  0
  2  3  1  0
  3  4  1  0
  4  5  1  0
  5  6  2  0
  5  7  1  0
  7  8  1  0
  8  9  1  0
  9 10  1  0
  9 11  1  0
 11 12  1  0
 12 13  1  0
 13 14  1  0
 14 15  1  0
 15 16  1  0
  2 17  1  0
 17 18  2  0
 18 19  1  0
 19 20  2  0
 20 21  1  0
 21 22  2  0
 22 23  1  0
 22 24  1  0
 24 25  2  0
 25 26  1  0
 26 27  2  0
 12  7  1  0
 16 13  1  0
 27 17  1  0
 26 20  1  0
  3 28  1  0
  4 29  1  0
  4 30  1  0
  8 31  1  0
  8 32  1  0
  9 33  1  6
 10 34  1  0
 11 35  1  0
 11 36  1  0
 12 37  1  1
 13 38  1  0
 14 39  1  0
 14 40  1  0
 15 41  1  0
 15 42  1  0
 16 43  1  0
 16 44  1  0
 18 45  1  0
 19 46  1  0
 21 47  1  0
 24 48  1  0
 25 49  1  0
M  END
>  <smiles>  (14) 
O=C(NCC(=O)N1C[C@H](O)C[C@H]1C1CCC1)c1ccc2cc(Cl)ccc2n1

>  <score_type>  (14) 
oracle

>  <origin>  (14) 
autodockgpu

>  <m_score__min__energy>  (14) 
-8.1300000000000008

>  <m_primary>  (14) 
energy

>  <rmsd>  (14) 
3.1014163768503153

>  <m_score__min__rmsd>  (14) 
3.1014163768503153

>  <meeko>  (14) 
{"free_energy": -7.65, "intermolecular_energy": -9.44, "internal_energy": -1.31, "cluster_size": 23, "cluster_id": 2, "rank_in_cluster": 10}

>  <energy>  (14) 
-7.69

>  <cluster_rmsd>  (14) 
1.61

>  <cluster>  (14) 
2

$$$$

     RDKit          3D

 49 52  0  0  0  0  0  0  0  0999 V2000
  141.7400   72.5550  221.1470 O   0  0  0  0  0  0  0  0  0  0  0  0
  141.0570   73.4330  221.7320 C   0  0  0  0  0  0  0  0  0  0  0  0
  140.0860   72.9970  222.7060 N   0  0  0  0  0  0  0  0  0  0  0  0
  140.0000   71.5670  222.9110 C   0  0  0  0  0  0  0  0  0  0  0  0
  140.3010   71.1700  224.2840 C   0  0  0  0  0  0  0  0  0  0  0  0
  141.0710   71.9200  224.9640 O   0  0  0  0  0  0  0  0  0  0  0  0
  139.8090   70.0090  224.9340 N   0  0  0  0  0  0  0  0  0  0  0  0
  139.9640   69.8260  226.3810 C   0  0  0  0  0  0  0  0  0  0  0  0
  139.6380   68.4170  226.7160 C   0  0  2  0  0  0  0  0  0  0  0  0
  140.6630   67.8280  227.4960 O   0  0  0  0  0  0  0  0  0  0  0  0
  139.5370   67.7140  225.4080 C   0  0  0  0  0  0  0  0  0  0  0  0
  139.1340   68.8530  224.4640 C   0  0  1  0  0  0  0  0  0  0  0  0
  137.6630   68.8690  224.4210 C   0  0  0  0  0  0  0  0  0  0  0  0
  136.9270   70.1610  224.5740 C   0  0  0  0  0  0  0  0  0  0  0  0
  135.8130   69.4770  223.7570 C   0  0  0  0  0  0  0  0  0  0  0  0
  136.9800   68.7540  223.0630 C   0  0  0  0  0  0  0  0  0  0  0  0
  141.1980   74.8630  221.4750 C   0  0  0  0  0  0  0  0  0  0  0  0
  141.9340   75.2220  220.3420 C   0  0  0  0  0  0  0  0  0  0  0  0
  142.1220   76.5330  220.0170 C   0  0  0  0  0  0  0  0  0  0  0  0
  141.5820   77.5000  220.8150 C   0  0  0  0  0  0  0  0  0  0  0  0
  141.7510   78.8290  220.5210 C   0  0  0  0  0  0  0  0  0  0  0  0
  141.2190   79.8220  221.3060 C   0  0  0  0  0  0  0  0  0  0  0  0
  141.4550   81.5140  220.8980 Cl  0  0  0  0  0  0  0  0  0  0  0  0
  140.4970   79.4300  222.4200 C   0  0  0  0  0  0  0  0  0  0  0  0
  140.3190   78.0820  222.7300 C   0  0  0  0  0  0  0  0  0  0  0  0
  140.8610   77.0990  221.9290 C   0  0  0  0  0  0  0  0  0  0  0  0
  140.6760   75.8060  222.2470 N   0  0  0  0  0  0  0  0  0  0  0  0
  139.5090   73.7000  223.2050 H   0  0  0  0  0  0  0  0  0  0  0  0
  138.9792   71.2382  222.6665 H   0  0  0  0  0  0  0  0  0  0  0  0
  140.7497   71.0947  222.2592 H   0  0  0  0  0  0  0  0  0  0  0  0
  141.0012   70.0464  226.6737 H   0  0  0  0  0  0  0  0  0  0  0  0
  139.2899   70.5071  226.9210 H   0  0  0  0  0  0  0  0  0  0  0  0
  138.7100   68.3524  227.3030 H   0  0  0  0  0  0  0  0  0  0  0  0
  140.4530   66.8570  227.5090 H   0  0  0  0  0  0  0  0  0  0  0  0
  140.5019   67.2745  225.1149 H   0  0  0  0  0  0  0  0  0  0  0  0
  138.8313   66.8702  225.4114 H   0  0  0  0  0  0  0  0  0  0  0  0
  139.4337   68.7579  223.4099 H   0  0  0  0  0  0  0  0  0  0  0  0
  137.6033   68.0829  225.1881 H   0  0  0  0  0  0  0  0  0  0  0  0
  136.6545   70.4239  225.6068 H   0  0  0  0  0  0  0  0  0  0  0  0
  137.3614   71.1325  224.2954 H   0  0  0  0  0  0  0  0  0  0  0  0
  135.1348   68.8310  224.3338 H   0  0  0  0  0  0  0  0  0  0  0  0
  135.0332   70.0303  223.2131 H   0  0  0  0  0  0  0  0  0  0  0  0
  136.7660   67.7279  222.7294 H   0  0  0  0  0  0  0  0  0  0  0  0
  137.4361   69.1038  222.1251 H   0  0  0  0  0  0  0  0  0  0  0  0
  142.3670   74.4370  219.7045 H   0  0  0  0  0  0  0  0  0  0  0  0
  142.7014   76.8078  219.1232 H   0  0  0  0  0  0  0  0  0  0  0  0
  142.3307   79.1080  219.6287 H   0  0  0  0  0  0  0  0  0  0  0  0
  140.0550   80.1966  223.0735 H   0  0  0  0  0  0  0  0  0  0  0  0
  139.7406   77.8001  223.6222 H   0  0  0  0  0  0  0  0  0  0  0  0
  1  2  2  0
  2  3  1  0
  3  4  1  0
  4  5  1  0
  5  6  2  0
  5  7  1  0
  7  8  1  0
  8  9  1  0
  9 10  1  0
  9 11  1  0
 11 12  1  0
 12 13  1  0
 13 14  1  0
 14 15  1  0
 15 16  1  0
  2 17  1  0
 17 18  2  0
 18 19  1  0
 19 20  2  0
 20 21  1  0
 21 22  2  0
 22 23  1  0
 22 24  1  0
 24 25  2  0
 25 26  1  0
 26 27  2  0
 12  7  1  0
 16 13  1  0
 27 17  1  0
 26 20  1  0
  3 28  1  0
  4 29  1  0
  4 30  1  0
  8 31  1  0
  8 32  1  0
  9 33  1  1
 10 34  1  0
 11 35  1  0
 11 36  1  0
 12 37  1  6
 13 38  1  0
 14 39  1  0
 14 40  1  0
 15 41  1  0
 15 42  1  0
 16 43  1  0
 16 44  1  0
 18 45  1  0
 19 46  1  0
 21 47  1  0
 24 48  1  0
 25 49  1  0
M  END
>  <smiles>  (15) 
O=C(NCC(=O)N1C[C@H](O)C[C@H]1C1CCC1)c1ccc2cc(Cl)ccc2n1

>  <score_type>  (15) 
oracle

>  <origin>  (15) 
autodockgpu

>  <m_score__min__energy>  (15) 
-8.1300000000000008

>  <m_primary>  (15) 
energy

>  <rmsd>  (15) 
8.839302616899271

>  <m_score__min__rmsd>  (15) 
8.839302616899271

>  <meeko>  (15) 
{"free_energy": -7.08, "intermolecular_energy": -8.87, "internal_energy": -1.36, "cluster_size": 5, "cluster_id": 1, "rank_in_cluster": 5}

>  <energy>  (15) 
-7.65

>  <cluster_rmsd>  (15) 
0.42

>  <cluster>  (15) 
2

$$$$

     RDKit          3D

 49 52  0  0  0  0  0  0  0  0999 V2000
  139.9180   72.3490  220.7260 O   0  0  0  0  0  0  0  0  0  0  0  0
  139.8340   72.7480  221.9150 C   0  0  0  0  0  0  0  0  0  0  0  0
  139.6060   74.1540  222.1430 N   0  0  0  0  0  0  0  0  0  0  0  0
  139.4950   74.9730  220.9540 C   0  0  0  0  0  0  0  0  0  0  0  0
  140.4580   76.0720  220.9300 C   0  0  0  0  0  0  0  0  0  0  0  0
  140.3870   76.9450  221.8520 O   0  0  0  0  0  0  0  0  0  0  0  0
  141.4750   76.2560  219.9580 N   0  0  0  0  0  0  0  0  0  0  0  0
  142.2240   77.5150  219.8720 C   0  0  0  0  0  0  0  0  0  0  0  0
  142.9820   77.5260  218.5960 C   0  0  2  0  0  0  0  0  0  0  0  0
  142.7520   78.7230  217.8760 O   0  0  0  0  0  0  0  0  0  0  0  0
  142.4650   76.3670  217.8200 C   0  0  0  0  0  0  0  0  0  0  0  0
  141.9910   75.4230  218.9310 C   0  0  1  0  0  0  0  0  0  0  0  0
  143.1230   74.5380  219.2500 C   0  0  0  0  0  0  0  0  0  0  0  0
  144.2160   75.0200  220.1470 C   0  0  0  0  0  0  0  0  0  0  0  0
  144.4260   73.5300  220.4830 C   0  0  0  0  0  0  0  0  0  0  0  0
  142.9050   73.4300  220.2750 C   0  0  0  0  0  0  0  0  0  0  0  0
  139.9550   71.8620  223.0690 C   0  0  0  0  0  0  0  0  0  0  0  0
  139.5260   70.5440  222.8890 C   0  0  0  0  0  0  0  0  0  0  0  0
  139.6000   69.6400  223.9080 C   0  0  0  0  0  0  0  0  0  0  0  0
  140.0980   70.0370  225.1140 C   0  0  0  0  0  0  0  0  0  0  0  0
  140.1860   69.1560  226.1630 C   0  0  0  0  0  0  0  0  0  0  0  0
  140.6830   69.5290  227.3870 C   0  0  0  0  0  0  0  0  0  0  0  0
  140.7820   68.3740  228.7060 Cl  0  0  0  0  0  0  0  0  0  0  0  0
  141.0980   70.8420  227.5290 C   0  0  0  0  0  0  0  0  0  0  0  0
  141.0130   71.7470  226.4720 C   0  0  0  0  0  0  0  0  0  0  0  0
  140.5110   71.3530  225.2490 C   0  0  0  0  0  0  0  0  0  0  0  0
  140.4390   72.2430  224.2430 N   0  0  0  0  0  0  0  0  0  0  0  0
  139.5310   74.5110  223.1130 H   0  0  0  0  0  0  0  0  0  0  0  0
  139.6654   74.3374  220.0725 H   0  0  0  0  0  0  0  0  0  0  0  0
  138.4880   75.4156  220.9502 H   0  0  0  0  0  0  0  0  0  0  0  0
  141.5257   78.3646  219.8960 H   0  0  0  0  0  0  0  0  0  0  0  0
  142.9165   77.6003  220.7224 H   0  0  0  0  0  0  0  0  0  0  0  0
  144.0652   77.4634  218.7770 H   0  0  0  0  0  0  0  0  0  0  0  0
  143.6260   78.9490  217.4610 H   0  0  0  0  0  0  0  0  0  0  0  0
  141.6320   76.6640  217.1659 H   0  0  0  0  0  0  0  0  0  0  0  0
  143.2091   75.9185  217.1454 H   0  0  0  0  0  0  0  0  0  0  0  0
  141.1708   74.7330  218.6837 H   0  0  0  0  0  0  0  0  0  0  0  0
  143.3052   74.3386  218.1837 H   0  0  0  0  0  0  0  0  0  0  0  0
  145.0594   75.5067  219.6354 H   0  0  0  0  0  0  0  0  0  0  0  0
  144.0603   75.7895  220.9174 H   0  0  0  0  0  0  0  0  0  0  0  0
  145.0381   72.9664  219.7635 H   0  0  0  0  0  0  0  0  0  0  0  0
  144.9384   73.1793  221.3910 H   0  0  0  0  0  0  0  0  0  0  0  0
  142.5480   72.4736  219.8653 H   0  0  0  0  0  0  0  0  0  0  0  0
  142.1763   73.5003  221.0960 H   0  0  0  0  0  0  0  0  0  0  0  0
  139.1238   70.2319  221.9139 H   0  0  0  0  0  0  0  0  0  0  0  0
  139.2622   68.6038  223.7588 H   0  0  0  0  0  0  0  0  0  0  0  0
  139.8479   68.1193  226.0183 H   0  0  0  0  0  0  0  0  0  0  0  0
  141.5029   71.1779  228.4950 H   0  0  0  0  0  0  0  0  0  0  0  0
  141.3492   72.7846  226.6145 H   0  0  0  0  0  0  0  0  0  0  0  0
  1  2  2  0
  2  3  1  0
  3  4  1  0
  4  5  1  0
  5  6  2  0
  5  7  1  0
  7  8  1  0
  8  9  1  0
  9 10  1  0
  9 11  1  0
 11 12  1  0
 12 13  1  0
 13 14  1  0
 14 15  1  0
 15 16  1  0
  2 17  1  0
 17 18  2  0
 18 19  1  0
 19 20  2  0
 20 21  1  0
 21 22  2  0
 22 23  1  0
 22 24  1  0
 24 25  2  0
 25 26  1  0
 26 27  2  0
 12  7  1  0
 16 13  1  0
 27 17  1  0
 26 20  1  0
  3 28  1  0
  4 29  1  0
  4 30  1  0
  8 31  1  0
  8 32  1  0
  9 33  1  1
 10 34  1  0
 11 35  1  0
 11 36  1  0
 12 37  1  6
 13 38  1  0
 14 39  1  0
 14 40  1  0
 15 41  1  0
 15 42  1  0
 16 43  1  0
 16 44  1  0
 18 45  1  0
 19 46  1  0
 21 47  1  0
 24 48  1  0
 25 49  1  0
M  END
>  <smiles>  (16) 
O=C(NCC(=O)N1C[C@H](O)C[C@H]1C1CCC1)c1ccc2cc(Cl)ccc2n1

>  <score_type>  (16) 
oracle

>  <origin>  (16) 
autodockgpu

>  <m_score__min__energy>  (16) 
-8.1300000000000008

>  <m_primary>  (16) 
energy

>  <rmsd>  (16) 
2.349261334021773

>  <m_score__min__rmsd>  (16) 
2.349261334021773

>  <meeko>  (16) 
{"free_energy": -7.62, "intermolecular_energy": -9.41, "internal_energy": -1.59, "cluster_size": 13, "cluster_id": 3, "rank_in_cluster": 5}

>  <energy>  (16) 
-7.54

>  <cluster_rmsd>  (16) 
1.82

>  <cluster>  (16) 
2

$$$$

     RDKit          3D

 49 52  0  0  0  0  0  0  0  0999 V2000
  136.9890   71.1060  221.4180 O   0  0  0  0  0  0  0  0  0  0  0  0
  137.6040   71.6730  222.3570 C   0  0  0  0  0  0  0  0  0  0  0  0
  137.7100   73.1110  222.3240 N   0  0  0  0  0  0  0  0  0  0  0  0
  137.0840   73.7620  221.1930 C   0  0  0  0  0  0  0  0  0  0  0  0
  137.9090   74.8240  220.6200 C   0  0  0  0  0  0  0  0  0  0  0  0
  137.3780   75.5860  219.7520 O   0  0  0  0  0  0  0  0  0  0  0  0
  139.2650   75.0820  220.9470 N   0  0  0  0  0  0  0  0  0  0  0  0
  139.6230   75.9360  222.0850 C   0  0  0  0  0  0  0  0  0  0  0  0
  141.0670   76.2650  221.9920 C   0  0  2  0  0  0  0  0  0  0  0  0
  141.2820   77.6600  222.1040 O   0  0  0  0  0  0  0  0  0  0  0  0
  141.4920   75.7990  220.6440 C   0  0  0  0  0  0  0  0  0  0  0  0
  140.4930   74.6700  220.3660 C   0  0  1  0  0  0  0  0  0  0  0  0
  141.1130   73.4250  220.8480 C   0  0  0  0  0  0  0  0  0  0  0  0
  140.7460   72.8810  222.1900 C   0  0  0  0  0  0  0  0  0  0  0  0
  141.1350   71.5100  221.6010 C   0  0  0  0  0  0  0  0  0  0  0  0
  140.6070   72.1030  220.2820 C   0  0  0  0  0  0  0  0  0  0  0  0
  138.2120   70.9510  223.4700 C   0  0  0  0  0  0  0  0  0  0  0  0
  137.8420   69.6110  223.6180 C   0  0  0  0  0  0  0  0  0  0  0  0
  138.3560   68.8520  224.6280 C   0  0  0  0  0  0  0  0  0  0  0  0
  139.2420   69.4160  225.5000 C   0  0  0  0  0  0  0  0  0  0  0  0
  139.7790   68.6840  226.5280 C   0  0  0  0  0  0  0  0  0  0  0  0
  140.6720   69.2260  227.4200 C   0  0  0  0  0  0  0  0  0  0  0  0
  141.3390   68.2590  228.7240 Cl  0  0  0  0  0  0  0  0  0  0  0  0
  141.0150   70.5560  227.2410 C   0  0  0  0  0  0  0  0  0  0  0  0
  140.4750   71.3110  226.2010 C   0  0  0  0  0  0  0  0  0  0  0  0
  139.5800   70.7480  225.3150 C   0  0  0  0  0  0  0  0  0  0  0  0
  139.0730   71.4950  224.3190 N   0  0  0  0  0  0  0  0  0  0  0  0
  138.2110   73.6060  223.0860 H   0  0  0  0  0  0  0  0  0  0  0  0
  136.8929   73.0078  220.4154 H   0  0  0  0  0  0  0  0  0  0  0  0
  136.1528   74.2246  221.5521 H   0  0  0  0  0  0  0  0  0  0  0  0
  139.0291   76.8614  222.0555 H   0  0  0  0  0  0  0  0  0  0  0  0
  139.4165   75.4110  223.0293 H   0  0  0  0  0  0  0  0  0  0  0  0
  141.6357   75.7868  222.8031 H   0  0  0  0  0  0  0  0  0  0  0  0
  142.2600   77.7830  221.9850 H   0  0  0  0  0  0  0  0  0  0  0  0
  141.4047   76.6024  219.8977 H   0  0  0  0  0  0  0  0  0  0  0  0
  142.5441   75.4813  220.5964 H   0  0  0  0  0  0  0  0  0  0  0  0
  140.2545   74.4624  219.3124 H   0  0  0  0  0  0  0  0  0  0  0  0
  142.1218   73.8144  220.6464 H   0  0  0  0  0  0  0  0  0  0  0  0
  141.3760   73.2273  223.0225 H   0  0  0  0  0  0  0  0  0  0  0  0
  139.7728   73.0719  222.6658 H   0  0  0  0  0  0  0  0  0  0  0  0
  142.2102   71.2782  221.6166 H   0  0  0  0  0  0  0  0  0  0  0  0
  140.7905   70.5514  222.0162 H   0  0  0  0  0  0  0  0  0  0  0  0
  141.1173   71.7547  219.3719 H   0  0  0  0  0  0  0  0  0  0  0  0
  139.5789   71.9537  219.9203 H   0  0  0  0  0  0  0  0  0  0  0  0
  137.1277   69.1633  222.9113 H   0  0  0  0  0  0  0  0  0  0  0  0
  138.0602   67.7983  224.7385 H   0  0  0  0  0  0  0  0  0  0  0  0
  139.4855   67.6300  226.6417 H   0  0  0  0  0  0  0  0  0  0  0  0
  141.7283   71.0262  227.9339 H   0  0  0  0  0  0  0  0  0  0  0  0
  140.7653   72.3657  226.0857 H   0  0  0  0  0  0  0  0  0  0  0  0
  1  2  2  0
  2  3  1  0
  3  4  1  0
  4  5  1  0
  5  6  2  0
  5  7  1  0
  7  8  1  0
  8  9  1  0
  9 10  1  0
  9 11  1  0
 11 12  1  0
 12 13  1  0
 13 14  1  0
 14 15  1  0
 15 16  1  0
  2 17  1  0
 17 18  2  0
 18 19  1  0
 19 20  2  0
 20 21  1  0
 21 22  2  0
 22 23  1  0
 22 24  1  0
 24 25  2  0
 25 26  1  0
 26 27  2  0
 12  7  1  0
 16 13  1  0
 27 17  1  0
 26 20  1  0
  3 28  1  0
  4 29  1  0
  4 30  1  0
  8 31  1  0
  8 32  1  0
  9 33  1  1
 10 34  1  0
 11 35  1  0
 11 36  1  0
 12 37  1  6
 13 38  1  0
 14 39  1  0
 14 40  1  0
 15 41  1  0
 15 42  1  0
 16 43  1  0
 16 44  1  0
 18 45  1  0
 19 46  1  0
 21 47  1  0
 24 48  1  0
 25 49  1  0
M  END
>  <smiles>  (17) 
O=C(NCC(=O)N1C[C@H](O)C[C@H]1C1CCC1)c1ccc2cc(Cl)ccc2n1

>  <score_type>  (17) 
oracle

>  <origin>  (17) 
autodockgpu

>  <m_score__min__energy>  (17) 
-8.1300000000000008

>  <m_primary>  (17) 
energy

>  <rmsd>  (17) 
2.429586423911154

>  <m_score__min__rmsd>  (17) 
2.429586423911154

>  <meeko>  (17) 
{"free_energy": -6.26, "intermolecular_energy": -8.05, "internal_energy": -2.13, "cluster_size": 23, "cluster_id": 2, "rank_in_cluster": 23}

>  <energy>  (17) 
-7.52

>  <cluster_rmsd>  (17) 
1.62

>  <cluster>  (17) 
2

$$$$

     RDKit          3D

 49 52  0  0  0  0  0  0  0  0999 V2000
  139.1040   71.7920  220.8460 O   0  0  0  0  0  0  0  0  0  0  0  0
  139.3460   72.2560  221.9900 C   0  0  0  0  0  0  0  0  0  0  0  0
  139.3820   73.6890  222.1450 N   0  0  0  0  0  0  0  0  0  0  0  0
  139.1310   74.4580  220.9450 C   0  0  0  0  0  0  0  0  0  0  0  0
  140.1380   74.2400  219.9090 C   0  0  0  0  0  0  0  0  0  0  0  0
  139.8800   73.3890  219.0000 O   0  0  0  0  0  0  0  0  0  0  0  0
  141.3930   74.8960  219.8270 N   0  0  0  0  0  0  0  0  0  0  0  0
  141.5300   76.3170  220.1640 C   0  0  0  0  0  0  0  0  0  0  0  0
  142.8580   76.7870  219.6960 C   0  0  2  0  0  0  0  0  0  0  0  0
  142.7390   77.9650  218.9190 O   0  0  0  0  0  0  0  0  0  0  0  0
  143.3930   75.6830  218.8540 C   0  0  0  0  0  0  0  0  0  0  0  0
  142.6880   74.4580  219.4480 C   0  0  1  0  0  0  0  0  0  0  0  0
  143.5780   73.9190  220.4890 C   0  0  0  0  0  0  0  0  0  0  0  0
  143.8990   72.4600  220.5140 C   0  0  0  0  0  0  0  0  0  0  0  0
  145.2020   72.8870  221.2190 C   0  0  0  0  0  0  0  0  0  0  0  0
  145.0790   74.1460  220.3430 C   0  0  0  0  0  0  0  0  0  0  0  0
  139.5900   71.4170  223.1600 C   0  0  0  0  0  0  0  0  0  0  0  0
  139.2260   70.0730  223.0480 C   0  0  0  0  0  0  0  0  0  0  0  0
  139.4150   69.2090  224.0880 C   0  0  0  0  0  0  0  0  0  0  0  0
  139.9650   69.6740  225.2470 C   0  0  0  0  0  0  0  0  0  0  0  0
  140.1690   68.8350  226.3130 C   0  0  0  0  0  0  0  0  0  0  0  0
  140.7200   69.2760  227.4910 C   0  0  0  0  0  0  0  0  0  0  0  0
  140.9670   68.1750  228.8360 Cl  0  0  0  0  0  0  0  0  0  0  0  0
  141.0680   70.6140  227.5650 C   0  0  0  0  0  0  0  0  0  0  0  0
  140.8650   71.4770  226.4890 C   0  0  0  0  0  0  0  0  0  0  0  0
  140.3100   71.0150  225.3130 C   0  0  0  0  0  0  0  0  0  0  0  0
  140.1240   71.8640  224.2880 N   0  0  0  0  0  0  0  0  0  0  0  0
  139.5780   74.0990  223.0770 H   0  0  0  0  0  0  0  0  0  0  0  0
  138.1474   74.1720  220.5441 H   0  0  0  0  0  0  0  0  0  0  0  0
  139.1667   75.5221  221.2214 H   0  0  0  0  0  0  0  0  0  0  0  0
  140.7361   76.8942  219.6674 H   0  0  0  0  0  0  0  0  0  0  0  0
  141.4432   76.4561  221.2517 H   0  0  0  0  0  0  0  0  0  0  0  0
  143.5153   77.0278  220.5445 H   0  0  0  0  0  0  0  0  0  0  0  0
  143.6500   78.3590  218.9030 H   0  0  0  0  0  0  0  0  0  0  0  0
  143.1274   75.8228  217.7958 H   0  0  0  0  0  0  0  0  0  0  0  0
  144.4906   75.6105  218.8630 H   0  0  0  0  0  0  0  0  0  0  0  0
  142.5138   73.6064  218.7739 H   0  0  0  0  0  0  0  0  0  0  0  0
  142.9772   74.3854  221.2837 H   0  0  0  0  0  0  0  0  0  0  0  0
  143.2203   71.8429  221.1210 H   0  0  0  0  0  0  0  0  0  0  0  0
  143.8870   71.8306  219.6120 H   0  0  0  0  0  0  0  0  0  0  0  0
  145.1177   73.0567  222.3025 H   0  0  0  0  0  0  0  0  0  0  0  0
  146.1050   72.2599  221.2564 H   0  0  0  0  0  0  0  0  0  0  0  0
  145.4608   75.0731  220.7954 H   0  0  0  0  0  0  0  0  0  0  0  0
  145.5820   74.2582  219.3712 H   0  0  0  0  0  0  0  0  0  0  0  0
  138.7818   69.7065  222.1108 H   0  0  0  0  0  0  0  0  0  0  0  0
  139.1276   68.1515  223.9929 H   0  0  0  0  0  0  0  0  0  0  0  0
  139.8825   67.7769  226.2214 H   0  0  0  0  0  0  0  0  0  0  0  0
  141.5138   71.0042  228.4918 H   0  0  0  0  0  0  0  0  0  0  0  0
  141.1498   72.5357  226.5782 H   0  0  0  0  0  0  0  0  0  0  0  0
  1  2  2  0
  2  3  1  0
  3  4  1  0
  4  5  1  0
  5  6  2  0
  5  7  1  0
  7  8  1  0
  8  9  1  0
  9 10  1  0
  9 11  1  0
 11 12  1  0
 12 13  1  0
 13 14  1  0
 14 15  1  0
 15 16  1  0
  2 17  1  0
 17 18  2  0
 18 19  1  0
 19 20  2  0
 20 21  1  0
 21 22  2  0
 22 23  1  0
 22 24  1  0
 24 25  2  0
 25 26  1  0
 26 27  2  0
 12  7  1  0
 16 13  1  0
 27 17  1  0
 26 20  1  0
  3 28  1  0
  4 29  1  0
  4 30  1  0
  8 31  1  0
  8 32  1  0
  9 33  1  1
 10 34  1  0
 11 35  1  0
 11 36  1  0
 12 37  1  6
 13 38  1  0
 14 39  1  0
 14 40  1  0
 15 41  1  0
 15 42  1  0
 16 43  1  0
 16 44  1  0
 18 45  1  0
 19 46  1  0
 21 47  1  0
 24 48  1  0
 25 49  1  0
M  END
>  <smiles>  (18) 
O=C(NCC(=O)N1C[C@H](O)C[C@H]1C1CCC1)c1ccc2cc(Cl)ccc2n1

>  <score_type>  (18) 
oracle

>  <origin>  (18) 
autodockgpu

>  <m_score__min__energy>  (18) 
-8.1300000000000008

>  <m_primary>  (18) 
energy

>  <rmsd>  (18) 
2.302623126209796

>  <m_score__min__rmsd>  (18) 
2.302623126209796

>  <meeko>  (18) 
{"free_energy": -7.48, "intermolecular_energy": -9.27, "internal_energy": -1.4, "cluster_size": 13, "cluster_id": 3, "rank_in_cluster": 6}

>  <energy>  (18) 
-7.5

>  <cluster_rmsd>  (18) 
1.73

>  <cluster>  (18) 
2

$$$$

     RDKit          3D

 49 52  0  0  0  0  0  0  0  0999 V2000
  139.9940   70.3910  221.9250 O   0  0  0  0  0  0  0  0  0  0  0  0
  139.4810   71.4570  222.3500 C   0  0  0  0  0  0  0  0  0  0  0  0
  138.3300   71.3580  223.2130 N   0  0  0  0  0  0  0  0  0  0  0  0
  137.8780   70.0140  223.5060 C   0  0  0  0  0  0  0  0  0  0  0  0
  137.8220   69.7330  224.9380 C   0  0  0  0  0  0  0  0  0  0  0  0
  136.6770   69.6770  225.4880 O   0  0  0  0  0  0  0  0  0  0  0  0
  138.9430   69.5170  225.7810 N   0  0  0  0  0  0  0  0  0  0  0  0
  140.0850   68.7120  225.3350 C   0  0  0  0  0  0  0  0  0  0  0  0
  140.9400   68.4130  226.5110 C   0  0  2  0  0  0  0  0  0  0  0  0
  141.2200   67.0270  226.6000 O   0  0  0  0  0  0  0  0  0  0  0  0
  140.1460   68.8410  227.6940 C   0  0  0  0  0  0  0  0  0  0  0  0
  139.2530   69.9370  227.1010 C   0  0  1  0  0  0  0  0  0  0  0  0
  139.9660   71.2110  227.2820 C   0  0  0  0  0  0  0  0  0  0  0  0
  141.0720   71.3110  228.2810 C   0  0  0  0  0  0  0  0  0  0  0  0
  141.6120   72.4410  227.3820 C   0  0  0  0  0  0  0  0  0  0  0  0
  141.0040   71.6110  226.2390 C   0  0  0  0  0  0  0  0  0  0  0  0
  139.9920   72.7820  222.0120 C   0  0  0  0  0  0  0  0  0  0  0  0
  141.1880   72.8230  221.2900 C   0  0  0  0  0  0  0  0  0  0  0  0
  141.7450   74.0140  220.9270 C   0  0  0  0  0  0  0  0  0  0  0  0
  141.1210   75.1750  221.2800 C   0  0  0  0  0  0  0  0  0  0  0  0
  141.6520   76.3920  220.9340 C   0  0  0  0  0  0  0  0  0  0  0  0
  141.0450   77.5750  221.2760 C   0  0  0  0  0  0  0  0  0  0  0  0
  141.7540   79.1150  220.8160 Cl  0  0  0  0  0  0  0  0  0  0  0  0
  139.8630   77.4960  221.9920 C   0  0  0  0  0  0  0  0  0  0  0  0
  139.3140   76.2660  222.3510 C   0  0  0  0  0  0  0  0  0  0  0  0
  139.9380   75.0880  221.9970 C   0  0  0  0  0  0  0  0  0  0  0  0
  139.3900   73.9130  222.3540 N   0  0  0  0  0  0  0  0  0  0  0  0
  137.8880   72.2210  223.5790 H   0  0  0  0  0  0  0  0  0  0  0  0
  136.8713   69.8821  223.0828 H   0  0  0  0  0  0  0  0  0  0  0  0
  138.6036   69.3172  223.0609 H   0  0  0  0  0  0  0  0  0  0  0  0
  139.7252   67.7727  224.8897 H   0  0  0  0  0  0  0  0  0  0  0  0
  140.6633   69.2649  224.5801 H   0  0  0  0  0  0  0  0  0  0  0  0
  141.9075   68.9318  226.4412 H   0  0  0  0  0  0  0  0  0  0  0  0
  140.6090   66.6840  227.3040 H   0  0  0  0  0  0  0  0  0  0  0  0
  139.5463   68.0103  228.0943 H   0  0  0  0  0  0  0  0  0  0  0  0
  140.7607   69.1805  228.5407 H   0  0  0  0  0  0  0  0  0  0  0  0
  138.2785   70.1032  227.5833 H   0  0  0  0  0  0  0  0  0  0  0  0
  139.0194   71.7536  227.4217 H   0  0  0  0  0  0  0  0  0  0  0  0
  140.7635   71.6236  229.2895 H   0  0  0  0  0  0  0  0  0  0  0  0
  141.6815   70.4474  228.5856 H   0  0  0  0  0  0  0  0  0  0  0  0
  141.1553   73.4289  227.5415 H   0  0  0  0  0  0  0  0  0  0  0  0
  142.6588   72.7788  227.3956 H   0  0  0  0  0  0  0  0  0  0  0  0
  140.6172   72.1927  225.3893 H   0  0  0  0  0  0  0  0  0  0  0  0
  141.5791   70.8831  225.6479 H   0  0  0  0  0  0  0  0  0  0  0  0
  141.6864   71.8829  221.0110 H   0  0  0  0  0  0  0  0  0  0  0  0
  142.6854   74.0382  220.3569 H   0  0  0  0  0  0  0  0  0  0  0  0
  142.5930   76.4207  220.3651 H   0  0  0  0  0  0  0  0  0  0  0  0
  139.3466   78.4224  222.2836 H   0  0  0  0  0  0  0  0  0  0  0  0
  138.3743   76.2346  222.9220 H   0  0  0  0  0  0  0  0  0  0  0  0
  1  2  2  0
  2  3  1  0
  3  4  1  0
  4  5  1  0
  5  6  2  0
  5  7  1  0
  7  8  1  0
  8  9  1  0
  9 10  1  0
  9 11  1  0
 11 12  1  0
 12 13  1  0
 13 14  1  0
 14 15  1  0
 15 16  1  0
  2 17  1  0
 17 18  2  0
 18 19  1  0
 19 20  2  0
 20 21  1  0
 21 22  2  0
 22 23  1  0
 22 24  1  0
 24 25  2  0
 25 26  1  0
 26 27  2  0
 12  7  1  0
 16 13  1  0
 27 17  1  0
 26 20  1  0
  3 28  1  0
  4 29  1  0
  4 30  1  0
  8 31  1  0
  8 32  1  0
  9 33  1  6
 10 34  1  0
 11 35  1  0
 11 36  1  0
 12 37  1  1
 13 38  1  0
 14 39  1  0
 14 40  1  0
 15 41  1  0
 15 42  1  0
 16 43  1  0
 16 44  1  0
 18 45  1  0
 19 46  1  0
 21 47  1  0
 24 48  1  0
 25 49  1  0
M  END
>  <smiles>  (19) 
O=C(NCC(=O)N1C[C@H](O)C[C@H]1C1CCC1)c1ccc2cc(Cl)ccc2n1

>  <score_type>  (19) 
oracle

>  <origin>  (19) 
autodockgpu

>  <m_score__min__energy>  (19) 
-8.1300000000000008

>  <m_primary>  (19) 
energy

>  <rmsd>  (19) 
8.25607364194108

>  <m_score__min__rmsd>  (19) 
8.25607364194108

>  <meeko>  (19) 
{"free_energy": -7.56, "intermolecular_energy": -9.35, "internal_energy": -1.61, "cluster_size": 5, "cluster_id": 1, "rank_in_cluster": 2}

>  <energy>  (19) 
-7.48

>  <cluster_rmsd>  (19) 
1.0

>  <cluster>  (19) 
2

$$$$

     RDKit          3D

 49 52  0  0  0  0  0  0  0  0999 V2000
  133.6020   69.2650  226.3490 O   0  0  0  0  0  0  0  0  0  0  0  0
  134.0680   70.3530  225.9260 C   0  0  0  0  0  0  0  0  0  0  0  0
  135.1500   70.3010  224.9740 N   0  0  0  0  0  0  0  0  0  0  0  0
  135.5930   68.9750  224.5980 C   0  0  0  0  0  0  0  0  0  0  0  0
  136.8970   68.9760  223.9390 C   0  0  0  0  0  0  0  0  0  0  0  0
  137.0260   68.2940  222.8740 O   0  0  0  0  0  0  0  0  0  0  0  0
  138.0470   69.6760  224.3880 N   0  0  0  0  0  0  0  0  0  0  0  0
  138.1640   71.1280  224.2240 C   0  0  0  0  0  0  0  0  0  0  0  0
  139.5690   71.5220  224.4980 C   0  0  2  0  0  0  0  0  0  0  0  0
  140.0890   72.3230  223.4510 O   0  0  0  0  0  0  0  0  0  0  0  0
  140.3280   70.2450  224.5760 C   0  0  0  0  0  0  0  0  0  0  0  0
  139.2450   69.2560  225.0220 C   0  0  1  0  0  0  0  0  0  0  0  0
  139.2830   69.2170  226.4930 C   0  0  0  0  0  0  0  0  0  0  0  0
  139.9370   68.0700  227.1920 C   0  0  0  0  0  0  0  0  0  0  0  0
  140.1720   69.0690  228.3420 C   0  0  0  0  0  0  0  0  0  0  0  0
  140.2950   70.1040  227.2110 C   0  0  0  0  0  0  0  0  0  0  0  0
  133.5700   71.6580  226.3500 C   0  0  0  0  0  0  0  0  0  0  0  0
  132.4270   71.6570  227.1530 C   0  0  0  0  0  0  0  0  0  0  0  0
  131.8860   72.8260  227.6010 C   0  0  0  0  0  0  0  0  0  0  0  0
  132.4740   74.0070  227.2530 C   0  0  0  0  0  0  0  0  0  0  0  0
  131.9570   75.2030  227.6830 C   0  0  0  0  0  0  0  0  0  0  0  0
  132.5290   76.4060  227.3480 C   0  0  0  0  0  0  0  0  0  0  0  0
  131.8410   77.9180  227.9170 Cl  0  0  0  0  0  0  0  0  0  0  0  0
  133.6610   76.3690  226.5500 C   0  0  0  0  0  0  0  0  0  0  0  0
  134.1940   75.1600  226.1060 C   0  0  0  0  0  0  0  0  0  0  0  0
  133.6060   73.9620  226.4540 C   0  0  0  0  0  0  0  0  0  0  0  0
  134.1390   72.8080  226.0140 N   0  0  0  0  0  0  0  0  0  0  0  0
  135.5530   71.1820  224.6060 H   0  0  0  0  0  0  0  0  0  0  0  0
  135.6589   68.3567  225.5054 H   0  0  0  0  0  0  0  0  0  0  0  0
  134.8615   68.5738  223.8811 H   0  0  0  0  0  0  0  0  0  0  0  0
  137.8942   71.4080  223.1950 H   0  0  0  0  0  0  0  0  0  0  0  0
  137.4860   71.6416  224.9215 H   0  0  0  0  0  0  0  0  0  0  0  0
  139.6423   72.1145  225.4219 H   0  0  0  0  0  0  0  0  0  0  0  0
  139.4930   73.1170  223.4110 H   0  0  0  0  0  0  0  0  0  0  0  0
  140.7439   69.9670  223.5963 H   0  0  0  0  0  0  0  0  0  0  0  0
  141.1958   70.2858  225.2508 H   0  0  0  0  0  0  0  0  0  0  0  0
  139.3736   68.2056  224.7216 H   0  0  0  0  0  0  0  0  0  0  0  0
  138.1966   69.3784  226.5543 H   0  0  0  0  0  0  0  0  0  0  0  0
  139.2707   67.2286  227.4330 H   0  0  0  0  0  0  0  0  0  0  0  0
  140.7467   67.4784  226.7400 H   0  0  0  0  0  0  0  0  0  0  0  0
  139.3196   69.2135  229.0221 H   0  0  0  0  0  0  0  0  0  0  0  0
  140.9363   68.9282  229.1205 H   0  0  0  0  0  0  0  0  0  0  0  0
  139.9417   71.1159  227.4586 H   0  0  0  0  0  0  0  0  0  0  0  0
  141.2559   70.4060  226.7690 H   0  0  0  0  0  0  0  0  0  0  0  0
  131.9572   70.7010  227.4275 H   0  0  0  0  0  0  0  0  0  0  0  0
  130.9870   72.8169  228.2348 H   0  0  0  0  0  0  0  0  0  0  0  0
  131.0569   75.1983  228.3153 H   0  0  0  0  0  0  0  0  0  0  0  0
  134.1485   77.3119  226.2613 H   0  0  0  0  0  0  0  0  0  0  0  0
  135.0927   75.1614  225.4717 H   0  0  0  0  0  0  0  0  0  0  0  0
  1  2  2  0
  2  3  1  0
  3  4  1  0
  4  5  1  0
  5  6  2  0
  5  7  1  0
  7  8  1  0
  8  9  1  0
  9 10  1  0
  9 11  1  0
 11 12  1  0
 12 13  1  0
 13 14  1  0
 14 15  1  0
 15 16  1  0
  2 17  1  0
 17 18  2  0
 18 19  1  0
 19 20  2  0
 20 21  1  0
 21 22  2  0
 22 23  1  0
 22 24  1  0
 24 25  2  0
 25 26  1  0
 26 27  2  0
 12  7  1  0
 16 13  1  0
 27 17  1  0
 26 20  1  0
  3 28  1  0
  4 29  1  0
  4 30  1  0
  8 31  1  0
  8 32  1  0
  9 33  1  1
 10 34  1  0
 11 35  1  0
 11 36  1  0
 12 37  1  6
 13 38  1  0
 14 39  1  0
 14 40  1  0
 15 41  1  0
 15 42  1  0
 16 43  1  0
 16 44  1  0
 18 45  1  0
 19 46  1  0
 21 47  1  0
 24 48  1  0
 25 49  1  0
M  END
>  <smiles>  (20) 
O=C(NCC(=O)N1C[C@H](O)C[C@H]1C1CCC1)c1ccc2cc(Cl)ccc2n1

>  <score_type>  (20) 
oracle

>  <origin>  (20) 
autodockgpu

>  <m_score__min__energy>  (20) 
-8.1300000000000008

>  <m_primary>  (20) 
energy

>  <rmsd>  (20) 
8.305719136648158

>  <m_score__min__rmsd>  (20) 
8.305719136648158

>  <meeko>  (20) 
{"free_energy": -7.73, "intermolecular_energy": -9.52, "internal_energy": -1.31, "cluster_size": 7, "cluster_id": 4, "rank_in_cluster": 3}

>  <energy>  (20) 
-7.44

>  <cluster_rmsd>  (20) 
1.59

>  <cluster>  (20) 
2

$$$$

     RDKit          3D

 49 52  0  0  0  0  0  0  0  0999 V2000
  140.2930   72.5240  220.8820 O   0  0  0  0  0  0  0  0  0  0  0  0
  140.0290   72.8500  222.0670 C   0  0  0  0  0  0  0  0  0  0  0  0
  139.6390   74.2150  222.3220 N   0  0  0  0  0  0  0  0  0  0  0  0
  139.5890   75.0820  221.1640 C   0  0  0  0  0  0  0  0  0  0  0  0
  139.3040   76.4730  221.5070 C   0  0  0  0  0  0  0  0  0  0  0  0
  138.3560   76.7010  222.3230 O   0  0  0  0  0  0  0  0  0  0  0  0
  139.9940   77.6050  221.0030 N   0  0  0  0  0  0  0  0  0  0  0  0
  139.3980   78.4610  219.9720 C   0  0  0  0  0  0  0  0  0  0  0  0
  140.4530   79.3570  219.4360 C   0  0  2  0  0  0  0  0  0  0  0  0
  140.4940   79.3110  218.0210 O   0  0  0  0  0  0  0  0  0  0  0  0
  141.7320   78.8380  219.9910 C   0  0  0  0  0  0  0  0  0  0  0  0
  141.2670   78.1640  221.2880 C   0  0  1  0  0  0  0  0  0  0  0  0
  141.3670   79.1750  222.3520 C   0  0  0  0  0  0  0  0  0  0  0  0
  141.8280   78.7770  223.7170 C   0  0  0  0  0  0  0  0  0  0  0  0
  142.2990   80.2400  223.8460 C   0  0  0  0  0  0  0  0  0  0  0  0
  142.5590   80.1260  222.3340 C   0  0  0  0  0  0  0  0  0  0  0  0
  140.1000   71.9200  223.1890 C   0  0  0  0  0  0  0  0  0  0  0  0
  139.6360   70.6230  222.9530 C   0  0  0  0  0  0  0  0  0  0  0  0
  139.6610   69.6810  223.9390 C   0  0  0  0  0  0  0  0  0  0  0  0
  140.1460   70.0190  225.1690 C   0  0  0  0  0  0  0  0  0  0  0  0
  140.1860   69.0980  226.1860 C   0  0  0  0  0  0  0  0  0  0  0  0
  140.6690   69.4110  227.4330 C   0  0  0  0  0  0  0  0  0  0  0  0
  140.7050   68.2070  228.7110 Cl  0  0  0  0  0  0  0  0  0  0  0  0
  141.1200   70.7050  227.6300 C   0  0  0  0  0  0  0  0  0  0  0  0
  141.0840   71.6500  226.6060 C   0  0  0  0  0  0  0  0  0  0  0  0
  140.5950   71.3160  225.3600 C   0  0  0  0  0  0  0  0  0  0  0  0
  140.5710   72.2430  224.3860 N   0  0  0  0  0  0  0  0  0  0  0  0
  139.4150   74.5120  223.2900 H   0  0  0  0  0  0  0  0  0  0  0  0
  140.5612   75.0391  220.6512 H   0  0  0  0  0  0  0  0  0  0  0  0
  138.7707   74.7264  220.5206 H   0  0  0  0  0  0  0  0  0  0  0  0
  138.9931   77.8379  219.1609 H   0  0  0  0  0  0  0  0  0  0  0  0
  138.5806   79.0573  220.4035 H   0  0  0  0  0  0  0  0  0  0  0  0
  140.2640   80.4035  219.7174 H   0  0  0  0  0  0  0  0  0  0  0  0
  140.2010   78.3920  217.7830 H   0  0  0  0  0  0  0  0  0  0  0  0
  142.1985   78.1123  219.3085 H   0  0  0  0  0  0  0  0  0  0  0  0
  142.4963   79.6142  220.1440 H   0  0  0  0  0  0  0  0  0  0  0  0
  141.8707   77.3227  221.6590 H   0  0  0  0  0  0  0  0  0  0  0  0
  140.3343   79.5083  222.1720 H   0  0  0  0  0  0  0  0  0  0  0  0
  141.0286   78.4806  224.4121 H   0  0  0  0  0  0  0  0  0  0  0  0
  142.4911   77.9179  223.8966 H   0  0  0  0  0  0  0  0  0  0  0  0
  141.5214   80.9614  224.1373 H   0  0  0  0  0  0  0  0  0  0  0  0
  143.0594   80.5708  224.5688 H   0  0  0  0  0  0  0  0  0  0  0  0
  142.4126   81.0530  221.7603 H   0  0  0  0  0  0  0  0  0  0  0  0
  143.5375   79.8612  221.9069 H   0  0  0  0  0  0  0  0  0  0  0  0
  139.2456   70.3585  221.9592 H   0  0  0  0  0  0  0  0  0  0  0  0
  139.2949   68.6619  223.7453 H   0  0  0  0  0  0  0  0  0  0  0  0
  139.8201   68.0781  225.9965 H   0  0  0  0  0  0  0  0  0  0  0  0
  141.5150   70.9934  228.6153 H   0  0  0  0  0  0  0  0  0  0  0  0
  141.4486   72.6708  226.7930 H   0  0  0  0  0  0  0  0  0  0  0  0
  1  2  2  0
  2  3  1  0
  3  4  1  0
  4  5  1  0
  5  6  2  0
  5  7  1  0
  7  8  1  0
  8  9  1  0
  9 10  1  0
  9 11  1  0
 11 12  1  0
 12 13  1  0
 13 14  1  0
 14 15  1  0
 15 16  1  0
  2 17  1  0
 17 18  2  0
 18 19  1  0
 19 20  2  0
 20 21  1  0
 21 22  2  0
 22 23  1  0
 22 24  1  0
 24 25  2  0
 25 26  1  0
 26 27  2  0
 12  7  1  0
 16 13  1  0
 27 17  1  0
 26 20  1  0
  3 28  1  0
  4 29  1  0
  4 30  1  0
  8 31  1  0
  8 32  1  0
  9 33  1  6
 10 34  1  0
 11 35  1  0
 11 36  1  0
 12 37  1  1
 13 38  1  0
 14 39  1  0
 14 40  1  0
 15 41  1  0
 15 42  1  0
 16 43  1  0
 16 44  1  0
 18 45  1  0
 19 46  1  0
 21 47  1  0
 24 48  1  0
 25 49  1  0
M  END
>  <smiles>  (21) 
O=C(NCC(=O)N1C[C@H](O)C[C@H]1C1CCC1)c1ccc2cc(Cl)ccc2n1

>  <score_type>  (21) 
oracle

>  <origin>  (21) 
autodockgpu

>  <m_score__min__energy>  (21) 
-8.1300000000000008

>  <m_primary>  (21) 
energy

>  <rmsd>  (21) 
2.310980408180827

>  <m_score__min__rmsd>  (21) 
2.310980408180827

>  <meeko>  (21) 
{"free_energy": -7.54, "intermolecular_energy": -9.33, "internal_energy": -1.32, "cluster_size": 23, "cluster_id": 2, "rank_in_cluster": 11}

>  <energy>  (21) 
-7.42

>  <cluster_rmsd>  (21) 
1.77

>  <cluster>  (21) 
2

$$$$

     RDKit          3D

 49 52  0  0  0  0  0  0  0  0999 V2000
  138.8210   72.0960  221.0170 O   0  0  0  0  0  0  0  0  0  0  0  0
  139.5710   72.3890  221.9830 C   0  0  0  0  0  0  0  0  0  0  0  0
  140.2750   73.6470  221.9360 N   0  0  0  0  0  0  0  0  0  0  0  0
  140.0390   74.4550  220.7580 C   0  0  0  0  0  0  0  0  0  0  0  0
  140.8810   75.6480  220.7090 C   0  0  0  0  0  0  0  0  0  0  0  0
  140.6350   76.5830  221.5340 O   0  0  0  0  0  0  0  0  0  0  0  0
  141.9600   75.8600  219.8120 N   0  0  0  0  0  0  0  0  0  0  0  0
  142.3930   77.2150  219.4530 C   0  0  0  0  0  0  0  0  0  0  0  0
  143.3110   77.1240  218.2900 C   0  0  2  0  0  0  0  0  0  0  0  0
  142.9140   78.0070  217.2560 O   0  0  0  0  0  0  0  0  0  0  0  0
  143.2070   75.7180  217.8150 C   0  0  0  0  0  0  0  0  0  0  0  0
  142.8080   74.9760  219.0960 C   0  0  1  0  0  0  0  0  0  0  0  0
  144.0560   74.5300  219.7360 C   0  0  0  0  0  0  0  0  0  0  0  0
  144.0070   73.5460  220.8590 C   0  0  0  0  0  0  0  0  0  0  0  0
  145.4290   73.1540  220.4110 C   0  0  0  0  0  0  0  0  0  0  0  0
  144.9130   73.5030  219.0040 C   0  0  0  0  0  0  0  0  0  0  0  0
  139.7610   71.5230  223.1420 C   0  0  0  0  0  0  0  0  0  0  0  0
  139.3560   70.1930  222.9990 C   0  0  0  0  0  0  0  0  0  0  0  0
  139.4930   69.3060  224.0260 C   0  0  0  0  0  0  0  0  0  0  0  0
  140.0320   69.7320  225.2050 C   0  0  0  0  0  0  0  0  0  0  0  0
  140.1840   68.8690  226.2610 C   0  0  0  0  0  0  0  0  0  0  0  0
  140.7220   69.2710  227.4580 C   0  0  0  0  0  0  0  0  0  0  0  0
  140.9030   68.1380  228.7880 Cl  0  0  0  0  0  0  0  0  0  0  0  0
  141.1110   70.5950  227.5640 C   0  0  0  0  0  0  0  0  0  0  0  0
  140.9610   71.4820  226.5000 C   0  0  0  0  0  0  0  0  0  0  0  0
  140.4180   71.0590  225.3040 C   0  0  0  0  0  0  0  0  0  0  0  0
  140.2830   71.9320  224.2910 N   0  0  0  0  0  0  0  0  0  0  0  0
  140.8990   73.9160  222.7190 H   0  0  0  0  0  0  0  0  0  0  0  0
  140.2437   73.8440  219.8665 H   0  0  0  0  0  0  0  0  0  0  0  0
  138.9921   74.7909  220.7923 H   0  0  0  0  0  0  0  0  0  0  0  0
  141.5177   77.8261  219.1878 H   0  0  0  0  0  0  0  0  0  0  0  0
  142.9087   77.6836  220.3042 H   0  0  0  0  0  0  0  0  0  0  0  0
  144.3378   77.4001  218.5718 H   0  0  0  0  0  0  0  0  0  0  0  0
  143.6880   78.6160  217.1240 H   0  0  0  0  0  0  0  0  0  0  0  0
  142.4360   75.6151  217.0372 H   0  0  0  0  0  0  0  0  0  0  0  0
  144.1293   75.3376  217.3517 H   0  0  0  0  0  0  0  0  0  0  0  0
  142.2218   74.0529  218.9766 H   0  0  0  0  0  0  0  0  0  0  0  0
  144.3777   75.5689  219.9007 H   0  0  0  0  0  0  0  0  0  0  0  0
  143.9392   73.9876  221.8642 H   0  0  0  0  0  0  0  0  0  0  0  0
  143.1947   72.8135  220.9758 H   0  0  0  0  0  0  0  0  0  0  0  0
  146.2367   73.7976  220.7898 H   0  0  0  0  0  0  0  0  0  0  0  0
  145.9010   72.1929  220.6629 H   0  0  0  0  0  0  0  0  0  0  0  0
  145.6642   73.9206  218.3175 H   0  0  0  0  0  0  0  0  0  0  0  0
  144.5011   72.7569  218.3085 H   0  0  0  0  0  0  0  0  0  0  0  0
  138.9212   69.8573  222.0460 H   0  0  0  0  0  0  0  0  0  0  0  0
  139.1730   68.2605  223.9054 H   0  0  0  0  0  0  0  0  0  0  0  0
  139.8648   67.8228  226.1446 H   0  0  0  0  0  0  0  0  0  0  0  0
  141.5475   70.9544  228.5076 H   0  0  0  0  0  0  0  0  0  0  0  0
  141.2783   72.5290  226.6144 H   0  0  0  0  0  0  0  0  0  0  0  0
  1  2  2  0
  2  3  1  0
  3  4  1  0
  4  5  1  0
  5  6  2  0
  5  7  1  0
  7  8  1  0
  8  9  1  0
  9 10  1  0
  9 11  1  0
 11 12  1  0
 12 13  1  0
 13 14  1  0
 14 15  1  0
 15 16  1  0
  2 17  1  0
 17 18  2  0
 18 19  1  0
 19 20  2  0
 20 21  1  0
 21 22  2  0
 22 23  1  0
 22 24  1  0
 24 25  2  0
 25 26  1  0
 26 27  2  0
 12  7  1  0
 16 13  1  0
 27 17  1  0
 26 20  1  0
  3 28  1  0
  4 29  1  0
  4 30  1  0
  8 31  1  0
  8 32  1  0
  9 33  1  1
 10 34  1  0
 11 35  1  0
 11 36  1  0
 12 37  1  6
 13 38  1  0
 14 39  1  0
 14 40  1  0
 15 41  1  0
 15 42  1  0
 16 43  1  0
 16 44  1  0
 18 45  1  0
 19 46  1  0
 21 47  1  0
 24 48  1  0
 25 49  1  0
M  END
>  <smiles>  (22) 
O=C(NCC(=O)N1C[C@H](O)C[C@H]1C1CCC1)c1ccc2cc(Cl)ccc2n1

>  <score_type>  (22) 
oracle

>  <origin>  (22) 
autodockgpu

>  <m_score__min__energy>  (22) 
-8.1300000000000008

>  <m_primary>  (22) 
energy

>  <rmsd>  (22) 
2.429544884334746

>  <m_score__min__rmsd>  (22) 
2.429544884334746

>  <meeko>  (22) 
{"free_energy": -7.27, "intermolecular_energy": -9.06, "internal_energy": -1.43, "cluster_size": 13, "cluster_id": 3, "rank_in_cluster": 10}

>  <energy>  (22) 
-7.36

>  <cluster_rmsd>  (22) 
1.83

>  <cluster>  (22) 
2

$$$$

     RDKit          3D

 49 52  0  0  0  0  0  0  0  0999 V2000
  140.8450   72.4590  220.7300 O   0  0  0  0  0  0  0  0  0  0  0  0
  140.2580   72.7590  221.8010 C   0  0  0  0  0  0  0  0  0  0  0  0
  139.5840   74.0320  221.8690 N   0  0  0  0  0  0  0  0  0  0  0  0
  139.6560   74.8470  220.6750 C   0  0  0  0  0  0  0  0  0  0  0  0
  140.5850   75.9670  220.8060 C   0  0  0  0  0  0  0  0  0  0  0  0
  140.4530   76.7340  221.8120 O   0  0  0  0  0  0  0  0  0  0  0  0
  141.6300   76.2830  219.9000 N   0  0  0  0  0  0  0  0  0  0  0  0
  142.0680   77.6680  219.6990 C   0  0  0  0  0  0  0  0  0  0  0  0
  142.9370   77.7180  218.4970 C   0  0  2  0  0  0  0  0  0  0  0  0
  142.5130   78.7300  217.6010 O   0  0  0  0  0  0  0  0  0  0  0  0
  142.7950   76.3850  217.8510 C   0  0  0  0  0  0  0  0  0  0  0  0
  142.4360   75.4900  219.0430 C   0  0  1  0  0  0  0  0  0  0  0  0
  143.7020   74.9540  219.5690 C   0  0  0  0  0  0  0  0  0  0  0  0
  143.6960   74.0860  220.7850 C   0  0  0  0  0  0  0  0  0  0  0  0
  144.9960   73.4880  220.2110 C   0  0  0  0  0  0  0  0  0  0  0  0
  144.3400   73.7720  218.8480 C   0  0  0  0  0  0  0  0  0  0  0  0
  140.2260   71.8850  222.9690 C   0  0  0  0  0  0  0  0  0  0  0  0
  139.6520   70.6240  222.7880 C   0  0  0  0  0  0  0  0  0  0  0  0
  139.5750   69.7360  223.8210 C   0  0  0  0  0  0  0  0  0  0  0  0
  140.0680   70.0930  225.0430 C   0  0  0  0  0  0  0  0  0  0  0  0
  140.0080   69.2260  226.1050 C   0  0  0  0  0  0  0  0  0  0  0  0
  140.4950   69.5600  227.3450 C   0  0  0  0  0  0  0  0  0  0  0  0
  140.4020   68.4250  228.6820 Cl  0  0  0  0  0  0  0  0  0  0  0  0
  141.0570   70.8170  227.4870 C   0  0  0  0  0  0  0  0  0  0  0  0
  141.1230   71.7070  226.4160 C   0  0  0  0  0  0  0  0  0  0  0  0
  140.6280   71.3540  225.1770 C   0  0  0  0  0  0  0  0  0  0  0  0
  140.7030   72.2280  224.1590 N   0  0  0  0  0  0  0  0  0  0  0  0
  139.0910   74.3060  222.7390 H   0  0  0  0  0  0  0  0  0  0  0  0
  139.9850   74.2143  219.8375 H   0  0  0  0  0  0  0  0  0  0  0  0
  138.6545   75.2676  220.5016 H   0  0  0  0  0  0  0  0  0  0  0  0
  141.1918   78.3163  219.5505 H   0  0  0  0  0  0  0  0  0  0  0  0
  142.6243   78.0188  220.5808 H   0  0  0  0  0  0  0  0  0  0  0  0
  143.9779   77.9464  218.7696 H   0  0  0  0  0  0  0  0  0  0  0  0
  143.3260   78.9800  217.0880 H   0  0  0  0  0  0  0  0  0  0  0  0
  141.9929   76.3890  217.0983 H   0  0  0  0  0  0  0  0  0  0  0  0
  143.6927   76.0585  217.3056 H   0  0  0  0  0  0  0  0  0  0  0  0
  141.8316   74.5956  218.8317 H   0  0  0  0  0  0  0  0  0  0  0  0
  144.1526   75.9573  219.5856 H   0  0  0  0  0  0  0  0  0  0  0  0
  143.8095   74.6196  221.7402 H   0  0  0  0  0  0  0  0  0  0  0  0
  142.8321   73.4694  221.0740 H   0  0  0  0  0  0  0  0  0  0  0  0
  145.9113   74.0604  220.4219 H   0  0  0  0  0  0  0  0  0  0  0  0
  145.3902   72.5028  220.5009 H   0  0  0  0  0  0  0  0  0  0  0  0
  145.0351   74.0351  218.0371 H   0  0  0  0  0  0  0  0  0  0  0  0
  143.7624   73.0225  218.2870 H   0  0  0  0  0  0  0  0  0  0  0  0
  139.2572   70.3437  221.8003 H   0  0  0  0  0  0  0  0  0  0  0  0
  139.1215   68.7451  223.6711 H   0  0  0  0  0  0  0  0  0  0  0  0
  139.5563   68.2337  225.9588 H   0  0  0  0  0  0  0  0  0  0  0  0
  141.4597   71.1198  228.4648 H   0  0  0  0  0  0  0  0  0  0  0  0
  141.5739   72.7000  226.5598 H   0  0  0  0  0  0  0  0  0  0  0  0
  1  2  2  0
  2  3  1  0
  3  4  1  0
  4  5  1  0
  5  6  2  0
  5  7  1  0
  7  8  1  0
  8  9  1  0
  9 10  1  0
  9 11  1  0
 11 12  1  0
 12 13  1  0
 13 14  1  0
 14 15  1  0
 15 16  1  0
  2 17  1  0
 17 18  2  0
 18 19  1  0
 19 20  2  0
 20 21  1  0
 21 22  2  0
 22 23  1  0
 22 24  1  0
 24 25  2  0
 25 26  1  0
 26 27  2  0
 12  7  1  0
 16 13  1  0
 27 17  1  0
 26 20  1  0
  3 28  1  0
  4 29  1  0
  4 30  1  0
  8 31  1  0
  8 32  1  0
  9 33  1  1
 10 34  1  0
 11 35  1  0
 11 36  1  0
 12 37  1  6
 13 38  1  0
 14 39  1  0
 14 40  1  0
 15 41  1  0
 15 42  1  0
 16 43  1  0
 16 44  1  0
 18 45  1  0
 19 46  1  0
 21 47  1  0
 24 48  1  0
 25 49  1  0
M  END
>  <smiles>  (23) 
O=C(NCC(=O)N1C[C@H](O)C[C@H]1C1CCC1)c1ccc2cc(Cl)ccc2n1

>  <score_type>  (23) 
oracle

>  <origin>  (23) 
autodockgpu

>  <m_score__min__energy>  (23) 
-8.1300000000000008

>  <m_primary>  (23) 
energy

>  <rmsd>  (23) 
2.4014797909588923

>  <m_score__min__rmsd>  (23) 
2.4014797909588923

>  <meeko>  (23) 
{"free_energy": -7.81, "intermolecular_energy": -9.6, "internal_energy": -1.54, "cluster_size": 13, "cluster_id": 3, "rank_in_cluster": 1}

>  <energy>  (23) 
-7.35

>  <cluster_rmsd>  (23) 
1.52

>  <cluster>  (23) 
2

$$$$

     RDKit          3D

 49 52  0  0  0  0  0  0  0  0999 V2000
  140.1360   73.7920  220.4150 O   0  0  0  0  0  0  0  0  0  0  0  0
  139.7110   73.8310  221.5970 C   0  0  0  0  0  0  0  0  0  0  0  0
  139.2950   75.1080  222.1240 N   0  0  0  0  0  0  0  0  0  0  0  0
  139.4120   76.2300  221.2180 C   0  0  0  0  0  0  0  0  0  0  0  0
  140.7030   76.9070  221.3140 C   0  0  0  0  0  0  0  0  0  0  0  0
  141.6960   76.3800  220.7200 O   0  0  0  0  0  0  0  0  0  0  0  0
  140.9530   78.1120  222.0220 N   0  0  0  0  0  0  0  0  0  0  0  0
  141.9930   79.0480  221.5830 C   0  0  0  0  0  0  0  0  0  0  0  0
  142.2260   80.0350  222.6660 C   0  0  2  0  0  0  0  0  0  0  0  0
  143.6040   80.1390  222.9760 O   0  0  0  0  0  0  0  0  0  0  0  0
  141.4860   79.5090  223.8450 C   0  0  0  0  0  0  0  0  0  0  0  0
  140.3750   78.6850  223.1840 C   0  0  1  0  0  0  0  0  0  0  0  0
  139.2190   79.5820  223.0230 C   0  0  0  0  0  0  0  0  0  0  0  0
  137.8330   79.0260  223.0690 C   0  0  0  0  0  0  0  0  0  0  0  0
  137.4200   80.4340  223.5430 C   0  0  0  0  0  0  0  0  0  0  0  0
  138.8070   80.4460  224.2090 C   0  0  0  0  0  0  0  0  0  0  0  0
  139.6210   72.6550  222.4570 C   0  0  0  0  0  0  0  0  0  0  0  0
  138.6070   71.7420  222.1560 C   0  0  0  0  0  0  0  0  0  0  0  0
  138.4410   70.6110  222.9020 C   0  0  0  0  0  0  0  0  0  0  0  0
  139.2800   70.3780  223.9520 C   0  0  0  0  0  0  0  0  0  0  0  0
  139.1440   69.2530  224.7250 C   0  0  0  0  0  0  0  0  0  0  0  0
  139.9740   68.9940  225.7880 C   0  0  0  0  0  0  0  0  0  0  0  0
  139.7700   67.5430  226.7550 Cl  0  0  0  0  0  0  0  0  0  0  0  0
  140.9670   69.9210  226.0560 C   0  0  0  0  0  0  0  0  0  0  0  0
  141.1150   71.0690  225.2790 C   0  0  0  0  0  0  0  0  0  0  0  0
  140.2710   71.3110  224.2150 C   0  0  0  0  0  0  0  0  0  0  0  0
  140.4340   72.4250  223.4790 N   0  0  0  0  0  0  0  0  0  0  0  0
  138.9400   75.1700  223.0960 H   0  0  0  0  0  0  0  0  0  0  0  0
  139.2832   75.8646  220.1885 H   0  0  0  0  0  0  0  0  0  0  0  0
  138.6360   76.9591  221.4941 H   0  0  0  0  0  0  0  0  0  0  0  0
  142.9230   78.4985  221.3754 H   0  0  0  0  0  0  0  0  0  0  0  0
  141.6729   79.5637  220.6656 H   0  0  0  0  0  0  0  0  0  0  0  0
  141.8878   81.0383  222.3675 H   0  0  0  0  0  0  0  0  0  0  0  0
  144.0640   79.5580  222.3140 H   0  0  0  0  0  0  0  0  0  0  0  0
  142.1319   78.8777  224.4729 H   0  0  0  0  0  0  0  0  0  0  0  0
  141.1137   80.2934  224.5204 H   0  0  0  0  0  0  0  0  0  0  0  0
  139.9772   77.8327  223.7544 H   0  0  0  0  0  0  0  0  0  0  0  0
  139.6359   80.0009  222.0952 H   0  0  0  0  0  0  0  0  0  0  0  0
  137.4197   78.7206  222.0964 H   0  0  0  0  0  0  0  0  0  0  0  0
  137.5748   78.1103  223.6211 H   0  0  0  0  0  0  0  0  0  0  0  0
  137.2743   81.1762  222.7443 H   0  0  0  0  0  0  0  0  0  0  0  0
  136.4853   80.6418  224.0845 H   0  0  0  0  0  0  0  0  0  0  0  0
  139.2935   81.4310  224.2650 H   0  0  0  0  0  0  0  0  0  0  0  0
  138.9775   80.1564  225.2564 H   0  0  0  0  0  0  0  0  0  0  0  0
  137.9344   71.9370  221.3077 H   0  0  0  0  0  0  0  0  0  0  0  0
  137.6407   69.8964  222.6595 H   0  0  0  0  0  0  0  0  0  0  0  0
  138.3450   68.5358  224.4859 H   0  0  0  0  0  0  0  0  0  0  0  0
  141.6526   69.7482  226.8986 H   0  0  0  0  0  0  0  0  0  0  0  0
  141.9123   71.7886  225.5166 H   0  0  0  0  0  0  0  0  0  0  0  0
  1  2  2  0
  2  3  1  0
  3  4  1  0
  4  5  1  0
  5  6  2  0
  5  7  1  0
  7  8  1  0
  8  9  1  0
  9 10  1  0
  9 11  1  0
 11 12  1  0
 12 13  1  0
 13 14  1  0
 14 15  1  0
 15 16  1  0
  2 17  1  0
 17 18  2  0
 18 19  1  0
 19 20  2  0
 20 21  1  0
 21 22  2  0
 22 23  1  0
 22 24  1  0
 24 25  2  0
 25 26  1  0
 26 27  2  0
 12  7  1  0
 16 13  1  0
 27 17  1  0
 26 20  1  0
  3 28  1  0
  4 29  1  0
  4 30  1  0
  8 31  1  0
  8 32  1  0
  9 33  1  6
 10 34  1  0
 11 35  1  0
 11 36  1  0
 12 37  1  1
 13 38  1  0
 14 39  1  0
 14 40  1  0
 15 41  1  0
 15 42  1  0
 16 43  1  0
 16 44  1  0
 18 45  1  0
 19 46  1  0
 21 47  1  0
 24 48  1  0
 25 49  1  0
M  END
>  <smiles>  (24) 
O=C(NCC(=O)N1C[C@H](O)C[C@H]1C1CCC1)c1ccc2cc(Cl)ccc2n1

>  <score_type>  (24) 
oracle

>  <origin>  (24) 
autodockgpu

>  <m_score__min__energy>  (24) 
-8.1300000000000008

>  <m_primary>  (24) 
energy

>  <rmsd>  (24) 
3.9004616567540897

>  <m_score__min__rmsd>  (24) 
3.9004616567540897

>  <meeko>  (24) 
{"free_energy": -7.9, "intermolecular_energy": -9.69, "internal_energy": -1.14, "cluster_size": 23, "cluster_id": 2, "rank_in_cluster": 3}

>  <energy>  (24) 
-7.27

>  <cluster_rmsd>  (24) 
1.62

>  <cluster>  (24) 
2

$$$$

     RDKit          3D

 49 52  0  0  0  0  0  0  0  0999 V2000
  139.8280   72.4790  220.8550 O   0  0  0  0  0  0  0  0  0  0  0  0
  139.7140   72.8240  222.0590 C   0  0  0  0  0  0  0  0  0  0  0  0
  139.4330   74.2090  222.3430 N   0  0  0  0  0  0  0  0  0  0  0  0
  139.3090   75.0750  221.1890 C   0  0  0  0  0  0  0  0  0  0  0  0
  139.3070   76.4930  221.5400 C   0  0  0  0  0  0  0  0  0  0  0  0
  138.5700   76.8650  222.5070 O   0  0  0  0  0  0  0  0  0  0  0  0
  140.0600   77.5050  220.8900 N   0  0  0  0  0  0  0  0  0  0  0  0
  139.5540   78.1720  219.6860 C   0  0  0  0  0  0  0  0  0  0  0  0
  140.6650   78.9400  219.0700 C   0  0  2  0  0  0  0  0  0  0  0  0
  140.7910   78.6390  217.6910 O   0  0  0  0  0  0  0  0  0  0  0  0
  141.8920   78.5060  219.7920 C   0  0  0  0  0  0  0  0  0  0  0  0
  141.3290   78.0830  221.1530 C   0  0  1  0  0  0  0  0  0  0  0  0
  141.3910   79.2670  222.0260 C   0  0  0  0  0  0  0  0  0  0  0  0
  140.7740   79.2240  223.3860 C   0  0  0  0  0  0  0  0  0  0  0  0
  141.8120   80.3030  223.7530 C   0  0  0  0  0  0  0  0  0  0  0  0
  142.7050   79.5680  222.7390 C   0  0  0  0  0  0  0  0  0  0  0  0
  139.8520   71.8930  223.1750 C   0  0  0  0  0  0  0  0  0  0  0  0
  139.4460   70.5770  222.9410 C   0  0  0  0  0  0  0  0  0  0  0  0
  139.5360   69.6330  223.9220 C   0  0  0  0  0  0  0  0  0  0  0  0
  140.0290   69.9890  225.1440 C   0  0  0  0  0  0  0  0  0  0  0  0
  140.1330   69.0670  226.1560 C   0  0  0  0  0  0  0  0  0  0  0  0
  140.6250   69.3990  227.3940 C   0  0  0  0  0  0  0  0  0  0  0  0
  140.7450   68.1930  228.6650 Cl  0  0  0  0  0  0  0  0  0  0  0  0
  141.0170   70.7120  227.5890 C   0  0  0  0  0  0  0  0  0  0  0  0
  140.9140   71.6580  226.5700 C   0  0  0  0  0  0  0  0  0  0  0  0
  140.4180   71.3060  225.3320 C   0  0  0  0  0  0  0  0  0  0  0  0
  140.3290   72.2340  224.3640 N   0  0  0  0  0  0  0  0  0  0  0  0
  139.3330   74.5210  223.3260 H   0  0  0  0  0  0  0  0  0  0  0  0
  140.1549   74.8820  220.5128 H   0  0  0  0  0  0  0  0  0  0  0  0
  138.3437   74.8519  220.7110 H   0  0  0  0  0  0  0  0  0  0  0  0
  139.1831   77.4203  218.9737 H   0  0  0  0  0  0  0  0  0  0  0  0
  138.7286   78.8496  219.9496 H   0  0  0  0  0  0  0  0  0  0  0  0
  140.4901   80.0232  219.1475 H   0  0  0  0  0  0  0  0  0  0  0  0
  141.1510   77.7140  217.6590 H   0  0  0  0  0  0  0  0  0  0  0  0
  142.3787   77.6621  219.2812 H   0  0  0  0  0  0  0  0  0  0  0  0
  142.6673   79.2837  219.8554 H   0  0  0  0  0  0  0  0  0  0  0  0
  141.8853   77.3108  221.7045 H   0  0  0  0  0  0  0  0  0  0  0  0
  140.9802   79.9091  221.2330 H   0  0  0  0  0  0  0  0  0  0  0  0
  139.7246   79.5503  223.4333 H   0  0  0  0  0  0  0  0  0  0  0  0
  140.6538   78.2921  223.9579 H   0  0  0  0  0  0  0  0  0  0  0  0
  141.5379   81.3327  223.4798 H   0  0  0  0  0  0  0  0  0  0  0  0
  142.1204   80.5210  224.7861 H   0  0  0  0  0  0  0  0  0  0  0  0
  143.4074   80.2054  222.1818 H   0  0  0  0  0  0  0  0  0  0  0  0
  143.4306   78.7917  223.0232 H   0  0  0  0  0  0  0  0  0  0  0  0
  139.0489   70.2984  221.9537 H   0  0  0  0  0  0  0  0  0  0  0  0
  139.2154   68.5983  223.7306 H   0  0  0  0  0  0  0  0  0  0  0  0
  139.8125   68.0314  225.9693 H   0  0  0  0  0  0  0  0  0  0  0  0
  141.4178   71.0152  228.5675 H   0  0  0  0  0  0  0  0  0  0  0  0
  141.2313   72.6949  226.7551 H   0  0  0  0  0  0  0  0  0  0  0  0
  1  2  2  0
  2  3  1  0
  3  4  1  0
  4  5  1  0
  5  6  2  0
  5  7  1  0
  7  8  1  0
  8  9  1  0
  9 10  1  0
  9 11  1  0
 11 12  1  0
 12 13  1  0
 13 14  1  0
 14 15  1  0
 15 16  1  0
  2 17  1  0
 17 18  2  0
 18 19  1  0
 19 20  2  0
 20 21  1  0
 21 22  2  0
 22 23  1  0
 22 24  1  0
 24 25  2  0
 25 26  1  0
 26 27  2  0
 12  7  1  0
 16 13  1  0
 27 17  1  0
 26 20  1  0
  3 28  1  0
  4 29  1  0
  4 30  1  0
  8 31  1  0
  8 32  1  0
  9 33  1  6
 10 34  1  0
 11 35  1  0
 11 36  1  0
 12 37  1  1
 13 38  1  0
 14 39  1  0
 14 40  1  0
 15 41  1  0
 15 42  1  0
 16 43  1  0
 16 44  1  0
 18 45  1  0
 19 46  1  0
 21 47  1  0
 24 48  1  0
 25 49  1  0
M  END
>  <smiles>  (25) 
O=C(NCC(=O)N1C[C@H](O)C[C@H]1C1CCC1)c1ccc2cc(Cl)ccc2n1

>  <score_type>  (25) 
oracle

>  <origin>  (25) 
autodockgpu

>  <m_score__min__energy>  (25) 
-8.1300000000000008

>  <m_primary>  (25) 
energy

>  <rmsd>  (25) 
2.1099652760709002

>  <m_score__min__rmsd>  (25) 
2.1099652760709002

>  <meeko>  (25) 
{"free_energy": -7.42, "intermolecular_energy": -9.21, "internal_energy": -1.37, "cluster_size": 23, "cluster_id": 2, "rank_in_cluster": 16}

>  <energy>  (25) 
-7.23

>  <cluster_rmsd>  (25) 
0.87

>  <cluster>  (25) 
2

$$$$

     RDKit          3D

 49 52  0  0  0  0  0  0  0  0999 V2000
  140.0140   72.4900  220.8560 O   0  0  0  0  0  0  0  0  0  0  0  0
  139.8400   72.8200  222.0570 C   0  0  0  0  0  0  0  0  0  0  0  0
  139.5130   74.1960  222.3400 N   0  0  0  0  0  0  0  0  0  0  0  0
  139.4170   75.0690  221.1890 C   0  0  0  0  0  0  0  0  0  0  0  0
  139.3210   76.4810  221.5530 C   0  0  0  0  0  0  0  0  0  0  0  0
  138.1840   76.9280  221.9040 O   0  0  0  0  0  0  0  0  0  0  0  0
  140.3940   77.4090  221.5450 N   0  0  0  0  0  0  0  0  0  0  0  0
  141.0130   77.8640  222.7950 C   0  0  0  0  0  0  0  0  0  0  0  0
  141.8740   79.0350  222.4960 C   0  0  2  0  0  0  0  0  0  0  0  0
  141.5840   80.1170  223.3620 O   0  0  0  0  0  0  0  0  0  0  0  0
  141.5510   79.4150  221.0940 C   0  0  0  0  0  0  0  0  0  0  0  0
  141.0820   78.0810  220.5020 C   0  0  1  0  0  0  0  0  0  0  0  0
  142.2680   77.4350  219.9150 C   0  0  0  0  0  0  0  0  0  0  0  0
  142.3350   75.9450  219.8210 C   0  0  0  0  0  0  0  0  0  0  0  0
  143.2810   76.1900  218.6280 C   0  0  0  0  0  0  0  0  0  0  0  0
  142.4140   77.4400  218.3970 C   0  0  0  0  0  0  0  0  0  0  0  0
  139.9540   71.8840  223.1710 C   0  0  0  0  0  0  0  0  0  0  0  0
  139.5180   70.5770  222.9320 C   0  0  0  0  0  0  0  0  0  0  0  0
  139.5840   69.6290  223.9100 C   0  0  0  0  0  0  0  0  0  0  0  0
  140.0810   69.9700  225.1350 C   0  0  0  0  0  0  0  0  0  0  0  0
  140.1610   69.0430  226.1430 C   0  0  0  0  0  0  0  0  0  0  0  0
  140.6560   69.3590  227.3850 C   0  0  0  0  0  0  0  0  0  0  0  0
  140.7450   68.1460  228.6520 Cl  0  0  0  0  0  0  0  0  0  0  0  0
  141.0780   70.6620  227.5850 C   0  0  0  0  0  0  0  0  0  0  0  0
  141.0010   71.6130  226.5680 C   0  0  0  0  0  0  0  0  0  0  0  0
  140.5000   71.2770  225.3280 C   0  0  0  0  0  0  0  0  0  0  0  0
  140.4360   72.2100  224.3620 N   0  0  0  0  0  0  0  0  0  0  0  0
  139.3630   74.4970  223.3210 H   0  0  0  0  0  0  0  0  0  0  0  0
  140.3120   74.9273  220.5653 H   0  0  0  0  0  0  0  0  0  0  0  0
  138.4960   74.8038  220.6493 H   0  0  0  0  0  0  0  0  0  0  0  0
  140.2309   78.1523  223.5127 H   0  0  0  0  0  0  0  0  0  0  0  0
  141.6163   77.0550  223.2327 H   0  0  0  0  0  0  0  0  0  0  0  0
  142.9377   78.7904  222.6330 H   0  0  0  0  0  0  0  0  0  0  0  0
  140.8520   80.6180  222.9160 H   0  0  0  0  0  0  0  0  0  0  0  0
  140.7525   80.1707  221.0586 H   0  0  0  0  0  0  0  0  0  0  0  0
  142.3939   79.8687  220.5521 H   0  0  0  0  0  0  0  0  0  0  0  0
  140.3623   78.1294  219.6716 H   0  0  0  0  0  0  0  0  0  0  0  0
  142.9397   77.9958  220.5815 H   0  0  0  0  0  0  0  0  0  0  0  0
  142.7936   75.4425  220.6854 H   0  0  0  0  0  0  0  0  0  0  0  0
  141.4395   75.3098  219.7528 H   0  0  0  0  0  0  0  0  0  0  0  0
  144.3306   76.3869  218.8918 H   0  0  0  0  0  0  0  0  0  0  0  0
  143.4819   75.4393  217.8495 H   0  0  0  0  0  0  0  0  0  0  0  0
  142.9429   78.3087  217.9780 H   0  0  0  0  0  0  0  0  0  0  0  0
  141.5578   77.4634  217.7068 H   0  0  0  0  0  0  0  0  0  0  0  0
  139.1169   70.3104  221.9431 H   0  0  0  0  0  0  0  0  0  0  0  0
  139.2411   68.6023  223.7143 H   0  0  0  0  0  0  0  0  0  0  0  0
  139.8184   68.0155  225.9510 H   0  0  0  0  0  0  0  0  0  0  0  0
  141.4822   70.9532  228.5658 H   0  0  0  0  0  0  0  0  0  0  0  0
  141.3433   72.6412  226.7568 H   0  0  0  0  0  0  0  0  0  0  0  0
  1  2  2  0
  2  3  1  0
  3  4  1  0
  4  5  1  0
  5  6  2  0
  5  7  1  0
  7  8  1  0
  8  9  1  0
  9 10  1  0
  9 11  1  0
 11 12  1  0
 12 13  1  0
 13 14  1  0
 14 15  1  0
 15 16  1  0
  2 17  1  0
 17 18  2  0
 18 19  1  0
 19 20  2  0
 20 21  1  0
 21 22  2  0
 22 23  1  0
 22 24  1  0
 24 25  2  0
 25 26  1  0
 26 27  2  0
 12  7  1  0
 16 13  1  0
 27 17  1  0
 26 20  1  0
  3 28  1  0
  4 29  1  0
  4 30  1  0
  8 31  1  0
  8 32  1  0
  9 33  1  6
 10 34  1  0
 11 35  1  0
 11 36  1  0
 12 37  1  6
 13 38  1  0
 14 39  1  0
 14 40  1  0
 15 41  1  0
 15 42  1  0
 16 43  1  0
 16 44  1  0
 18 45  1  0
 19 46  1  0
 21 47  1  0
 24 48  1  0
 25 49  1  0
M  END
>  <smiles>  (26) 
O=C(NCC(=O)N1C[C@H](O)C[C@H]1C1CCC1)c1ccc2cc(Cl)ccc2n1

>  <score_type>  (26) 
oracle

>  <origin>  (26) 
autodockgpu

>  <m_score__min__energy>  (26) 
-8.1300000000000008

>  <m_primary>  (26) 
energy

>  <rmsd>  (26) 
2.942656507309486

>  <m_score__min__rmsd>  (26) 
2.942656507309486

>  <meeko>  (26) 
{"free_energy": -7.35, "intermolecular_energy": -9.14, "internal_energy": -1.31, "cluster_size": 23, "cluster_id": 2, "rank_in_cluster": 18}

>  <energy>  (26) 
-7.17

>  <cluster_rmsd>  (26) 
1.28

>  <cluster>  (26) 
2

$$$$

     RDKit          3D

 49 52  0  0  0  0  0  0  0  0999 V2000
  137.3910   71.1320  223.1320 O   0  0  0  0  0  0  0  0  0  0  0  0
  138.6440   71.1560  223.0360 C   0  0  0  0  0  0  0  0  0  0  0  0
  139.3880   70.0660  223.6170 N   0  0  0  0  0  0  0  0  0  0  0  0
  138.5980   69.0380  224.2620 C   0  0  0  0  0  0  0  0  0  0  0  0
  139.3730   68.2300  225.2000 C   0  0  0  0  0  0  0  0  0  0  0  0
  139.5920   67.0150  224.8970 O   0  0  0  0  0  0  0  0  0  0  0  0
  139.9060   68.6830  226.4350 N   0  0  0  0  0  0  0  0  0  0  0  0
  141.1010   68.0640  227.0180 C   0  0  0  0  0  0  0  0  0  0  0  0
  141.2340   68.5270  228.4220 C   0  0  2  0  0  0  0  0  0  0  0  0
  141.4030   67.4340  229.3070 O   0  0  0  0  0  0  0  0  0  0  0  0
  139.9570   69.2270  228.7290 C   0  0  0  0  0  0  0  0  0  0  0  0
  139.5100   69.7000  227.3410 C   0  0  1  0  0  0  0  0  0  0  0  0
  140.0560   71.0540  227.1570 C   0  0  0  0  0  0  0  0  0  0  0  0
  140.7500   71.7380  228.2900 C   0  0  0  0  0  0  0  0  0  0  0  0
  141.5090   72.5110  227.1930 C   0  0  0  0  0  0  0  0  0  0  0  0
  141.3670   71.2050  226.3930 C   0  0  0  0  0  0  0  0  0  0  0  0
  139.3770   72.2280  222.3700 C   0  0  0  0  0  0  0  0  0  0  0  0
  138.6800   73.4200  222.1570 C   0  0  0  0  0  0  0  0  0  0  0  0
  139.2780   74.4800  221.5420 C   0  0  0  0  0  0  0  0  0  0  0  0
  140.5750   74.3650  221.1310 C   0  0  0  0  0  0  0  0  0  0  0  0
  141.2100   75.4100  220.5080 C   0  0  0  0  0  0  0  0  0  0  0  0
  142.5130   75.3220  220.0850 C   0  0  0  0  0  0  0  0  0  0  0  0
  143.2940   76.6790  219.2920 Cl  0  0  0  0  0  0  0  0  0  0  0  0
  143.1730   74.1260  220.3130 C   0  0  0  0  0  0  0  0  0  0  0  0
  142.5380   73.0570  220.9440 C   0  0  0  0  0  0  0  0  0  0  0  0
  141.2280   73.1650  221.3620 C   0  0  0  0  0  0  0  0  0  0  0  0
  140.6370   72.1210  221.9690 N   0  0  0  0  0  0  0  0  0  0  0  0
  140.4230   70.0590  223.5520 H   0  0  0  0  0  0  0  0  0  0  0  0
  137.7753   69.5200  224.8105 H   0  0  0  0  0  0  0  0  0  0  0  0
  138.2266   68.3649  223.4752 H   0  0  0  0  0  0  0  0  0  0  0  0
  140.9996   66.9689  226.9965 H   0  0  0  0  0  0  0  0  0  0  0  0
  141.9929   68.3495  226.4410 H   0  0  0  0  0  0  0  0  0  0  0  0
  142.1127   69.1775  228.5438 H   0  0  0  0  0  0  0  0  0  0  0  0
  142.3800   67.3910  229.4830 H   0  0  0  0  0  0  0  0  0  0  0  0
  139.2215   68.5400  229.1730 H   0  0  0  0  0  0  0  0  0  0  0  0
  140.0627   70.0407  229.4617 H   0  0  0  0  0  0  0  0  0  0  0  0
  138.4288   69.8210  227.1784 H   0  0  0  0  0  0  0  0  0  0  0  0
  139.0935   71.4210  226.7710 H   0  0  0  0  0  0  0  0  0  0  0  0
  140.1019   72.3533  228.9315 H   0  0  0  0  0  0  0  0  0  0  0  0
  141.2602   71.1899  229.0958 H   0  0  0  0  0  0  0  0  0  0  0  0
  140.9784   73.3794  226.7755 H   0  0  0  0  0  0  0  0  0  0  0  0
  142.4710   73.0168  227.3626 H   0  0  0  0  0  0  0  0  0  0  0  0
  141.2657   71.3287  225.3047 H   0  0  0  0  0  0  0  0  0  0  0  0
  142.1432   70.4261  226.3643 H   0  0  0  0  0  0  0  0  0  0  0  0
  137.6350   73.5045  222.4898 H   0  0  0  0  0  0  0  0  0  0  0  0
  138.7228   75.4155  221.3791 H   0  0  0  0  0  0  0  0  0  0  0  0
  140.6579   76.3469  220.3425 H   0  0  0  0  0  0  0  0  0  0  0  0
  144.2188   74.0172  219.9899 H   0  0  0  0  0  0  0  0  0  0  0  0
  143.0871   72.1184  221.1101 H   0  0  0  0  0  0  0  0  0  0  0  0
  1  2  2  0
  2  3  1  0
  3  4  1  0
  4  5  1  0
  5  6  2  0
  5  7  1  0
  7  8  1  0
  8  9  1  0
  9 10  1  0
  9 11  1  0
 11 12  1  0
 12 13  1  0
 13 14  1  0
 14 15  1  0
 15 16  1  0
  2 17  1  0
 17 18  2  0
 18 19  1  0
 19 20  2  0
 20 21  1  0
 21 22  2  0
 22 23  1  0
 22 24  1  0
 24 25  2  0
 25 26  1  0
 26 27  2  0
 12  7  1  0
 16 13  1  0
 27 17  1  0
 26 20  1  0
  3 28  1  0
  4 29  1  0
  4 30  1  0
  8 31  1  0
  8 32  1  0
  9 33  1  6
 10 34  1  0
 11 35  1  0
 11 36  1  0
 12 37  1  1
 13 38  1  0
 14 39  1  0
 14 40  1  0
 15 41  1  0
 15 42  1  0
 16 43  1  0
 16 44  1  0
 18 45  1  0
 19 46  1  0
 21 47  1  0
 24 48  1  0
 25 49  1  0
M  END
>  <smiles>  (27) 
O=C(NCC(=O)N1C[C@H](O)C[C@H]1C1CCC1)c1ccc2cc(Cl)ccc2n1

>  <score_type>  (27) 
oracle

>  <origin>  (27) 
autodockgpu

>  <m_score__min__energy>  (27) 
-8.1300000000000008

>  <m_primary>  (27) 
energy

>  <rmsd>  (27) 
8.697918152533616

>  <m_score__min__rmsd>  (27) 
8.697918152533616

>  <meeko>  (27) 
{"free_energy": -7.25, "intermolecular_energy": -9.04, "internal_energy": -1.56, "cluster_size": 5, "cluster_id": 1, "rank_in_cluster": 3}

>  <energy>  (27) 
-6.63

>  <cluster_rmsd>  (27) 
1.98

>  <cluster>  (27) 
2

$$$$

     RDKit          3D

 49 52  0  0  0  0  0  0  0  0999 V2000
  140.4980   72.4530  220.7570 O   0  0  0  0  0  0  0  0  0  0  0  0
  140.1830   72.8240  221.9170 C   0  0  0  0  0  0  0  0  0  0  0  0
  139.8090   74.2040  222.1080 N   0  0  0  0  0  0  0  0  0  0  0  0
  139.8360   75.0320  220.9210 C   0  0  0  0  0  0  0  0  0  0  0  0
  140.9210   76.0110  220.9340 C   0  0  0  0  0  0  0  0  0  0  0  0
  141.9710   75.7420  220.2700 O   0  0  0  0  0  0  0  0  0  0  0  0
  140.9090   77.2460  221.6320 N   0  0  0  0  0  0  0  0  0  0  0  0
  141.7990   78.3450  221.2440 C   0  0  0  0  0  0  0  0  0  0  0  0
  141.7830   79.3670  222.3200 C   0  0  2  0  0  0  0  0  0  0  0  0
  143.0990   79.7120  222.7170 O   0  0  0  0  0  0  0  0  0  0  0  0
  141.0670   78.7300  223.4590 C   0  0  0  0  0  0  0  0  0  0  0  0
  140.1630   77.7200  222.7420 C   0  0  1  0  0  0  0  0  0  0  0  0
  138.8830   78.4000  222.4880 C   0  0  0  0  0  0  0  0  0  0  0  0
  138.3910   78.5610  221.0860 C   0  0  0  0  0  0  0  0  0  0  0  0
  136.9850   78.5970  221.7180 C   0  0  0  0  0  0  0  0  0  0  0  0
  137.5940   77.6290  222.7480 C   0  0  0  0  0  0  0  0  0  0  0  0
  140.1780   71.9310  223.0710 C   0  0  0  0  0  0  0  0  0  0  0  0
  139.6250   70.6630  222.8740 C   0  0  0  0  0  0  0  0  0  0  0  0
  139.5750   69.7560  223.8920 C   0  0  0  0  0  0  0  0  0  0  0  0
  140.0730   70.1010  225.1150 C   0  0  0  0  0  0  0  0  0  0  0  0
  140.0390   69.2160  226.1630 C   0  0  0  0  0  0  0  0  0  0  0  0
  140.5330   69.5370  227.4030 C   0  0  0  0  0  0  0  0  0  0  0  0
  140.4740   68.3790  228.7220 Cl  0  0  0  0  0  0  0  0  0  0  0  0
  141.0740   70.8020  227.5610 C   0  0  0  0  0  0  0  0  0  0  0  0
  141.1130   71.7110  226.5050 C   0  0  0  0  0  0  0  0  0  0  0  0
  140.6120   71.3690  225.2650 C   0  0  0  0  0  0  0  0  0  0  0  0
  140.6610   72.2610  224.2610 N   0  0  0  0  0  0  0  0  0  0  0  0
  139.5440   74.5380  223.0530 H   0  0  0  0  0  0  0  0  0  0  0  0
  139.9606   74.3818  220.0425 H   0  0  0  0  0  0  0  0  0  0  0  0
  138.8887   75.5901  220.8867 H   0  0  0  0  0  0  0  0  0  0  0  0
  142.8221   77.9640  221.1095 H   0  0  0  0  0  0  0  0  0  0  0  0
  141.4580   78.7895  220.2973 H   0  0  0  0  0  0  0  0  0  0  0  0
  141.2967   80.2933  221.9802 H   0  0  0  0  0  0  0  0  0  0  0  0
  143.6940   79.2610  222.0630 H   0  0  0  0  0  0  0  0  0  0  0  0
  141.7682   78.2257  224.1402 H   0  0  0  0  0  0  0  0  0  0  0  0
  140.5199   79.4428  224.0935 H   0  0  0  0  0  0  0  0  0  0  0  0
  139.8810   76.8161  223.3019 H   0  0  0  0  0  0  0  0  0  0  0  0
  139.1909   79.2685  223.0887 H   0  0  0  0  0  0  0  0  0  0  0  0
  138.7021   79.4899  220.5856 H   0  0  0  0  0  0  0  0  0  0  0  0
  138.6635   77.8703  220.2744 H   0  0  0  0  0  0  0  0  0  0  0  0
  136.6723   79.5735  222.1164 H   0  0  0  0  0  0  0  0  0  0  0  0
  136.0625   78.3848  221.1577 H   0  0  0  0  0  0  0  0  0  0  0  0
  137.1925   77.7142  223.7685 H   0  0  0  0  0  0  0  0  0  0  0  0
  137.5173   76.5346  222.6686 H   0  0  0  0  0  0  0  0  0  0  0  0
  139.2249   70.3926  221.8856 H   0  0  0  0  0  0  0  0  0  0  0  0
  139.1389   68.7594  223.7291 H   0  0  0  0  0  0  0  0  0  0  0  0
  139.6026   68.2188  226.0047 H   0  0  0  0  0  0  0  0  0  0  0  0
  141.4812   71.0954  228.5398 H   0  0  0  0  0  0  0  0  0  0  0  0
  141.5469   72.7097  226.6611 H   0  0  0  0  0  0  0  0  0  0  0  0
  1  2  2  0
  2  3  1  0
  3  4  1  0
  4  5  1  0
  5  6  2  0
  5  7  1  0
  7  8  1  0
  8  9  1  0
  9 10  1  0
  9 11  1  0
 11 12  1  0
 12 13  1  0
 13 14  1  0
 14 15  1  0
 15 16  1  0
  2 17  1  0
 17 18  2  0
 18 19  1  0
 19 20  2  0
 20 21  1  0
 21 22  2  0
 22 23  1  0
 22 24  1  0
 24 25  2  0
 25 26  1  0
 26 27  2  0
 12  7  1  0
 16 13  1  0
 27 17  1  0
 26 20  1  0
  3 28  1  0
  4 29  1  0
  4 30  1  0
  8 31  1  0
  8 32  1  0
  9 33  1  6
 10 34  1  0
 11 35  1  0
 11 36  1  0
 12 37  1  1
 13 38  1  0
 14 39  1  0
 14 40  1  0
 15 41  1  0
 15 42  1  0
 16 43  1  0
 16 44  1  0
 18 45  1  0
 19 46  1  0
 21 47  1  0
 24 48  1  0
 25 49  1  0
M  END
>  <smiles>  (28) 
O=C(NCC(=O)N1C[C@H](O)C[C@H]1C1CCC1)c1ccc2cc(Cl)ccc2n1

>  <score_type>  (28) 
oracle

>  <origin>  (28) 
autodockgpu

>  <m_score__min__energy>  (28) 
-8.1300000000000008

>  <m_primary>  (28) 
energy

>  <rmsd>  (28) 
3.211669893948491

>  <m_score__min__rmsd>  (28) 
3.211669893948491

>  <meeko>  (28) 
{"free_energy": -7.71, "intermolecular_energy": -9.5, "internal_energy": -1.33, "cluster_size": 23, "cluster_id": 2, "rank_in_cluster": 8}

>  <energy>  (28) 
-6.26

>  <cluster_rmsd>  (28) 
1.91

>  <cluster>  (28) 
2

$$$$

     RDKit          3D

 49 52  0  0  0  0  0  0  0  0999 V2000
  139.6510   72.3110  220.8440 O   0  0  0  0  0  0  0  0  0  0  0  0
  139.6590   72.6940  222.0420 C   0  0  0  0  0  0  0  0  0  0  0  0
  139.5100   74.1050  222.3020 N   0  0  0  0  0  0  0  0  0  0  0  0
  139.3640   74.9480  221.1340 C   0  0  0  0  0  0  0  0  0  0  0  0
  139.0370   76.3310  221.4690 C   0  0  0  0  0  0  0  0  0  0  0  0
  137.9530   76.5500  222.0980 O   0  0  0  0  0  0  0  0  0  0  0  0
  139.8260   77.4660  221.1500 N   0  0  0  0  0  0  0  0  0  0  0  0
  139.2610   78.5990  220.4080 C   0  0  0  0  0  0  0  0  0  0  0  0
  140.3750   79.4740  219.9640 C   0  0  2  0  0  0  0  0  0  0  0  0
  140.2830   79.7530  218.5780 O   0  0  0  0  0  0  0  0  0  0  0  0
  141.6170   78.7010  220.2380 C   0  0  0  0  0  0  0  0  0  0  0  0
  141.1820   77.8000  221.3990 C   0  0  1  0  0  0  0  0  0  0  0  0
  141.5100   78.5180  222.6410 C   0  0  0  0  0  0  0  0  0  0  0  0
  142.4440   79.6840  222.6040 C   0  0  0  0  0  0  0  0  0  0  0  0
  141.6950   80.1630  223.8640 C   0  0  0  0  0  0  0  0  0  0  0  0
  140.4780   79.4870  223.2070 C   0  0  0  0  0  0  0  0  0  0  0  0
  139.8110   71.7850  223.1740 C   0  0  0  0  0  0  0  0  0  0  0  0
  139.3980   70.4650  222.9710 C   0  0  0  0  0  0  0  0  0  0  0  0
  139.5000   69.5400  223.9690 C   0  0  0  0  0  0  0  0  0  0  0  0
  140.0110   69.9180  225.1760 C   0  0  0  0  0  0  0  0  0  0  0  0
  140.1280   69.0150  226.2030 C   0  0  0  0  0  0  0  0  0  0  0  0
  140.6380   69.3690  227.4280 C   0  0  0  0  0  0  0  0  0  0  0  0
  140.7740   68.1870  228.7200 Cl  0  0  0  0  0  0  0  0  0  0  0  0
  141.0370   70.6840  227.5920 C   0  0  0  0  0  0  0  0  0  0  0  0
  140.9220   71.6110  226.5570 C   0  0  0  0  0  0  0  0  0  0  0  0
  140.4070   71.2370  225.3330 C   0  0  0  0  0  0  0  0  0  0  0  0
  140.3070   72.1470  224.3490 N   0  0  0  0  0  0  0  0  0  0  0  0
  139.5120   74.4490  223.2800 H   0  0  0  0  0  0  0  0  0  0  0  0
  140.3100   74.9370  220.5727 H   0  0  0  0  0  0  0  0  0  0  0  0
  138.5304   74.5464  220.5391 H   0  0  0  0  0  0  0  0  0  0  0  0
  138.7074   78.2298  219.5321 H   0  0  0  0  0  0  0  0  0  0  0  0
  138.5711   79.1645  221.0516 H   0  0  0  0  0  0  0  0  0  0  0  0
  140.3547   80.4405  220.4888 H   0  0  0  0  0  0  0  0  0  0  0  0
  139.8050   80.6220  218.5190 H   0  0  0  0  0  0  0  0  0  0  0  0
  141.9194   78.1071  219.3629 H   0  0  0  0  0  0  0  0  0  0  0  0
  142.4894   79.3303  220.4678 H   0  0  0  0  0  0  0  0  0  0  0  0
  141.6983   76.8341  221.5014 H   0  0  0  0  0  0  0  0  0  0  0  0
  141.7878   77.5800  223.1439 H   0  0  0  0  0  0  0  0  0  0  0  0
  143.5051   79.4375  222.7569 H   0  0  0  0  0  0  0  0  0  0  0  0
  142.5768   80.3146  221.7125 H   0  0  0  0  0  0  0  0  0  0  0  0
  142.0297   79.7136  224.8106 H   0  0  0  0  0  0  0  0  0  0  0  0
  141.6955   81.2073  224.2096 H   0  0  0  0  0  0  0  0  0  0  0  0
  139.7513   79.0456  223.9049 H   0  0  0  0  0  0  0  0  0  0  0  0
  139.7495   80.0266  222.5840 H   0  0  0  0  0  0  0  0  0  0  0  0
  138.9859   70.1685  221.9952 H   0  0  0  0  0  0  0  0  0  0  0  0
  139.1743   68.5026  223.8023 H   0  0  0  0  0  0  0  0  0  0  0  0
  139.8036   67.9766  226.0400 H   0  0  0  0  0  0  0  0  0  0  0  0
  141.4533   71.0043  228.5585 H   0  0  0  0  0  0  0  0  0  0  0  0
  141.2449   72.6502  226.7178 H   0  0  0  0  0  0  0  0  0  0  0  0
  1  2  2  0
  2  3  1  0
  3  4  1  0
  4  5  1  0
  5  6  2  0
  5  7  1  0
  7  8  1  0
  8  9  1  0
  9 10  1  0
  9 11  1  0
 11 12  1  0
 12 13  1  0
 13 14  1  0
 14 15  1  0
 15 16  1  0
  2 17  1  0
 17 18  2  0
 18 19  1  0
 19 20  2  0
 20 21  1  0
 21 22  2  0
 22 23  1  0
 22 24  1  0
 24 25  2  0
 25 26  1  0
 26 27  2  0
 12  7  1  0
 16 13  1  0
 27 17  1  0
 26 20  1  0
  3 28  1  0
  4 29  1  0
  4 30  1  0
  8 31  1  0
  8 32  1  0
  9 33  1  1
 10 34  1  0
 11 35  1  0
 11 36  1  0
 12 37  1  1
 13 38  1  0
 14 39  1  0
 14 40  1  0
 15 41  1  0
 15 42  1  0
 16 43  1  0
 16 44  1  0
 18 45  1  0
 19 46  1  0
 21 47  1  0
 24 48  1  0
 25 49  1  0
M  END
>  <smiles>  (29) 
O=C(NCC(=O)N1C[C@H](O)C[C@H]1C1CCC1)c1ccc2cc(Cl)ccc2n1

>  <score_type>  (29) 
oracle

>  <origin>  (29) 
autodockgpu

>  <m_score__min__energy>  (29) 
-8.1300000000000008

>  <m_primary>  (29) 
energy

>  <rmsd>  (29) 
2.3399359960475192

>  <m_score__min__rmsd>  (29) 
2.3399359960475192

>  <meeko>  (29) 
{"free_energy": -7.36, "intermolecular_energy": -9.15, "internal_energy": -1.19, "cluster_size": 23, "cluster_id": 2, "rank_in_cluster": 17}

>  <energy>  (29) 
-7.81

>  <cluster_rmsd>  (29) 
0.0

>  <cluster>  (29) 
3

$$$$

     RDKit          3D

 49 52  0  0  0  0  0  0  0  0999 V2000
  133.6100   69.3920  226.4710 O   0  0  0  0  0  0  0  0  0  0  0  0
  134.0560   70.4740  226.0100 C   0  0  0  0  0  0  0  0  0  0  0  0
  135.1300   70.4090  225.0500 N   0  0  0  0  0  0  0  0  0  0  0  0
  135.5900   69.0780  224.7110 C   0  0  0  0  0  0  0  0  0  0  0  0
  136.8560   69.0840  223.9810 C   0  0  0  0  0  0  0  0  0  0  0  0
  136.9090   68.4490  222.8800 O   0  0  0  0  0  0  0  0  0  0  0  0
  138.0450   69.7370  224.3960 N   0  0  0  0  0  0  0  0  0  0  0  0
  138.2160   71.1830  224.2220 C   0  0  0  0  0  0  0  0  0  0  0  0
  139.6430   71.5200  224.4560 C   0  0  2  0  0  0  0  0  0  0  0  0
  140.1660   72.2960  223.3930 O   0  0  0  0  0  0  0  0  0  0  0  0
  140.3520   70.2140  224.5200 C   0  0  0  0  0  0  0  0  0  0  0  0
  139.2420   69.2710  224.9990 C   0  0  1  0  0  0  0  0  0  0  0  0
  139.3180   69.2350  226.4680 C   0  0  0  0  0  0  0  0  0  0  0  0
  139.9700   68.0780  227.1530 C   0  0  0  0  0  0  0  0  0  0  0  0
  140.2540   69.0760  228.2940 C   0  0  0  0  0  0  0  0  0  0  0  0
  140.3650   70.1060  227.1560 C   0  0  0  0  0  0  0  0  0  0  0  0
  133.5410   71.7840  226.3980 C   0  0  0  0  0  0  0  0  0  0  0  0
  132.3740   71.7910  227.1660 C   0  0  0  0  0  0  0  0  0  0  0  0
  131.8160   72.9660  227.5790 C   0  0  0  0  0  0  0  0  0  0  0  0
  132.4110   74.1430  227.2300 C   0  0  0  0  0  0  0  0  0  0  0  0
  131.8780   75.3440  227.6250 C   0  0  0  0  0  0  0  0  0  0  0  0
  132.4560   76.5440  227.2870 C   0  0  0  0  0  0  0  0  0  0  0  0
  131.7460   78.0620  227.8110 Cl  0  0  0  0  0  0  0  0  0  0  0  0
  133.6110   76.4970  226.5250 C   0  0  0  0  0  0  0  0  0  0  0  0
  134.1620   75.2840  226.1170 C   0  0  0  0  0  0  0  0  0  0  0  0
  133.5670   74.0890  226.4660 C   0  0  0  0  0  0  0  0  0  0  0  0
  134.1160   72.9310  226.0610 N   0  0  0  0  0  0  0  0  0  0  0  0
  135.5170   71.2840  224.6520 H   0  0  0  0  0  0  0  0  0  0  0  0
  135.7232   68.5051  225.6405 H   0  0  0  0  0  0  0  0  0  0  0  0
  134.8325   68.6233  224.0557 H   0  0  0  0  0  0  0  0  0  0  0  0
  137.9298   71.4701  223.1994 H   0  0  0  0  0  0  0  0  0  0  0  0
  137.5785   71.7265  224.9349 H   0  0  0  0  0  0  0  0  0  0  0  0
  139.7653   72.1118  225.3751 H   0  0  0  0  0  0  0  0  0  0  0  0
  139.5540   73.0730  223.3120 H   0  0  0  0  0  0  0  0  0  0  0  0
  140.7304   69.9159  223.5311 H   0  0  0  0  0  0  0  0  0  0  0  0
  141.2383   70.2223  225.1715 H   0  0  0  0  0  0  0  0  0  0  0  0
  139.3200   68.2155  224.6992 H   0  0  0  0  0  0  0  0  0  0  0  0
  138.2367   69.4157  226.5579 H   0  0  0  0  0  0  0  0  0  0  0  0
  139.2954   67.2494  227.4144 H   0  0  0  0  0  0  0  0  0  0  0  0
  140.7566   67.4708  226.6812 H   0  0  0  0  0  0  0  0  0  0  0  0
  139.4230   69.2376  228.9963 H   0  0  0  0  0  0  0  0  0  0  0  0
  141.0362   68.9235  229.0522 H   0  0  0  0  0  0  0  0  0  0  0  0
  140.0367   71.1247  227.4097 H   0  0  0  0  0  0  0  0  0  0  0  0
  141.3190   70.3894  226.6874 H   0  0  0  0  0  0  0  0  0  0  0  0
  131.8990   70.8377  227.4412 H   0  0  0  0  0  0  0  0  0  0  0  0
  130.8983   72.9641  228.1855 H   0  0  0  0  0  0  0  0  0  0  0  0
  130.9599   75.3464  228.2308 H   0  0  0  0  0  0  0  0  0  0  0  0
  134.1039   77.4369  226.2356 H   0  0  0  0  0  0  0  0  0  0  0  0
  135.0800   75.2790  225.5110 H   0  0  0  0  0  0  0  0  0  0  0  0
  1  2  2  0
  2  3  1  0
  3  4  1  0
  4  5  1  0
  5  6  2  0
  5  7  1  0
  7  8  1  0
  8  9  1  0
  9 10  1  0
  9 11  1  0
 11 12  1  0
 12 13  1  0
 13 14  1  0
 14 15  1  0
 15 16  1  0
  2 17  1  0
 17 18  2  0
 18 19  1  0
 19 20  2  0
 20 21  1  0
 21 22  2  0
 22 23  1  0
 22 24  1  0
 24 25  2  0
 25 26  1  0
 26 27  2  0
 12  7  1  0
 16 13  1  0
 27 17  1  0
 26 20  1  0
  3 28  1  0
  4 29  1  0
  4 30  1  0
  8 31  1  0
  8 32  1  0
  9 33  1  1
 10 34  1  0
 11 35  1  0
 11 36  1  0
 12 37  1  6
 13 38  1  0
 14 39  1  0
 14 40  1  0
 15 41  1  0
 15 42  1  0
 16 43  1  0
 16 44  1  0
 18 45  1  0
 19 46  1  0
 21 47  1  0
 24 48  1  0
 25 49  1  0
M  END
>  <smiles>  (30) 
O=C(NCC(=O)N1C[C@H](O)C[C@H]1C1CCC1)c1ccc2cc(Cl)ccc2n1

>  <score_type>  (30) 
oracle

>  <origin>  (30) 
autodockgpu

>  <m_score__min__energy>  (30) 
-8.1300000000000008

>  <m_primary>  (30) 
energy

>  <rmsd>  (30) 
8.34629576314105

>  <m_score__min__rmsd>  (30) 
8.34629576314105

>  <meeko>  (30) 
{"free_energy": -7.8, "intermolecular_energy": -9.59, "internal_energy": -1.28, "cluster_size": 7, "cluster_id": 4, "rank_in_cluster": 1}

>  <energy>  (30) 
-7.8

>  <cluster_rmsd>  (30) 
0.21

>  <cluster>  (30) 
3

$$$$

     RDKit          3D

 49 52  0  0  0  0  0  0  0  0999 V2000
  140.5000   72.5730  220.7430 O   0  0  0  0  0  0  0  0  0  0  0  0
  140.1970   72.9100  221.9160 C   0  0  0  0  0  0  0  0  0  0  0  0
  139.8430   74.2870  222.1550 N   0  0  0  0  0  0  0  0  0  0  0  0
  139.8720   75.1540  220.9960 C   0  0  0  0  0  0  0  0  0  0  0  0
  139.1830   76.4230  221.2180 C   0  0  0  0  0  0  0  0  0  0  0  0
  137.9640   76.5060  220.8650 O   0  0  0  0  0  0  0  0  0  0  0  0
  139.7570   77.5850  221.7940 N   0  0  0  0  0  0  0  0  0  0  0  0
  140.9300   78.2290  221.1940 C   0  0  0  0  0  0  0  0  0  0  0  0
  141.4780   79.2090  222.1640 C   0  0  2  0  0  0  0  0  0  0  0  0
  142.8690   79.0200  222.3530 O   0  0  0  0  0  0  0  0  0  0  0  0
  140.7590   78.9460  223.4400 C   0  0  0  0  0  0  0  0  0  0  0  0
  139.4350   78.3520  222.9440 C   0  0  1  0  0  0  0  0  0  0  0  0
  138.4940   79.4730  222.7960 C   0  0  0  0  0  0  0  0  0  0  0  0
  137.0390   79.2670  223.0700 C   0  0  0  0  0  0  0  0  0  0  0  0
  137.0160   80.7730  223.3980 C   0  0  0  0  0  0  0  0  0  0  0  0
  138.4510   80.5270  223.8980 C   0  0  0  0  0  0  0  0  0  0  0  0
  140.1890   71.9790  223.0400 C   0  0  0  0  0  0  0  0  0  0  0  0
  139.6070   70.7290  222.8090 C   0  0  0  0  0  0  0  0  0  0  0  0
  139.5510   69.7900  223.7970 C   0  0  0  0  0  0  0  0  0  0  0  0
  140.0710   70.0850  225.0240 C   0  0  0  0  0  0  0  0  0  0  0  0
  140.0320   69.1660  226.0430 C   0  0  0  0  0  0  0  0  0  0  0  0
  140.5470   69.4360  227.2870 C   0  0  0  0  0  0  0  0  0  0  0  0
  140.4800   68.2360  228.5670 Cl  0  0  0  0  0  0  0  0  0  0  0  0
  141.1150   70.6840  227.4790 C   0  0  0  0  0  0  0  0  0  0  0  0
  141.1600   71.6260  226.4530 C   0  0  0  0  0  0  0  0  0  0  0  0
  140.6370   71.3360  225.2100 C   0  0  0  0  0  0  0  0  0  0  0  0
  140.6920   72.2600  224.2350 N   0  0  0  0  0  0  0  0  0  0  0  0
  139.5880   74.5930  223.1130 H   0  0  0  0  0  0  0  0  0  0  0  0
  140.9212   75.3642  220.7410 H   0  0  0  0  0  0  0  0  0  0  0  0
  139.3491   74.6327  220.1806 H   0  0  0  0  0  0  0  0  0  0  0  0
  141.6920   77.4702  220.9628 H   0  0  0  0  0  0  0  0  0  0  0  0
  140.6437   78.7404  220.2632 H   0  0  0  0  0  0  0  0  0  0  0  0
  141.3404   80.2399  221.8059 H   0  0  0  0  0  0  0  0  0  0  0  0
  143.1620   78.4630  221.5850 H   0  0  0  0  0  0  0  0  0  0  0  0
  141.3084   78.2290  224.0677 H   0  0  0  0  0  0  0  0  0  0  0  0
  140.6356   79.8383  224.0714 H   0  0  0  0  0  0  0  0  0  0  0  0
  138.9180   77.6532  223.6181 H   0  0  0  0  0  0  0  0  0  0  0  0
  138.8593   79.6839  221.7801 H   0  0  0  0  0  0  0  0  0  0  0  0
  136.4373   78.9697  222.1985 H   0  0  0  0  0  0  0  0  0  0  0  0
  136.6650   78.4993  223.7634 H   0  0  0  0  0  0  0  0  0  0  0  0
  136.9278   81.4430  222.5300 H   0  0  0  0  0  0  0  0  0  0  0  0
  136.2344   81.2488  224.0084 H   0  0  0  0  0  0  0  0  0  0  0  0
  139.1451   81.3706  223.7696 H   0  0  0  0  0  0  0  0  0  0  0  0
  138.6974   80.3141  224.9487 H   0  0  0  0  0  0  0  0  0  0  0  0
  139.1888   70.4997  221.8178 H   0  0  0  0  0  0  0  0  0  0  0  0
  139.0928   68.8081  223.6073 H   0  0  0  0  0  0  0  0  0  0  0  0
  139.5742   68.1832  225.8573 H   0  0  0  0  0  0  0  0  0  0  0  0
  141.5395   70.9372  228.4617 H   0  0  0  0  0  0  0  0  0  0  0  0
  141.6168   72.6098  226.6361 H   0  0  0  0  0  0  0  0  0  0  0  0
  1  2  2  0
  2  3  1  0
  3  4  1  0
  4  5  1  0
  5  6  2  0
  5  7  1  0
  7  8  1  0
  8  9  1  0
  9 10  1  0
  9 11  1  0
 11 12  1  0
 12 13  1  0
 13 14  1  0
 14 15  1  0
 15 16  1  0
  2 17  1  0
 17 18  2  0
 18 19  1  0
 19 20  2  0
 20 21  1  0
 21 22  2  0
 22 23  1  0
 22 24  1  0
 24 25  2  0
 25 26  1  0
 26 27  2  0
 12  7  1  0
 16 13  1  0
 27 17  1  0
 26 20  1  0
  3 28  1  0
  4 29  1  0
  4 30  1  0
  8 31  1  0
  8 32  1  0
  9 33  1  6
 10 34  1  0
 11 35  1  0
 11 36  1  0
 12 37  1  1
 13 38  1  0
 14 39  1  0
 14 40  1  0
 15 41  1  0
 15 42  1  0
 16 43  1  0
 16 44  1  0
 18 45  1  0
 19 46  1  0
 21 47  1  0
 24 48  1  0
 25 49  1  0
M  END
>  <smiles>  (31) 
O=C(NCC(=O)N1C[C@H](O)C[C@H]1C1CCC1)c1ccc2cc(Cl)ccc2n1

>  <score_type>  (31) 
oracle

>  <origin>  (31) 
autodockgpu

>  <m_score__min__energy>  (31) 
-8.1300000000000008

>  <m_primary>  (31) 
energy

>  <rmsd>  (31) 
3.244124607017088

>  <m_score__min__rmsd>  (31) 
3.244124607017088

>  <meeko>  (31) 
{"free_energy": -7.48, "intermolecular_energy": -9.27, "internal_energy": -1.14, "cluster_size": 23, "cluster_id": 2, "rank_in_cluster": 14}

>  <energy>  (31) 
-7.7

>  <cluster_rmsd>  (31) 
0.5

>  <cluster>  (31) 
3

$$$$

     RDKit          3D

 49 52  0  0  0  0  0  0  0  0999 V2000
  135.0440   68.5010  225.0910 O   0  0  0  0  0  0  0  0  0  0  0  0
  135.1910   69.6860  224.6970 C   0  0  0  0  0  0  0  0  0  0  0  0
  136.0630   69.9230  223.5730 N   0  0  0  0  0  0  0  0  0  0  0  0
  136.6890   68.7480  223.0050 C   0  0  0  0  0  0  0  0  0  0  0  0
  138.0760   68.5800  223.4330 C   0  0  0  0  0  0  0  0  0  0  0  0
  138.6150   67.4410  223.2650 O   0  0  0  0  0  0  0  0  0  0  0  0
  138.8830   69.5840  224.0270 N   0  0  0  0  0  0  0  0  0  0  0  0
  138.6610   71.0050  223.7400 C   0  0  0  0  0  0  0  0  0  0  0  0
  139.8240   71.7750  224.2470 C   0  0  2  0  0  0  0  0  0  0  0  0
  140.3420   72.6360  223.2480 O   0  0  0  0  0  0  0  0  0  0  0  0
  140.8470   70.7560  224.6070 C   0  0  0  0  0  0  0  0  0  0  0  0
  139.9790   69.5330  224.9270 C   0  0  1  0  0  0  0  0  0  0  0  0
  139.7010   69.5750  226.3720 C   0  0  0  0  0  0  0  0  0  0  0  0
  139.9810   68.3770  227.2200 C   0  0  0  0  0  0  0  0  0  0  0  0
  140.1430   69.3880  228.3730 C   0  0  0  0  0  0  0  0  0  0  0  0
  140.6810   70.3200  227.2730 C   0  0  0  0  0  0  0  0  0  0  0  0
  134.5250   70.8260  225.3200 C   0  0  0  0  0  0  0  0  0  0  0  0
  133.5660   70.5320  226.2920 C   0  0  0  0  0  0  0  0  0  0  0  0
  132.8900   71.5290  226.9320 C   0  0  0  0  0  0  0  0  0  0  0  0
  133.1590   72.8280  226.6100 C   0  0  0  0  0  0  0  0  0  0  0  0
  132.4980   73.8570  227.2310 C   0  0  0  0  0  0  0  0  0  0  0  0
  132.7480   75.1730  226.9260 C   0  0  0  0  0  0  0  0  0  0  0  0
  131.8840   76.4650  227.7410 Cl  0  0  0  0  0  0  0  0  0  0  0  0
  133.7050   75.4260  225.9570 C   0  0  0  0  0  0  0  0  0  0  0  0
  134.3820   74.3890  225.3180 C   0  0  0  0  0  0  0  0  0  0  0  0
  134.1170   73.0740  225.6390 C   0  0  0  0  0  0  0  0  0  0  0  0
  134.7830   72.0900  225.0100 N   0  0  0  0  0  0  0  0  0  0  0  0
  136.2020   70.8900  223.2260 H   0  0  0  0  0  0  0  0  0  0  0  0
  136.1164   67.8611  223.3140 H   0  0  0  0  0  0  0  0  0  0  0  0
  136.6933   68.8718  221.9120 H   0  0  0  0  0  0  0  0  0  0  0  0
  138.5625   71.1533  222.6545 H   0  0  0  0  0  0  0  0  0  0  0  0
  137.7384   71.3490  224.2305 H   0  0  0  0  0  0  0  0  0  0  0  0
  139.5383   72.4072  225.1007 H   0  0  0  0  0  0  0  0  0  0  0  0
  139.6270   73.3080  223.0880 H   0  0  0  0  0  0  0  0  0  0  0  0
  141.5253   70.5555  223.7645 H   0  0  0  0  0  0  0  0  0  0  0  0
  141.5057   71.0612  225.4334 H   0  0  0  0  0  0  0  0  0  0  0  0
  140.4326   68.5436  224.7678 H   0  0  0  0  0  0  0  0  0  0  0  0
  138.6720   69.9204  226.1936 H   0  0  0  0  0  0  0  0  0  0  0  0
  139.1410   67.6752  227.3288 H   0  0  0  0  0  0  0  0  0  0  0  0
  140.7498   67.6323  226.9663 H   0  0  0  0  0  0  0  0  0  0  0  0
  139.2064   69.7132  228.8496 H   0  0  0  0  0  0  0  0  0  0  0  0
  140.6902   69.1665  229.3012 H   0  0  0  0  0  0  0  0  0  0  0  0
  140.4682   71.3896  227.4168 H   0  0  0  0  0  0  0  0  0  0  0  0
  141.7510   70.4298  227.0429 H   0  0  0  0  0  0  0  0  0  0  0  0
  133.3531   69.4828  226.5447 H   0  0  0  0  0  0  0  0  0  0  0  0
  132.1377   71.2893  227.6979 H   0  0  0  0  0  0  0  0  0  0  0  0
  131.7445   73.6212  227.9969 H   0  0  0  0  0  0  0  0  0  0  0  0
  133.9353   76.4670  225.6863 H   0  0  0  0  0  0  0  0  0  0  0  0
  135.1348   74.6214  224.5504 H   0  0  0  0  0  0  0  0  0  0  0  0
  1  2  2  0
  2  3  1  0
  3  4  1  0
  4  5  1  0
  5  6  2  0
  5  7  1  0
  7  8  1  0
  8  9  1  0
  9 10  1  0
  9 11  1  0
 11 12  1  0
 12 13  1  0
 13 14  1  0
 14 15  1  0
 15 16  1  0
  2 17  1  0
 17 18  2  0
 18 19  1  0
 19 20  2  0
 20 21  1  0
 21 22  2  0
 22 23  1  0
 22 24  1  0
 24 25  2  0
 25 26  1  0
 26 27  2  0
 12  7  1  0
 16 13  1  0
 27 17  1  0
 26 20  1  0
  3 28  1  0
  4 29  1  0
  4 30  1  0
  8 31  1  0
  8 32  1  0
  9 33  1  1
 10 34  1  0
 11 35  1  0
 11 36  1  0
 12 37  1  1
 13 38  1  0
 14 39  1  0
 14 40  1  0
 15 41  1  0
 15 42  1  0
 16 43  1  0
 16 44  1  0
 18 45  1  0
 19 46  1  0
 21 47  1  0
 24 48  1  0
 25 49  1  0
M  END
>  <smiles>  (32) 
O=C(NCC(=O)N1C[C@H](O)C[C@H]1C1CCC1)c1ccc2cc(Cl)ccc2n1

>  <score_type>  (32) 
oracle

>  <origin>  (32) 
autodockgpu

>  <m_score__min__energy>  (32) 
-8.1300000000000008

>  <m_primary>  (32) 
energy

>  <rmsd>  (32) 
7.519299388207897

>  <m_score__min__rmsd>  (32) 
7.519299388207897

>  <meeko>  (32) 
{"free_energy": -7.45, "intermolecular_energy": -9.24, "internal_energy": -1.48, "cluster_size": 7, "cluster_id": 4, "rank_in_cluster": 5}

>  <energy>  (32) 
-7.65

>  <cluster_rmsd>  (32) 
0.43

>  <cluster>  (32) 
3

$$$$

     RDKit          3D

 49 52  0  0  0  0  0  0  0  0999 V2000
  139.8400   73.8080  220.3880 O   0  0  0  0  0  0  0  0  0  0  0  0
  139.5770   73.8140  221.6180 C   0  0  0  0  0  0  0  0  0  0  0  0
  139.2640   75.0790  222.2360 N   0  0  0  0  0  0  0  0  0  0  0  0
  139.2860   76.2300  221.3590 C   0  0  0  0  0  0  0  0  0  0  0  0
  140.5780   76.9110  221.3470 C   0  0  0  0  0  0  0  0  0  0  0  0
  141.5260   76.3750  220.6900 O   0  0  0  0  0  0  0  0  0  0  0  0
  140.8760   78.1290  222.0110 N   0  0  0  0  0  0  0  0  0  0  0  0
  141.9220   79.0280  221.5140 C   0  0  0  0  0  0  0  0  0  0  0  0
  142.2100   80.0400  222.5620 C   0  0  2  0  0  0  0  0  0  0  0  0
  143.5990   80.1210  222.8260 O   0  0  0  0  0  0  0  0  0  0  0  0
  141.4960   79.5640  223.7770 C   0  0  0  0  0  0  0  0  0  0  0  0
  140.3470   78.7480  223.1740 C   0  0  1  0  0  0  0  0  0  0  0  0
  139.2070   79.6650  223.0220 C   0  0  0  0  0  0  0  0  0  0  0  0
  137.8110   79.1320  223.0610 C   0  0  0  0  0  0  0  0  0  0  0  0
  137.4220   80.5420  223.5510 C   0  0  0  0  0  0  0  0  0  0  0  0
  138.8080   80.5230  224.2180 C   0  0  0  0  0  0  0  0  0  0  0  0
  139.5740   72.6100  222.4430 C   0  0  0  0  0  0  0  0  0  0  0  0
  138.7110   71.5850  222.0450 C   0  0  0  0  0  0  0  0  0  0  0  0
  138.6360   70.4200  222.7520 C   0  0  0  0  0  0  0  0  0  0  0  0
  139.4170   70.2640  223.8600 C   0  0  0  0  0  0  0  0  0  0  0  0
  139.3680   69.1070  224.5960 C   0  0  0  0  0  0  0  0  0  0  0  0
  140.1420   68.9240  225.7160 C   0  0  0  0  0  0  0  0  0  0  0  0
  140.0540   67.4290  226.6340 Cl  0  0  0  0  0  0  0  0  0  0  0  0
  140.9850   69.9600  226.0800 C   0  0  0  0  0  0  0  0  0  0  0  0
  141.0430   71.1410  225.3400 C   0  0  0  0  0  0  0  0  0  0  0  0
  140.2570   71.3070  224.2190 C   0  0  0  0  0  0  0  0  0  0  0  0
  140.3300   72.4530  223.5210 N   0  0  0  0  0  0  0  0  0  0  0  0
  139.0430   75.1140  223.2480 H   0  0  0  0  0  0  0  0  0  0  0  0
  139.0555   75.8965  220.3364 H   0  0  0  0  0  0  0  0  0  0  0  0
  138.5394   76.9453  221.7344 H   0  0  0  0  0  0  0  0  0  0  0  0
  142.8329   78.4519  221.2941 H   0  0  0  0  0  0  0  0  0  0  0  0
  141.5854   79.5250  220.5922 H   0  0  0  0  0  0  0  0  0  0  0  0
  141.8844   81.0421  222.2462 H   0  0  0  0  0  0  0  0  0  0  0  0
  144.0190   79.4560  222.2200 H   0  0  0  0  0  0  0  0  0  0  0  0
  142.1471   78.9355  224.4024 H   0  0  0  0  0  0  0  0  0  0  0  0
  141.1625   80.3751  224.4410 H   0  0  0  0  0  0  0  0  0  0  0  0
  139.9485   77.9219  223.7813 H   0  0  0  0  0  0  0  0  0  0  0  0
  139.6318   80.0866  222.0991 H   0  0  0  0  0  0  0  0  0  0  0  0
  137.3931   78.8449  222.0848 H   0  0  0  0  0  0  0  0  0  0  0  0
  137.5367   78.2146  223.6025 H   0  0  0  0  0  0  0  0  0  0  0  0
  137.2897   81.2956  222.7607 H   0  0  0  0  0  0  0  0  0  0  0  0
  136.4906   80.7596  224.0943 H   0  0  0  0  0  0  0  0  0  0  0  0
  139.3110   81.4989  224.2855 H   0  0  0  0  0  0  0  0  0  0  0  0
  138.9724   80.2187  225.2622 H   0  0  0  0  0  0  0  0  0  0  0  0
  138.0845   71.7190  221.1508 H   0  0  0  0  0  0  0  0  0  0  0  0
  137.9549   69.6173  222.4328 H   0  0  0  0  0  0  0  0  0  0  0  0
  138.6885   68.3019  224.2797 H   0  0  0  0  0  0  0  0  0  0  0  0
  141.6216   69.8497  226.9703 H   0  0  0  0  0  0  0  0  0  0  0  0
  141.7221   71.9476  225.6535 H   0  0  0  0  0  0  0  0  0  0  0  0
  1  2  2  0
  2  3  1  0
  3  4  1  0
  4  5  1  0
  5  6  2  0
  5  7  1  0
  7  8  1  0
  8  9  1  0
  9 10  1  0
  9 11  1  0
 11 12  1  0
 12 13  1  0
 13 14  1  0
 14 15  1  0
 15 16  1  0
  2 17  1  0
 17 18  2  0
 18 19  1  0
 19 20  2  0
 20 21  1  0
 21 22  2  0
 22 23  1  0
 22 24  1  0
 24 25  2  0
 25 26  1  0
 26 27  2  0
 12  7  1  0
 16 13  1  0
 27 17  1  0
 26 20  1  0
  3 28  1  0
  4 29  1  0
  4 30  1  0
  8 31  1  0
  8 32  1  0
  9 33  1  6
 10 34  1  0
 11 35  1  0
 11 36  1  0
 12 37  1  1
 13 38  1  0
 14 39  1  0
 14 40  1  0
 15 41  1  0
 15 42  1  0
 16 43  1  0
 16 44  1  0
 18 45  1  0
 19 46  1  0
 21 47  1  0
 24 48  1  0
 25 49  1  0
M  END
>  <smiles>  (33) 
O=C(NCC(=O)N1C[C@H](O)C[C@H]1C1CCC1)c1ccc2cc(Cl)ccc2n1

>  <score_type>  (33) 
oracle

>  <origin>  (33) 
autodockgpu

>  <m_score__min__energy>  (33) 
-8.1300000000000008

>  <m_primary>  (33) 
energy

>  <rmsd>  (33) 
3.8501162992703155

>  <m_score__min__rmsd>  (33) 
3.8501162992703155

>  <meeko>  (33) 
{"free_energy": -7.88, "intermolecular_energy": -9.67, "internal_energy": -1.16, "cluster_size": 23, "cluster_id": 2, "rank_in_cluster": 4}

>  <energy>  (33) 
-7.62

>  <cluster_rmsd>  (33) 
0.45

>  <cluster>  (33) 
3

$$$$

     RDKit          3D

 49 52  0  0  0  0  0  0  0  0999 V2000
  139.9630   72.3590  220.7550 O   0  0  0  0  0  0  0  0  0  0  0  0
  139.8230   72.7430  221.9440 C   0  0  0  0  0  0  0  0  0  0  0  0
  139.5350   74.1370  222.1760 N   0  0  0  0  0  0  0  0  0  0  0  0
  139.4350   74.9640  220.9910 C   0  0  0  0  0  0  0  0  0  0  0  0
  140.4700   75.9930  220.9270 C   0  0  0  0  0  0  0  0  0  0  0  0
  140.4550   76.9060  221.8130 O   0  0  0  0  0  0  0  0  0  0  0  0
  141.4980   76.0700  219.9530 N   0  0  0  0  0  0  0  0  0  0  0  0
  142.3260   77.2730  219.8170 C   0  0  0  0  0  0  0  0  0  0  0  0
  143.0870   77.1810  218.5460 C   0  0  2  0  0  0  0  0  0  0  0  0
  142.9350   78.3580  217.7730 O   0  0  0  0  0  0  0  0  0  0  0  0
  142.4990   76.0240  217.8180 C   0  0  0  0  0  0  0  0  0  0  0  0
  141.9630   75.1620  218.9670 C   0  0  1  0  0  0  0  0  0  0  0  0
  143.0350   74.2220  219.3300 C   0  0  0  0  0  0  0  0  0  0  0  0
  144.2630   74.1300  218.4840 C   0  0  0  0  0  0  0  0  0  0  0  0
  144.9630   73.6570  219.7740 C   0  0  0  0  0  0  0  0  0  0  0  0
  143.9700   74.6010  220.4730 C   0  0  0  0  0  0  0  0  0  0  0  0
  139.9380   71.8510  223.0940 C   0  0  0  0  0  0  0  0  0  0  0  0
  139.5100   70.5340  222.9050 C   0  0  0  0  0  0  0  0  0  0  0  0
  139.5780   69.6250  223.9190 C   0  0  0  0  0  0  0  0  0  0  0  0
  140.0690   70.0160  225.1310 C   0  0  0  0  0  0  0  0  0  0  0  0
  140.1510   69.1290  226.1750 C   0  0  0  0  0  0  0  0  0  0  0  0
  140.6410   69.4960  227.4050 C   0  0  0  0  0  0  0  0  0  0  0  0
  140.7310   68.3340  228.7180 Cl  0  0  0  0  0  0  0  0  0  0  0  0
  141.0550   70.8080  227.5550 C   0  0  0  0  0  0  0  0  0  0  0  0
  140.9750   71.7190  226.5030 C   0  0  0  0  0  0  0  0  0  0  0  0
  140.4810   71.3310  225.2750 C   0  0  0  0  0  0  0  0  0  0  0  0
  140.4140   72.2260  224.2730 N   0  0  0  0  0  0  0  0  0  0  0  0
  139.4140   74.4820  223.1460 H   0  0  0  0  0  0  0  0  0  0  0  0
  139.5257   74.3193  220.1044 H   0  0  0  0  0  0  0  0  0  0  0  0
  138.4621   75.4761  221.0269 H   0  0  0  0  0  0  0  0  0  0  0  0
  141.6834   78.1656  219.8007 H   0  0  0  0  0  0  0  0  0  0  0  0
  143.0203   77.3502  220.6667 H   0  0  0  0  0  0  0  0  0  0  0  0
  144.1636   77.0585  218.7355 H   0  0  0  0  0  0  0  0  0  0  0  0
  143.6980   78.3510  217.1360 H   0  0  0  0  0  0  0  0  0  0  0  0
  141.6883   76.3444  217.1471 H   0  0  0  0  0  0  0  0  0  0  0  0
  143.2145   75.4999  217.1674 H   0  0  0  0  0  0  0  0  0  0  0  0
  141.1012   74.5151  218.7462 H   0  0  0  0  0  0  0  0  0  0  0  0
  142.3211   73.3875  219.3939 H   0  0  0  0  0  0  0  0  0  0  0  0
  144.2189   73.3846  217.6763 H   0  0  0  0  0  0  0  0  0  0  0  0
  144.6338   74.9687  217.8764 H   0  0  0  0  0  0  0  0  0  0  0  0
  144.8442   72.5893  220.0103 H   0  0  0  0  0  0  0  0  0  0  0  0
  146.0517   73.7022  219.9249 H   0  0  0  0  0  0  0  0  0  0  0  0
  143.6429   74.2824  221.4737 H   0  0  0  0  0  0  0  0  0  0  0  0
  144.2094   75.6412  220.7389 H   0  0  0  0  0  0  0  0  0  0  0  0
  139.1133   70.2270  221.9260 H   0  0  0  0  0  0  0  0  0  0  0  0
  139.2414   68.5896  223.7622 H   0  0  0  0  0  0  0  0  0  0  0  0
  139.8143   68.0930  226.0224 H   0  0  0  0  0  0  0  0  0  0  0  0
  141.4555   71.1388  228.5246 H   0  0  0  0  0  0  0  0  0  0  0  0
  141.3087   72.7563  226.6535 H   0  0  0  0  0  0  0  0  0  0  0  0
  1  2  2  0
  2  3  1  0
  3  4  1  0
  4  5  1  0
  5  6  2  0
  5  7  1  0
  7  8  1  0
  8  9  1  0
  9 10  1  0
  9 11  1  0
 11 12  1  0
 12 13  1  0
 13 14  1  0
 14 15  1  0
 15 16  1  0
  2 17  1  0
 17 18  2  0
 18 19  1  0
 19 20  2  0
 20 21  1  0
 21 22  2  0
 22 23  1  0
 22 24  1  0
 24 25  2  0
 25 26  1  0
 26 27  2  0
 12  7  1  0
 16 13  1  0
 27 17  1  0
 26 20  1  0
  3 28  1  0
  4 29  1  0
  4 30  1  0
  8 31  1  0
  8 32  1  0
  9 33  1  1
 10 34  1  0
 11 35  1  0
 11 36  1  0
 12 37  1  6
 13 38  1  0
 14 39  1  0
 14 40  1  0
 15 41  1  0
 15 42  1  0
 16 43  1  0
 16 44  1  0
 18 45  1  0
 19 46  1  0
 21 47  1  0
 24 48  1  0
 25 49  1  0
M  END
>  <smiles>  (34) 
O=C(NCC(=O)N1C[C@H](O)C[C@H]1C1CCC1)c1ccc2cc(Cl)ccc2n1

>  <score_type>  (34) 
oracle

>  <origin>  (34) 
autodockgpu

>  <m_score__min__energy>  (34) 
-8.1300000000000008

>  <m_primary>  (34) 
energy

>  <rmsd>  (34) 
2.3495120505095404

>  <m_score__min__rmsd>  (34) 
2.3495120505095404

>  <meeko>  (34) 
{"free_energy": -7.31, "intermolecular_energy": -9.1, "internal_energy": -1.44, "cluster_size": 13, "cluster_id": 3, "rank_in_cluster": 9}

>  <energy>  (34) 
-7.48

>  <cluster_rmsd>  (34) 
1.06

>  <cluster>  (34) 
3

$$$$

     RDKit          3D

 49 52  0  0  0  0  0  0  0  0999 V2000
  139.7580   73.9620  222.1550 O   0  0  0  0  0  0  0  0  0  0  0  0
  140.2610   72.8100  222.0980 C   0  0  0  0  0  0  0  0  0  0  0  0
  140.8570   72.3930  220.8530 N   0  0  0  0  0  0  0  0  0  0  0  0
  140.8130   73.3620  219.7790 C   0  0  0  0  0  0  0  0  0  0  0  0
  142.1150   73.5740  219.1510 C   0  0  0  0  0  0  0  0  0  0  0  0
  142.1570   74.2800  218.0940 O   0  0  0  0  0  0  0  0  0  0  0  0
  143.3510   73.0560  219.6180 N   0  0  0  0  0  0  0  0  0  0  0  0
  144.0300   73.6420  220.7780 C   0  0  0  0  0  0  0  0  0  0  0  0
  145.4120   73.1040  220.8370 C   0  0  2  0  0  0  0  0  0  0  0  0
  146.3620   74.1480  220.9560 O   0  0  0  0  0  0  0  0  0  0  0  0
  145.6120   72.3900  219.5470 C   0  0  0  0  0  0  0  0  0  0  0  0
  144.1790   71.9920  219.1760 C   0  0  1  0  0  0  0  0  0  0  0  0
  143.9520   70.6490  219.7350 C   0  0  0  0  0  0  0  0  0  0  0  0
  142.7900   69.8340  219.2670 C   0  0  0  0  0  0  0  0  0  0  0  0
  143.6470   68.6150  219.6630 C   0  0  0  0  0  0  0  0  0  0  0  0
  144.8290   69.5040  219.2380 C   0  0  0  0  0  0  0  0  0  0  0  0
  140.2700   71.8830  223.2250 C   0  0  0  0  0  0  0  0  0  0  0  0
  139.7930   70.5940  222.9740 C   0  0  0  0  0  0  0  0  0  0  0  0
  139.7610   69.6550  223.9640 C   0  0  0  0  0  0  0  0  0  0  0  0
  140.2020   69.9890  225.2110 C   0  0  0  0  0  0  0  0  0  0  0  0
  140.1840   69.0720  226.2320 C   0  0  0  0  0  0  0  0  0  0  0  0
  140.6220   69.3810  227.4960 C   0  0  0  0  0  0  0  0  0  0  0  0
  140.5850   68.1820  228.7780 Cl  0  0  0  0  0  0  0  0  0  0  0  0
  141.0870   70.6680  227.7080 C   0  0  0  0  0  0  0  0  0  0  0  0
  141.1090   71.6090  226.6800 C   0  0  0  0  0  0  0  0  0  0  0  0
  140.6660   71.2790  225.4160 C   0  0  0  0  0  0  0  0  0  0  0  0
  140.6970   72.2030  224.4390 N   0  0  0  0  0  0  0  0  0  0  0  0
  141.2800   71.4490  220.7780 H   0  0  0  0  0  0  0  0  0  0  0  0
  140.1079   73.0058  219.0135 H   0  0  0  0  0  0  0  0  0  0  0  0
  140.4956   74.3216  220.2130 H   0  0  0  0  0  0  0  0  0  0  0  0
  144.0622   74.7367  220.6750 H   0  0  0  0  0  0  0  0  0  0  0  0
  143.4872   73.3876  221.7003 H   0  0  0  0  0  0  0  0  0  0  0  0
  145.5457   72.4471  221.7092 H   0  0  0  0  0  0  0  0  0  0  0  0
  146.4470   74.5280  220.0420 H   0  0  0  0  0  0  0  0  0  0  0  0
  146.0518   73.0531  218.7874 H   0  0  0  0  0  0  0  0  0  0  0  0
  146.3048   71.5383  219.6148 H   0  0  0  0  0  0  0  0  0  0  0  0
  143.9529   71.8803  218.1053 H   0  0  0  0  0  0  0  0  0  0  0  0
  144.0009   71.0364  220.7634 H   0  0  0  0  0  0  0  0  0  0  0  0
  141.8649   69.9630  219.8480 H   0  0  0  0  0  0  0  0  0  0  0  0
  142.3425   69.9503  218.2689 H   0  0  0  0  0  0  0  0  0  0  0  0
  143.6193   68.3460  220.7292 H   0  0  0  0  0  0  0  0  0  0  0  0
  143.4783   67.6017  219.2696 H   0  0  0  0  0  0  0  0  0  0  0  0
  145.7615   69.3474  219.8000 H   0  0  0  0  0  0  0  0  0  0  0  0
  145.2761   69.4765  218.2333 H   0  0  0  0  0  0  0  0  0  0  0  0
  139.4388   70.3327  221.9659 H   0  0  0  0  0  0  0  0  0  0  0  0
  139.3845   68.6420  223.7590 H   0  0  0  0  0  0  0  0  0  0  0  0
  139.8071   68.0583  226.0314 H   0  0  0  0  0  0  0  0  0  0  0  0
  141.4462   70.9534  228.7077 H   0  0  0  0  0  0  0  0  0  0  0  0
  141.4831   72.6242  226.8785 H   0  0  0  0  0  0  0  0  0  0  0  0
  1  2  2  0
  2  3  1  0
  3  4  1  0
  4  5  1  0
  5  6  2  0
  5  7  1  0
  7  8  1  0
  8  9  1  0
  9 10  1  0
  9 11  1  0
 11 12  1  0
 12 13  1  0
 13 14  1  0
 14 15  1  0
 15 16  1  0
  2 17  1  0
 17 18  2  0
 18 19  1  0
 19 20  2  0
 20 21  1  0
 21 22  2  0
 22 23  1  0
 22 24  1  0
 24 25  2  0
 25 26  1  0
 26 27  2  0
 12  7  1  0
 16 13  1  0
 27 17  1  0
 26 20  1  0
  3 28  1  0
  4 29  1  0
  4 30  1  0
  8 31  1  0
  8 32  1  0
  9 33  1  1
 10 34  1  0
 11 35  1  0
 11 36  1  0
 12 37  1  6
 13 38  1  0
 14 39  1  0
 14 40  1  0
 15 41  1  0
 15 42  1  0
 16 43  1  0
 16 44  1  0
 18 45  1  0
 19 46  1  0
 21 47  1  0
 24 48  1  0
 25 49  1  0
M  END
>  <smiles>  (35) 
O=C(NCC(=O)N1C[C@H](O)C[C@H]1C1CCC1)c1ccc2cc(Cl)ccc2n1

>  <score_type>  (35) 
oracle

>  <origin>  (35) 
autodockgpu

>  <m_score__min__energy>  (35) 
-8.1300000000000008

>  <m_primary>  (35) 
energy

>  <rmsd>  (35) 
4.155068462188583

>  <m_score__min__rmsd>  (35) 
4.155068462188583

>  <meeko>  (35) 
{"free_energy": -7.16, "intermolecular_energy": -8.95, "internal_energy": -1.45, "cluster_size": 1, "cluster_id": 5, "rank_in_cluster": 1}

>  <energy>  (35) 
-7.46

>  <cluster_rmsd>  (35) 
0.28

>  <cluster>  (35) 
3

$$$$

     RDKit          3D

 49 52  0  0  0  0  0  0  0  0999 V2000
  138.8600   72.7420  220.8320 O   0  0  0  0  0  0  0  0  0  0  0  0
  139.7480   72.8220  221.7180 C   0  0  0  0  0  0  0  0  0  0  0  0
  140.7740   73.8230  221.5610 N   0  0  0  0  0  0  0  0  0  0  0  0
  140.6710   74.6480  220.3760 C   0  0  0  0  0  0  0  0  0  0  0  0
  141.5100   75.8420  220.4390 C   0  0  0  0  0  0  0  0  0  0  0  0
  142.5500   75.8760  219.7080 O   0  0  0  0  0  0  0  0  0  0  0  0
  141.2700   76.9770  221.2550 N   0  0  0  0  0  0  0  0  0  0  0  0
  141.7880   78.2990  220.8870 C   0  0  0  0  0  0  0  0  0  0  0  0
  141.6470   79.2020  222.0570 C   0  0  2  0  0  0  0  0  0  0  0  0
  142.8680   79.8600  222.3450 O   0  0  0  0  0  0  0  0  0  0  0  0
  141.2730   78.3190  223.1950 C   0  0  0  0  0  0  0  0  0  0  0  0
  140.5770   77.1550  222.4810 C   0  0  1  0  0  0  0  0  0  0  0  0
  139.1430   77.4820  222.4330 C   0  0  0  0  0  0  0  0  0  0  0  0
  138.4640   77.6700  221.1150 C   0  0  0  0  0  0  0  0  0  0  0  0
  137.1820   77.2400  221.8560 C   0  0  0  0  0  0  0  0  0  0  0  0
  138.1390   76.3600  222.6790 C   0  0  0  0  0  0  0  0  0  0  0  0
  139.7900   71.9540  222.8910 C   0  0  0  0  0  0  0  0  0  0  0  0
  139.1090   70.7380  222.7900 C   0  0  0  0  0  0  0  0  0  0  0  0
  139.0900   69.8580  223.8330 C   0  0  0  0  0  0  0  0  0  0  0  0
  139.7460   70.1800  224.9860 C   0  0  0  0  0  0  0  0  0  0  0  0
  139.7470   69.3210  226.0560 C   0  0  0  0  0  0  0  0  0  0  0  0
  140.3980   69.6200  227.2280 C   0  0  0  0  0  0  0  0  0  0  0  0
  140.3800   68.4960  228.5770 Cl  0  0  0  0  0  0  0  0  0  0  0  0
  141.0610   70.8330  227.2920 C   0  0  0  0  0  0  0  0  0  0  0  0
  141.0660   71.7150  226.2120 C   0  0  0  0  0  0  0  0  0  0  0  0
  140.4060   71.3970  225.0430 C   0  0  0  0  0  0  0  0  0  0  0  0
  140.4250   72.2620  224.0140 N   0  0  0  0  0  0  0  0  0  0  0  0
  141.5180   73.9120  222.2770 H   0  0  0  0  0  0  0  0  0  0  0  0
  140.9765   74.0501  219.5047 H   0  0  0  0  0  0  0  0  0  0  0  0
  139.6262   74.9830  220.2972 H   0  0  0  0  0  0  0  0  0  0  0  0
  142.8486   78.2173  220.6069 H   0  0  0  0  0  0  0  0  0  0  0  0
  141.2249   78.6998  220.0312 H   0  0  0  0  0  0  0  0  0  0  0  0
  140.8979   79.9845  221.8660 H   0  0  0  0  0  0  0  0  0  0  0  0
  143.5770   79.2510  222.0090 H   0  0  0  0  0  0  0  0  0  0  0  0
  142.1625   77.9764  223.7440 H   0  0  0  0  0  0  0  0  0  0  0  0
  140.6461   78.8131  223.9519 H   0  0  0  0  0  0  0  0  0  0  0  0
  140.6139   76.1727  222.9748 H   0  0  0  0  0  0  0  0  0  0  0  0
  139.2825   78.3228  223.1284 H   0  0  0  0  0  0  0  0  0  0  0  0
  138.4597   78.7023  220.7350 H   0  0  0  0  0  0  0  0  0  0  0  0
  138.8103   77.1848  220.1905 H   0  0  0  0  0  0  0  0  0  0  0  0
  136.6733   78.0367  222.4186 H   0  0  0  0  0  0  0  0  0  0  0  0
  136.2884   76.8511  221.3458 H   0  0  0  0  0  0  0  0  0  0  0  0
  137.8517   76.2078  223.7299 H   0  0  0  0  0  0  0  0  0  0  0  0
  138.3422   75.3046  222.4450 H   0  0  0  0  0  0  0  0  0  0  0  0
  138.5815   70.4868  221.8580 H   0  0  0  0  0  0  0  0  0  0  0  0
  138.5532   68.9019  223.7457 H   0  0  0  0  0  0  0  0  0  0  0  0
  139.2104   68.3644  225.9727 H   0  0  0  0  0  0  0  0  0  0  0  0
  141.5951   71.1070  228.2138 H   0  0  0  0  0  0  0  0  0  0  0  0
  141.6009   72.6728  226.2928 H   0  0  0  0  0  0  0  0  0  0  0  0
  1  2  2  0
  2  3  1  0
  3  4  1  0
  4  5  1  0
  5  6  2  0
  5  7  1  0
  7  8  1  0
  8  9  1  0
  9 10  1  0
  9 11  1  0
 11 12  1  0
 12 13  1  0
 13 14  1  0
 14 15  1  0
 15 16  1  0
  2 17  1  0
 17 18  2  0
 18 19  1  0
 19 20  2  0
 20 21  1  0
 21 22  2  0
 22 23  1  0
 22 24  1  0
 24 25  2  0
 25 26  1  0
 26 27  2  0
 12  7  1  0
 16 13  1  0
 27 17  1  0
 26 20  1  0
  3 28  1  0
  4 29  1  0
  4 30  1  0
  8 31  1  0
  8 32  1  0
  9 33  1  6
 10 34  1  0
 11 35  1  0
 11 36  1  0
 12 37  1  1
 13 38  1  0
 14 39  1  0
 14 40  1  0
 15 41  1  0
 15 42  1  0
 16 43  1  0
 16 44  1  0
 18 45  1  0
 19 46  1  0
 21 47  1  0
 24 48  1  0
 25 49  1  0
M  END
>  <smiles>  (36) 
O=C(NCC(=O)N1C[C@H](O)C[C@H]1C1CCC1)c1ccc2cc(Cl)ccc2n1

>  <score_type>  (36) 
oracle

>  <origin>  (36) 
autodockgpu

>  <m_score__min__energy>  (36) 
-8.1300000000000008

>  <m_primary>  (36) 
energy

>  <rmsd>  (36) 
3.163846196979642

>  <m_score__min__rmsd>  (36) 
3.163846196979642

>  <meeko>  (36) 
{"free_energy": -7.23, "intermolecular_energy": -9.02, "internal_energy": -1.62, "cluster_size": 23, "cluster_id": 2, "rank_in_cluster": 20}

>  <energy>  (36) 
-7.34

>  <cluster_rmsd>  (36) 
0.72

>  <cluster>  (36) 
3

$$$$

     RDKit          3D

 49 52  0  0  0  0  0  0  0  0999 V2000
  139.4410   73.8730  220.1860 O   0  0  0  0  0  0  0  0  0  0  0  0
  140.1340   73.7690  221.2310 C   0  0  0  0  0  0  0  0  0  0  0  0
  141.1270   74.7830  221.4880 N   0  0  0  0  0  0  0  0  0  0  0  0
  141.2230   75.8350  220.4990 C   0  0  0  0  0  0  0  0  0  0  0  0
  140.4230   77.0090  220.8380 C   0  0  0  0  0  0  0  0  0  0  0  0
  139.2910   77.1410  220.2740 O   0  0  0  0  0  0  0  0  0  0  0  0
  140.8010   78.0300  221.7480 N   0  0  0  0  0  0  0  0  0  0  0  0
  141.7980   79.0410  221.3830 C   0  0  0  0  0  0  0  0  0  0  0  0
  142.2050   79.7680  222.6120 C   0  0  2  0  0  0  0  0  0  0  0  0
  143.6150   79.8040  222.7410 O   0  0  0  0  0  0  0  0  0  0  0  0
  141.6180   78.9950  223.7390 C   0  0  0  0  0  0  0  0  0  0  0  0
  140.4040   78.3340  223.0760 C   0  0  1  0  0  0  0  0  0  0  0  0
  139.2630   79.2420  223.2760 C   0  0  0  0  0  0  0  0  0  0  0  0
  139.4850   80.6030  223.8510 C   0  0  0  0  0  0  0  0  0  0  0  0
  138.2080   80.9980  223.0840 C   0  0  0  0  0  0  0  0  0  0  0  0
  138.6900   79.9580  222.0580 C   0  0  0  0  0  0  0  0  0  0  0  0
  139.9820   72.6780  222.1880 C   0  0  0  0  0  0  0  0  0  0  0  0
  139.0910   71.6600  221.8350 C   0  0  0  0  0  0  0  0  0  0  0  0
  138.8810   70.5970  222.6640 C   0  0  0  0  0  0  0  0  0  0  0  0
  139.5520   70.5360  223.8500 C   0  0  0  0  0  0  0  0  0  0  0  0
  139.3650   69.4820  224.7100 C   0  0  0  0  0  0  0  0  0  0  0  0
  140.0270   69.3960  225.9100 C   0  0  0  0  0  0  0  0  0  0  0  0
  139.7640   68.0330  226.9850 Cl  0  0  0  0  0  0  0  0  0  0  0  0
  140.9010   70.4220  226.2260 C   0  0  0  0  0  0  0  0  0  0  0  0
  141.0980   71.4980  225.3620 C   0  0  0  0  0  0  0  0  0  0  0  0
  140.4240   71.5670  224.1600 C   0  0  0  0  0  0  0  0  0  0  0  0
  140.6310   72.6140  223.3430 N   0  0  0  0  0  0  0  0  0  0  0  0
  141.7110   74.7230  222.3420 H   0  0  0  0  0  0  0  0  0  0  0  0
  142.2761   76.1409  220.4131 H   0  0  0  0  0  0  0  0  0  0  0  0
  140.8346   75.4335  219.5514 H   0  0  0  0  0  0  0  0  0  0  0  0
  142.6749   78.5519  220.9339 H   0  0  0  0  0  0  0  0  0  0  0  0
  141.3709   79.7447  220.6534 H   0  0  0  0  0  0  0  0  0  0  0  0
  141.8584   80.8117  222.5896 H   0  0  0  0  0  0  0  0  0  0  0  0
  143.9570   79.2060  222.0260 H   0  0  0  0  0  0  0  0  0  0  0  0
  142.3250   78.2425  224.1182 H   0  0  0  0  0  0  0  0  0  0  0  0
  141.3639   79.6114  224.6139 H   0  0  0  0  0  0  0  0  0  0  0  0
  140.0637   77.3768  223.4979 H   0  0  0  0  0  0  0  0  0  0  0  0
  138.7095   78.4706  223.8315 H   0  0  0  0  0  0  0  0  0  0  0  0
  139.4096   80.6650  224.9467 H   0  0  0  0  0  0  0  0  0  0  0  0
  140.4356   81.1468  223.7478 H   0  0  0  0  0  0  0  0  0  0  0  0
  137.2612   80.7574  223.5896 H   0  0  0  0  0  0  0  0  0  0  0  0
  137.9544   82.0359  222.8221 H   0  0  0  0  0  0  0  0  0  0  0  0
  137.8932   79.4174  221.5262 H   0  0  0  0  0  0  0  0  0  0  0  0
  139.2876   80.2153  221.1711 H   0  0  0  0  0  0  0  0  0  0  0  0
  138.5528   71.7168  220.8773 H   0  0  0  0  0  0  0  0  0  0  0  0
  138.1793   69.7991  222.3795 H   0  0  0  0  0  0  0  0  0  0  0  0
  138.6637   68.6824  224.4292 H   0  0  0  0  0  0  0  0  0  0  0  0
  141.4511   70.3875  227.1780 H   0  0  0  0  0  0  0  0  0  0  0  0
  141.7975   72.2998  225.6411 H   0  0  0  0  0  0  0  0  0  0  0  0
  1  2  2  0
  2  3  1  0
  3  4  1  0
  4  5  1  0
  5  6  2  0
  5  7  1  0
  7  8  1  0
  8  9  1  0
  9 10  1  0
  9 11  1  0
 11 12  1  0
 12 13  1  0
 13 14  1  0
 14 15  1  0
 15 16  1  0
  2 17  1  0
 17 18  2  0
 18 19  1  0
 19 20  2  0
 20 21  1  0
 21 22  2  0
 22 23  1  0
 22 24  1  0
 24 25  2  0
 25 26  1  0
 26 27  2  0
 12  7  1  0
 16 13  1  0
 27 17  1  0
 26 20  1  0
  3 28  1  0
  4 29  1  0
  4 30  1  0
  8 31  1  0
  8 32  1  0
  9 33  1  6
 10 34  1  0
 11 35  1  0
 11 36  1  0
 12 37  1  1
 13 38  1  0
 14 39  1  0
 14 40  1  0
 15 41  1  0
 15 42  1  0
 16 43  1  0
 16 44  1  0
 18 45  1  0
 19 46  1  0
 21 47  1  0
 24 48  1  0
 25 49  1  0
M  END
>  <smiles>  (37) 
O=C(NCC(=O)N1C[C@H](O)C[C@H]1C1CCC1)c1ccc2cc(Cl)ccc2n1

>  <score_type>  (37) 
oracle

>  <origin>  (37) 
autodockgpu

>  <m_score__min__energy>  (37) 
-8.1300000000000008

>  <m_primary>  (37) 
energy

>  <rmsd>  (37) 
3.9610498993756966

>  <m_score__min__rmsd>  (37) 
3.9610498993756966

>  <meeko>  (37) 
{"free_energy": -7.17, "intermolecular_energy": -8.96, "internal_energy": -1.31, "cluster_size": 23, "cluster_id": 2, "rank_in_cluster": 21}

>  <energy>  (37) 
-7.31

>  <cluster_rmsd>  (37) 
0.46

>  <cluster>  (37) 
3

$$$$

     RDKit          3D

 49 52  0  0  0  0  0  0  0  0999 V2000
  140.6970   72.5970  220.9980 O   0  0  0  0  0  0  0  0  0  0  0  0
  140.0840   72.7930  222.0780 C   0  0  0  0  0  0  0  0  0  0  0  0
  139.3050   74.0010  222.2040 N   0  0  0  0  0  0  0  0  0  0  0  0
  139.3120   74.8760  221.0510 C   0  0  0  0  0  0  0  0  0  0  0  0
  140.1440   76.0620  221.2430 C   0  0  0  0  0  0  0  0  0  0  0  0
  141.3440   76.0200  220.8240 O   0  0  0  0  0  0  0  0  0  0  0  0
  139.7300   77.2690  221.8630 N   0  0  0  0  0  0  0  0  0  0  0  0
  138.5370   77.3130  222.7160 C   0  0  0  0  0  0  0  0  0  0  0  0
  138.1880   78.7340  222.9650 C   0  0  2  0  0  0  0  0  0  0  0  0
  136.8230   78.9830  222.6800 O   0  0  0  0  0  0  0  0  0  0  0  0
  139.0450   79.5190  222.0350 C   0  0  0  0  0  0  0  0  0  0  0  0
  140.2490   78.5890  221.8480 C   0  0  1  0  0  0  0  0  0  0  0  0
  141.2400   78.9640  222.8700 C   0  0  0  0  0  0  0  0  0  0  0  0
  142.5740   79.4940  222.4550 C   0  0  0  0  0  0  0  0  0  0  0  0
  142.5730   80.2100  223.8210 C   0  0  0  0  0  0  0  0  0  0  0  0
  141.0520   80.2880  223.6040 C   0  0  0  0  0  0  0  0  0  0  0  0
  140.1220   71.8630  223.2020 C   0  0  0  0  0  0  0  0  0  0  0  0
  139.6200   70.5810  222.9670 C   0  0  0  0  0  0  0  0  0  0  0  0
  139.6120   69.6400  223.9550 C   0  0  0  0  0  0  0  0  0  0  0  0
  140.1030   69.9660  225.1860 C   0  0  0  0  0  0  0  0  0  0  0  0
  140.1110   69.0470  226.2050 C   0  0  0  0  0  0  0  0  0  0  0  0
  140.5980   69.3480  227.4530 C   0  0  0  0  0  0  0  0  0  0  0  0
  140.5930   68.1460  228.7330 Cl  0  0  0  0  0  0  0  0  0  0  0  0
  141.0880   70.6280  227.6500 C   0  0  0  0  0  0  0  0  0  0  0  0
  141.0840   71.5710  226.6230 C   0  0  0  0  0  0  0  0  0  0  0  0
  140.5900   71.2500  225.3760 C   0  0  0  0  0  0  0  0  0  0  0  0
  140.5970   72.1750  224.4010 N   0  0  0  0  0  0  0  0  0  0  0  0
  138.7880   74.1880  223.0830 H   0  0  0  0  0  0  0  0  0  0  0  0
  139.6954   74.3144  220.1863 H   0  0  0  0  0  0  0  0  0  0  0  0
  138.2793   75.2193  220.8905 H   0  0  0  0  0  0  0  0  0  0  0  0
  137.7005   76.8086  222.2102 H   0  0  0  0  0  0  0  0  0  0  0  0
  138.7362   76.8013  223.6692 H   0  0  0  0  0  0  0  0  0  0  0  0
  138.3500   79.0036  224.0191 H   0  0  0  0  0  0  0  0  0  0  0  0
  136.5060   79.5690  223.4160 H   0  0  0  0  0  0  0  0  0  0  0  0
  138.5319   79.7053  221.0800 H   0  0  0  0  0  0  0  0  0  0  0  0
  139.3106   80.5173  222.4131 H   0  0  0  0  0  0  0  0  0  0  0  0
  140.7983   78.6684  220.8983 H   0  0  0  0  0  0  0  0  0  0  0  0
  141.1427   77.9868  223.3655 H   0  0  0  0  0  0  0  0  0  0  0  0
  143.3590   78.7343  222.3264 H   0  0  0  0  0  0  0  0  0  0  0  0
  142.7374   80.0221  221.5040 H   0  0  0  0  0  0  0  0  0  0  0  0
  142.8963   79.5964  224.6748 H   0  0  0  0  0  0  0  0  0  0  0  0
  143.1989   81.0859  224.0469 H   0  0  0  0  0  0  0  0  0  0  0  0
  140.4430   80.2367  224.5186 H   0  0  0  0  0  0  0  0  0  0  0  0
  140.5480   81.1594  223.1605 H   0  0  0  0  0  0  0  0  0  0  0  0
  139.2258   70.3266  221.9721 H   0  0  0  0  0  0  0  0  0  0  0  0
  139.2152   68.6324  223.7620 H   0  0  0  0  0  0  0  0  0  0  0  0
  139.7151   68.0382  226.0162 H   0  0  0  0  0  0  0  0  0  0  0  0
  141.4883   70.9063  228.6361 H   0  0  0  0  0  0  0  0  0  0  0  0
  141.4787   72.5807  226.8091 H   0  0  0  0  0  0  0  0  0  0  0  0
  1  2  2  0
  2  3  1  0
  3  4  1  0
  4  5  1  0
  5  6  2  0
  5  7  1  0
  7  8  1  0
  8  9  1  0
  9 10  1  0
  9 11  1  0
 11 12  1  0
 12 13  1  0
 13 14  1  0
 14 15  1  0
 15 16  1  0
  2 17  1  0
 17 18  2  0
 18 19  1  0
 19 20  2  0
 20 21  1  0
 21 22  2  0
 22 23  1  0
 22 24  1  0
 24 25  2  0
 25 26  1  0
 26 27  2  0
 12  7  1  0
 16 13  1  0
 27 17  1  0
 26 20  1  0
  3 28  1  0
  4 29  1  0
  4 30  1  0
  8 31  1  0
  8 32  1  0
  9 33  1  1
 10 34  1  0
 11 35  1  0
 11 36  1  0
 12 37  1  6
 13 38  1  0
 14 39  1  0
 14 40  1  0
 15 41  1  0
 15 42  1  0
 16 43  1  0
 16 44  1  0
 18 45  1  0
 19 46  1  0
 21 47  1  0
 24 48  1  0
 25 49  1  0
M  END
>  <smiles>  (38) 
O=C(NCC(=O)N1C[C@H](O)C[C@H]1C1CCC1)c1ccc2cc(Cl)ccc2n1

>  <score_type>  (38) 
oracle

>  <origin>  (38) 
autodockgpu

>  <m_score__min__energy>  (38) 
-8.1300000000000008

>  <m_primary>  (38) 
energy

>  <rmsd>  (38) 
3.0171469238806514

>  <m_score__min__rmsd>  (38) 
3.0171469238806514

>  <meeko>  (38) 
{"free_energy": -7.82, "intermolecular_energy": -9.61, "internal_energy": -1.09, "cluster_size": 23, "cluster_id": 2, "rank_in_cluster": 5}

>  <energy>  (38) 
-7.27

>  <cluster_rmsd>  (38) 
0.76

>  <cluster>  (38) 
3

$$$$

     RDKit          3D

 49 52  0  0  0  0  0  0  0  0999 V2000
  133.9150   69.4800  226.5400 O   0  0  0  0  0  0  0  0  0  0  0  0
  134.3150   70.5820  226.0860 C   0  0  0  0  0  0  0  0  0  0  0  0
  135.4250   70.5710  225.1650 N   0  0  0  0  0  0  0  0  0  0  0  0
  135.9710   69.2670  224.8540 C   0  0  0  0  0  0  0  0  0  0  0  0
  137.0410   69.3210  223.8600 C   0  0  0  0  0  0  0  0  0  0  0  0
  137.0090   68.4810  222.9060 O   0  0  0  0  0  0  0  0  0  0  0  0
  138.1270   70.2340  223.8660 N   0  0  0  0  0  0  0  0  0  0  0  0
  138.0400   71.5210  223.1680 C   0  0  0  0  0  0  0  0  0  0  0  0
  139.4010   72.1080  223.0910 C   0  0  2  0  0  0  0  0  0  0  0  0
  139.7170   72.4950  221.7660 O   0  0  0  0  0  0  0  0  0  0  0  0
  140.3240   71.0250  223.5300 C   0  0  0  0  0  0  0  0  0  0  0  0
  139.4220   70.1890  224.4450 C   0  0  1  0  0  0  0  0  0  0  0  0
  139.5980   70.7130  225.8100 C   0  0  0  0  0  0  0  0  0  0  0  0
  139.9610   69.7850  226.9230 C   0  0  0  0  0  0  0  0  0  0  0  0
  140.5910   71.0280  227.5840 C   0  0  0  0  0  0  0  0  0  0  0  0
  140.8900   71.4540  226.1360 C   0  0  0  0  0  0  0  0  0  0  0  0
  133.7140   71.8630  226.4440 C   0  0  0  0  0  0  0  0  0  0  0  0
  132.5390   71.8090  227.1990 C   0  0  0  0  0  0  0  0  0  0  0  0
  131.9030   72.9530  227.5830 C   0  0  0  0  0  0  0  0  0  0  0  0
  132.4280   74.1600  227.2210 C   0  0  0  0  0  0  0  0  0  0  0  0
  131.8150   75.3310  227.5880 C   0  0  0  0  0  0  0  0  0  0  0  0
  132.3210   76.5590  227.2360 C   0  0  0  0  0  0  0  0  0  0  0  0
  131.5100   78.0380  227.7250 Cl  0  0  0  0  0  0  0  0  0  0  0  0
  133.4860   76.5730  226.4890 C   0  0  0  0  0  0  0  0  0  0  0  0
  134.1170   75.3890  226.1090 C   0  0  0  0  0  0  0  0  0  0  0  0
  133.5940   74.1660  226.4720 C   0  0  0  0  0  0  0  0  0  0  0  0
  134.2200   73.0380  226.0940 N   0  0  0  0  0  0  0  0  0  0  0  0
  135.7760   71.4650  224.7740 H   0  0  0  0  0  0  0  0  0  0  0  0
  136.3722   68.8250  225.7779 H   0  0  0  0  0  0  0  0  0  0  0  0
  135.1569   68.6607  224.4302 H   0  0  0  0  0  0  0  0  0  0  0  0
  137.6445   71.3667  222.1532 H   0  0  0  0  0  0  0  0  0  0  0  0
  137.3669   72.2000  223.7120 H   0  0  0  0  0  0  0  0  0  0  0  0
  139.4796   73.0096  223.7162 H   0  0  0  0  0  0  0  0  0  0  0  0
  139.6030   71.6720  221.2210 H   0  0  0  0  0  0  0  0  0  0  0  0
  140.6827   70.4342  222.6742 H   0  0  0  0  0  0  0  0  0  0  0  0
  141.2365   71.3924  224.0222 H   0  0  0  0  0  0  0  0  0  0  0  0
  139.6567   69.1181  224.5345 H   0  0  0  0  0  0  0  0  0  0  0  0
  138.6168   71.2092  225.7777 H   0  0  0  0  0  0  0  0  0  0  0  0
  139.1085   69.3493  227.4648 H   0  0  0  0  0  0  0  0  0  0  0  0
  140.5148   68.8481  226.7630 H   0  0  0  0  0  0  0  0  0  0  0  0
  139.8909   71.6766  228.1309 H   0  0  0  0  0  0  0  0  0  0  0  0
  141.3580   70.9733  228.3706 H   0  0  0  0  0  0  0  0  0  0  0  0
  140.8702   72.5381  225.9508 H   0  0  0  0  0  0  0  0  0  0  0  0
  141.8466   71.2530  225.6315 H   0  0  0  0  0  0  0  0  0  0  0  0
  132.1223   70.8326  227.4869 H   0  0  0  0  0  0  0  0  0  0  0  0
  130.9785   72.9036  228.1770 H   0  0  0  0  0  0  0  0  0  0  0  0
  130.8904   75.2855  228.1821 H   0  0  0  0  0  0  0  0  0  0  0  0
  133.9227   77.5370  226.1892 H   0  0  0  0  0  0  0  0  0  0  0  0
  135.0411   75.4311  225.5138 H   0  0  0  0  0  0  0  0  0  0  0  0
  1  2  2  0
  2  3  1  0
  3  4  1  0
  4  5  1  0
  5  6  2  0
  5  7  1  0
  7  8  1  0
  8  9  1  0
  9 10  1  0
  9 11  1  0
 11 12  1  0
 12 13  1  0
 13 14  1  0
 14 15  1  0
 15 16  1  0
  2 17  1  0
 17 18  2  0
 18 19  1  0
 19 20  2  0
 20 21  1  0
 21 22  2  0
 22 23  1  0
 22 24  1  0
 24 25  2  0
 25 26  1  0
 26 27  2  0
 12  7  1  0
 16 13  1  0
 27 17  1  0
 26 20  1  0
  3 28  1  0
  4 29  1  0
  4 30  1  0
  8 31  1  0
  8 32  1  0
  9 33  1  1
 10 34  1  0
 11 35  1  0
 11 36  1  0
 12 37  1  1
 13 38  1  0
 14 39  1  0
 14 40  1  0
 15 41  1  0
 15 42  1  0
 16 43  1  0
 16 44  1  0
 18 45  1  0
 19 46  1  0
 21 47  1  0
 24 48  1  0
 25 49  1  0
M  END
>  <smiles>  (39) 
O=C(NCC(=O)N1C[C@H](O)C[C@H]1C1CCC1)c1ccc2cc(Cl)ccc2n1

>  <score_type>  (39) 
oracle

>  <origin>  (39) 
autodockgpu

>  <m_score__min__energy>  (39) 
-8.1300000000000008

>  <m_primary>  (39) 
energy

>  <rmsd>  (39) 
7.917792710760086

>  <m_score__min__rmsd>  (39) 
7.917792710760086

>  <meeko>  (39) 
{"free_energy": -6.94, "intermolecular_energy": -8.73, "internal_energy": -1.4, "cluster_size": 7, "cluster_id": 4, "rank_in_cluster": 7}

>  <energy>  (39) 
-7.13

>  <cluster_rmsd>  (39) 
1.58

>  <cluster>  (39) 
3

$$$$

     RDKit          3D

 49 52  0  0  0  0  0  0  0  0999 V2000
  140.3620   72.5140  220.8670 O   0  0  0  0  0  0  0  0  0  0  0  0
  140.0070   72.8180  222.0340 C   0  0  0  0  0  0  0  0  0  0  0  0
  139.5210   74.1560  222.2670 N   0  0  0  0  0  0  0  0  0  0  0  0
  139.4930   75.0250  221.1100 C   0  0  0  0  0  0  0  0  0  0  0  0
  140.6660   75.8900  221.0200 C   0  0  0  0  0  0  0  0  0  0  0  0
  140.7120   76.9100  221.7780 O   0  0  0  0  0  0  0  0  0  0  0  0
  141.7700   75.6960  220.1500 N   0  0  0  0  0  0  0  0  0  0  0  0
  142.4610   76.8330  219.5340 C   0  0  0  0  0  0  0  0  0  0  0  0
  143.3500   76.3210  218.4610 C   0  0  2  0  0  0  0  0  0  0  0  0
  143.1390   77.0170  217.2460 O   0  0  0  0  0  0  0  0  0  0  0  0
  142.9770   74.8900  218.2900 C   0  0  0  0  0  0  0  0  0  0  0  0
  142.4340   74.5330  219.6790 C   0  0  1  0  0  0  0  0  0  0  0  0
  143.5680   74.0090  220.4570 C   0  0  0  0  0  0  0  0  0  0  0  0
  143.6230   72.5580  220.8090 C   0  0  0  0  0  0  0  0  0  0  0  0
  145.1510   72.7560  220.8530 C   0  0  0  0  0  0  0  0  0  0  0  0
  144.8930   73.7840  219.7370 C   0  0  0  0  0  0  0  0  0  0  0  0
  140.0630   71.8870  223.1570 C   0  0  0  0  0  0  0  0  0  0  0  0
  139.5700   70.6000  222.9240 C   0  0  0  0  0  0  0  0  0  0  0  0
  139.5800   69.6580  223.9110 C   0  0  0  0  0  0  0  0  0  0  0  0
  140.0770   69.9870  225.1380 C   0  0  0  0  0  0  0  0  0  0  0  0
  140.1010   69.0670  226.1560 C   0  0  0  0  0  0  0  0  0  0  0  0
  140.5960   69.3700  227.4010 C   0  0  0  0  0  0  0  0  0  0  0  0
  140.6120   68.1670  228.6790 Cl  0  0  0  0  0  0  0  0  0  0  0  0
  141.0750   70.6550  227.5950 C   0  0  0  0  0  0  0  0  0  0  0  0
  141.0540   71.5990  226.5700 C   0  0  0  0  0  0  0  0  0  0  0  0
  140.5540   71.2750  225.3260 C   0  0  0  0  0  0  0  0  0  0  0  0
  140.5450   72.2020  224.3520 N   0  0  0  0  0  0  0  0  0  0  0  0
  139.2210   74.4340  223.2200 H   0  0  0  0  0  0  0  0  0  0  0  0
  139.4459   74.4023  220.2045 H   0  0  0  0  0  0  0  0  0  0  0  0
  138.6106   75.6747  221.2066 H   0  0  0  0  0  0  0  0  0  0  0  0
  141.7233   77.5268  219.1046 H   0  0  0  0  0  0  0  0  0  0  0  0
  143.0540   77.3676  220.2907 H   0  0  0  0  0  0  0  0  0  0  0  0
  144.4093   76.4535  218.7263 H   0  0  0  0  0  0  0  0  0  0  0  0
  142.8860   77.9390  217.5150 H   0  0  0  0  0  0  0  0  0  0  0  0
  142.2051   74.7681  217.5158 H   0  0  0  0  0  0  0  0  0  0  0  0
  143.8102   74.2510  217.9622 H   0  0  0  0  0  0  0  0  0  0  0  0
  141.6798   73.7339  219.7311 H   0  0  0  0  0  0  0  0  0  0  0  0
  143.4313   74.7795  221.2301 H   0  0  0  0  0  0  0  0  0  0  0  0
  143.1586   72.2927  221.7702 H   0  0  0  0  0  0  0  0  0  0  0  0
  143.1392   71.7778  220.2030 H   0  0  0  0  0  0  0  0  0  0  0  0
  145.5457   73.1697  221.7927 H   0  0  0  0  0  0  0  0  0  0  0  0
  145.8724   71.9305  220.7623 H   0  0  0  0  0  0  0  0  0  0  0  0
  145.5748   74.6471  219.7254 H   0  0  0  0  0  0  0  0  0  0  0  0
  144.9666   73.5454  218.6657 H   0  0  0  0  0  0  0  0  0  0  0  0
  139.1689   70.3434  221.9324 H   0  0  0  0  0  0  0  0  0  0  0  0
  139.1924   68.6465  223.7198 H   0  0  0  0  0  0  0  0  0  0  0  0
  139.7117   68.0553  225.9692 H   0  0  0  0  0  0  0  0  0  0  0  0
  141.4803   70.9362  228.5782 H   0  0  0  0  0  0  0  0  0  0  0  0
  141.4399   72.6124  226.7549 H   0  0  0  0  0  0  0  0  0  0  0  0
  1  2  2  0
  2  3  1  0
  3  4  1  0
  4  5  1  0
  5  6  2  0
  5  7  1  0
  7  8  1  0
  8  9  1  0
  9 10  1  0
  9 11  1  0
 11 12  1  0
 12 13  1  0
 13 14  1  0
 14 15  1  0
 15 16  1  0
  2 17  1  0
 17 18  2  0
 18 19  1  0
 19 20  2  0
 20 21  1  0
 21 22  2  0
 22 23  1  0
 22 24  1  0
 24 25  2  0
 25 26  1  0
 26 27  2  0
 12  7  1  0
 16 13  1  0
 27 17  1  0
 26 20  1  0
  3 28  1  0
  4 29  1  0
  4 30  1  0
  8 31  1  0
  8 32  1  0
  9 33  1  1
 10 34  1  0
 11 35  1  0
 11 36  1  0
 12 37  1  6
 13 38  1  0
 14 39  1  0
 14 40  1  0
 15 41  1  0
 15 42  1  0
 16 43  1  0
 16 44  1  0
 18 45  1  0
 19 46  1  0
 21 47  1  0
 24 48  1  0
 25 49  1  0
M  END
>  <smiles>  (40) 
O=C(NCC(=O)N1C[C@H](O)C[C@H]1C1CCC1)c1ccc2cc(Cl)ccc2n1

>  <score_type>  (40) 
oracle

>  <origin>  (40) 
autodockgpu

>  <m_score__min__energy>  (40) 
-8.1300000000000008

>  <m_primary>  (40) 
energy

>  <rmsd>  (40) 
2.487207427486498

>  <m_score__min__rmsd>  (40) 
2.487207427486498

>  <meeko>  (40) 
{"free_energy": -7.34, "intermolecular_energy": -9.13, "internal_energy": -1.59, "cluster_size": 13, "cluster_id": 3, "rank_in_cluster": 8}

>  <energy>  (40) 
-6.37

>  <cluster_rmsd>  (40) 
1.86

>  <cluster>  (40) 
3

$$$$

     RDKit          3D

 49 52  0  0  0  0  0  0  0  0999 V2000
  140.3680   72.5390  220.8680 O   0  0  0  0  0  0  0  0  0  0  0  0
  140.0380   72.8600  222.0380 C   0  0  0  0  0  0  0  0  0  0  0  0
  139.5810   74.2090  222.2660 N   0  0  0  0  0  0  0  0  0  0  0  0
  139.5500   75.0680  221.1000 C   0  0  0  0  0  0  0  0  0  0  0  0
  140.7530   75.8860  220.9650 C   0  0  0  0  0  0  0  0  0  0  0  0
  141.8790   75.2940  220.9800 O   0  0  0  0  0  0  0  0  0  0  0  0
  140.7790   77.2970  220.8200 N   0  0  0  0  0  0  0  0  0  0  0  0
  139.5800   78.0410  220.4180 C   0  0  0  0  0  0  0  0  0  0  0  0
  139.9830   79.4230  220.0570 C   0  0  2  0  0  0  0  0  0  0  0  0
  139.4710   79.7890  218.7880 O   0  0  0  0  0  0  0  0  0  0  0  0
  141.4700   79.4020  220.0100 C   0  0  0  0  0  0  0  0  0  0  0  0
  141.8040   78.2650  220.9830 C   0  0  1  0  0  0  0  0  0  0  0  0
  141.9840   78.8780  222.3080 C   0  0  0  0  0  0  0  0  0  0  0  0
  142.1450   80.3590  222.4300 C   0  0  0  0  0  0  0  0  0  0  0  0
  141.5630   80.1790  223.8460 C   0  0  0  0  0  0  0  0  0  0  0  0
  140.7580   79.0370  223.2020 C   0  0  0  0  0  0  0  0  0  0  0  0
  140.0940   71.9390  223.1690 C   0  0  0  0  0  0  0  0  0  0  0  0
  139.5870   70.6550  222.9520 C   0  0  0  0  0  0  0  0  0  0  0  0
  139.5960   69.7220  223.9470 C   0  0  0  0  0  0  0  0  0  0  0  0
  140.1070   70.0570  225.1670 C   0  0  0  0  0  0  0  0  0  0  0  0
  140.1310   69.1460  226.1930 C   0  0  0  0  0  0  0  0  0  0  0  0
  140.6390   69.4560  227.4310 C   0  0  0  0  0  0  0  0  0  0  0  0
  140.6550   68.2650  228.7200 Cl  0  0  0  0  0  0  0  0  0  0  0  0
  141.1330   70.7380  227.6090 C   0  0  0  0  0  0  0  0  0  0  0  0
  141.1130   71.6720  226.5750 C   0  0  0  0  0  0  0  0  0  0  0  0
  140.5980   71.3420  225.3390 C   0  0  0  0  0  0  0  0  0  0  0  0
  140.5900   72.2600  224.3560 N   0  0  0  0  0  0  0  0  0  0  0  0
  139.3010   74.5020  223.2200 H   0  0  0  0  0  0  0  0  0  0  0  0
  139.4507   74.4390  220.2031 H   0  0  0  0  0  0  0  0  0  0  0  0
  138.6966   75.7522  221.2164 H   0  0  0  0  0  0  0  0  0  0  0  0
  139.1132   77.5519  219.5503 H   0  0  0  0  0  0  0  0  0  0  0  0
  138.8551   78.0634  221.2451 H   0  0  0  0  0  0  0  0  0  0  0  0
  139.5941   80.1520  220.7832 H   0  0  0  0  0  0  0  0  0  0  0  0
  140.2540   80.1290  218.2800 H   0  0  0  0  0  0  0  0  0  0  0  0
  141.8347   79.1804  218.9961 H   0  0  0  0  0  0  0  0  0  0  0  0
  141.9356   80.3629  220.2743 H   0  0  0  0  0  0  0  0  0  0  0  0
  142.7426   77.7184  220.8093 H   0  0  0  0  0  0  0  0  0  0  0  0
  142.8112   78.1923  222.5437 H   0  0  0  0  0  0  0  0  0  0  0  0
  143.1833   80.7204  222.3943 H   0  0  0  0  0  0  0  0  0  0  0  0
  141.7281   81.0671  221.6987 H   0  0  0  0  0  0  0  0  0  0  0  0
  142.2850   79.8703  224.6163 H   0  0  0  0  0  0  0  0  0  0  0  0
  141.1024   80.9963  224.4204 H   0  0  0  0  0  0  0  0  0  0  0  0
  140.5425   78.1832  223.8613 H   0  0  0  0  0  0  0  0  0  0  0  0
  139.7370   79.1617  222.8120 H   0  0  0  0  0  0  0  0  0  0  0  0
  139.1754   70.3933  221.9661 H   0  0  0  0  0  0  0  0  0  0  0  0
  139.1965   68.7128  223.7682 H   0  0  0  0  0  0  0  0  0  0  0  0
  139.7310   68.1362  226.0186 H   0  0  0  0  0  0  0  0  0  0  0  0
  141.5493   71.0244  228.5861 H   0  0  0  0  0  0  0  0  0  0  0  0
  141.5120   72.6826  226.7464 H   0  0  0  0  0  0  0  0  0  0  0  0
  1  2  2  0
  2  3  1  0
  3  4  1  0
  4  5  1  0
  5  6  2  0
  5  7  1  0
  7  8  1  0
  8  9  1  0
  9 10  1  0
  9 11  1  0
 11 12  1  0
 12 13  1  0
 13 14  1  0
 14 15  1  0
 15 16  1  0
  2 17  1  0
 17 18  2  0
 18 19  1  0
 19 20  2  0
 20 21  1  0
 21 22  2  0
 22 23  1  0
 22 24  1  0
 24 25  2  0
 25 26  1  0
 26 27  2  0
 12  7  1  0
 16 13  1  0
 27 17  1  0
 26 20  1  0
  3 28  1  0
  4 29  1  0
  4 30  1  0
  8 31  1  0
  8 32  1  0
  9 33  1  1
 10 34  1  0
 11 35  1  0
 11 36  1  0
 12 37  1  6
 13 38  1  0
 14 39  1  0
 14 40  1  0
 15 41  1  0
 15 42  1  0
 16 43  1  0
 16 44  1  0
 18 45  1  0
 19 46  1  0
 21 47  1  0
 24 48  1  0
 25 49  1  0
M  END
>  <smiles>  (41) 
O=C(NCC(=O)N1C[C@H](O)C[C@H]1C1CCC1)c1ccc2cc(Cl)ccc2n1

>  <score_type>  (41) 
oracle

>  <origin>  (41) 
autodockgpu

>  <m_score__min__energy>  (41) 
-8.1300000000000008

>  <m_primary>  (41) 
energy

>  <rmsd>  (41) 
2.3160334713136614

>  <m_score__min__rmsd>  (41) 
2.3160334713136614

>  <meeko>  (41) 
{"free_energy": -7.44, "intermolecular_energy": -9.23, "internal_energy": -1.1, "cluster_size": 23, "cluster_id": 2, "rank_in_cluster": 15}

>  <energy>  (41) 
-6.24

>  <cluster_rmsd>  (41) 
1.88

>  <cluster>  (41) 
3

$$$$

     RDKit          3D

 49 52  0  0  0  0  0  0  0  0999 V2000
  140.4630   72.4720  220.7860 O   0  0  0  0  0  0  0  0  0  0  0  0
  140.1500   72.8330  221.9490 C   0  0  0  0  0  0  0  0  0  0  0  0
  139.7610   74.2070  222.1490 N   0  0  0  0  0  0  0  0  0  0  0  0
  139.7720   75.0420  220.9660 C   0  0  0  0  0  0  0  0  0  0  0  0
  140.9220   75.9420  220.9160 C   0  0  0  0  0  0  0  0  0  0  0  0
  141.0980   76.7360  221.8930 O   0  0  0  0  0  0  0  0  0  0  0  0
  141.8690   76.0130  219.8620 N   0  0  0  0  0  0  0  0  0  0  0  0
  142.5180   77.2800  219.5090 C   0  0  0  0  0  0  0  0  0  0  0  0
  143.2050   77.1100  218.2040 C   0  0  2  0  0  0  0  0  0  0  0  0
  142.8490   78.1420  217.3020 O   0  0  0  0  0  0  0  0  0  0  0  0
  142.7330   75.8010  217.6770 C   0  0  0  0  0  0  0  0  0  0  0  0
  142.3890   75.0430  218.9650 C   0  0  1  0  0  0  0  0  0  0  0  0
  143.5970   74.3020  219.3590 C   0  0  0  0  0  0  0  0  0  0  0  0
  144.4890   74.8440  220.4290 C   0  0  0  0  0  0  0  0  0  0  0  0
  144.8840   73.3730  220.6690 C   0  0  0  0  0  0  0  0  0  0  0  0
  143.4320   73.0780  220.2530 C   0  0  0  0  0  0  0  0  0  0  0  0
  140.1620   71.9330  223.0980 C   0  0  0  0  0  0  0  0  0  0  0  0
  139.6330   70.6560  222.8940 C   0  0  0  0  0  0  0  0  0  0  0  0
  139.5990   69.7430  223.9080 C   0  0  0  0  0  0  0  0  0  0  0  0
  140.0900   70.0920  225.1330 C   0  0  0  0  0  0  0  0  0  0  0  0
  140.0720   69.2010  226.1760 C   0  0  0  0  0  0  0  0  0  0  0  0
  140.5580   69.5250  227.4190 C   0  0  0  0  0  0  0  0  0  0  0  0
  140.5200   68.3590  228.7310 Cl  0  0  0  0  0  0  0  0  0  0  0  0
  141.0750   70.7990  227.5840 C   0  0  0  0  0  0  0  0  0  0  0  0
  141.0970   71.7130  226.5320 C   0  0  0  0  0  0  0  0  0  0  0  0
  140.6040   71.3690  225.2900 C   0  0  0  0  0  0  0  0  0  0  0  0
  140.6370   72.2670  224.2910 N   0  0  0  0  0  0  0  0  0  0  0  0
  139.4970   74.5330  223.0970 H   0  0  0  0  0  0  0  0  0  0  0  0
  139.7955   74.3928  220.0783 H   0  0  0  0  0  0  0  0  0  0  0  0
  138.8660   75.6652  220.9934 H   0  0  0  0  0  0  0  0  0  0  0  0
  141.7617   78.0747  219.4294 H   0  0  0  0  0  0  0  0  0  0  0  0
  143.2463   77.5593  220.2847 H   0  0  0  0  0  0  0  0  0  0  0  0
  144.2979   77.1486  218.3228 H   0  0  0  0  0  0  0  0  0  0  0  0
  143.6900   78.6470  217.1410 H   0  0  0  0  0  0  0  0  0  0  0  0
  141.8468   75.9240  217.0370 H   0  0  0  0  0  0  0  0  0  0  0  0
  143.4705   75.2864  217.0435 H   0  0  0  0  0  0  0  0  0  0  0  0
  141.6095   74.2699  218.8964 H   0  0  0  0  0  0  0  0  0  0  0  0
  143.9333   74.2377  218.3136 H   0  0  0  0  0  0  0  0  0  0  0  0
  145.3023   75.4941  220.0741 H   0  0  0  0  0  0  0  0  0  0  0  0
  144.1265   75.5035  221.2313 H   0  0  0  0  0  0  0  0  0  0  0  0
  145.6572   72.9767  219.9944 H   0  0  0  0  0  0  0  0  0  0  0  0
  145.3319   73.0105  221.6060 H   0  0  0  0  0  0  0  0  0  0  0  0
  143.2784   72.1260  219.7237 H   0  0  0  0  0  0  0  0  0  0  0  0
  142.6085   72.9615  220.9729 H   0  0  0  0  0  0  0  0  0  0  0  0
  139.2390   70.3831  221.9039 H   0  0  0  0  0  0  0  0  0  0  0  0
  139.1815   68.7392  223.7403 H   0  0  0  0  0  0  0  0  0  0  0  0
  139.6556   68.1962  226.0117 H   0  0  0  0  0  0  0  0  0  0  0  0
  141.4761   71.0954  228.5644 H   0  0  0  0  0  0  0  0  0  0  0  0
  141.5117   72.7190  226.6935 H   0  0  0  0  0  0  0  0  0  0  0  0
  1  2  2  0
  2  3  1  0
  3  4  1  0
  4  5  1  0
  5  6  2  0
  5  7  1  0
  7  8  1  0
  8  9  1  0
  9 10  1  0
  9 11  1  0
 11 12  1  0
 12 13  1  0
 13 14  1  0
 14 15  1  0
 15 16  1  0
  2 17  1  0
 17 18  2  0
 18 19  1  0
 19 20  2  0
 20 21  1  0
 21 22  2  0
 22 23  1  0
 22 24  1  0
 24 25  2  0
 25 26  1  0
 26 27  2  0
 12  7  1  0
 16 13  1  0
 27 17  1  0
 26 20  1  0
  3 28  1  0
  4 29  1  0
  4 30  1  0
  8 31  1  0
  8 32  1  0
  9 33  1  1
 10 34  1  0
 11 35  1  0
 11 36  1  0
 12 37  1  6
 13 38  1  0
 14 39  1  0
 14 40  1  0
 15 41  1  0
 15 42  1  0
 16 43  1  0
 16 44  1  0
 18 45  1  0
 19 46  1  0
 21 47  1  0
 24 48  1  0
 25 49  1  0
M  END
>  <smiles>  (42) 
O=C(NCC(=O)N1C[C@H](O)C[C@H]1C1CCC1)c1ccc2cc(Cl)ccc2n1

>  <score_type>  (42) 
oracle

>  <origin>  (42) 
autodockgpu

>  <m_score__min__energy>  (42) 
-8.1300000000000008

>  <m_primary>  (42) 
energy

>  <rmsd>  (42) 
2.4810407010212403

>  <m_score__min__rmsd>  (42) 
2.4810407010212403

>  <meeko>  (42) 
{"free_energy": -7.7, "intermolecular_energy": -9.49, "internal_energy": -1.63, "cluster_size": 13, "cluster_id": 3, "rank_in_cluster": 3}

>  <energy>  (42) 
-7.8

>  <cluster_rmsd>  (42) 
0.0

>  <cluster>  (42) 
4

$$$$

     RDKit          3D

 49 52  0  0  0  0  0  0  0  0999 V2000
  139.1080   71.8450  220.8510 O   0  0  0  0  0  0  0  0  0  0  0  0
  139.3840   72.2980  221.9920 C   0  0  0  0  0  0  0  0  0  0  0  0
  139.4980   73.7270  222.1420 N   0  0  0  0  0  0  0  0  0  0  0  0
  139.2760   74.5060  220.9420 C   0  0  0  0  0  0  0  0  0  0  0  0
  140.3410   74.3430  219.9550 C   0  0  0  0  0  0  0  0  0  0  0  0
  140.5530   75.3010  219.1460 O   0  0  0  0  0  0  0  0  0  0  0  0
  141.1670   73.1980  219.8130 N   0  0  0  0  0  0  0  0  0  0  0  0
  140.8770   72.1730  218.8040 C   0  0  0  0  0  0  0  0  0  0  0  0
  141.7080   70.9780  219.0950 C   0  0  2  0  0  0  0  0  0  0  0  0
  140.9180   69.8030  219.1320 O   0  0  0  0  0  0  0  0  0  0  0  0
  142.3010   71.2260  220.4370 C   0  0  0  0  0  0  0  0  0  0  0  0
  142.3310   72.7570  220.4950 C   0  0  1  0  0  0  0  0  0  0  0  0
  143.6450   73.1770  219.9820 C   0  0  0  0  0  0  0  0  0  0  0  0
  144.2470   74.4650  220.4420 C   0  0  0  0  0  0  0  0  0  0  0  0
  145.6010   73.7990  220.1220 C   0  0  0  0  0  0  0  0  0  0  0  0
  144.8890   72.5050  220.5520 C   0  0  0  0  0  0  0  0  0  0  0  0
  139.5950   71.4500  223.1610 C   0  0  0  0  0  0  0  0  0  0  0  0
  139.1530   70.1280  223.0600 C   0  0  0  0  0  0  0  0  0  0  0  0
  139.3050   69.2590  224.1000 C   0  0  0  0  0  0  0  0  0  0  0  0
  139.8960   69.6950  225.2510 C   0  0  0  0  0  0  0  0  0  0  0  0
  140.0640   68.8500  226.3180 C   0  0  0  0  0  0  0  0  0  0  0  0
  140.6550   69.2620  227.4870 C   0  0  0  0  0  0  0  0  0  0  0  0
  140.8550   68.1530  228.8330 Cl  0  0  0  0  0  0  0  0  0  0  0  0
  141.0790   70.5790  227.5520 C   0  0  0  0  0  0  0  0  0  0  0  0
  140.9130   71.4470  226.4740 C   0  0  0  0  0  0  0  0  0  0  0  0
  140.3170   71.0140  225.3080 C   0  0  0  0  0  0  0  0  0  0  0  0
  140.1680   71.8700  224.2820 N   0  0  0  0  0  0  0  0  0  0  0  0
  139.7230   74.1290  223.0710 H   0  0  0  0  0  0  0  0  0  0  0  0
  138.3252   74.1893  220.4884 H   0  0  0  0  0  0  0  0  0  0  0  0
  139.2558   75.5661  221.2348 H   0  0  0  0  0  0  0  0  0  0  0  0
  139.8114   71.9030  218.8449 H   0  0  0  0  0  0  0  0  0  0  0  0
  141.1074   72.5570  217.7993 H   0  0  0  0  0  0  0  0  0  0  0  0
  142.4716   70.8270  218.3177 H   0  0  0  0  0  0  0  0  0  0  0  0
  140.1090   70.0500  219.6520 H   0  0  0  0  0  0  0  0  0  0  0  0
  141.6706   70.8082  221.2358 H   0  0  0  0  0  0  0  0  0  0  0  0
  143.2861   70.7577  220.5797 H   0  0  0  0  0  0  0  0  0  0  0  0
  142.2700   73.2200  221.4909 H   0  0  0  0  0  0  0  0  0  0  0  0
  143.3157   73.0399  218.9414 H   0  0  0  0  0  0  0  0  0  0  0  0
  144.0006   75.3423  219.8258 H   0  0  0  0  0  0  0  0  0  0  0  0
  144.0190   74.9158  221.4191 H   0  0  0  0  0  0  0  0  0  0  0  0
  145.9082   73.8394  219.0665 H   0  0  0  0  0  0  0  0  0  0  0  0
  146.5579   74.1350  220.5480 H   0  0  0  0  0  0  0  0  0  0  0  0
  145.2130   71.5934  220.0285 H   0  0  0  0  0  0  0  0  0  0  0  0
  144.9419   72.0957  221.5717 H   0  0  0  0  0  0  0  0  0  0  0  0
  138.6766   69.7841  222.1301 H   0  0  0  0  0  0  0  0  0  0  0  0
  138.9557   68.2196  224.0126 H   0  0  0  0  0  0  0  0  0  0  0  0
  139.7146   67.8103  226.2348 H   0  0  0  0  0  0  0  0  0  0  0  0
  141.5560   70.9471  228.4723 H   0  0  0  0  0  0  0  0  0  0  0  0
  141.2607   72.4875  226.5540 H   0  0  0  0  0  0  0  0  0  0  0  0
  1  2  2  0
  2  3  1  0
  3  4  1  0
  4  5  1  0
  5  6  2  0
  5  7  1  0
  7  8  1  0
  8  9  1  0
  9 10  1  0
  9 11  1  0
 11 12  1  0
 12 13  1  0
 13 14  1  0
 14 15  1  0
 15 16  1  0
  2 17  1  0
 17 18  2  0
 18 19  1  0
 19 20  2  0
 20 21  1  0
 21 22  2  0
 22 23  1  0
 22 24  1  0
 24 25  2  0
 25 26  1  0
 26 27  2  0
 12  7  1  0
 16 13  1  0
 27 17  1  0
 26 20  1  0
  3 28  1  0
  4 29  1  0
  4 30  1  0
  8 31  1  0
  8 32  1  0
  9 33  1  6
 10 34  1  0
 11 35  1  0
 11 36  1  0
 12 37  1  1
 13 38  1  0
 14 39  1  0
 14 40  1  0
 15 41  1  0
 15 42  1  0
 16 43  1  0
 16 44  1  0
 18 45  1  0
 19 46  1  0
 21 47  1  0
 24 48  1  0
 25 49  1  0
M  END
>  <smiles>  (43) 
O=C(NCC(=O)N1C[C@H](O)C[C@H]1C1CCC1)c1ccc2cc(Cl)ccc2n1

>  <score_type>  (43) 
oracle

>  <origin>  (43) 
autodockgpu

>  <m_score__min__energy>  (43) 
-8.1300000000000008

>  <m_primary>  (43) 
energy

>  <rmsd>  (43) 
3.097439631845829

>  <m_score__min__rmsd>  (43) 
3.097439631845829

>  <meeko>  (43) 
{"free_energy": -6.24, "intermolecular_energy": -8.03, "internal_energy": -2.16, "cluster_size": 13, "cluster_id": 3, "rank_in_cluster": 13}

>  <energy>  (43) 
-7.77

>  <cluster_rmsd>  (43) 
0.07

>  <cluster>  (43) 
4

$$$$

     RDKit          3D

 49 52  0  0  0  0  0  0  0  0999 V2000
  140.0660   72.3870  220.7270 O   0  0  0  0  0  0  0  0  0  0  0  0
  139.9010   72.7720  221.9130 C   0  0  0  0  0  0  0  0  0  0  0  0
  139.6050   74.1660  222.1370 N   0  0  0  0  0  0  0  0  0  0  0  0
  139.5280   74.9910  220.9500 C   0  0  0  0  0  0  0  0  0  0  0  0
  140.5270   76.0560  220.9310 C   0  0  0  0  0  0  0  0  0  0  0  0
  140.5240   76.8910  221.8900 O   0  0  0  0  0  0  0  0  0  0  0  0
  141.5110   76.2480  219.9270 N   0  0  0  0  0  0  0  0  0  0  0  0
  142.2320   77.5190  219.8030 C   0  0  0  0  0  0  0  0  0  0  0  0
  142.9520   77.5280  218.5050 C   0  0  2  0  0  0  0  0  0  0  0  0
  142.6770   78.7110  217.7760 O   0  0  0  0  0  0  0  0  0  0  0  0
  142.4360   76.3480  217.7590 C   0  0  0  0  0  0  0  0  0  0  0  0
  142.0130   75.4110  218.8970 C   0  0  1  0  0  0  0  0  0  0  0  0
  143.1720   74.5530  219.1930 C   0  0  0  0  0  0  0  0  0  0  0  0
  144.2100   75.0120  220.1650 C   0  0  0  0  0  0  0  0  0  0  0  0
  144.4740   73.5110  220.3990 C   0  0  0  0  0  0  0  0  0  0  0  0
  142.9670   73.3630  220.1250 C   0  0  0  0  0  0  0  0  0  0  0  0
  139.9940   71.8820  223.0650 C   0  0  0  0  0  0  0  0  0  0  0  0
  139.5460   70.5710  222.8770 C   0  0  0  0  0  0  0  0  0  0  0  0
  139.5930   69.6630  223.8940 C   0  0  0  0  0  0  0  0  0  0  0  0
  140.0830   70.0500  225.1080 C   0  0  0  0  0  0  0  0  0  0  0  0
  140.1430   69.1650  226.1550 C   0  0  0  0  0  0  0  0  0  0  0  0
  140.6310   69.5260  227.3860 C   0  0  0  0  0  0  0  0  0  0  0  0
  140.6950   68.3670  228.7030 Cl  0  0  0  0  0  0  0  0  0  0  0  0
  141.0650   70.8330  227.5360 C   0  0  0  0  0  0  0  0  0  0  0  0
  141.0080   71.7410  226.4810 C   0  0  0  0  0  0  0  0  0  0  0  0
  140.5140   71.3590  225.2500 C   0  0  0  0  0  0  0  0  0  0  0  0
  140.4690   72.2520  224.2470 N   0  0  0  0  0  0  0  0  0  0  0  0
  139.4630   74.5110  223.1040 H   0  0  0  0  0  0  0  0  0  0  0  0
  139.6801   74.3516  220.0679 H   0  0  0  0  0  0  0  0  0  0  0  0
  138.5371   75.4685  220.9442 H   0  0  0  0  0  0  0  0  0  0  0  0
  141.5182   78.3552  219.8370 H   0  0  0  0  0  0  0  0  0  0  0  0
  142.9474   77.6286  220.6313 H   0  0  0  0  0  0  0  0  0  0  0  0
  144.0410   77.4895  218.6551 H   0  0  0  0  0  0  0  0  0  0  0  0
  143.5570   79.0120  217.4270 H   0  0  0  0  0  0  0  0  0  0  0  0
  141.5788   76.6194  217.1253 H   0  0  0  0  0  0  0  0  0  0  0  0
  143.1688   75.9046  217.0688 H   0  0  0  0  0  0  0  0  0  0  0  0
  141.1992   74.7020  218.6849 H   0  0  0  0  0  0  0  0  0  0  0  0
  143.4011   74.4421  218.1229 H   0  0  0  0  0  0  0  0  0  0  0  0
  145.0487   75.5704  219.7236 H   0  0  0  0  0  0  0  0  0  0  0  0
  143.9928   75.7146  220.9830 H   0  0  0  0  0  0  0  0  0  0  0  0
  145.1360   73.0289  219.6647 H   0  0  0  0  0  0  0  0  0  0  0  0
  144.9687   73.1152  221.2982 H   0  0  0  0  0  0  0  0  0  0  0  0
  142.6681   72.4258  219.6327 H   0  0  0  0  0  0  0  0  0  0  0  0
  142.2069   73.3410  220.9199 H   0  0  0  0  0  0  0  0  0  0  0  0
  139.1505   70.2678  221.8964 H   0  0  0  0  0  0  0  0  0  0  0  0
  139.2408   68.6327  223.7379 H   0  0  0  0  0  0  0  0  0  0  0  0
  139.7892   68.1346  226.0030 H   0  0  0  0  0  0  0  0  0  0  0  0
  141.4627   71.1605  228.5079 H   0  0  0  0  0  0  0  0  0  0  0  0
  141.3601   72.7724  226.6304 H   0  0  0  0  0  0  0  0  0  0  0  0
  1  2  2  0
  2  3  1  0
  3  4  1  0
  4  5  1  0
  5  6  2  0
  5  7  1  0
  7  8  1  0
  8  9  1  0
  9 10  1  0
  9 11  1  0
 11 12  1  0
 12 13  1  0
 13 14  1  0
 14 15  1  0
 15 16  1  0
  2 17  1  0
 17 18  2  0
 18 19  1  0
 19 20  2  0
 20 21  1  0
 21 22  2  0
 22 23  1  0
 22 24  1  0
 24 25  2  0
 25 26  1  0
 26 27  2  0
 12  7  1  0
 16 13  1  0
 27 17  1  0
 26 20  1  0
  3 28  1  0
  4 29  1  0
  4 30  1  0
  8 31  1  0
  8 32  1  0
  9 33  1  1
 10 34  1  0
 11 35  1  0
 11 36  1  0
 12 37  1  6
 13 38  1  0
 14 39  1  0
 14 40  1  0
 15 41  1  0
 15 42  1  0
 16 43  1  0
 16 44  1  0
 18 45  1  0
 19 46  1  0
 21 47  1  0
 24 48  1  0
 25 49  1  0
M  END
>  <smiles>  (44) 
O=C(NCC(=O)N1C[C@H](O)C[C@H]1C1CCC1)c1ccc2cc(Cl)ccc2n1

>  <score_type>  (44) 
oracle

>  <origin>  (44) 
autodockgpu

>  <m_score__min__energy>  (44) 
-8.1300000000000008

>  <m_primary>  (44) 
energy

>  <rmsd>  (44) 
2.353898613909472

>  <m_score__min__rmsd>  (44) 
2.353898613909472

>  <meeko>  (44) 
{"free_energy": -7.65, "intermolecular_energy": -9.44, "internal_energy": -1.6, "cluster_size": 13, "cluster_id": 3, "rank_in_cluster": 4}

>  <energy>  (44) 
-7.73

>  <cluster_rmsd>  (44) 
0.13

>  <cluster>  (44) 
4

$$$$

     RDKit          3D

 49 52  0  0  0  0  0  0  0  0999 V2000
  141.2310   73.3900  220.8510 O   0  0  0  0  0  0  0  0  0  0  0  0
  140.5150   74.2220  221.4650 C   0  0  0  0  0  0  0  0  0  0  0  0
  139.3920   73.7220  222.2190 N   0  0  0  0  0  0  0  0  0  0  0  0
  139.2040   72.2870  222.1890 C   0  0  0  0  0  0  0  0  0  0  0  0
  139.8130   71.6100  223.3320 C   0  0  0  0  0  0  0  0  0  0  0  0
  140.7050   72.2360  223.9870 O   0  0  0  0  0  0  0  0  0  0  0  0
  139.4990   70.3000  223.7790 N   0  0  0  0  0  0  0  0  0  0  0  0
  139.4810   69.1650  222.8500 C   0  0  0  0  0  0  0  0  0  0  0  0
  138.8320   68.0140  223.5260 C   0  0  2  0  0  0  0  0  0  0  0  0
  137.8080   67.4590  222.7190 O   0  0  0  0  0  0  0  0  0  0  0  0
  138.2420   68.5700  224.7730 C   0  0  0  0  0  0  0  0  0  0  0  0
  139.1520   69.7720  225.0490 C   0  0  1  0  0  0  0  0  0  0  0  0
  140.2330   69.2950  225.9280 C   0  0  0  0  0  0  0  0  0  0  0  0
  140.4200   69.9060  227.2780 C   0  0  0  0  0  0  0  0  0  0  0  0
  141.0470   68.5520  227.6650 C   0  0  0  0  0  0  0  0  0  0  0  0
  140.0340   67.9730  226.6620 C   0  0  0  0  0  0  0  0  0  0  0  0
  140.7650   75.6600  221.4510 C   0  0  0  0  0  0  0  0  0  0  0  0
  141.6410   76.1300  220.4690 C   0  0  0  0  0  0  0  0  0  0  0  0
  141.9390   77.4580  220.3750 C   0  0  0  0  0  0  0  0  0  0  0  0
  141.3690   78.3310  221.2550 C   0  0  0  0  0  0  0  0  0  0  0  0
  141.6450   79.6730  221.1920 C   0  0  0  0  0  0  0  0  0  0  0  0
  141.0860   80.5740  222.0650 C   0  0  0  0  0  0  0  0  0  0  0  0
  141.4610   82.2850  221.9540 Cl  0  0  0  0  0  0  0  0  0  0  0  0
  140.2230   80.0720  223.0240 C   0  0  0  0  0  0  0  0  0  0  0  0
  139.9350   78.7110  223.1000 C   0  0  0  0  0  0  0  0  0  0  0  0
  140.5060   77.8210  222.2130 C   0  0  0  0  0  0  0  0  0  0  0  0
  140.2140   76.5120  222.3050 N   0  0  0  0  0  0  0  0  0  0  0  0
  138.7850   74.3850  222.7370 H   0  0  0  0  0  0  0  0  0  0  0  0
  138.1248   72.0743  222.1892 H   0  0  0  0  0  0  0  0  0  0  0  0
  139.6955   71.9084  221.2806 H   0  0  0  0  0  0  0  0  0  0  0  0
  138.9131   69.4335  221.9470 H   0  0  0  0  0  0  0  0  0  0  0  0
  140.5080   68.9006  222.5577 H   0  0  0  0  0  0  0  0  0  0  0  0
  139.5560   67.2098  223.7240 H   0  0  0  0  0  0  0  0  0  0  0  0
  138.1580   66.5780  222.4240 H   0  0  0  0  0  0  0  0  0  0  0  0
  137.2000   68.8855  224.6158 H   0  0  0  0  0  0  0  0  0  0  0  0
  138.1974   67.8485  225.6021 H   0  0  0  0  0  0  0  0  0  0  0  0
  138.7102   70.6166  225.5982 H   0  0  0  0  0  0  0  0  0  0  0  0
  140.9798   69.4302  225.1318 H   0  0  0  0  0  0  0  0  0  0  0  0
  141.1064   70.7649  227.3109 H   0  0  0  0  0  0  0  0  0  0  0  0
  139.5969   70.3664  227.8442 H   0  0  0  0  0  0  0  0  0  0  0  0
  142.1051   68.4273  227.3912 H   0  0  0  0  0  0  0  0  0  0  0  0
  141.1401   68.2016  228.7035 H   0  0  0  0  0  0  0  0  0  0  0  0
  140.3694   67.0776  226.1182 H   0  0  0  0  0  0  0  0  0  0  0  0
  139.0468   67.5857  226.9543 H   0  0  0  0  0  0  0  0  0  0  0  0
  142.0962   75.4201  219.7627 H   0  0  0  0  0  0  0  0  0  0  0  0
  142.6300   77.8203  219.5996 H   0  0  0  0  0  0  0  0  0  0  0  0
  142.3357   80.0392  220.4181 H   0  0  0  0  0  0  0  0  0  0  0  0
  139.7548   80.7623  223.7412 H   0  0  0  0  0  0  0  0  0  0  0  0
  139.2461   78.3423  223.8742 H   0  0  0  0  0  0  0  0  0  0  0  0
  1  2  2  0
  2  3  1  0
  3  4  1  0
  4  5  1  0
  5  6  2  0
  5  7  1  0
  7  8  1  0
  8  9  1  0
  9 10  1  0
  9 11  1  0
 11 12  1  0
 12 13  1  0
 13 14  1  0
 14 15  1  0
 15 16  1  0
  2 17  1  0
 17 18  2  0
 18 19  1  0
 19 20  2  0
 20 21  1  0
 21 22  2  0
 22 23  1  0
 22 24  1  0
 24 25  2  0
 25 26  1  0
 26 27  2  0
 12  7  1  0
 16 13  1  0
 27 17  1  0
 26 20  1  0
  3 28  1  0
  4 29  1  0
  4 30  1  0
  8 31  1  0
  8 32  1  0
  9 33  1  1
 10 34  1  0
 11 35  1  0
 11 36  1  0
 12 37  1  1
 13 38  1  0
 14 39  1  0
 14 40  1  0
 15 41  1  0
 15 42  1  0
 16 43  1  0
 16 44  1  0
 18 45  1  0
 19 46  1  0
 21 47  1  0
 24 48  1  0
 25 49  1  0
M  END
>  <smiles>  (45) 
O=C(NCC(=O)N1C[C@H](O)C[C@H]1C1CCC1)c1ccc2cc(Cl)ccc2n1

>  <score_type>  (45) 
oracle

>  <origin>  (45) 
autodockgpu

>  <m_score__min__energy>  (45) 
-8.1300000000000008

>  <m_primary>  (45) 
energy

>  <rmsd>  (45) 
8.521733308244551

>  <m_score__min__rmsd>  (45) 
8.521733308244551

>  <meeko>  (45) 
{"free_energy": -7.16, "intermolecular_energy": -8.95, "internal_energy": -1.28, "cluster_size": 5, "cluster_id": 1, "rank_in_cluster": 4}

>  <energy>  (45) 
-7.64

>  <cluster_rmsd>  (45) 
0.75

>  <cluster>  (45) 
4

$$$$

     RDKit          3D

 49 52  0  0  0  0  0  0  0  0999 V2000
  135.0360   68.5160  225.3300 O   0  0  0  0  0  0  0  0  0  0  0  0
  135.1080   69.6620  224.8170 C   0  0  0  0  0  0  0  0  0  0  0  0
  135.8540   69.8090  223.5920 N   0  0  0  0  0  0  0  0  0  0  0  0
  136.4530   68.5980  223.0710 C   0  0  0  0  0  0  0  0  0  0  0  0
  137.9100   68.5970  223.1700 C   0  0  0  0  0  0  0  0  0  0  0  0
  138.5400   67.6170  222.6590 O   0  0  0  0  0  0  0  0  0  0  0  0
  138.6960   69.6000  223.7950 N   0  0  0  0  0  0  0  0  0  0  0  0
  138.4750   71.0220  223.5120 C   0  0  0  0  0  0  0  0  0  0  0  0
  139.6200   71.7940  224.0570 C   0  0  2  0  0  0  0  0  0  0  0  0
  140.1610   72.6650  223.0790 O   0  0  0  0  0  0  0  0  0  0  0  0
  140.6360   70.7760  224.4380 C   0  0  0  0  0  0  0  0  0  0  0  0
  139.7660   69.5470  224.7250 C   0  0  1  0  0  0  0  0  0  0  0  0
  139.4470   69.5770  226.1620 C   0  0  0  0  0  0  0  0  0  0  0  0
  139.8450   68.4340  227.0370 C   0  0  0  0  0  0  0  0  0  0  0  0
  139.8560   69.4740  228.1760 C   0  0  0  0  0  0  0  0  0  0  0  0
  140.3080   70.4460  227.0720 C   0  0  0  0  0  0  0  0  0  0  0  0
  134.4760   70.8420  225.3990 C   0  0  0  0  0  0  0  0  0  0  0  0
  133.4910   70.6100  226.3620 C   0  0  0  0  0  0  0  0  0  0  0  0
  132.8430   71.6480  226.9640 C   0  0  0  0  0  0  0  0  0  0  0  0
  133.1670   72.9270  226.6140 C   0  0  0  0  0  0  0  0  0  0  0  0
  132.5360   73.9960  227.1970 C   0  0  0  0  0  0  0  0  0  0  0  0
  132.8420   75.2930  226.8640 C   0  0  0  0  0  0  0  0  0  0  0  0
  132.0140   76.6380  227.6320 Cl  0  0  0  0  0  0  0  0  0  0  0  0
  133.8240   75.4850  225.9060 C   0  0  0  0  0  0  0  0  0  0  0  0
  134.4710   74.4070  225.3060 C   0  0  0  0  0  0  0  0  0  0  0  0
  134.1500   73.1110  225.6540 C   0  0  0  0  0  0  0  0  0  0  0  0
  134.7880   72.0870  225.0620 N   0  0  0  0  0  0  0  0  0  0  0  0
  135.9290   70.7420  223.1450 H   0  0  0  0  0  0  0  0  0  0  0  0
  136.0620   67.7407  223.6385 H   0  0  0  0  0  0  0  0  0  0  0  0
  136.1945   68.5344  222.0037 H   0  0  0  0  0  0  0  0  0  0  0  0
  138.4061   71.1778  222.4253 H   0  0  0  0  0  0  0  0  0  0  0  0
  137.5374   71.3580  223.9789 H   0  0  0  0  0  0  0  0  0  0  0  0
  139.3088   72.4193  224.9068 H   0  0  0  0  0  0  0  0  0  0  0  0
  139.5660   73.4600  223.0820 H   0  0  0  0  0  0  0  0  0  0  0  0
  141.3383   70.5845  223.6133 H   0  0  0  0  0  0  0  0  0  0  0  0
  141.2694   71.0779  225.2852 H   0  0  0  0  0  0  0  0  0  0  0  0
  140.2288   68.5609  224.5721 H   0  0  0  0  0  0  0  0  0  0  0  0
  138.3892   69.7948  225.9533 H   0  0  0  0  0  0  0  0  0  0  0  0
  139.0917   67.6388  227.1380 H   0  0  0  0  0  0  0  0  0  0  0  0
  140.7031   67.7826  226.8149 H   0  0  0  0  0  0  0  0  0  0  0  0
  138.8755   69.6927  228.6241 H   0  0  0  0  0  0  0  0  0  0  0  0
  140.4011   69.3332  229.1210 H   0  0  0  0  0  0  0  0  0  0  0  0
  139.9667   71.4849  227.1912 H   0  0  0  0  0  0  0  0  0  0  0  0
  141.3632   70.6782  226.8654 H   0  0  0  0  0  0  0  0  0  0  0  0
  133.2347   69.5766  226.6383 H   0  0  0  0  0  0  0  0  0  0  0  0
  132.0691   71.4570  227.7220 H   0  0  0  0  0  0  0  0  0  0  0  0
  131.7608   73.8090  227.9547 H   0  0  0  0  0  0  0  0  0  0  0  0
  134.0984   76.5092  225.6132 H   0  0  0  0  0  0  0  0  0  0  0  0
  135.2457   74.5909  224.5470 H   0  0  0  0  0  0  0  0  0  0  0  0
  1  2  2  0
  2  3  1  0
  3  4  1  0
  4  5  1  0
  5  6  2  0
  5  7  1  0
  7  8  1  0
  8  9  1  0
  9 10  1  0
  9 11  1  0
 11 12  1  0
 12 13  1  0
 13 14  1  0
 14 15  1  0
 15 16  1  0
  2 17  1  0
 17 18  2  0
 18 19  1  0
 19 20  2  0
 20 21  1  0
 21 22  2  0
 22 23  1  0
 22 24  1  0
 24 25  2  0
 25 26  1  0
 26 27  2  0
 12  7  1  0
 16 13  1  0
 27 17  1  0
 26 20  1  0
  3 28  1  0
  4 29  1  0
  4 30  1  0
  8 31  1  0
  8 32  1  0
  9 33  1  1
 10 34  1  0
 11 35  1  0
 11 36  1  0
 12 37  1  1
 13 38  1  0
 14 39  1  0
 14 40  1  0
 15 41  1  0
 15 42  1  0
 16 43  1  0
 16 44  1  0
 18 45  1  0
 19 46  1  0
 21 47  1  0
 24 48  1  0
 25 49  1  0
M  END
>  <smiles>  (46) 
O=C(NCC(=O)N1C[C@H](O)C[C@H]1C1CCC1)c1ccc2cc(Cl)ccc2n1

>  <score_type>  (46) 
oracle

>  <origin>  (46) 
autodockgpu

>  <m_score__min__energy>  (46) 
-8.1300000000000008

>  <m_primary>  (46) 
energy

>  <rmsd>  (46) 
7.511172176404331

>  <m_score__min__rmsd>  (46) 
7.511172176404331

>  <meeko>  (46) 
{"free_energy": -7.22, "intermolecular_energy": -9.01, "internal_energy": -1.56, "cluster_size": 7, "cluster_id": 4, "rank_in_cluster": 6}

>  <energy>  (46) 
-7.45

>  <cluster_rmsd>  (46) 
1.15

>  <cluster>  (46) 
4

$$$$

     RDKit          3D

 49 52  0  0  0  0  0  0  0  0999 V2000
  132.7070   69.7650  226.4720 O   0  0  0  0  0  0  0  0  0  0  0  0
  133.4270   70.7840  226.3150 C   0  0  0  0  0  0  0  0  0  0  0  0
  134.7310   70.6070  225.7250 N   0  0  0  0  0  0  0  0  0  0  0  0
  135.0810   69.2480  225.3690 C   0  0  0  0  0  0  0  0  0  0  0  0
  136.0920   69.1790  224.3170 C   0  0  0  0  0  0  0  0  0  0  0  0
  135.7870   68.5770  223.2390 O   0  0  0  0  0  0  0  0  0  0  0  0
  137.3990   69.7250  224.3910 N   0  0  0  0  0  0  0  0  0  0  0  0
  137.6320   71.1630  224.2150 C   0  0  0  0  0  0  0  0  0  0  0  0
  139.0890   71.3860  224.0400 C   0  0  2  0  0  0  0  0  0  0  0  0
  139.3510   72.1740  222.8920 O   0  0  0  0  0  0  0  0  0  0  0  0
  139.6770   70.0310  223.8630 C   0  0  0  0  0  0  0  0  0  0  0  0
  138.6750   69.1470  224.6140 C   0  0  1  0  0  0  0  0  0  0  0  0
  139.1610   69.0340  225.9990 C   0  0  0  0  0  0  0  0  0  0  0  0
  139.5910   67.7060  226.5330 C   0  0  0  0  0  0  0  0  0  0  0  0
  140.4900   68.5200  227.4840 C   0  0  0  0  0  0  0  0  0  0  0  0
  140.5790   69.5050  226.3050 C   0  0  0  0  0  0  0  0  0  0  0  0
  133.0070   72.1280  226.6980 C   0  0  0  0  0  0  0  0  0  0  0  0
  131.8070   72.2270  227.4070 C   0  0  0  0  0  0  0  0  0  0  0  0
  131.3310   73.4410  227.8100 C   0  0  0  0  0  0  0  0  0  0  0  0
  132.0430   74.5660  227.5120 C   0  0  0  0  0  0  0  0  0  0  0  0
  131.5950   75.8040  227.9000 C   0  0  0  0  0  0  0  0  0  0  0  0
  132.2910   76.9530  227.6130 C   0  0  0  0  0  0  0  0  0  0  0  0
  131.6880   78.5200  228.1260 Cl  0  0  0  0  0  0  0  0  0  0  0  0
  133.4750   76.8160  226.9090 C   0  0  0  0  0  0  0  0  0  0  0  0
  133.9400   75.5640  226.5090 C   0  0  0  0  0  0  0  0  0  0  0  0
  133.2270   74.4220  226.8070 C   0  0  0  0  0  0  0  0  0  0  0  0
  133.6950   73.2250  226.4110 N   0  0  0  0  0  0  0  0  0  0  0  0
  135.3450   71.4300  225.5830 H   0  0  0  0  0  0  0  0  0  0  0  0
  135.4700   68.7398  226.2637 H   0  0  0  0  0  0  0  0  0  0  0  0
  134.1716   68.7623  224.9856 H   0  0  0  0  0  0  0  0  0  0  0  0
  137.0925   71.5202  223.3254 H   0  0  0  0  0  0  0  0  0  0  0  0
  137.2694   71.7141  225.0952 H   0  0  0  0  0  0  0  0  0  0  0  0
  139.5150   71.9219  224.9010 H   0  0  0  0  0  0  0  0  0  0  0  0
  139.0360   73.0860  223.1260 H   0  0  0  0  0  0  0  0  0  0  0  0
  139.7337   69.7559  222.7995 H   0  0  0  0  0  0  0  0  0  0  0  0
  140.7091   69.9440  224.2334 H   0  0  0  0  0  0  0  0  0  0  0  0
  138.5782   68.1045  224.2766 H   0  0  0  0  0  0  0  0  0  0  0  0
  138.2651   69.5419  226.3856 H   0  0  0  0  0  0  0  0  0  0  0  0
  138.7992   67.1219  227.0248 H   0  0  0  0  0  0  0  0  0  0  0  0
  139.9767   66.9008  225.8904 H   0  0  0  0  0  0  0  0  0  0  0  0
  139.9931   68.9078  228.3855 H   0  0  0  0  0  0  0  0  0  0  0  0
  141.3711   68.1013  227.9922 H   0  0  0  0  0  0  0  0  0  0  0  0
  140.6729   70.5650  226.5835 H   0  0  0  0  0  0  0  0  0  0  0  0
  141.3935   69.4917  225.5658 H   0  0  0  0  0  0  0  0  0  0  0  0
  131.2389   71.3152  227.6433 H   0  0  0  0  0  0  0  0  0  0  0  0
  130.3856   73.5115  228.3678 H   0  0  0  0  0  0  0  0  0  0  0  0
  130.6498   75.8783  228.4578 H   0  0  0  0  0  0  0  0  0  0  0  0
  134.0608   77.7131  226.6601 H   0  0  0  0  0  0  0  0  0  0  0  0
  134.8845   75.4865  225.9505 H   0  0  0  0  0  0  0  0  0  0  0  0
  1  2  2  0
  2  3  1  0
  3  4  1  0
  4  5  1  0
  5  6  2  0
  5  7  1  0
  7  8  1  0
  8  9  1  0
  9 10  1  0
  9 11  1  0
 11 12  1  0
 12 13  1  0
 13 14  1  0
 14 15  1  0
 15 16  1  0
  2 17  1  0
 17 18  2  0
 18 19  1  0
 19 20  2  0
 20 21  1  0
 21 22  2  0
 22 23  1  0
 22 24  1  0
 24 25  2  0
 25 26  1  0
 26 27  2  0
 12  7  1  0
 16 13  1  0
 27 17  1  0
 26 20  1  0
  3 28  1  0
  4 29  1  0
  4 30  1  0
  8 31  1  0
  8 32  1  0
  9 33  1  1
 10 34  1  0
 11 35  1  0
 11 36  1  0
 12 37  1  6
 13 38  1  0
 14 39  1  0
 14 40  1  0
 15 41  1  0
 15 42  1  0
 16 43  1  0
 16 44  1  0
 18 45  1  0
 19 46  1  0
 21 47  1  0
 24 48  1  0
 25 49  1  0
M  END
>  <smiles>  (47) 
O=C(NCC(=O)N1C[C@H](O)C[C@H]1C1CCC1)c1ccc2cc(Cl)ccc2n1

>  <score_type>  (47) 
oracle

>  <origin>  (47) 
autodockgpu

>  <m_score__min__energy>  (47) 
-8.1300000000000008

>  <m_primary>  (47) 
energy

>  <rmsd>  (47) 
8.662555000886382

>  <m_score__min__rmsd>  (47) 
8.662555000886382

>  <meeko>  (47) 
{"free_energy": -7.64, "intermolecular_energy": -9.43, "internal_energy": -1.26, "cluster_size": 7, "cluster_id": 4, "rank_in_cluster": 4}

>  <energy>  (47) 
-7.22

>  <cluster_rmsd>  (47) 
1.12

>  <cluster>  (47) 
4

$$$$

     RDKit          3D

 49 52  0  0  0  0  0  0  0  0999 V2000
  139.5820   72.2540  220.8790 O   0  0  0  0  0  0  0  0  0  0  0  0
  139.5750   72.6320  222.0780 C   0  0  0  0  0  0  0  0  0  0  0  0
  139.3600   74.0320  222.3450 N   0  0  0  0  0  0  0  0  0  0  0  0
  139.1710   74.8720  221.1810 C   0  0  0  0  0  0  0  0  0  0  0  0
  139.1600   76.2970  221.5040 C   0  0  0  0  0  0  0  0  0  0  0  0
  138.2420   76.7250  222.2730 O   0  0  0  0  0  0  0  0  0  0  0  0
  140.0900   77.2580  221.0300 N   0  0  0  0  0  0  0  0  0  0  0  0
  139.8380   78.0150  219.7990 C   0  0  0  0  0  0  0  0  0  0  0  0
  141.0940   78.6980  219.4010 C   0  0  2  0  0  0  0  0  0  0  0  0
  141.4080   78.4400  218.0440 O   0  0  0  0  0  0  0  0  0  0  0  0
  142.1510   78.1240  220.2770 C   0  0  0  0  0  0  0  0  0  0  0  0
  141.3470   77.7050  221.5140 C   0  0  1  0  0  0  0  0  0  0  0  0
  141.3740   78.8430  222.4460 C   0  0  0  0  0  0  0  0  0  0  0  0
  141.7940   78.6340  223.8650 C   0  0  0  0  0  0  0  0  0  0  0  0
  142.2160   80.1170  223.8260 C   0  0  0  0  0  0  0  0  0  0  0  0
  142.5370   79.8250  222.3500 C   0  0  0  0  0  0  0  0  0  0  0  0
  139.7730   71.7260  223.2050 C   0  0  0  0  0  0  0  0  0  0  0  0
  139.4100   70.3910  223.0020 C   0  0  0  0  0  0  0  0  0  0  0  0
  139.5570   69.4680  223.9960 C   0  0  0  0  0  0  0  0  0  0  0  0
  140.0650   69.8620  225.1990 C   0  0  0  0  0  0  0  0  0  0  0  0
  140.2260   68.9620  226.2220 C   0  0  0  0  0  0  0  0  0  0  0  0
  140.7340   69.3310  227.4440 C   0  0  0  0  0  0  0  0  0  0  0  0
  140.9280   68.1520  228.7300 Cl  0  0  0  0  0  0  0  0  0  0  0  0
  141.0830   70.6610  227.6080 C   0  0  0  0  0  0  0  0  0  0  0  0
  140.9220   71.5850  226.5770 C   0  0  0  0  0  0  0  0  0  0  0  0
  140.4100   71.1950  225.3570 C   0  0  0  0  0  0  0  0  0  0  0  0
  140.2650   72.1040  224.3770 N   0  0  0  0  0  0  0  0  0  0  0  0
  139.3480   74.3720  223.3240 H   0  0  0  0  0  0  0  0  0  0  0  0
  139.9898   74.6791  220.4722 H   0  0  0  0  0  0  0  0  0  0  0  0
  138.1898   74.6235  220.7504 H   0  0  0  0  0  0  0  0  0  0  0  0
  139.5194   77.3291  219.0002 H   0  0  0  0  0  0  0  0  0  0  0  0
  139.0431   78.7563  219.9683 H   0  0  0  0  0  0  0  0  0  0  0  0
  141.0030   79.7890  219.5083 H   0  0  0  0  0  0  0  0  0  0  0  0
  142.3340   78.7780  217.9230 H   0  0  0  0  0  0  0  0  0  0  0  0
  142.6359   77.2578  219.8032 H   0  0  0  0  0  0  0  0  0  0  0  0
  142.9720   78.8221  220.4972 H   0  0  0  0  0  0  0  0  0  0  0  0
  141.7410   76.8647  222.1044 H   0  0  0  0  0  0  0  0  0  0  0  0
  140.3392   79.1150  222.1906 H   0  0  0  0  0  0  0  0  0  0  0  0
  140.9777   78.3989  224.5639 H   0  0  0  0  0  0  0  0  0  0  0  0
  142.4752   77.8273  224.1735 H   0  0  0  0  0  0  0  0  0  0  0  0
  141.4067   80.8419  223.9978 H   0  0  0  0  0  0  0  0  0  0  0  0
  142.9379   80.5608  224.5274 H   0  0  0  0  0  0  0  0  0  0  0  0
  142.3851   80.6680  221.6599 H   0  0  0  0  0  0  0  0  0  0  0  0
  143.5386   79.5430  221.9934 H   0  0  0  0  0  0  0  0  0  0  0  0
  139.0009   70.0811  222.0290 H   0  0  0  0  0  0  0  0  0  0  0  0
  139.2695   68.4194  223.8293 H   0  0  0  0  0  0  0  0  0  0  0  0
  139.9395   67.9126  226.0587 H   0  0  0  0  0  0  0  0  0  0  0  0
  141.4956   70.9950  228.5714 H   0  0  0  0  0  0  0  0  0  0  0  0
  141.2060   72.6355  226.7378 H   0  0  0  0  0  0  0  0  0  0  0  0
  1  2  2  0
  2  3  1  0
  3  4  1  0
  4  5  1  0
  5  6  2  0
  5  7  1  0
  7  8  1  0
  8  9  1  0
  9 10  1  0
  9 11  1  0
 11 12  1  0
 12 13  1  0
 13 14  1  0
 14 15  1  0
 15 16  1  0
  2 17  1  0
 17 18  2  0
 18 19  1  0
 19 20  2  0
 20 21  1  0
 21 22  2  0
 22 23  1  0
 22 24  1  0
 24 25  2  0
 25 26  1  0
 26 27  2  0
 12  7  1  0
 16 13  1  0
 27 17  1  0
 26 20  1  0
  3 28  1  0
  4 29  1  0
  4 30  1  0
  8 31  1  0
  8 32  1  0
  9 33  1  6
 10 34  1  0
 11 35  1  0
 11 36  1  0
 12 37  1  1
 13 38  1  0
 14 39  1  0
 14 40  1  0
 15 41  1  0
 15 42  1  0
 16 43  1  0
 16 44  1  0
 18 45  1  0
 19 46  1  0
 21 47  1  0
 24 48  1  0
 25 49  1  0
M  END
>  <smiles>  (48) 
O=C(NCC(=O)N1C[C@H](O)C[C@H]1C1CCC1)c1ccc2cc(Cl)ccc2n1

>  <score_type>  (48) 
oracle

>  <origin>  (48) 
autodockgpu

>  <m_score__min__energy>  (48) 
-8.1300000000000008

>  <m_primary>  (48) 
energy

>  <rmsd>  (48) 
2.0868583212918876

>  <m_score__min__rmsd>  (48) 
2.0868583212918876

>  <meeko>  (48) 
{"free_energy": -7.52, "intermolecular_energy": -9.31, "internal_energy": -1.27, "cluster_size": 23, "cluster_id": 2, "rank_in_cluster": 12}

>  <energy>  (48) 
-6.94

>  <cluster_rmsd>  (48) 
0.9

>  <cluster>  (48) 
4

$$$$

     RDKit          3D

 49 52  0  0  0  0  0  0  0  0999 V2000
  133.5640   69.3600  226.4470 O   0  0  0  0  0  0  0  0  0  0  0  0
  134.0220   70.4410  225.9970 C   0  0  0  0  0  0  0  0  0  0  0  0
  135.1030   70.3730  225.0450 N   0  0  0  0  0  0  0  0  0  0  0  0
  135.5550   69.0420  224.7010 C   0  0  0  0  0  0  0  0  0  0  0  0
  136.8210   69.0430  223.9710 C   0  0  0  0  0  0  0  0  0  0  0  0
  136.8790   68.3900  222.8810 O   0  0  0  0  0  0  0  0  0  0  0  0
  138.0060   69.7110  224.3750 N   0  0  0  0  0  0  0  0  0  0  0  0
  138.1520   71.1610  224.2130 C   0  0  0  0  0  0  0  0  0  0  0  0
  139.5760   71.5180  224.4300 C   0  0  2  0  0  0  0  0  0  0  0  0
  140.0720   72.3120  223.3670 O   0  0  0  0  0  0  0  0  0  0  0  0
  140.3060   70.2230  224.4700 C   0  0  0  0  0  0  0  0  0  0  0  0
  139.2190   69.2580  224.9560 C   0  0  1  0  0  0  0  0  0  0  0  0
  139.3180   69.2090  226.4230 C   0  0  0  0  0  0  0  0  0  0  0  0
  139.8940   68.0030  227.0920 C   0  0  0  0  0  0  0  0  0  0  0  0
  140.2700   68.9710  228.2320 C   0  0  0  0  0  0  0  0  0  0  0  0
  140.4370   69.9960  227.0970 C   0  0  0  0  0  0  0  0  0  0  0  0
  133.5140   71.7520  226.3900 C   0  0  0  0  0  0  0  0  0  0  0  0
  132.3410   71.7630  227.1480 C   0  0  0  0  0  0  0  0  0  0  0  0
  131.7890   72.9400  227.5640 C   0  0  0  0  0  0  0  0  0  0  0  0
  132.3960   74.1150  227.2280 C   0  0  0  0  0  0  0  0  0  0  0  0
  131.8690   75.3170  227.6270 C   0  0  0  0  0  0  0  0  0  0  0  0
  132.4600   76.5140  227.3030 C   0  0  0  0  0  0  0  0  0  0  0  0
  131.7570   78.0340  227.8310 Cl  0  0  0  0  0  0  0  0  0  0  0  0
  133.6200   76.4640  226.5500 C   0  0  0  0  0  0  0  0  0  0  0  0
  134.1650   75.2490  226.1380 C   0  0  0  0  0  0  0  0  0  0  0  0
  133.5580   74.0560  226.4740 C   0  0  0  0  0  0  0  0  0  0  0  0
  134.1010   72.8960  226.0660 N   0  0  0  0  0  0  0  0  0  0  0  0
  135.4990   71.2490  224.6560 H   0  0  0  0  0  0  0  0  0  0  0  0
  135.6848   68.4647  225.6283 H   0  0  0  0  0  0  0  0  0  0  0  0
  134.7949   68.5945  224.0437 H   0  0  0  0  0  0  0  0  0  0  0  0
  137.8467   71.4535  223.1975 H   0  0  0  0  0  0  0  0  0  0  0  0
  137.5164   71.6874  224.9403 H   0  0  0  0  0  0  0  0  0  0  0  0
  139.7018   72.1027  225.3532 H   0  0  0  0  0  0  0  0  0  0  0  0
  139.4730   73.1040  223.3330 H   0  0  0  0  0  0  0  0  0  0  0  0
  140.6738   69.9408  223.4725 H   0  0  0  0  0  0  0  0  0  0  0  0
  141.2019   70.2389  225.1081 H   0  0  0  0  0  0  0  0  0  0  0  0
  139.3088   68.2067  224.6451 H   0  0  0  0  0  0  0  0  0  0  0  0
  138.2548   69.4693  226.5318 H   0  0  0  0  0  0  0  0  0  0  0  0
  139.1644   67.2251  227.3614 H   0  0  0  0  0  0  0  0  0  0  0  0
  140.6255   67.3418  226.6044 H   0  0  0  0  0  0  0  0  0  0  0  0
  139.4652   69.1893  228.9494 H   0  0  0  0  0  0  0  0  0  0  0  0
  141.0517   68.7573  228.9758 H   0  0  0  0  0  0  0  0  0  0  0  0
  140.1888   71.0346  227.3608 H   0  0  0  0  0  0  0  0  0  0  0  0
  141.4013   70.2110  226.6133 H   0  0  0  0  0  0  0  0  0  0  0  0
  131.8562   70.8118  227.4129 H   0  0  0  0  0  0  0  0  0  0  0  0
  130.8662   72.9413  228.1627 H   0  0  0  0  0  0  0  0  0  0  0  0
  130.9454   75.3225  228.2244 H   0  0  0  0  0  0  0  0  0  0  0  0
  134.1221   77.4021  226.2709 H   0  0  0  0  0  0  0  0  0  0  0  0
  135.0878   75.2410  225.5393 H   0  0  0  0  0  0  0  0  0  0  0  0
  1  2  2  0
  2  3  1  0
  3  4  1  0
  4  5  1  0
  5  6  2  0
  5  7  1  0
  7  8  1  0
  8  9  1  0
  9 10  1  0
  9 11  1  0
 11 12  1  0
 12 13  1  0
 13 14  1  0
 14 15  1  0
 15 16  1  0
  2 17  1  0
 17 18  2  0
 18 19  1  0
 19 20  2  0
 20 21  1  0
 21 22  2  0
 22 23  1  0
 22 24  1  0
 24 25  2  0
 25 26  1  0
 26 27  2  0
 12  7  1  0
 16 13  1  0
 27 17  1  0
 26 20  1  0
  3 28  1  0
  4 29  1  0
  4 30  1  0
  8 31  1  0
  8 32  1  0
  9 33  1  1
 10 34  1  0
 11 35  1  0
 11 36  1  0
 12 37  1  6
 13 38  1  0
 14 39  1  0
 14 40  1  0
 15 41  1  0
 15 42  1  0
 16 43  1  0
 16 44  1  0
 18 45  1  0
 19 46  1  0
 21 47  1  0
 24 48  1  0
 25 49  1  0
M  END
>  <smiles>  (49) 
O=C(NCC(=O)N1C[C@H](O)C[C@H]1C1CCC1)c1ccc2cc(Cl)ccc2n1

>  <score_type>  (49) 
oracle

>  <origin>  (49) 
autodockgpu

>  <m_score__min__energy>  (49) 
-8.1300000000000008

>  <m_primary>  (49) 
energy

>  <rmsd>  (49) 
8.344556016733401

>  <m_score__min__rmsd>  (49) 
8.344556016733401

>  <meeko>  (49) 
{"free_energy": -7.77, "intermolecular_energy": -9.56, "internal_energy": -1.29, "cluster_size": 7, "cluster_id": 4, "rank_in_cluster": 2}

>  <energy>  (49) 
-7.16

>  <cluster_rmsd>  (49) 
0.0

>  <cluster>  (49) 
5

$$$$

     RDKit          3D

 49 52  0  0  0  0  0  0  0  0999 V2000
  140.6120   72.4840  220.7350 O   0  0  0  0  0  0  0  0  0  0  0  0
  140.1730   72.8430  221.8580 C   0  0  0  0  0  0  0  0  0  0  0  0
  139.6880   74.1940  221.9930 N   0  0  0  0  0  0  0  0  0  0  0  0
  139.7570   75.0100  220.7990 C   0  0  0  0  0  0  0  0  0  0  0  0
  140.8650   75.9620  220.8250 C   0  0  0  0  0  0  0  0  0  0  0  0
  141.9030   75.6830  220.1450 O   0  0  0  0  0  0  0  0  0  0  0  0
  140.8900   77.1810  221.5510 N   0  0  0  0  0  0  0  0  0  0  0  0
  141.8280   78.2530  221.2010 C   0  0  0  0  0  0  0  0  0  0  0  0
  141.8340   79.2500  222.3010 C   0  0  2  0  0  0  0  0  0  0  0  0
  143.1550   79.5350  222.7260 O   0  0  0  0  0  0  0  0  0  0  0  0
  141.0750   78.6160  223.4130 C   0  0  0  0  0  0  0  0  0  0  0  0
  140.1450   77.6580  222.6600 C   0  0  1  0  0  0  0  0  0  0  0  0
  138.8960   78.3930  222.4010 C   0  0  0  0  0  0  0  0  0  0  0  0
  137.5800   77.7630  222.7230 C   0  0  0  0  0  0  0  0  0  0  0  0
  137.0680   79.2090  222.8750 C   0  0  0  0  0  0  0  0  0  0  0  0
  138.4950   79.4970  223.3740 C   0  0  0  0  0  0  0  0  0  0  0  0
  140.1330   71.9640  223.0220 C   0  0  0  0  0  0  0  0  0  0  0  0
  139.4680   70.7460  222.8590 C   0  0  0  0  0  0  0  0  0  0  0  0
  139.3770   69.8560  223.8890 C   0  0  0  0  0  0  0  0  0  0  0  0
  139.9440   70.1690  225.0900 C   0  0  0  0  0  0  0  0  0  0  0  0
  139.8710   69.2990  226.1490 C   0  0  0  0  0  0  0  0  0  0  0  0
  140.4330   69.5890  227.3690 C   0  0  0  0  0  0  0  0  0  0  0  0
  140.3210   68.4520  228.7020 Cl  0  0  0  0  0  0  0  0  0  0  0  0
  141.0830   70.8040  227.4930 C   0  0  0  0  0  0  0  0  0  0  0  0
  141.1630   71.6970  226.4250 C   0  0  0  0  0  0  0  0  0  0  0  0
  140.5930   71.3880  225.2070 C   0  0  0  0  0  0  0  0  0  0  0  0
  140.6820   72.2630  224.1910 N   0  0  0  0  0  0  0  0  0  0  0  0
  139.3190   74.5180  222.9070 H   0  0  0  0  0  0  0  0  0  0  0  0
  139.8824   74.3490  219.9287 H   0  0  0  0  0  0  0  0  0  0  0  0
  138.8242   75.5902  220.7409 H   0  0  0  0  0  0  0  0  0  0  0  0
  142.8376   77.8356  221.0727 H   0  0  0  0  0  0  0  0  0  0  0  0
  141.5199   78.7315  220.2597 H   0  0  0  0  0  0  0  0  0  0  0  0
  141.3896   80.2022  221.9756 H   0  0  0  0  0  0  0  0  0  0  0  0
  143.7410   79.0020  222.1270 H   0  0  0  0  0  0  0  0  0  0  0  0
  141.7449   78.0700  224.0935 H   0  0  0  0  0  0  0  0  0  0  0  0
  140.5449   79.3355  224.0543 H   0  0  0  0  0  0  0  0  0  0  0  0
  139.8197   76.7537  223.1953 H   0  0  0  0  0  0  0  0  0  0  0  0
  139.1943   78.5921  221.3611 H   0  0  0  0  0  0  0  0  0  0  0  0
  137.1235   77.1897  221.9027 H   0  0  0  0  0  0  0  0  0  0  0  0
  137.4586   77.0010  223.5070 H   0  0  0  0  0  0  0  0  0  0  0  0
  136.7868   79.7102  221.9371 H   0  0  0  0  0  0  0  0  0  0  0  0
  136.1628   79.4753  223.4404 H   0  0  0  0  0  0  0  0  0  0  0  0
  138.8837   80.4981  223.1361 H   0  0  0  0  0  0  0  0  0  0  0  0
  138.7757   79.4978  224.4376 H   0  0  0  0  0  0  0  0  0  0  0  0
  139.0122   70.5017  221.8881 H   0  0  0  0  0  0  0  0  0  0  0  0
  138.8532   68.8983  223.7530 H   0  0  0  0  0  0  0  0  0  0  0  0
  139.3469   68.3409  226.0172 H   0  0  0  0  0  0  0  0  0  0  0  0
  141.5464   71.0712  228.4542 H   0  0  0  0  0  0  0  0  0  0  0  0
  141.6852   72.6564  226.5547 H   0  0  0  0  0  0  0  0  0  0  0  0
  1  2  2  0
  2  3  1  0
  3  4  1  0
  4  5  1  0
  5  6  2  0
  5  7  1  0
  7  8  1  0
  8  9  1  0
  9 10  1  0
  9 11  1  0
 11 12  1  0
 12 13  1  0
 13 14  1  0
 14 15  1  0
 15 16  1  0
  2 17  1  0
 17 18  2  0
 18 19  1  0
 19 20  2  0
 20 21  1  0
 21 22  2  0
 22 23  1  0
 22 24  1  0
 24 25  2  0
 25 26  1  0
 26 27  2  0
 12  7  1  0
 16 13  1  0
 27 17  1  0
 26 20  1  0
  3 28  1  0
  4 29  1  0
  4 30  1  0
  8 31  1  0
  8 32  1  0
  9 33  1  6
 10 34  1  0
 11 35  1  0
 11 36  1  0
 12 37  1  1
 13 38  1  0
 14 39  1  0
 14 40  1  0
 15 41  1  0
 15 42  1  0
 16 43  1  0
 16 44  1  0
 18 45  1  0
 19 46  1  0
 21 47  1  0
 24 48  1  0
 25 49  1  0
M  END
>  <smiles>  (50) 
O=C(NCC(=O)N1C[C@H](O)C[C@H]1C1CCC1)c1ccc2cc(Cl)ccc2n1

>  <score_type>  (50) 
oracle

>  <origin>  (50) 
autodockgpu

>  <m_score__min__energy>  (50) 
-8.1300000000000008

>  <m_primary>  (50) 
energy

>  <rmsd>  (50) 
3.1803654223896833

>  <m_score__min__rmsd>  (50) 
3.1803654223896833

>  <meeko>  (50) 
{"free_energy": -7.97, "intermolecular_energy": -9.76, "internal_energy": -1.23, "cluster_size": 23, "cluster_id": 2, "rank_in_cluster": 1}

>  <energy>  (50) 
-5.79

>  <cluster_rmsd>  (50) 
0.0

>  <cluster>  (50) 
6

$$$$
