
     RDKit          3D

 55 58  0  0  0  0  0  0  0  0999 V2000
  138.9200   75.2790  221.8490 O   0  0  0  0  0  0  0  0  0  0  0  0
  140.0550   75.8130  222.0300 C   0  0  0  0  0  0  0  0  0  0  0  0
  141.1890   74.9730  221.7790 N   0  0  0  0  0  0  0  0  0  0  0  0
  140.9300   73.6120  221.3490 C   0  0  0  0  0  0  0  0  0  0  0  0
  141.0180   73.4720  219.8770 C   0  0  0  0  0  0  0  0  0  0  0  0
  140.2890   72.7020  219.2060 O   0  0  0  0  0  0  0  0  0  0  0  0
  141.9890   74.2640  219.2050 N   0  0  0  0  0  0  0  0  0  0  0  0
  143.3720   74.5280  219.5670 C   0  0  0  0  0  0  0  0  0  0  0  0
  144.0830   74.5280  218.2090 C   0  0  0  0  0  0  0  0  0  0  0  0
  142.9650   74.4290  217.1830 C   0  0  0  0  0  0  0  0  0  0  0  0
  141.8020   75.0190  217.9510 C   0  0  2  0  0  0  0  0  0  0  0  0
  141.9670   76.4650  218.2390 C   0  0  0  0  0  0  0  0  0  0  0  0
  142.7450   77.3060  217.4890 C   0  0  0  0  0  0  0  0  0  0  0  0
  142.8480   78.6590  217.8270 C   0  0  0  0  0  0  0  0  0  0  0  0
  142.2020   79.2150  218.8930 C   0  0  0  0  0  0  0  0  0  0  0  0
  142.2090   80.4830  219.3220 O   0  0  0  0  0  0  0  0  0  0  0  0
  141.4500   81.5620  219.0580 C   0  0  0  0  0  0  0  0  0  0  0  0
  140.7060   82.2530  220.1510 C   0  0  0  0  0  0  0  0  0  0  0  0
  139.8790   81.2620  220.7240 F   0  0  0  0  0  0  0  0  0  0  0  0
  141.4210   82.7530  221.1870 F   0  0  0  0  0  0  0  0  0  0  0  0
  139.8030   83.1890  219.6580 F   0  0  0  0  0  0  0  0  0  0  0  0
  141.4100   78.3140  219.6410 C   0  0  0  0  0  0  0  0  0  0  0  0
  141.3010   76.9930  219.3220 C   0  0  0  0  0  0  0  0  0  0  0  0
  140.2230   77.1910  222.4650 C   0  0  0  0  0  0  0  0  0  0  0  0
  139.0760   77.9140  222.7210 C   0  0  0  0  0  0  0  0  0  0  0  0
  139.2230   79.2170  223.1320 C   0  0  0  0  0  0  0  0  0  0  0  0
  140.4700   79.7800  223.2830 C   0  0  0  0  0  0  0  0  0  0  0  0
  140.6150   81.0920  223.6970 C   0  0  0  0  0  0  0  0  0  0  0  0
  141.8870   81.6250  223.8370 C   0  0  0  0  0  0  0  0  0  0  0  0
  143.0310   80.8920  223.5770 C   0  0  0  0  0  0  0  0  0  0  0  0
  142.8430   79.5730  223.1610 C   0  0  0  0  0  0  0  0  0  0  0  0
  141.5900   79.0280  223.0170 C   0  0  0  0  0  0  0  0  0  0  0  0
  141.4310   77.7410  222.6120 N   0  0  0  0  0  0  0  0  0  0  0  0
  142.1580   75.3480  221.9080 H   0  0  0  0  0  0  0  0  0  0  0  0
  141.6703   72.9449  221.8146 H   0  0  0  0  0  0  0  0  0  0  0  0
  139.9079   73.3459  221.6564 H   0  0  0  0  0  0  0  0  0  0  0  0
  143.4718   75.5028  220.0668 H   0  0  0  0  0  0  0  0  0  0  0  0
  143.7849   73.7947  220.2753 H   0  0  0  0  0  0  0  0  0  0  0  0
  144.6540   75.4580  218.0709 H   0  0  0  0  0  0  0  0  0  0  0  0
  144.8032   73.7015  218.1182 H   0  0  0  0  0  0  0  0  0  0  0  0
  143.1924   75.0178  216.2821 H   0  0  0  0  0  0  0  0  0  0  0  0
  142.7865   73.4100  216.8093 H   0  0  0  0  0  0  0  0  0  0  0  0
  140.8333   74.9486  217.4346 H   0  0  0  0  0  0  0  0  0  0  0  0
  143.2910   76.9158  216.6174 H   0  0  0  0  0  0  0  0  0  0  0  0
  143.4809   79.3071  217.2030 H   0  0  0  0  0  0  0  0  0  0  0  0
  142.1160   82.3126  218.6074 H   0  0  0  0  0  0  0  0  0  0  0  0
  140.6437   81.1492  218.4340 H   0  0  0  0  0  0  0  0  0  0  0  0
  140.8601   78.6937  220.5147 H   0  0  0  0  0  0  0  0  0  0  0  0
  140.6701   76.3378  219.9406 H   0  0  0  0  0  0  0  0  0  0  0  0
  138.0797   77.4635  222.6004 H   0  0  0  0  0  0  0  0  0  0  0  0
  138.3283   79.8208  223.3441 H   0  0  0  0  0  0  0  0  0  0  0  0
  139.7289   81.7068  223.9132 H   0  0  0  0  0  0  0  0  0  0  0  0
  141.9905   82.6692  224.1670 H   0  0  0  0  0  0  0  0  0  0  0  0
  144.0354   81.3256  223.6920 H   0  0  0  0  0  0  0  0  0  0  0  0
  143.7238   78.9516  222.9420 H   0  0  0  0  0  0  0  0  0  0  0  0
  1  2  2  0
  2  3  1  0
  3  4  1  0
  4  5  1  0
  5  6  2  0
  5  7  1  0
  7  8  1  0
  8  9  1  0
  9 10  1  0
 10 11  1  0
 11 12  1  0
 12 13  2  0
 13 14  1  0
 14 15  2  0
 15 16  1  0
 16 17  1  0
 17 18  1  0
 18 19  1  0
 18 20  1  0
 18 21  1  0
 15 22  1  0
 22 23  2  0
  2 24  1  0
 24 25  2  0
 25 26  1  0
 26 27  2  0
 27 28  1  0
 28 29  2  0
 29 30  1  0
 30 31  2  0
 31 32  1  0
 32 33  2  0
 11  7  1  0
 23 12  1  0
 33 24  1  0
 32 27  1  0
  3 34  1  0
  4 35  1  0
  4 36  1  0
  8 37  1  0
  8 38  1  0
  9 39  1  0
  9 40  1  0
 10 41  1  0
 10 42  1  0
 11 43  1  6
 13 44  1  0
 14 45  1  0
 17 46  1  0
 17 47  1  0
 22 48  1  0
 23 49  1  0
 25 50  1  0
 26 51  1  0
 28 52  1  0
 29 53  1  0
 30 54  1  0
 31 55  1  0
M  END
>  <smiles>  (1) 
O=C(NCC(=O)N1CCCC1c1ccc(OCC(F)(F)F)cc1)c1ccc2ccccc2n1

>  <score_type>  (1) 
oracle

>  <origin>  (1) 
autodockgpu

>  <m_score__min__energy>  (1) 
-8.0399999999999991

>  <m_primary>  (1) 
energy

>  <rmsd>  (1) 
7.460587300010122

>  <m_score__min__rmsd>  (1) 
7.460587300010122

>  <meeko>  (1) 
{"free_energy": -5.73, "intermolecular_energy": -8.12, "internal_energy": -3.04, "cluster_size": 6, "cluster_id": 7, "rank_in_cluster": 3}

>  <energy>  (1) 
-8.04

>  <cluster_rmsd>  (1) 
0.0

>  <cluster>  (1) 
1

$$$$

     RDKit          3D

 55 58  0  0  0  0  0  0  0  0999 V2000
  141.2580   72.0380  221.6530 O   0  0  0  0  0  0  0  0  0  0  0  0
  140.3440   72.2030  222.5150 C   0  0  0  0  0  0  0  0  0  0  0  0
  139.4330   73.2820  222.2620 N   0  0  0  0  0  0  0  0  0  0  0  0
  139.6450   74.0670  221.0600 C   0  0  0  0  0  0  0  0  0  0  0  0
  140.6180   75.1620  221.2810 C   0  0  0  0  0  0  0  0  0  0  0  0
  140.6910   75.8240  222.3440 O   0  0  0  0  0  0  0  0  0  0  0  0
  141.5110   75.4630  220.2160 N   0  0  0  0  0  0  0  0  0  0  0  0
  142.9640   75.4620  220.2050 C   0  0  0  0  0  0  0  0  0  0  0  0
  143.2910   74.9020  218.8150 C   0  0  0  0  0  0  0  0  0  0  0  0
  141.9490   74.8020  218.1080 C   0  0  0  0  0  0  0  0  0  0  0  0
  141.1460   75.8560  218.8420 C   0  0  2  0  0  0  0  0  0  0  0  0
  141.6370   77.2360  218.5980 C   0  0  0  0  0  0  0  0  0  0  0  0
  142.4890   77.5710  217.5790 C   0  0  0  0  0  0  0  0  0  0  0  0
  142.9050   78.8960  217.4170 C   0  0  0  0  0  0  0  0  0  0  0  0
  142.5030   79.9120  218.2350 C   0  0  0  0  0  0  0  0  0  0  0  0
  142.8180   81.2120  218.1900 O   0  0  0  0  0  0  0  0  0  0  0  0
  143.3460   82.0130  217.2460 C   0  0  0  0  0  0  0  0  0  0  0  0
  143.0900   83.4820  217.2670 C   0  0  0  0  0  0  0  0  0  0  0  0
  142.6790   83.8070  215.9550 F   0  0  0  0  0  0  0  0  0  0  0  0
  142.0980   83.9430  218.0670 F   0  0  0  0  0  0  0  0  0  0  0  0
  144.2600   84.2150  217.4350 F   0  0  0  0  0  0  0  0  0  0  0  0
  141.6250   79.5240  219.2730 C   0  0  0  0  0  0  0  0  0  0  0  0
  141.2120   78.2350  219.4420 C   0  0  0  0  0  0  0  0  0  0  0  0
  140.2050   71.3650  223.6950 C   0  0  0  0  0  0  0  0  0  0  0  0
  139.5390   70.1680  223.5420 C   0  0  0  0  0  0  0  0  0  0  0  0
  139.4020   69.3670  224.6500 C   0  0  0  0  0  0  0  0  0  0  0  0
  139.9110   69.7490  225.8710 C   0  0  0  0  0  0  0  0  0  0  0  0
  139.7720   68.9410  226.9860 C   0  0  0  0  0  0  0  0  0  0  0  0
  140.2980   69.3580  228.1980 C   0  0  0  0  0  0  0  0  0  0  0  0
  140.9640   70.5620  228.3430 C   0  0  0  0  0  0  0  0  0  0  0  0
  141.0840   71.3480  227.1960 C   0  0  0  0  0  0  0  0  0  0  0  0
  140.5690   70.9510  225.9850 C   0  0  0  0  0  0  0  0  0  0  0  0
  140.6980   71.7320  224.8820 N   0  0  0  0  0  0  0  0  0  0  0  0
  138.6530   73.4770  222.9320 H   0  0  0  0  0  0  0  0  0  0  0  0
  140.0261   73.4071  220.2667 H   0  0  0  0  0  0  0  0  0  0  0  0
  138.6836   74.5175  220.7725 H   0  0  0  0  0  0  0  0  0  0  0  0
  143.3622   76.4802  220.3260 H   0  0  0  0  0  0  0  0  0  0  0  0
  143.4061   74.8780  221.0257 H   0  0  0  0  0  0  0  0  0  0  0  0
  143.9645   75.5818  218.2725 H   0  0  0  0  0  0  0  0  0  0  0  0
  143.8034   73.9302  218.8701 H   0  0  0  0  0  0  0  0  0  0  0  0
  142.0395   75.0381  217.0375 H   0  0  0  0  0  0  0  0  0  0  0  0
  141.5014   73.7975  218.1323 H   0  0  0  0  0  0  0  0  0  0  0  0
  140.0806   75.8877  218.5702 H   0  0  0  0  0  0  0  0  0  0  0  0
  142.8469   76.7953  216.8861 H   0  0  0  0  0  0  0  0  0  0  0  0
  143.5902   79.1313  216.5893 H   0  0  0  0  0  0  0  0  0  0  0  0
  144.4371   81.8830  217.2973 H   0  0  0  0  0  0  0  0  0  0  0  0
  142.8317   81.6864  216.3301 H   0  0  0  0  0  0  0  0  0  0  0  0
  141.2607   80.2916  219.9716 H   0  0  0  0  0  0  0  0  0  0  0  0
  140.5273   77.9905  220.2675 H   0  0  0  0  0  0  0  0  0  0  0  0
  139.1312   69.8644  222.5665 H   0  0  0  0  0  0  0  0  0  0  0  0
  138.8769   68.4046  224.5600 H   0  0  0  0  0  0  0  0  0  0  0  0
  139.2486   67.9764  226.9106 H   0  0  0  0  0  0  0  0  0  0  0  0
  140.1818   68.7077  229.0776 H   0  0  0  0  0  0  0  0  0  0  0  0
  141.3770   70.8827  229.3108 H   0  0  0  0  0  0  0  0  0  0  0  0
  141.6062   72.3138  227.2631 H   0  0  0  0  0  0  0  0  0  0  0  0
  1  2  2  0
  2  3  1  0
  3  4  1  0
  4  5  1  0
  5  6  2  0
  5  7  1  0
  7  8  1  0
  8  9  1  0
  9 10  1  0
 10 11  1  0
 11 12  1  0
 12 13  2  0
 13 14  1  0
 14 15  2  0
 15 16  1  0
 16 17  1  0
 17 18  1  0
 18 19  1  0
 18 20  1  0
 18 21  1  0
 15 22  1  0
 22 23  2  0
  2 24  1  0
 24 25  2  0
 25 26  1  0
 26 27  2  0
 27 28  1  0
 28 29  2  0
 29 30  1  0
 30 31  2  0
 31 32  1  0
 32 33  2  0
 11  7  1  0
 23 12  1  0
 33 24  1  0
 32 27  1  0
  3 34  1  0
  4 35  1  0
  4 36  1  0
  8 37  1  0
  8 38  1  0
  9 39  1  0
  9 40  1  0
 10 41  1  0
 10 42  1  0
 11 43  1  1
 13 44  1  0
 14 45  1  0
 17 46  1  0
 17 47  1  0
 22 48  1  0
 23 49  1  0
 25 50  1  0
 26 51  1  0
 28 52  1  0
 29 53  1  0
 30 54  1  0
 31 55  1  0
M  END
>  <smiles>  (2) 
O=C(NCC(=O)N1CCCC1c1ccc(OCC(F)(F)F)cc1)c1ccc2ccccc2n1

>  <score_type>  (2) 
oracle

>  <origin>  (2) 
autodockgpu

>  <m_score__min__energy>  (2) 
-8.0399999999999991

>  <m_primary>  (2) 
energy

>  <rmsd>  (2) 
2.272931679578831

>  <m_score__min__rmsd>  (2) 
2.272931679578831

>  <meeko>  (2) 
{"free_energy": -7.27, "intermolecular_energy": -9.66, "internal_energy": -1.36, "cluster_size": 2, "cluster_id": 5, "rank_in_cluster": 1}

>  <energy>  (2) 
-7.78

>  <cluster_rmsd>  (2) 
0.9

>  <cluster>  (2) 
1

$$$$

     RDKit          3D

 55 58  0  0  0  0  0  0  0  0999 V2000
  140.1960   73.5000  222.3250 O   0  0  0  0  0  0  0  0  0  0  0  0
  140.5040   72.2750  222.4250 C   0  0  0  0  0  0  0  0  0  0  0  0
  141.0950   71.6810  221.2610 N   0  0  0  0  0  0  0  0  0  0  0  0
  141.2800   72.5300  220.0990 C   0  0  0  0  0  0  0  0  0  0  0  0
  142.5440   73.2980  220.1730 C   0  0  0  0  0  0  0  0  0  0  0  0
  143.6480   72.7940  220.4900 O   0  0  0  0  0  0  0  0  0  0  0  0
  142.4800   74.6850  219.8630 N   0  0  0  0  0  0  0  0  0  0  0  0
  143.5370   75.6830  219.8870 C   0  0  0  0  0  0  0  0  0  0  0  0
  143.2090   76.5520  218.6670 C   0  0  0  0  0  0  0  0  0  0  0  0
  141.8690   76.0360  218.1680 C   0  0  0  0  0  0  0  0  0  0  0  0
  141.2880   75.4410  219.4350 C   0  0  2  0  0  0  0  0  0  0  0  0
  140.9780   76.4610  220.4680 C   0  0  0  0  0  0  0  0  0  0  0  0
  141.1060   76.2430  221.8140 C   0  0  0  0  0  0  0  0  0  0  0  0
  140.7920   77.2570  222.7240 C   0  0  0  0  0  0  0  0  0  0  0  0
  140.3520   78.4920  222.3450 C   0  0  0  0  0  0  0  0  0  0  0  0
  140.0240   79.5450  223.1040 O   0  0  0  0  0  0  0  0  0  0  0  0
  140.6680   80.6690  223.4710 C   0  0  0  0  0  0  0  0  0  0  0  0
  142.1390   80.8010  223.2680 C   0  0  0  0  0  0  0  0  0  0  0  0
  142.5580   81.7740  224.2020 F   0  0  0  0  0  0  0  0  0  0  0  0
  142.9150   79.7180  223.5210 F   0  0  0  0  0  0  0  0  0  0  0  0
  142.4490   81.3710  222.0380 F   0  0  0  0  0  0  0  0  0  0  0  0
  140.2330   78.6760  220.9480 C   0  0  0  0  0  0  0  0  0  0  0  0
  140.5360   77.6950  220.0510 C   0  0  0  0  0  0  0  0  0  0  0  0
  140.2820   71.4980  223.6330 C   0  0  0  0  0  0  0  0  0  0  0  0
  139.5560   70.3320  223.5070 C   0  0  0  0  0  0  0  0  0  0  0  0
  139.3400   69.5880  224.6430 C   0  0  0  0  0  0  0  0  0  0  0  0
  139.8310   69.9950  225.8630 C   0  0  0  0  0  0  0  0  0  0  0  0
  139.6120   69.2450  227.0050 C   0  0  0  0  0  0  0  0  0  0  0  0
  140.1210   69.6850  228.2170 C   0  0  0  0  0  0  0  0  0  0  0  0
  140.8480   70.8570  228.3340 C   0  0  0  0  0  0  0  0  0  0  0  0
  141.0470   71.5850  227.1600 C   0  0  0  0  0  0  0  0  0  0  0  0
  140.5500   71.1640  225.9500 C   0  0  0  0  0  0  0  0  0  0  0  0
  140.7560   71.8880  224.8200 N   0  0  0  0  0  0  0  0  0  0  0  0
  141.3750   70.6720  221.2720 H   0  0  0  0  0  0  0  0  0  0  0  0
  141.2987   71.9001  219.1974 H   0  0  0  0  0  0  0  0  0  0  0  0
  140.4465   73.2470  220.0640 H   0  0  0  0  0  0  0  0  0  0  0  0
  143.5041   76.2732  220.8146 H   0  0  0  0  0  0  0  0  0  0  0  0
  144.5473   75.2492  219.8546 H   0  0  0  0  0  0  0  0  0  0  0  0
  143.1329   77.6108  218.9553 H   0  0  0  0  0  0  0  0  0  0  0  0
  143.9895   76.4923  217.8942 H   0  0  0  0  0  0  0  0  0  0  0  0
  141.2414   76.8530  217.7824 H   0  0  0  0  0  0  0  0  0  0  0  0
  141.9435   75.3265  217.3307 H   0  0  0  0  0  0  0  0  0  0  0  0
  140.3435   74.8959  219.2908 H   0  0  0  0  0  0  0  0  0  0  0  0
  141.4570   75.2670  222.1803 H   0  0  0  0  0  0  0  0  0  0  0  0
  140.9052   77.0491  223.7982 H   0  0  0  0  0  0  0  0  0  0  0  0
  140.1985   81.4957  222.9177 H   0  0  0  0  0  0  0  0  0  0  0  0
  140.5700   80.6627  224.5666 H   0  0  0  0  0  0  0  0  0  0  0  0
  139.8825   79.6479  220.5705 H   0  0  0  0  0  0  0  0  0  0  0  0
  140.4250   77.8938  218.9748 H   0  0  0  0  0  0  0  0  0  0  0  0
  139.1635   70.0086  222.5317 H   0  0  0  0  0  0  0  0  0  0  0  0
  138.7655   68.6523  224.5759 H   0  0  0  0  0  0  0  0  0  0  0  0
  139.0389   68.3076  226.9516 H   0  0  0  0  0  0  0  0  0  0  0  0
  139.9406   69.0809  229.1184 H   0  0  0  0  0  0  0  0  0  0  0  0
  141.2477   71.1966  229.3009 H   0  0  0  0  0  0  0  0  0  0  0  0
  141.6187   72.5237  227.2046 H   0  0  0  0  0  0  0  0  0  0  0  0
  1  2  2  0
  2  3  1  0
  3  4  1  0
  4  5  1  0
  5  6  2  0
  5  7  1  0
  7  8  1  0
  8  9  1  0
  9 10  1  0
 10 11  1  0
 11 12  1  0
 12 13  2  0
 13 14  1  0
 14 15  2  0
 15 16  1  0
 16 17  1  0
 17 18  1  0
 18 19  1  0
 18 20  1  0
 18 21  1  0
 15 22  1  0
 22 23  2  0
  2 24  1  0
 24 25  2  0
 25 26  1  0
 26 27  2  0
 27 28  1  0
 28 29  2  0
 29 30  1  0
 30 31  2  0
 31 32  1  0
 32 33  2  0
 11  7  1  0
 23 12  1  0
 33 24  1  0
 32 27  1  0
  3 34  1  0
  4 35  1  0
  4 36  1  0
  8 37  1  0
  8 38  1  0
  9 39  1  0
  9 40  1  0
 10 41  1  0
 10 42  1  0
 11 43  1  6
 13 44  1  0
 14 45  1  0
 17 46  1  0
 17 47  1  0
 22 48  1  0
 23 49  1  0
 25 50  1  0
 26 51  1  0
 28 52  1  0
 29 53  1  0
 30 54  1  0
 31 55  1  0
M  END
>  <smiles>  (3) 
O=C(NCC(=O)N1CCCC1c1ccc(OCC(F)(F)F)cc1)c1ccc2ccccc2n1

>  <score_type>  (3) 
oracle

>  <origin>  (3) 
autodockgpu

>  <m_score__min__energy>  (3) 
-8.0399999999999991

>  <m_primary>  (3) 
energy

>  <rmsd>  (3) 
2.6741873971694545

>  <m_score__min__rmsd>  (3) 
2.6741873971694545

>  <meeko>  (3) 
{"free_energy": -7.81, "intermolecular_energy": -10.19, "internal_energy": -1.68, "cluster_size": 19, "cluster_id": 2, "rank_in_cluster": 9}

>  <energy>  (3) 
-7.73

>  <cluster_rmsd>  (3) 
0.76

>  <cluster>  (3) 
1

$$$$

     RDKit          3D

 55 58  0  0  0  0  0  0  0  0999 V2000
  138.4900   75.6700  221.9060 O   0  0  0  0  0  0  0  0  0  0  0  0
  139.6780   76.0420  222.1420 C   0  0  0  0  0  0  0  0  0  0  0  0
  140.6940   75.0450  221.9620 N   0  0  0  0  0  0  0  0  0  0  0  0
  140.2660   73.7260  221.5340 C   0  0  0  0  0  0  0  0  0  0  0  0
  140.8450   73.3570  220.2220 C   0  0  0  0  0  0  0  0  0  0  0  0
  140.4370   72.3960  219.5270 O   0  0  0  0  0  0  0  0  0  0  0  0
  141.9230   74.1500  219.7400 N   0  0  0  0  0  0  0  0  0  0  0  0
  143.1430   74.5550  220.4190 C   0  0  0  0  0  0  0  0  0  0  0  0
  144.1930   74.4740  219.3060 C   0  0  0  0  0  0  0  0  0  0  0  0
  143.4000   74.1840  218.0410 C   0  0  0  0  0  0  0  0  0  0  0  0
  142.0450   74.7570  218.4010 C   0  0  2  0  0  0  0  0  0  0  0  0
  142.0570   76.2340  218.5490 C   0  0  0  0  0  0  0  0  0  0  0  0
  143.0140   77.0450  218.0000 C   0  0  0  0  0  0  0  0  0  0  0  0
  142.9540   78.4300  218.1860 C   0  0  0  0  0  0  0  0  0  0  0  0
  141.9710   79.0460  218.9040 C   0  0  0  0  0  0  0  0  0  0  0  0
  141.7930   80.3500  219.1540 O   0  0  0  0  0  0  0  0  0  0  0  0
  141.7460   81.0860  220.2790 C   0  0  0  0  0  0  0  0  0  0  0  0
  140.7490   82.1860  220.4250 C   0  0  0  0  0  0  0  0  0  0  0  0
  139.5740   81.5630  220.9020 F   0  0  0  0  0  0  0  0  0  0  0  0
  141.0130   83.1670  221.3220 F   0  0  0  0  0  0  0  0  0  0  0  0
  140.3660   82.7120  219.1950 F   0  0  0  0  0  0  0  0  0  0  0  0
  141.0030   78.1730  219.4540 C   0  0  0  0  0  0  0  0  0  0  0  0
  141.0510   76.8220  219.2800 C   0  0  0  0  0  0  0  0  0  0  0  0
  140.0180   77.3900  222.5690 C   0  0  0  0  0  0  0  0  0  0  0  0
  138.9730   78.2270  222.9000 C   0  0  0  0  0  0  0  0  0  0  0  0
  139.2810   79.5040  223.3050 C   0  0  0  0  0  0  0  0  0  0  0  0
  140.5880   79.9310  223.3770 C   0  0  0  0  0  0  0  0  0  0  0  0
  140.8960   81.2170  223.7850 C   0  0  0  0  0  0  0  0  0  0  0  0
  142.2230   81.6120  223.8450 C   0  0  0  0  0  0  0  0  0  0  0  0
  143.2650   80.7650  223.5110 C   0  0  0  0  0  0  0  0  0  0  0  0
  142.9130   79.4770  223.1040 C   0  0  0  0  0  0  0  0  0  0  0  0
  141.6030   79.0680  223.0380 C   0  0  0  0  0  0  0  0  0  0  0  0
  141.2840   77.8090  222.6400 N   0  0  0  0  0  0  0  0  0  0  0  0
  141.6980   75.2820  222.1380 H   0  0  0  0  0  0  0  0  0  0  0  0
  140.5854   72.9875  222.2841 H   0  0  0  0  0  0  0  0  0  0  0  0
  139.1708   73.7391  221.4321 H   0  0  0  0  0  0  0  0  0  0  0  0
  143.0577   75.5798  220.8096 H   0  0  0  0  0  0  0  0  0  0  0  0
  143.3840   73.9302  221.2917 H   0  0  0  0  0  0  0  0  0  0  0  0
  144.7338   75.4275  219.2138 H   0  0  0  0  0  0  0  0  0  0  0  0
  144.9504   73.7019  219.5063 H   0  0  0  0  0  0  0  0  0  0  0  0
  143.8337   74.6941  217.1682 H   0  0  0  0  0  0  0  0  0  0  0  0
  143.3783   73.1215  217.7570 H   0  0  0  0  0  0  0  0  0  0  0  0
  141.2560   74.5596  217.6604 H   0  0  0  0  0  0  0  0  0  0  0  0
  143.8326   76.6059  217.4108 H   0  0  0  0  0  0  0  0  0  0  0  0
  143.7379   79.0532  217.7310 H   0  0  0  0  0  0  0  0  0  0  0  0
  141.5643   80.3846  221.1067 H   0  0  0  0  0  0  0  0  0  0  0  0
  142.7055   81.6236  220.2622 H   0  0  0  0  0  0  0  0  0  0  0  0
  140.1798   78.6011  220.0449 H   0  0  0  0  0  0  0  0  0  0  0  0
  140.2717   76.1909  219.7320 H   0  0  0  0  0  0  0  0  0  0  0  0
  137.9293   77.8846  222.8419 H   0  0  0  0  0  0  0  0  0  0  0  0
  138.4700   80.1960  223.5760 H   0  0  0  0  0  0  0  0  0  0  0  0
  140.0949   81.9192  224.0592 H   0  0  0  0  0  0  0  0  0  0  0  0
  142.4566   82.6366  224.1701 H   0  0  0  0  0  0  0  0  0  0  0  0
  144.3148   81.0894  223.5634 H   0  0  0  0  0  0  0  0  0  0  0  0
  143.7079   78.7685  222.8280 H   0  0  0  0  0  0  0  0  0  0  0  0
  1  2  2  0
  2  3  1  0
  3  4  1  0
  4  5  1  0
  5  6  2  0
  5  7  1  0
  7  8  1  0
  8  9  1  0
  9 10  1  0
 10 11  1  0
 11 12  1  0
 12 13  2  0
 13 14  1  0
 14 15  2  0
 15 16  1  0
 16 17  1  0
 17 18  1  0
 18 19  1  0
 18 20  1  0
 18 21  1  0
 15 22  1  0
 22 23  2  0
  2 24  1  0
 24 25  2  0
 25 26  1  0
 26 27  2  0
 27 28  1  0
 28 29  2  0
 29 30  1  0
 30 31  2  0
 31 32  1  0
 32 33  2  0
 11  7  1  0
 23 12  1  0
 33 24  1  0
 32 27  1  0
  3 34  1  0
  4 35  1  0
  4 36  1  0
  8 37  1  0
  8 38  1  0
  9 39  1  0
  9 40  1  0
 10 41  1  0
 10 42  1  0
 11 43  1  6
 13 44  1  0
 14 45  1  0
 17 46  1  0
 17 47  1  0
 22 48  1  0
 23 49  1  0
 25 50  1  0
 26 51  1  0
 28 52  1  0
 29 53  1  0
 30 54  1  0
 31 55  1  0
M  END
>  <smiles>  (4) 
O=C(NCC(=O)N1CCCC1c1ccc(OCC(F)(F)F)cc1)c1ccc2ccccc2n1

>  <score_type>  (4) 
oracle

>  <origin>  (4) 
autodockgpu

>  <m_score__min__energy>  (4) 
-8.0399999999999991

>  <m_primary>  (4) 
energy

>  <rmsd>  (4) 
7.536855752543048

>  <m_score__min__rmsd>  (4) 
7.536855752543048

>  <meeko>  (4) 
{"free_energy": -5.63, "intermolecular_energy": -8.01, "internal_energy": -3.12, "cluster_size": 6, "cluster_id": 7, "rank_in_cluster": 5}

>  <energy>  (4) 
-7.67

>  <cluster_rmsd>  (4) 
0.65

>  <cluster>  (4) 
1

$$$$

     RDKit          3D

 55 58  0  0  0  0  0  0  0  0999 V2000
  140.6370   71.0960  221.2040 O   0  0  0  0  0  0  0  0  0  0  0  0
  140.1850   71.7290  222.2040 C   0  0  0  0  0  0  0  0  0  0  0  0
  139.6880   73.0480  221.9370 N   0  0  0  0  0  0  0  0  0  0  0  0
  139.7510   73.5200  220.5660 C   0  0  0  0  0  0  0  0  0  0  0  0
  140.3400   74.8760  220.4760 C   0  0  0  0  0  0  0  0  0  0  0  0
  139.7930   75.9050  220.9380 O   0  0  0  0  0  0  0  0  0  0  0  0
  141.5990   74.9950  219.8240 N   0  0  0  0  0  0  0  0  0  0  0  0
  141.9100   74.9410  218.4050 C   0  0  0  0  0  0  0  0  0  0  0  0
  143.0080   76.0010  218.2590 C   0  0  0  0  0  0  0  0  0  0  0  0
  143.3250   76.4340  219.6820 C   0  0  0  0  0  0  0  0  0  0  0  0
  142.9100   75.2060  220.4660 C   0  0  2  0  0  0  0  0  0  0  0  0
  143.7660   74.0250  220.1960 C   0  0  0  0  0  0  0  0  0  0  0  0
  145.1290   74.0840  220.0790 C   0  0  0  0  0  0  0  0  0  0  0  0
  145.8650   72.9230  219.8220 C   0  0  0  0  0  0  0  0  0  0  0  0
  145.2940   71.6920  219.6770 C   0  0  0  0  0  0  0  0  0  0  0  0
  145.8750   70.5100  219.4370 O   0  0  0  0  0  0  0  0  0  0  0  0
  145.5070   69.4100  218.7560 C   0  0  0  0  0  0  0  0  0  0  0  0
  145.3990   68.0910  219.4440 C   0  0  0  0  0  0  0  0  0  0  0  0
  145.4610   67.1260  218.4140 F   0  0  0  0  0  0  0  0  0  0  0  0
  146.3840   67.7430  220.3080 F   0  0  0  0  0  0  0  0  0  0  0  0
  144.1410   67.8930  220.0040 F   0  0  0  0  0  0  0  0  0  0  0  0
  143.8860   71.6740  219.8050 C   0  0  0  0  0  0  0  0  0  0  0  0
  143.1570   72.7990  220.0540 C   0  0  0  0  0  0  0  0  0  0  0  0
  140.1610   71.1770  223.5490 C   0  0  0  0  0  0  0  0  0  0  0  0
  139.5910   69.9300  223.7060 C   0  0  0  0  0  0  0  0  0  0  0  0
  139.5630   69.3970  224.9730 C   0  0  0  0  0  0  0  0  0  0  0  0
  140.0840   70.0850  226.0460 C   0  0  0  0  0  0  0  0  0  0  0  0
  140.0540   69.5460  227.3200 C   0  0  0  0  0  0  0  0  0  0  0  0
  140.5880   70.2670  228.3770 C   0  0  0  0  0  0  0  0  0  0  0  0
  141.1570   71.5170  228.2090 C   0  0  0  0  0  0  0  0  0  0  0  0
  141.1680   72.0260  226.9090 C   0  0  0  0  0  0  0  0  0  0  0  0
  140.6430   71.3250  225.8500 C   0  0  0  0  0  0  0  0  0  0  0  0
  140.6650   71.8400  224.5930 N   0  0  0  0  0  0  0  0  0  0  0  0
  139.2990   73.6300  222.7160 H   0  0  0  0  0  0  0  0  0  0  0  0
  140.3680   72.8244  219.9783 H   0  0  0  0  0  0  0  0  0  0  0  0
  138.7244   73.5672  220.1738 H   0  0  0  0  0  0  0  0  0  0  0  0
  142.2793   73.9455  218.1176 H   0  0  0  0  0  0  0  0  0  0  0  0
  141.0380   75.1247  217.7601 H   0  0  0  0  0  0  0  0  0  0  0  0
  143.8989   75.5717  217.7775 H   0  0  0  0  0  0  0  0  0  0  0  0
  142.6879   76.8452  217.6307 H   0  0  0  0  0  0  0  0  0  0  0  0
  144.3964   76.6491  219.8081 H   0  0  0  0  0  0  0  0  0  0  0  0
  142.8193   77.3596  219.9942 H   0  0  0  0  0  0  0  0  0  0  0  0
  142.9464   75.3298  221.5584 H   0  0  0  0  0  0  0  0  0  0  0  0
  145.6470   75.0483  220.1876 H   0  0  0  0  0  0  0  0  0  0  0  0
  146.9582   73.0061  219.7323 H   0  0  0  0  0  0  0  0  0  0  0  0
  144.5170   69.6226  218.3263 H   0  0  0  0  0  0  0  0  0  0  0  0
  146.3471   69.2576  218.0624 H   0  0  0  0  0  0  0  0  0  0  0  0
  143.3580   70.7148  219.6995 H   0  0  0  0  0  0  0  0  0  0  0  0
  142.0631   72.7254  220.1429 H   0  0  0  0  0  0  0  0  0  0  0  0
  139.1740   69.3821  222.8481 H   0  0  0  0  0  0  0  0  0  0  0  0
  139.1169   68.4042  225.1323 H   0  0  0  0  0  0  0  0  0  0  0  0
  139.6104   68.5543  227.4927 H   0  0  0  0  0  0  0  0  0  0  0  0
  140.5582   69.8294  229.3858 H   0  0  0  0  0  0  0  0  0  0  0  0
  141.5784   72.0799  229.0549 H   0  0  0  0  0  0  0  0  0  0  0  0
  141.6097   73.0169  226.7271 H   0  0  0  0  0  0  0  0  0  0  0  0
  1  2  2  0
  2  3  1  0
  3  4  1  0
  4  5  1  0
  5  6  2  0
  5  7  1  0
  7  8  1  0
  8  9  1  0
  9 10  1  0
 10 11  1  0
 11 12  1  0
 12 13  2  0
 13 14  1  0
 14 15  2  0
 15 16  1  0
 16 17  1  0
 17 18  1  0
 18 19  1  0
 18 20  1  0
 18 21  1  0
 15 22  1  0
 22 23  2  0
  2 24  1  0
 24 25  2  0
 25 26  1  0
 26 27  2  0
 27 28  1  0
 28 29  2  0
 29 30  1  0
 30 31  2  0
 31 32  1  0
 32 33  2  0
 11  7  1  0
 23 12  1  0
 33 24  1  0
 32 27  1  0
  3 34  1  0
  4 35  1  0
  4 36  1  0
  8 37  1  0
  8 38  1  0
  9 39  1  0
  9 40  1  0
 10 41  1  0
 10 42  1  0
 11 43  1  1
 13 44  1  0
 14 45  1  0
 17 46  1  0
 17 47  1  0
 22 48  1  0
 23 49  1  0
 25 50  1  0
 26 51  1  0
 28 52  1  0
 29 53  1  0
 30 54  1  0
 31 55  1  0
M  END
>  <smiles>  (5) 
O=C(NCC(=O)N1CCCC1c1ccc(OCC(F)(F)F)cc1)c1ccc2ccccc2n1

>  <score_type>  (5) 
oracle

>  <origin>  (5) 
autodockgpu

>  <m_score__min__energy>  (5) 
-8.0399999999999991

>  <m_primary>  (5) 
energy

>  <rmsd>  (5) 
2.1185841698231362

>  <m_score__min__rmsd>  (5) 
2.1185841698231362

>  <meeko>  (5) 
{"free_energy": -7.73, "intermolecular_energy": -10.12, "internal_energy": -1.63, "cluster_size": 10, "cluster_id": 1, "rank_in_cluster": 3}

>  <energy>  (5) 
-7.62

>  <cluster_rmsd>  (5) 
1.04

>  <cluster>  (5) 
1

$$$$

     RDKit          3D

 55 58  0  0  0  0  0  0  0  0999 V2000
  140.0050   71.3530  221.2450 O   0  0  0  0  0  0  0  0  0  0  0  0
  139.8880   71.9560  222.3540 C   0  0  0  0  0  0  0  0  0  0  0  0
  139.6700   73.3720  222.2770 N   0  0  0  0  0  0  0  0  0  0  0  0
  139.6050   73.9660  220.9550 C   0  0  0  0  0  0  0  0  0  0  0  0
  138.2720   74.5490  220.6770 C   0  0  0  0  0  0  0  0  0  0  0  0
  137.5780   74.2510  219.6750 O   0  0  0  0  0  0  0  0  0  0  0  0
  137.7690   75.4970  221.6100 N   0  0  0  0  0  0  0  0  0  0  0  0
  138.4500   76.1510  222.7150 C   0  0  0  0  0  0  0  0  0  0  0  0
  137.8670   77.5690  222.6790 C   0  0  0  0  0  0  0  0  0  0  0  0
  136.7650   77.5120  221.6320 C   0  0  0  0  0  0  0  0  0  0  0  0
  136.4000   76.0430  221.6640 C   0  0  2  0  0  0  0  0  0  0  0  0
  135.7730   75.6250  222.9430 C   0  0  0  0  0  0  0  0  0  0  0  0
  135.2870   76.5040  223.8730 C   0  0  0  0  0  0  0  0  0  0  0  0
  134.7100   76.0300  225.0560 C   0  0  0  0  0  0  0  0  0  0  0  0
  134.5960   74.7020  225.3530 C   0  0  0  0  0  0  0  0  0  0  0  0
  134.0670   74.1170  226.4340 O   0  0  0  0  0  0  0  0  0  0  0  0
  132.8220   73.7400  226.7760 C   0  0  0  0  0  0  0  0  0  0  0  0
  132.4960   72.3010  226.9920 C   0  0  0  0  0  0  0  0  0  0  0  0
  131.4600   72.2930  227.9530 F   0  0  0  0  0  0  0  0  0  0  0  0
  132.0040   71.5980  225.9430 F   0  0  0  0  0  0  0  0  0  0  0  0
  133.5320   71.6180  227.6200 F   0  0  0  0  0  0  0  0  0  0  0  0
  135.1110   73.8290  224.3660 C   0  0  0  0  0  0  0  0  0  0  0  0
  135.6760   74.2790  223.2100 C   0  0  0  0  0  0  0  0  0  0  0  0
  139.9670   71.2770  223.6380 C   0  0  0  0  0  0  0  0  0  0  0  0
  139.5260   69.9720  223.6870 C   0  0  0  0  0  0  0  0  0  0  0  0
  139.5950   69.3200  224.8950 C   0  0  0  0  0  0  0  0  0  0  0  0
  140.0870   69.9490  226.0150 C   0  0  0  0  0  0  0  0  0  0  0  0
  140.1560   69.2910  227.2310 C   0  0  0  0  0  0  0  0  0  0  0  0
  140.6570   69.9570  228.3380 C   0  0  0  0  0  0  0  0  0  0  0  0
  141.0960   71.2680  228.2800 C   0  0  0  0  0  0  0  0  0  0  0  0
  141.0100   71.8970  227.0370 C   0  0  0  0  0  0  0  0  0  0  0  0
  140.5170   71.2530  225.9280 C   0  0  0  0  0  0  0  0  0  0  0  0
  140.4430   71.8840  224.7280 N   0  0  0  0  0  0  0  0  0  0  0  0
  139.5640   73.9340  223.1540 H   0  0  0  0  0  0  0  0  0  0  0  0
  140.3625   74.7605  220.8843 H   0  0  0  0  0  0  0  0  0  0  0  0
  139.7918   73.1735  220.2153 H   0  0  0  0  0  0  0  0  0  0  0  0
  138.2246   75.6537  223.6699 H   0  0  0  0  0  0  0  0  0  0  0  0
  139.5462   76.1276  222.6272 H   0  0  0  0  0  0  0  0  0  0  0  0
  137.4541   77.8428  223.6611 H   0  0  0  0  0  0  0  0  0  0  0  0
  138.6293   78.3244  222.4375 H   0  0  0  0  0  0  0  0  0  0  0  0
  135.9104   78.1453  221.9122 H   0  0  0  0  0  0  0  0  0  0  0  0
  137.0670   77.8793  220.6401 H   0  0  0  0  0  0  0  0  0  0  0  0
  135.6809   75.7364  220.8901 H   0  0  0  0  0  0  0  0  0  0  0  0
  135.3504   77.5867  223.6895 H   0  0  0  0  0  0  0  0  0  0  0  0
  134.3295   76.7630  225.7826 H   0  0  0  0  0  0  0  0  0  0  0  0
  132.5823   74.2611  227.7147 H   0  0  0  0  0  0  0  0  0  0  0  0
  132.2340   73.9937  225.8817 H   0  0  0  0  0  0  0  0  0  0  0  0
  135.0532   72.7441  224.5383 H   0  0  0  0  0  0  0  0  0  0  0  0
  136.0609   73.5535  222.4782 H   0  0  0  0  0  0  0  0  0  0  0  0
  139.1326   69.4700  222.7908 H   0  0  0  0  0  0  0  0  0  0  0  0
  139.2510   68.2777  224.9674 H   0  0  0  0  0  0  0  0  0  0  0  0
  139.8161   68.2484  227.3177 H   0  0  0  0  0  0  0  0  0  0  0  0
  140.7076   69.4237  229.2987 H   0  0  0  0  0  0  0  0  0  0  0  0
  141.4915   71.7865  229.1658 H   0  0  0  0  0  0  0  0  0  0  0  0
  141.3471   72.9398  226.9424 H   0  0  0  0  0  0  0  0  0  0  0  0
  1  2  2  0
  2  3  1  0
  3  4  1  0
  4  5  1  0
  5  6  2  0
  5  7  1  0
  7  8  1  0
  8  9  1  0
  9 10  1  0
 10 11  1  0
 11 12  1  0
 12 13  2  0
 13 14  1  0
 14 15  2  0
 15 16  1  0
 16 17  1  0
 17 18  1  0
 18 19  1  0
 18 20  1  0
 18 21  1  0
 15 22  1  0
 22 23  2  0
  2 24  1  0
 24 25  2  0
 25 26  1  0
 26 27  2  0
 27 28  1  0
 28 29  2  0
 29 30  1  0
 30 31  2  0
 31 32  1  0
 32 33  2  0
 11  7  1  0
 23 12  1  0
 33 24  1  0
 32 27  1  0
  3 34  1  0
  4 35  1  0
  4 36  1  0
  8 37  1  0
  8 38  1  0
  9 39  1  0
  9 40  1  0
 10 41  1  0
 10 42  1  0
 11 43  1  6
 13 44  1  0
 14 45  1  0
 17 46  1  0
 17 47  1  0
 22 48  1  0
 23 49  1  0
 25 50  1  0
 26 51  1  0
 28 52  1  0
 29 53  1  0
 30 54  1  0
 31 55  1  0
M  END
>  <smiles>  (6) 
O=C(NCC(=O)N1CCCC1c1ccc(OCC(F)(F)F)cc1)c1ccc2ccccc2n1

>  <score_type>  (6) 
oracle

>  <origin>  (6) 
autodockgpu

>  <m_score__min__energy>  (6) 
-8.0399999999999991

>  <m_primary>  (6) 
energy

>  <rmsd>  (6) 
3.327693876517316

>  <m_score__min__rmsd>  (6) 
3.327693876517316

>  <meeko>  (6) 
{"free_energy": -7.53, "intermolecular_energy": -9.92, "internal_energy": -1.58, "cluster_size": 4, "cluster_id": 4, "rank_in_cluster": 2}

>  <energy>  (6) 
-7.48

>  <cluster_rmsd>  (6) 
1.31

>  <cluster>  (6) 
1

$$$$

     RDKit          3D

 55 58  0  0  0  0  0  0  0  0999 V2000
  140.9660   79.5400  218.3580 O   0  0  0  0  0  0  0  0  0  0  0  0
  141.8360   78.9940  219.0990 C   0  0  0  0  0  0  0  0  0  0  0  0
  142.1950   79.7220  220.2830 N   0  0  0  0  0  0  0  0  0  0  0  0
  141.5360   80.9940  220.5100 C   0  0  0  0  0  0  0  0  0  0  0  0
  141.1870   81.1870  221.9360 C   0  0  0  0  0  0  0  0  0  0  0  0
  141.7490   82.0240  222.6830 O   0  0  0  0  0  0  0  0  0  0  0  0
  140.1530   80.3690  222.4690 N   0  0  0  0  0  0  0  0  0  0  0  0
  139.8920   79.9990  223.8500 C   0  0  0  0  0  0  0  0  0  0  0  0
  138.3600   80.0200  223.9220 C   0  0  0  0  0  0  0  0  0  0  0  0
  137.9050   80.2440  222.4880 C   0  0  0  0  0  0  0  0  0  0  0  0
  139.0830   79.6920  221.7120 C   0  0  2  0  0  0  0  0  0  0  0  0
  139.2480   78.2250  221.8680 C   0  0  0  0  0  0  0  0  0  0  0  0
  138.2000   77.3510  221.9820 C   0  0  0  0  0  0  0  0  0  0  0  0
  138.4400   75.9800  222.1250 C   0  0  0  0  0  0  0  0  0  0  0  0
  139.6930   75.4390  222.1590 C   0  0  0  0  0  0  0  0  0  0  0  0
  140.0610   74.1580  222.2850 O   0  0  0  0  0  0  0  0  0  0  0  0
  140.2690   73.1560  221.4120 C   0  0  0  0  0  0  0  0  0  0  0  0
  141.0300   71.9400  221.8180 C   0  0  0  0  0  0  0  0  0  0  0  0
  140.3540   70.8570  221.2140 F   0  0  0  0  0  0  0  0  0  0  0  0
  142.3140   71.8260  221.3990 F   0  0  0  0  0  0  0  0  0  0  0  0
  140.9150   71.6810  223.1800 F   0  0  0  0  0  0  0  0  0  0  0  0
  140.7460   76.3760  222.0390 C   0  0  0  0  0  0  0  0  0  0  0  0
  140.5250   77.7140  221.8990 C   0  0  0  0  0  0  0  0  0  0  0  0
  142.4470   77.7110  218.7930 C   0  0  0  0  0  0  0  0  0  0  0  0
  142.5610   77.3700  217.4620 C   0  0  0  0  0  0  0  0  0  0  0  0
  143.1370   76.1590  217.1600 C   0  0  0  0  0  0  0  0  0  0  0  0
  143.5840   75.3170  218.1530 C   0  0  0  0  0  0  0  0  0  0  0  0
  144.1630   74.0980  217.8460 C   0  0  0  0  0  0  0  0  0  0  0  0
  144.6010   73.2760  218.8730 C   0  0  0  0  0  0  0  0  0  0  0  0
  144.4820   73.6260  220.2060 C   0  0  0  0  0  0  0  0  0  0  0  0
  143.8930   74.8620  220.4740 C   0  0  0  0  0  0  0  0  0  0  0  0
  143.4520   75.6910  219.4690 C   0  0  0  0  0  0  0  0  0  0  0  0
  142.8820   76.8900  219.7530 N   0  0  0  0  0  0  0  0  0  0  0  0
  142.9080   79.3300  220.9420 H   0  0  0  0  0  0  0  0  0  0  0  0
  142.2096   81.8048  220.1956 H   0  0  0  0  0  0  0  0  0  0  0  0
  140.6039   81.0047  219.9259 H   0  0  0  0  0  0  0  0  0  0  0  0
  140.2857   78.9964  224.0730 H   0  0  0  0  0  0  0  0  0  0  0  0
  140.3721   80.6684  224.5790 H   0  0  0  0  0  0  0  0  0  0  0  0
  137.9772   79.0624  224.3046 H   0  0  0  0  0  0  0  0  0  0  0  0
  137.9876   80.8005  224.6018 H   0  0  0  0  0  0  0  0  0  0  0  0
  136.9817   79.6884  222.2673 H   0  0  0  0  0  0  0  0  0  0  0  0
  137.6607   81.2902  222.2516 H   0  0  0  0  0  0  0  0  0  0  0  0
  139.0264   79.8506  220.6250 H   0  0  0  0  0  0  0  0  0  0  0  0
  137.1667   77.7278  221.9611 H   0  0  0  0  0  0  0  0  0  0  0  0
  137.5764   75.3046  222.2145 H   0  0  0  0  0  0  0  0  0  0  0  0
  139.2764   72.8116  221.0864 H   0  0  0  0  0  0  0  0  0  0  0  0
  140.9261   73.6175  220.6602 H   0  0  0  0  0  0  0  0  0  0  0  0
  141.7834   76.0109  222.0594 H   0  0  0  0  0  0  0  0  0  0  0  0
  141.3827   78.3969  221.8093 H   0  0  0  0  0  0  0  0  0  0  0  0
  142.2035   78.0436  216.6693 H   0  0  0  0  0  0  0  0  0  0  0  0
  143.2425   75.8578  216.1073 H   0  0  0  0  0  0  0  0  0  0  0  0
  144.2746   73.7844  216.7976 H   0  0  0  0  0  0  0  0  0  0  0  0
  145.0603   72.3095  218.6183 H   0  0  0  0  0  0  0  0  0  0  0  0
  144.8331   72.9648  221.0120 H   0  0  0  0  0  0  0  0  0  0  0  0
  143.7779   75.1830  221.5198 H   0  0  0  0  0  0  0  0  0  0  0  0
  1  2  2  0
  2  3  1  0
  3  4  1  0
  4  5  1  0
  5  6  2  0
  5  7  1  0
  7  8  1  0
  8  9  1  0
  9 10  1  0
 10 11  1  0
 11 12  1  0
 12 13  2  0
 13 14  1  0
 14 15  2  0
 15 16  1  0
 16 17  1  0
 17 18  1  0
 18 19  1  0
 18 20  1  0
 18 21  1  0
 15 22  1  0
 22 23  2  0
  2 24  1  0
 24 25  2  0
 25 26  1  0
 26 27  2  0
 27 28  1  0
 28 29  2  0
 29 30  1  0
 30 31  2  0
 31 32  1  0
 32 33  2  0
 11  7  1  0
 23 12  1  0
 33 24  1  0
 32 27  1  0
  3 34  1  0
  4 35  1  0
  4 36  1  0
  8 37  1  0
  8 38  1  0
  9 39  1  0
  9 40  1  0
 10 41  1  0
 10 42  1  0
 11 43  1  6
 13 44  1  0
 14 45  1  0
 17 46  1  0
 17 47  1  0
 22 48  1  0
 23 49  1  0
 25 50  1  0
 26 51  1  0
 28 52  1  0
 29 53  1  0
 30 54  1  0
 31 55  1  0
M  END
>  <smiles>  (7) 
O=C(NCC(=O)N1CCCC1c1ccc(OCC(F)(F)F)cc1)c1ccc2ccccc2n1

>  <score_type>  (7) 
oracle

>  <origin>  (7) 
autodockgpu

>  <m_score__min__energy>  (7) 
-8.0399999999999991

>  <m_primary>  (7) 
energy

>  <rmsd>  (7) 
8.50177505379668

>  <m_score__min__rmsd>  (7) 
8.50177505379668

>  <meeko>  (7) 
{"free_energy": -6.07, "intermolecular_energy": -8.46, "internal_energy": -2.53, "cluster_size": 5, "cluster_id": 6, "rank_in_cluster": 4}

>  <energy>  (7) 
-7.43

>  <cluster_rmsd>  (7) 
1.03

>  <cluster>  (7) 
1

$$$$

     RDKit          3D

 55 58  0  0  0  0  0  0  0  0999 V2000
  140.6170   73.3180  222.7040 O   0  0  0  0  0  0  0  0  0  0  0  0
  140.2610   72.1060  222.5980 C   0  0  0  0  0  0  0  0  0  0  0  0
  139.9790   71.6510  221.2670 N   0  0  0  0  0  0  0  0  0  0  0  0
  140.1260   72.6100  220.1880 C   0  0  0  0  0  0  0  0  0  0  0  0
  141.5450   72.7920  219.8020 C   0  0  0  0  0  0  0  0  0  0  0  0
  142.3010   71.8490  219.4670 O   0  0  0  0  0  0  0  0  0  0  0  0
  142.0580   74.1180  219.8190 N   0  0  0  0  0  0  0  0  0  0  0  0
  143.3440   74.6020  220.2960 C   0  0  0  0  0  0  0  0  0  0  0  0
  143.6970   75.6870  219.2720 C   0  0  0  0  0  0  0  0  0  0  0  0
  142.4580   75.8190  218.3990 C   0  0  0  0  0  0  0  0  0  0  0  0
  141.3760   75.3360  219.3420 C   0  0  2  0  0  0  0  0  0  0  0  0
  141.1630   76.2430  220.4970 C   0  0  0  0  0  0  0  0  0  0  0  0
  140.5880   75.8500  221.6770 C   0  0  0  0  0  0  0  0  0  0  0  0
  140.4220   76.7680  222.7190 C   0  0  0  0  0  0  0  0  0  0  0  0
  140.8090   78.0740  222.6350 C   0  0  0  0  0  0  0  0  0  0  0  0
  140.7150   79.0470  223.5490 O   0  0  0  0  0  0  0  0  0  0  0  0
  140.8660   80.3840  223.5090 C   0  0  0  0  0  0  0  0  0  0  0  0
  142.2230   80.9910  223.3870 C   0  0  0  0  0  0  0  0  0  0  0  0
  142.2340   81.6290  222.1270 F   0  0  0  0  0  0  0  0  0  0  0  0
  142.5660   81.9590  224.2710 F   0  0  0  0  0  0  0  0  0  0  0  0
  143.2200   80.0270  223.2760 F   0  0  0  0  0  0  0  0  0  0  0  0
  141.3970   78.4390  221.4010 C   0  0  0  0  0  0  0  0  0  0  0  0
  141.5640   77.5540  220.3780 C   0  0  0  0  0  0  0  0  0  0  0  0
  140.1390   71.2120  223.7380 C   0  0  0  0  0  0  0  0  0  0  0  0
  139.4760   70.0200  223.5350 C   0  0  0  0  0  0  0  0  0  0  0  0
  139.3550   69.1670  224.6050 C   0  0  0  0  0  0  0  0  0  0  0  0
  139.8760   69.4920  225.8370 C   0  0  0  0  0  0  0  0  0  0  0  0
  139.7520   68.6320  226.9140 C   0  0  0  0  0  0  0  0  0  0  0  0
  140.2900   68.9930  228.1390 C   0  0  0  0  0  0  0  0  0  0  0  0
  140.9520   70.1920  228.3340 C   0  0  0  0  0  0  0  0  0  0  0  0
  141.0560   71.0320  227.2240 C   0  0  0  0  0  0  0  0  0  0  0  0
  140.5290   70.6910  226.0020 C   0  0  0  0  0  0  0  0  0  0  0  0
  140.6430   71.5240  224.9350 N   0  0  0  0  0  0  0  0  0  0  0  0
  139.6790   70.6610  221.1040 H   0  0  0  0  0  0  0  0  0  0  0  0
  139.5626   72.2514  219.3139 H   0  0  0  0  0  0  0  0  0  0  0  0
  139.7401   73.5790  220.5374 H   0  0  0  0  0  0  0  0  0  0  0  0
  143.2582   75.0246  221.3080 H   0  0  0  0  0  0  0  0  0  0  0  0
  144.1055   73.8122  220.3750 H   0  0  0  0  0  0  0  0  0  0  0  0
  143.9177   76.6389  219.7772 H   0  0  0  0  0  0  0  0  0  0  0  0
  144.5911   75.4281  218.6858 H   0  0  0  0  0  0  0  0  0  0  0  0
  142.2898   76.8624  218.0942 H   0  0  0  0  0  0  0  0  0  0  0  0
  142.5126   75.2604  217.4530 H   0  0  0  0  0  0  0  0  0  0  0  0
  140.3822   75.2355  218.8813 H   0  0  0  0  0  0  0  0  0  0  0  0
  140.2559   74.8092  221.8052 H   0  0  0  0  0  0  0  0  0  0  0  0
  139.9563   76.4200  223.6528 H   0  0  0  0  0  0  0  0  0  0  0  0
  140.2828   80.7410  222.6473 H   0  0  0  0  0  0  0  0  0  0  0  0
  140.5446   80.6985  224.5129 H   0  0  0  0  0  0  0  0  0  0  0  0
  141.7324   79.4773  221.2618 H   0  0  0  0  0  0  0  0  0  0  0  0
  142.0277   77.8939  219.4402 H   0  0  0  0  0  0  0  0  0  0  0  0
  139.0586   69.7612  222.5507 H   0  0  0  0  0  0  0  0  0  0  0  0
  138.8327   68.2077  224.4750 H   0  0  0  0  0  0  0  0  0  0  0  0
  139.2309   67.6702  226.7987 H   0  0  0  0  0  0  0  0  0  0  0  0
  140.1869   68.3007  228.9876 H   0  0  0  0  0  0  0  0  0  0  0  0
  141.3739   70.4686  229.3115 H   0  0  0  0  0  0  0  0  0  0  0  0
  141.5754   71.9957  227.3309 H   0  0  0  0  0  0  0  0  0  0  0  0
  1  2  2  0
  2  3  1  0
  3  4  1  0
  4  5  1  0
  5  6  2  0
  5  7  1  0
  7  8  1  0
  8  9  1  0
  9 10  1  0
 10 11  1  0
 11 12  1  0
 12 13  2  0
 13 14  1  0
 14 15  2  0
 15 16  1  0
 16 17  1  0
 17 18  1  0
 18 19  1  0
 18 20  1  0
 18 21  1  0
 15 22  1  0
 22 23  2  0
  2 24  1  0
 24 25  2  0
 25 26  1  0
 26 27  2  0
 27 28  1  0
 28 29  2  0
 29 30  1  0
 30 31  2  0
 31 32  1  0
 32 33  2  0
 11  7  1  0
 23 12  1  0
 33 24  1  0
 32 27  1  0
  3 34  1  0
  4 35  1  0
  4 36  1  0
  8 37  1  0
  8 38  1  0
  9 39  1  0
  9 40  1  0
 10 41  1  0
 10 42  1  0
 11 43  1  6
 13 44  1  0
 14 45  1  0
 17 46  1  0
 17 47  1  0
 22 48  1  0
 23 49  1  0
 25 50  1  0
 26 51  1  0
 28 52  1  0
 29 53  1  0
 30 54  1  0
 31 55  1  0
M  END
>  <smiles>  (8) 
O=C(NCC(=O)N1CCCC1c1ccc(OCC(F)(F)F)cc1)c1ccc2ccccc2n1

>  <score_type>  (8) 
oracle

>  <origin>  (8) 
autodockgpu

>  <m_score__min__energy>  (8) 
-8.0399999999999991

>  <m_primary>  (8) 
energy

>  <rmsd>  (8) 
2.555522265143768

>  <m_score__min__rmsd>  (8) 
2.555522265143768

>  <meeko>  (8) 
{"free_energy": -7.82, "intermolecular_energy": -10.2, "internal_energy": -1.52, "cluster_size": 19, "cluster_id": 2, "rank_in_cluster": 8}

>  <energy>  (8) 
-7.36

>  <cluster_rmsd>  (8) 
1.15

>  <cluster>  (8) 
1

$$$$

     RDKit          3D

 55 58  0  0  0  0  0  0  0  0999 V2000
  140.0430   71.3630  221.2520 O   0  0  0  0  0  0  0  0  0  0  0  0
  139.8770   71.9650  222.3540 C   0  0  0  0  0  0  0  0  0  0  0  0
  139.6190   73.3740  222.2650 N   0  0  0  0  0  0  0  0  0  0  0  0
  139.5760   73.9620  220.9400 C   0  0  0  0  0  0  0  0  0  0  0  0
  138.2600   74.5790  220.6540 C   0  0  0  0  0  0  0  0  0  0  0  0
  137.5800   74.3250  219.6300 O   0  0  0  0  0  0  0  0  0  0  0  0
  137.7570   75.5100  221.6050 N   0  0  0  0  0  0  0  0  0  0  0  0
  138.4390   76.1450  222.7200 C   0  0  0  0  0  0  0  0  0  0  0  0
  137.8540   77.5620  222.7110 C   0  0  0  0  0  0  0  0  0  0  0  0
  136.7500   77.5230  221.6650 C   0  0  0  0  0  0  0  0  0  0  0  0
  136.3870   76.0520  221.6710 C   0  0  2  0  0  0  0  0  0  0  0  0
  135.7640   75.6110  222.9440 C   0  0  0  0  0  0  0  0  0  0  0  0
  135.1480   76.4610  223.8230 C   0  0  0  0  0  0  0  0  0  0  0  0
  134.5840   75.9650  225.0030 C   0  0  0  0  0  0  0  0  0  0  0  0
  134.6080   74.6440  225.3470 C   0  0  0  0  0  0  0  0  0  0  0  0
  134.1080   74.0400  226.4320 O   0  0  0  0  0  0  0  0  0  0  0  0
  133.2360   73.0330  226.6210 C   0  0  0  0  0  0  0  0  0  0  0  0
  133.7190   71.6330  226.7930 C   0  0  0  0  0  0  0  0  0  0  0  0
  132.5540   70.8350  226.8060 F   0  0  0  0  0  0  0  0  0  0  0  0
  134.4930   71.1040  225.8140 F   0  0  0  0  0  0  0  0  0  0  0  0
  134.2760   71.4220  228.0500 F   0  0  0  0  0  0  0  0  0  0  0  0
  135.2540   73.8010  224.4120 C   0  0  0  0  0  0  0  0  0  0  0  0
  135.8080   74.2720  223.2590 C   0  0  0  0  0  0  0  0  0  0  0  0
  139.9380   71.2930  223.6420 C   0  0  0  0  0  0  0  0  0  0  0  0
  139.4570   70.0020  223.7010 C   0  0  0  0  0  0  0  0  0  0  0  0
  139.5090   69.3570  224.9140 C   0  0  0  0  0  0  0  0  0  0  0  0
  140.0240   69.9780  226.0290 C   0  0  0  0  0  0  0  0  0  0  0  0
  140.0760   69.3260  227.2490 C   0  0  0  0  0  0  0  0  0  0  0  0
  140.6010   69.9840  228.3500 C   0  0  0  0  0  0  0  0  0  0  0  0
  141.0810   71.2800  228.2810 C   0  0  0  0  0  0  0  0  0  0  0  0
  141.0110   71.9030  227.0340 C   0  0  0  0  0  0  0  0  0  0  0  0
  140.4940   71.2670  225.9310 C   0  0  0  0  0  0  0  0  0  0  0  0
  140.4370   71.8920  224.7270 N   0  0  0  0  0  0  0  0  0  0  0  0
  139.4720   73.9350  223.1370 H   0  0  0  0  0  0  0  0  0  0  0  0
  140.3549   74.7354  220.8683 H   0  0  0  0  0  0  0  0  0  0  0  0
  139.7449   73.1612  220.2051 H   0  0  0  0  0  0  0  0  0  0  0  0
  138.2163   75.6301  223.6662 H   0  0  0  0  0  0  0  0  0  0  0  0
  139.5351   76.1250  222.6295 H   0  0  0  0  0  0  0  0  0  0  0  0
  137.4425   77.8171  223.6987 H   0  0  0  0  0  0  0  0  0  0  0  0
  138.6148   78.3227  222.4819 H   0  0  0  0  0  0  0  0  0  0  0  0
  135.8951   78.1499  221.9583 H   0  0  0  0  0  0  0  0  0  0  0  0
  137.0494   77.9090  220.6794 H   0  0  0  0  0  0  0  0  0  0  0  0
  135.6670   75.7575  220.8932 H   0  0  0  0  0  0  0  0  0  0  0  0
  135.0965   77.5370  223.6006 H   0  0  0  0  0  0  0  0  0  0  0  0
  134.0969   76.6746  225.6879 H   0  0  0  0  0  0  0  0  0  0  0  0
  132.6605   73.2806  227.5252 H   0  0  0  0  0  0  0  0  0  0  0  0
  132.6965   72.9914  225.6633 H   0  0  0  0  0  0  0  0  0  0  0  0
  135.3114   72.7231  224.6239 H   0  0  0  0  0  0  0  0  0  0  0  0
  136.2985   73.5700  222.5687 H   0  0  0  0  0  0  0  0  0  0  0  0
  139.0463   69.5059  222.8093 H   0  0  0  0  0  0  0  0  0  0  0  0
  139.1324   68.3266  224.9948 H   0  0  0  0  0  0  0  0  0  0  0  0
  139.7041   68.2951  227.3437 H   0  0  0  0  0  0  0  0  0  0  0  0
  140.6375   69.4564  229.3145 H   0  0  0  0  0  0  0  0  0  0  0  0
  141.4956   71.7919  229.1619 H   0  0  0  0  0  0  0  0  0  0  0  0
  141.3807   72.9339  226.9311 H   0  0  0  0  0  0  0  0  0  0  0  0
  1  2  2  0
  2  3  1  0
  3  4  1  0
  4  5  1  0
  5  6  2  0
  5  7  1  0
  7  8  1  0
  8  9  1  0
  9 10  1  0
 10 11  1  0
 11 12  1  0
 12 13  2  0
 13 14  1  0
 14 15  2  0
 15 16  1  0
 16 17  1  0
 17 18  1  0
 18 19  1  0
 18 20  1  0
 18 21  1  0
 15 22  1  0
 22 23  2  0
  2 24  1  0
 24 25  2  0
 25 26  1  0
 26 27  2  0
 27 28  1  0
 28 29  2  0
 29 30  1  0
 30 31  2  0
 31 32  1  0
 32 33  2  0
 11  7  1  0
 23 12  1  0
 33 24  1  0
 32 27  1  0
  3 34  1  0
  4 35  1  0
  4 36  1  0
  8 37  1  0
  8 38  1  0
  9 39  1  0
  9 40  1  0
 10 41  1  0
 10 42  1  0
 11 43  1  6
 13 44  1  0
 14 45  1  0
 17 46  1  0
 17 47  1  0
 22 48  1  0
 23 49  1  0
 25 50  1  0
 26 51  1  0
 28 52  1  0
 29 53  1  0
 30 54  1  0
 31 55  1  0
M  END
>  <smiles>  (9) 
O=C(NCC(=O)N1CCCC1c1ccc(OCC(F)(F)F)cc1)c1ccc2ccccc2n1

>  <score_type>  (9) 
oracle

>  <origin>  (9) 
autodockgpu

>  <m_score__min__energy>  (9) 
-8.0399999999999991

>  <m_primary>  (9) 
energy

>  <rmsd>  (9) 
3.3372704885892928

>  <m_score__min__rmsd>  (9) 
3.3372704885892928

>  <meeko>  (9) 
{"free_energy": -7.51, "intermolecular_energy": -9.9, "internal_energy": -1.68, "cluster_size": 4, "cluster_id": 4, "rank_in_cluster": 3}

>  <energy>  (9) 
-7.28

>  <cluster_rmsd>  (9) 
1.38

>  <cluster>  (9) 
1

$$$$

     RDKit          3D

 55 58  0  0  0  0  0  0  0  0999 V2000
  140.4140   70.7000  221.3820 O   0  0  0  0  0  0  0  0  0  0  0  0
  139.9970   71.2020  222.4680 C   0  0  0  0  0  0  0  0  0  0  0  0
  139.5840   72.5740  222.4050 N   0  0  0  0  0  0  0  0  0  0  0  0
  139.6850   73.2440  221.1230 C   0  0  0  0  0  0  0  0  0  0  0  0
  140.5410   74.4500  221.1960 C   0  0  0  0  0  0  0  0  0  0  0  0
  140.3670   75.3780  222.0220 O   0  0  0  0  0  0  0  0  0  0  0  0
  141.6150   74.5420  220.2680 N   0  0  0  0  0  0  0  0  0  0  0  0
  141.6070   74.3470  218.8280 C   0  0  0  0  0  0  0  0  0  0  0  0
  142.5830   75.4220  218.3360 C   0  0  0  0  0  0  0  0  0  0  0  0
  143.1820   76.0150  219.6010 C   0  0  0  0  0  0  0  0  0  0  0  0
  143.0220   74.8650  220.5740 C   0  0  2  0  0  0  0  0  0  0  0  0
  143.8630   73.6910  220.2320 C   0  0  0  0  0  0  0  0  0  0  0  0
  145.1630   73.7840  219.8120 C   0  0  0  0  0  0  0  0  0  0  0  0
  145.8890   72.6270  219.5090 C   0  0  0  0  0  0  0  0  0  0  0  0
  145.3690   71.3700  219.6080 C   0  0  0  0  0  0  0  0  0  0  0  0
  145.9480   70.1890  219.3570 O   0  0  0  0  0  0  0  0  0  0  0  0
  145.5450   69.0640  218.7400 C   0  0  0  0  0  0  0  0  0  0  0  0
  145.4710   67.7740  219.4850 C   0  0  0  0  0  0  0  0  0  0  0  0
  146.2110   66.8530  218.7110 F   0  0  0  0  0  0  0  0  0  0  0  0
  146.0300   67.7200  220.7190 F   0  0  0  0  0  0  0  0  0  0  0  0
  144.1850   67.2440  219.4860 F   0  0  0  0  0  0  0  0  0  0  0  0
  144.0240   71.3180  220.0450 C   0  0  0  0  0  0  0  0  0  0  0  0
  143.3060   72.4380  220.3430 C   0  0  0  0  0  0  0  0  0  0  0  0
  139.9290   70.4530  223.7120 C   0  0  0  0  0  0  0  0  0  0  0  0
  139.2520   69.2530  223.6890 C   0  0  0  0  0  0  0  0  0  0  0  0
  139.1810   68.5360  224.8590 C   0  0  0  0  0  0  0  0  0  0  0  0
  139.7670   69.0020  226.0150 C   0  0  0  0  0  0  0  0  0  0  0  0
  139.6950   68.2790  227.1930 C   0  0  0  0  0  0  0  0  0  0  0  0
  140.2960   68.7800  228.3370 C   0  0  0  0  0  0  0  0  0  0  0  0
  140.9730   69.9870  228.3510 C   0  0  0  0  0  0  0  0  0  0  0  0
  141.0240   70.6850  227.1440 C   0  0  0  0  0  0  0  0  0  0  0  0
  140.4330   70.2050  226.0000 C   0  0  0  0  0  0  0  0  0  0  0  0
  140.4960   70.9020  224.8360 N   0  0  0  0  0  0  0  0  0  0  0  0
  139.2270   73.0530  223.2650 H   0  0  0  0  0  0  0  0  0  0  0  0
  140.1157   72.5461  220.3900 H   0  0  0  0  0  0  0  0  0  0  0  0
  138.6750   73.5605  220.8234 H   0  0  0  0  0  0  0  0  0  0  0  0
  141.9599   73.3396  218.5623 H   0  0  0  0  0  0  0  0  0  0  0  0
  140.6049   74.4307  218.3821 H   0  0  0  0  0  0  0  0  0  0  0  0
  143.3681   74.9741  217.7091 H   0  0  0  0  0  0  0  0  0  0  0  0
  142.0838   76.1829  217.7181 H   0  0  0  0  0  0  0  0  0  0  0  0
  144.2406   76.2785  219.4599 H   0  0  0  0  0  0  0  0  0  0  0  0
  142.7059   76.9510  219.9284 H   0  0  0  0  0  0  0  0  0  0  0  0
  143.2924   75.1062  221.6126 H   0  0  0  0  0  0  0  0  0  0  0  0
  145.6379   74.7712  219.7125 H   0  0  0  0  0  0  0  0  0  0  0  0
  146.9311   72.7366  219.1743 H   0  0  0  0  0  0  0  0  0  0  0  0
  144.5346   69.2622  218.3529 H   0  0  0  0  0  0  0  0  0  0  0  0
  146.3485   68.8816  218.0112 H   0  0  0  0  0  0  0  0  0  0  0  0
  143.5391   70.3360  220.1482 H   0  0  0  0  0  0  0  0  0  0  0  0
  142.2631   72.3380  220.6781 H   0  0  0  0  0  0  0  0  0  0  0  0
  138.7842   68.8816  222.7653 H   0  0  0  0  0  0  0  0  0  0  0  0
  138.6474   67.5742  224.8726 H   0  0  0  0  0  0  0  0  0  0  0  0
  139.1655   67.3153  227.2210 H   0  0  0  0  0  0  0  0  0  0  0  0
  140.2326   68.1971  229.2677 H   0  0  0  0  0  0  0  0  0  0  0  0
  141.4458   70.3754  229.2651 H   0  0  0  0  0  0  0  0  0  0  0  0
  141.5533   71.6486  227.1070 H   0  0  0  0  0  0  0  0  0  0  0  0
  1  2  2  0
  2  3  1  0
  3  4  1  0
  4  5  1  0
  5  6  2  0
  5  7  1  0
  7  8  1  0
  8  9  1  0
  9 10  1  0
 10 11  1  0
 11 12  1  0
 12 13  2  0
 13 14  1  0
 14 15  2  0
 15 16  1  0
 16 17  1  0
 17 18  1  0
 18 19  1  0
 18 20  1  0
 18 21  1  0
 15 22  1  0
 22 23  2  0
  2 24  1  0
 24 25  2  0
 25 26  1  0
 26 27  2  0
 27 28  1  0
 28 29  2  0
 29 30  1  0
 30 31  2  0
 31 32  1  0
 32 33  2  0
 11  7  1  0
 23 12  1  0
 33 24  1  0
 32 27  1  0
  3 34  1  0
  4 35  1  0
  4 36  1  0
  8 37  1  0
  8 38  1  0
  9 39  1  0
  9 40  1  0
 10 41  1  0
 10 42  1  0
 11 43  1  1
 13 44  1  0
 14 45  1  0
 17 46  1  0
 17 47  1  0
 22 48  1  0
 23 49  1  0
 25 50  1  0
 26 51  1  0
 28 52  1  0
 29 53  1  0
 30 54  1  0
 31 55  1  0
M  END
>  <smiles>  (10) 
O=C(NCC(=O)N1CCCC1c1ccc(OCC(F)(F)F)cc1)c1ccc2ccccc2n1

>  <score_type>  (10) 
oracle

>  <origin>  (10) 
autodockgpu

>  <m_score__min__energy>  (10) 
-8.0399999999999991

>  <m_primary>  (10) 
energy

>  <rmsd>  (10) 
1.9731747019615995

>  <m_score__min__rmsd>  (10) 
1.9731747019615995

>  <meeko>  (10) 
{"free_energy": -8.04, "intermolecular_energy": -10.43, "internal_energy": -1.55, "cluster_size": 10, "cluster_id": 1, "rank_in_cluster": 1}

>  <energy>  (10) 
-7.05

>  <cluster_rmsd>  (10) 
1.11

>  <cluster>  (10) 
1

$$$$

     RDKit          3D

 55 58  0  0  0  0  0  0  0  0999 V2000
  140.5410   73.3880  222.6450 O   0  0  0  0  0  0  0  0  0  0  0  0
  140.0830   72.2070  222.5960 C   0  0  0  0  0  0  0  0  0  0  0  0
  139.6290   71.7650  221.3090 N   0  0  0  0  0  0  0  0  0  0  0  0
  139.7360   72.7000  220.2060 C   0  0  0  0  0  0  0  0  0  0  0  0
  141.0690   72.6430  219.5620 C   0  0  0  0  0  0  0  0  0  0  0  0
  141.4410   71.7070  218.8140 O   0  0  0  0  0  0  0  0  0  0  0  0
  141.9620   73.7200  219.8190 N   0  0  0  0  0  0  0  0  0  0  0  0
  143.0320   73.8150  220.7980 C   0  0  0  0  0  0  0  0  0  0  0  0
  144.1190   74.5840  220.0380 C   0  0  0  0  0  0  0  0  0  0  0  0
  143.4620   74.9990  218.7300 C   0  0  0  0  0  0  0  0  0  0  0  0
  142.0000   75.0210  219.1250 C   0  0  2  0  0  0  0  0  0  0  0  0
  141.6770   76.0890  220.1040 C   0  0  0  0  0  0  0  0  0  0  0  0
  142.1760   77.3630  220.0320 C   0  0  0  0  0  0  0  0  0  0  0  0
  141.8220   78.3130  220.9950 C   0  0  0  0  0  0  0  0  0  0  0  0
  140.9840   78.0440  222.0380 C   0  0  0  0  0  0  0  0  0  0  0  0
  140.5620   78.8530  223.0180 O   0  0  0  0  0  0  0  0  0  0  0  0
  141.1740   79.7400  223.8240 C   0  0  0  0  0  0  0  0  0  0  0  0
  142.1930   80.6840  223.2800 C   0  0  0  0  0  0  0  0  0  0  0  0
  142.3560   81.6720  224.2770 F   0  0  0  0  0  0  0  0  0  0  0  0
  143.4410   80.2080  223.0530 F   0  0  0  0  0  0  0  0  0  0  0  0
  141.7140   81.3970  222.1860 F   0  0  0  0  0  0  0  0  0  0  0  0
  140.4920   76.7190  222.0760 C   0  0  0  0  0  0  0  0  0  0  0  0
  140.8290   75.7840  221.1430 C   0  0  0  0  0  0  0  0  0  0  0  0
  140.0120   71.3350  223.7570 C   0  0  0  0  0  0  0  0  0  0  0  0
  139.3720   70.1240  223.5970 C   0  0  0  0  0  0  0  0  0  0  0  0
  139.2990   69.2910  224.6870 C   0  0  0  0  0  0  0  0  0  0  0  0
  139.8460   69.6540  225.8970 C   0  0  0  0  0  0  0  0  0  0  0  0
  139.7710   68.8130  226.9940 C   0  0  0  0  0  0  0  0  0  0  0  0
  140.3340   69.2120  228.1960 C   0  0  0  0  0  0  0  0  0  0  0  0
  140.9740   70.4290  228.3480 C   0  0  0  0  0  0  0  0  0  0  0  0
  141.0290   71.2480  227.2190 C   0  0  0  0  0  0  0  0  0  0  0  0
  140.4770   70.8690  226.0190 C   0  0  0  0  0  0  0  0  0  0  0  0
  140.5420   71.6820  224.9330 N   0  0  0  0  0  0  0  0  0  0  0  0
  139.2380   70.8000  221.1950 H   0  0  0  0  0  0  0  0  0  0  0  0
  138.9683   72.4560  219.4570 H   0  0  0  0  0  0  0  0  0  0  0  0
  139.5924   73.7153  220.6041 H   0  0  0  0  0  0  0  0  0  0  0  0
  142.7049   74.3689  221.6903 H   0  0  0  0  0  0  0  0  0  0  0  0
  143.3699   72.8368  221.1708 H   0  0  0  0  0  0  0  0  0  0  0  0
  144.4382   75.4686  220.6086 H   0  0  0  0  0  0  0  0  0  0  0  0
  145.0200   73.9746  219.8741 H   0  0  0  0  0  0  0  0  0  0  0  0
  143.8059   75.9917  218.4040 H   0  0  0  0  0  0  0  0  0  0  0  0
  143.6892   74.3362  217.8820 H   0  0  0  0  0  0  0  0  0  0  0  0
  141.3057   75.1913  218.2890 H   0  0  0  0  0  0  0  0  0  0  0  0
  142.8574   77.6394  219.2139 H   0  0  0  0  0  0  0  0  0  0  0  0
  142.2395   79.3269  220.9076 H   0  0  0  0  0  0  0  0  0  0  0  0
  140.3812   80.3569  224.2722 H   0  0  0  0  0  0  0  0  0  0  0  0
  141.7659   79.0975  224.4925 H   0  0  0  0  0  0  0  0  0  0  0  0
  139.8107   76.4314  222.8903 H   0  0  0  0  0  0  0  0  0  0  0  0
  140.4155   74.7678  221.2225 H   0  0  0  0  0  0  0  0  0  0  0  0
  138.9349   69.8349  222.6298 H   0  0  0  0  0  0  0  0  0  0  0  0
  138.7951   68.3179  224.5913 H   0  0  0  0  0  0  0  0  0  0  0  0
  139.2694   67.8374  226.9125 H   0  0  0  0  0  0  0  0  0  0  0  0
  140.2695   68.5358  229.0613 H   0  0  0  0  0  0  0  0  0  0  0  0
  141.4161   70.7350  229.3076 H   0  0  0  0  0  0  0  0  0  0  0  0
  141.5288   72.2252  227.2920 H   0  0  0  0  0  0  0  0  0  0  0  0
  1  2  2  0
  2  3  1  0
  3  4  1  0
  4  5  1  0
  5  6  2  0
  5  7  1  0
  7  8  1  0
  8  9  1  0
  9 10  1  0
 10 11  1  0
 11 12  1  0
 12 13  2  0
 13 14  1  0
 14 15  2  0
 15 16  1  0
 16 17  1  0
 17 18  1  0
 18 19  1  0
 18 20  1  0
 18 21  1  0
 15 22  1  0
 22 23  2  0
  2 24  1  0
 24 25  2  0
 25 26  1  0
 26 27  2  0
 27 28  1  0
 28 29  2  0
 29 30  1  0
 30 31  2  0
 31 32  1  0
 32 33  2  0
 11  7  1  0
 23 12  1  0
 33 24  1  0
 32 27  1  0
  3 34  1  0
  4 35  1  0
  4 36  1  0
  8 37  1  0
  8 38  1  0
  9 39  1  0
  9 40  1  0
 10 41  1  0
 10 42  1  0
 11 43  1  6
 13 44  1  0
 14 45  1  0
 17 46  1  0
 17 47  1  0
 22 48  1  0
 23 49  1  0
 25 50  1  0
 26 51  1  0
 28 52  1  0
 29 53  1  0
 30 54  1  0
 31 55  1  0
M  END
>  <smiles>  (11) 
O=C(NCC(=O)N1CCCC1c1ccc(OCC(F)(F)F)cc1)c1ccc2ccccc2n1

>  <score_type>  (11) 
oracle

>  <origin>  (11) 
autodockgpu

>  <m_score__min__energy>  (11) 
-8.0399999999999991

>  <m_primary>  (11) 
energy

>  <rmsd>  (11) 
2.776217878324093

>  <m_score__min__rmsd>  (11) 
2.776217878324093

>  <meeko>  (11) 
{"free_energy": -7.88, "intermolecular_energy": -10.26, "internal_energy": -1.55, "cluster_size": 19, "cluster_id": 2, "rank_in_cluster": 6}

>  <energy>  (11) 
-7.98

>  <cluster_rmsd>  (11) 
0.0

>  <cluster>  (11) 
2

$$$$

     RDKit          3D

 55 58  0  0  0  0  0  0  0  0999 V2000
  140.1830   73.4790  222.3270 O   0  0  0  0  0  0  0  0  0  0  0  0
  140.5380   72.2680  222.4420 C   0  0  0  0  0  0  0  0  0  0  0  0
  141.2140   71.7040  221.3090 N   0  0  0  0  0  0  0  0  0  0  0  0
  141.4210   72.5630  220.1590 C   0  0  0  0  0  0  0  0  0  0  0  0
  142.6640   73.3600  220.2810 C   0  0  0  0  0  0  0  0  0  0  0  0
  143.7450   72.9000  220.7190 O   0  0  0  0  0  0  0  0  0  0  0  0
  142.6050   74.7220  219.8750 N   0  0  0  0  0  0  0  0  0  0  0  0
  143.6700   75.7100  219.8110 C   0  0  0  0  0  0  0  0  0  0  0  0
  143.3280   76.4930  218.5380 C   0  0  0  0  0  0  0  0  0  0  0  0
  141.9750   75.9540  218.0990 C   0  0  0  0  0  0  0  0  0  0  0  0
  141.4120   75.4560  219.4140 C   0  0  2  0  0  0  0  0  0  0  0  0
  141.1270   76.5490  220.3770 C   0  0  0  0  0  0  0  0  0  0  0  0
  141.0140   77.8660  220.0200 C   0  0  0  0  0  0  0  0  0  0  0  0
  140.7430   78.8380  220.9900 C   0  0  0  0  0  0  0  0  0  0  0  0
  140.5790   78.5480  222.3130 C   0  0  0  0  0  0  0  0  0  0  0  0
  140.3140   79.3710  223.3360 O   0  0  0  0  0  0  0  0  0  0  0  0
  140.9220   80.4600  223.8390 C   0  0  0  0  0  0  0  0  0  0  0  0
  142.3220   80.7950  223.4510 C   0  0  0  0  0  0  0  0  0  0  0  0
  142.2170   81.4500  222.2030 F   0  0  0  0  0  0  0  0  0  0  0  0
  143.0110   81.6560  224.2390 F   0  0  0  0  0  0  0  0  0  0  0  0
  143.0720   79.6590  223.1630 F   0  0  0  0  0  0  0  0  0  0  0  0
  140.7040   77.1770  222.6390 C   0  0  0  0  0  0  0  0  0  0  0  0
  140.9680   76.2210  221.7040 C   0  0  0  0  0  0  0  0  0  0  0  0
  140.2890   71.4790  223.6370 C   0  0  0  0  0  0  0  0  0  0  0  0
  139.5720   70.3110  223.4810 C   0  0  0  0  0  0  0  0  0  0  0  0
  139.3300   69.5560  224.6040 C   0  0  0  0  0  0  0  0  0  0  0  0
  139.7880   69.9530  225.8400 C   0  0  0  0  0  0  0  0  0  0  0  0
  139.5430   69.1910  226.9690 C   0  0  0  0  0  0  0  0  0  0  0  0
  140.0200   69.6220  228.1970 C   0  0  0  0  0  0  0  0  0  0  0  0
  140.7380   70.7960  228.3440 C   0  0  0  0  0  0  0  0  0  0  0  0
  140.9640   71.5350  227.1820 C   0  0  0  0  0  0  0  0  0  0  0  0
  140.4990   71.1240  225.9560 C   0  0  0  0  0  0  0  0  0  0  0  0
  140.7320   71.8600  224.8380 N   0  0  0  0  0  0  0  0  0  0  0  0
  141.5360   70.7080  221.3340 H   0  0  0  0  0  0  0  0  0  0  0  0
  141.4863   71.9385  219.2558 H   0  0  0  0  0  0  0  0  0  0  0  0
  140.5731   73.2612  220.0981 H   0  0  0  0  0  0  0  0  0  0  0  0
  143.6571   76.3648  220.6948 H   0  0  0  0  0  0  0  0  0  0  0  0
  144.6763   75.2662  219.7932 H   0  0  0  0  0  0  0  0  0  0  0  0
  143.2648   77.5702  218.7514 H   0  0  0  0  0  0  0  0  0  0  0  0
  144.0948   76.3719  217.7587 H   0  0  0  0  0  0  0  0  0  0  0  0
  141.3469   76.7468  217.6667 H   0  0  0  0  0  0  0  0  0  0  0  0
  142.0298   75.1862  217.3132 H   0  0  0  0  0  0  0  0  0  0  0  0
  140.4611   74.9103  219.3244 H   0  0  0  0  0  0  0  0  0  0  0  0
  141.1366   78.1611  218.9675 H   0  0  0  0  0  0  0  0  0  0  0  0
  140.6581   79.8870  220.6700 H   0  0  0  0  0  0  0  0  0  0  0  0
  140.3023   81.3243  223.5581 H   0  0  0  0  0  0  0  0  0  0  0  0
  141.0139   80.2188  224.9083 H   0  0  0  0  0  0  0  0  0  0  0  0
  140.5834   76.8704  223.6885 H   0  0  0  0  0  0  0  0  0  0  0  0
  141.0554   75.1696  222.0154 H   0  0  0  0  0  0  0  0  0  0  0  0
  139.2067   69.9948  222.4928 H   0  0  0  0  0  0  0  0  0  0  0  0
  138.7609   68.6190  224.5135 H   0  0  0  0  0  0  0  0  0  0  0  0
  138.9750   68.2521  226.8925 H   0  0  0  0  0  0  0  0  0  0  0  0
  139.8205   69.0082  229.0877 H   0  0  0  0  0  0  0  0  0  0  0  0
  141.1105   71.1287  229.3241 H   0  0  0  0  0  0  0  0  0  0  0  0
  141.5315   72.4749  227.2495 H   0  0  0  0  0  0  0  0  0  0  0  0
  1  2  2  0
  2  3  1  0
  3  4  1  0
  4  5  1  0
  5  6  2  0
  5  7  1  0
  7  8  1  0
  8  9  1  0
  9 10  1  0
 10 11  1  0
 11 12  1  0
 12 13  2  0
 13 14  1  0
 14 15  2  0
 15 16  1  0
 16 17  1  0
 17 18  1  0
 18 19  1  0
 18 20  1  0
 18 21  1  0
 15 22  1  0
 22 23  2  0
  2 24  1  0
 24 25  2  0
 25 26  1  0
 26 27  2  0
 27 28  1  0
 28 29  2  0
 29 30  1  0
 30 31  2  0
 31 32  1  0
 32 33  2  0
 11  7  1  0
 23 12  1  0
 33 24  1  0
 32 27  1  0
  3 34  1  0
  4 35  1  0
  4 36  1  0
  8 37  1  0
  8 38  1  0
  9 39  1  0
  9 40  1  0
 10 41  1  0
 10 42  1  0
 11 43  1  6
 13 44  1  0
 14 45  1  0
 17 46  1  0
 17 47  1  0
 22 48  1  0
 23 49  1  0
 25 50  1  0
 26 51  1  0
 28 52  1  0
 29 53  1  0
 30 54  1  0
 31 55  1  0
M  END
>  <smiles>  (12) 
O=C(NCC(=O)N1CCCC1c1ccc(OCC(F)(F)F)cc1)c1ccc2ccccc2n1

>  <score_type>  (12) 
oracle

>  <origin>  (12) 
autodockgpu

>  <m_score__min__energy>  (12) 
-8.0399999999999991

>  <m_primary>  (12) 
energy

>  <rmsd>  (12) 
2.7178500740154345

>  <m_score__min__rmsd>  (12) 
2.7178500740154345

>  <meeko>  (12) 
{"free_energy": -7.95, "intermolecular_energy": -10.33, "internal_energy": -1.64, "cluster_size": 19, "cluster_id": 2, "rank_in_cluster": 4}

>  <energy>  (12) 
-7.97

>  <cluster_rmsd>  (12) 
0.38

>  <cluster>  (12) 
2

$$$$

     RDKit          3D

 55 58  0  0  0  0  0  0  0  0999 V2000
  139.9670   73.5230  222.5640 O   0  0  0  0  0  0  0  0  0  0  0  0
  139.9930   72.2570  222.5280 C   0  0  0  0  0  0  0  0  0  0  0  0
  140.0060   71.6680  221.2200 N   0  0  0  0  0  0  0  0  0  0  0  0
  139.9880   72.5680  220.0830 C   0  0  0  0  0  0  0  0  0  0  0  0
  141.2940   72.6030  219.3860 C   0  0  0  0  0  0  0  0  0  0  0  0
  141.6600   71.7410  218.5510 O   0  0  0  0  0  0  0  0  0  0  0  0
  142.1670   73.6820  219.6950 N   0  0  0  0  0  0  0  0  0  0  0  0
  143.2000   73.7670  220.7140 C   0  0  0  0  0  0  0  0  0  0  0  0
  144.3060   74.5600  220.0080 C   0  0  0  0  0  0  0  0  0  0  0  0
  143.6930   74.9940  218.6850 C   0  0  0  0  0  0  0  0  0  0  0  0
  142.2180   74.9960  219.0270 C   0  0  2  0  0  0  0  0  0  0  0  0
  141.8500   76.0430  220.0130 C   0  0  0  0  0  0  0  0  0  0  0  0
  142.3290   77.3250  219.9750 C   0  0  0  0  0  0  0  0  0  0  0  0
  141.9330   78.2540  220.9430 C   0  0  0  0  0  0  0  0  0  0  0  0
  141.0700   77.9550  221.9570 C   0  0  0  0  0  0  0  0  0  0  0  0
  140.6080   78.7410  222.9380 O   0  0  0  0  0  0  0  0  0  0  0  0
  141.1920   79.5680  223.8240 C   0  0  0  0  0  0  0  0  0  0  0  0
  142.1380   80.6270  223.3670 C   0  0  0  0  0  0  0  0  0  0  0  0
  143.3420   79.9490  223.0750 F   0  0  0  0  0  0  0  0  0  0  0  0
  141.8330   81.3030  222.2330 F   0  0  0  0  0  0  0  0  0  0  0  0
  142.4900   81.4930  224.3970 F   0  0  0  0  0  0  0  0  0  0  0  0
  140.5990   76.6210  221.9610 C   0  0  0  0  0  0  0  0  0  0  0  0
  140.9780   75.7070  221.0230 C   0  0  0  0  0  0  0  0  0  0  0  0
  140.0100   71.4290  223.7240 C   0  0  0  0  0  0  0  0  0  0  0  0
  139.4820   70.1600  223.6180 C   0  0  0  0  0  0  0  0  0  0  0  0
  139.4930   69.3680  224.7420 C   0  0  0  0  0  0  0  0  0  0  0  0
  140.0120   69.8280  225.9310 C   0  0  0  0  0  0  0  0  0  0  0  0
  140.0220   69.0300  227.0610 C   0  0  0  0  0  0  0  0  0  0  0  0
  140.5530   69.5270  228.2410 C   0  0  0  0  0  0  0  0  0  0  0  0
  141.0800   70.8030  228.3380 C   0  0  0  0  0  0  0  0  0  0  0  0
  141.0510   71.5760  227.1770 C   0  0  0  0  0  0  0  0  0  0  0  0
  140.5290   71.1010  225.9980 C   0  0  0  0  0  0  0  0  0  0  0  0
  140.5130   71.8710  224.8800 N   0  0  0  0  0  0  0  0  0  0  0  0
  140.0280   70.6260  221.1150 H   0  0  0  0  0  0  0  0  0  0  0  0
  139.2161   72.2315  219.3753 H   0  0  0  0  0  0  0  0  0  0  0  0
  139.7719   73.5810  220.4533 H   0  0  0  0  0  0  0  0  0  0  0  0
  142.8359   74.3007  221.6043 H   0  0  0  0  0  0  0  0  0  0  0  0
  143.5333   72.7848  221.0805 H   0  0  0  0  0  0  0  0  0  0  0  0
  144.5959   75.4364  220.6062 H   0  0  0  0  0  0  0  0  0  0  0  0
  145.2179   73.9616  219.8653 H   0  0  0  0  0  0  0  0  0  0  0  0
  144.0392   75.9956  218.3903 H   0  0  0  0  0  0  0  0  0  0  0  0
  143.9568   74.3494  217.8336 H   0  0  0  0  0  0  0  0  0  0  0  0
  141.5526   75.1758  218.1697 H   0  0  0  0  0  0  0  0  0  0  0  0
  143.0278   77.6256  219.1804 H   0  0  0  0  0  0  0  0  0  0  0  0
  142.3370   79.2754  220.8839 H   0  0  0  0  0  0  0  0  0  0  0  0
  140.3789   80.0818  224.3577 H   0  0  0  0  0  0  0  0  0  0  0  0
  141.8402   78.8919  224.4008 H   0  0  0  0  0  0  0  0  0  0  0  0
  139.9002   76.3092  222.7512 H   0  0  0  0  0  0  0  0  0  0  0  0
  140.5797   74.6830  221.0745 H   0  0  0  0  0  0  0  0  0  0  0  0
  139.0665   69.7938  222.6676 H   0  0  0  0  0  0  0  0  0  0  0  0
  139.0801   68.3497  224.6901 H   0  0  0  0  0  0  0  0  0  0  0  0
  139.6121   68.0099  227.0234 H   0  0  0  0  0  0  0  0  0  0  0  0
  140.5556   68.8835  229.1332 H   0  0  0  0  0  0  0  0  0  0  0  0
  141.4991   71.1870  229.2797 H   0  0  0  0  0  0  0  0  0  0  0  0
  141.4586   72.5973  227.2063 H   0  0  0  0  0  0  0  0  0  0  0  0
  1  2  2  0
  2  3  1  0
  3  4  1  0
  4  5  1  0
  5  6  2  0
  5  7  1  0
  7  8  1  0
  8  9  1  0
  9 10  1  0
 10 11  1  0
 11 12  1  0
 12 13  2  0
 13 14  1  0
 14 15  2  0
 15 16  1  0
 16 17  1  0
 17 18  1  0
 18 19  1  0
 18 20  1  0
 18 21  1  0
 15 22  1  0
 22 23  2  0
  2 24  1  0
 24 25  2  0
 25 26  1  0
 26 27  2  0
 27 28  1  0
 28 29  2  0
 29 30  1  0
 30 31  2  0
 31 32  1  0
 32 33  2  0
 11  7  1  0
 23 12  1  0
 33 24  1  0
 32 27  1  0
  3 34  1  0
  4 35  1  0
  4 36  1  0
  8 37  1  0
  8 38  1  0
  9 39  1  0
  9 40  1  0
 10 41  1  0
 10 42  1  0
 11 43  1  6
 13 44  1  0
 14 45  1  0
 17 46  1  0
 17 47  1  0
 22 48  1  0
 23 49  1  0
 25 50  1  0
 26 51  1  0
 28 52  1  0
 29 53  1  0
 30 54  1  0
 31 55  1  0
M  END
>  <smiles>  (13) 
O=C(NCC(=O)N1CCCC1c1ccc(OCC(F)(F)F)cc1)c1ccc2ccccc2n1

>  <score_type>  (13) 
oracle

>  <origin>  (13) 
autodockgpu

>  <m_score__min__energy>  (13) 
-8.0399999999999991

>  <m_primary>  (13) 
energy

>  <rmsd>  (13) 
2.894323780244118

>  <m_score__min__rmsd>  (13) 
2.894323780244118

>  <meeko>  (13) 
{"free_energy": -7.95, "intermolecular_energy": -10.33, "internal_energy": -1.56, "cluster_size": 19, "cluster_id": 2, "rank_in_cluster": 3}

>  <energy>  (13) 
-7.95

>  <cluster_rmsd>  (13) 
0.78

>  <cluster>  (13) 
2

$$$$

     RDKit          3D

 55 58  0  0  0  0  0  0  0  0999 V2000
  140.3180   71.2870  221.2800 O   0  0  0  0  0  0  0  0  0  0  0  0
  140.0570   71.8600  222.3790 C   0  0  0  0  0  0  0  0  0  0  0  0
  139.7340   73.2560  222.2960 N   0  0  0  0  0  0  0  0  0  0  0  0
  139.7400   73.8650  220.9800 C   0  0  0  0  0  0  0  0  0  0  0  0
  140.6830   75.0050  220.9040 C   0  0  0  0  0  0  0  0  0  0  0  0
  140.5330   76.0760  221.5400 O   0  0  0  0  0  0  0  0  0  0  0  0
  141.8150   74.8570  220.0560 N   0  0  0  0  0  0  0  0  0  0  0  0
  141.8680   74.6470  218.6180 C   0  0  0  0  0  0  0  0  0  0  0  0
  143.0800   75.4870  218.1990 C   0  0  0  0  0  0  0  0  0  0  0  0
  143.6990   75.9600  219.5050 C   0  0  0  0  0  0  0  0  0  0  0  0
  143.2330   74.8830  220.4620 C   0  0  2  0  0  0  0  0  0  0  0  0
  143.8320   73.5540  220.1810 C   0  0  0  0  0  0  0  0  0  0  0  0
  145.0500   73.3810  219.5800 C   0  0  0  0  0  0  0  0  0  0  0  0
  145.5440   72.0930  219.3490 C   0  0  0  0  0  0  0  0  0  0  0  0
  144.8690   70.9590  219.6970 C   0  0  0  0  0  0  0  0  0  0  0  0
  145.2250   69.6780  219.5410 O   0  0  0  0  0  0  0  0  0  0  0  0
  144.8110   68.6860  218.7320 C   0  0  0  0  0  0  0  0  0  0  0  0
  143.3570   68.4610  218.4890 C   0  0  0  0  0  0  0  0  0  0  0  0
  142.7920   68.2620  219.7680 F   0  0  0  0  0  0  0  0  0  0  0  0
  142.6400   69.4740  217.9450 F   0  0  0  0  0  0  0  0  0  0  0  0
  143.1170   67.2590  217.8330 F   0  0  0  0  0  0  0  0  0  0  0  0
  143.6160   71.1820  220.3150 C   0  0  0  0  0  0  0  0  0  0  0  0
  143.1230   72.4330  220.5450 C   0  0  0  0  0  0  0  0  0  0  0  0
  140.0740   71.1690  223.6580 C   0  0  0  0  0  0  0  0  0  0  0  0
  139.5790   69.8820  223.6840 C   0  0  0  0  0  0  0  0  0  0  0  0
  139.5900   69.2180  224.8870 C   0  0  0  0  0  0  0  0  0  0  0  0
  140.0790   69.8180  226.0260 C   0  0  0  0  0  0  0  0  0  0  0  0
  140.0900   69.1470  227.2370 C   0  0  0  0  0  0  0  0  0  0  0  0
  140.5890   69.7830  228.3620 C   0  0  0  0  0  0  0  0  0  0  0  0
  141.0840   71.0750  228.3270 C   0  0  0  0  0  0  0  0  0  0  0  0
  141.0560   71.7170  227.0880 C   0  0  0  0  0  0  0  0  0  0  0  0
  140.5640   71.1020  225.9610 C   0  0  0  0  0  0  0  0  0  0  0  0
  140.5470   71.7470  224.7650 N   0  0  0  0  0  0  0  0  0  0  0  0
  139.5070   73.7930  223.1650 H   0  0  0  0  0  0  0  0  0  0  0  0
  140.0365   73.1080  220.2390 H   0  0  0  0  0  0  0  0  0  0  0  0
  138.7282   74.2448  220.7751 H   0  0  0  0  0  0  0  0  0  0  0  0
  142.0197   73.5844  218.3777 H   0  0  0  0  0  0  0  0  0  0  0  0
  140.9398   74.9318  218.1009 H   0  0  0  0  0  0  0  0  0  0  0  0
  143.7963   74.8759  217.6302 H   0  0  0  0  0  0  0  0  0  0  0  0
  142.7964   76.3266  217.5473 H   0  0  0  0  0  0  0  0  0  0  0  0
  144.7966   75.9944  219.4411 H   0  0  0  0  0  0  0  0  0  0  0  0
  143.4079   76.9795  219.7981 H   0  0  0  0  0  0  0  0  0  0  0  0
  143.4737   75.0771  221.5177 H   0  0  0  0  0  0  0  0  0  0  0  0
  145.6418   74.2576  219.2779 H   0  0  0  0  0  0  0  0  0  0  0  0
  146.5252   71.9889  218.8627 H   0  0  0  0  0  0  0  0  0  0  0  0
  145.2695   68.8696  217.7491 H   0  0  0  0  0  0  0  0  0  0  0  0
  145.1121   67.7804  219.2791 H   0  0  0  0  0  0  0  0  0  0  0  0
  143.0159   70.3127  220.6220 H   0  0  0  0  0  0  0  0  0  0  0  0
  142.1421   72.5471  221.0296 H   0  0  0  0  0  0  0  0  0  0  0  0
  139.1890   69.4037  222.7735 H   0  0  0  0  0  0  0  0  0  0  0  0
  139.2018   68.1902  224.9411 H   0  0  0  0  0  0  0  0  0  0  0  0
  139.7061   68.1184  227.3052 H   0  0  0  0  0  0  0  0  0  0  0  0
  140.5919   69.2408  229.3191 H   0  0  0  0  0  0  0  0  0  0  0  0
  141.4782   71.5693  229.2272 H   0  0  0  0  0  0  0  0  0  0  0  0
  141.4388   72.7453  227.0109 H   0  0  0  0  0  0  0  0  0  0  0  0
  1  2  2  0
  2  3  1  0
  3  4  1  0
  4  5  1  0
  5  6  2  0
  5  7  1  0
  7  8  1  0
  8  9  1  0
  9 10  1  0
 10 11  1  0
 11 12  1  0
 12 13  2  0
 13 14  1  0
 14 15  2  0
 15 16  1  0
 16 17  1  0
 17 18  1  0
 18 19  1  0
 18 20  1  0
 18 21  1  0
 15 22  1  0
 22 23  2  0
  2 24  1  0
 24 25  2  0
 25 26  1  0
 26 27  2  0
 27 28  1  0
 28 29  2  0
 29 30  1  0
 30 31  2  0
 31 32  1  0
 32 33  2  0
 11  7  1  0
 23 12  1  0
 33 24  1  0
 32 27  1  0
  3 34  1  0
  4 35  1  0
  4 36  1  0
  8 37  1  0
  8 38  1  0
  9 39  1  0
  9 40  1  0
 10 41  1  0
 10 42  1  0
 11 43  1  1
 13 44  1  0
 14 45  1  0
 17 46  1  0
 17 47  1  0
 22 48  1  0
 23 49  1  0
 25 50  1  0
 26 51  1  0
 28 52  1  0
 29 53  1  0
 30 54  1  0
 31 55  1  0
M  END
>  <smiles>  (14) 
O=C(NCC(=O)N1CCCC1c1ccc(OCC(F)(F)F)cc1)c1ccc2ccccc2n1

>  <score_type>  (14) 
oracle

>  <origin>  (14) 
autodockgpu

>  <m_score__min__energy>  (14) 
-8.0399999999999991

>  <m_primary>  (14) 
energy

>  <rmsd>  (14) 
2.156493155931256

>  <m_score__min__rmsd>  (14) 
2.156493155931256

>  <meeko>  (14) 
{"free_energy": -7.43, "intermolecular_energy": -9.81, "internal_energy": -1.91, "cluster_size": 10, "cluster_id": 1, "rank_in_cluster": 7}

>  <energy>  (14) 
-7.95

>  <cluster_rmsd>  (14) 
0.51

>  <cluster>  (14) 
2

$$$$

     RDKit          3D

 55 58  0  0  0  0  0  0  0  0999 V2000
  142.1200   78.1310  216.8370 O   0  0  0  0  0  0  0  0  0  0  0  0
  142.6030   77.7680  217.9520 C   0  0  0  0  0  0  0  0  0  0  0  0
  142.5700   78.7500  218.9970 N   0  0  0  0  0  0  0  0  0  0  0  0
  141.9970   80.0440  218.6800 C   0  0  0  0  0  0  0  0  0  0  0  0
  141.6530   80.8090  219.9010 C   0  0  0  0  0  0  0  0  0  0  0  0
  141.5470   82.0590  219.9320 O   0  0  0  0  0  0  0  0  0  0  0  0
  141.4350   80.0660  221.0940 N   0  0  0  0  0  0  0  0  0  0  0  0
  142.3980   79.6110  222.0840 C   0  0  0  0  0  0  0  0  0  0  0  0
  141.6380   79.7940  223.4030 C   0  0  0  0  0  0  0  0  0  0  0  0
  140.2280   80.1870  222.9910 C   0  0  0  0  0  0  0  0  0  0  0  0
  140.1420   79.5780  221.6070 C   0  0  2  0  0  0  0  0  0  0  0  0
  140.1670   78.0940  221.6210 C   0  0  0  0  0  0  0  0  0  0  0  0
  140.7950   77.3350  220.6690 C   0  0  0  0  0  0  0  0  0  0  0  0
  140.7730   75.9390  220.7540 C   0  0  0  0  0  0  0  0  0  0  0  0
  140.1460   75.2610  221.7590 C   0  0  0  0  0  0  0  0  0  0  0  0
  140.0530   73.9410  221.9620 O   0  0  0  0  0  0  0  0  0  0  0  0
  140.0200   72.8710  221.1470 C   0  0  0  0  0  0  0  0  0  0  0  0
  141.2220   72.4830  220.3540 C   0  0  0  0  0  0  0  0  0  0  0  0
  141.0440   71.1140  220.0520 F   0  0  0  0  0  0  0  0  0  0  0  0
  141.4110   73.0830  219.1530 F   0  0  0  0  0  0  0  0  0  0  0  0
  142.3830   72.5020  221.1200 F   0  0  0  0  0  0  0  0  0  0  0  0
  139.5110   76.0810  222.7210 C   0  0  0  0  0  0  0  0  0  0  0  0
  139.5250   77.4420  222.6490 C   0  0  0  0  0  0  0  0  0  0  0  0
  143.1600   76.4450  218.1810 C   0  0  0  0  0  0  0  0  0  0  0  0
  143.1280   75.5570  217.1260 C   0  0  0  0  0  0  0  0  0  0  0  0
  143.6520   74.3030  217.3320 C   0  0  0  0  0  0  0  0  0  0  0  0
  144.1880   73.9470  218.5480 C   0  0  0  0  0  0  0  0  0  0  0  0
  144.7150   72.6830  218.7530 C   0  0  0  0  0  0  0  0  0  0  0  0
  145.2460   72.3600  219.9920 C   0  0  0  0  0  0  0  0  0  0  0  0
  145.2730   73.2570  221.0450 C   0  0  0  0  0  0  0  0  0  0  0  0
  144.7320   74.5200  220.7990 C   0  0  0  0  0  0  0  0  0  0  0  0
  144.2010   74.8590  219.5770 C   0  0  0  0  0  0  0  0  0  0  0  0
  143.6810   76.0940  219.3600 N   0  0  0  0  0  0  0  0  0  0  0  0
  142.9520   78.5180  219.9450 H   0  0  0  0  0  0  0  0  0  0  0  0
  142.7256   80.6213  218.0919 H   0  0  0  0  0  0  0  0  0  0  0  0
  141.0712   79.8769  218.1099 H   0  0  0  0  0  0  0  0  0  0  0  0
  142.6641   78.5559  221.9227 H   0  0  0  0  0  0  0  0  0  0  0  0
  143.3510   80.1592  222.0498 H   0  0  0  0  0  0  0  0  0  0  0  0
  141.6262   78.8553  223.9763 H   0  0  0  0  0  0  0  0  0  0  0  0
  142.1066   80.5508  224.0493 H   0  0  0  0  0  0  0  0  0  0  0  0
  139.4758   79.7558  223.6680 H   0  0  0  0  0  0  0  0  0  0  0  0
  140.0360   81.2697  223.0192 H   0  0  0  0  0  0  0  0  0  0  0  0
  139.2269   79.8347  221.0533 H   0  0  0  0  0  0  0  0  0  0  0  0
  141.3184   77.8251  219.8348 H   0  0  0  0  0  0  0  0  0  0  0  0
  141.2861   75.3592  219.9726 H   0  0  0  0  0  0  0  0  0  0  0  0
  139.7645   72.0049  221.7751 H   0  0  0  0  0  0  0  0  0  0  0  0
  139.3010   73.1742  220.3717 H   0  0  0  0  0  0  0  0  0  0  0  0
  138.9854   75.6015  223.5599 H   0  0  0  0  0  0  0  0  0  0  0  0
  139.0142   78.0295  223.4261 H   0  0  0  0  0  0  0  0  0  0  0  0
  142.6984   75.8422  216.1543 H   0  0  0  0  0  0  0  0  0  0  0  0
  143.6426   73.5716  216.5105 H   0  0  0  0  0  0  0  0  0  0  0  0
  144.7123   71.9420  217.9401 H   0  0  0  0  0  0  0  0  0  0  0  0
  145.6615   71.3528  220.1437 H   0  0  0  0  0  0  0  0  0  0  0  0
  145.6980   72.9892  222.0236 H   0  0  0  0  0  0  0  0  0  0  0  0
  144.7305   75.2664  221.6070 H   0  0  0  0  0  0  0  0  0  0  0  0
  1  2  2  0
  2  3  1  0
  3  4  1  0
  4  5  1  0
  5  6  2  0
  5  7  1  0
  7  8  1  0
  8  9  1  0
  9 10  1  0
 10 11  1  0
 11 12  1  0
 12 13  2  0
 13 14  1  0
 14 15  2  0
 15 16  1  0
 16 17  1  0
 17 18  1  0
 18 19  1  0
 18 20  1  0
 18 21  1  0
 15 22  1  0
 22 23  2  0
  2 24  1  0
 24 25  2  0
 25 26  1  0
 26 27  2  0
 27 28  1  0
 28 29  2  0
 29 30  1  0
 30 31  2  0
 31 32  1  0
 32 33  2  0
 11  7  1  0
 23 12  1  0
 33 24  1  0
 32 27  1  0
  3 34  1  0
  4 35  1  0
  4 36  1  0
  8 37  1  0
  8 38  1  0
  9 39  1  0
  9 40  1  0
 10 41  1  0
 10 42  1  0
 11 43  1  6
 13 44  1  0
 14 45  1  0
 17 46  1  0
 17 47  1  0
 22 48  1  0
 23 49  1  0
 25 50  1  0
 26 51  1  0
 28 52  1  0
 29 53  1  0
 30 54  1  0
 31 55  1  0
M  END
>  <smiles>  (15) 
O=C(NCC(=O)N1CCCC1c1ccc(OCC(F)(F)F)cc1)c1ccc2ccccc2n1

>  <score_type>  (15) 
oracle

>  <origin>  (15) 
autodockgpu

>  <m_score__min__energy>  (15) 
-8.0399999999999991

>  <m_primary>  (15) 
energy

>  <rmsd>  (15) 
7.961820545836384

>  <m_score__min__rmsd>  (15) 
7.961820545836384

>  <meeko>  (15) 
{"free_energy": -6.04, "intermolecular_energy": -8.43, "internal_energy": -2.83, "cluster_size": 5, "cluster_id": 6, "rank_in_cluster": 5}

>  <energy>  (15) 
-7.91

>  <cluster_rmsd>  (15) 
0.84

>  <cluster>  (15) 
2

$$$$

     RDKit          3D

 55 58  0  0  0  0  0  0  0  0999 V2000
  140.1670   73.4440  222.3020 O   0  0  0  0  0  0  0  0  0  0  0  0
  140.5370   72.2380  222.4240 C   0  0  0  0  0  0  0  0  0  0  0  0
  141.1970   71.6680  221.2840 N   0  0  0  0  0  0  0  0  0  0  0  0
  141.3710   72.5160  220.1200 C   0  0  0  0  0  0  0  0  0  0  0  0
  142.6450   73.2710  220.1740 C   0  0  0  0  0  0  0  0  0  0  0  0
  143.7440   72.7600  220.4950 O   0  0  0  0  0  0  0  0  0  0  0  0
  142.5960   74.6530  219.8400 N   0  0  0  0  0  0  0  0  0  0  0  0
  143.6620   75.6410  219.8510 C   0  0  0  0  0  0  0  0  0  0  0  0
  143.3480   76.4910  218.6150 C   0  0  0  0  0  0  0  0  0  0  0  0
  142.0040   75.9790  218.1200 C   0  0  0  0  0  0  0  0  0  0  0  0
  141.4130   75.4130  219.3940 C   0  0  2  0  0  0  0  0  0  0  0  0
  141.1080   76.4530  220.4070 C   0  0  0  0  0  0  0  0  0  0  0  0
  141.0710   76.2130  221.7550 C   0  0  0  0  0  0  0  0  0  0  0  0
  140.7750   77.2500  222.6460 C   0  0  0  0  0  0  0  0  0  0  0  0
  140.5130   78.5290  222.2470 C   0  0  0  0  0  0  0  0  0  0  0  0
  140.2240   79.6060  222.9870 O   0  0  0  0  0  0  0  0  0  0  0  0
  140.9390   80.3890  223.8150 C   0  0  0  0  0  0  0  0  0  0  0  0
  142.2400   80.9700  223.3760 C   0  0  0  0  0  0  0  0  0  0  0  0
  141.9080   81.9350  222.4000 F   0  0  0  0  0  0  0  0  0  0  0  0
  142.9780   81.6410  224.2940 F   0  0  0  0  0  0  0  0  0  0  0  0
  143.0150   80.0490  222.6780 F   0  0  0  0  0  0  0  0  0  0  0  0
  140.5620   78.7330  220.8480 C   0  0  0  0  0  0  0  0  0  0  0  0
  140.8480   77.7310  219.9690 C   0  0  0  0  0  0  0  0  0  0  0  0
  140.3200   71.4590  223.6320 C   0  0  0  0  0  0  0  0  0  0  0  0
  139.5690   70.3090  223.5130 C   0  0  0  0  0  0  0  0  0  0  0  0
  139.3570   69.5640  224.6490 C   0  0  0  0  0  0  0  0  0  0  0  0
  139.8760   69.9550  225.8620 C   0  0  0  0  0  0  0  0  0  0  0  0
  139.6610   69.2040  227.0040 C   0  0  0  0  0  0  0  0  0  0  0  0
  140.2000   69.6280  228.2090 C   0  0  0  0  0  0  0  0  0  0  0  0
  140.9520   70.7840  228.3190 C   0  0  0  0  0  0  0  0  0  0  0  0
  141.1460   71.5130  227.1450 C   0  0  0  0  0  0  0  0  0  0  0  0
  140.6200   71.1080  225.9420 C   0  0  0  0  0  0  0  0  0  0  0  0
  140.8220   71.8340  224.8120 N   0  0  0  0  0  0  0  0  0  0  0  0
  141.5300   70.6760  221.3140 H   0  0  0  0  0  0  0  0  0  0  0  0
  141.3680   71.8869  219.2176 H   0  0  0  0  0  0  0  0  0  0  0  0
  140.5445   73.2415  220.0992 H   0  0  0  0  0  0  0  0  0  0  0  0
  143.6306   76.2479  220.7679 H   0  0  0  0  0  0  0  0  0  0  0  0
  144.6682   75.1970  219.8307 H   0  0  0  0  0  0  0  0  0  0  0  0
  143.2815   77.5555  218.8839 H   0  0  0  0  0  0  0  0  0  0  0  0
  144.1309   76.4099  217.8465 H   0  0  0  0  0  0  0  0  0  0  0  0
  141.3859   76.7951  217.7175 H   0  0  0  0  0  0  0  0  0  0  0  0
  142.0746   75.2539  217.2958 H   0  0  0  0  0  0  0  0  0  0  0  0
  140.4638   74.8746  219.2557 H   0  0  0  0  0  0  0  0  0  0  0  0
  141.2746   75.2021  222.1380 H   0  0  0  0  0  0  0  0  0  0  0  0
  140.7522   77.0235  223.7222 H   0  0  0  0  0  0  0  0  0  0  0  0
  140.2911   81.2361  224.0845 H   0  0  0  0  0  0  0  0  0  0  0  0
  141.2369   79.6945  224.6143 H   0  0  0  0  0  0  0  0  0  0  0  0
  140.3613   79.7401  220.4538 H   0  0  0  0  0  0  0  0  0  0  0  0
  140.8713   77.9481  218.8909 H   0  0  0  0  0  0  0  0  0  0  0  0
  139.1538   69.9983  222.5429 H   0  0  0  0  0  0  0  0  0  0  0  0
  138.7628   68.6404  224.5872 H   0  0  0  0  0  0  0  0  0  0  0  0
  139.0678   68.2789  226.9563 H   0  0  0  0  0  0  0  0  0  0  0  0
  140.0232   69.0231  229.1106 H   0  0  0  0  0  0  0  0  0  0  0  0
  141.3744   71.1110  229.2805 H   0  0  0  0  0  0  0  0  0  0  0  0
  141.7377   72.4395  227.1838 H   0  0  0  0  0  0  0  0  0  0  0  0
  1  2  2  0
  2  3  1  0
  3  4  1  0
  4  5  1  0
  5  6  2  0
  5  7  1  0
  7  8  1  0
  8  9  1  0
  9 10  1  0
 10 11  1  0
 11 12  1  0
 12 13  2  0
 13 14  1  0
 14 15  2  0
 15 16  1  0
 16 17  1  0
 17 18  1  0
 18 19  1  0
 18 20  1  0
 18 21  1  0
 15 22  1  0
 22 23  2  0
  2 24  1  0
 24 25  2  0
 25 26  1  0
 26 27  2  0
 27 28  1  0
 28 29  2  0
 29 30  1  0
 30 31  2  0
 31 32  1  0
 32 33  2  0
 11  7  1  0
 23 12  1  0
 33 24  1  0
 32 27  1  0
  3 34  1  0
  4 35  1  0
  4 36  1  0
  8 37  1  0
  8 38  1  0
  9 39  1  0
  9 40  1  0
 10 41  1  0
 10 42  1  0
 11 43  1  6
 13 44  1  0
 14 45  1  0
 17 46  1  0
 17 47  1  0
 22 48  1  0
 23 49  1  0
 25 50  1  0
 26 51  1  0
 28 52  1  0
 29 53  1  0
 30 54  1  0
 31 55  1  0
M  END
>  <smiles>  (16) 
O=C(NCC(=O)N1CCCC1c1ccc(OCC(F)(F)F)cc1)c1ccc2ccccc2n1

>  <score_type>  (16) 
oracle

>  <origin>  (16) 
autodockgpu

>  <m_score__min__energy>  (16) 
-8.0399999999999991

>  <m_primary>  (16) 
energy

>  <rmsd>  (16) 
2.725274165902447

>  <m_score__min__rmsd>  (16) 
2.725274165902447

>  <meeko>  (16) 
{"free_energy": -7.75, "intermolecular_energy": -10.14, "internal_energy": -1.65, "cluster_size": 19, "cluster_id": 2, "rank_in_cluster": 10}

>  <energy>  (16) 
-7.88

>  <cluster_rmsd>  (16) 
0.84

>  <cluster>  (16) 
2

$$$$

     RDKit          3D

 55 58  0  0  0  0  0  0  0  0999 V2000
  140.6370   71.6150  221.3390 O   0  0  0  0  0  0  0  0  0  0  0  0
  140.1720   72.1070  222.4100 C   0  0  0  0  0  0  0  0  0  0  0  0
  139.7020   73.4600  222.3250 N   0  0  0  0  0  0  0  0  0  0  0  0
  139.8050   74.1220  221.0380 C   0  0  0  0  0  0  0  0  0  0  0  0
  141.0610   74.8980  220.9150 C   0  0  0  0  0  0  0  0  0  0  0  0
  141.3610   75.8590  221.6630 O   0  0  0  0  0  0  0  0  0  0  0  0
  141.9640   74.5140  219.8860 N   0  0  0  0  0  0  0  0  0  0  0  0
  141.6790   74.0240  218.5470 C   0  0  0  0  0  0  0  0  0  0  0  0
  142.7750   74.6860  217.7040 C   0  0  0  0  0  0  0  0  0  0  0  0
  143.6880   75.3650  218.7140 C   0  0  0  0  0  0  0  0  0  0  0  0
  143.4370   74.5290  219.9510 C   0  0  2  0  0  0  0  0  0  0  0  0
  143.9310   73.1350  219.8230 C   0  0  0  0  0  0  0  0  0  0  0  0
  144.9640   72.7670  219.0020 C   0  0  0  0  0  0  0  0  0  0  0  0
  145.3700   71.4300  218.9380 C   0  0  0  0  0  0  0  0  0  0  0  0
  144.7850   70.4350  219.6650 C   0  0  0  0  0  0  0  0  0  0  0  0
  145.0750   69.1280  219.7030 O   0  0  0  0  0  0  0  0  0  0  0  0
  145.9520   68.3480  219.0460 C   0  0  0  0  0  0  0  0  0  0  0  0
  145.9700   68.3120  217.5550 C   0  0  0  0  0  0  0  0  0  0  0  0
  146.7390   67.1770  217.2180 F   0  0  0  0  0  0  0  0  0  0  0  0
  144.7910   68.1390  216.9110 F   0  0  0  0  0  0  0  0  0  0  0  0
  146.6930   69.3710  217.0150 F   0  0  0  0  0  0  0  0  0  0  0  0
  143.7230   70.8570  220.4990 C   0  0  0  0  0  0  0  0  0  0  0  0
  143.3170   72.1560  220.5700 C   0  0  0  0  0  0  0  0  0  0  0  0
  140.1070   71.3680  223.6600 C   0  0  0  0  0  0  0  0  0  0  0  0
  139.5120   70.1240  223.6250 C   0  0  0  0  0  0  0  0  0  0  0  0
  139.4450   69.4150  224.8010 C   0  0  0  0  0  0  0  0  0  0  0  0
  139.9540   69.9300  225.9720 C   0  0  0  0  0  0  0  0  0  0  0  0
  139.8850   69.2150  227.1550 C   0  0  0  0  0  0  0  0  0  0  0  0
  140.4070   69.7660  228.3140 C   0  0  0  0  0  0  0  0  0  0  0  0
  141.0020   71.0150  228.3400 C   0  0  0  0  0  0  0  0  0  0  0  0
  141.0510   71.7040  227.1280 C   0  0  0  0  0  0  0  0  0  0  0  0
  140.5390   71.1740  225.9680 C   0  0  0  0  0  0  0  0  0  0  0  0
  140.5990   71.8630  224.7990 N   0  0  0  0  0  0  0  0  0  0  0  0
  139.3050   73.9310  223.1710 H   0  0  0  0  0  0  0  0  0  0  0  0
  139.7775   73.3615  220.2437 H   0  0  0  0  0  0  0  0  0  0  0  0
  138.9614   74.8219  220.9461 H   0  0  0  0  0  0  0  0  0  0  0  0
  141.7524   72.9274  218.5022 H   0  0  0  0  0  0  0  0  0  0  0  0
  140.6614   74.2614  218.2033 H   0  0  0  0  0  0  0  0  0  0  0  0
  143.3293   73.9308  217.1275 H   0  0  0  0  0  0  0  0  0  0  0  0
  142.3629   75.3978  216.9736 H   0  0  0  0  0  0  0  0  0  0  0  0
  144.7415   75.3153  218.4015 H   0  0  0  0  0  0  0  0  0  0  0  0
  143.4906   76.4387  218.8487 H   0  0  0  0  0  0  0  0  0  0  0  0
  143.9187   74.9112  220.8631 H   0  0  0  0  0  0  0  0  0  0  0  0
  145.4758   73.5253  218.3912 H   0  0  0  0  0  0  0  0  0  0  0  0
  146.2023   71.1679  218.2682 H   0  0  0  0  0  0  0  0  0  0  0  0
  146.9556   68.6659  219.3649 H   0  0  0  0  0  0  0  0  0  0  0  0
  145.6244   67.3322  219.3121 H   0  0  0  0  0  0  0  0  0  0  0  0
  143.2045   70.1070  221.1144 H   0  0  0  0  0  0  0  0  0  0  0  0
  142.4842   72.4265  221.2359 H   0  0  0  0  0  0  0  0  0  0  0  0
  139.1053   69.7136  222.6889 H   0  0  0  0  0  0  0  0  0  0  0  0
  138.9769   68.4196  224.8064 H   0  0  0  0  0  0  0  0  0  0  0  0
  139.4199   68.2183  227.1748 H   0  0  0  0  0  0  0  0  0  0  0  0
  140.3462   69.1890  229.2485 H   0  0  0  0  0  0  0  0  0  0  0  0
  141.4141   71.4416  229.2664 H   0  0  0  0  0  0  0  0  0  0  0  0
  141.5134   72.7017  227.1000 H   0  0  0  0  0  0  0  0  0  0  0  0
  1  2  2  0
  2  3  1  0
  3  4  1  0
  4  5  1  0
  5  6  2  0
  5  7  1  0
  7  8  1  0
  8  9  1  0
  9 10  1  0
 10 11  1  0
 11 12  1  0
 12 13  2  0
 13 14  1  0
 14 15  2  0
 15 16  1  0
 16 17  1  0
 17 18  1  0
 18 19  1  0
 18 20  1  0
 18 21  1  0
 15 22  1  0
 22 23  2  0
  2 24  1  0
 24 25  2  0
 25 26  1  0
 26 27  2  0
 27 28  1  0
 28 29  2  0
 29 30  1  0
 30 31  2  0
 31 32  1  0
 32 33  2  0
 11  7  1  0
 23 12  1  0
 33 24  1  0
 32 27  1  0
  3 34  1  0
  4 35  1  0
  4 36  1  0
  8 37  1  0
  8 38  1  0
  9 39  1  0
  9 40  1  0
 10 41  1  0
 10 42  1  0
 11 43  1  1
 13 44  1  0
 14 45  1  0
 17 46  1  0
 17 47  1  0
 22 48  1  0
 23 49  1  0
 25 50  1  0
 26 51  1  0
 28 52  1  0
 29 53  1  0
 30 54  1  0
 31 55  1  0
M  END
>  <smiles>  (17) 
O=C(NCC(=O)N1CCCC1c1ccc(OCC(F)(F)F)cc1)c1ccc2ccccc2n1

>  <score_type>  (17) 
oracle

>  <origin>  (17) 
autodockgpu

>  <m_score__min__energy>  (17) 
-8.0399999999999991

>  <m_primary>  (17) 
energy

>  <rmsd>  (17) 
2.229115222160106

>  <m_score__min__rmsd>  (17) 
2.229115222160106

>  <meeko>  (17) 
{"free_energy": -7.36, "intermolecular_energy": -9.74, "internal_energy": -1.8, "cluster_size": 10, "cluster_id": 1, "rank_in_cluster": 8}

>  <energy>  (17) 
-7.86

>  <cluster_rmsd>  (17) 
0.55

>  <cluster>  (17) 
2

$$$$

     RDKit          3D

 55 58  0  0  0  0  0  0  0  0999 V2000
  140.0670   71.3640  221.2490 O   0  0  0  0  0  0  0  0  0  0  0  0
  139.8960   71.9620  222.3530 C   0  0  0  0  0  0  0  0  0  0  0  0
  139.6450   73.3720  222.2690 N   0  0  0  0  0  0  0  0  0  0  0  0
  139.6130   73.9670  220.9470 C   0  0  0  0  0  0  0  0  0  0  0  0
  138.2970   74.5750  220.6470 C   0  0  0  0  0  0  0  0  0  0  0  0
  137.6350   74.3260  219.6110 O   0  0  0  0  0  0  0  0  0  0  0  0
  137.7710   75.4910  221.6000 N   0  0  0  0  0  0  0  0  0  0  0  0
  138.4410   76.1520  222.7080 C   0  0  0  0  0  0  0  0  0  0  0  0
  137.8090   77.5480  222.7000 C   0  0  0  0  0  0  0  0  0  0  0  0
  136.6980   77.4690  221.6650 C   0  0  0  0  0  0  0  0  0  0  0  0
  136.3840   75.9870  221.6770 C   0  0  2  0  0  0  0  0  0  0  0  0
  135.7870   75.5290  222.9560 C   0  0  0  0  0  0  0  0  0  0  0  0
  135.2150   76.3700  223.8730 C   0  0  0  0  0  0  0  0  0  0  0  0
  134.6730   75.8580  225.0560 C   0  0  0  0  0  0  0  0  0  0  0  0
  134.6780   74.5290  225.3680 C   0  0  0  0  0  0  0  0  0  0  0  0
  134.1940   73.9100  226.4520 O   0  0  0  0  0  0  0  0  0  0  0  0
  133.2270   72.9970  226.6520 C   0  0  0  0  0  0  0  0  0  0  0  0
  133.5720   71.5770  226.9500 C   0  0  0  0  0  0  0  0  0  0  0  0
  134.4060   71.1650  225.8860 F   0  0  0  0  0  0  0  0  0  0  0  0
  134.2860   71.3200  228.0730 F   0  0  0  0  0  0  0  0  0  0  0  0
  132.4680   70.7370  226.8460 F   0  0  0  0  0  0  0  0  0  0  0  0
  135.2780   73.6960  224.3950 C   0  0  0  0  0  0  0  0  0  0  0  0
  135.8100   74.1820  223.2380 C   0  0  0  0  0  0  0  0  0  0  0  0
  139.9450   71.2830  223.6380 C   0  0  0  0  0  0  0  0  0  0  0  0
  139.4470   69.9980  223.6900 C   0  0  0  0  0  0  0  0  0  0  0  0
  139.4880   69.3460  224.8990 C   0  0  0  0  0  0  0  0  0  0  0  0
  140.0080   69.9560  226.0190 C   0  0  0  0  0  0  0  0  0  0  0  0
  140.0480   69.2980  227.2350 C   0  0  0  0  0  0  0  0  0  0  0  0
  140.5790   69.9430  228.3410 C   0  0  0  0  0  0  0  0  0  0  0  0
  141.0750   71.2340  228.2800 C   0  0  0  0  0  0  0  0  0  0  0  0
  141.0170   71.8630  227.0350 C   0  0  0  0  0  0  0  0  0  0  0  0
  140.4950   71.2390  225.9280 C   0  0  0  0  0  0  0  0  0  0  0  0
  140.4480   71.8710  224.7270 N   0  0  0  0  0  0  0  0  0  0  0  0
  139.4940   73.9290  223.1430 H   0  0  0  0  0  0  0  0  0  0  0  0
  140.3865   74.7469  220.8892 H   0  0  0  0  0  0  0  0  0  0  0  0
  139.7967   73.1710  220.2104 H   0  0  0  0  0  0  0  0  0  0  0  0
  138.2436   75.6328  223.6574 H   0  0  0  0  0  0  0  0  0  0  0  0
  139.5363   76.1684  222.6083 H   0  0  0  0  0  0  0  0  0  0  0  0
  137.3982   77.7925  223.6907 H   0  0  0  0  0  0  0  0  0  0  0  0
  138.5419   78.3328  222.4614 H   0  0  0  0  0  0  0  0  0  0  0  0
  135.8253   78.0677  221.9649 H   0  0  0  0  0  0  0  0  0  0  0  0
  136.9757   77.8621  220.6759 H   0  0  0  0  0  0  0  0  0  0  0  0
  135.6676   75.6666  220.9063 H   0  0  0  0  0  0  0  0  0  0  0  0
  135.1818   77.4521  223.6783 H   0  0  0  0  0  0  0  0  0  0  0  0
  134.2202   76.5610  225.7707 H   0  0  0  0  0  0  0  0  0  0  0  0
  132.6237   73.3582  227.4979 H   0  0  0  0  0  0  0  0  0  0  0  0
  132.7438   72.9308  225.6660 H   0  0  0  0  0  0  0  0  0  0  0  0
  135.3169   72.6123  224.5795 H   0  0  0  0  0  0  0  0  0  0  0  0
  136.2652   73.4862  222.5178 H   0  0  0  0  0  0  0  0  0  0  0  0
  139.0315   69.5119  222.7950 H   0  0  0  0  0  0  0  0  0  0  0  0
  139.0990   68.3198  224.9735 H   0  0  0  0  0  0  0  0  0  0  0  0
  139.6618   68.2718  227.3235 H   0  0  0  0  0  0  0  0  0  0  0  0
  140.6073   69.4095  229.3025 H   0  0  0  0  0  0  0  0  0  0  0  0
  141.4923   71.7371  229.1647 H   0  0  0  0  0  0  0  0  0  0  0  0
  141.4009   72.8892  226.9375 H   0  0  0  0  0  0  0  0  0  0  0  0
  1  2  2  0
  2  3  1  0
  3  4  1  0
  4  5  1  0
  5  6  2  0
  5  7  1  0
  7  8  1  0
  8  9  1  0
  9 10  1  0
 10 11  1  0
 11 12  1  0
 12 13  2  0
 13 14  1  0
 14 15  2  0
 15 16  1  0
 16 17  1  0
 17 18  1  0
 18 19  1  0
 18 20  1  0
 18 21  1  0
 15 22  1  0
 22 23  2  0
  2 24  1  0
 24 25  2  0
 25 26  1  0
 26 27  2  0
 27 28  1  0
 28 29  2  0
 29 30  1  0
 30 31  2  0
 31 32  1  0
 32 33  2  0
 11  7  1  0
 23 12  1  0
 33 24  1  0
 32 27  1  0
  3 34  1  0
  4 35  1  0
  4 36  1  0
  8 37  1  0
  8 38  1  0
  9 39  1  0
  9 40  1  0
 10 41  1  0
 10 42  1  0
 11 43  1  6
 13 44  1  0
 14 45  1  0
 17 46  1  0
 17 47  1  0
 22 48  1  0
 23 49  1  0
 25 50  1  0
 26 51  1  0
 28 52  1  0
 29 53  1  0
 30 54  1  0
 31 55  1  0
M  END
>  <smiles>  (18) 
O=C(NCC(=O)N1CCCC1c1ccc(OCC(F)(F)F)cc1)c1ccc2ccccc2n1

>  <score_type>  (18) 
oracle

>  <origin>  (18) 
autodockgpu

>  <m_score__min__energy>  (18) 
-8.0399999999999991

>  <m_primary>  (18) 
energy

>  <rmsd>  (18) 
3.3425573568648024

>  <m_score__min__rmsd>  (18) 
3.3425573568648024

>  <meeko>  (18) 
{"free_energy": -7.54, "intermolecular_energy": -9.93, "internal_energy": -1.68, "cluster_size": 4, "cluster_id": 4, "rank_in_cluster": 1}

>  <energy>  (18) 
-7.82

>  <cluster_rmsd>  (18) 
0.67

>  <cluster>  (18) 
2

$$$$

     RDKit          3D

 55 58  0  0  0  0  0  0  0  0999 V2000
  139.8950   71.1980  221.1180 O   0  0  0  0  0  0  0  0  0  0  0  0
  140.3370   71.7820  222.1510 C   0  0  0  0  0  0  0  0  0  0  0  0
  141.0150   73.0260  221.9240 N   0  0  0  0  0  0  0  0  0  0  0  0
  141.1260   73.4860  220.5530 C   0  0  0  0  0  0  0  0  0  0  0  0
  141.5430   74.9050  220.4780 C   0  0  0  0  0  0  0  0  0  0  0  0
  142.6370   75.2840  219.9960 O   0  0  0  0  0  0  0  0  0  0  0  0
  140.6370   75.8760  220.9870 N   0  0  0  0  0  0  0  0  0  0  0  0
  139.5420   76.5550  220.3150 C   0  0  0  0  0  0  0  0  0  0  0  0
  138.4710   76.6340  221.4100 C   0  0  0  0  0  0  0  0  0  0  0  0
  139.1590   76.1260  222.6670 C   0  0  0  0  0  0  0  0  0  0  0  0
  140.6100   76.4270  222.3550 C   0  0  2  0  0  0  0  0  0  0  0  0
  140.9010   77.8810  222.2860 C   0  0  0  0  0  0  0  0  0  0  0  0
  141.8180   78.4330  221.4330 C   0  0  0  0  0  0  0  0  0  0  0  0
  142.0350   79.8150  221.4290 C   0  0  0  0  0  0  0  0  0  0  0  0
  141.3680   80.6780  222.2490 C   0  0  0  0  0  0  0  0  0  0  0  0
  141.4730   82.0100  222.3450 O   0  0  0  0  0  0  0  0  0  0  0  0
  141.1130   83.0340  221.5500 C   0  0  0  0  0  0  0  0  0  0  0  0
  140.5300   82.7800  220.2010 C   0  0  0  0  0  0  0  0  0  0  0  0
  141.5760   82.2040  219.4450 F   0  0  0  0  0  0  0  0  0  0  0  0
  139.5060   81.8980  220.1070 F   0  0  0  0  0  0  0  0  0  0  0  0
  140.2480   83.9610  219.5220 F   0  0  0  0  0  0  0  0  0  0  0  0
  140.4300   80.0680  223.1150 C   0  0  0  0  0  0  0  0  0  0  0  0
  140.2110   78.7230  223.1280 C   0  0  0  0  0  0  0  0  0  0  0  0
  140.1790   71.2470  223.4940 C   0  0  0  0  0  0  0  0  0  0  0  0
  139.4630   70.0760  223.6240 C   0  0  0  0  0  0  0  0  0  0  0  0
  139.3080   69.5600  224.8890 C   0  0  0  0  0  0  0  0  0  0  0  0
  139.8480   70.1930  225.9860 C   0  0  0  0  0  0  0  0  0  0  0  0
  139.6900   69.6720  227.2580 C   0  0  0  0  0  0  0  0  0  0  0  0
  140.2470   70.3360  228.3400 C   0  0  0  0  0  0  0  0  0  0  0  0
  140.9640   71.5110  228.1990 C   0  0  0  0  0  0  0  0  0  0  0  0
  141.1010   72.0040  226.9010 C   0  0  0  0  0  0  0  0  0  0  0  0
  140.5550   71.3590  225.8160 C   0  0  0  0  0  0  0  0  0  0  0  0
  140.7020   71.8570  224.5610 N   0  0  0  0  0  0  0  0  0  0  0  0
  141.4060   73.5650  222.7330 H   0  0  0  0  0  0  0  0  0  0  0  0
  141.8711   72.8684  220.0300 H   0  0  0  0  0  0  0  0  0  0  0  0
  140.1357   73.3967  220.0825 H   0  0  0  0  0  0  0  0  0  0  0  0
  139.8430   77.5591  219.9815 H   0  0  0  0  0  0  0  0  0  0  0  0
  139.1998   76.0378  219.4065 H   0  0  0  0  0  0  0  0  0  0  0  0
  138.1327   77.6718  221.5464 H   0  0  0  0  0  0  0  0  0  0  0  0
  137.5777   76.0432  221.1591 H   0  0  0  0  0  0  0  0  0  0  0  0
  138.8182   76.6701  223.5602 H   0  0  0  0  0  0  0  0  0  0  0  0
  138.9576   75.0687  222.8942 H   0  0  0  0  0  0  0  0  0  0  0  0
  141.3252   76.0355  223.0934 H   0  0  0  0  0  0  0  0  0  0  0  0
  142.3867   77.7873  220.7477 H   0  0  0  0  0  0  0  0  0  0  0  0
  142.7794   80.2259  220.7311 H   0  0  0  0  0  0  0  0  0  0  0  0
  140.3685   83.6197  222.1092 H   0  0  0  0  0  0  0  0  0  0  0  0
  142.0749   83.5136  221.3159 H   0  0  0  0  0  0  0  0  0  0  0  0
  139.8553   80.7040  223.8044 H   0  0  0  0  0  0  0  0  0  0  0  0
  139.4697   78.3030  223.8237 H   0  0  0  0  0  0  0  0  0  0  0  0
  139.0310   69.5723  222.7467 H   0  0  0  0  0  0  0  0  0  0  0  0
  138.7433   68.6261  225.0269 H   0  0  0  0  0  0  0  0  0  0  0  0
  139.1273   68.7390  227.4094 H   0  0  0  0  0  0  0  0  0  0  0  0
  140.1142   69.9135  229.3469 H   0  0  0  0  0  0  0  0  0  0  0  0
  141.4028   72.0290  229.0645 H   0  0  0  0  0  0  0  0  0  0  0  0
  141.6624   72.9363  226.7407 H   0  0  0  0  0  0  0  0  0  0  0  0
  1  2  2  0
  2  3  1  0
  3  4  1  0
  4  5  1  0
  5  6  2  0
  5  7  1  0
  7  8  1  0
  8  9  1  0
  9 10  1  0
 10 11  1  0
 11 12  1  0
 12 13  2  0
 13 14  1  0
 14 15  2  0
 15 16  1  0
 16 17  1  0
 17 18  1  0
 18 19  1  0
 18 20  1  0
 18 21  1  0
 15 22  1  0
 22 23  2  0
  2 24  1  0
 24 25  2  0
 25 26  1  0
 26 27  2  0
 27 28  1  0
 28 29  2  0
 29 30  1  0
 30 31  2  0
 31 32  1  0
 32 33  2  0
 11  7  1  0
 23 12  1  0
 33 24  1  0
 32 27  1  0
  3 34  1  0
  4 35  1  0
  4 36  1  0
  8 37  1  0
  8 38  1  0
  9 39  1  0
  9 40  1  0
 10 41  1  0
 10 42  1  0
 11 43  1  1
 13 44  1  0
 14 45  1  0
 17 46  1  0
 17 47  1  0
 22 48  1  0
 23 49  1  0
 25 50  1  0
 26 51  1  0
 28 52  1  0
 29 53  1  0
 30 54  1  0
 31 55  1  0
M  END
>  <smiles>  (19) 
O=C(NCC(=O)N1CCCC1c1ccc(OCC(F)(F)F)cc1)c1ccc2ccccc2n1

>  <score_type>  (19) 
oracle

>  <origin>  (19) 
autodockgpu

>  <m_score__min__energy>  (19) 
-8.0399999999999991

>  <m_primary>  (19) 
energy

>  <rmsd>  (19) 
2.6856212921163474

>  <m_score__min__rmsd>  (19) 
2.6856212921163474

>  <meeko>  (19) 
{"free_energy": -7.12, "intermolecular_energy": -9.51, "internal_energy": -1.8, "cluster_size": 4, "cluster_id": 3, "rank_in_cluster": 3}

>  <energy>  (19) 
-7.81

>  <cluster_rmsd>  (19) 
0.62

>  <cluster>  (19) 
2

$$$$

     RDKit          3D

 55 58  0  0  0  0  0  0  0  0999 V2000
  138.6010   75.6300  221.7810 O   0  0  0  0  0  0  0  0  0  0  0  0
  139.7740   75.9960  222.0890 C   0  0  0  0  0  0  0  0  0  0  0  0
  140.7950   74.9950  221.9650 N   0  0  0  0  0  0  0  0  0  0  0  0
  140.3880   73.6810  221.5060 C   0  0  0  0  0  0  0  0  0  0  0  0
  140.7770   73.4430  220.0970 C   0  0  0  0  0  0  0  0  0  0  0  0
  140.2240   72.5950  219.3560 O   0  0  0  0  0  0  0  0  0  0  0  0
  141.8400   74.2310  219.5740 N   0  0  0  0  0  0  0  0  0  0  0  0
  143.1110   74.5830  220.1840 C   0  0  0  0  0  0  0  0  0  0  0  0
  144.0830   74.5220  219.0000 C   0  0  0  0  0  0  0  0  0  0  0  0
  143.2010   74.2990  217.7820 C   0  0  0  0  0  0  0  0  0  0  0  0
  141.8870   74.8860  218.2530 C   0  0  2  0  0  0  0  0  0  0  0  0
  141.9450   76.3560  218.4550 C   0  0  0  0  0  0  0  0  0  0  0  0
  142.9490   77.1500  217.9710 C   0  0  0  0  0  0  0  0  0  0  0  0
  142.9300   78.5290  218.2050 C   0  0  0  0  0  0  0  0  0  0  0  0
  141.9410   79.1550  218.9070 C   0  0  0  0  0  0  0  0  0  0  0  0
  141.7980   80.4550  219.1970 O   0  0  0  0  0  0  0  0  0  0  0  0
  141.7210   81.1520  220.3450 C   0  0  0  0  0  0  0  0  0  0  0  0
  140.6070   82.1180  220.5730 C   0  0  0  0  0  0  0  0  0  0  0  0
  140.3700   82.7170  219.3160 F   0  0  0  0  0  0  0  0  0  0  0  0
  139.4060   81.6220  220.9560 F   0  0  0  0  0  0  0  0  0  0  0  0
  140.9970   83.1850  221.3760 F   0  0  0  0  0  0  0  0  0  0  0  0
  140.9230   78.2990  219.3880 C   0  0  0  0  0  0  0  0  0  0  0  0
  140.9310   76.9540  219.1670 C   0  0  0  0  0  0  0  0  0  0  0  0
  140.0920   77.3410  222.5410 C   0  0  0  0  0  0  0  0  0  0  0  0
  139.0340   78.1560  222.8840 C   0  0  0  0  0  0  0  0  0  0  0  0
  139.3220   79.4290  223.3130 C   0  0  0  0  0  0  0  0  0  0  0  0
  140.6220   79.8740  223.3980 C   0  0  0  0  0  0  0  0  0  0  0  0
  140.9100   81.1570  223.8300 C   0  0  0  0  0  0  0  0  0  0  0  0
  142.2310   81.5700  223.9020 C   0  0  0  0  0  0  0  0  0  0  0  0
  143.2870   80.7450  223.5560 C   0  0  0  0  0  0  0  0  0  0  0  0
  142.9550   79.4600  223.1250 C   0  0  0  0  0  0  0  0  0  0  0  0
  141.6510   79.0320  223.0470 C   0  0  0  0  0  0  0  0  0  0  0  0
  141.3520   77.7770  222.6250 N   0  0  0  0  0  0  0  0  0  0  0  0
  141.7880   75.2280  222.2020 H   0  0  0  0  0  0  0  0  0  0  0  0
  140.8651   72.9193  222.1401 H   0  0  0  0  0  0  0  0  0  0  0  0
  139.2916   73.6216  221.5715 H   0  0  0  0  0  0  0  0  0  0  0  0
  143.0765   75.5936  220.6170 H   0  0  0  0  0  0  0  0  0  0  0  0
  143.3941   73.9203  221.0151 H   0  0  0  0  0  0  0  0  0  0  0  0
  144.6398   75.4661  218.9072 H   0  0  0  0  0  0  0  0  0  0  0  0
  144.8328   73.7262  219.1200 H   0  0  0  0  0  0  0  0  0  0  0  0
  143.5879   74.8334  216.9018 H   0  0  0  0  0  0  0  0  0  0  0  0
  143.1350   73.2490  217.4608 H   0  0  0  0  0  0  0  0  0  0  0  0
  141.0460   74.7339  217.5605 H   0  0  0  0  0  0  0  0  0  0  0  0
  143.7733   76.7026  217.3963 H   0  0  0  0  0  0  0  0  0  0  0  0
  143.7527   79.1389  217.8035 H   0  0  0  0  0  0  0  0  0  0  0  0
  141.6689   80.4136  221.1587 H   0  0  0  0  0  0  0  0  0  0  0  0
  142.6063   81.8032  220.2980 H   0  0  0  0  0  0  0  0  0  0  0  0
  140.0928   78.7355  219.9626 H   0  0  0  0  0  0  0  0  0  0  0  0
  140.1126   76.3360  219.5648 H   0  0  0  0  0  0  0  0  0  0  0  0
  137.9956   77.7994  222.8165 H   0  0  0  0  0  0  0  0  0  0  0  0
  138.5000   80.1041  223.5933 H   0  0  0  0  0  0  0  0  0  0  0  0
  140.0979   81.8426  224.1136 H   0  0  0  0  0  0  0  0  0  0  0  0
  142.4483   82.5916  224.2470 H   0  0  0  0  0  0  0  0  0  0  0  0
  144.3317   81.0840  223.6174 H   0  0  0  0  0  0  0  0  0  0  0  0
  143.7613   78.7685  222.8390 H   0  0  0  0  0  0  0  0  0  0  0  0
  1  2  2  0
  2  3  1  0
  3  4  1  0
  4  5  1  0
  5  6  2  0
  5  7  1  0
  7  8  1  0
  8  9  1  0
  9 10  1  0
 10 11  1  0
 11 12  1  0
 12 13  2  0
 13 14  1  0
 14 15  2  0
 15 16  1  0
 16 17  1  0
 17 18  1  0
 18 19  1  0
 18 20  1  0
 18 21  1  0
 15 22  1  0
 22 23  2  0
  2 24  1  0
 24 25  2  0
 25 26  1  0
 26 27  2  0
 27 28  1  0
 28 29  2  0
 29 30  1  0
 30 31  2  0
 31 32  1  0
 32 33  2  0
 11  7  1  0
 23 12  1  0
 33 24  1  0
 32 27  1  0
  3 34  1  0
  4 35  1  0
  4 36  1  0
  8 37  1  0
  8 38  1  0
  9 39  1  0
  9 40  1  0
 10 41  1  0
 10 42  1  0
 11 43  1  6
 13 44  1  0
 14 45  1  0
 17 46  1  0
 17 47  1  0
 22 48  1  0
 23 49  1  0
 25 50  1  0
 26 51  1  0
 28 52  1  0
 29 53  1  0
 30 54  1  0
 31 55  1  0
M  END
>  <smiles>  (20) 
O=C(NCC(=O)N1CCCC1c1ccc(OCC(F)(F)F)cc1)c1ccc2ccccc2n1

>  <score_type>  (20) 
oracle

>  <origin>  (20) 
autodockgpu

>  <m_score__min__energy>  (20) 
-8.0399999999999991

>  <m_primary>  (20) 
energy

>  <rmsd>  (20) 
7.484130043010172

>  <m_score__min__rmsd>  (20) 
7.484130043010172

>  <meeko>  (20) 
{"free_energy": -5.53, "intermolecular_energy": -7.91, "internal_energy": -3.12, "cluster_size": 6, "cluster_id": 7, "rank_in_cluster": 6}

>  <energy>  (20) 
-7.75

>  <cluster_rmsd>  (20) 
0.53

>  <cluster>  (20) 
2

$$$$

     RDKit          3D

 55 58  0  0  0  0  0  0  0  0999 V2000
  139.9460   73.1680  222.7880 O   0  0  0  0  0  0  0  0  0  0  0  0
  140.3270   71.9650  222.8990 C   0  0  0  0  0  0  0  0  0  0  0  0
  140.7580   71.3300  221.6870 N   0  0  0  0  0  0  0  0  0  0  0  0
  140.7160   72.1170  220.4700 C   0  0  0  0  0  0  0  0  0  0  0  0
  142.0730   72.4090  219.9530 C   0  0  0  0  0  0  0  0  0  0  0  0
  142.9450   71.5290  219.7520 O   0  0  0  0  0  0  0  0  0  0  0  0
  142.3850   73.7680  219.6770 N   0  0  0  0  0  0  0  0  0  0  0  0
  143.6560   74.4640  219.7960 C   0  0  0  0  0  0  0  0  0  0  0  0
  143.6450   75.3980  218.5800 C   0  0  0  0  0  0  0  0  0  0  0  0
  142.2550   75.2460  217.9830 C   0  0  0  0  0  0  0  0  0  0  0  0
  141.4570   74.8070  219.1930 C   0  0  2  0  0  0  0  0  0  0  0  0
  141.3450   75.8630  220.2300 C   0  0  0  0  0  0  0  0  0  0  0  0
  141.9610   77.0830  220.1430 C   0  0  0  0  0  0  0  0  0  0  0  0
  141.8040   78.0250  221.1660 C   0  0  0  0  0  0  0  0  0  0  0  0
  141.0520   77.7990  222.2820 C   0  0  0  0  0  0  0  0  0  0  0  0
  140.8160   78.6070  223.3230 O   0  0  0  0  0  0  0  0  0  0  0  0
  141.5940   79.3890  224.0930 C   0  0  0  0  0  0  0  0  0  0  0  0
  142.3580   80.5220  223.4970 C   0  0  0  0  0  0  0  0  0  0  0  0
  141.5970   80.9410  222.3830 F   0  0  0  0  0  0  0  0  0  0  0  0
  142.5240   81.6400  224.2460 F   0  0  0  0  0  0  0  0  0  0  0  0
  143.5600   80.1050  222.9350 F   0  0  0  0  0  0  0  0  0  0  0  0
  140.4330   76.5280  222.3320 C   0  0  0  0  0  0  0  0  0  0  0  0
  140.5780   75.6020  221.3430 C   0  0  0  0  0  0  0  0  0  0  0  0
  140.3360   71.2500  224.1650 C   0  0  0  0  0  0  0  0  0  0  0  0
  140.8770   71.9040  225.2530 C   0  0  0  0  0  0  0  0  0  0  0  0
  140.8920   71.2380  226.4550 C   0  0  0  0  0  0  0  0  0  0  0  0
  140.3840   69.9640  226.5690 C   0  0  0  0  0  0  0  0  0  0  0  0
  140.4000   69.2950  227.7810 C   0  0  0  0  0  0  0  0  0  0  0  0
  139.8800   68.0130  227.8570 C   0  0  0  0  0  0  0  0  0  0  0  0
  139.3390   67.3650  226.7610 C   0  0  0  0  0  0  0  0  0  0  0  0
  139.3420   68.0720  225.5570 C   0  0  0  0  0  0  0  0  0  0  0  0
  139.8530   69.3440  225.4620 C   0  0  0  0  0  0  0  0  0  0  0  0
  139.8450   70.0130  224.2810 N   0  0  0  0  0  0  0  0  0  0  0  0
  141.0870   70.3360  221.7050 H   0  0  0  0  0  0  0  0  0  0  0  0
  140.1566   71.5588  219.7048 H   0  0  0  0  0  0  0  0  0  0  0  0
  140.2260   73.0745  220.7004 H   0  0  0  0  0  0  0  0  0  0  0  0
  143.7088   75.0354  220.7344 H   0  0  0  0  0  0  0  0  0  0  0  0
  144.5232   73.7876  219.8187 H   0  0  0  0  0  0  0  0  0  0  0  0
  143.8216   76.4386  218.8896 H   0  0  0  0  0  0  0  0  0  0  0  0
  144.4358   75.1470  217.8577 H   0  0  0  0  0  0  0  0  0  0  0  0
  141.8835   76.1999  217.5804 H   0  0  0  0  0  0  0  0  0  0  0  0
  142.2040   74.5491  217.1335 H   0  0  0  0  0  0  0  0  0  0  0  0
  140.4176   74.5215  218.9738 H   0  0  0  0  0  0  0  0  0  0  0  0
  142.5809   77.3232  219.2666 H   0  0  0  0  0  0  0  0  0  0  0  0
  142.3119   78.9955  221.0655 H   0  0  0  0  0  0  0  0  0  0  0  0
  140.9397   79.8219  224.8640 H   0  0  0  0  0  0  0  0  0  0  0  0
  142.3881   78.7012  224.4190 H   0  0  0  0  0  0  0  0  0  0  0  0
  139.8102   76.2774  223.2034 H   0  0  0  0  0  0  0  0  0  0  0  0
  140.0734   74.6289  221.4355 H   0  0  0  0  0  0  0  0  0  0  0  0
  141.2820   72.9226  225.1614 H   0  0  0  0  0  0  0  0  0  0  0  0
  141.3173   71.7316  227.3412 H   0  0  0  0  0  0  0  0  0  0  0  0
  140.8217   69.7768  228.6754 H   0  0  0  0  0  0  0  0  0  0  0  0
  139.8980   67.4909  228.8250 H   0  0  0  0  0  0  0  0  0  0  0  0
  138.9284   66.3471  226.8342 H   0  0  0  0  0  0  0  0  0  0  0  0
  138.9229   67.5967  224.6579 H   0  0  0  0  0  0  0  0  0  0  0  0
  1  2  2  0
  2  3  1  0
  3  4  1  0
  4  5  1  0
  5  6  2  0
  5  7  1  0
  7  8  1  0
  8  9  1  0
  9 10  1  0
 10 11  1  0
 11 12  1  0
 12 13  2  0
 13 14  1  0
 14 15  2  0
 15 16  1  0
 16 17  1  0
 17 18  1  0
 18 19  1  0
 18 20  1  0
 18 21  1  0
 15 22  1  0
 22 23  2  0
  2 24  1  0
 24 25  2  0
 25 26  1  0
 26 27  2  0
 27 28  1  0
 28 29  2  0
 29 30  1  0
 30 31  2  0
 31 32  1  0
 32 33  2  0
 11  7  1  0
 23 12  1  0
 33 24  1  0
 32 27  1  0
  3 34  1  0
  4 35  1  0
  4 36  1  0
  8 37  1  0
  8 38  1  0
  9 39  1  0
  9 40  1  0
 10 41  1  0
 10 42  1  0
 11 43  1  6
 13 44  1  0
 14 45  1  0
 17 46  1  0
 17 47  1  0
 22 48  1  0
 23 49  1  0
 25 50  1  0
 26 51  1  0
 28 52  1  0
 29 53  1  0
 30 54  1  0
 31 55  1  0
M  END
>  <smiles>  (21) 
O=C(NCC(=O)N1CCCC1c1ccc(OCC(F)(F)F)cc1)c1ccc2ccccc2n1

>  <score_type>  (21) 
oracle

>  <origin>  (21) 
autodockgpu

>  <m_score__min__energy>  (21) 
-8.0399999999999991

>  <m_primary>  (21) 
energy

>  <rmsd>  (21) 
3.5680869580879673

>  <m_score__min__rmsd>  (21) 
3.5680869580879673

>  <meeko>  (21) 
{"free_energy": -7.54, "intermolecular_energy": -9.92, "internal_energy": -1.43, "cluster_size": 19, "cluster_id": 2, "rank_in_cluster": 14}

>  <energy>  (21) 
-7.71

>  <cluster_rmsd>  (21) 
1.11

>  <cluster>  (21) 
2

$$$$

     RDKit          3D

 55 58  0  0  0  0  0  0  0  0999 V2000
  138.7270   75.4000  221.9480 O   0  0  0  0  0  0  0  0  0  0  0  0
  139.8950   75.8540  222.1370 C   0  0  0  0  0  0  0  0  0  0  0  0
  140.9670   74.9180  221.9550 N   0  0  0  0  0  0  0  0  0  0  0  0
  140.6130   73.5630  221.5800 C   0  0  0  0  0  0  0  0  0  0  0  0
  141.7890   72.7970  221.1050 C   0  0  0  0  0  0  0  0  0  0  0  0
  141.9530   71.5710  221.3160 O   0  0  0  0  0  0  0  0  0  0  0  0
  142.7760   73.5100  220.3710 N   0  0  0  0  0  0  0  0  0  0  0  0
  144.0170   74.1080  220.8370 C   0  0  0  0  0  0  0  0  0  0  0  0
  144.9820   73.8280  219.6790 C   0  0  0  0  0  0  0  0  0  0  0  0
  144.1140   73.2340  218.5810 C   0  0  0  0  0  0  0  0  0  0  0  0
  142.7580   73.8120  218.9270 C   0  0  2  0  0  0  0  0  0  0  0  0
  142.6910   75.2850  218.7520 C   0  0  0  0  0  0  0  0  0  0  0  0
  142.0110   76.1210  219.5970 C   0  0  0  0  0  0  0  0  0  0  0  0
  141.9970   77.4990  219.3620 C   0  0  0  0  0  0  0  0  0  0  0  0
  142.6370   78.0850  218.3090 C   0  0  0  0  0  0  0  0  0  0  0  0
  142.7080   79.3790  217.9720 O   0  0  0  0  0  0  0  0  0  0  0  0
  141.9150   80.4450  218.1880 C   0  0  0  0  0  0  0  0  0  0  0  0
  141.5040   80.8180  219.5720 C   0  0  0  0  0  0  0  0  0  0  0  0
  140.3350   80.0680  219.8290 F   0  0  0  0  0  0  0  0  0  0  0  0
  142.3460   80.5110  220.5880 F   0  0  0  0  0  0  0  0  0  0  0  0
  141.0720   82.1380  219.6520 F   0  0  0  0  0  0  0  0  0  0  0  0
  143.3260   77.1870  217.4600 C   0  0  0  0  0  0  0  0  0  0  0  0
  143.3470   75.8420  217.6790 C   0  0  0  0  0  0  0  0  0  0  0  0
  140.1580   77.2340  222.5130 C   0  0  0  0  0  0  0  0  0  0  0  0
  139.0650   78.0490  222.7200 C   0  0  0  0  0  0  0  0  0  0  0  0
  139.3010   79.3550  223.0760 C   0  0  0  0  0  0  0  0  0  0  0  0
  140.5850   79.8320  223.2200 C   0  0  0  0  0  0  0  0  0  0  0  0
  140.8210   81.1480  223.5780 C   0  0  0  0  0  0  0  0  0  0  0  0
  142.1260   81.5930  223.7140 C   0  0  0  0  0  0  0  0  0  0  0  0
  143.2170   80.7670  223.5030 C   0  0  0  0  0  0  0  0  0  0  0  0
  142.9380   79.4480  223.1430 C   0  0  0  0  0  0  0  0  0  0  0  0
  141.6500   78.9890  223.0040 C   0  0  0  0  0  0  0  0  0  0  0  0
  141.4020   77.7010  222.6540 N   0  0  0  0  0  0  0  0  0  0  0  0
  141.9580   75.2250  222.0940 H   0  0  0  0  0  0  0  0  0  0  0  0
  140.1853   73.0519  222.4551 H   0  0  0  0  0  0  0  0  0  0  0  0
  139.8850   73.6158  220.7571 H   0  0  0  0  0  0  0  0  0  0  0  0
  143.8988   75.1891  221.0022 H   0  0  0  0  0  0  0  0  0  0  0  0
  144.3618   73.7033  221.8000 H   0  0  0  0  0  0  0  0  0  0  0  0
  145.4558   74.7597  219.3363 H   0  0  0  0  0  0  0  0  0  0  0  0
  145.7973   73.1511  219.9740 H   0  0  0  0  0  0  0  0  0  0  0  0
  144.4475   73.5589  217.5844 H   0  0  0  0  0  0  0  0  0  0  0  0
  144.1362   72.1352  218.5350 H   0  0  0  0  0  0  0  0  0  0  0  0
  141.9285   73.4220  218.3189 H   0  0  0  0  0  0  0  0  0  0  0  0
  141.4742   75.7070  220.4633 H   0  0  0  0  0  0  0  0  0  0  0  0
  141.4425   78.1428  220.0606 H   0  0  0  0  0  0  0  0  0  0  0  0
  142.4393   81.3169  217.7698 H   0  0  0  0  0  0  0  0  0  0  0  0
  140.9652   80.1435  217.7222 H   0  0  0  0  0  0  0  0  0  0  0  0
  143.8653   77.5898  216.5900 H   0  0  0  0  0  0  0  0  0  0  0  0
  143.8984   75.1903  216.9853 H   0  0  0  0  0  0  0  0  0  0  0  0
  138.0400   77.6669  222.6042 H   0  0  0  0  0  0  0  0  0  0  0  0
  138.4504   80.0307  223.2488 H   0  0  0  0  0  0  0  0  0  0  0  0
  139.9797   81.8347  223.7530 H   0  0  0  0  0  0  0  0  0  0  0  0
  142.3017   82.6405  224.0000 H   0  0  0  0  0  0  0  0  0  0  0  0
  144.2491   81.1312  223.6133 H   0  0  0  0  0  0  0  0  0  0  0  0
  143.7736   78.7551  222.9652 H   0  0  0  0  0  0  0  0  0  0  0  0
  1  2  2  0
  2  3  1  0
  3  4  1  0
  4  5  1  0
  5  6  2  0
  5  7  1  0
  7  8  1  0
  8  9  1  0
  9 10  1  0
 10 11  1  0
 11 12  1  0
 12 13  2  0
 13 14  1  0
 14 15  2  0
 15 16  1  0
 16 17  1  0
 17 18  1  0
 18 19  1  0
 18 20  1  0
 18 21  1  0
 15 22  1  0
 22 23  2  0
  2 24  1  0
 24 25  2  0
 25 26  1  0
 26 27  2  0
 27 28  1  0
 28 29  2  0
 29 30  1  0
 30 31  2  0
 31 32  1  0
 32 33  2  0
 11  7  1  0
 23 12  1  0
 33 24  1  0
 32 27  1  0
  3 34  1  0
  4 35  1  0
  4 36  1  0
  8 37  1  0
  8 38  1  0
  9 39  1  0
  9 40  1  0
 10 41  1  0
 10 42  1  0
 11 43  1  6
 13 44  1  0
 14 45  1  0
 17 46  1  0
 17 47  1  0
 22 48  1  0
 23 49  1  0
 25 50  1  0
 26 51  1  0
 28 52  1  0
 29 53  1  0
 30 54  1  0
 31 55  1  0
M  END
>  <smiles>  (22) 
O=C(NCC(=O)N1CCCC1c1ccc(OCC(F)(F)F)cc1)c1ccc2ccccc2n1

>  <score_type>  (22) 
oracle

>  <origin>  (22) 
autodockgpu

>  <m_score__min__energy>  (22) 
-8.0399999999999991

>  <m_primary>  (22) 
energy

>  <rmsd>  (22) 
7.7030802433064665

>  <m_score__min__rmsd>  (22) 
7.7030802433064665

>  <meeko>  (22) 
{"free_energy": -6.22, "intermolecular_energy": -8.61, "internal_energy": -2.76, "cluster_size": 6, "cluster_id": 7, "rank_in_cluster": 1}

>  <energy>  (22) 
-7.58

>  <cluster_rmsd>  (22) 
1.35

>  <cluster>  (22) 
2

$$$$

     RDKit          3D

 55 58  0  0  0  0  0  0  0  0999 V2000
  140.4000   71.1050  221.4010 O   0  0  0  0  0  0  0  0  0  0  0  0
  140.0080   71.5560  222.5190 C   0  0  0  0  0  0  0  0  0  0  0  0
  139.6220   72.9380  222.5350 N   0  0  0  0  0  0  0  0  0  0  0  0
  139.7180   73.6730  221.2890 C   0  0  0  0  0  0  0  0  0  0  0  0
  140.8060   74.6770  221.3220 C   0  0  0  0  0  0  0  0  0  0  0  0
  140.8630   75.6140  222.1550 O   0  0  0  0  0  0  0  0  0  0  0  0
  141.8350   74.5550  220.3470 N   0  0  0  0  0  0  0  0  0  0  0  0
  141.7260   74.4700  218.9000 C   0  0  0  0  0  0  0  0  0  0  0  0
  142.9300   75.2900  218.4220 C   0  0  0  0  0  0  0  0  0  0  0  0
  143.7060   75.6190  219.6880 C   0  0  0  0  0  0  0  0  0  0  0  0
  143.2860   74.4840  220.5980 C   0  0  2  0  0  0  0  0  0  0  0  0
  143.7820   73.1600  220.1450 C   0  0  0  0  0  0  0  0  0  0  0  0
  144.8930   72.9910  219.3640 C   0  0  0  0  0  0  0  0  0  0  0  0
  145.2950   71.7070  218.9790 C   0  0  0  0  0  0  0  0  0  0  0  0
  144.6280   70.5740  219.3450 C   0  0  0  0  0  0  0  0  0  0  0  0
  144.9030   69.2970  219.0540 O   0  0  0  0  0  0  0  0  0  0  0  0
  145.9260   68.4720  219.3450 C   0  0  0  0  0  0  0  0  0  0  0  0
  145.9440   67.0730  218.8300 C   0  0  0  0  0  0  0  0  0  0  0  0
  145.8540   67.1900  217.4250 F   0  0  0  0  0  0  0  0  0  0  0  0
  147.0570   66.3310  219.0480 F   0  0  0  0  0  0  0  0  0  0  0  0
  144.7920   66.3740  219.1750 F   0  0  0  0  0  0  0  0  0  0  0  0
  143.4870   70.7930  220.1510 C   0  0  0  0  0  0  0  0  0  0  0  0
  143.0850   72.0380  220.5320 C   0  0  0  0  0  0  0  0  0  0  0  0
  139.9440   70.7440  223.7230 C   0  0  0  0  0  0  0  0  0  0  0  0
  139.2770   69.5400  223.6350 C   0  0  0  0  0  0  0  0  0  0  0  0
  139.2100   68.7630  224.7670 C   0  0  0  0  0  0  0  0  0  0  0  0
  139.7870   69.1750  225.9470 C   0  0  0  0  0  0  0  0  0  0  0  0
  139.7180   68.3910  227.0850 C   0  0  0  0  0  0  0  0  0  0  0  0
  140.3110   68.8380  228.2560 C   0  0  0  0  0  0  0  0  0  0  0  0
  140.9770   70.0480  228.3350 C   0  0  0  0  0  0  0  0  0  0  0  0
  141.0250   70.8090  227.1660 C   0  0  0  0  0  0  0  0  0  0  0  0
  140.4430   70.3820  225.9960 C   0  0  0  0  0  0  0  0  0  0  0  0
  140.5020   71.1390  224.8700 N   0  0  0  0  0  0  0  0  0  0  0  0
  139.2880   73.3770  223.4250 H   0  0  0  0  0  0  0  0  0  0  0  0
  139.9138   72.9633  220.4717 H   0  0  0  0  0  0  0  0  0  0  0  0
  138.7680   74.2051  221.1333 H   0  0  0  0  0  0  0  0  0  0  0  0
  141.7955   73.4269  218.5577 H   0  0  0  0  0  0  0  0  0  0  0  0
  140.7651   74.8393  218.5124 H   0  0  0  0  0  0  0  0  0  0  0  0
  143.5497   74.7006  217.7302 H   0  0  0  0  0  0  0  0  0  0  0  0
  142.6246   76.1949  217.8762 H   0  0  0  0  0  0  0  0  0  0  0  0
  144.7912   75.6106  219.5086 H   0  0  0  0  0  0  0  0  0  0  0  0
  143.5013   76.6207  220.0939 H   0  0  0  0  0  0  0  0  0  0  0  0
  143.6447   74.5745  221.6339 H   0  0  0  0  0  0  0  0  0  0  0  0
  145.4721   73.8675  219.0377 H   0  0  0  0  0  0  0  0  0  0  0  0
  146.1923   71.6060  218.3508 H   0  0  0  0  0  0  0  0  0  0  0  0
  146.8384   68.9575  218.9684 H   0  0  0  0  0  0  0  0  0  0  0  0
  145.8280   68.3327  220.4317 H   0  0  0  0  0  0  0  0  0  0  0  0
  142.9006   69.9238  220.4837 H   0  0  0  0  0  0  0  0  0  0  0  0
  142.1883   72.1482  221.1595 H   0  0  0  0  0  0  0  0  0  0  0  0
  138.8148   69.2129  222.6919 H   0  0  0  0  0  0  0  0  0  0  0  0
  138.6868   67.7962  224.7293 H   0  0  0  0  0  0  0  0  0  0  0  0
  139.1976   67.4222  227.0610 H   0  0  0  0  0  0  0  0  0  0  0  0
  140.2496   68.2073  229.1552 H   0  0  0  0  0  0  0  0  0  0  0  0
  141.4440   70.3921  229.2696 H   0  0  0  0  0  0  0  0  0  0  0  0
  141.5437   71.7789  227.1813 H   0  0  0  0  0  0  0  0  0  0  0  0
  1  2  2  0
  2  3  1  0
  3  4  1  0
  4  5  1  0
  5  6  2  0
  5  7  1  0
  7  8  1  0
  8  9  1  0
  9 10  1  0
 10 11  1  0
 11 12  1  0
 12 13  2  0
 13 14  1  0
 14 15  2  0
 15 16  1  0
 16 17  1  0
 17 18  1  0
 18 19  1  0
 18 20  1  0
 18 21  1  0
 15 22  1  0
 22 23  2  0
  2 24  1  0
 24 25  2  0
 25 26  1  0
 26 27  2  0
 27 28  1  0
 28 29  2  0
 29 30  1  0
 30 31  2  0
 31 32  1  0
 32 33  2  0
 11  7  1  0
 23 12  1  0
 33 24  1  0
 32 27  1  0
  3 34  1  0
  4 35  1  0
  4 36  1  0
  8 37  1  0
  8 38  1  0
  9 39  1  0
  9 40  1  0
 10 41  1  0
 10 42  1  0
 11 43  1  1
 13 44  1  0
 14 45  1  0
 17 46  1  0
 17 47  1  0
 22 48  1  0
 23 49  1  0
 25 50  1  0
 26 51  1  0
 28 52  1  0
 29 53  1  0
 30 54  1  0
 31 55  1  0
M  END
>  <smiles>  (23) 
O=C(NCC(=O)N1CCCC1c1ccc(OCC(F)(F)F)cc1)c1ccc2ccccc2n1

>  <score_type>  (23) 
oracle

>  <origin>  (23) 
autodockgpu

>  <m_score__min__energy>  (23) 
-8.0399999999999991

>  <m_primary>  (23) 
energy

>  <rmsd>  (23) 
2.165554075596209

>  <m_score__min__rmsd>  (23) 
2.165554075596209

>  <meeko>  (23) 
{"free_energy": -7.67, "intermolecular_energy": -10.06, "internal_energy": -1.69, "cluster_size": 10, "cluster_id": 1, "rank_in_cluster": 4}

>  <energy>  (23) 
-7.56

>  <cluster_rmsd>  (23) 
1.31

>  <cluster>  (23) 
2

$$$$

     RDKit          3D

 55 58  0  0  0  0  0  0  0  0999 V2000
  138.6820   75.3980  221.9470 O   0  0  0  0  0  0  0  0  0  0  0  0
  139.8570   75.8510  222.0910 C   0  0  0  0  0  0  0  0  0  0  0  0
  140.9210   74.9210  221.8440 N   0  0  0  0  0  0  0  0  0  0  0  0
  140.5530   73.5720  221.4600 C   0  0  0  0  0  0  0  0  0  0  0  0
  141.7170   72.8020  220.9640 C   0  0  0  0  0  0  0  0  0  0  0  0
  141.8470   71.5630  221.1140 O   0  0  0  0  0  0  0  0  0  0  0  0
  142.7330   73.5260  220.2820 N   0  0  0  0  0  0  0  0  0  0  0  0
  143.8750   74.2430  220.8250 C   0  0  0  0  0  0  0  0  0  0  0  0
  144.9770   73.9470  219.8020 C   0  0  0  0  0  0  0  0  0  0  0  0
  144.2750   73.2120  218.6710 C   0  0  0  0  0  0  0  0  0  0  0  0
  142.8550   73.7170  218.8240 C   0  0  2  0  0  0  0  0  0  0  0  0
  142.7160   75.1640  218.5230 C   0  0  0  0  0  0  0  0  0  0  0  0
  143.5110   75.8340  217.6320 C   0  0  0  0  0  0  0  0  0  0  0  0
  143.3150   77.2000  217.4030 C   0  0  0  0  0  0  0  0  0  0  0  0
  142.3500   77.9330  218.0310 C   0  0  0  0  0  0  0  0  0  0  0  0
  142.0540   79.2330  217.9030 O   0  0  0  0  0  0  0  0  0  0  0  0
  142.2340   80.3130  218.6850 C   0  0  0  0  0  0  0  0  0  0  0  0
  141.2330   80.6680  219.7310 C   0  0  0  0  0  0  0  0  0  0  0  0
  140.3400   81.5650  219.1040 F   0  0  0  0  0  0  0  0  0  0  0  0
  140.4470   79.6790  220.2200 F   0  0  0  0  0  0  0  0  0  0  0  0
  141.7930   81.4250  220.7550 F   0  0  0  0  0  0  0  0  0  0  0  0
  141.5520   77.2040  218.9430 C   0  0  0  0  0  0  0  0  0  0  0  0
  141.7330   75.8720  219.1740 C   0  0  0  0  0  0  0  0  0  0  0  0
  140.1350   77.2240  222.4810 C   0  0  0  0  0  0  0  0  0  0  0  0
  139.0510   78.0410  222.7210 C   0  0  0  0  0  0  0  0  0  0  0  0
  139.3010   79.3410  223.0900 C   0  0  0  0  0  0  0  0  0  0  0  0
  140.5900   79.8090  223.2150 C   0  0  0  0  0  0  0  0  0  0  0  0
  140.8390   81.1190  223.5870 C   0  0  0  0  0  0  0  0  0  0  0  0
  142.1500   81.5550  223.7030 C   0  0  0  0  0  0  0  0  0  0  0  0
  143.2320   80.7270  223.4590 C   0  0  0  0  0  0  0  0  0  0  0  0
  142.9380   79.4150  223.0870 C   0  0  0  0  0  0  0  0  0  0  0  0
  141.6450   78.9640  222.9670 C   0  0  0  0  0  0  0  0  0  0  0  0
  141.3830   77.6820  222.6040 N   0  0  0  0  0  0  0  0  0  0  0  0
  141.9170   75.2270  221.9440 H   0  0  0  0  0  0  0  0  0  0  0  0
  140.1317   73.0555  222.3351 H   0  0  0  0  0  0  0  0  0  0  0  0
  139.8161   73.6383  220.6460 H   0  0  0  0  0  0  0  0  0  0  0  0
  143.6721   75.3223  220.8882 H   0  0  0  0  0  0  0  0  0  0  0  0
  144.1362   73.9363  221.8486 H   0  0  0  0  0  0  0  0  0  0  0  0
  145.4261   74.8820  219.4358 H   0  0  0  0  0  0  0  0  0  0  0  0
  145.7956   73.3538  220.2356 H   0  0  0  0  0  0  0  0  0  0  0  0
  144.6957   73.4842  217.6918 H   0  0  0  0  0  0  0  0  0  0  0  0
  144.3709   72.1172  218.7177 H   0  0  0  0  0  0  0  0  0  0  0  0
  142.1235   73.2249  218.1662 H   0  0  0  0  0  0  0  0  0  0  0  0
  144.3062   75.2965  217.0947 H   0  0  0  0  0  0  0  0  0  0  0  0
  143.9710   77.7085  216.6811 H   0  0  0  0  0  0  0  0  0  0  0  0
  143.1935   80.1696  219.2035 H   0  0  0  0  0  0  0  0  0  0  0  0
  142.1535   81.1482  217.9737 H   0  0  0  0  0  0  0  0  0  0  0  0
  140.7546   77.7315  219.4870 H   0  0  0  0  0  0  0  0  0  0  0  0
  141.0813   75.3550  219.8937 H   0  0  0  0  0  0  0  0  0  0  0  0
  138.0219   77.6656  222.6207 H   0  0  0  0  0  0  0  0  0  0  0  0
  138.4577   80.0187  223.2887 H   0  0  0  0  0  0  0  0  0  0  0  0
  140.0049   81.8072  223.7886 H   0  0  0  0  0  0  0  0  0  0  0  0
  142.3372   82.5975  223.9999 H   0  0  0  0  0  0  0  0  0  0  0  0
  144.2681   81.0843  223.5533 H   0  0  0  0  0  0  0  0  0  0  0  0
  143.7661   78.7202  222.8835 H   0  0  0  0  0  0  0  0  0  0  0  0
  1  2  2  0
  2  3  1  0
  3  4  1  0
  4  5  1  0
  5  6  2  0
  5  7  1  0
  7  8  1  0
  8  9  1  0
  9 10  1  0
 10 11  1  0
 11 12  1  0
 12 13  2  0
 13 14  1  0
 14 15  2  0
 15 16  1  0
 16 17  1  0
 17 18  1  0
 18 19  1  0
 18 20  1  0
 18 21  1  0
 15 22  1  0
 22 23  2  0
  2 24  1  0
 24 25  2  0
 25 26  1  0
 26 27  2  0
 27 28  1  0
 28 29  2  0
 29 30  1  0
 30 31  2  0
 31 32  1  0
 32 33  2  0
 11  7  1  0
 23 12  1  0
 33 24  1  0
 32 27  1  0
  3 34  1  0
  4 35  1  0
  4 36  1  0
  8 37  1  0
  8 38  1  0
  9 39  1  0
  9 40  1  0
 10 41  1  0
 10 42  1  0
 11 43  1  6
 13 44  1  0
 14 45  1  0
 17 46  1  0
 17 47  1  0
 22 48  1  0
 23 49  1  0
 25 50  1  0
 26 51  1  0
 28 52  1  0
 29 53  1  0
 30 54  1  0
 31 55  1  0
M  END
>  <smiles>  (24) 
O=C(NCC(=O)N1CCCC1c1ccc(OCC(F)(F)F)cc1)c1ccc2ccccc2n1

>  <score_type>  (24) 
oracle

>  <origin>  (24) 
autodockgpu

>  <m_score__min__energy>  (24) 
-8.0399999999999991

>  <m_primary>  (24) 
energy

>  <rmsd>  (24) 
7.696140162500725

>  <m_score__min__rmsd>  (24) 
7.696140162500725

>  <meeko>  (24) 
{"free_energy": -5.99, "intermolecular_energy": -8.37, "internal_energy": -2.8, "cluster_size": 6, "cluster_id": 7, "rank_in_cluster": 2}

>  <energy>  (24) 
-7.54

>  <cluster_rmsd>  (24) 
0.84

>  <cluster>  (24) 
2

$$$$

     RDKit          3D

 55 58  0  0  0  0  0  0  0  0999 V2000
  140.6960   73.0050  222.6350 O   0  0  0  0  0  0  0  0  0  0  0  0
  139.9150   72.0890  223.0300 C   0  0  0  0  0  0  0  0  0  0  0  0
  138.7670   71.8460  222.2060 N   0  0  0  0  0  0  0  0  0  0  0  0
  138.6140   72.6630  221.0170 C   0  0  0  0  0  0  0  0  0  0  0  0
  137.3150   73.3740  221.0000 C   0  0  0  0  0  0  0  0  0  0  0  0
  136.2060   72.7970  220.9030 O   0  0  0  0  0  0  0  0  0  0  0  0
  137.3490   74.7930  221.0990 N   0  0  0  0  0  0  0  0  0  0  0  0
  137.3480   75.7900  220.0420 C   0  0  0  0  0  0  0  0  0  0  0  0
  136.4680   76.9010  220.6260 C   0  0  0  0  0  0  0  0  0  0  0  0
  136.1960   76.4720  222.0600 C   0  0  0  0  0  0  0  0  0  0  0  0
  137.3960   75.5910  222.3390 C   0  0  2  0  0  0  0  0  0  0  0  0
  138.6760   76.3420  222.3710 C   0  0  0  0  0  0  0  0  0  0  0  0
  139.8920   75.7860  222.0730 C   0  0  0  0  0  0  0  0  0  0  0  0
  141.0530   76.5640  222.1260 C   0  0  0  0  0  0  0  0  0  0  0  0
  141.0540   77.8850  222.4670 C   0  0  0  0  0  0  0  0  0  0  0  0
  142.0820   78.7390  222.5520 O   0  0  0  0  0  0  0  0  0  0  0  0
  142.4770   79.6350  223.4740 C   0  0  0  0  0  0  0  0  0  0  0  0
  142.0150   81.0510  223.4060 C   0  0  0  0  0  0  0  0  0  0  0  0
  140.6490   81.0150  223.7670 F   0  0  0  0  0  0  0  0  0  0  0  0
  142.5770   81.9440  224.2560 F   0  0  0  0  0  0  0  0  0  0  0  0
  141.9970   81.5330  222.1010 F   0  0  0  0  0  0  0  0  0  0  0  0
  139.7790   78.4200  222.7670 C   0  0  0  0  0  0  0  0  0  0  0  0
  138.6400   77.6730  222.7190 C   0  0  0  0  0  0  0  0  0  0  0  0
  140.1470   71.3170  224.2400 C   0  0  0  0  0  0  0  0  0  0  0  0
  140.9120   71.9060  225.2250 C   0  0  0  0  0  0  0  0  0  0  0  0
  141.1380   71.1860  226.3740 C   0  0  0  0  0  0  0  0  0  0  0  0
  140.6190   69.9200  226.5340 C   0  0  0  0  0  0  0  0  0  0  0  0
  140.8490   69.1970  227.6910 C   0  0  0  0  0  0  0  0  0  0  0  0
  140.3110   67.9260  227.8170 C   0  0  0  0  0  0  0  0  0  0  0  0
  139.5460   67.3420  226.8220 C   0  0  0  0  0  0  0  0  0  0  0  0
  139.3370   68.1040  225.6710 C   0  0  0  0  0  0  0  0  0  0  0  0
  139.8630   69.3660  225.5290 C   0  0  0  0  0  0  0  0  0  0  0  0
  139.6460   70.0890  224.4000 N   0  0  0  0  0  0  0  0  0  0  0  0
  138.0790   71.1030  222.4720 H   0  0  0  0  0  0  0  0  0  0  0  0
  139.4259   73.4046  220.9880 H   0  0  0  0  0  0  0  0  0  0  0  0
  138.6517   71.9999  220.1401 H   0  0  0  0  0  0  0  0  0  0  0  0
  138.3659   76.1551  219.8405 H   0  0  0  0  0  0  0  0  0  0  0  0
  136.9817   75.4044  219.0791 H   0  0  0  0  0  0  0  0  0  0  0  0
  136.9969   77.8653  220.6042 H   0  0  0  0  0  0  0  0  0  0  0  0
  135.5399   77.0389  220.0519 H   0  0  0  0  0  0  0  0  0  0  0  0
  136.1643   77.3363  222.7397 H   0  0  0  0  0  0  0  0  0  0  0  0
  135.2269   75.9721  222.2045 H   0  0  0  0  0  0  0  0  0  0  0  0
  137.3593   75.0649  223.3043 H   0  0  0  0  0  0  0  0  0  0  0  0
  139.9555   74.7246  221.7912 H   0  0  0  0  0  0  0  0  0  0  0  0
  142.0133   76.0870  221.8805 H   0  0  0  0  0  0  0  0  0  0  0  0
  142.1527   79.2452  224.4501 H   0  0  0  0  0  0  0  0  0  0  0  0
  143.5575   79.7202  223.2860 H   0  0  0  0  0  0  0  0  0  0  0  0
  139.7041   79.4803  223.0501 H   0  0  0  0  0  0  0  0  0  0  0  0
  137.6753   78.1421  222.9626 H   0  0  0  0  0  0  0  0  0  0  0  0
  141.3268   72.9166  225.0957 H   0  0  0  0  0  0  0  0  0  0  0  0
  141.7433   71.6281  227.1790 H   0  0  0  0  0  0  0  0  0  0  0  0
  141.4533   69.6270  228.5034 H   0  0  0  0  0  0  0  0  0  0  0  0
  140.4988   67.3605  228.7416 H   0  0  0  0  0  0  0  0  0  0  0  0
  139.1253   66.3316  226.9323 H   0  0  0  0  0  0  0  0  0  0  0  0
  138.7337   67.6821  224.8537 H   0  0  0  0  0  0  0  0  0  0  0  0
  1  2  2  0
  2  3  1  0
  3  4  1  0
  4  5  1  0
  5  6  2  0
  5  7  1  0
  7  8  1  0
  8  9  1  0
  9 10  1  0
 10 11  1  0
 11 12  1  0
 12 13  2  0
 13 14  1  0
 14 15  2  0
 15 16  1  0
 16 17  1  0
 17 18  1  0
 18 19  1  0
 18 20  1  0
 18 21  1  0
 15 22  1  0
 22 23  2  0
  2 24  1  0
 24 25  2  0
 25 26  1  0
 26 27  2  0
 27 28  1  0
 28 29  2  0
 29 30  1  0
 30 31  2  0
 31 32  1  0
 32 33  2  0
 11  7  1  0
 23 12  1  0
 33 24  1  0
 32 27  1  0
  3 34  1  0
  4 35  1  0
  4 36  1  0
  8 37  1  0
  8 38  1  0
  9 39  1  0
  9 40  1  0
 10 41  1  0
 10 42  1  0
 11 43  1  1
 13 44  1  0
 14 45  1  0
 17 46  1  0
 17 47  1  0
 22 48  1  0
 23 49  1  0
 25 50  1  0
 26 51  1  0
 28 52  1  0
 29 53  1  0
 30 54  1  0
 31 55  1  0
M  END
>  <smiles>  (25) 
O=C(NCC(=O)N1CCCC1c1ccc(OCC(F)(F)F)cc1)c1ccc2ccccc2n1

>  <score_type>  (25) 
oracle

>  <origin>  (25) 
autodockgpu

>  <m_score__min__energy>  (25) 
-8.0399999999999991

>  <m_primary>  (25) 
energy

>  <rmsd>  (25) 
3.802060694745684

>  <m_score__min__rmsd>  (25) 
3.802060694745684

>  <meeko>  (25) 
{"free_energy": -7.06, "intermolecular_energy": -9.45, "internal_energy": -1.82, "cluster_size": 4, "cluster_id": 3, "rank_in_cluster": 4}

>  <energy>  (25) 
-7.43

>  <cluster_rmsd>  (25) 
1.99

>  <cluster>  (25) 
2

$$$$

     RDKit          3D

 55 58  0  0  0  0  0  0  0  0999 V2000
  138.0130   71.9310  222.9560 O   0  0  0  0  0  0  0  0  0  0  0  0
  139.1240   71.3380  223.0890 C   0  0  0  0  0  0  0  0  0  0  0  0
  140.1110   71.6250  222.0880 N   0  0  0  0  0  0  0  0  0  0  0  0
  139.7440   72.5520  221.0350 C   0  0  0  0  0  0  0  0  0  0  0  0
  140.3880   73.8740  221.2140 C   0  0  0  0  0  0  0  0  0  0  0  0
  139.9970   74.7320  222.0410 O   0  0  0  0  0  0  0  0  0  0  0  0
  141.5110   74.1660  220.3920 N   0  0  0  0  0  0  0  0  0  0  0  0
  141.6120   74.1790  218.9420 C   0  0  0  0  0  0  0  0  0  0  0  0
  142.5360   75.3740  218.6780 C   0  0  0  0  0  0  0  0  0  0  0  0
  143.0050   75.8170  220.0550 C   0  0  0  0  0  0  0  0  0  0  0  0
  142.8670   74.5320  220.8440 C   0  0  2  0  0  0  0  0  0  0  0  0
  143.8130   73.4750  220.4080 C   0  0  0  0  0  0  0  0  0  0  0  0
  145.0980   73.7250  220.0050 C   0  0  0  0  0  0  0  0  0  0  0  0
  145.9280   72.6710  219.6080 C   0  0  0  0  0  0  0  0  0  0  0  0
  145.5280   71.3670  219.5970 C   0  0  0  0  0  0  0  0  0  0  0  0
  146.2150   70.2720  219.2490 O   0  0  0  0  0  0  0  0  0  0  0  0
  145.9060   69.1520  218.5690 C   0  0  0  0  0  0  0  0  0  0  0  0
  145.9240   67.8240  219.2460 C   0  0  0  0  0  0  0  0  0  0  0  0
  144.5920   67.5960  219.6570 F   0  0  0  0  0  0  0  0  0  0  0  0
  146.2500   66.7380  218.5040 F   0  0  0  0  0  0  0  0  0  0  0  0
  146.6360   67.8550  220.4410 F   0  0  0  0  0  0  0  0  0  0  0  0
  144.1960   71.1520  220.0200 C   0  0  0  0  0  0  0  0  0  0  0  0
  143.3760   72.1700  220.4090 C   0  0  0  0  0  0  0  0  0  0  0  0
  139.4070   70.4200  224.1810 C   0  0  0  0  0  0  0  0  0  0  0  0
  138.9600   69.1230  224.0440 C   0  0  0  0  0  0  0  0  0  0  0  0
  139.2220   68.2460  225.0700 C   0  0  0  0  0  0  0  0  0  0  0  0
  139.9060   68.6500  226.1930 C   0  0  0  0  0  0  0  0  0  0  0  0
  140.1690   67.7660  227.2250 C   0  0  0  0  0  0  0  0  0  0  0  0
  140.8600   68.2080  228.3420 C   0  0  0  0  0  0  0  0  0  0  0  0
  141.3050   69.5120  228.4700 C   0  0  0  0  0  0  0  0  0  0  0  0
  141.0210   70.3730  227.4090 C   0  0  0  0  0  0  0  0  0  0  0  0
  140.3360   69.9520  226.2940 C   0  0  0  0  0  0  0  0  0  0  0  0
  140.0710   70.8080  225.2740 N   0  0  0  0  0  0  0  0  0  0  0  0
  141.0530   71.1700  222.1360 H   0  0  0  0  0  0  0  0  0  0  0  0
  140.0560   72.1325  220.0672 H   0  0  0  0  0  0  0  0  0  0  0  0
  138.6541   72.6958  221.0719 H   0  0  0  0  0  0  0  0  0  0  0  0
  142.0552   73.2447  218.5671 H   0  0  0  0  0  0  0  0  0  0  0  0
  140.6379   74.2613  218.4377 H   0  0  0  0  0  0  0  0  0  0  0  0
  143.3917   75.0718  218.0563 H   0  0  0  0  0  0  0  0  0  0  0  0
  142.0236   76.1819  218.1351 H   0  0  0  0  0  0  0  0  0  0  0  0
  144.0482   76.1653  220.0322 H   0  0  0  0  0  0  0  0  0  0  0  0
  142.4404   76.6640  220.4719 H   0  0  0  0  0  0  0  0  0  0  0  0
  143.0503   74.6395  221.9233 H   0  0  0  0  0  0  0  0  0  0  0  0
  145.4784   74.7571  219.9935 H   0  0  0  0  0  0  0  0  0  0  0  0
  146.9542   72.9056  219.2889 H   0  0  0  0  0  0  0  0  0  0  0  0
  144.8874   69.2921  218.1781 H   0  0  0  0  0  0  0  0  0  0  0  0
  146.7285   69.0697  217.8433 H   0  0  0  0  0  0  0  0  0  0  0  0
  143.8060   70.1236  220.0360 H   0  0  0  0  0  0  0  0  0  0  0  0
  142.3481   71.9442  220.7289 H   0  0  0  0  0  0  0  0  0  0  0  0
  138.4130   68.8012  223.1455 H   0  0  0  0  0  0  0  0  0  0  0  0
  138.8789   67.2038  224.9915 H   0  0  0  0  0  0  0  0  0  0  0  0
  139.8322   66.7209  227.1591 H   0  0  0  0  0  0  0  0  0  0  0  0
  141.0620   67.4966  229.1563 H   0  0  0  0  0  0  0  0  0  0  0  0
  141.8535   69.8519  229.3608 H   0  0  0  0  0  0  0  0  0  0  0  0
  141.3552   71.4194  227.4666 H   0  0  0  0  0  0  0  0  0  0  0  0
  1  2  2  0
  2  3  1  0
  3  4  1  0
  4  5  1  0
  5  6  2  0
  5  7  1  0
  7  8  1  0
  8  9  1  0
  9 10  1  0
 10 11  1  0
 11 12  1  0
 12 13  2  0
 13 14  1  0
 14 15  2  0
 15 16  1  0
 16 17  1  0
 17 18  1  0
 18 19  1  0
 18 20  1  0
 18 21  1  0
 15 22  1  0
 22 23  2  0
  2 24  1  0
 24 25  2  0
 25 26  1  0
 26 27  2  0
 27 28  1  0
 28 29  2  0
 29 30  1  0
 30 31  2  0
 31 32  1  0
 32 33  2  0
 11  7  1  0
 23 12  1  0
 33 24  1  0
 32 27  1  0
  3 34  1  0
  4 35  1  0
  4 36  1  0
  8 37  1  0
  8 38  1  0
  9 39  1  0
  9 40  1  0
 10 41  1  0
 10 42  1  0
 11 43  1  1
 13 44  1  0
 14 45  1  0
 17 46  1  0
 17 47  1  0
 22 48  1  0
 23 49  1  0
 25 50  1  0
 26 51  1  0
 28 52  1  0
 29 53  1  0
 30 54  1  0
 31 55  1  0
M  END
>  <smiles>  (26) 
O=C(NCC(=O)N1CCCC1c1ccc(OCC(F)(F)F)cc1)c1ccc2ccccc2n1

>  <score_type>  (26) 
oracle

>  <origin>  (26) 
autodockgpu

>  <m_score__min__energy>  (26) 
-8.0399999999999991

>  <m_primary>  (26) 
energy

>  <rmsd>  (26) 
2.230936418324609

>  <m_score__min__rmsd>  (26) 
2.230936418324609

>  <meeko>  (26) 
{"free_energy": -7.78, "intermolecular_energy": -10.17, "internal_energy": -1.35, "cluster_size": 10, "cluster_id": 1, "rank_in_cluster": 2}

>  <energy>  (26) 
-7.42

>  <cluster_rmsd>  (26) 
1.18

>  <cluster>  (26) 
2

$$$$

     RDKit          3D

 55 58  0  0  0  0  0  0  0  0999 V2000
  141.4380   72.7970  222.1320 O   0  0  0  0  0  0  0  0  0  0  0  0
  140.3180   72.6050  222.6920 C   0  0  0  0  0  0  0  0  0  0  0  0
  139.2720   73.5180  222.3300 N   0  0  0  0  0  0  0  0  0  0  0  0
  139.5960   74.5570  221.3720 C   0  0  0  0  0  0  0  0  0  0  0  0
  140.0470   73.9950  220.0780 C   0  0  0  0  0  0  0  0  0  0  0  0
  139.3660   73.1950  219.3920 O   0  0  0  0  0  0  0  0  0  0  0  0
  141.3270   74.3960  219.6060 N   0  0  0  0  0  0  0  0  0  0  0  0
  141.7870   74.5820  218.2400 C   0  0  0  0  0  0  0  0  0  0  0  0
  142.6960   75.8110  218.3530 C   0  0  0  0  0  0  0  0  0  0  0  0
  142.7860   76.0950  219.8450 C   0  0  0  0  0  0  0  0  0  0  0  0
  142.5090   74.7240  220.4260 C   0  0  2  0  0  0  0  0  0  0  0  0
  143.5780   73.7380  220.1290 C   0  0  0  0  0  0  0  0  0  0  0  0
  144.9160   74.0200  220.2110 C   0  0  0  0  0  0  0  0  0  0  0  0
  145.8630   73.0340  219.9150 C   0  0  0  0  0  0  0  0  0  0  0  0
  145.5290   71.7660  219.5380 C   0  0  0  0  0  0  0  0  0  0  0  0
  146.3250   70.7340  219.2340 O   0  0  0  0  0  0  0  0  0  0  0  0
  146.1530   69.5940  218.5390 C   0  0  0  0  0  0  0  0  0  0  0  0
  145.8400   68.3170  219.2410 C   0  0  0  0  0  0  0  0  0  0  0  0
  144.5710   68.5160  219.8290 F   0  0  0  0  0  0  0  0  0  0  0  0
  145.7040   67.1970  218.4900 F   0  0  0  0  0  0  0  0  0  0  0  0
  146.6760   68.1000  220.3310 F   0  0  0  0  0  0  0  0  0  0  0  0
  144.1380   71.5160  219.4660 C   0  0  0  0  0  0  0  0  0  0  0  0
  143.2060   72.4690  219.7510 C   0  0  0  0  0  0  0  0  0  0  0  0
  140.0810   71.5320  223.6450 C   0  0  0  0  0  0  0  0  0  0  0  0
  139.2440   70.5110  223.2480 C   0  0  0  0  0  0  0  0  0  0  0  0
  139.0130   69.4910  224.1400 C   0  0  0  0  0  0  0  0  0  0  0  0
  139.5980   69.4910  225.3860 C   0  0  0  0  0  0  0  0  0  0  0  0
  139.3630   68.4630  226.2830 C   0  0  0  0  0  0  0  0  0  0  0  0
  139.9690   68.4970  227.5300 C   0  0  0  0  0  0  0  0  0  0  0  0
  140.8070   69.5260  227.9200 C   0  0  0  0  0  0  0  0  0  0  0  0
  141.0170   70.5430  226.9880 C   0  0  0  0  0  0  0  0  0  0  0  0
  140.4260   70.5270  225.7470 C   0  0  0  0  0  0  0  0  0  0  0  0
  140.6460   71.5280  224.8560 N   0  0  0  0  0  0  0  0  0  0  0  0
  138.3200   73.4180  222.7540 H   0  0  0  0  0  0  0  0  0  0  0  0
  138.7011   75.1730  221.1994 H   0  0  0  0  0  0  0  0  0  0  0  0
  140.4181   75.1586  221.7870 H   0  0  0  0  0  0  0  0  0  0  0  0
  142.3490   73.7043  217.8881 H   0  0  0  0  0  0  0  0  0  0  0  0
  140.9673   74.7111  217.5179 H   0  0  0  0  0  0  0  0  0  0  0  0
  143.6921   75.5951  217.9393 H   0  0  0  0  0  0  0  0  0  0  0  0
  142.3023   76.6705  217.7907 H   0  0  0  0  0  0  0  0  0  0  0  0
  143.7859   76.4569  220.1263 H   0  0  0  0  0  0  0  0  0  0  0  0
  142.0998   76.8798  220.1961 H   0  0  0  0  0  0  0  0  0  0  0  0
  142.4109   74.7061  221.5215 H   0  0  0  0  0  0  0  0  0  0  0  0
  145.2469   75.0253  220.5107 H   0  0  0  0  0  0  0  0  0  0  0  0
  146.9293   73.2937  219.9898 H   0  0  0  0  0  0  0  0  0  0  0  0
  145.3279   69.7763  217.8348 H   0  0  0  0  0  0  0  0  0  0  0  0
  147.1535   69.4067  218.1218 H   0  0  0  0  0  0  0  0  0  0  0  0
  143.7956   70.5139  219.1685 H   0  0  0  0  0  0  0  0  0  0  0  0
  142.1374   72.2187  219.6774 H   0  0  0  0  0  0  0  0  0  0  0  0
  138.7772   70.5126  222.2520 H   0  0  0  0  0  0  0  0  0  0  0  0
  138.3500   68.6614  223.8535 H   0  0  0  0  0  0  0  0  0  0  0  0
  138.7021   67.6274  226.0093 H   0  0  0  0  0  0  0  0  0  0  0  0
  139.7760   67.6751  228.2351 H   0  0  0  0  0  0  0  0  0  0  0  0
  141.2825   69.5418  228.9118 H   0  0  0  0  0  0  0  0  0  0  0  0
  141.6754   71.3830  227.2544 H   0  0  0  0  0  0  0  0  0  0  0  0
  1  2  2  0
  2  3  1  0
  3  4  1  0
  4  5  1  0
  5  6  2  0
  5  7  1  0
  7  8  1  0
  8  9  1  0
  9 10  1  0
 10 11  1  0
 11 12  1  0
 12 13  2  0
 13 14  1  0
 14 15  2  0
 15 16  1  0
 16 17  1  0
 17 18  1  0
 18 19  1  0
 18 20  1  0
 18 21  1  0
 15 22  1  0
 22 23  2  0
  2 24  1  0
 24 25  2  0
 25 26  1  0
 26 27  2  0
 27 28  1  0
 28 29  2  0
 29 30  1  0
 30 31  2  0
 31 32  1  0
 32 33  2  0
 11  7  1  0
 23 12  1  0
 33 24  1  0
 32 27  1  0
  3 34  1  0
  4 35  1  0
  4 36  1  0
  8 37  1  0
  8 38  1  0
  9 39  1  0
  9 40  1  0
 10 41  1  0
 10 42  1  0
 11 43  1  1
 13 44  1  0
 14 45  1  0
 17 46  1  0
 17 47  1  0
 22 48  1  0
 23 49  1  0
 25 50  1  0
 26 51  1  0
 28 52  1  0
 29 53  1  0
 30 54  1  0
 31 55  1  0
M  END
>  <smiles>  (27) 
O=C(NCC(=O)N1CCCC1c1ccc(OCC(F)(F)F)cc1)c1ccc2ccccc2n1

>  <score_type>  (27) 
oracle

>  <origin>  (27) 
autodockgpu

>  <m_score__min__energy>  (27) 
-8.0399999999999991

>  <m_primary>  (27) 
energy

>  <rmsd>  (27) 
2.253283382191539

>  <m_score__min__rmsd>  (27) 
2.253283382191539

>  <meeko>  (27) 
{"free_energy": -7.62, "intermolecular_energy": -10.0, "internal_energy": -1.45, "cluster_size": 10, "cluster_id": 1, "rank_in_cluster": 5}

>  <energy>  (27) 
-7.3

>  <cluster_rmsd>  (27) 
1.58

>  <cluster>  (27) 
2

$$$$

     RDKit          3D

 55 58  0  0  0  0  0  0  0  0999 V2000
  140.2140   73.3760  222.3220 O   0  0  0  0  0  0  0  0  0  0  0  0
  140.4590   72.1360  222.4170 C   0  0  0  0  0  0  0  0  0  0  0  0
  140.9620   71.5040  221.2320 N   0  0  0  0  0  0  0  0  0  0  0  0
  141.1380   72.3350  220.0560 C   0  0  0  0  0  0  0  0  0  0  0  0
  142.4930   72.9290  219.9980 C   0  0  0  0  0  0  0  0  0  0  0  0
  143.5460   72.2860  220.2280 O   0  0  0  0  0  0  0  0  0  0  0  0
  142.5850   74.3080  219.6620 N   0  0  0  0  0  0  0  0  0  0  0  0
  143.7610   75.1590  219.5770 C   0  0  0  0  0  0  0  0  0  0  0  0
  143.4490   76.0470  218.3670 C   0  0  0  0  0  0  0  0  0  0  0  0
  142.0160   75.7060  217.9910 C   0  0  0  0  0  0  0  0  0  0  0  0
  141.4700   75.2090  219.3130 C   0  0  2  0  0  0  0  0  0  0  0  0
  141.3820   76.2740  220.3440 C   0  0  0  0  0  0  0  0  0  0  0  0
  141.8030   77.5620  220.1440 C   0  0  0  0  0  0  0  0  0  0  0  0
  141.6850   78.5070  221.1680 C   0  0  0  0  0  0  0  0  0  0  0  0
  141.1580   78.2200  222.3940 C   0  0  0  0  0  0  0  0  0  0  0  0
  140.9840   79.0230  223.4510 O   0  0  0  0  0  0  0  0  0  0  0  0
  141.8040   79.8070  224.1750 C   0  0  0  0  0  0  0  0  0  0  0  0
  142.5150   80.9530  223.5390 C   0  0  0  0  0  0  0  0  0  0  0  0
  143.8460   80.5150  223.3620 F   0  0  0  0  0  0  0  0  0  0  0  0
  142.1100   81.3470  222.3070 F   0  0  0  0  0  0  0  0  0  0  0  0
  142.6390   82.0360  224.4040 F   0  0  0  0  0  0  0  0  0  0  0  0
  140.7360   76.8810  222.5590 C   0  0  0  0  0  0  0  0  0  0  0  0
  140.8460   75.9500  221.5690 C   0  0  0  0  0  0  0  0  0  0  0  0
  140.2510   71.3790  223.6410 C   0  0  0  0  0  0  0  0  0  0  0  0
  139.5340   70.2050  223.5410 C   0  0  0  0  0  0  0  0  0  0  0  0
  139.3320   69.4800  224.6910 C   0  0  0  0  0  0  0  0  0  0  0  0
  139.8290   69.9120  225.9000 C   0  0  0  0  0  0  0  0  0  0  0  0
  139.6240   69.1810  227.0570 C   0  0  0  0  0  0  0  0  0  0  0  0
  140.1380   69.6470  228.2570 C   0  0  0  0  0  0  0  0  0  0  0  0
  140.8570   70.8260  228.3480 C   0  0  0  0  0  0  0  0  0  0  0  0
  141.0420   71.5340  227.1590 C   0  0  0  0  0  0  0  0  0  0  0  0
  140.5390   71.0880  225.9610 C   0  0  0  0  0  0  0  0  0  0  0  0
  140.7320   71.7940  224.8170 N   0  0  0  0  0  0  0  0  0  0  0  0
  141.1860   70.4820  221.2380 H   0  0  0  0  0  0  0  0  0  0  0  0
  140.9810   71.7189  219.1584 H   0  0  0  0  0  0  0  0  0  0  0  0
  140.4075   73.1559  220.1060 H   0  0  0  0  0  0  0  0  0  0  0  0
  143.8817   75.7608  220.4898 H   0  0  0  0  0  0  0  0  0  0  0  0
  144.7003   74.5958  219.4740 H   0  0  0  0  0  0  0  0  0  0  0  0
  143.5364   77.1104  218.6345 H   0  0  0  0  0  0  0  0  0  0  0  0
  144.1478   75.8742  217.5352 H   0  0  0  0  0  0  0  0  0  0  0  0
  141.4704   76.5938  217.6387 H   0  0  0  0  0  0  0  0  0  0  0  0
  141.9274   74.9822  217.1674 H   0  0  0  0  0  0  0  0  0  0  0  0
  140.4540   74.7911  219.2575 H   0  0  0  0  0  0  0  0  0  0  0  0
  142.2350   77.8538  219.1754 H   0  0  0  0  0  0  0  0  0  0  0  0
  142.0341   79.5323  220.9760 H   0  0  0  0  0  0  0  0  0  0  0  0
  141.1983   80.2266  224.9918 H   0  0  0  0  0  0  0  0  0  0  0  0
  142.6249   79.1251  224.4418 H   0  0  0  0  0  0  0  0  0  0  0  0
  140.3021   76.5784  223.5235 H   0  0  0  0  0  0  0  0  0  0  0  0
  140.5002   74.9221  221.7529 H   0  0  0  0  0  0  0  0  0  0  0  0
  139.1376   69.8609  222.5743 H   0  0  0  0  0  0  0  0  0  0  0  0
  138.7639   68.5392  224.6446 H   0  0  0  0  0  0  0  0  0  0  0  0
  139.0580   68.2383  227.0247 H   0  0  0  0  0  0  0  0  0  0  0  0
  139.9682   69.0581  229.1704 H   0  0  0  0  0  0  0  0  0  0  0  0
  141.2610   71.1860  229.3057 H   0  0  0  0  0  0  0  0  0  0  0  0
  141.6075   72.4772  227.1822 H   0  0  0  0  0  0  0  0  0  0  0  0
  1  2  2  0
  2  3  1  0
  3  4  1  0
  4  5  1  0
  5  6  2  0
  5  7  1  0
  7  8  1  0
  8  9  1  0
  9 10  1  0
 10 11  1  0
 11 12  1  0
 12 13  2  0
 13 14  1  0
 14 15  2  0
 15 16  1  0
 16 17  1  0
 17 18  1  0
 18 19  1  0
 18 20  1  0
 18 21  1  0
 15 22  1  0
 22 23  2  0
  2 24  1  0
 24 25  2  0
 25 26  1  0
 26 27  2  0
 27 28  1  0
 28 29  2  0
 29 30  1  0
 30 31  2  0
 31 32  1  0
 32 33  2  0
 11  7  1  0
 23 12  1  0
 33 24  1  0
 32 27  1  0
  3 34  1  0
  4 35  1  0
  4 36  1  0
  8 37  1  0
  8 38  1  0
  9 39  1  0
  9 40  1  0
 10 41  1  0
 10 42  1  0
 11 43  1  6
 13 44  1  0
 14 45  1  0
 17 46  1  0
 17 47  1  0
 22 48  1  0
 23 49  1  0
 25 50  1  0
 26 51  1  0
 28 52  1  0
 29 53  1  0
 30 54  1  0
 31 55  1  0
M  END
>  <smiles>  (28) 
O=C(NCC(=O)N1CCCC1c1ccc(OCC(F)(F)F)cc1)c1ccc2ccccc2n1

>  <score_type>  (28) 
oracle

>  <origin>  (28) 
autodockgpu

>  <m_score__min__energy>  (28) 
-8.0399999999999991

>  <m_primary>  (28) 
energy

>  <rmsd>  (28) 
2.7218507623984607

>  <m_score__min__rmsd>  (28) 
2.7218507623984607

>  <meeko>  (28) 
{"free_energy": -7.98, "intermolecular_energy": -10.37, "internal_energy": -1.29, "cluster_size": 19, "cluster_id": 2, "rank_in_cluster": 1}

>  <energy>  (28) 
-7.26

>  <cluster_rmsd>  (28) 
1.6

>  <cluster>  (28) 
2

$$$$

     RDKit          3D

 55 58  0  0  0  0  0  0  0  0999 V2000
  141.0610   71.2050  221.8150 O   0  0  0  0  0  0  0  0  0  0  0  0
  140.2920   71.6000  222.7410 C   0  0  0  0  0  0  0  0  0  0  0  0
  139.3580   72.6290  222.3830 N   0  0  0  0  0  0  0  0  0  0  0  0
  139.3870   73.1100  221.0150 C   0  0  0  0  0  0  0  0  0  0  0  0
  139.6980   74.5570  220.9460 C   0  0  0  0  0  0  0  0  0  0  0  0
  138.9880   75.4470  221.4740 O   0  0  0  0  0  0  0  0  0  0  0  0
  140.8710   74.9370  220.2380 N   0  0  0  0  0  0  0  0  0  0  0  0
  141.0970   75.0080  218.8030 C   0  0  0  0  0  0  0  0  0  0  0  0
  141.9730   76.2590  218.6610 C   0  0  0  0  0  0  0  0  0  0  0  0
  142.2940   76.6760  220.0870 C   0  0  0  0  0  0  0  0  0  0  0  0
  142.1590   75.3580  220.8210 C   0  0  2  0  0  0  0  0  0  0  0  0
  143.1970   74.3690  220.4380 C   0  0  0  0  0  0  0  0  0  0  0  0
  144.5260   74.6740  220.3060 C   0  0  0  0  0  0  0  0  0  0  0  0
  145.4430   73.6830  219.9410 C   0  0  0  0  0  0  0  0  0  0  0  0
  145.0880   72.3870  219.7010 C   0  0  0  0  0  0  0  0  0  0  0  0
  145.8560   71.3470  219.3540 O   0  0  0  0  0  0  0  0  0  0  0  0
  145.6010   70.0730  219.0040 C   0  0  0  0  0  0  0  0  0  0  0  0
  145.5970   69.6660  217.5690 C   0  0  0  0  0  0  0  0  0  0  0  0
  146.8990   69.9480  217.0980 F   0  0  0  0  0  0  0  0  0  0  0  0
  145.3980   68.3570  217.2810 F   0  0  0  0  0  0  0  0  0  0  0  0
  144.7840   70.4870  216.7940 F   0  0  0  0  0  0  0  0  0  0  0  0
  143.7080   72.1140  219.8490 C   0  0  0  0  0  0  0  0  0  0  0  0
  142.8040   73.0710  220.2030 C   0  0  0  0  0  0  0  0  0  0  0  0
  140.3320   71.0580  224.0900 C   0  0  0  0  0  0  0  0  0  0  0  0
  140.8090   71.8850  225.0850 C   0  0  0  0  0  0  0  0  0  0  0  0
  140.8510   71.3840  226.3650 C   0  0  0  0  0  0  0  0  0  0  0  0
  140.4320   70.1020  226.6410 C   0  0  0  0  0  0  0  0  0  0  0  0
  140.4760   69.6000  227.9300 C   0  0  0  0  0  0  0  0  0  0  0  0
  140.0450   68.3040  228.1700 C   0  0  0  0  0  0  0  0  0  0  0  0
  139.5690   67.4820  227.1650 C   0  0  0  0  0  0  0  0  0  0  0  0
  139.5410   68.0250  225.8790 C   0  0  0  0  0  0  0  0  0  0  0  0
  139.9630   69.3070  225.6220 C   0  0  0  0  0  0  0  0  0  0  0  0
  139.9260   69.8150  224.3630 N   0  0  0  0  0  0  0  0  0  0  0  0
  138.6910   73.0020  223.0990 H   0  0  0  0  0  0  0  0  0  0  0  0
  140.1557   72.5538  220.4584 H   0  0  0  0  0  0  0  0  0  0  0  0
  138.3902   72.9537  220.5769 H   0  0  0  0  0  0  0  0  0  0  0  0
  141.6224   74.1126  218.4394 H   0  0  0  0  0  0  0  0  0  0  0  0
  140.1676   75.0572  218.2167 H   0  0  0  0  0  0  0  0  0  0  0  0
  142.8954   76.0249  218.1093 H   0  0  0  0  0  0  0  0  0  0  0  0
  141.4659   77.0580  218.1002 H   0  0  0  0  0  0  0  0  0  0  0  0
  143.3142   77.0792  220.1684 H   0  0  0  0  0  0  0  0  0  0  0  0
  141.6486   77.4766  220.4776 H   0  0  0  0  0  0  0  0  0  0  0  0
  142.2403   75.4365  221.9152 H   0  0  0  0  0  0  0  0  0  0  0  0
  144.8731   75.7019  220.4877 H   0  0  0  0  0  0  0  0  0  0  0  0
  146.5025   73.9617  219.8425 H   0  0  0  0  0  0  0  0  0  0  0  0
  146.3577   69.4515  219.5052 H   0  0  0  0  0  0  0  0  0  0  0  0
  144.5497   69.9420  219.3000 H   0  0  0  0  0  0  0  0  0  0  0  0
  143.3502   71.0891  219.6714 H   0  0  0  0  0  0  0  0  0  0  0  0
  141.7422   72.8012  220.3026 H   0  0  0  0  0  0  0  0  0  0  0  0
  141.1440   72.9089  224.8628 H   0  0  0  0  0  0  0  0  0  0  0  0
  141.2256   72.0182  227.1820 H   0  0  0  0  0  0  0  0  0  0  0  0
  140.8492   70.2230  228.7561 H   0  0  0  0  0  0  0  0  0  0  0  0
  140.0832   67.9153  229.1983 H   0  0  0  0  0  0  0  0  0  0  0  0
  139.2305   66.4552  227.3679 H   0  0  0  0  0  0  0  0  0  0  0  0
  139.1702   67.4082  225.0471 H   0  0  0  0  0  0  0  0  0  0  0  0
  1  2  2  0
  2  3  1  0
  3  4  1  0
  4  5  1  0
  5  6  2  0
  5  7  1  0
  7  8  1  0
  8  9  1  0
  9 10  1  0
 10 11  1  0
 11 12  1  0
 12 13  2  0
 13 14  1  0
 14 15  2  0
 15 16  1  0
 16 17  1  0
 17 18  1  0
 18 19  1  0
 18 20  1  0
 18 21  1  0
 15 22  1  0
 22 23  2  0
  2 24  1  0
 24 25  2  0
 25 26  1  0
 26 27  2  0
 27 28  1  0
 28 29  2  0
 29 30  1  0
 30 31  2  0
 31 32  1  0
 32 33  2  0
 11  7  1  0
 23 12  1  0
 33 24  1  0
 32 27  1  0
  3 34  1  0
  4 35  1  0
  4 36  1  0
  8 37  1  0
  8 38  1  0
  9 39  1  0
  9 40  1  0
 10 41  1  0
 10 42  1  0
 11 43  1  1
 13 44  1  0
 14 45  1  0
 17 46  1  0
 17 47  1  0
 22 48  1  0
 23 49  1  0
 25 50  1  0
 26 51  1  0
 28 52  1  0
 29 53  1  0
 30 54  1  0
 31 55  1  0
M  END
>  <smiles>  (29) 
O=C(NCC(=O)N1CCCC1c1ccc(OCC(F)(F)F)cc1)c1ccc2ccccc2n1

>  <score_type>  (29) 
oracle

>  <origin>  (29) 
autodockgpu

>  <m_score__min__energy>  (29) 
-8.0399999999999991

>  <m_primary>  (29) 
energy

>  <rmsd>  (29) 
2.8585017899079435

>  <m_score__min__rmsd>  (29) 
2.8585017899079435

>  <meeko>  (29) 
{"free_energy": -7.28, "intermolecular_energy": -9.66, "internal_energy": -1.56, "cluster_size": 10, "cluster_id": 1, "rank_in_cluster": 9}

>  <energy>  (29) 
-7.02

>  <cluster_rmsd>  (29) 
1.14

>  <cluster>  (29) 
2

$$$$

     RDKit          3D

 55 58  0  0  0  0  0  0  0  0999 V2000
  138.5920   70.2850  221.5620 O   0  0  0  0  0  0  0  0  0  0  0  0
  138.8730   71.0720  222.5150 C   0  0  0  0  0  0  0  0  0  0  0  0
  138.6910   72.4690  222.2470 N   0  0  0  0  0  0  0  0  0  0  0  0
  138.2090   72.8390  220.9300 C   0  0  0  0  0  0  0  0  0  0  0  0
  139.2870   72.7960  219.9160 C   0  0  0  0  0  0  0  0  0  0  0  0
  139.1980   72.1720  218.8310 O   0  0  0  0  0  0  0  0  0  0  0  0
  140.4830   73.5080  220.2070 N   0  0  0  0  0  0  0  0  0  0  0  0
  141.4420   73.2970  221.2790 C   0  0  0  0  0  0  0  0  0  0  0  0
  142.7840   73.5770  220.5920 C   0  0  0  0  0  0  0  0  0  0  0  0
  142.4150   74.0930  219.2100 C   0  0  0  0  0  0  0  0  0  0  0  0
  141.0320   74.6560  219.4610 C   0  0  2  0  0  0  0  0  0  0  0  0
  141.0390   75.8420  220.3540 C   0  0  0  0  0  0  0  0  0  0  0  0
  141.8670   76.9190  220.1800 C   0  0  0  0  0  0  0  0  0  0  0  0
  141.8110   77.9990  221.0680 C   0  0  0  0  0  0  0  0  0  0  0  0
  140.9570   78.0510  222.1310 C   0  0  0  0  0  0  0  0  0  0  0  0
  140.7990   79.0160  223.0450 O   0  0  0  0  0  0  0  0  0  0  0  0
  141.6500   79.7750  223.7580 C   0  0  0  0  0  0  0  0  0  0  0  0
  142.4040   80.8860  223.1080 C   0  0  0  0  0  0  0  0  0  0  0  0
  143.7570   80.4800  223.1280 F   0  0  0  0  0  0  0  0  0  0  0  0
  142.1390   81.1560  221.8060 F   0  0  0  0  0  0  0  0  0  0  0  0
  142.3970   82.0440  223.8780 F   0  0  0  0  0  0  0  0  0  0  0  0
  140.1210   76.9190  222.2740 C   0  0  0  0  0  0  0  0  0  0  0  0
  140.1650   75.8600  221.4160 C   0  0  0  0  0  0  0  0  0  0  0  0
  139.3530   70.6110  223.8080 C   0  0  0  0  0  0  0  0  0  0  0  0
  139.2410   69.2630  224.0770 C   0  0  0  0  0  0  0  0  0  0  0  0
  139.6910   68.8160  225.2960 C   0  0  0  0  0  0  0  0  0  0  0  0
  140.2330   69.6850  226.2160 C   0  0  0  0  0  0  0  0  0  0  0  0
  140.6850   69.2320  227.4430 C   0  0  0  0  0  0  0  0  0  0  0  0
  141.2260   70.1360  228.3450 C   0  0  0  0  0  0  0  0  0  0  0  0
  141.3330   71.4870  228.0660 C   0  0  0  0  0  0  0  0  0  0  0  0
  140.8660   71.9040  226.8190 C   0  0  0  0  0  0  0  0  0  0  0  0
  140.3280   71.0220  225.9120 C   0  0  0  0  0  0  0  0  0  0  0  0
  139.8800   71.4500  224.7040 N   0  0  0  0  0  0  0  0  0  0  0  0
  138.9040   73.1760  222.9890 H   0  0  0  0  0  0  0  0  0  0  0  0
  137.4132   72.1400  220.6331 H   0  0  0  0  0  0  0  0  0  0  0  0
  137.8309   73.8707  220.9825 H   0  0  0  0  0  0  0  0  0  0  0  0
  141.2683   73.9967  222.1098 H   0  0  0  0  0  0  0  0  0  0  0  0
  141.3821   72.2940  221.7266 H   0  0  0  0  0  0  0  0  0  0  0  0
  143.3533   74.3355  221.1492 H   0  0  0  0  0  0  0  0  0  0  0  0
  143.4197   72.6806  220.5436 H   0  0  0  0  0  0  0  0  0  0  0  0
  143.1123   74.8741  218.8727 H   0  0  0  0  0  0  0  0  0  0  0  0
  142.4529   73.3288  218.4197 H   0  0  0  0  0  0  0  0  0  0  0  0
  140.5069   74.9938  218.5554 H   0  0  0  0  0  0  0  0  0  0  0  0
  142.5775   76.9350  219.3404 H   0  0  0  0  0  0  0  0  0  0  0  0
  142.4894   78.8486  220.9008 H   0  0  0  0  0  0  0  0  0  0  0  0
  141.0630   80.2267  224.5712 H   0  0  0  0  0  0  0  0  0  0  0  0
  142.4445   79.0646  224.0303 H   0  0  0  0  0  0  0  0  0  0  0  0
  139.4071   76.8918  223.1104 H   0  0  0  0  0  0  0  0  0  0  0  0
  139.4904   75.0060  221.5758 H   0  0  0  0  0  0  0  0  0  0  0  0
  138.8067   68.5699  223.3415 H   0  0  0  0  0  0  0  0  0  0  0  0
  139.6169   67.7461  225.5408 H   0  0  0  0  0  0  0  0  0  0  0  0
  140.6158   68.1648  227.7005 H   0  0  0  0  0  0  0  0  0  0  0  0
  141.5829   69.7656  229.3173 H   0  0  0  0  0  0  0  0  0  0  0  0
  141.7636   72.1951  228.7893 H   0  0  0  0  0  0  0  0  0  0  0  0
  140.9302   72.9696  226.5539 H   0  0  0  0  0  0  0  0  0  0  0  0
  1  2  2  0
  2  3  1  0
  3  4  1  0
  4  5  1  0
  5  6  2  0
  5  7  1  0
  7  8  1  0
  8  9  1  0
  9 10  1  0
 10 11  1  0
 11 12  1  0
 12 13  2  0
 13 14  1  0
 14 15  2  0
 15 16  1  0
 16 17  1  0
 17 18  1  0
 18 19  1  0
 18 20  1  0
 18 21  1  0
 15 22  1  0
 22 23  2  0
  2 24  1  0
 24 25  2  0
 25 26  1  0
 26 27  2  0
 27 28  1  0
 28 29  2  0
 29 30  1  0
 30 31  2  0
 31 32  1  0
 32 33  2  0
 11  7  1  0
 23 12  1  0
 33 24  1  0
 32 27  1  0
  3 34  1  0
  4 35  1  0
  4 36  1  0
  8 37  1  0
  8 38  1  0
  9 39  1  0
  9 40  1  0
 10 41  1  0
 10 42  1  0
 11 43  1  6
 13 44  1  0
 14 45  1  0
 17 46  1  0
 17 47  1  0
 22 48  1  0
 23 49  1  0
 25 50  1  0
 26 51  1  0
 28 52  1  0
 29 53  1  0
 30 54  1  0
 31 55  1  0
M  END
>  <smiles>  (30) 
O=C(NCC(=O)N1CCCC1c1ccc(OCC(F)(F)F)cc1)c1ccc2ccccc2n1

>  <score_type>  (30) 
oracle

>  <origin>  (30) 
autodockgpu

>  <m_score__min__energy>  (30) 
-8.0399999999999991

>  <m_primary>  (30) 
energy

>  <rmsd>  (30) 
2.5045335484778977

>  <m_score__min__rmsd>  (30) 
2.5045335484778977

>  <meeko>  (30) 
{"free_energy": -7.3, "intermolecular_energy": -9.69, "internal_energy": -1.64, "cluster_size": 19, "cluster_id": 2, "rank_in_cluster": 17}

>  <energy>  (30) 
-7.71

>  <cluster_rmsd>  (30) 
0.0

>  <cluster>  (30) 
3

$$$$

     RDKit          3D

 55 58  0  0  0  0  0  0  0  0999 V2000
  140.0360   73.4860  222.4330 O   0  0  0  0  0  0  0  0  0  0  0  0
  140.3650   72.2630  222.4760 C   0  0  0  0  0  0  0  0  0  0  0  0
  140.9010   71.7160  221.2630 N   0  0  0  0  0  0  0  0  0  0  0  0
  141.0120   72.6050  220.1220 C   0  0  0  0  0  0  0  0  0  0  0  0
  142.3730   73.1770  219.9970 C   0  0  0  0  0  0  0  0  0  0  0  0
  143.4240   72.5060  220.1300 O   0  0  0  0  0  0  0  0  0  0  0  0
  142.4700   74.5660  219.7110 N   0  0  0  0  0  0  0  0  0  0  0  0
  143.6370   75.4320  219.7380 C   0  0  0  0  0  0  0  0  0  0  0  0
  143.4020   76.3550  218.5360 C   0  0  0  0  0  0  0  0  0  0  0  0
  142.0040   76.0100  218.0470 C   0  0  0  0  0  0  0  0  0  0  0  0
  141.3710   75.4660  219.3110 C   0  0  2  0  0  0  0  0  0  0  0  0
  141.1950   76.4960  220.3640 C   0  0  0  0  0  0  0  0  0  0  0  0
  141.1040   77.8380  220.1070 C   0  0  0  0  0  0  0  0  0  0  0  0
  140.9380   78.7460  221.1580 C   0  0  0  0  0  0  0  0  0  0  0  0
  140.8570   78.3690  222.4670 C   0  0  0  0  0  0  0  0  0  0  0  0
  140.6940   79.1260  223.5590 O   0  0  0  0  0  0  0  0  0  0  0  0
  140.9300   80.4200  223.8420 C   0  0  0  0  0  0  0  0  0  0  0  0
  142.1930   81.0760  223.3970 C   0  0  0  0  0  0  0  0  0  0  0  0
  142.5720   81.9200  224.4650 F   0  0  0  0  0  0  0  0  0  0  0  0
  143.2740   80.2890  223.1750 F   0  0  0  0  0  0  0  0  0  0  0  0
  141.9820   81.9570  222.3410 F   0  0  0  0  0  0  0  0  0  0  0  0
  140.9540   76.9760  222.6890 C   0  0  0  0  0  0  0  0  0  0  0  0
  141.1170   76.0800  221.6730 C   0  0  0  0  0  0  0  0  0  0  0  0
  140.2190   71.4440  223.6680 C   0  0  0  0  0  0  0  0  0  0  0  0
  139.5580   70.2420  223.5280 C   0  0  0  0  0  0  0  0  0  0  0  0
  139.4140   69.4580  224.6490 C   0  0  0  0  0  0  0  0  0  0  0  0
  139.9130   69.8610  225.8670 C   0  0  0  0  0  0  0  0  0  0  0  0
  139.7660   69.0700  226.9940 C   0  0  0  0  0  0  0  0  0  0  0  0
  140.2810   69.5080  228.2040 C   0  0  0  0  0  0  0  0  0  0  0  0
  140.9430   70.7160  228.3340 C   0  0  0  0  0  0  0  0  0  0  0  0
  141.0700   71.4840  227.1760 C   0  0  0  0  0  0  0  0  0  0  0  0
  140.5660   71.0660  225.9670 C   0  0  0  0  0  0  0  0  0  0  0  0
  140.7020   71.8300  224.8530 N   0  0  0  0  0  0  0  0  0  0  0  0
  141.1950   70.7120  221.2260 H   0  0  0  0  0  0  0  0  0  0  0  0
  140.7782   72.0404  219.2073 H   0  0  0  0  0  0  0  0  0  0  0  0
  140.3054   73.4355  220.2672 H   0  0  0  0  0  0  0  0  0  0  0  0
  143.6831   76.0058  220.6753 H   0  0  0  0  0  0  0  0  0  0  0  0
  144.5886   74.8827  219.6862 H   0  0  0  0  0  0  0  0  0  0  0  0
  143.4559   77.4103  218.8417 H   0  0  0  0  0  0  0  0  0  0  0  0
  144.1613   76.2167  217.7522 H   0  0  0  0  0  0  0  0  0  0  0  0
  141.4734   76.9023  217.6832 H   0  0  0  0  0  0  0  0  0  0  0  0
  141.9844   75.3113  217.1976 H   0  0  0  0  0  0  0  0  0  0  0  0
  140.3669   75.0394  219.1702 H   0  0  0  0  0  0  0  0  0  0  0  0
  141.1616   78.2030  219.0709 H   0  0  0  0  0  0  0  0  0  0  0  0
  140.8694   79.8172  220.9174 H   0  0  0  0  0  0  0  0  0  0  0  0
  140.1036   80.9949  223.3986 H   0  0  0  0  0  0  0  0  0  0  0  0
  141.0257   80.4190  224.9378 H   0  0  0  0  0  0  0  0  0  0  0  0
  140.8958   76.6000  223.7211 H   0  0  0  0  0  0  0  0  0  0  0  0
  141.1872   75.0069  221.9045 H   0  0  0  0  0  0  0  0  0  0  0  0
  139.1598   69.9213  222.5540 H   0  0  0  0  0  0  0  0  0  0  0  0
  138.8915   68.4932  224.5709 H   0  0  0  0  0  0  0  0  0  0  0  0
  139.2454   68.1031  226.9296 H   0  0  0  0  0  0  0  0  0  0  0  0
  140.1590   68.8721  229.0932 H   0  0  0  0  0  0  0  0  0  0  0  0
  141.3479   71.0532  229.2996 H   0  0  0  0  0  0  0  0  0  0  0  0
  141.5887   72.4524  227.2320 H   0  0  0  0  0  0  0  0  0  0  0  0
  1  2  2  0
  2  3  1  0
  3  4  1  0
  4  5  1  0
  5  6  2  0
  5  7  1  0
  7  8  1  0
  8  9  1  0
  9 10  1  0
 10 11  1  0
 11 12  1  0
 12 13  2  0
 13 14  1  0
 14 15  2  0
 15 16  1  0
 16 17  1  0
 17 18  1  0
 18 19  1  0
 18 20  1  0
 18 21  1  0
 15 22  1  0
 22 23  2  0
  2 24  1  0
 24 25  2  0
 25 26  1  0
 26 27  2  0
 27 28  1  0
 28 29  2  0
 29 30  1  0
 30 31  2  0
 31 32  1  0
 32 33  2  0
 11  7  1  0
 23 12  1  0
 33 24  1  0
 32 27  1  0
  3 34  1  0
  4 35  1  0
  4 36  1  0
  8 37  1  0
  8 38  1  0
  9 39  1  0
  9 40  1  0
 10 41  1  0
 10 42  1  0
 11 43  1  6
 13 44  1  0
 14 45  1  0
 17 46  1  0
 17 47  1  0
 22 48  1  0
 23 49  1  0
 25 50  1  0
 26 51  1  0
 28 52  1  0
 29 53  1  0
 30 54  1  0
 31 55  1  0
M  END
>  <smiles>  (31) 
O=C(NCC(=O)N1CCCC1c1ccc(OCC(F)(F)F)cc1)c1ccc2ccccc2n1

>  <score_type>  (31) 
oracle

>  <origin>  (31) 
autodockgpu

>  <m_score__min__energy>  (31) 
-8.0399999999999991

>  <m_primary>  (31) 
energy

>  <rmsd>  (31) 
2.6364992371217486

>  <m_score__min__rmsd>  (31) 
2.6364992371217486

>  <meeko>  (31) 
{"free_energy": -7.97, "intermolecular_energy": -10.36, "internal_energy": -1.63, "cluster_size": 19, "cluster_id": 2, "rank_in_cluster": 2}

>  <energy>  (31) 
-7.24

>  <cluster_rmsd>  (31) 
1.84

>  <cluster>  (31) 
3

$$$$

     RDKit          3D

 55 58  0  0  0  0  0  0  0  0999 V2000
  139.9480   70.6110  221.7150 O   0  0  0  0  0  0  0  0  0  0  0  0
  139.8880   71.4170  222.6910 C   0  0  0  0  0  0  0  0  0  0  0  0
  139.6150   72.7850  222.3580 N   0  0  0  0  0  0  0  0  0  0  0  0
  139.4380   73.1080  220.9550 C   0  0  0  0  0  0  0  0  0  0  0  0
  140.7040   72.9830  220.1960 C   0  0  0  0  0  0  0  0  0  0  0  0
  141.0460   71.9450  219.5800 O   0  0  0  0  0  0  0  0  0  0  0  0
  141.5650   74.1140  220.1760 N   0  0  0  0  0  0  0  0  0  0  0  0
  142.8740   74.2850  220.7850 C   0  0  0  0  0  0  0  0  0  0  0  0
  143.6290   75.1090  219.7360 C   0  0  0  0  0  0  0  0  0  0  0  0
  142.5830   75.4680  218.6930 C   0  0  0  0  0  0  0  0  0  0  0  0
  141.3110   75.4070  219.5130 C   0  0  2  0  0  0  0  0  0  0  0  0
  141.2360   76.4650  220.5510 C   0  0  0  0  0  0  0  0  0  0  0  0
  141.9490   77.6330  220.4990 C   0  0  0  0  0  0  0  0  0  0  0  0
  141.8220   78.5820  221.5190 C   0  0  0  0  0  0  0  0  0  0  0  0
  141.0060   78.4140  222.6000 C   0  0  0  0  0  0  0  0  0  0  0  0
  140.7880   79.2350  223.6350 O   0  0  0  0  0  0  0  0  0  0  0  0
  140.1010   80.3810  223.7880 C   0  0  0  0  0  0  0  0  0  0  0  0
  138.6170   80.4020  223.6420 C   0  0  0  0  0  0  0  0  0  0  0  0
  138.3670   81.1680  222.4820 F   0  0  0  0  0  0  0  0  0  0  0  0
  137.9830   79.2240  223.4260 F   0  0  0  0  0  0  0  0  0  0  0  0
  138.0020   81.1310  224.6550 F   0  0  0  0  0  0  0  0  0  0  0  0
  140.2880   77.1950  222.6150 C   0  0  0  0  0  0  0  0  0  0  0  0
  140.4030   76.2620  221.6270 C   0  0  0  0  0  0  0  0  0  0  0  0
  140.0790   71.0050  224.0730 C   0  0  0  0  0  0  0  0  0  0  0  0
  140.7030   71.9000  224.9160 C   0  0  0  0  0  0  0  0  0  0  0  0
  140.8890   71.5220  226.2240 C   0  0  0  0  0  0  0  0  0  0  0  0
  140.4680   70.2920  226.6750 C   0  0  0  0  0  0  0  0  0  0  0  0
  140.6570   69.9130  227.9930 C   0  0  0  0  0  0  0  0  0  0  0  0
  140.2200   68.6660  228.4120 C   0  0  0  0  0  0  0  0  0  0  0  0
  139.5950   67.7730  227.5580 C   0  0  0  0  0  0  0  0  0  0  0  0
  139.4240   68.1930  226.2380 C   0  0  0  0  0  0  0  0  0  0  0  0
  139.8510   69.4250  225.8050 C   0  0  0  0  0  0  0  0  0  0  0  0
  139.6720   69.8120  224.5150 N   0  0  0  0  0  0  0  0  0  0  0  0
  139.5520   73.5060  223.1150 H   0  0  0  0  0  0  0  0  0  0  0  0
  138.6949   72.4216  220.5229 H   0  0  0  0  0  0  0  0  0  0  0  0
  139.1002   74.1525  220.8854 H   0  0  0  0  0  0  0  0  0  0  0  0
  142.7999   74.8288  221.7383 H   0  0  0  0  0  0  0  0  0  0  0  0
  143.3684   73.3337  221.0312 H   0  0  0  0  0  0  0  0  0  0  0  0
  144.0517   76.0180  220.1889 H   0  0  0  0  0  0  0  0  0  0  0  0
  144.4728   74.5528  219.3016 H   0  0  0  0  0  0  0  0  0  0  0  0
  142.7508   76.4756  218.2850 H   0  0  0  0  0  0  0  0  0  0  0  0
  142.5821   74.8099  217.8116 H   0  0  0  0  0  0  0  0  0  0  0  0
  140.3865   75.5256  218.9289 H   0  0  0  0  0  0  0  0  0  0  0  0
  142.6240   77.8257  219.6521 H   0  0  0  0  0  0  0  0  0  0  0  0
  142.4089   79.5095  221.4461 H   0  0  0  0  0  0  0  0  0  0  0  0
  140.3227   80.7479  224.8010 H   0  0  0  0  0  0  0  0  0  0  0  0
  140.4408   80.9874  222.9355 H   0  0  0  0  0  0  0  0  0  0  0  0
  139.6100   76.9917  223.4571 H   0  0  0  0  0  0  0  0  0  0  0  0
  139.8199   75.3315  221.6915 H   0  0  0  0  0  0  0  0  0  0  0  0
  141.0402   72.8825  224.5541 H   0  0  0  0  0  0  0  0  0  0  0  0
  141.3826   72.2141  226.9221 H   0  0  0  0  0  0  0  0  0  0  0  0
  141.1495   70.5953  228.7014 H   0  0  0  0  0  0  0  0  0  0  0  0
  140.3754   68.3752  229.4614 H   0  0  0  0  0  0  0  0  0  0  0  0
  139.2518   66.7859  227.9014 H   0  0  0  0  0  0  0  0  0  0  0  0
  138.9325   67.5172  225.5227 H   0  0  0  0  0  0  0  0  0  0  0  0
  1  2  2  0
  2  3  1  0
  3  4  1  0
  4  5  1  0
  5  6  2  0
  5  7  1  0
  7  8  1  0
  8  9  1  0
  9 10  1  0
 10 11  1  0
 11 12  1  0
 12 13  2  0
 13 14  1  0
 14 15  2  0
 15 16  1  0
 16 17  1  0
 17 18  1  0
 18 19  1  0
 18 20  1  0
 18 21  1  0
 15 22  1  0
 22 23  2  0
  2 24  1  0
 24 25  2  0
 25 26  1  0
 26 27  2  0
 27 28  1  0
 28 29  2  0
 29 30  1  0
 30 31  2  0
 31 32  1  0
 32 33  2  0
 11  7  1  0
 23 12  1  0
 33 24  1  0
 32 27  1  0
  3 34  1  0
  4 35  1  0
  4 36  1  0
  8 37  1  0
  8 38  1  0
  9 39  1  0
  9 40  1  0
 10 41  1  0
 10 42  1  0
 11 43  1  6
 13 44  1  0
 14 45  1  0
 17 46  1  0
 17 47  1  0
 22 48  1  0
 23 49  1  0
 25 50  1  0
 26 51  1  0
 28 52  1  0
 29 53  1  0
 30 54  1  0
 31 55  1  0
M  END
>  <smiles>  (32) 
O=C(NCC(=O)N1CCCC1c1ccc(OCC(F)(F)F)cc1)c1ccc2ccccc2n1

>  <score_type>  (32) 
oracle

>  <origin>  (32) 
autodockgpu

>  <m_score__min__energy>  (32) 
-8.0399999999999991

>  <m_primary>  (32) 
energy

>  <rmsd>  (32) 
3.2325533378285844

>  <m_score__min__rmsd>  (32) 
3.2325533378285844

>  <meeko>  (32) 
{"free_energy": -7.43, "intermolecular_energy": -9.82, "internal_energy": -1.46, "cluster_size": 19, "cluster_id": 2, "rank_in_cluster": 15}

>  <energy>  (32) 
-7.12

>  <cluster_rmsd>  (32) 
1.59

>  <cluster>  (32) 
3

$$$$

     RDKit          3D

 55 58  0  0  0  0  0  0  0  0999 V2000
  142.0000   78.2100  217.1250 O   0  0  0  0  0  0  0  0  0  0  0  0
  142.5120   77.8090  218.2130 C   0  0  0  0  0  0  0  0  0  0  0  0
  142.5180   78.7570  219.2890 N   0  0  0  0  0  0  0  0  0  0  0  0
  141.9460   80.0640  219.0300 C   0  0  0  0  0  0  0  0  0  0  0  0
  141.6120   80.7790  220.2830 C   0  0  0  0  0  0  0  0  0  0  0  0
  141.4600   82.0220  220.3560 O   0  0  0  0  0  0  0  0  0  0  0  0
  141.4600   79.9930  221.4590 N   0  0  0  0  0  0  0  0  0  0  0  0
  142.4760   79.4910  222.3690 C   0  0  0  0  0  0  0  0  0  0  0  0
  141.8020   79.6310  223.7390 C   0  0  0  0  0  0  0  0  0  0  0  0
  140.3740   80.0520  223.4300 C   0  0  0  0  0  0  0  0  0  0  0  0
  140.1950   79.4970  222.0330 C   0  0  2  0  0  0  0  0  0  0  0  0
  140.2040   78.0140  221.9890 C   0  0  0  0  0  0  0  0  0  0  0  0
  141.1520   77.2790  221.3300 C   0  0  0  0  0  0  0  0  0  0  0  0
  141.0900   75.8810  221.3370 C   0  0  0  0  0  0  0  0  0  0  0  0
  140.1120   75.1790  221.9800 C   0  0  0  0  0  0  0  0  0  0  0  0
  139.9380   73.8550  222.0700 O   0  0  0  0  0  0  0  0  0  0  0  0
  139.9550   72.8480  221.1780 C   0  0  0  0  0  0  0  0  0  0  0  0
  141.1990   72.5250  220.4210 C   0  0  0  0  0  0  0  0  0  0  0  0
  142.2550   73.0480  221.1990 F   0  0  0  0  0  0  0  0  0  0  0  0
  141.5110   71.2190  220.2420 F   0  0  0  0  0  0  0  0  0  0  0  0
  141.2850   73.2360  219.2290 F   0  0  0  0  0  0  0  0  0  0  0  0
  139.1530   75.9760  222.6480 C   0  0  0  0  0  0  0  0  0  0  0  0
  139.2030   77.3380  222.6480 C   0  0  0  0  0  0  0  0  0  0  0  0
  143.0650   76.4750  218.3840 C   0  0  0  0  0  0  0  0  0  0  0  0
  142.9260   75.5960  217.3310 C   0  0  0  0  0  0  0  0  0  0  0  0
  143.4450   74.3320  217.4820 C   0  0  0  0  0  0  0  0  0  0  0  0
  144.0810   73.9580  218.6440 C   0  0  0  0  0  0  0  0  0  0  0  0
  144.6030   72.6850  218.7940 C   0  0  0  0  0  0  0  0  0  0  0  0
  145.2360   72.3440  219.9790 C   0  0  0  0  0  0  0  0  0  0  0  0
  145.3700   73.2330  221.0310 C   0  0  0  0  0  0  0  0  0  0  0  0
  144.8310   74.5060  220.8410 C   0  0  0  0  0  0  0  0  0  0  0  0
  144.1990   74.8620  219.6730 C   0  0  0  0  0  0  0  0  0  0  0  0
  143.6830   76.1070  219.5110 N   0  0  0  0  0  0  0  0  0  0  0  0
  142.9260   78.4940  220.2170 H   0  0  0  0  0  0  0  0  0  0  0  0
  142.6720   80.6635  218.4612 H   0  0  0  0  0  0  0  0  0  0  0  0
  141.0158   79.9221  218.4603 H   0  0  0  0  0  0  0  0  0  0  0  0
  142.7184   78.4402  222.1519 H   0  0  0  0  0  0  0  0  0  0  0  0
  143.4317   80.0307  222.2961 H   0  0  0  0  0  0  0  0  0  0  0  0
  141.8150   78.6715  224.2768 H   0  0  0  0  0  0  0  0  0  0  0  0
  142.3185   80.3582  224.3827 H   0  0  0  0  0  0  0  0  0  0  0  0
  139.6602   79.6025  224.1361 H   0  0  0  0  0  0  0  0  0  0  0  0
  140.1969   81.1347  223.5100 H   0  0  0  0  0  0  0  0  0  0  0  0
  139.2499   79.7825  221.5479 H   0  0  0  0  0  0  0  0  0  0  0  0
  141.9654   77.7889  220.7930 H   0  0  0  0  0  0  0  0  0  0  0  0
  141.8677   75.3203  220.7978 H   0  0  0  0  0  0  0  0  0  0  0  0
  139.6751   71.9367  221.7269 H   0  0  0  0  0  0  0  0  0  0  0  0
  139.2736   73.2043  220.3914 H   0  0  0  0  0  0  0  0  0  0  0  0
  138.3351   75.4771  223.1885 H   0  0  0  0  0  0  0  0  0  0  0  0
  138.4293   77.9070  223.1844 H   0  0  0  0  0  0  0  0  0  0  0  0
  142.4177   75.8956  216.4026 H   0  0  0  0  0  0  0  0  0  0  0  0
  143.3504   73.6071  216.6601 H   0  0  0  0  0  0  0  0  0  0  0  0
  144.5163   71.9503  217.9799 H   0  0  0  0  0  0  0  0  0  0  0  0
  145.6469   71.3294  220.0872 H   0  0  0  0  0  0  0  0  0  0  0  0
  145.8745   72.9512  221.9670 H   0  0  0  0  0  0  0  0  0  0  0  0
  144.9142   75.2468  221.6499 H   0  0  0  0  0  0  0  0  0  0  0  0
  1  2  2  0
  2  3  1  0
  3  4  1  0
  4  5  1  0
  5  6  2  0
  5  7  1  0
  7  8  1  0
  8  9  1  0
  9 10  1  0
 10 11  1  0
 11 12  1  0
 12 13  2  0
 13 14  1  0
 14 15  2  0
 15 16  1  0
 16 17  1  0
 17 18  1  0
 18 19  1  0
 18 20  1  0
 18 21  1  0
 15 22  1  0
 22 23  2  0
  2 24  1  0
 24 25  2  0
 25 26  1  0
 26 27  2  0
 27 28  1  0
 28 29  2  0
 29 30  1  0
 30 31  2  0
 31 32  1  0
 32 33  2  0
 11  7  1  0
 23 12  1  0
 33 24  1  0
 32 27  1  0
  3 34  1  0
  4 35  1  0
  4 36  1  0
  8 37  1  0
  8 38  1  0
  9 39  1  0
  9 40  1  0
 10 41  1  0
 10 42  1  0
 11 43  1  6
 13 44  1  0
 14 45  1  0
 17 46  1  0
 17 47  1  0
 22 48  1  0
 23 49  1  0
 25 50  1  0
 26 51  1  0
 28 52  1  0
 29 53  1  0
 30 54  1  0
 31 55  1  0
M  END
>  <smiles>  (33) 
O=C(NCC(=O)N1CCCC1c1ccc(OCC(F)(F)F)cc1)c1ccc2ccccc2n1

>  <score_type>  (33) 
oracle

>  <origin>  (33) 
autodockgpu

>  <m_score__min__energy>  (33) 
-8.0399999999999991

>  <m_primary>  (33) 
energy

>  <rmsd>  (33) 
7.9364549445589345

>  <m_score__min__rmsd>  (33) 
7.9364549445589345

>  <meeko>  (33) 
{"free_energy": -6.51, "intermolecular_energy": -8.9, "internal_energy": -2.55, "cluster_size": 5, "cluster_id": 6, "rank_in_cluster": 1}

>  <energy>  (33) 
-7.06

>  <cluster_rmsd>  (33) 
1.85

>  <cluster>  (33) 
3

$$$$

     RDKit          3D

 55 58  0  0  0  0  0  0  0  0999 V2000
  140.3010   73.3890  222.6610 O   0  0  0  0  0  0  0  0  0  0  0  0
  140.0440   72.1510  222.5880 C   0  0  0  0  0  0  0  0  0  0  0  0
  139.7420   71.6510  221.2770 N   0  0  0  0  0  0  0  0  0  0  0  0
  139.7590   72.6000  220.1800 C   0  0  0  0  0  0  0  0  0  0  0  0
  141.0590   72.5970  219.4690 C   0  0  0  0  0  0  0  0  0  0  0  0
  141.3850   71.7330  218.6200 O   0  0  0  0  0  0  0  0  0  0  0  0
  141.9730   73.6410  219.7810 N   0  0  0  0  0  0  0  0  0  0  0  0
  143.0060   73.6850  220.8030 C   0  0  0  0  0  0  0  0  0  0  0  0
  144.1440   74.4340  220.1000 C   0  0  0  0  0  0  0  0  0  0  0  0
  143.5520   74.8920  218.7770 C   0  0  0  0  0  0  0  0  0  0  0  0
  142.0770   74.9530  219.1150 C   0  0  2  0  0  0  0  0  0  0  0  0
  141.7480   76.0130  220.1010 C   0  0  0  0  0  0  0  0  0  0  0  0
  142.2800   77.2740  220.0670 C   0  0  0  0  0  0  0  0  0  0  0  0
  141.9180   78.2170  221.0350 C   0  0  0  0  0  0  0  0  0  0  0  0
  141.0390   77.9520  222.0440 C   0  0  0  0  0  0  0  0  0  0  0  0
  140.6060   78.7560  223.0240 O   0  0  0  0  0  0  0  0  0  0  0  0
  141.2000   79.6650  223.8170 C   0  0  0  0  0  0  0  0  0  0  0  0
  142.2360   80.5890  223.2700 C   0  0  0  0  0  0  0  0  0  0  0  0
  142.3750   81.6080  224.2380 F   0  0  0  0  0  0  0  0  0  0  0  0
  143.4890   80.1030  223.0920 F   0  0  0  0  0  0  0  0  0  0  0  0
  141.7890   81.2670  222.1410 F   0  0  0  0  0  0  0  0  0  0  0  0
  140.5130   76.6390  222.0430 C   0  0  0  0  0  0  0  0  0  0  0  0
  140.8590   75.7110  221.1060 C   0  0  0  0  0  0  0  0  0  0  0  0
  140.0490   71.2700  223.7440 C   0  0  0  0  0  0  0  0  0  0  0  0
  139.5270   70.0050  223.5740 C   0  0  0  0  0  0  0  0  0  0  0  0
  139.5270   69.1630  224.6600 C   0  0  0  0  0  0  0  0  0  0  0  0
  140.0290   69.5690  225.8750 C   0  0  0  0  0  0  0  0  0  0  0  0
  140.0270   68.7200  226.9680 C   0  0  0  0  0  0  0  0  0  0  0  0
  140.5420   69.1640  228.1760 C   0  0  0  0  0  0  0  0  0  0  0  0
  141.0630   70.4360  228.3380 C   0  0  0  0  0  0  0  0  0  0  0  0
  141.0460   71.2620  227.2130 C   0  0  0  0  0  0  0  0  0  0  0  0
  140.5410   70.8390  226.0070 C   0  0  0  0  0  0  0  0  0  0  0  0
  140.5350   71.6600  224.9260 N   0  0  0  0  0  0  0  0  0  0  0  0
  139.5190   70.6370  221.1420 H   0  0  0  0  0  0  0  0  0  0  0  0
  138.9633   72.3353  219.4680 H   0  0  0  0  0  0  0  0  0  0  0  0
  139.5994   73.6058  220.5959 H   0  0  0  0  0  0  0  0  0  0  0  0
  142.6609   74.2324  221.6925 H   0  0  0  0  0  0  0  0  0  0  0  0
  143.2994   72.6905  221.1701 H   0  0  0  0  0  0  0  0  0  0  0  0
  144.4669   75.2980  220.6993 H   0  0  0  0  0  0  0  0  0  0  0  0
  145.0320   73.8003  219.9591 H   0  0  0  0  0  0  0  0  0  0  0  0
  143.9387   75.8791  218.4834 H   0  0  0  0  0  0  0  0  0  0  0  0
  143.7918   74.2372  217.9263 H   0  0  0  0  0  0  0  0  0  0  0  0
  141.4212   75.1605  218.2566 H   0  0  0  0  0  0  0  0  0  0  0  0
  142.9943   77.5466  219.2761 H   0  0  0  0  0  0  0  0  0  0  0  0
  142.3639   79.2211  220.9798 H   0  0  0  0  0  0  0  0  0  0  0  0
  140.3983   80.2977  224.2257 H   0  0  0  0  0  0  0  0  0  0  0  0
  141.7724   79.0419  224.5199 H   0  0  0  0  0  0  0  0  0  0  0  0
  139.7971   76.3556  222.8286 H   0  0  0  0  0  0  0  0  0  0  0  0
  140.4197   74.7037  221.1547 H   0  0  0  0  0  0  0  0  0  0  0  0
  139.1246   69.6812  222.6028 H   0  0  0  0  0  0  0  0  0  0  0  0
  139.1186   68.1469  224.5562 H   0  0  0  0  0  0  0  0  0  0  0  0
  139.6203   67.7018  226.8789 H   0  0  0  0  0  0  0  0  0  0  0  0
  140.5364   68.4802  229.0376 H   0  0  0  0  0  0  0  0  0  0  0  0
  141.4687   70.7776  229.3017 H   0  0  0  0  0  0  0  0  0  0  0  0
  141.4490   72.2823  227.2942 H   0  0  0  0  0  0  0  0  0  0  0  0
  1  2  2  0
  2  3  1  0
  3  4  1  0
  4  5  1  0
  5  6  2  0
  5  7  1  0
  7  8  1  0
  8  9  1  0
  9 10  1  0
 10 11  1  0
 11 12  1  0
 12 13  2  0
 13 14  1  0
 14 15  2  0
 15 16  1  0
 16 17  1  0
 17 18  1  0
 18 19  1  0
 18 20  1  0
 18 21  1  0
 15 22  1  0
 22 23  2  0
  2 24  1  0
 24 25  2  0
 25 26  1  0
 26 27  2  0
 27 28  1  0
 28 29  2  0
 29 30  1  0
 30 31  2  0
 31 32  1  0
 32 33  2  0
 11  7  1  0
 23 12  1  0
 33 24  1  0
 32 27  1  0
  3 34  1  0
  4 35  1  0
  4 36  1  0
  8 37  1  0
  8 38  1  0
  9 39  1  0
  9 40  1  0
 10 41  1  0
 10 42  1  0
 11 43  1  6
 13 44  1  0
 14 45  1  0
 17 46  1  0
 17 47  1  0
 22 48  1  0
 23 49  1  0
 25 50  1  0
 26 51  1  0
 28 52  1  0
 29 53  1  0
 30 54  1  0
 31 55  1  0
M  END
>  <smiles>  (34) 
O=C(NCC(=O)N1CCCC1c1ccc(OCC(F)(F)F)cc1)c1ccc2ccccc2n1

>  <score_type>  (34) 
oracle

>  <origin>  (34) 
autodockgpu

>  <m_score__min__energy>  (34) 
-8.0399999999999991

>  <m_primary>  (34) 
energy

>  <rmsd>  (34) 
2.820035035148832

>  <m_score__min__rmsd>  (34) 
2.820035035148832

>  <meeko>  (34) 
{"free_energy": -7.91, "intermolecular_energy": -10.29, "internal_energy": -1.56, "cluster_size": 19, "cluster_id": 2, "rank_in_cluster": 5}

>  <energy>  (34) 
-7.54

>  <cluster_rmsd>  (34) 
0.0

>  <cluster>  (34) 
4

$$$$

     RDKit          3D

 55 58  0  0  0  0  0  0  0  0999 V2000
  141.5420   77.4670  217.1620 O   0  0  0  0  0  0  0  0  0  0  0  0
  142.3550   77.2830  218.1160 C   0  0  0  0  0  0  0  0  0  0  0  0
  142.5870   78.4150  218.9670 N   0  0  0  0  0  0  0  0  0  0  0  0
  141.8770   79.6410  218.6560 C   0  0  0  0  0  0  0  0  0  0  0  0
  141.6990   80.4940  219.8540 C   0  0  0  0  0  0  0  0  0  0  0  0
  141.8130   81.7430  219.8410 O   0  0  0  0  0  0  0  0  0  0  0  0
  141.3810   79.8400  221.0760 N   0  0  0  0  0  0  0  0  0  0  0  0
  142.2540   79.4780  222.1800 C   0  0  0  0  0  0  0  0  0  0  0  0
  141.3760   79.7470  223.4080 C   0  0  0  0  0  0  0  0  0  0  0  0
  140.0050   80.0840  222.8420 C   0  0  0  0  0  0  0  0  0  0  0  0
  140.0510   79.3700  221.5070 C   0  0  2  0  0  0  0  0  0  0  0  0
  140.0890   77.8920  221.6380 C   0  0  0  0  0  0  0  0  0  0  0  0
  140.9300   77.0870  220.9150 C   0  0  0  0  0  0  0  0  0  0  0  0
  140.9050   75.7010  221.0970 C   0  0  0  0  0  0  0  0  0  0  0  0
  140.0690   75.0770  221.9780 C   0  0  0  0  0  0  0  0  0  0  0  0
  139.9470   73.7720  222.2520 O   0  0  0  0  0  0  0  0  0  0  0  0
  140.0790   72.6490  221.5240 C   0  0  0  0  0  0  0  0  0  0  0  0
  141.2510   72.4620  220.6210 C   0  0  0  0  0  0  0  0  0  0  0  0
  142.3250   73.1190  221.2630 F   0  0  0  0  0  0  0  0  0  0  0  0
  141.6940   71.1990  220.4080 F   0  0  0  0  0  0  0  0  0  0  0  0
  141.1080   73.1590  219.4260 F   0  0  0  0  0  0  0  0  0  0  0  0
  139.2190   75.9440  222.7030 C   0  0  0  0  0  0  0  0  0  0  0  0
  139.2330   77.2960  222.5350 C   0  0  0  0  0  0  0  0  0  0  0  0
  143.0250   76.0150  218.3550 C   0  0  0  0  0  0  0  0  0  0  0  0
  142.9030   75.0460  217.3800 C   0  0  0  0  0  0  0  0  0  0  0  0
  143.5310   73.8430  217.5950 C   0  0  0  0  0  0  0  0  0  0  0  0
  144.2570   73.6140  218.7420 C   0  0  0  0  0  0  0  0  0  0  0  0
  144.8890   72.4010  218.9560 C   0  0  0  0  0  0  0  0  0  0  0  0
  145.6100   72.2060  220.1230 C   0  0  0  0  0  0  0  0  0  0  0  0
  145.7270   73.1840  221.0950 C   0  0  0  0  0  0  0  0  0  0  0  0
  145.0750   74.3920  220.8420 C   0  0  0  0  0  0  0  0  0  0  0  0
  144.3550   74.6040  219.6910 C   0  0  0  0  0  0  0  0  0  0  0  0
  143.7300   75.7880  219.4660 N   0  0  0  0  0  0  0  0  0  0  0  0
  143.2480   78.3350  219.7760 H   0  0  0  0  0  0  0  0  0  0  0  0
  142.4486   80.2017  217.9017 H   0  0  0  0  0  0  0  0  0  0  0  0
  140.8799   79.3715  218.2776 H   0  0  0  0  0  0  0  0  0  0  0  0
  142.5444   78.4185  222.1247 H   0  0  0  0  0  0  0  0  0  0  0  0
  143.2004   80.0386  222.1894 H   0  0  0  0  0  0  0  0  0  0  0  0
  141.3217   78.8541  224.0481 H   0  0  0  0  0  0  0  0  0  0  0  0
  141.7765   80.5580  224.0340 H   0  0  0  0  0  0  0  0  0  0  0  0
  139.1988   79.6931  223.4801 H   0  0  0  0  0  0  0  0  0  0  0  0
  139.8005   81.1624  222.7691 H   0  0  0  0  0  0  0  0  0  0  0  0
  139.1876   79.5680  220.8549 H   0  0  0  0  0  0  0  0  0  0  0  0
  141.6266   77.5325  220.1895 H   0  0  0  0  0  0  0  0  0  0  0  0
  141.5926   75.0828  220.5012 H   0  0  0  0  0  0  0  0  0  0  0  0
  140.0949   71.8118  222.2374 H   0  0  0  0  0  0  0  0  0  0  0  0
  139.2348   72.7108  220.8215 H   0  0  0  0  0  0  0  0  0  0  0  0
  138.5187   75.5096  223.4316 H   0  0  0  0  0  0  0  0  0  0  0  0
  138.5483   77.9215  223.1266 H   0  0  0  0  0  0  0  0  0  0  0  0
  142.3236   75.2302  216.4633 H   0  0  0  0  0  0  0  0  0  0  0  0
  143.4523   73.0492  216.8376 H   0  0  0  0  0  0  0  0  0  0  0  0
  144.8194   71.5991  218.2062 H   0  0  0  0  0  0  0  0  0  0  0  0
  146.1077   71.2381  220.2827 H   0  0  0  0  0  0  0  0  0  0  0  0
  146.3029   73.0183  222.0175 H   0  0  0  0  0  0  0  0  0  0  0  0
  145.1395   75.1989  221.5868 H   0  0  0  0  0  0  0  0  0  0  0  0
  1  2  2  0
  2  3  1  0
  3  4  1  0
  4  5  1  0
  5  6  2  0
  5  7  1  0
  7  8  1  0
  8  9  1  0
  9 10  1  0
 10 11  1  0
 11 12  1  0
 12 13  2  0
 13 14  1  0
 14 15  2  0
 15 16  1  0
 16 17  1  0
 17 18  1  0
 18 19  1  0
 18 20  1  0
 18 21  1  0
 15 22  1  0
 22 23  2  0
  2 24  1  0
 24 25  2  0
 25 26  1  0
 26 27  2  0
 27 28  1  0
 28 29  2  0
 29 30  1  0
 30 31  2  0
 31 32  1  0
 32 33  2  0
 11  7  1  0
 23 12  1  0
 33 24  1  0
 32 27  1  0
  3 34  1  0
  4 35  1  0
  4 36  1  0
  8 37  1  0
  8 38  1  0
  9 39  1  0
  9 40  1  0
 10 41  1  0
 10 42  1  0
 11 43  1  6
 13 44  1  0
 14 45  1  0
 17 46  1  0
 17 47  1  0
 22 48  1  0
 23 49  1  0
 25 50  1  0
 26 51  1  0
 28 52  1  0
 29 53  1  0
 30 54  1  0
 31 55  1  0
M  END
>  <smiles>  (35) 
O=C(NCC(=O)N1CCCC1c1ccc(OCC(F)(F)F)cc1)c1ccc2ccccc2n1

>  <score_type>  (35) 
oracle

>  <origin>  (35) 
autodockgpu

>  <m_score__min__energy>  (35) 
-8.0399999999999991

>  <m_primary>  (35) 
energy

>  <rmsd>  (35) 
7.726323693961975

>  <m_score__min__rmsd>  (35) 
7.726323693961975

>  <meeko>  (35) 
{"free_energy": -6.4, "intermolecular_energy": -8.78, "internal_energy": -2.8, "cluster_size": 5, "cluster_id": 6, "rank_in_cluster": 3}

>  <energy>  (35) 
-7.53

>  <cluster_rmsd>  (35) 
0.53

>  <cluster>  (35) 
4

$$$$

     RDKit          3D

 55 58  0  0  0  0  0  0  0  0999 V2000
  138.6370   70.6410  221.5100 O   0  0  0  0  0  0  0  0  0  0  0  0
  139.0510   71.3290  222.4910 C   0  0  0  0  0  0  0  0  0  0  0  0
  139.1220   72.7460  222.2760 N   0  0  0  0  0  0  0  0  0  0  0  0
  138.7200   73.2440  220.9750 C   0  0  0  0  0  0  0  0  0  0  0  0
  137.3470   73.8000  220.9970 C   0  0  0  0  0  0  0  0  0  0  0  0
  136.3220   73.1360  220.7080 O   0  0  0  0  0  0  0  0  0  0  0  0
  137.2040   75.1650  221.3680 N   0  0  0  0  0  0  0  0  0  0  0  0
  136.8660   76.3140  220.5440 C   0  0  0  0  0  0  0  0  0  0  0  0
  135.9680   77.1420  221.4700 C   0  0  0  0  0  0  0  0  0  0  0  0
  136.0330   76.4340  222.8140 C   0  0  0  0  0  0  0  0  0  0  0  0
  137.3740   75.7360  222.7180 C   0  0  2  0  0  0  0  0  0  0  0  0
  138.5210   76.6780  222.6930 C   0  0  0  0  0  0  0  0  0  0  0  0
  138.4280   77.9990  223.0430 C   0  0  0  0  0  0  0  0  0  0  0  0
  139.5570   78.8220  222.9920 C   0  0  0  0  0  0  0  0  0  0  0  0
  140.7890   78.3790  222.6040 C   0  0  0  0  0  0  0  0  0  0  0  0
  141.9430   79.0520  222.5150 O   0  0  0  0  0  0  0  0  0  0  0  0
  142.5950   79.8990  223.3320 C   0  0  0  0  0  0  0  0  0  0  0  0
  142.0620   81.2680  223.5890 C   0  0  0  0  0  0  0  0  0  0  0  0
  140.7420   81.0730  224.0550 F   0  0  0  0  0  0  0  0  0  0  0  0
  142.6630   82.0140  224.5470 F   0  0  0  0  0  0  0  0  0  0  0  0
  141.8910   81.9920  222.4140 F   0  0  0  0  0  0  0  0  0  0  0  0
  140.8410   77.0110  222.2500 C   0  0  0  0  0  0  0  0  0  0  0  0
  139.7480   76.1990  222.2950 C   0  0  0  0  0  0  0  0  0  0  0  0
  139.4340   70.7430  223.7650 C   0  0  0  0  0  0  0  0  0  0  0  0
  139.2150   69.3910  223.9270 C   0  0  0  0  0  0  0  0  0  0  0  0
  139.5730   68.8260  225.1270 C   0  0  0  0  0  0  0  0  0  0  0  0
  140.1320   69.5840  226.1320 C   0  0  0  0  0  0  0  0  0  0  0  0
  140.4920   69.0120  227.3400 C   0  0  0  0  0  0  0  0  0  0  0  0
  141.0520   69.8060  228.3280 C   0  0  0  0  0  0  0  0  0  0  0  0
  141.2680   71.1620  228.1570 C   0  0  0  0  0  0  0  0  0  0  0  0
  140.8910   71.7010  226.9250 C   0  0  0  0  0  0  0  0  0  0  0  0
  140.3350   70.9290  225.9330 C   0  0  0  0  0  0  0  0  0  0  0  0
  139.9760   71.4740  224.7430 N   0  0  0  0  0  0  0  0  0  0  0  0
  139.4550   73.3760  223.0430 H   0  0  0  0  0  0  0  0  0  0  0  0
  139.4191   74.0348  220.6653 H   0  0  0  0  0  0  0  0  0  0  0  0
  138.7357   72.4018  220.2676 H   0  0  0  0  0  0  0  0  0  0  0  0
  137.7674   76.8764  220.2591 H   0  0  0  0  0  0  0  0  0  0  0  0
  136.3809   76.0423  219.5949 H   0  0  0  0  0  0  0  0  0  0  0  0
  136.3457   78.1715  221.5563 H   0  0  0  0  0  0  0  0  0  0  0  0
  134.9382   77.2161  221.0904 H   0  0  0  0  0  0  0  0  0  0  0  0
  136.0111   77.1508  223.6481 H   0  0  0  0  0  0  0  0  0  0  0  0
  135.1868   75.7586  223.0085 H   0  0  0  0  0  0  0  0  0  0  0  0
  137.5931   75.0546  223.5533 H   0  0  0  0  0  0  0  0  0  0  0  0
  137.4615   78.4138  223.3654 H   0  0  0  0  0  0  0  0  0  0  0  0
  139.4475   79.8784  223.2785 H   0  0  0  0  0  0  0  0  0  0  0  0
  142.6663   79.4005  224.3100 H   0  0  0  0  0  0  0  0  0  0  0  0
  143.5292   80.0972  222.7862 H   0  0  0  0  0  0  0  0  0  0  0  0
  141.8021   76.5856  221.9254 H   0  0  0  0  0  0  0  0  0  0  0  0
  139.8481   75.1418  222.0081 H   0  0  0  0  0  0  0  0  0  0  0  0
  138.7693   68.7862  223.1235 H   0  0  0  0  0  0  0  0  0  0  0  0
  139.4105   67.7500  225.2879 H   0  0  0  0  0  0  0  0  0  0  0  0
  140.3350   67.9373  227.5140 H   0  0  0  0  0  0  0  0  0  0  0  0
  141.3354   69.3410  229.2838 H   0  0  0  0  0  0  0  0  0  0  0  0
  141.7129   71.7823  228.9491 H   0  0  0  0  0  0  0  0  0  0  0  0
  141.0435   72.7751  226.7432 H   0  0  0  0  0  0  0  0  0  0  0  0
  1  2  2  0
  2  3  1  0
  3  4  1  0
  4  5  1  0
  5  6  2  0
  5  7  1  0
  7  8  1  0
  8  9  1  0
  9 10  1  0
 10 11  1  0
 11 12  1  0
 12 13  2  0
 13 14  1  0
 14 15  2  0
 15 16  1  0
 16 17  1  0
 17 18  1  0
 18 19  1  0
 18 20  1  0
 18 21  1  0
 15 22  1  0
 22 23  2  0
  2 24  1  0
 24 25  2  0
 25 26  1  0
 26 27  2  0
 27 28  1  0
 28 29  2  0
 29 30  1  0
 30 31  2  0
 31 32  1  0
 32 33  2  0
 11  7  1  0
 23 12  1  0
 33 24  1  0
 32 27  1  0
  3 34  1  0
  4 35  1  0
  4 36  1  0
  8 37  1  0
  8 38  1  0
  9 39  1  0
  9 40  1  0
 10 41  1  0
 10 42  1  0
 11 43  1  1
 13 44  1  0
 14 45  1  0
 17 46  1  0
 17 47  1  0
 22 48  1  0
 23 49  1  0
 25 50  1  0
 26 51  1  0
 28 52  1  0
 29 53  1  0
 30 54  1  0
 31 55  1  0
M  END
>  <smiles>  (36) 
O=C(NCC(=O)N1CCCC1c1ccc(OCC(F)(F)F)cc1)c1ccc2ccccc2n1

>  <score_type>  (36) 
oracle

>  <origin>  (36) 
autodockgpu

>  <m_score__min__energy>  (36) 
-8.0399999999999991

>  <m_primary>  (36) 
energy

>  <rmsd>  (36) 
3.252883408303338

>  <m_score__min__rmsd>  (36) 
3.252883408303338

>  <meeko>  (36) 
{"free_energy": -7.24, "intermolecular_energy": -9.62, "internal_energy": -1.64, "cluster_size": 4, "cluster_id": 3, "rank_in_cluster": 2}

>  <energy>  (36) 
-7.51

>  <cluster_rmsd>  (36) 
0.08

>  <cluster>  (36) 
4

$$$$

     RDKit          3D

 55 58  0  0  0  0  0  0  0  0999 V2000
  141.8370   77.7670  217.2260 O   0  0  0  0  0  0  0  0  0  0  0  0
  142.4700   77.4480  218.2760 C   0  0  0  0  0  0  0  0  0  0  0  0
  142.5630   78.4650  219.2840 N   0  0  0  0  0  0  0  0  0  0  0  0
  141.9320   79.7410  219.0040 C   0  0  0  0  0  0  0  0  0  0  0  0
  141.7240   80.5360  220.2360 C   0  0  0  0  0  0  0  0  0  0  0  0
  141.8000   81.7870  220.2790 O   0  0  0  0  0  0  0  0  0  0  0  0
  141.4220   79.8210  221.4280 N   0  0  0  0  0  0  0  0  0  0  0  0
  142.3170   79.3540  222.4740 C   0  0  0  0  0  0  0  0  0  0  0  0
  141.4960   79.5820  223.7480 C   0  0  0  0  0  0  0  0  0  0  0  0
  140.1220   80.0090  223.2570 C   0  0  0  0  0  0  0  0  0  0  0  0
  140.0890   79.3790  221.8800 C   0  0  2  0  0  0  0  0  0  0  0  0
  140.0690   77.8960  221.9180 C   0  0  0  0  0  0  0  0  0  0  0  0
  141.0020   77.1070  221.3000 C   0  0  0  0  0  0  0  0  0  0  0  0
  140.9120   75.7130  221.3840 C   0  0  0  0  0  0  0  0  0  0  0  0
  139.9220   75.0670  222.0660 C   0  0  0  0  0  0  0  0  0  0  0  0
  139.7220   73.7530  222.2290 O   0  0  0  0  0  0  0  0  0  0  0  0
  140.5400   72.6880  222.3120 C   0  0  0  0  0  0  0  0  0  0  0  0
  141.4160   72.3120  221.1660 C   0  0  0  0  0  0  0  0  0  0  0  0
  140.8990   73.0160  220.0550 F   0  0  0  0  0  0  0  0  0  0  0  0
  142.7230   72.6640  221.2240 F   0  0  0  0  0  0  0  0  0  0  0  0
  141.2640   70.9770  220.8070 F   0  0  0  0  0  0  0  0  0  0  0  0
  138.9790   75.9180  222.6890 C   0  0  0  0  0  0  0  0  0  0  0  0
  139.0560   77.2770  222.6140 C   0  0  0  0  0  0  0  0  0  0  0  0
  143.0730   76.1400  218.4730 C   0  0  0  0  0  0  0  0  0  0  0  0
  142.8260   75.1830  217.5110 C   0  0  0  0  0  0  0  0  0  0  0  0
  143.3900   73.9420  217.6860 C   0  0  0  0  0  0  0  0  0  0  0  0
  144.1740   73.6660  218.7830 C   0  0  0  0  0  0  0  0  0  0  0  0
  144.7420   72.4150  218.9580 C   0  0  0  0  0  0  0  0  0  0  0  0
  145.5260   72.1730  220.0750 C   0  0  0  0  0  0  0  0  0  0  0  0
  145.7680   73.1400  221.0350 C   0  0  0  0  0  0  0  0  0  0  0  0
  145.1780   74.3870  220.8230 C   0  0  0  0  0  0  0  0  0  0  0  0
  144.3980   74.6460  219.7210 C   0  0  0  0  0  0  0  0  0  0  0  0
  143.8340   75.8670  219.5360 N   0  0  0  0  0  0  0  0  0  0  0  0
  143.0710   78.2720  220.1780 H   0  0  0  0  0  0  0  0  0  0  0  0
  142.5735   80.3118  218.3165 H   0  0  0  0  0  0  0  0  0  0  0  0
  140.9473   79.5433  218.5554 H   0  0  0  0  0  0  0  0  0  0  0  0
  142.5582   78.2888  222.3431 H   0  0  0  0  0  0  0  0  0  0  0  0
  143.2870   79.8726  222.4816 H   0  0  0  0  0  0  0  0  0  0  0  0
  141.4262   78.6541  224.3346 H   0  0  0  0  0  0  0  0  0  0  0  0
  141.9533   80.3358  224.4058 H   0  0  0  0  0  0  0  0  0  0  0  0
  139.3232   79.6119  223.9006 H   0  0  0  0  0  0  0  0  0  0  0  0
  139.9617   81.0973  223.2581 H   0  0  0  0  0  0  0  0  0  0  0  0
  139.2116   79.6523  221.2754 H   0  0  0  0  0  0  0  0  0  0  0  0
  141.8248   77.5703  220.7358 H   0  0  0  0  0  0  0  0  0  0  0  0
  141.6770   75.1081  220.8752 H   0  0  0  0  0  0  0  0  0  0  0  0
  141.2044   72.8679  223.1700 H   0  0  0  0  0  0  0  0  0  0  0  0
  139.8383   71.8431  222.3727 H   0  0  0  0  0  0  0  0  0  0  0  0
  138.1518   75.4657  223.2557 H   0  0  0  0  0  0  0  0  0  0  0  0
  138.2947   77.8898  223.1189 H   0  0  0  0  0  0  0  0  0  0  0  0
  142.1996   75.4052  216.6345 H   0  0  0  0  0  0  0  0  0  0  0  0
  143.2119   73.1564  216.9370 H   0  0  0  0  0  0  0  0  0  0  0  0
  144.5723   71.6202  218.2167 H   0  0  0  0  0  0  0  0  0  0  0  0
  145.9722   71.1758  220.2032 H   0  0  0  0  0  0  0  0  0  0  0  0
  146.3919   72.9367  221.9178 H   0  0  0  0  0  0  0  0  0  0  0  0
  145.3421   75.1869  221.5601 H   0  0  0  0  0  0  0  0  0  0  0  0
  1  2  2  0
  2  3  1  0
  3  4  1  0
  4  5  1  0
  5  6  2  0
  5  7  1  0
  7  8  1  0
  8  9  1  0
  9 10  1  0
 10 11  1  0
 11 12  1  0
 12 13  2  0
 13 14  1  0
 14 15  2  0
 15 16  1  0
 16 17  1  0
 17 18  1  0
 18 19  1  0
 18 20  1  0
 18 21  1  0
 15 22  1  0
 22 23  2  0
  2 24  1  0
 24 25  2  0
 25 26  1  0
 26 27  2  0
 27 28  1  0
 28 29  2  0
 29 30  1  0
 30 31  2  0
 31 32  1  0
 32 33  2  0
 11  7  1  0
 23 12  1  0
 33 24  1  0
 32 27  1  0
  3 34  1  0
  4 35  1  0
  4 36  1  0
  8 37  1  0
  8 38  1  0
  9 39  1  0
  9 40  1  0
 10 41  1  0
 10 42  1  0
 11 43  1  6
 13 44  1  0
 14 45  1  0
 17 46  1  0
 17 47  1  0
 22 48  1  0
 23 49  1  0
 25 50  1  0
 26 51  1  0
 28 52  1  0
 29 53  1  0
 30 54  1  0
 31 55  1  0
M  END
>  <smiles>  (37) 
O=C(NCC(=O)N1CCCC1c1ccc(OCC(F)(F)F)cc1)c1ccc2ccccc2n1

>  <score_type>  (37) 
oracle

>  <origin>  (37) 
autodockgpu

>  <m_score__min__energy>  (37) 
-8.0399999999999991

>  <m_primary>  (37) 
energy

>  <rmsd>  (37) 
7.769032099641518

>  <m_score__min__rmsd>  (37) 
7.769032099641518

>  <meeko>  (37) 
{"free_energy": -6.47, "intermolecular_energy": -8.85, "internal_energy": -2.57, "cluster_size": 5, "cluster_id": 6, "rank_in_cluster": 2}

>  <energy>  (37) 
-7.21

>  <cluster_rmsd>  (37) 
1.13

>  <cluster>  (37) 
4

$$$$

     RDKit          3D

 55 58  0  0  0  0  0  0  0  0999 V2000
  139.1900   70.6060  221.3900 O   0  0  0  0  0  0  0  0  0  0  0  0
  139.3740   71.2840  222.4450 C   0  0  0  0  0  0  0  0  0  0  0  0
  139.3690   72.7090  222.2810 N   0  0  0  0  0  0  0  0  0  0  0  0
  139.1580   73.2270  220.9430 C   0  0  0  0  0  0  0  0  0  0  0  0
  140.3370   73.0050  220.0730 C   0  0  0  0  0  0  0  0  0  0  0  0
  140.5330   71.9510  219.4220 O   0  0  0  0  0  0  0  0  0  0  0  0
  141.2870   74.0590  219.9860 N   0  0  0  0  0  0  0  0  0  0  0  0
  142.6620   74.1010  220.4570 C   0  0  0  0  0  0  0  0  0  0  0  0
  143.3750   74.8870  219.3510 C   0  0  0  0  0  0  0  0  0  0  0  0
  142.2620   75.3630  218.4300 C   0  0  0  0  0  0  0  0  0  0  0  0
  141.0810   75.3880  219.3780 C   0  0  2  0  0  0  0  0  0  0  0  0
  141.2060   76.4180  220.4390 C   0  0  0  0  0  0  0  0  0  0  0  0
  141.8110   77.6330  220.2510 C   0  0  0  0  0  0  0  0  0  0  0  0
  141.8880   78.5510  221.3040 C   0  0  0  0  0  0  0  0  0  0  0  0
  141.3820   78.3070  222.5480 C   0  0  0  0  0  0  0  0  0  0  0  0
  141.3830   79.0920  223.6320 O   0  0  0  0  0  0  0  0  0  0  0  0
  141.1030   80.3900  223.8460 C   0  0  0  0  0  0  0  0  0  0  0  0
  142.1120   81.4450  223.5390 C   0  0  0  0  0  0  0  0  0  0  0  0
  143.2470   80.7490  223.0660 F   0  0  0  0  0  0  0  0  0  0  0  0
  141.8200   82.3380  222.5630 F   0  0  0  0  0  0  0  0  0  0  0  0
  142.5720   82.0800  224.6880 F   0  0  0  0  0  0  0  0  0  0  0  0
  140.7670   77.0430  222.6990 C   0  0  0  0  0  0  0  0  0  0  0  0
  140.6860   76.1390  221.6810 C   0  0  0  0  0  0  0  0  0  0  0  0
  139.5780   70.6790  223.7510 C   0  0  0  0  0  0  0  0  0  0  0  0
  139.2170   69.3550  223.8950 C   0  0  0  0  0  0  0  0  0  0  0  0
  139.4050   68.7720  225.1250 C   0  0  0  0  0  0  0  0  0  0  0  0
  139.9360   69.4860  226.1760 C   0  0  0  0  0  0  0  0  0  0  0  0
  140.1240   68.8970  227.4140 C   0  0  0  0  0  0  0  0  0  0  0  0
  140.6610   69.6460  228.4500 C   0  0  0  0  0  0  0  0  0  0  0  0
  141.0200   70.9740  228.2960 C   0  0  0  0  0  0  0  0  0  0  0  0
  140.8140   71.5310  227.0330 C   0  0  0  0  0  0  0  0  0  0  0  0
  140.2830   70.8040  225.9950 C   0  0  0  0  0  0  0  0  0  0  0  0
  140.0920   71.3670  224.7740 N   0  0  0  0  0  0  0  0  0  0  0  0
  139.5150   73.3320  223.1100 H   0  0  0  0  0  0  0  0  0  0  0  0
  138.2879   72.7214  220.4989 H   0  0  0  0  0  0  0  0  0  0  0  0
  138.9897   74.3113  221.0195 H   0  0  0  0  0  0  0  0  0  0  0  0
  142.7343   74.6219  221.4231 H   0  0  0  0  0  0  0  0  0  0  0  0
  143.0937   73.1043  220.6310 H   0  0  0  0  0  0  0  0  0  0  0  0
  143.9199   75.7436  219.7745 H   0  0  0  0  0  0  0  0  0  0  0  0
  144.1182   74.2738  218.8202 H   0  0  0  0  0  0  0  0  0  0  0  0
  142.4746   76.3636  218.0254 H   0  0  0  0  0  0  0  0  0  0  0  0
  142.1125   74.7321  217.5414 H   0  0  0  0  0  0  0  0  0  0  0  0
  140.1157   75.6024  218.8961 H   0  0  0  0  0  0  0  0  0  0  0  0
  142.2374   77.8873  219.2694 H   0  0  0  0  0  0  0  0  0  0  0  0
  142.3807   79.5172  221.1203 H   0  0  0  0  0  0  0  0  0  0  0  0
  140.2115   80.6228  223.2451 H   0  0  0  0  0  0  0  0  0  0  0  0
  141.0139   80.4455  224.9410 H   0  0  0  0  0  0  0  0  0  0  0  0
  140.3368   76.7782  223.6761 H   0  0  0  0  0  0  0  0  0  0  0  0
  140.1962   75.1698  221.8566 H   0  0  0  0  0  0  0  0  0  0  0  0
  138.7934   68.7860  223.0543 H   0  0  0  0  0  0  0  0  0  0  0  0
  139.1269   67.7180  225.2725 H   0  0  0  0  0  0  0  0  0  0  0  0
  139.8498   67.8439  227.5748 H   0  0  0  0  0  0  0  0  0  0  0  0
  140.8070   69.1676  229.4297 H   0  0  0  0  0  0  0  0  0  0  0  0
  141.4450   71.5591  229.1249 H   0  0  0  0  0  0  0  0  0  0  0  0
  141.0848   72.5836  226.8635 H   0  0  0  0  0  0  0  0  0  0  0  0
  1  2  2  0
  2  3  1  0
  3  4  1  0
  4  5  1  0
  5  6  2  0
  5  7  1  0
  7  8  1  0
  8  9  1  0
  9 10  1  0
 10 11  1  0
 11 12  1  0
 12 13  2  0
 13 14  1  0
 14 15  2  0
 15 16  1  0
 16 17  1  0
 17 18  1  0
 18 19  1  0
 18 20  1  0
 18 21  1  0
 15 22  1  0
 22 23  2  0
  2 24  1  0
 24 25  2  0
 25 26  1  0
 26 27  2  0
 27 28  1  0
 28 29  2  0
 29 30  1  0
 30 31  2  0
 31 32  1  0
 32 33  2  0
 11  7  1  0
 23 12  1  0
 33 24  1  0
 32 27  1  0
  3 34  1  0
  4 35  1  0
  4 36  1  0
  8 37  1  0
  8 38  1  0
  9 39  1  0
  9 40  1  0
 10 41  1  0
 10 42  1  0
 11 43  1  6
 13 44  1  0
 14 45  1  0
 17 46  1  0
 17 47  1  0
 22 48  1  0
 23 49  1  0
 25 50  1  0
 26 51  1  0
 28 52  1  0
 29 53  1  0
 30 54  1  0
 31 55  1  0
M  END
>  <smiles>  (38) 
O=C(NCC(=O)N1CCCC1c1ccc(OCC(F)(F)F)cc1)c1ccc2ccccc2n1

>  <score_type>  (38) 
oracle

>  <origin>  (38) 
autodockgpu

>  <m_score__min__energy>  (38) 
-8.0399999999999991

>  <m_primary>  (38) 
energy

>  <rmsd>  (38) 
2.1972842273929154

>  <m_score__min__rmsd>  (38) 
2.1972842273929154

>  <meeko>  (38) 
{"free_energy": -7.56, "intermolecular_energy": -9.95, "internal_energy": -1.59, "cluster_size": 19, "cluster_id": 2, "rank_in_cluster": 13}

>  <energy>  (38) 
-7.27

>  <cluster_rmsd>  (38) 
0.0

>  <cluster>  (38) 
5

$$$$

     RDKit          3D

 55 58  0  0  0  0  0  0  0  0999 V2000
  139.4090   70.3170  221.1840 O   0  0  0  0  0  0  0  0  0  0  0  0
  139.7080   71.1180  222.1190 C   0  0  0  0  0  0  0  0  0  0  0  0
  139.9840   72.4690  221.7230 N   0  0  0  0  0  0  0  0  0  0  0  0
  139.8970   72.7800  220.3090 C   0  0  0  0  0  0  0  0  0  0  0  0
  141.2350   72.9000  219.6860 C   0  0  0  0  0  0  0  0  0  0  0  0
  141.8190   71.9550  219.1040 O   0  0  0  0  0  0  0  0  0  0  0  0
  141.8780   74.1670  219.7650 N   0  0  0  0  0  0  0  0  0  0  0  0
  143.1100   74.5340  220.4420 C   0  0  0  0  0  0  0  0  0  0  0  0
  143.7430   75.5390  219.4730 C   0  0  0  0  0  0  0  0  0  0  0  0
  142.6880   75.7640  218.4010 C   0  0  0  0  0  0  0  0  0  0  0  0
  141.4190   75.4300  219.1560 C   0  0  2  0  0  0  0  0  0  0  0  0
  141.1140   76.3960  220.2410 C   0  0  0  0  0  0  0  0  0  0  0  0
  140.7390   76.0260  221.5050 C   0  0  0  0  0  0  0  0  0  0  0  0
  140.4690   77.0000  222.4720 C   0  0  0  0  0  0  0  0  0  0  0  0
  140.5590   78.3400  222.2300 C   0  0  0  0  0  0  0  0  0  0  0  0
  140.3360   79.3680  223.0570 O   0  0  0  0  0  0  0  0  0  0  0  0
  141.1280   80.1320  223.8310 C   0  0  0  0  0  0  0  0  0  0  0  0
  142.4810   80.5460  223.3590 C   0  0  0  0  0  0  0  0  0  0  0  0
  142.2490   81.3540  222.2230 F   0  0  0  0  0  0  0  0  0  0  0  0
  143.2340   81.3120  224.1840 F   0  0  0  0  0  0  0  0  0  0  0  0
  143.2100   79.4730  222.8550 F   0  0  0  0  0  0  0  0  0  0  0  0
  140.9490   78.6790  220.9130 C   0  0  0  0  0  0  0  0  0  0  0  0
  141.2150   77.7390  219.9610 C   0  0  0  0  0  0  0  0  0  0  0  0
  139.7720   70.7180  223.5160 C   0  0  0  0  0  0  0  0  0  0  0  0
  139.2110   69.5030  223.8480 C   0  0  0  0  0  0  0  0  0  0  0  0
  139.2650   69.1140  225.1650 C   0  0  0  0  0  0  0  0  0  0  0  0
  139.8590   69.9100  226.1180 C   0  0  0  0  0  0  0  0  0  0  0  0
  139.9130   69.5170  227.4440 C   0  0  0  0  0  0  0  0  0  0  0  0
  140.5180   70.3450  228.3760 C   0  0  0  0  0  0  0  0  0  0  0  0
  141.0780   71.5630  228.0330 C   0  0  0  0  0  0  0  0  0  0  0  0
  141.0030   71.9240  226.6870 C   0  0  0  0  0  0  0  0  0  0  0  0
  140.4070   71.1160  225.7490 C   0  0  0  0  0  0  0  0  0  0  0  0
  140.3460   71.4880  224.4440 N   0  0  0  0  0  0  0  0  0  0  0  0
  140.2370   73.1850  222.4430 H   0  0  0  0  0  0  0  0  0  0  0  0
  139.3395   71.9784  219.8023 H   0  0  0  0  0  0  0  0  0  0  0  0
  139.3844   73.7476  220.2040 H   0  0  0  0  0  0  0  0  0  0  0  0
  142.9029   74.9998  221.4168 H   0  0  0  0  0  0  0  0  0  0  0  0
  143.7588   73.6736  220.6627 H   0  0  0  0  0  0  0  0  0  0  0  0
  143.9767   76.4813  219.9902 H   0  0  0  0  0  0  0  0  0  0  0  0
  144.6898   75.1696  219.0522 H   0  0  0  0  0  0  0  0  0  0  0  0
  142.6856   76.8070  218.0515 H   0  0  0  0  0  0  0  0  0  0  0  0
  142.8390   75.1675  217.4892 H   0  0  0  0  0  0  0  0  0  0  0  0
  140.5109   75.4152  218.5354 H   0  0  0  0  0  0  0  0  0  0  0  0
  140.6498   74.9598  221.7606 H   0  0  0  0  0  0  0  0  0  0  0  0
  140.1692   76.6694  223.4774 H   0  0  0  0  0  0  0  0  0  0  0  0
  140.5696   81.0573  224.0357 H   0  0  0  0  0  0  0  0  0  0  0  0
  141.3555   79.4697  224.6793 H   0  0  0  0  0  0  0  0  0  0  0  0
  141.0413   79.7422  220.6463 H   0  0  0  0  0  0  0  0  0  0  0  0
  141.5152   78.0602  218.9527 H   0  0  0  0  0  0  0  0  0  0  0  0
  138.7369   68.8674  223.0856 H   0  0  0  0  0  0  0  0  0  0  0  0
  138.8261   68.1502  225.4626 H   0  0  0  0  0  0  0  0  0  0  0  0
  139.4792   68.5553  227.7555 H   0  0  0  0  0  0  0  0  0  0  0  0
  140.5544   70.0222  229.4270 H   0  0  0  0  0  0  0  0  0  0  0  0
  141.5566   72.2119  228.7812 H   0  0  0  0  0  0  0  0  0  0  0  0
  141.4340   72.8843  226.3674 H   0  0  0  0  0  0  0  0  0  0  0  0
  1  2  2  0
  2  3  1  0
  3  4  1  0
  4  5  1  0
  5  6  2  0
  5  7  1  0
  7  8  1  0
  8  9  1  0
  9 10  1  0
 10 11  1  0
 11 12  1  0
 12 13  2  0
 13 14  1  0
 14 15  2  0
 15 16  1  0
 16 17  1  0
 17 18  1  0
 18 19  1  0
 18 20  1  0
 18 21  1  0
 15 22  1  0
 22 23  2  0
  2 24  1  0
 24 25  2  0
 25 26  1  0
 26 27  2  0
 27 28  1  0
 28 29  2  0
 29 30  1  0
 30 31  2  0
 31 32  1  0
 32 33  2  0
 11  7  1  0
 23 12  1  0
 33 24  1  0
 32 27  1  0
  3 34  1  0
  4 35  1  0
  4 36  1  0
  8 37  1  0
  8 38  1  0
  9 39  1  0
  9 40  1  0
 10 41  1  0
 10 42  1  0
 11 43  1  6
 13 44  1  0
 14 45  1  0
 17 46  1  0
 17 47  1  0
 22 48  1  0
 23 49  1  0
 25 50  1  0
 26 51  1  0
 28 52  1  0
 29 53  1  0
 30 54  1  0
 31 55  1  0
M  END
>  <smiles>  (39) 
O=C(NCC(=O)N1CCCC1c1ccc(OCC(F)(F)F)cc1)c1ccc2ccccc2n1

>  <score_type>  (39) 
oracle

>  <origin>  (39) 
autodockgpu

>  <m_score__min__energy>  (39) 
-8.0399999999999991

>  <m_primary>  (39) 
energy

>  <rmsd>  (39) 
2.4407119141809424

>  <m_score__min__rmsd>  (39) 
2.4407119141809424

>  <meeko>  (39) 
{"free_energy": -7.02, "intermolecular_energy": -9.4, "internal_energy": -1.65, "cluster_size": 19, "cluster_id": 2, "rank_in_cluster": 19}

>  <energy>  (39) 
-7.08

>  <cluster_rmsd>  (39) 
1.54

>  <cluster>  (39) 
5

$$$$

     RDKit          3D

 55 58  0  0  0  0  0  0  0  0999 V2000
  139.9900   71.4520  221.2880 O   0  0  0  0  0  0  0  0  0  0  0  0
  139.8570   72.0310  222.4070 C   0  0  0  0  0  0  0  0  0  0  0  0
  139.6420   73.4490  222.3570 N   0  0  0  0  0  0  0  0  0  0  0  0
  139.6000   74.0720  221.0480 C   0  0  0  0  0  0  0  0  0  0  0  0
  138.2190   74.4360  220.6540 C   0  0  0  0  0  0  0  0  0  0  0  0
  137.6850   74.0770  219.5780 O   0  0  0  0  0  0  0  0  0  0  0  0
  137.4750   75.2390  221.5620 N   0  0  0  0  0  0  0  0  0  0  0  0
  137.9490   76.0800  222.6490 C   0  0  0  0  0  0  0  0  0  0  0  0
  137.0090   77.2900  222.5750 C   0  0  0  0  0  0  0  0  0  0  0  0
  135.9690   76.9130  221.5300 C   0  0  0  0  0  0  0  0  0  0  0  0
  136.0090   75.4010  221.6010 C   0  0  2  0  0  0  0  0  0  0  0  0
  135.5080   74.8650  222.8920 C   0  0  0  0  0  0  0  0  0  0  0  0
  135.8780   73.6510  223.4050 C   0  0  0  0  0  0  0  0  0  0  0  0
  135.3600   73.2170  224.6300 C   0  0  0  0  0  0  0  0  0  0  0  0
  134.4790   73.9500  225.3710 C   0  0  0  0  0  0  0  0  0  0  0  0
  133.9150   73.6600  226.5500 O   0  0  0  0  0  0  0  0  0  0  0  0
  132.9710   72.7860  226.9430 C   0  0  0  0  0  0  0  0  0  0  0  0
  131.6870   73.2670  227.5280 C   0  0  0  0  0  0  0  0  0  0  0  0
  130.8250   73.4650  226.4270 F   0  0  0  0  0  0  0  0  0  0  0  0
  131.0120   72.4300  228.3530 F   0  0  0  0  0  0  0  0  0  0  0  0
  131.8080   74.5370  228.0820 F   0  0  0  0  0  0  0  0  0  0  0  0
  134.1230   75.1970  224.8060 C   0  0  0  0  0  0  0  0  0  0  0  0
  134.6210   75.6310  223.6130 C   0  0  0  0  0  0  0  0  0  0  0  0
  139.9130   71.3250  223.6770 C   0  0  0  0  0  0  0  0  0  0  0  0
  139.4100   70.0410  223.7050 C   0  0  0  0  0  0  0  0  0  0  0  0
  139.4580   69.3630  224.9000 C   0  0  0  0  0  0  0  0  0  0  0  0
  139.9880   69.9460  226.0280 C   0  0  0  0  0  0  0  0  0  0  0  0
  140.0350   69.2620  227.2300 C   0  0  0  0  0  0  0  0  0  0  0  0
  140.5760   69.8820  228.3450 C   0  0  0  0  0  0  0  0  0  0  0  0
  141.0770   71.1710  228.3080 C   0  0  0  0  0  0  0  0  0  0  0  0
  141.0120   71.8270  227.0780 C   0  0  0  0  0  0  0  0  0  0  0  0
  140.4790   71.2290  225.9610 C   0  0  0  0  0  0  0  0  0  0  0  0
  140.4260   71.8870  224.7740 N   0  0  0  0  0  0  0  0  0  0  0  0
  139.5220   73.9920  223.2450 H   0  0  0  0  0  0  0  0  0  0  0  0
  140.2161   74.9831  221.0677 H   0  0  0  0  0  0  0  0  0  0  0  0
  139.9849   73.3491  220.3137 H   0  0  0  0  0  0  0  0  0  0  0  0
  137.8577   75.5656  223.6170 H   0  0  0  0  0  0  0  0  0  0  0  0
  139.0123   76.3478  222.5615 H   0  0  0  0  0  0  0  0  0  0  0  0
  136.5314   77.4695  223.5495 H   0  0  0  0  0  0  0  0  0  0  0  0
  137.5437   78.2149  222.3129 H   0  0  0  0  0  0  0  0  0  0  0  0
  134.9744   77.3020  221.7935 H   0  0  0  0  0  0  0  0  0  0  0  0
  136.1690   77.3217  220.5285 H   0  0  0  0  0  0  0  0  0  0  0  0
  135.4035   74.8936  220.8356 H   0  0  0  0  0  0  0  0  0  0  0  0
  136.5849   73.0147  222.8523 H   0  0  0  0  0  0  0  0  0  0  0  0
  135.6784   72.2369  225.0148 H   0  0  0  0  0  0  0  0  0  0  0  0
  132.7088   72.1873  226.0582 H   0  0  0  0  0  0  0  0  0  0  0  0
  133.4494   72.2713  227.7893 H   0  0  0  0  0  0  0  0  0  0  0  0
  133.4170   75.8417  225.3501 H   0  0  0  0  0  0  0  0  0  0  0  0
  134.3084   76.6099  223.2205 H   0  0  0  0  0  0  0  0  0  0  0  0
  138.9855   69.5759  222.8031 H   0  0  0  0  0  0  0  0  0  0  0  0
  139.0659   68.3367  224.9553 H   0  0  0  0  0  0  0  0  0  0  0  0
  139.6464   68.2353  227.2998 H   0  0  0  0  0  0  0  0  0  0  0  0
  140.6083   69.3285  229.2951 H   0  0  0  0  0  0  0  0  0  0  0  0
  141.5036   71.6529  229.2001 H   0  0  0  0  0  0  0  0  0  0  0  0
  141.3990   72.8537  227.0000 H   0  0  0  0  0  0  0  0  0  0  0  0
  1  2  2  0
  2  3  1  0
  3  4  1  0
  4  5  1  0
  5  6  2  0
  5  7  1  0
  7  8  1  0
  8  9  1  0
  9 10  1  0
 10 11  1  0
 11 12  1  0
 12 13  2  0
 13 14  1  0
 14 15  2  0
 15 16  1  0
 16 17  1  0
 17 18  1  0
 18 19  1  0
 18 20  1  0
 18 21  1  0
 15 22  1  0
 22 23  2  0
  2 24  1  0
 24 25  2  0
 25 26  1  0
 26 27  2  0
 27 28  1  0
 28 29  2  0
 29 30  1  0
 30 31  2  0
 31 32  1  0
 32 33  2  0
 11  7  1  0
 23 12  1  0
 33 24  1  0
 32 27  1  0
  3 34  1  0
  4 35  1  0
  4 36  1  0
  8 37  1  0
  8 38  1  0
  9 39  1  0
  9 40  1  0
 10 41  1  0
 10 42  1  0
 11 43  1  6
 13 44  1  0
 14 45  1  0
 17 46  1  0
 17 47  1  0
 22 48  1  0
 23 49  1  0
 25 50  1  0
 26 51  1  0
 28 52  1  0
 29 53  1  0
 30 54  1  0
 31 55  1  0
M  END
>  <smiles>  (40) 
O=C(NCC(=O)N1CCCC1c1ccc(OCC(F)(F)F)cc1)c1ccc2ccccc2n1

>  <score_type>  (40) 
oracle

>  <origin>  (40) 
autodockgpu

>  <m_score__min__energy>  (40) 
-8.0399999999999991

>  <m_primary>  (40) 
energy

>  <rmsd>  (40) 
3.509947419480257

>  <m_score__min__rmsd>  (40) 
3.509947419480257

>  <meeko>  (40) 
{"free_energy": -7.21, "intermolecular_energy": -9.6, "internal_energy": -1.76, "cluster_size": 4, "cluster_id": 4, "rank_in_cluster": 4}

>  <energy>  (40) 
-6.51

>  <cluster_rmsd>  (40) 
0.0

>  <cluster>  (40) 
6

$$$$

     RDKit          3D

 55 58  0  0  0  0  0  0  0  0999 V2000
  140.4500   71.3760  221.9510 O   0  0  0  0  0  0  0  0  0  0  0  0
  139.6080   71.3460  222.8970 C   0  0  0  0  0  0  0  0  0  0  0  0
  138.5230   72.2790  222.8000 N   0  0  0  0  0  0  0  0  0  0  0  0
  138.4970   73.1540  221.6430 C   0  0  0  0  0  0  0  0  0  0  0  0
  139.4470   74.2810  221.7830 C   0  0  0  0  0  0  0  0  0  0  0  0
  140.6670   74.1360  222.0340 O   0  0  0  0  0  0  0  0  0  0  0  0
  138.9260   75.5950  221.6190 N   0  0  0  0  0  0  0  0  0  0  0  0
  138.7200   76.3580  220.3990 C   0  0  0  0  0  0  0  0  0  0  0  0
  137.4030   77.0910  220.6780 C   0  0  0  0  0  0  0  0  0  0  0  0
  137.0850   76.7840  222.1330 C   0  0  0  0  0  0  0  0  0  0  0  0
  138.4660   76.5030  222.6870 C   0  0  2  0  0  0  0  0  0  0  0  0
  139.3430   77.7000  222.7010 C   0  0  0  0  0  0  0  0  0  0  0  0
  140.6710   77.6730  222.3690 C   0  0  0  0  0  0  0  0  0  0  0  0
  141.4300   78.8480  222.4080 C   0  0  0  0  0  0  0  0  0  0  0  0
  140.9160   80.0590  222.7680 C   0  0  0  0  0  0  0  0  0  0  0  0
  141.5220   81.2500  222.8430 O   0  0  0  0  0  0  0  0  0  0  0  0
  141.5100   82.3540  222.0740 C   0  0  0  0  0  0  0  0  0  0  0  0
  140.4070   82.5880  221.0980 C   0  0  0  0  0  0  0  0  0  0  0  0
  140.7490   83.7820  220.4270 F   0  0  0  0  0  0  0  0  0  0  0  0
  140.2260   81.6740  220.1140 F   0  0  0  0  0  0  0  0  0  0  0  0
  139.2060   82.8980  221.7300 F   0  0  0  0  0  0  0  0  0  0  0  0
  139.5420   80.0430  223.1040 C   0  0  0  0  0  0  0  0  0  0  0  0
  138.7910   78.9050  223.0700 C   0  0  0  0  0  0  0  0  0  0  0  0
  139.7120   70.4310  224.0230 C   0  0  0  0  0  0  0  0  0  0  0  0
  139.1560   69.1790  223.8690 C   0  0  0  0  0  0  0  0  0  0  0  0
  139.2490   68.3050  224.9260 C   0  0  0  0  0  0  0  0  0  0  0  0
  139.8750   68.6700  226.0970 C   0  0  0  0  0  0  0  0  0  0  0  0
  139.9670   67.7880  227.1610 C   0  0  0  0  0  0  0  0  0  0  0  0
  140.6040   68.1900  228.3240 C   0  0  0  0  0  0  0  0  0  0  0  0
  141.1580   69.4500  228.4700 C   0  0  0  0  0  0  0  0  0  0  0  0
  141.0450   70.3080  227.3750 C   0  0  0  0  0  0  0  0  0  0  0  0
  140.4170   69.9280  226.2140 C   0  0  0  0  0  0  0  0  0  0  0  0
  140.3190   70.7800  225.1610 N   0  0  0  0  0  0  0  0  0  0  0  0
  137.7890   72.3090  223.5460 H   0  0  0  0  0  0  0  0  0  0  0  0
  138.7657   72.5709  220.7498 H   0  0  0  0  0  0  0  0  0  0  0  0
  137.4832   73.5713  221.5532 H   0  0  0  0  0  0  0  0  0  0  0  0
  139.5423   77.0694  220.2325 H   0  0  0  0  0  0  0  0  0  0  0  0
  138.6887   75.7337  219.4939 H   0  0  0  0  0  0  0  0  0  0  0  0
  137.5237   78.1741  220.5284 H   0  0  0  0  0  0  0  0  0  0  0  0
  136.5981   76.7684  220.0012 H   0  0  0  0  0  0  0  0  0  0  0  0
  136.6182   77.6453  222.6333 H   0  0  0  0  0  0  0  0  0  0  0  0
  136.3681   75.9616  222.2731 H   0  0  0  0  0  0  0  0  0  0  0  0
  138.4749   76.1408  223.7256 H   0  0  0  0  0  0  0  0  0  0  0  0
  141.1426   76.7250  222.0708 H   0  0  0  0  0  0  0  0  0  0  0  0
  142.4940   78.7922  222.1347 H   0  0  0  0  0  0  0  0  0  0  0  0
  141.5116   83.2146  222.7591 H   0  0  0  0  0  0  0  0  0  0  0  0
  142.3866   82.2113  221.4250 H   0  0  0  0  0  0  0  0  0  0  0  0
  139.0604   80.9852  223.4045 H   0  0  0  0  0  0  0  0  0  0  0  0
  137.7262   78.9514  223.3422 H   0  0  0  0  0  0  0  0  0  0  0  0
  138.6555   68.8895  222.9332 H   0  0  0  0  0  0  0  0  0  0  0  0
  138.8163   67.2978  224.8349 H   0  0  0  0  0  0  0  0  0  0  0  0
  139.5384   66.7779  227.0835 H   0  0  0  0  0  0  0  0  0  0  0  0
  140.6720   67.4813  229.1626 H   0  0  0  0  0  0  0  0  0  0  0  0
  141.6602   69.7584  229.3988 H   0  0  0  0  0  0  0  0  0  0  0  0
  141.4719   71.3194  227.4439 H   0  0  0  0  0  0  0  0  0  0  0  0
  1  2  2  0
  2  3  1  0
  3  4  1  0
  4  5  1  0
  5  6  2  0
  5  7  1  0
  7  8  1  0
  8  9  1  0
  9 10  1  0
 10 11  1  0
 11 12  1  0
 12 13  2  0
 13 14  1  0
 14 15  2  0
 15 16  1  0
 16 17  1  0
 17 18  1  0
 18 19  1  0
 18 20  1  0
 18 21  1  0
 15 22  1  0
 22 23  2  0
  2 24  1  0
 24 25  2  0
 25 26  1  0
 26 27  2  0
 27 28  1  0
 28 29  2  0
 29 30  1  0
 30 31  2  0
 31 32  1  0
 32 33  2  0
 11  7  1  0
 23 12  1  0
 33 24  1  0
 32 27  1  0
  3 34  1  0
  4 35  1  0
  4 36  1  0
  8 37  1  0
  8 38  1  0
  9 39  1  0
  9 40  1  0
 10 41  1  0
 10 42  1  0
 11 43  1  1
 13 44  1  0
 14 45  1  0
 17 46  1  0
 17 47  1  0
 22 48  1  0
 23 49  1  0
 25 50  1  0
 26 51  1  0
 28 52  1  0
 29 53  1  0
 30 54  1  0
 31 55  1  0
M  END
>  <smiles>  (41) 
O=C(NCC(=O)N1CCCC1c1ccc(OCC(F)(F)F)cc1)c1ccc2ccccc2n1

>  <score_type>  (41) 
oracle

>  <origin>  (41) 
autodockgpu

>  <m_score__min__energy>  (41) 
-8.0399999999999991

>  <m_primary>  (41) 
energy

>  <rmsd>  (41) 
2.590288896857063

>  <m_score__min__rmsd>  (41) 
2.590288896857063

>  <meeko>  (41) 
{"free_energy": -7.71, "intermolecular_energy": -10.1, "internal_energy": -1.36, "cluster_size": 4, "cluster_id": 3, "rank_in_cluster": 1}

>  <energy>  (41) 
-6.47

>  <cluster_rmsd>  (41) 
0.45

>  <cluster>  (41) 
6

$$$$

     RDKit          3D

 55 58  0  0  0  0  0  0  0  0999 V2000
  140.3400   73.1310  222.7310 O   0  0  0  0  0  0  0  0  0  0  0  0
  140.3510   71.8690  222.8480 C   0  0  0  0  0  0  0  0  0  0  0  0
  140.3730   71.1270  221.6200 N   0  0  0  0  0  0  0  0  0  0  0  0
  140.3800   71.8840  220.3830 C   0  0  0  0  0  0  0  0  0  0  0  0
  141.7290   71.9330  219.7730 C   0  0  0  0  0  0  0  0  0  0  0  0
  142.2590   70.9650  219.1760 O   0  0  0  0  0  0  0  0  0  0  0  0
  142.4490   73.1550  219.8830 N   0  0  0  0  0  0  0  0  0  0  0  0
  143.5360   73.5060  220.7820 C   0  0  0  0  0  0  0  0  0  0  0  0
  144.4460   74.3620  219.8930 C   0  0  0  0  0  0  0  0  0  0  0  0
  143.6680   74.5460  218.6000 C   0  0  0  0  0  0  0  0  0  0  0  0
  142.2420   74.3760  219.0820 C   0  0  2  0  0  0  0  0  0  0  0  0
  141.8000   75.4670  219.9870 C   0  0  0  0  0  0  0  0  0  0  0  0
  142.3070   76.7380  219.9500 C   0  0  0  0  0  0  0  0  0  0  0  0
  141.8350   77.7100  220.8380 C   0  0  0  0  0  0  0  0  0  0  0  0
  140.8690   77.4660  221.7710 C   0  0  0  0  0  0  0  0  0  0  0  0
  140.3280   78.2970  222.6700 O   0  0  0  0  0  0  0  0  0  0  0  0
  140.5380   79.5860  222.9940 C   0  0  0  0  0  0  0  0  0  0  0  0
  141.9230   80.1100  223.1670 C   0  0  0  0  0  0  0  0  0  0  0  0
  142.2700   80.6670  221.9150 F   0  0  0  0  0  0  0  0  0  0  0  0
  142.1160   81.1110  224.0590 F   0  0  0  0  0  0  0  0  0  0  0  0
  142.8510   79.0890  223.3400 F   0  0  0  0  0  0  0  0  0  0  0  0
  140.3730   76.1410  221.7760 C   0  0  0  0  0  0  0  0  0  0  0  0
  140.8240   75.1850  220.9150 C   0  0  0  0  0  0  0  0  0  0  0  0
  140.3420   71.1910  224.1340 C   0  0  0  0  0  0  0  0  0  0  0  0
  140.7460   71.9210  225.2320 C   0  0  0  0  0  0  0  0  0  0  0  0
  140.7420   71.2910  226.4540 C   0  0  0  0  0  0  0  0  0  0  0  0
  140.3480   69.9780  226.5750 C   0  0  0  0  0  0  0  0  0  0  0  0
  140.3450   69.3450  227.8060 C   0  0  0  0  0  0  0  0  0  0  0  0
  139.9430   68.0220  227.8900 C   0  0  0  0  0  0  0  0  0  0  0  0
  139.5400   67.2970  226.7830 C   0  0  0  0  0  0  0  0  0  0  0  0
  139.5570   67.9700  225.5600 C   0  0  0  0  0  0  0  0  0  0  0  0
  139.9530   69.2820  225.4570 C   0  0  0  0  0  0  0  0  0  0  0  0
  139.9610   69.9170  224.2570 N   0  0  0  0  0  0  0  0  0  0  0  0
  140.3820   70.0800  221.6410 H   0  0  0  0  0  0  0  0  0  0  0  0
  139.6856   71.4113  219.6729 H   0  0  0  0  0  0  0  0  0  0  0  0
  140.0720   72.9148  220.6124 H   0  0  0  0  0  0  0  0  0  0  0  0
  143.1677   74.0820  221.6437 H   0  0  0  0  0  0  0  0  0  0  0  0
  144.0449   72.6315  221.2137 H   0  0  0  0  0  0  0  0  0  0  0  0
  144.6457   75.3347  220.3663 H   0  0  0  0  0  0  0  0  0  0  0  0
  145.4244   73.8885  219.7240 H   0  0  0  0  0  0  0  0  0  0  0  0
  143.8312   75.5457  218.1711 H   0  0  0  0  0  0  0  0  0  0  0  0
  143.9575   73.8506  217.7983 H   0  0  0  0  0  0  0  0  0  0  0  0
  141.4889   74.3576  218.2805 H   0  0  0  0  0  0  0  0  0  0  0  0
  143.0881   76.9957  219.2196 H   0  0  0  0  0  0  0  0  0  0  0  0
  142.2636   78.7215  220.7817 H   0  0  0  0  0  0  0  0  0  0  0  0
  140.0700   80.1895  222.2023 H   0  0  0  0  0  0  0  0  0  0  0  0
  140.1202   79.6555  224.0092 H   0  0  0  0  0  0  0  0  0  0  0  0
  139.5928   75.8716  222.5032 H   0  0  0  0  0  0  0  0  0  0  0  0
  140.4004   74.1710  220.9630 H   0  0  0  0  0  0  0  0  0  0  0  0
  141.0604   72.9705  225.1336 H   0  0  0  0  0  0  0  0  0  0  0  0
  141.0589   71.8455  227.3496 H   0  0  0  0  0  0  0  0  0  0  0  0
  140.6591   69.8878  228.7097 H   0  0  0  0  0  0  0  0  0  0  0  0
  139.9443   67.5296  228.8737 H   0  0  0  0  0  0  0  0  0  0  0  0
  139.2231   66.2466  226.8621 H   0  0  0  0  0  0  0  0  0  0  0  0
  139.2441   67.4342  224.6517 H   0  0  0  0  0  0  0  0  0  0  0  0
  1  2  2  0
  2  3  1  0
  3  4  1  0
  4  5  1  0
  5  6  2  0
  5  7  1  0
  7  8  1  0
  8  9  1  0
  9 10  1  0
 10 11  1  0
 11 12  1  0
 12 13  2  0
 13 14  1  0
 14 15  2  0
 15 16  1  0
 16 17  1  0
 17 18  1  0
 18 19  1  0
 18 20  1  0
 18 21  1  0
 15 22  1  0
 22 23  2  0
  2 24  1  0
 24 25  2  0
 25 26  1  0
 26 27  2  0
 27 28  1  0
 28 29  2  0
 29 30  1  0
 30 31  2  0
 31 32  1  0
 32 33  2  0
 11  7  1  0
 23 12  1  0
 33 24  1  0
 32 27  1  0
  3 34  1  0
  4 35  1  0
  4 36  1  0
  8 37  1  0
  8 38  1  0
  9 39  1  0
  9 40  1  0
 10 41  1  0
 10 42  1  0
 11 43  1  6
 13 44  1  0
 14 45  1  0
 17 46  1  0
 17 47  1  0
 22 48  1  0
 23 49  1  0
 25 50  1  0
 26 51  1  0
 28 52  1  0
 29 53  1  0
 30 54  1  0
 31 55  1  0
M  END
>  <smiles>  (42) 
O=C(NCC(=O)N1CCCC1c1ccc(OCC(F)(F)F)cc1)c1ccc2ccccc2n1

>  <score_type>  (42) 
oracle

>  <origin>  (42) 
autodockgpu

>  <m_score__min__energy>  (42) 
-8.0399999999999991

>  <m_primary>  (42) 
energy

>  <rmsd>  (42) 
3.8587609010271624

>  <m_score__min__rmsd>  (42) 
3.8587609010271624

>  <meeko>  (42) 
{"free_energy": -7.42, "intermolecular_energy": -9.81, "internal_energy": -1.83, "cluster_size": 19, "cluster_id": 2, "rank_in_cluster": 16}

>  <energy>  (42) 
-6.4

>  <cluster_rmsd>  (42) 
0.45

>  <cluster>  (42) 
6

$$$$

     RDKit          3D

 55 58  0  0  0  0  0  0  0  0999 V2000
  139.9440   70.4200  221.7890 O   0  0  0  0  0  0  0  0  0  0  0  0
  139.9090   71.2670  222.7310 C   0  0  0  0  0  0  0  0  0  0  0  0
  139.6230   72.6190  222.3460 N   0  0  0  0  0  0  0  0  0  0  0  0
  139.4070   72.8800  220.9350 C   0  0  0  0  0  0  0  0  0  0  0  0
  140.6510   72.7220  220.1480 C   0  0  0  0  0  0  0  0  0  0  0  0
  141.0320   71.6300  219.6600 O   0  0  0  0  0  0  0  0  0  0  0  0
  141.4450   73.8840  219.9450 N   0  0  0  0  0  0  0  0  0  0  0  0
  142.8540   74.0990  220.2320 C   0  0  0  0  0  0  0  0  0  0  0  0
  143.3120   74.9590  219.0480 C   0  0  0  0  0  0  0  0  0  0  0  0
  142.0380   75.2860  218.2850 C   0  0  0  0  0  0  0  0  0  0  0  0
  140.9980   75.1720  219.3800 C   0  0  2  0  0  0  0  0  0  0  0  0
  141.1330   76.2190  220.4230 C   0  0  0  0  0  0  0  0  0  0  0  0
  141.5330   77.5030  220.1640 C   0  0  0  0  0  0  0  0  0  0  0  0
  141.6350   78.4320  221.2050 C   0  0  0  0  0  0  0  0  0  0  0  0
  141.3510   78.1320  222.5050 C   0  0  0  0  0  0  0  0  0  0  0  0
  141.4010   78.9190  223.5880 O   0  0  0  0  0  0  0  0  0  0  0  0
  141.1210   80.2150  223.8130 C   0  0  0  0  0  0  0  0  0  0  0  0
  142.1050   81.2780  223.4560 C   0  0  0  0  0  0  0  0  0  0  0  0
  143.2730   80.5880  223.0640 F   0  0  0  0  0  0  0  0  0  0  0  0
  141.8110   82.0900  222.4120 F   0  0  0  0  0  0  0  0  0  0  0  0
  142.5120   82.0080  224.5680 F   0  0  0  0  0  0  0  0  0  0  0  0
  140.9410   76.7970  222.7300 C   0  0  0  0  0  0  0  0  0  0  0  0
  140.8390   75.8820  221.7240 C   0  0  0  0  0  0  0  0  0  0  0  0
  140.1380   70.9150  224.1230 C   0  0  0  0  0  0  0  0  0  0  0  0
  140.7160   71.8750  224.9270 C   0  0  0  0  0  0  0  0  0  0  0  0
  140.9380   71.5540  226.2450 C   0  0  0  0  0  0  0  0  0  0  0  0
  140.5950   70.3180  226.7430 C   0  0  0  0  0  0  0  0  0  0  0  0
  140.8200   69.9970  228.0710 C   0  0  0  0  0  0  0  0  0  0  0  0
  140.4620   68.7420  228.5370 C   0  0  0  0  0  0  0  0  0  0  0  0
  139.8840   67.7840  227.7220 C   0  0  0  0  0  0  0  0  0  0  0  0
  139.6740   68.1460  226.3910 C   0  0  0  0  0  0  0  0  0  0  0  0
  140.0220   69.3860  225.9100 C   0  0  0  0  0  0  0  0  0  0  0  0
  139.8080   69.7160  224.6110 N   0  0  0  0  0  0  0  0  0  0  0  0
  139.5780   73.3720  223.0720 H   0  0  0  0  0  0  0  0  0  0  0  0
  138.6532   72.1751  220.5542 H   0  0  0  0  0  0  0  0  0  0  0  0
  139.0661   73.9204  220.8289 H   0  0  0  0  0  0  0  0  0  0  0  0
  142.9878   74.6322  221.1847 H   0  0  0  0  0  0  0  0  0  0  0  0
  143.4249   73.1649  220.3396 H   0  0  0  0  0  0  0  0  0  0  0  0
  143.7972   75.8800  219.4036 H   0  0  0  0  0  0  0  0  0  0  0  0
  144.0489   74.4382  218.4189 H   0  0  0  0  0  0  0  0  0  0  0  0
  142.0701   76.3019  217.8645 H   0  0  0  0  0  0  0  0  0  0  0  0
  141.8525   74.6346  217.4183 H   0  0  0  0  0  0  0  0  0  0  0  0
  139.9585   75.2604  219.0312 H   0  0  0  0  0  0  0  0  0  0  0  0
  141.7748   77.8047  219.1342 H   0  0  0  0  0  0  0  0  0  0  0  0
  141.9602   79.4547  220.9633 H   0  0  0  0  0  0  0  0  0  0  0  0
  140.1996   80.4392  223.2555 H   0  0  0  0  0  0  0  0  0  0  0  0
  141.0848   80.2719  224.9109 H   0  0  0  0  0  0  0  0  0  0  0  0
  140.6950   76.4850  223.7557 H   0  0  0  0  0  0  0  0  0  0  0  0
  140.5160   74.8566  221.9568 H   0  0  0  0  0  0  0  0  0  0  0  0
  140.9897   72.8627  224.5276 H   0  0  0  0  0  0  0  0  0  0  0  0
  141.3975   72.2976  226.9127 H   0  0  0  0  0  0  0  0  0  0  0  0
  141.2786   70.7312  228.7497 H   0  0  0  0  0  0  0  0  0  0  0  0
  140.6439   68.4980  229.5941 H   0  0  0  0  0  0  0  0  0  0  0  0
  139.6052   66.7906  228.1033 H   0  0  0  0  0  0  0  0  0  0  0  0
  139.2162   67.4173  225.7059 H   0  0  0  0  0  0  0  0  0  0  0  0
  1  2  2  0
  2  3  1  0
  3  4  1  0
  4  5  1  0
  5  6  2  0
  5  7  1  0
  7  8  1  0
  8  9  1  0
  9 10  1  0
 10 11  1  0
 11 12  1  0
 12 13  2  0
 13 14  1  0
 14 15  2  0
 15 16  1  0
 16 17  1  0
 17 18  1  0
 18 19  1  0
 18 20  1  0
 18 21  1  0
 15 22  1  0
 22 23  2  0
  2 24  1  0
 24 25  2  0
 25 26  1  0
 26 27  2  0
 27 28  1  0
 28 29  2  0
 29 30  1  0
 30 31  2  0
 31 32  1  0
 32 33  2  0
 11  7  1  0
 23 12  1  0
 33 24  1  0
 32 27  1  0
  3 34  1  0
  4 35  1  0
  4 36  1  0
  8 37  1  0
  8 38  1  0
  9 39  1  0
  9 40  1  0
 10 41  1  0
 10 42  1  0
 11 43  1  6
 13 44  1  0
 14 45  1  0
 17 46  1  0
 17 47  1  0
 22 48  1  0
 23 49  1  0
 25 50  1  0
 26 51  1  0
 28 52  1  0
 29 53  1  0
 30 54  1  0
 31 55  1  0
M  END
>  <smiles>  (43) 
O=C(NCC(=O)N1CCCC1c1ccc(OCC(F)(F)F)cc1)c1ccc2ccccc2n1

>  <score_type>  (43) 
oracle

>  <origin>  (43) 
autodockgpu

>  <m_score__min__energy>  (43) 
-8.0399999999999991

>  <m_primary>  (43) 
energy

>  <rmsd>  (43) 
3.1747544328220476

>  <m_score__min__rmsd>  (43) 
3.1747544328220476

>  <meeko>  (43) 
{"free_energy": -7.58, "intermolecular_energy": -9.96, "internal_energy": -1.42, "cluster_size": 19, "cluster_id": 2, "rank_in_cluster": 12}

>  <energy>  (43) 
-6.07

>  <cluster_rmsd>  (43) 
1.35

>  <cluster>  (43) 
6

$$$$

     RDKit          3D

 55 58  0  0  0  0  0  0  0  0999 V2000
  138.4870   75.6100  222.0770 O   0  0  0  0  0  0  0  0  0  0  0  0
  139.6790   76.0120  222.2310 C   0  0  0  0  0  0  0  0  0  0  0  0
  140.7050   75.0440  221.9700 N   0  0  0  0  0  0  0  0  0  0  0  0
  140.2830   73.7180  221.5610 C   0  0  0  0  0  0  0  0  0  0  0  0
  140.9440   73.2910  220.3060 C   0  0  0  0  0  0  0  0  0  0  0  0
  140.6110   72.2700  219.6570 O   0  0  0  0  0  0  0  0  0  0  0  0
  142.0130   74.0980  219.8270 N   0  0  0  0  0  0  0  0  0  0  0  0
  143.2250   74.5190  220.5100 C   0  0  0  0  0  0  0  0  0  0  0  0
  144.2800   74.4500  219.3990 C   0  0  0  0  0  0  0  0  0  0  0  0
  143.4940   74.1490  218.1320 C   0  0  0  0  0  0  0  0  0  0  0  0
  142.1310   74.7050  218.4880 C   0  0  2  0  0  0  0  0  0  0  0  0
  142.1230   76.1820  218.6350 C   0  0  0  0  0  0  0  0  0  0  0  0
  143.0050   77.0130  217.9980 C   0  0  0  0  0  0  0  0  0  0  0  0
  142.9320   78.3970  218.1900 C   0  0  0  0  0  0  0  0  0  0  0  0
  142.0070   78.9920  218.9970 C   0  0  0  0  0  0  0  0  0  0  0  0
  141.8240   80.2920  219.2640 O   0  0  0  0  0  0  0  0  0  0  0  0
  140.7480   81.1000  219.2740 C   0  0  0  0  0  0  0  0  0  0  0  0
  140.6180   82.1770  220.2970 C   0  0  0  0  0  0  0  0  0  0  0  0
  141.7830   82.0820  221.0900 F   0  0  0  0  0  0  0  0  0  0  0  0
  140.5930   83.4620  219.8670 F   0  0  0  0  0  0  0  0  0  0  0  0
  139.5870   81.9230  221.1960 F   0  0  0  0  0  0  0  0  0  0  0  0
  141.1160   78.0990  219.6360 C   0  0  0  0  0  0  0  0  0  0  0  0
  141.1770   76.7480  219.4580 C   0  0  0  0  0  0  0  0  0  0  0  0
  140.0110   77.3660  222.6460 C   0  0  0  0  0  0  0  0  0  0  0  0
  138.9620   78.2030  222.9620 C   0  0  0  0  0  0  0  0  0  0  0  0
  139.2640   79.4840  223.3560 C   0  0  0  0  0  0  0  0  0  0  0  0
  140.5690   79.9160  223.4300 C   0  0  0  0  0  0  0  0  0  0  0  0
  140.8710   81.2080  223.8260 C   0  0  0  0  0  0  0  0  0  0  0  0
  142.1970   81.6080  223.8890 C   0  0  0  0  0  0  0  0  0  0  0  0
  143.2430   80.7610  223.5680 C   0  0  0  0  0  0  0  0  0  0  0  0
  142.8970   79.4680  223.1740 C   0  0  0  0  0  0  0  0  0  0  0  0
  141.5890   79.0530  223.1060 C   0  0  0  0  0  0  0  0  0  0  0  0
  141.2760   77.7900  222.7190 N   0  0  0  0  0  0  0  0  0  0  0  0
  141.7130   75.3080  222.0770 H   0  0  0  0  0  0  0  0  0  0  0  0
  140.5360   73.0027  222.3575 H   0  0  0  0  0  0  0  0  0  0  0  0
  139.1979   73.7452  221.3828 H   0  0  0  0  0  0  0  0  0  0  0  0
  143.1255   75.5430  220.8993 H   0  0  0  0  0  0  0  0  0  0  0  0
  143.4710   73.8986  221.3844 H   0  0  0  0  0  0  0  0  0  0  0  0
  144.8091   75.4100  219.3074 H   0  0  0  0  0  0  0  0  0  0  0  0
  145.0464   73.6875  219.6021 H   0  0  0  0  0  0  0  0  0  0  0  0
  143.9235   74.6639  217.2600 H   0  0  0  0  0  0  0  0  0  0  0  0
  143.4866   73.0861  217.8488 H   0  0  0  0  0  0  0  0  0  0  0  0
  141.3469   74.4967  217.7451 H   0  0  0  0  0  0  0  0  0  0  0  0
  143.7733   76.5914  217.3333 H   0  0  0  0  0  0  0  0  0  0  0  0
  143.6561   79.0368  217.6644 H   0  0  0  0  0  0  0  0  0  0  0  0
  140.7157   81.5935  218.2915 H   0  0  0  0  0  0  0  0  0  0  0  0
  139.9272   80.4145  219.5318 H   0  0  0  0  0  0  0  0  0  0  0  0
  140.3435   78.5099  220.3027 H   0  0  0  0  0  0  0  0  0  0  0  0
  140.4580   76.1004  219.9811 H   0  0  0  0  0  0  0  0  0  0  0  0
  137.9196   77.8572  222.9008 H   0  0  0  0  0  0  0  0  0  0  0  0
  138.4496   80.1759  223.6167 H   0  0  0  0  0  0  0  0  0  0  0  0
  140.0663   81.9106  224.0882 H   0  0  0  0  0  0  0  0  0  0  0  0
  142.4259   82.6363  224.2058 H   0  0  0  0  0  0  0  0  0  0  0  0
  144.2915   81.0895  223.6206 H   0  0  0  0  0  0  0  0  0  0  0  0
  143.6957   78.7593  222.9098 H   0  0  0  0  0  0  0  0  0  0  0  0
  1  2  2  0
  2  3  1  0
  3  4  1  0
  4  5  1  0
  5  6  2  0
  5  7  1  0
  7  8  1  0
  8  9  1  0
  9 10  1  0
 10 11  1  0
 11 12  1  0
 12 13  2  0
 13 14  1  0
 14 15  2  0
 15 16  1  0
 16 17  1  0
 17 18  1  0
 18 19  1  0
 18 20  1  0
 18 21  1  0
 15 22  1  0
 22 23  2  0
  2 24  1  0
 24 25  2  0
 25 26  1  0
 26 27  2  0
 27 28  1  0
 28 29  2  0
 29 30  1  0
 30 31  2  0
 31 32  1  0
 32 33  2  0
 11  7  1  0
 23 12  1  0
 33 24  1  0
 32 27  1  0
  3 34  1  0
  4 35  1  0
  4 36  1  0
  8 37  1  0
  8 38  1  0
  9 39  1  0
  9 40  1  0
 10 41  1  0
 10 42  1  0
 11 43  1  6
 13 44  1  0
 14 45  1  0
 17 46  1  0
 17 47  1  0
 22 48  1  0
 23 49  1  0
 25 50  1  0
 26 51  1  0
 28 52  1  0
 29 53  1  0
 30 54  1  0
 31 55  1  0
M  END
>  <smiles>  (44) 
O=C(NCC(=O)N1CCCC1c1ccc(OCC(F)(F)F)cc1)c1ccc2ccccc2n1

>  <score_type>  (44) 
oracle

>  <origin>  (44) 
autodockgpu

>  <m_score__min__energy>  (44) 
-8.0399999999999991

>  <m_primary>  (44) 
energy

>  <rmsd>  (44) 
7.536895411621776

>  <m_score__min__rmsd>  (44) 
7.536895411621776

>  <meeko>  (44) 
{"free_energy": -5.72, "intermolecular_energy": -8.11, "internal_energy": -3.04, "cluster_size": 6, "cluster_id": 7, "rank_in_cluster": 4}

>  <energy>  (44) 
-6.04

>  <cluster_rmsd>  (44) 
0.35

>  <cluster>  (44) 
6

$$$$

     RDKit          3D

 55 58  0  0  0  0  0  0  0  0999 V2000
  139.9730   73.1660  222.7860 O   0  0  0  0  0  0  0  0  0  0  0  0
  140.2280   71.9270  222.8690 C   0  0  0  0  0  0  0  0  0  0  0  0
  140.4020   71.2390  221.6230 N   0  0  0  0  0  0  0  0  0  0  0  0
  140.2690   72.0170  220.4060 C   0  0  0  0  0  0  0  0  0  0  0  0
  141.5420   72.0860  219.6530 C   0  0  0  0  0  0  0  0  0  0  0  0
  141.9230   71.2020  218.8480 O   0  0  0  0  0  0  0  0  0  0  0  0
  142.3640   73.2260  219.8680 N   0  0  0  0  0  0  0  0  0  0  0  0
  143.4390   73.4170  220.8280 C   0  0  0  0  0  0  0  0  0  0  0  0
  144.4610   74.2370  220.0320 C   0  0  0  0  0  0  0  0  0  0  0  0
  143.7610   74.5720  218.7250 C   0  0  0  0  0  0  0  0  0  0  0  0
  142.3060   74.5080  219.1410 C   0  0  2  0  0  0  0  0  0  0  0  0
  141.9260   75.5780  220.0970 C   0  0  0  0  0  0  0  0  0  0  0  0
  142.3130   76.8850  219.9690 C   0  0  0  0  0  0  0  0  0  0  0  0
  141.9120   77.8340  220.9140 C   0  0  0  0  0  0  0  0  0  0  0  0
  141.1320   77.5320  221.9930 C   0  0  0  0  0  0  0  0  0  0  0  0
  140.6760   78.3360  222.9620 O   0  0  0  0  0  0  0  0  0  0  0  0
  141.2640   79.1800  223.8290 C   0  0  0  0  0  0  0  0  0  0  0  0
  142.2110   80.2260  223.3460 C   0  0  0  0  0  0  0  0  0  0  0  0
  141.5960   80.7900  222.2070 F   0  0  0  0  0  0  0  0  0  0  0  0
  142.4650   81.2780  224.1620 F   0  0  0  0  0  0  0  0  0  0  0  0
  143.3870   79.6760  222.8460 F   0  0  0  0  0  0  0  0  0  0  0  0
  140.7550   76.1730  222.0890 C   0  0  0  0  0  0  0  0  0  0  0  0
  141.1400   75.2380  221.1740 C   0  0  0  0  0  0  0  0  0  0  0  0
  140.3450   71.2250  224.1370 C   0  0  0  0  0  0  0  0  0  0  0  0
  140.9710   71.8910  225.1700 C   0  0  0  0  0  0  0  0  0  0  0  0
  141.0860   71.2380  226.3740 C   0  0  0  0  0  0  0  0  0  0  0  0
  140.5950   69.9630  226.5410 C   0  0  0  0  0  0  0  0  0  0  0  0
  140.7130   69.3070  227.7540 C   0  0  0  0  0  0  0  0  0  0  0  0
  140.2060   68.0230  227.8850 C   0  0  0  0  0  0  0  0  0  0  0  0
  139.5800   67.3620  226.8430 C   0  0  0  0  0  0  0  0  0  0  0  0
  139.4810   68.0580  225.6360 C   0  0  0  0  0  0  0  0  0  0  0  0
  139.9780   69.3300  225.4870 C   0  0  0  0  0  0  0  0  0  0  0  0
  139.8690   69.9880  224.3040 N   0  0  0  0  0  0  0  0  0  0  0  0
  140.6160   70.2140  221.6160 H   0  0  0  0  0  0  0  0  0  0  0  0
  139.5033   71.5514  219.7681 H   0  0  0  0  0  0  0  0  0  0  0  0
  139.9825   73.0415  220.6859 H   0  0  0  0  0  0  0  0  0  0  0  0
  143.0880   73.9706  221.7114 H   0  0  0  0  0  0  0  0  0  0  0  0
  143.8468   72.4735  221.2197 H   0  0  0  0  0  0  0  0  0  0  0  0
  144.7273   75.1558  220.5750 H   0  0  0  0  0  0  0  0  0  0  0  0
  145.3987   73.6852  219.8699 H   0  0  0  0  0  0  0  0  0  0  0  0
  144.0338   75.5762  218.3683 H   0  0  0  0  0  0  0  0  0  0  0  0
  144.0204   73.9029  217.8913 H   0  0  0  0  0  0  0  0  0  0  0  0
  141.5906   74.6100  218.3117 H   0  0  0  0  0  0  0  0  0  0  0  0
  142.9418   77.1896  219.1194 H   0  0  0  0  0  0  0  0  0  0  0  0
  142.2411   78.8752  220.7817 H   0  0  0  0  0  0  0  0  0  0  0  0
  140.4536   79.7072  224.3537 H   0  0  0  0  0  0  0  0  0  0  0  0
  141.9115   78.5151  224.4194 H   0  0  0  0  0  0  0  0  0  0  0  0
  140.1265   75.8573  222.9348 H   0  0  0  0  0  0  0  0  0  0  0  0
  140.8166   74.1941  221.2991 H   0  0  0  0  0  0  0  0  0  0  0  0
  141.3645   72.9093  225.0350 H   0  0  0  0  0  0  0  0  0  0  0  0
  141.5786   71.7427  227.2181 H   0  0  0  0  0  0  0  0  0  0  0  0
  141.2043   69.7995  228.6061 H   0  0  0  0  0  0  0  0  0  0  0  0
  140.3052   67.5108  228.8534 H   0  0  0  0  0  0  0  0  0  0  0  0
  139.1817   66.3432  226.9589 H   0  0  0  0  0  0  0  0  0  0  0  0
  138.9904   67.5731  224.7792 H   0  0  0  0  0  0  0  0  0  0  0  0
  1  2  2  0
  2  3  1  0
  3  4  1  0
  4  5  1  0
  5  6  2  0
  5  7  1  0
  7  8  1  0
  8  9  1  0
  9 10  1  0
 10 11  1  0
 11 12  1  0
 12 13  2  0
 13 14  1  0
 14 15  2  0
 15 16  1  0
 16 17  1  0
 17 18  1  0
 18 19  1  0
 18 20  1  0
 18 21  1  0
 15 22  1  0
 22 23  2  0
  2 24  1  0
 24 25  2  0
 25 26  1  0
 26 27  2  0
 27 28  1  0
 28 29  2  0
 29 30  1  0
 30 31  2  0
 31 32  1  0
 32 33  2  0
 11  7  1  0
 23 12  1  0
 33 24  1  0
 32 27  1  0
  3 34  1  0
  4 35  1  0
  4 36  1  0
  8 37  1  0
  8 38  1  0
  9 39  1  0
  9 40  1  0
 10 41  1  0
 10 42  1  0
 11 43  1  6
 13 44  1  0
 14 45  1  0
 17 46  1  0
 17 47  1  0
 22 48  1  0
 23 49  1  0
 25 50  1  0
 26 51  1  0
 28 52  1  0
 29 53  1  0
 30 54  1  0
 31 55  1  0
M  END
>  <smiles>  (45) 
O=C(NCC(=O)N1CCCC1c1ccc(OCC(F)(F)F)cc1)c1ccc2ccccc2n1

>  <score_type>  (45) 
oracle

>  <origin>  (45) 
autodockgpu

>  <m_score__min__energy>  (45) 
-8.0399999999999991

>  <m_primary>  (45) 
energy

>  <rmsd>  (45) 
3.8432816136999297

>  <m_score__min__rmsd>  (45) 
3.8432816136999297

>  <meeko>  (45) 
{"free_energy": -7.71, "intermolecular_energy": -10.1, "internal_energy": -1.7, "cluster_size": 19, "cluster_id": 2, "rank_in_cluster": 11}

>  <energy>  (45) 
-6.22

>  <cluster_rmsd>  (45) 
0.0

>  <cluster>  (45) 
7

$$$$

     RDKit          3D

 55 58  0  0  0  0  0  0  0  0999 V2000
  140.1560   71.7920  221.1040 O   0  0  0  0  0  0  0  0  0  0  0  0
  139.9640   72.2460  222.2720 C   0  0  0  0  0  0  0  0  0  0  0  0
  139.6990   73.6540  222.3600 N   0  0  0  0  0  0  0  0  0  0  0  0
  139.6790   74.4080  221.1210 C   0  0  0  0  0  0  0  0  0  0  0  0
  140.8790   75.2630  220.9760 C   0  0  0  0  0  0  0  0  0  0  0  0
  141.1010   76.2770  221.6810 O   0  0  0  0  0  0  0  0  0  0  0  0
  141.8220   74.8970  219.9760 N   0  0  0  0  0  0  0  0  0  0  0  0
  141.5900   74.4610  218.6080 C   0  0  0  0  0  0  0  0  0  0  0  0
  142.7380   75.1290  217.8420 C   0  0  0  0  0  0  0  0  0  0  0  0
  143.6150   75.7530  218.9160 C   0  0  0  0  0  0  0  0  0  0  0  0
  143.2910   74.8790  220.1100 C   0  0  2  0  0  0  0  0  0  0  0  0
  143.7630   73.4800  219.9540 C   0  0  0  0  0  0  0  0  0  0  0  0
  144.8610   73.1270  219.2160 C   0  0  0  0  0  0  0  0  0  0  0  0
  145.2410   71.7840  219.1190 C   0  0  0  0  0  0  0  0  0  0  0  0
  144.5660   70.7690  219.7320 C   0  0  0  0  0  0  0  0  0  0  0  0
  144.8210   69.4550  219.7260 O   0  0  0  0  0  0  0  0  0  0  0  0
  144.5880   68.4620  218.8480 C   0  0  0  0  0  0  0  0  0  0  0  0
  143.2170   67.8980  218.6860 C   0  0  0  0  0  0  0  0  0  0  0  0
  142.4560   68.4610  219.7340 F   0  0  0  0  0  0  0  0  0  0  0  0
  142.5350   68.2030  217.5560 F   0  0  0  0  0  0  0  0  0  0  0  0
  143.1790   66.5330  218.9500 F   0  0  0  0  0  0  0  0  0  0  0  0
  143.4390   71.1770  220.4830 C   0  0  0  0  0  0  0  0  0  0  0  0
  143.0580   72.4820  220.5850 C   0  0  0  0  0  0  0  0  0  0  0  0
  140.0030   71.4140  223.4630 C   0  0  0  0  0  0  0  0  0  0  0  0
  139.5380   70.1210  223.3420 C   0  0  0  0  0  0  0  0  0  0  0  0
  139.5700   69.3240  224.4620 C   0  0  0  0  0  0  0  0  0  0  0  0
  140.0490   69.8020  225.6610 C   0  0  0  0  0  0  0  0  0  0  0  0
  140.0800   68.9980  226.7870 C   0  0  0  0  0  0  0  0  0  0  0  0
  140.5680   69.5130  227.9780 C   0  0  0  0  0  0  0  0  0  0  0  0
  141.0310   70.8120  228.0890 C   0  0  0  0  0  0  0  0  0  0  0  0
  140.9830   71.5900  226.9320 C   0  0  0  0  0  0  0  0  0  0  0  0
  140.5030   71.0970  225.7430 C   0  0  0  0  0  0  0  0  0  0  0  0
  140.4660   71.8730  224.6290 N   0  0  0  0  0  0  0  0  0  0  0  0
  139.5300   74.0970  223.2930 H   0  0  0  0  0  0  0  0  0  0  0  0
  139.6398   73.7039  220.2768 H   0  0  0  0  0  0  0  0  0  0  0  0
  138.7942   75.0614  221.1336 H   0  0  0  0  0  0  0  0  0  0  0  0
  141.6434   73.3653  218.5265 H   0  0  0  0  0  0  0  0  0  0  0  0
  140.5946   74.7321  218.2263 H   0  0  0  0  0  0  0  0  0  0  0  0
  143.3043   74.3827  217.2654 H   0  0  0  0  0  0  0  0  0  0  0  0
  142.3747   75.8747  217.1195 H   0  0  0  0  0  0  0  0  0  0  0  0
  144.6808   75.6928  218.6505 H   0  0  0  0  0  0  0  0  0  0  0  0
  143.4316   76.8251  219.0800 H   0  0  0  0  0  0  0  0  0  0  0  0
  143.7372   75.2185  221.0564 H   0  0  0  0  0  0  0  0  0  0  0  0
  145.4459   73.9014  218.6980 H   0  0  0  0  0  0  0  0  0  0  0  0
  146.1281   71.5339  218.5186 H   0  0  0  0  0  0  0  0  0  0  0  0
  144.8924   68.8377  217.8600 H   0  0  0  0  0  0  0  0  0  0  0  0
  145.1522   67.6192  219.2740 H   0  0  0  0  0  0  0  0  0  0  0  0
  142.8467   70.4113  221.0053 H   0  0  0  0  0  0  0  0  0  0  0  0
  142.1714   72.7411  221.1823 H   0  0  0  0  0  0  0  0  0  0  0  0
  139.1551   69.7409  222.3834 H   0  0  0  0  0  0  0  0  0  0  0  0
  139.2070   68.2875  224.3990 H   0  0  0  0  0  0  0  0  0  0  0  0
  139.7206   67.9595  226.7374 H   0  0  0  0  0  0  0  0  0  0  0  0
  140.5878   68.8654  228.8669 H   0  0  0  0  0  0  0  0  0  0  0  0
  141.4165   71.2102  229.0391 H   0  0  0  0  0  0  0  0  0  0  0  0
  141.3403   72.6296  226.9730 H   0  0  0  0  0  0  0  0  0  0  0  0
  1  2  2  0
  2  3  1  0
  3  4  1  0
  4  5  1  0
  5  6  2  0
  5  7  1  0
  7  8  1  0
  8  9  1  0
  9 10  1  0
 10 11  1  0
 11 12  1  0
 12 13  2  0
 13 14  1  0
 14 15  2  0
 15 16  1  0
 16 17  1  0
 17 18  1  0
 18 19  1  0
 18 20  1  0
 18 21  1  0
 15 22  1  0
 22 23  2  0
  2 24  1  0
 24 25  2  0
 25 26  1  0
 26 27  2  0
 27 28  1  0
 28 29  2  0
 29 30  1  0
 30 31  2  0
 31 32  1  0
 32 33  2  0
 11  7  1  0
 23 12  1  0
 33 24  1  0
 32 27  1  0
  3 34  1  0
  4 35  1  0
  4 36  1  0
  8 37  1  0
  8 38  1  0
  9 39  1  0
  9 40  1  0
 10 41  1  0
 10 42  1  0
 11 43  1  1
 13 44  1  0
 14 45  1  0
 17 46  1  0
 17 47  1  0
 22 48  1  0
 23 49  1  0
 25 50  1  0
 26 51  1  0
 28 52  1  0
 29 53  1  0
 30 54  1  0
 31 55  1  0
M  END
>  <smiles>  (46) 
O=C(NCC(=O)N1CCCC1c1ccc(OCC(F)(F)F)cc1)c1ccc2ccccc2n1

>  <score_type>  (46) 
oracle

>  <origin>  (46) 
autodockgpu

>  <m_score__min__energy>  (46) 
-8.0399999999999991

>  <m_primary>  (46) 
energy

>  <rmsd>  (46) 
2.0756546748787676

>  <m_score__min__rmsd>  (46) 
2.0756546748787676

>  <meeko>  (46) 
{"free_energy": -7.05, "intermolecular_energy": -9.44, "internal_energy": -1.96, "cluster_size": 10, "cluster_id": 1, "rank_in_cluster": 10}

>  <energy>  (46) 
-5.99

>  <cluster_rmsd>  (46) 
0.38

>  <cluster>  (46) 
7

$$$$

     RDKit          3D

 55 58  0  0  0  0  0  0  0  0999 V2000
  140.2840   73.4780  222.3260 O   0  0  0  0  0  0  0  0  0  0  0  0
  140.6190   72.2610  222.4380 C   0  0  0  0  0  0  0  0  0  0  0  0
  141.2800   71.6860  221.3030 N   0  0  0  0  0  0  0  0  0  0  0  0
  141.4980   72.5430  220.1520 C   0  0  0  0  0  0  0  0  0  0  0  0
  142.6990   73.3930  220.3170 C   0  0  0  0  0  0  0  0  0  0  0  0
  143.7650   72.9970  220.8470 O   0  0  0  0  0  0  0  0  0  0  0  0
  142.6190   74.7310  219.8410 N   0  0  0  0  0  0  0  0  0  0  0  0
  143.6660   75.7330  219.7300 C   0  0  0  0  0  0  0  0  0  0  0  0
  143.3170   76.4440  218.4170 C   0  0  0  0  0  0  0  0  0  0  0  0
  141.9760   75.8600  218.0020 C   0  0  0  0  0  0  0  0  0  0  0  0
  141.4150   75.4200  219.3380 C   0  0  2  0  0  0  0  0  0  0  0  0
  141.1060   76.5550  220.2430 C   0  0  0  0  0  0  0  0  0  0  0  0
  140.9580   77.8480  219.8160 C   0  0  0  0  0  0  0  0  0  0  0  0
  140.6660   78.8620  220.7340 C   0  0  0  0  0  0  0  0  0  0  0  0
  140.5140   78.6400  222.0720 C   0  0  0  0  0  0  0  0  0  0  0  0
  140.2320   79.5100  223.0500 O   0  0  0  0  0  0  0  0  0  0  0  0
  140.9810   80.2960  223.8450 C   0  0  0  0  0  0  0  0  0  0  0  0
  142.3520   80.7090  223.4290 C   0  0  0  0  0  0  0  0  0  0  0  0
  142.1810   81.3940  222.2060 F   0  0  0  0  0  0  0  0  0  0  0  0
  143.0220   81.5770  224.2260 F   0  0  0  0  0  0  0  0  0  0  0  0
  143.1460   79.6190  223.0870 F   0  0  0  0  0  0  0  0  0  0  0  0
  140.6750   77.2920  222.4700 C   0  0  0  0  0  0  0  0  0  0  0  0
  140.9600   76.2950  221.5860 C   0  0  0  0  0  0  0  0  0  0  0  0
  140.3600   71.4750  223.6340 C   0  0  0  0  0  0  0  0  0  0  0  0
  139.6150   70.3240  223.4810 C   0  0  0  0  0  0  0  0  0  0  0  0
  139.3640   69.5730  224.6040 C   0  0  0  0  0  0  0  0  0  0  0  0
  139.8410   69.9560  225.8370 C   0  0  0  0  0  0  0  0  0  0  0  0
  139.5870   69.1970  226.9670 C   0  0  0  0  0  0  0  0  0  0  0  0
  140.0830   69.6140  228.1920 C   0  0  0  0  0  0  0  0  0  0  0  0
  140.8290   70.7700  228.3360 C   0  0  0  0  0  0  0  0  0  0  0  0
  141.0630   71.5070  227.1740 C   0  0  0  0  0  0  0  0  0  0  0  0
  140.5800   71.1090  225.9500 C   0  0  0  0  0  0  0  0  0  0  0  0
  140.8210   71.8420  224.8330 N   0  0  0  0  0  0  0  0  0  0  0  0
  141.5850   70.6850  221.3260 H   0  0  0  0  0  0  0  0  0  0  0  0
  141.6276   71.9136  219.2592 H   0  0  0  0  0  0  0  0  0  0  0  0
  140.6244   73.2033  220.0478 H   0  0  0  0  0  0  0  0  0  0  0  0
  143.6373   76.4319  220.5789 H   0  0  0  0  0  0  0  0  0  0  0  0
  144.6799   75.3066  219.7385 H   0  0  0  0  0  0  0  0  0  0  0  0
  143.2346   77.5295  218.5745 H   0  0  0  0  0  0  0  0  0  0  0  0
  144.0893   76.2967  217.6477 H   0  0  0  0  0  0  0  0  0  0  0  0
  141.3364   76.6187  217.5273 H   0  0  0  0  0  0  0  0  0  0  0  0
  142.0479   75.0538  217.2571 H   0  0  0  0  0  0  0  0  0  0  0  0
  140.4741   74.8540  219.2722 H   0  0  0  0  0  0  0  0  0  0  0  0
  141.0690   78.0895  218.7486 H   0  0  0  0  0  0  0  0  0  0  0  0
  140.5532   79.8899  220.3588 H   0  0  0  0  0  0  0  0  0  0  0  0
  140.4078   81.2215  224.0028 H   0  0  0  0  0  0  0  0  0  0  0  0
  141.1711   79.6540  224.7178 H   0  0  0  0  0  0  0  0  0  0  0  0
  140.5658   77.0388  223.5349 H   0  0  0  0  0  0  0  0  0  0  0  0
  141.0754   75.2643  221.9526 H   0  0  0  0  0  0  0  0  0  0  0  0
  139.2354   70.0183  222.4949 H   0  0  0  0  0  0  0  0  0  0  0  0
  138.7719   68.6501  224.5161 H   0  0  0  0  0  0  0  0  0  0  0  0
  138.9970   68.2716  226.8930 H   0  0  0  0  0  0  0  0  0  0  0  0
  139.8758   69.0030  229.0830 H   0  0  0  0  0  0  0  0  0  0  0  0
  141.2170   71.0912  229.3139 H   0  0  0  0  0  0  0  0  0  0  0  0
  141.6515   72.4340  227.2396 H   0  0  0  0  0  0  0  0  0  0  0  0
  1  2  2  0
  2  3  1  0
  3  4  1  0
  4  5  1  0
  5  6  2  0
  5  7  1  0
  7  8  1  0
  8  9  1  0
  9 10  1  0
 10 11  1  0
 11 12  1  0
 12 13  2  0
 13 14  1  0
 14 15  2  0
 15 16  1  0
 16 17  1  0
 17 18  1  0
 18 19  1  0
 18 20  1  0
 18 21  1  0
 15 22  1  0
 22 23  2  0
  2 24  1  0
 24 25  2  0
 25 26  1  0
 26 27  2  0
 27 28  1  0
 28 29  2  0
 29 30  1  0
 30 31  2  0
 31 32  1  0
 32 33  2  0
 11  7  1  0
 23 12  1  0
 33 24  1  0
 32 27  1  0
  3 34  1  0
  4 35  1  0
  4 36  1  0
  8 37  1  0
  8 38  1  0
  9 39  1  0
  9 40  1  0
 10 41  1  0
 10 42  1  0
 11 43  1  6
 13 44  1  0
 14 45  1  0
 17 46  1  0
 17 47  1  0
 22 48  1  0
 23 49  1  0
 25 50  1  0
 26 51  1  0
 28 52  1  0
 29 53  1  0
 30 54  1  0
 31 55  1  0
M  END
>  <smiles>  (47) 
O=C(NCC(=O)N1CCCC1c1ccc(OCC(F)(F)F)cc1)c1ccc2ccccc2n1

>  <score_type>  (47) 
oracle

>  <origin>  (47) 
autodockgpu

>  <m_score__min__energy>  (47) 
-8.0399999999999991

>  <m_primary>  (47) 
energy

>  <rmsd>  (47) 
2.7354919998576537

>  <m_score__min__rmsd>  (47) 
2.7354919998576537

>  <meeko>  (47) 
{"free_energy": -7.86, "intermolecular_energy": -10.24, "internal_energy": -1.66, "cluster_size": 19, "cluster_id": 2, "rank_in_cluster": 7}

>  <energy>  (47) 
-5.73

>  <cluster_rmsd>  (47) 
1.16

>  <cluster>  (47) 
7

$$$$

     RDKit          3D

 55 58  0  0  0  0  0  0  0  0999 V2000
  140.9180   71.4060  221.3270 O   0  0  0  0  0  0  0  0  0  0  0  0
  140.3510   71.9920  222.2980 C   0  0  0  0  0  0  0  0  0  0  0  0
  139.8880   73.3250  222.0400 N   0  0  0  0  0  0  0  0  0  0  0  0
  140.1130   73.8650  220.7130 C   0  0  0  0  0  0  0  0  0  0  0  0
  140.9870   75.0600  220.7430 C   0  0  0  0  0  0  0  0  0  0  0  0
  142.2250   75.0230  220.5420 O   0  0  0  0  0  0  0  0  0  0  0  0
  140.3690   76.3110  221.0180 N   0  0  0  0  0  0  0  0  0  0  0  0
  139.1200   76.8520  220.5090 C   0  0  0  0  0  0  0  0  0  0  0  0
  138.5450   77.5820  221.7290 C   0  0  0  0  0  0  0  0  0  0  0  0
  139.6440   77.5140  222.7780 C   0  0  0  0  0  0  0  0  0  0  0  0
  140.8770   77.3710  221.9100 C   0  0  2  0  0  0  0  0  0  0  0  0
  141.1600   78.5800  221.0970 C   0  0  0  0  0  0  0  0  0  0  0  0
  141.7000   78.5400  219.8390 C   0  0  0  0  0  0  0  0  0  0  0  0
  141.9370   79.7260  219.1370 C   0  0  0  0  0  0  0  0  0  0  0  0
  141.6550   80.9630  219.6420 C   0  0  0  0  0  0  0  0  0  0  0  0
  141.8260   82.1670  219.0810 O   0  0  0  0  0  0  0  0  0  0  0  0
  142.0080   82.5910  217.8170 C   0  0  0  0  0  0  0  0  0  0  0  0
  143.2930   82.3310  217.1070 C   0  0  0  0  0  0  0  0  0  0  0  0
  142.9290   81.7100  215.8910 F   0  0  0  0  0  0  0  0  0  0  0  0
  144.0450   83.3980  216.7430 F   0  0  0  0  0  0  0  0  0  0  0  0
  144.0610   81.3650  217.7510 F   0  0  0  0  0  0  0  0  0  0  0  0
  141.1000   80.9590  220.9420 C   0  0  0  0  0  0  0  0  0  0  0  0
  140.8650   79.8100  221.6370 C   0  0  0  0  0  0  0  0  0  0  0  0
  140.1670   71.3720  223.6000 C   0  0  0  0  0  0  0  0  0  0  0  0
  139.4360   70.2040  223.6430 C   0  0  0  0  0  0  0  0  0  0  0  0
  139.2560   69.6090  224.8690 C   0  0  0  0  0  0  0  0  0  0  0  0
  139.7870   70.1610  226.0130 C   0  0  0  0  0  0  0  0  0  0  0  0
  139.6050   69.5600  227.2460 C   0  0  0  0  0  0  0  0  0  0  0  0
  140.1540   70.1450  228.3760 C   0  0  0  0  0  0  0  0  0  0  0  0
  140.8860   71.3180  228.3230 C   0  0  0  0  0  0  0  0  0  0  0  0
  141.0480   71.8930  227.0620 C   0  0  0  0  0  0  0  0  0  0  0  0
  140.5100   71.3280  225.9300 C   0  0  0  0  0  0  0  0  0  0  0  0
  140.6810   71.9050  224.7130 N   0  0  0  0  0  0  0  0  0  0  0  0
  139.4100   73.8690  222.7970 H   0  0  0  0  0  0  0  0  0  0  0  0
  140.5884   73.0925  220.0908 H   0  0  0  0  0  0  0  0  0  0  0  0
  139.1396   74.1654  220.2981 H   0  0  0  0  0  0  0  0  0  0  0  0
  139.2997   77.5498  219.6779 H   0  0  0  0  0  0  0  0  0  0  0  0
  138.4456   76.0838  220.1029 H   0  0  0  0  0  0  0  0  0  0  0  0
  138.3115   78.6277  221.4800 H   0  0  0  0  0  0  0  0  0  0  0  0
  137.6074   77.1267  222.0807 H   0  0  0  0  0  0  0  0  0  0  0  0
  139.6813   78.4327  223.3818 H   0  0  0  0  0  0  0  0  0  0  0  0
  139.5150   76.7056  223.5127 H   0  0  0  0  0  0  0  0  0  0  0  0
  141.8076   77.1877  222.4671 H   0  0  0  0  0  0  0  0  0  0  0  0
  141.9481   77.5719  219.3794 H   0  0  0  0  0  0  0  0  0  0  0  0
  142.3718   79.6592  218.1288 H   0  0  0  0  0  0  0  0  0  0  0  0
  141.2149   82.1272  217.2122 H   0  0  0  0  0  0  0  0  0  0  0  0
  142.0013   83.6860  217.9211 H   0  0  0  0  0  0  0  0  0  0  0  0
  140.8477   81.9212  221.4115 H   0  0  0  0  0  0  0  0  0  0  0  0
  140.4322   79.8676  222.6466 H   0  0  0  0  0  0  0  0  0  0  0  0
  139.0118   69.7637  222.7286 H   0  0  0  0  0  0  0  0  0  0  0  0
  138.6777   68.6758  224.9372 H   0  0  0  0  0  0  0  0  0  0  0  0
  139.0296   68.6261  227.3285 H   0  0  0  0  0  0  0  0  0  0  0  0
  140.0023   69.6589  229.3510 H   0  0  0  0  0  0  0  0  0  0  0  0
  141.3173   71.7730  229.2269 H   0  0  0  0  0  0  0  0  0  0  0  0
  141.6233   72.8261  226.9709 H   0  0  0  0  0  0  0  0  0  0  0  0
  1  2  2  0
  2  3  1  0
  3  4  1  0
  4  5  1  0
  5  6  2  0
  5  7  1  0
  7  8  1  0
  8  9  1  0
  9 10  1  0
 10 11  1  0
 11 12  1  0
 12 13  2  0
 13 14  1  0
 14 15  2  0
 15 16  1  0
 16 17  1  0
 17 18  1  0
 18 19  1  0
 18 20  1  0
 18 21  1  0
 15 22  1  0
 22 23  2  0
  2 24  1  0
 24 25  2  0
 25 26  1  0
 26 27  2  0
 27 28  1  0
 28 29  2  0
 29 30  1  0
 30 31  2  0
 31 32  1  0
 32 33  2  0
 11  7  1  0
 23 12  1  0
 33 24  1  0
 32 27  1  0
  3 34  1  0
  4 35  1  0
  4 36  1  0
  8 37  1  0
  8 38  1  0
  9 39  1  0
  9 40  1  0
 10 41  1  0
 10 42  1  0
 11 43  1  1
 13 44  1  0
 14 45  1  0
 17 46  1  0
 17 47  1  0
 22 48  1  0
 23 49  1  0
 25 50  1  0
 26 51  1  0
 28 52  1  0
 29 53  1  0
 30 54  1  0
 31 55  1  0
M  END
>  <smiles>  (48) 
O=C(NCC(=O)N1CCCC1c1ccc(OCC(F)(F)F)cc1)c1ccc2ccccc2n1

>  <score_type>  (48) 
oracle

>  <origin>  (48) 
autodockgpu

>  <m_score__min__energy>  (48) 
-8.0399999999999991

>  <m_primary>  (48) 
energy

>  <rmsd>  (48) 
2.510772682698642

>  <m_score__min__rmsd>  (48) 
2.510772682698642

>  <meeko>  (48) 
{"free_energy": -7.08, "intermolecular_energy": -9.47, "internal_energy": -1.42, "cluster_size": 2, "cluster_id": 5, "rank_in_cluster": 2}

>  <energy>  (48) 
-5.72

>  <cluster_rmsd>  (48) 
1.02

>  <cluster>  (48) 
7

$$$$

     RDKit          3D

 55 58  0  0  0  0  0  0  0  0999 V2000
  138.7760   72.5260  222.6250 O   0  0  0  0  0  0  0  0  0  0  0  0
  139.8070   71.8530  222.9240 C   0  0  0  0  0  0  0  0  0  0  0  0
  140.9880   72.1480  222.1650 N   0  0  0  0  0  0  0  0  0  0  0  0
  140.8870   73.1730  221.1430 C   0  0  0  0  0  0  0  0  0  0  0  0
  142.1980   73.4620  220.5190 C   0  0  0  0  0  0  0  0  0  0  0  0
  143.1170   72.6150  220.4070 O   0  0  0  0  0  0  0  0  0  0  0  0
  142.4080   74.7790  220.0260 N   0  0  0  0  0  0  0  0  0  0  0  0
  143.6540   75.4970  219.8180 C   0  0  0  0  0  0  0  0  0  0  0  0
  143.3860   76.2720  218.5230 C   0  0  0  0  0  0  0  0  0  0  0  0
  141.9150   76.0320  218.2210 C   0  0  0  0  0  0  0  0  0  0  0  0
  141.3710   75.7400  219.6040 C   0  0  2  0  0  0  0  0  0  0  0  0
  141.4180   76.9160  220.5090 C   0  0  0  0  0  0  0  0  0  0  0  0
  141.7860   78.1710  220.1050 C   0  0  0  0  0  0  0  0  0  0  0  0
  141.8040   79.2280  221.0210 C   0  0  0  0  0  0  0  0  0  0  0  0
  141.4670   79.0850  222.3350 C   0  0  0  0  0  0  0  0  0  0  0  0
  141.4360   80.0040  223.3090 O   0  0  0  0  0  0  0  0  0  0  0  0
  140.5100   80.8820  223.7340 C   0  0  0  0  0  0  0  0  0  0  0  0
  139.0580   80.5540  223.6530 C   0  0  0  0  0  0  0  0  0  0  0  0
  138.5900   81.2140  222.4950 F   0  0  0  0  0  0  0  0  0  0  0  0
  138.7090   79.2560  223.4800 F   0  0  0  0  0  0  0  0  0  0  0  0
  138.3300   81.1420  224.6820 F   0  0  0  0  0  0  0  0  0  0  0  0
  141.0930   77.7730  222.7110 C   0  0  0  0  0  0  0  0  0  0  0  0
  141.0720   76.7350  221.8280 C   0  0  0  0  0  0  0  0  0  0  0  0
  139.8190   70.8400  223.9670 C   0  0  0  0  0  0  0  0  0  0  0  0
  139.1860   69.6460  223.6920 C   0  0  0  0  0  0  0  0  0  0  0  0
  139.1910   68.6810  224.6700 C   0  0  0  0  0  0  0  0  0  0  0  0
  139.8060   68.9000  225.8820 C   0  0  0  0  0  0  0  0  0  0  0  0
  139.8090   67.9270  226.8670 C   0  0  0  0  0  0  0  0  0  0  0  0
  140.4380   68.1830  228.0750 C   0  0  0  0  0  0  0  0  0  0  0  0
  141.0700   69.3850  228.3420 C   0  0  0  0  0  0  0  0  0  0  0  0
  141.0440   70.3400  227.3250 C   0  0  0  0  0  0  0  0  0  0  0  0
  140.4260   70.1040  226.1200 C   0  0  0  0  0  0  0  0  0  0  0  0
  140.4140   71.0480  225.1450 N   0  0  0  0  0  0  0  0  0  0  0  0
  141.8780   71.6300  222.3580 H   0  0  0  0  0  0  0  0  0  0  0  0
  140.1901   72.8307  220.3638 H   0  0  0  0  0  0  0  0  0  0  0  0
  140.5261   74.0959  221.6205 H   0  0  0  0  0  0  0  0  0  0  0  0
  143.8614   76.1814  220.6538 H   0  0  0  0  0  0  0  0  0  0  0  0
  144.5323   74.8375  219.7575 H   0  0  0  0  0  0  0  0  0  0  0  0
  143.5816   77.3449  218.6665 H   0  0  0  0  0  0  0  0  0  0  0  0
  144.0370   75.9416  217.7002 H   0  0  0  0  0  0  0  0  0  0  0  0
  141.4433   76.9239  217.7829 H   0  0  0  0  0  0  0  0  0  0  0  0
  141.7306   75.2338  217.4870 H   0  0  0  0  0  0  0  0  0  0  0  0
  140.3190   75.4191  219.6209 H   0  0  0  0  0  0  0  0  0  0  0  0
  142.0684   78.3488  219.0568 H   0  0  0  0  0  0  0  0  0  0  0  0
  142.1049   80.2240  220.6640 H   0  0  0  0  0  0  0  0  0  0  0  0
  140.7287   81.0815  224.7934 H   0  0  0  0  0  0  0  0  0  0  0  0
  140.6142   81.7134  223.0213 H   0  0  0  0  0  0  0  0  0  0  0  0
  140.8082   77.5836  223.7565 H   0  0  0  0  0  0  0  0  0  0  0  0
  140.7732   75.7352  222.1761 H   0  0  0  0  0  0  0  0  0  0  0  0
  138.6943   69.4723  222.7235 H   0  0  0  0  0  0  0  0  0  0  0  0
  138.6953   67.7173  224.4814 H   0  0  0  0  0  0  0  0  0  0  0  0
  139.3164   66.9591  226.6922 H   0  0  0  0  0  0  0  0  0  0  0  0
  140.4349   67.4024  228.8500 H   0  0  0  0  0  0  0  0  0  0  0  0
  141.5664   69.5772  229.3046 H   0  0  0  0  0  0  0  0  0  0  0  0
  141.5328   71.3111  227.4926 H   0  0  0  0  0  0  0  0  0  0  0  0
  1  2  2  0
  2  3  1  0
  3  4  1  0
  4  5  1  0
  5  6  2  0
  5  7  1  0
  7  8  1  0
  8  9  1  0
  9 10  1  0
 10 11  1  0
 11 12  1  0
 12 13  2  0
 13 14  1  0
 14 15  2  0
 15 16  1  0
 16 17  1  0
 17 18  1  0
 18 19  1  0
 18 20  1  0
 18 21  1  0
 15 22  1  0
 22 23  2  0
  2 24  1  0
 24 25  2  0
 25 26  1  0
 26 27  2  0
 27 28  1  0
 28 29  2  0
 29 30  1  0
 30 31  2  0
 31 32  1  0
 32 33  2  0
 11  7  1  0
 23 12  1  0
 33 24  1  0
 32 27  1  0
  3 34  1  0
  4 35  1  0
  4 36  1  0
  8 37  1  0
  8 38  1  0
  9 39  1  0
  9 40  1  0
 10 41  1  0
 10 42  1  0
 11 43  1  6
 13 44  1  0
 14 45  1  0
 17 46  1  0
 17 47  1  0
 22 48  1  0
 23 49  1  0
 25 50  1  0
 26 51  1  0
 28 52  1  0
 29 53  1  0
 30 54  1  0
 31 55  1  0
M  END
>  <smiles>  (49) 
O=C(NCC(=O)N1CCCC1c1ccc(OCC(F)(F)F)cc1)c1ccc2ccccc2n1

>  <score_type>  (49) 
oracle

>  <origin>  (49) 
autodockgpu

>  <m_score__min__energy>  (49) 
-8.0399999999999991

>  <m_primary>  (49) 
energy

>  <rmsd>  (49) 
2.5121726011517573

>  <m_score__min__rmsd>  (49) 
2.5121726011517573

>  <meeko>  (49) 
{"free_energy": -7.26, "intermolecular_energy": -9.65, "internal_energy": -1.49, "cluster_size": 19, "cluster_id": 2, "rank_in_cluster": 18}

>  <energy>  (49) 
-5.63

>  <cluster_rmsd>  (49) 
1.06

>  <cluster>  (49) 
7

$$$$

     RDKit          3D

 55 58  0  0  0  0  0  0  0  0999 V2000
  140.3460   71.3490  221.2800 O   0  0  0  0  0  0  0  0  0  0  0  0
  140.0610   71.9060  222.3810 C   0  0  0  0  0  0  0  0  0  0  0  0
  139.7160   73.2960  222.3090 N   0  0  0  0  0  0  0  0  0  0  0  0
  139.7270   73.9200  220.9990 C   0  0  0  0  0  0  0  0  0  0  0  0
  140.6990   75.0350  220.9270 C   0  0  0  0  0  0  0  0  0  0  0  0
  140.5850   76.1010  221.5790 O   0  0  0  0  0  0  0  0  0  0  0  0
  141.8180   74.8680  220.0650 N   0  0  0  0  0  0  0  0  0  0  0  0
  141.8470   74.6220  218.6320 C   0  0  0  0  0  0  0  0  0  0  0  0
  143.0490   75.4550  218.1710 C   0  0  0  0  0  0  0  0  0  0  0  0
  143.6890   75.9620  219.4540 C   0  0  0  0  0  0  0  0  0  0  0  0
  143.2420   74.9090  220.4460 C   0  0  2  0  0  0  0  0  0  0  0  0
  143.8400   73.5750  220.1890 C   0  0  0  0  0  0  0  0  0  0  0  0
  145.1610   73.3800  219.8840 C   0  0  0  0  0  0  0  0  0  0  0  0
  145.6470   72.0890  219.6550 C   0  0  0  0  0  0  0  0  0  0  0  0
  144.8640   70.9730  219.7190 C   0  0  0  0  0  0  0  0  0  0  0  0
  145.1990   69.6900  219.5290 O   0  0  0  0  0  0  0  0  0  0  0  0
  145.7610   69.0130  218.5110 C   0  0  0  0  0  0  0  0  0  0  0  0
  145.7620   69.5780  217.1310 C   0  0  0  0  0  0  0  0  0  0  0  0
  144.4000   69.7330  216.7900 F   0  0  0  0  0  0  0  0  0  0  0  0
  146.3090   70.8050  216.9480 F   0  0  0  0  0  0  0  0  0  0  0  0
  146.2340   68.6670  216.1920 F   0  0  0  0  0  0  0  0  0  0  0  0
  143.5080   71.2180  220.0360 C   0  0  0  0  0  0  0  0  0  0  0  0
  143.0220   72.4710  220.2610 C   0  0  0  0  0  0  0  0  0  0  0  0
  140.0750   71.2010  223.6530 C   0  0  0  0  0  0  0  0  0  0  0  0
  139.5770   69.9150  223.6650 C   0  0  0  0  0  0  0  0  0  0  0  0
  139.5860   69.2390  224.8620 C   0  0  0  0  0  0  0  0  0  0  0  0
  140.0740   69.8260  226.0070 C   0  0  0  0  0  0  0  0  0  0  0  0
  140.0810   69.1430  227.2110 C   0  0  0  0  0  0  0  0  0  0  0  0
  140.5790   69.7670  228.3440 C   0  0  0  0  0  0  0  0  0  0  0  0
  141.0770   71.0580  228.3230 C   0  0  0  0  0  0  0  0  0  0  0  0
  141.0520   71.7120  227.0900 C   0  0  0  0  0  0  0  0  0  0  0  0
  140.5610   71.1110  225.9560 C   0  0  0  0  0  0  0  0  0  0  0  0
  140.5480   71.7670  224.7670 N   0  0  0  0  0  0  0  0  0  0  0  0
  139.4690   73.8210  223.1810 H   0  0  0  0  0  0  0  0  0  0  0  0
  139.9968   73.1638  220.2471 H   0  0  0  0  0  0  0  0  0  0  0  0
  138.7240   74.3290  220.8076 H   0  0  0  0  0  0  0  0  0  0  0  0
  141.9982   73.5541  218.4159 H   0  0  0  0  0  0  0  0  0  0  0  0
  140.9091   74.8909  218.1240 H   0  0  0  0  0  0  0  0  0  0  0  0
  143.7573   74.8321  217.6051 H   0  0  0  0  0  0  0  0  0  0  0  0
  142.7514   76.2773  217.5037 H   0  0  0  0  0  0  0  0  0  0  0  0
  144.7853   75.9968  219.3705 H   0  0  0  0  0  0  0  0  0  0  0  0
  143.4003   76.9880  219.7260 H   0  0  0  0  0  0  0  0  0  0  0  0
  143.4996   75.1315  221.4920 H   0  0  0  0  0  0  0  0  0  0  0  0
  145.8417   74.2416  219.8190 H   0  0  0  0  0  0  0  0  0  0  0  0
  146.7127   71.9669  219.4113 H   0  0  0  0  0  0  0  0  0  0  0  0
  146.8139   68.8503  218.7849 H   0  0  0  0  0  0  0  0  0  0  0  0
  145.1116   68.1304  218.4147 H   0  0  0  0  0  0  0  0  0  0  0  0
  142.8184   70.3637  220.1036 H   0  0  0  0  0  0  0  0  0  0  0  0
  141.9573   72.6021  220.5044 H   0  0  0  0  0  0  0  0  0  0  0  0
  139.1865   69.4469  222.7494 H   0  0  0  0  0  0  0  0  0  0  0  0
  139.1964   68.2112  224.9053 H   0  0  0  0  0  0  0  0  0  0  0  0
  139.6949   68.1146  227.2680 H   0  0  0  0  0  0  0  0  0  0  0  0
  140.5784   69.2153  229.2956 H   0  0  0  0  0  0  0  0  0  0  0  0
  141.4711   71.5424  229.2286 H   0  0  0  0  0  0  0  0  0  0  0  0
  141.4373   72.7402  227.0241 H   0  0  0  0  0  0  0  0  0  0  0  0
  1  2  2  0
  2  3  1  0
  3  4  1  0
  4  5  1  0
  5  6  2  0
  5  7  1  0
  7  8  1  0
  8  9  1  0
  9 10  1  0
 10 11  1  0
 11 12  1  0
 12 13  2  0
 13 14  1  0
 14 15  2  0
 15 16  1  0
 16 17  1  0
 17 18  1  0
 18 19  1  0
 18 20  1  0
 18 21  1  0
 15 22  1  0
 22 23  2  0
  2 24  1  0
 24 25  2  0
 25 26  1  0
 26 27  2  0
 27 28  1  0
 28 29  2  0
 29 30  1  0
 30 31  2  0
 31 32  1  0
 32 33  2  0
 11  7  1  0
 23 12  1  0
 33 24  1  0
 32 27  1  0
  3 34  1  0
  4 35  1  0
  4 36  1  0
  8 37  1  0
  8 38  1  0
  9 39  1  0
  9 40  1  0
 10 41  1  0
 10 42  1  0
 11 43  1  1
 13 44  1  0
 14 45  1  0
 17 46  1  0
 17 47  1  0
 22 48  1  0
 23 49  1  0
 25 50  1  0
 26 51  1  0
 28 52  1  0
 29 53  1  0
 30 54  1  0
 31 55  1  0
M  END
>  <smiles>  (50) 
O=C(NCC(=O)N1CCCC1c1ccc(OCC(F)(F)F)cc1)c1ccc2ccccc2n1

>  <score_type>  (50) 
oracle

>  <origin>  (50) 
autodockgpu

>  <m_score__min__energy>  (50) 
-8.0399999999999991

>  <m_primary>  (50) 
energy

>  <rmsd>  (50) 
2.1453151585189136

>  <m_score__min__rmsd>  (50) 
2.1453151585189136

>  <meeko>  (50) 
{"free_energy": -7.48, "intermolecular_energy": -9.87, "internal_energy": -1.78, "cluster_size": 10, "cluster_id": 1, "rank_in_cluster": 6}

>  <energy>  (50) 
-5.53

>  <cluster_rmsd>  (50) 
1.15

>  <cluster>  (50) 
7

$$$$

     RDKit          3D

 55 58  0  0  0  0  0  0  0  0999 V2000
  140.4570   71.4660  221.3100 O   0  0  0  0  0  0  0  0  0  0  0  0
  140.1130   72.0780  222.3770 C   0  0  0  0  0  0  0  0  0  0  0  0
  139.7620   73.4340  222.2560 N   0  0  0  0  0  0  0  0  0  0  0  0
  139.8050   74.0650  220.9520 C   0  0  0  0  0  0  0  0  0  0  0  0
  141.1160   74.7030  220.6900 C   0  0  0  0  0  0  0  0  0  0  0  0
  142.1810   74.1540  221.0740 O   0  0  0  0  0  0  0  0  0  0  0  0
  141.2330   75.9360  220.0090 N   0  0  0  0  0  0  0  0  0  0  0  0
  140.4590   76.4310  218.8600 C   0  0  0  0  0  0  0  0  0  0  0  0
  141.5950   76.9390  217.9560 C   0  0  0  0  0  0  0  0  0  0  0  0
  142.4550   77.6740  218.9430 C   0  0  0  0  0  0  0  0  0  0  0  0
  142.1640   77.0480  220.2660 C   0  0  1  0  0  0  0  0  0  0  0  0
  141.5290   78.0630  221.1510 C   0  0  0  0  0  0  0  0  0  0  0  0
  140.8230   77.6140  222.2440 C   0  0  0  0  0  0  0  0  0  0  0  0
  140.2390   78.5050  223.1060 C   0  0  0  0  0  0  0  0  0  0  0  0
  140.3320   79.9000  222.9140 C   0  0  0  0  0  0  0  0  0  0  0  0
  139.7190   80.6700  223.8220 O   0  0  0  0  0  0  0  0  0  0  0  0
  138.4750   80.9480  224.2730 C   0  0  0  0  0  0  0  0  0  0  0  0
  137.2840   80.5540  223.4740 C   0  0  0  0  0  0  0  0  0  0  0  0
  137.2690   80.9380  222.1660 F   0  0  0  0  0  0  0  0  0  0  0  0
  136.1090   80.8950  224.1330 F   0  0  0  0  0  0  0  0  0  0  0  0
  137.2660   79.1470  223.4460 F   0  0  0  0  0  0  0  0  0  0  0  0
  141.0470   80.2880  221.8100 C   0  0  0  0  0  0  0  0  0  0  0  0
  141.6460   79.4150  220.9270 C   0  0  0  0  0  0  0  0  0  0  0  0
  140.0950   71.3710  223.6520 C   0  0  0  0  0  0  0  0  0  0  0  0
  139.5640   70.1010  223.7150 C   0  0  0  0  0  0  0  0  0  0  0  0
  139.5100   69.3640  224.8840 C   0  0  0  0  0  0  0  0  0  0  0  0
  140.0260   69.9700  226.0300 C   0  0  0  0  0  0  0  0  0  0  0  0
  139.9770   69.2450  227.1980 C   0  0  0  0  0  0  0  0  0  0  0  0
  140.4850   69.8310  228.3430 C   0  0  0  0  0  0  0  0  0  0  0  0
  141.0320   71.1180  228.3190 C   0  0  0  0  0  0  0  0  0  0  0  0
  141.0620   71.8170  227.1120 C   0  0  0  0  0  0  0  0  0  0  0  0
  140.5560   71.2380  225.9630 C   0  0  0  0  0  0  0  0  0  0  0  0
  140.5790   71.9020  224.7940 N   0  0  0  0  0  0  0  0  0  0  0  0
  139.4700   73.9850  223.1100 H   0  0  0  0  0  0  0  0  0  0  0  0
  139.6205   73.3020  220.1814 H   0  0  0  0  0  0  0  0  0  0  0  0
  139.0334   74.8486  220.9269 H   0  0  0  0  0  0  0  0  0  0  0  0
  139.8862   75.6248  218.3784 H   0  0  0  0  0  0  0  0  0  0  0  0
  139.6990   77.1860  219.1098 H   0  0  0  0  0  0  0  0  0  0  0  0
  142.1408   76.1057  217.4894 H   0  0  0  0  0  0  0  0  0  0  0  0
  141.2548   77.5551  217.1106 H   0  0  0  0  0  0  0  0  0  0  0  0
  143.5187   77.5579  218.6880 H   0  0  0  0  0  0  0  0  0  0  0  0
  142.2431   78.7534  218.9459 H   0  0  0  0  0  0  0  0  0  0  0  0
  143.0766   76.6821  220.7592 H   0  0  0  0  0  0  0  0  0  0  0  0
  140.7270   76.5335  222.4266 H   0  0  0  0  0  0  0  0  0  0  0  0
  139.6813   78.1215  223.9731 H   0  0  0  0  0  0  0  0  0  0  0  0
  138.3761   80.4565  225.2521 H   0  0  0  0  0  0  0  0  0  0  0  0
  138.4399   82.0472  224.2498 H   0  0  0  0  0  0  0  0  0  0  0  0
  141.1492   81.3660  221.6164 H   0  0  0  0  0  0  0  0  0  0  0  0
  142.2070   79.7927  220.0595 H   0  0  0  0  0  0  0  0  0  0  0  0
  139.1647   69.6528  222.7932 H   0  0  0  0  0  0  0  0  0  0  0  0
  139.0818   68.3511  224.9091 H   0  0  0  0  0  0  0  0  0  0  0  0
  139.5479   68.2324  227.2205 H   0  0  0  0  0  0  0  0  0  0  0  0
  140.4583   69.2740  229.2912 H   0  0  0  0  0  0  0  0  0  0  0  0
  141.4323   71.5720  229.2375 H   0  0  0  0  0  0  0  0  0  0  0  0
  141.4888   72.8301  227.0744 H   0  0  0  0  0  0  0  0  0  0  0  0
  1  2  2  0
  2  3  1  0
  3  4  1  0
  4  5  1  0
  5  6  2  0
  5  7  1  0
  7  8  1  0
  8  9  1  0
  9 10  1  0
 10 11  1  0
 11 12  1  0
 12 13  2  0
 13 14  1  0
 14 15  2  0
 15 16  1  0
 16 17  1  0
 17 18  1  0
 18 19  1  0
 18 20  1  0
 18 21  1  0
 15 22  1  0
 22 23  2  0
  2 24  1  0
 24 25  2  0
 25 26  1  0
 26 27  2  0
 27 28  1  0
 28 29  2  0
 29 30  1  0
 30 31  2  0
 31 32  1  0
 32 33  2  0
 11  7  1  0
 23 12  1  0
 33 24  1  0
 32 27  1  0
  3 34  1  0
  4 35  1  0
  4 36  1  0
  8 37  1  0
  8 38  1  0
  9 39  1  0
  9 40  1  0
 10 41  1  0
 10 42  1  0
 11 43  1  1
 13 44  1  0
 14 45  1  0
 17 46  1  0
 17 47  1  0
 22 48  1  0
 23 49  1  0
 25 50  1  0
 26 51  1  0
 28 52  1  0
 29 53  1  0
 30 54  1  0
 31 55  1  0
M  END
>  <smiles>  (51) 
O=C(NCC(=O)N1CCCC1c1ccc(OCC(F)(F)F)cc1)c1ccc2ccccc2n1

>  <score_type>  (51) 
oracle

>  <origin>  (51) 
autodockgpu

>  <m_score__min__energy>  (51) 
-8

>  <m_primary>  (51) 
energy

>  <rmsd>  (51) 
1.5563499965326983

>  <m_score__min__rmsd>  (51) 
1.5563499965326983

>  <meeko>  (51) 
{"free_energy": -7.64, "intermolecular_energy": -10.03, "internal_energy": -1.54, "cluster_size": 9, "cluster_id": 1, "rank_in_cluster": 5}

>  <energy>  (51) 
-8.0

>  <cluster_rmsd>  (51) 
0.0

>  <cluster>  (51) 
1

$$$$

     RDKit          3D

 55 58  0  0  0  0  0  0  0  0999 V2000
  141.4830   72.1710  221.9650 O   0  0  0  0  0  0  0  0  0  0  0  0
  140.4550   72.2580  222.7200 C   0  0  0  0  0  0  0  0  0  0  0  0
  139.5570   73.3100  222.4650 N   0  0  0  0  0  0  0  0  0  0  0  0
  139.8310   74.2300  221.3790 C   0  0  0  0  0  0  0  0  0  0  0  0
  139.2690   75.5750  221.6390 C   0  0  0  0  0  0  0  0  0  0  0  0
  138.1730   75.7040  222.2450 O   0  0  0  0  0  0  0  0  0  0  0  0
  139.9210   76.7590  221.2270 N   0  0  0  0  0  0  0  0  0  0  0  0
  139.8080   77.4750  219.9460 C   0  0  0  0  0  0  0  0  0  0  0  0
  141.2940   77.7050  219.6210 C   0  0  0  0  0  0  0  0  0  0  0  0
  141.8220   78.1600  220.9510 C   0  0  0  0  0  0  0  0  0  0  0  0
  140.8910   77.5860  221.9660 C   0  0  1  0  0  0  0  0  0  0  0  0
  140.1950   78.6990  222.6670 C   0  0  0  0  0  0  0  0  0  0  0  0
  138.8290   78.6130  222.8160 C   0  0  0  0  0  0  0  0  0  0  0  0
  138.1400   79.5980  223.4750 C   0  0  0  0  0  0  0  0  0  0  0  0
  138.7890   80.7260  224.0220 C   0  0  0  0  0  0  0  0  0  0  0  0
  138.0110   81.6220  224.6420 O   0  0  0  0  0  0  0  0  0  0  0  0
  136.7120   81.8200  224.9610 C   0  0  0  0  0  0  0  0  0  0  0  0
  136.3420   82.3180  226.3120 C   0  0  0  0  0  0  0  0  0  0  0  0
  137.3480   82.4160  227.2270 F   0  0  0  0  0  0  0  0  0  0  0  0
  135.2450   81.6280  226.8130 F   0  0  0  0  0  0  0  0  0  0  0  0
  135.8700   83.6340  226.1400 F   0  0  0  0  0  0  0  0  0  0  0  0
  140.1490   80.7560  223.8430 C   0  0  0  0  0  0  0  0  0  0  0  0
  140.8680   79.7810  223.1860 C   0  0  0  0  0  0  0  0  0  0  0  0
  140.2510   71.2920  223.7930 C   0  0  0  0  0  0  0  0  0  0  0  0
  139.5530   70.1320  223.5350 C   0  0  0  0  0  0  0  0  0  0  0  0
  139.3160   69.1660  224.4960 C   0  0  0  0  0  0  0  0  0  0  0  0
  139.8240   69.4150  225.7730 C   0  0  0  0  0  0  0  0  0  0  0  0
  139.5940   68.4610  226.7350 C   0  0  0  0  0  0  0  0  0  0  0  0
  140.0910   68.6920  228.0050 C   0  0  0  0  0  0  0  0  0  0  0  0
  140.8050   69.8580  228.3050 C   0  0  0  0  0  0  0  0  0  0  0  0
  141.0150   70.7990  227.2970 C   0  0  0  0  0  0  0  0  0  0  0  0
  140.5210   70.5750  226.0250 C   0  0  0  0  0  0  0  0  0  0  0  0
  140.7170   71.4740  225.0450 N   0  0  0  0  0  0  0  0  0  0  0  0
  138.6930   73.4260  223.0620 H   0  0  0  0  0  0  0  0  0  0  0  0
  140.9203   74.3180  221.2538 H   0  0  0  0  0  0  0  0  0  0  0  0
  139.3577   73.8332  220.4688 H   0  0  0  0  0  0  0  0  0  0  0  0
  139.3151   76.8596  219.1790 H   0  0  0  0  0  0  0  0  0  0  0  0
  139.2003   78.3911  219.9851 H   0  0  0  0  0  0  0  0  0  0  0  0
  141.7820   76.7761  219.2910 H   0  0  0  0  0  0  0  0  0  0  0  0
  141.4697   78.4163  218.8006 H   0  0  0  0  0  0  0  0  0  0  0  0
  142.8432   77.7827  221.1089 H   0  0  0  0  0  0  0  0  0  0  0  0
  141.8723   79.2569  221.0170 H   0  0  0  0  0  0  0  0  0  0  0  0
  141.4216   76.9823  222.7170 H   0  0  0  0  0  0  0  0  0  0  0  0
  138.2873   77.7489  222.4038 H   0  0  0  0  0  0  0  0  0  0  0  0
  137.0489   79.5067  223.5807 H   0  0  0  0  0  0  0  0  0  0  0  0
  136.3149   82.5459  224.2361 H   0  0  0  0  0  0  0  0  0  0  0  0
  136.2917   80.8036  224.9444 H   0  0  0  0  0  0  0  0  0  0  0  0
  140.7020   81.6150  224.2508 H   0  0  0  0  0  0  0  0  0  0  0  0
  141.9594   79.8662  223.0786 H   0  0  0  0  0  0  0  0  0  0  0  0
  139.1667   69.9669  222.5184 H   0  0  0  0  0  0  0  0  0  0  0  0
  138.7556   68.2478  224.2662 H   0  0  0  0  0  0  0  0  0  0  0  0
  139.0330   67.5437  226.5027 H   0  0  0  0  0  0  0  0  0  0  0  0
  139.9219   67.9449  228.7945 H   0  0  0  0  0  0  0  0  0  0  0  0
  141.1942   70.0295  229.3194 H   0  0  0  0  0  0  0  0  0  0  0  0
  141.5745   71.7208  227.5143 H   0  0  0  0  0  0  0  0  0  0  0  0
  1  2  2  0
  2  3  1  0
  3  4  1  0
  4  5  1  0
  5  6  2  0
  5  7  1  0
  7  8  1  0
  8  9  1  0
  9 10  1  0
 10 11  1  0
 11 12  1  0
 12 13  2  0
 13 14  1  0
 14 15  2  0
 15 16  1  0
 16 17  1  0
 17 18  1  0
 18 19  1  0
 18 20  1  0
 18 21  1  0
 15 22  1  0
 22 23  2  0
  2 24  1  0
 24 25  2  0
 25 26  1  0
 26 27  2  0
 27 28  1  0
 28 29  2  0
 29 30  1  0
 30 31  2  0
 31 32  1  0
 32 33  2  0
 11  7  1  0
 23 12  1  0
 33 24  1  0
 32 27  1  0
  3 34  1  0
  4 35  1  0
  4 36  1  0
  8 37  1  0
  8 38  1  0
  9 39  1  0
  9 40  1  0
 10 41  1  0
 10 42  1  0
 11 43  1  1
 13 44  1  0
 14 45  1  0
 17 46  1  0
 17 47  1  0
 22 48  1  0
 23 49  1  0
 25 50  1  0
 26 51  1  0
 28 52  1  0
 29 53  1  0
 30 54  1  0
 31 55  1  0
M  END
>  <smiles>  (52) 
O=C(NCC(=O)N1CCCC1c1ccc(OCC(F)(F)F)cc1)c1ccc2ccccc2n1

>  <score_type>  (52) 
oracle

>  <origin>  (52) 
autodockgpu

>  <m_score__min__energy>  (52) 
-8

>  <m_primary>  (52) 
energy

>  <rmsd>  (52) 
2.10274881309482

>  <m_score__min__rmsd>  (52) 
2.10274881309482

>  <meeko>  (52) 
{"free_energy": -8.0, "intermolecular_energy": -10.39, "internal_energy": -1.52, "cluster_size": 9, "cluster_id": 1, "rank_in_cluster": 1}

>  <energy>  (52) 
-7.91

>  <cluster_rmsd>  (52) 
0.38

>  <cluster>  (52) 
1

$$$$

     RDKit          3D

 55 58  0  0  0  0  0  0  0  0999 V2000
  137.8940   70.0560  221.9680 O   0  0  0  0  0  0  0  0  0  0  0  0
  138.0890   70.9000  222.9070 C   0  0  0  0  0  0  0  0  0  0  0  0
  137.6100   72.2070  222.7080 N   0  0  0  0  0  0  0  0  0  0  0  0
  136.9300   72.5330  221.4710 C   0  0  0  0  0  0  0  0  0  0  0  0
  137.8800   72.6970  220.3450 C   0  0  0  0  0  0  0  0  0  0  0  0
  137.5150   72.4660  219.1630 O   0  0  0  0  0  0  0  0  0  0  0  0
  139.2170   73.1120  220.5400 N   0  0  0  0  0  0  0  0  0  0  0  0
  140.2880   73.2650  219.5420 C   0  0  0  0  0  0  0  0  0  0  0  0
  141.4400   72.5350  220.2540 C   0  0  0  0  0  0  0  0  0  0  0  0
  141.3200   73.0780  221.6490 C   0  0  0  0  0  0  0  0  0  0  0  0
  139.8940   73.4950  221.7900 C   0  0  1  0  0  0  0  0  0  0  0  0
  139.8380   74.9710  221.9800 C   0  0  0  0  0  0  0  0  0  0  0  0
  141.0220   75.6710  221.9300 C   0  0  0  0  0  0  0  0  0  0  0  0
  141.0270   77.0350  222.0730 C   0  0  0  0  0  0  0  0  0  0  0  0
  139.8380   77.7690  222.2750 C   0  0  0  0  0  0  0  0  0  0  0  0
  139.9700   79.0950  222.4030 O   0  0  0  0  0  0  0  0  0  0  0  0
  140.4910   80.0070  223.2540 C   0  0  0  0  0  0  0  0  0  0  0  0
  141.9430   80.3240  223.2140 C   0  0  0  0  0  0  0  0  0  0  0  0
  142.4070   81.1980  224.1510 F   0  0  0  0  0  0  0  0  0  0  0  0
  142.3400   80.6760  221.9290 F   0  0  0  0  0  0  0  0  0  0  0  0
  142.6250   79.1180  223.4650 F   0  0  0  0  0  0  0  0  0  0  0  0
  138.6920   77.0170  222.3160 C   0  0  0  0  0  0  0  0  0  0  0  0
  138.6560   75.6470  222.1740 C   0  0  0  0  0  0  0  0  0  0  0  0
  138.7820   70.4930  224.1230 C   0  0  0  0  0  0  0  0  0  0  0  0
  138.8010   69.1610  224.4790 C   0  0  0  0  0  0  0  0  0  0  0  0
  139.4360   68.6930  225.6150 C   0  0  0  0  0  0  0  0  0  0  0  0
  140.0750   69.6450  226.4110 C   0  0  0  0  0  0  0  0  0  0  0  0
  140.7090   69.1890  227.5430 C   0  0  0  0  0  0  0  0  0  0  0  0
  141.3490   70.1190  228.3430 C   0  0  0  0  0  0  0  0  0  0  0  0
  141.3520   71.4790  228.0150 C   0  0  0  0  0  0  0  0  0  0  0  0
  140.6970   71.8970  226.8570 C   0  0  0  0  0  0  0  0  0  0  0  0
  140.0550   70.9730  226.0520 C   0  0  0  0  0  0  0  0  0  0  0  0
  139.4190   71.3630  224.9340 N   0  0  0  0  0  0  0  0  0  0  0  0
  137.7470   72.9420  223.4560 H   0  0  0  0  0  0  0  0  0  0  0  0
  136.2265   71.7231  221.2277 H   0  0  0  0  0  0  0  0  0  0  0  0
  136.4019   73.4874  221.6134 H   0  0  0  0  0  0  0  0  0  0  0  0
  140.0276   72.7809  218.5892 H   0  0  0  0  0  0  0  0  0  0  0  0
  140.5082   74.3056  219.2614 H   0  0  0  0  0  0  0  0  0  0  0  0
  141.2984   71.4443  220.2335 H   0  0  0  0  0  0  0  0  0  0  0  0
  142.4259   72.6951  219.7931 H   0  0  0  0  0  0  0  0  0  0  0  0
  141.5688   72.3013  222.3872 H   0  0  0  0  0  0  0  0  0  0  0  0
  142.0107   73.9163  221.8228 H   0  0  0  0  0  0  0  0  0  0  0  0
  139.4090   73.0169  222.6538 H   0  0  0  0  0  0  0  0  0  0  0  0
  141.9692   75.1337  221.7745 H   0  0  0  0  0  0  0  0  0  0  0  0
  141.9855   77.5729  222.0290 H   0  0  0  0  0  0  0  0  0  0  0  0
  139.9559   80.9508  223.0728 H   0  0  0  0  0  0  0  0  0  0  0  0
  140.3654   79.5317  224.2380 H   0  0  0  0  0  0  0  0  0  0  0  0
  137.7383   77.5423  222.4726 H   0  0  0  0  0  0  0  0  0  0  0  0
  137.7001   75.1042  222.2150 H   0  0  0  0  0  0  0  0  0  0  0  0
  138.2873   68.4371  223.8294 H   0  0  0  0  0  0  0  0  0  0  0  0
  139.4374   67.6249  225.8778 H   0  0  0  0  0  0  0  0  0  0  0  0
  140.7074   68.1204  227.8038 H   0  0  0  0  0  0  0  0  0  0  0  0
  141.8652   69.7826  229.2542 H   0  0  0  0  0  0  0  0  0  0  0  0
  141.8634   72.2078  228.6610 H   0  0  0  0  0  0  0  0  0  0  0  0
  140.6908   72.9624  226.5834 H   0  0  0  0  0  0  0  0  0  0  0  0
  1  2  2  0
  2  3  1  0
  3  4  1  0
  4  5  1  0
  5  6  2  0
  5  7  1  0
  7  8  1  0
  8  9  1  0
  9 10  1  0
 10 11  1  0
 11 12  1  0
 12 13  2  0
 13 14  1  0
 14 15  2  0
 15 16  1  0
 16 17  1  0
 17 18  1  0
 18 19  1  0
 18 20  1  0
 18 21  1  0
 15 22  1  0
 22 23  2  0
  2 24  1  0
 24 25  2  0
 25 26  1  0
 26 27  2  0
 27 28  1  0
 28 29  2  0
 29 30  1  0
 30 31  2  0
 31 32  1  0
 32 33  2  0
 11  7  1  0
 23 12  1  0
 33 24  1  0
 32 27  1  0
  3 34  1  0
  4 35  1  0
  4 36  1  0
  8 37  1  0
  8 38  1  0
  9 39  1  0
  9 40  1  0
 10 41  1  0
 10 42  1  0
 11 43  1  1
 13 44  1  0
 14 45  1  0
 17 46  1  0
 17 47  1  0
 22 48  1  0
 23 49  1  0
 25 50  1  0
 26 51  1  0
 28 52  1  0
 29 53  1  0
 30 54  1  0
 31 55  1  0
M  END
>  <smiles>  (53) 
O=C(NCC(=O)N1CCCC1c1ccc(OCC(F)(F)F)cc1)c1ccc2ccccc2n1

>  <score_type>  (53) 
oracle

>  <origin>  (53) 
autodockgpu

>  <m_score__min__energy>  (53) 
-8

>  <m_primary>  (53) 
energy

>  <rmsd>  (53) 
2.853551248532044

>  <m_score__min__rmsd>  (53) 
2.853551248532044

>  <meeko>  (53) 
{"free_energy": -6.94, "intermolecular_energy": -9.33, "internal_energy": -2.02, "cluster_size": 6, "cluster_id": 6, "rank_in_cluster": 6}

>  <energy>  (53) 
-7.85

>  <cluster_rmsd>  (53) 
0.49

>  <cluster>  (53) 
1

$$$$

     RDKit          3D

 55 58  0  0  0  0  0  0  0  0999 V2000
  141.0520   71.9670  221.5050 O   0  0  0  0  0  0  0  0  0  0  0  0
  140.2830   72.3290  222.4590 C   0  0  0  0  0  0  0  0  0  0  0  0
  139.5490   73.5150  222.2810 N   0  0  0  0  0  0  0  0  0  0  0  0
  139.6950   74.2610  221.0470 C   0  0  0  0  0  0  0  0  0  0  0  0
  140.3870   75.5530  221.2600 C   0  0  0  0  0  0  0  0  0  0  0  0
  140.1890   76.2170  222.3110 O   0  0  0  0  0  0  0  0  0  0  0  0
  141.2850   76.0950  220.3130 N   0  0  0  0  0  0  0  0  0  0  0  0
  142.2090   77.2300  220.4650 C   0  0  0  0  0  0  0  0  0  0  0  0
  141.9080   78.0100  219.1730 C   0  0  0  0  0  0  0  0  0  0  0  0
  141.8780   76.9040  218.1580 C   0  0  0  0  0  0  0  0  0  0  0  0
  141.5300   75.6720  218.9240 C   0  0  1  0  0  0  0  0  0  0  0  0
  142.6780   74.7260  218.8640 C   0  0  0  0  0  0  0  0  0  0  0  0
  143.0250   74.0610  220.0180 C   0  0  0  0  0  0  0  0  0  0  0  0
  144.0580   73.1600  220.0150 C   0  0  0  0  0  0  0  0  0  0  0  0
  144.8000   72.8790  218.8480 C   0  0  0  0  0  0  0  0  0  0  0  0
  145.7870   71.9820  218.9680 O   0  0  0  0  0  0  0  0  0  0  0  0
  145.9700   70.6430  219.0150 C   0  0  0  0  0  0  0  0  0  0  0  0
  144.8000   69.7320  219.1320 C   0  0  0  0  0  0  0  0  0  0  0  0
  144.1710   69.3890  217.9730 F   0  0  0  0  0  0  0  0  0  0  0  0
  143.9090   70.1890  220.0960 F   0  0  0  0  0  0  0  0  0  0  0  0
  145.2860   68.5210  219.6600 F   0  0  0  0  0  0  0  0  0  0  0  0
  144.4090   73.5710  217.7300 C   0  0  0  0  0  0  0  0  0  0  0  0
  143.3750   74.4810  217.7040 C   0  0  0  0  0  0  0  0  0  0  0  0
  140.1920   71.5230  223.6710 C   0  0  0  0  0  0  0  0  0  0  0  0
  139.5970   70.2800  223.6140 C   0  0  0  0  0  0  0  0  0  0  0  0
  139.4710   69.4540  224.7160 C   0  0  0  0  0  0  0  0  0  0  0  0
  139.9820   69.9370  225.9220 C   0  0  0  0  0  0  0  0  0  0  0  0
  139.8620   69.1230  227.0240 C   0  0  0  0  0  0  0  0  0  0  0  0
  140.3640   69.5860  228.2260 C   0  0  0  0  0  0  0  0  0  0  0  0
  140.9740   70.8420  228.3240 C   0  0  0  0  0  0  0  0  0  0  0  0
  141.0750   71.6340  227.1800 C   0  0  0  0  0  0  0  0  0  0  0  0
  140.5760   71.1780  225.9740 C   0  0  0  0  0  0  0  0  0  0  0  0
  140.6660   71.9320  224.8650 N   0  0  0  0  0  0  0  0  0  0  0  0
  138.8990   73.8570  223.0410 H   0  0  0  0  0  0  0  0  0  0  0  0
  140.2779   73.6588  220.3345 H   0  0  0  0  0  0  0  0  0  0  0  0
  138.6888   74.4740  220.6569 H   0  0  0  0  0  0  0  0  0  0  0  0
  141.9785   77.8243  221.3615 H   0  0  0  0  0  0  0  0  0  0  0  0
  143.2643   76.9483  220.5956 H   0  0  0  0  0  0  0  0  0  0  0  0
  140.9393   78.5278  219.2323 H   0  0  0  0  0  0  0  0  0  0  0  0
  142.6339   78.8056  218.9491 H   0  0  0  0  0  0  0  0  0  0  0  0
  141.1173   77.1072  217.3899 H   0  0  0  0  0  0  0  0  0  0  0  0
  142.8406   76.8023  217.6355 H   0  0  0  0  0  0  0  0  0  0  0  0
  140.6439   75.1669  218.5121 H   0  0  0  0  0  0  0  0  0  0  0  0
  142.4701   74.2537  220.9481 H   0  0  0  0  0  0  0  0  0  0  0  0
  144.3162   72.6407  220.9497 H   0  0  0  0  0  0  0  0  0  0  0  0
  146.4983   70.3630  218.0917 H   0  0  0  0  0  0  0  0  0  0  0  0
  146.4991   70.4954  219.9680 H   0  0  0  0  0  0  0  0  0  0  0  0
  144.9564   73.3874  216.7937 H   0  0  0  0  0  0  0  0  0  0  0  0
  143.1115   75.0024  216.7719 H   0  0  0  0  0  0  0  0  0  0  0  0
  139.2048   69.9297  222.6479 H   0  0  0  0  0  0  0  0  0  0  0  0
  138.9922   68.4662  224.6458 H   0  0  0  0  0  0  0  0  0  0  0  0
  139.3823   68.1358  226.9514 H   0  0  0  0  0  0  0  0  0  0  0  0
  140.2824   68.9548  229.1232 H   0  0  0  0  0  0  0  0  0  0  0  0
  141.3673   71.1987  229.2873 H   0  0  0  0  0  0  0  0  0  0  0  0
  141.5526   72.6232  227.2376 H   0  0  0  0  0  0  0  0  0  0  0  0
  1  2  2  0
  2  3  1  0
  3  4  1  0
  4  5  1  0
  5  6  2  0
  5  7  1  0
  7  8  1  0
  8  9  1  0
  9 10  1  0
 10 11  1  0
 11 12  1  0
 12 13  2  0
 13 14  1  0
 14 15  2  0
 15 16  1  0
 16 17  1  0
 17 18  1  0
 18 19  1  0
 18 20  1  0
 18 21  1  0
 15 22  1  0
 22 23  2  0
  2 24  1  0
 24 25  2  0
 25 26  1  0
 26 27  2  0
 27 28  1  0
 28 29  2  0
 29 30  1  0
 30 31  2  0
 31 32  1  0
 32 33  2  0
 11  7  1  0
 23 12  1  0
 33 24  1  0
 32 27  1  0
  3 34  1  0
  4 35  1  0
  4 36  1  0
  8 37  1  0
  8 38  1  0
  9 39  1  0
  9 40  1  0
 10 41  1  0
 10 42  1  0
 11 43  1  6
 13 44  1  0
 14 45  1  0
 17 46  1  0
 17 47  1  0
 22 48  1  0
 23 49  1  0
 25 50  1  0
 26 51  1  0
 28 52  1  0
 29 53  1  0
 30 54  1  0
 31 55  1  0
M  END
>  <smiles>  (54) 
O=C(NCC(=O)N1CCCC1c1ccc(OCC(F)(F)F)cc1)c1ccc2ccccc2n1

>  <score_type>  (54) 
oracle

>  <origin>  (54) 
autodockgpu

>  <m_score__min__energy>  (54) 
-8

>  <m_primary>  (54) 
energy

>  <rmsd>  (54) 
2.1787377993773154

>  <m_score__min__rmsd>  (54) 
2.1787377993773154

>  <meeko>  (54) 
{"free_energy": -7.5, "intermolecular_energy": -9.88, "internal_energy": -1.77, "cluster_size": 3, "cluster_id": 3, "rank_in_cluster": 1}

>  <energy>  (54) 
-7.7

>  <cluster_rmsd>  (54) 
0.63

>  <cluster>  (54) 
1

$$$$

     RDKit          3D

 55 58  0  0  0  0  0  0  0  0999 V2000
  140.9710   78.0340  217.6750 O   0  0  0  0  0  0  0  0  0  0  0  0
  141.9200   78.1690  218.5200 C   0  0  0  0  0  0  0  0  0  0  0  0
  143.0580   77.3620  218.3430 N   0  0  0  0  0  0  0  0  0  0  0  0
  143.1020   76.4310  217.2330 C   0  0  0  0  0  0  0  0  0  0  0  0
  143.3210   75.0390  217.6880 C   0  0  0  0  0  0  0  0  0  0  0  0
  143.6680   74.1460  216.8710 O   0  0  0  0  0  0  0  0  0  0  0  0
  143.1540   74.6490  219.0370 N   0  0  0  0  0  0  0  0  0  0  0  0
  144.1240   74.7170  220.1420 C   0  0  0  0  0  0  0  0  0  0  0  0
  143.9690   73.3060  220.7350 C   0  0  0  0  0  0  0  0  0  0  0  0
  142.4750   73.1530  220.7550 C   0  0  0  0  0  0  0  0  0  0  0  0
  141.9690   74.0690  219.6910 C   0  0  1  0  0  0  0  0  0  0  0  0
  141.1500   75.1390  220.3240 C   0  0  0  0  0  0  0  0  0  0  0  0
  140.0610   75.6130  219.6290 C   0  0  0  0  0  0  0  0  0  0  0  0
  139.2580   76.5810  220.1750 C   0  0  0  0  0  0  0  0  0  0  0  0
  139.5070   77.1250  221.4530 C   0  0  0  0  0  0  0  0  0  0  0  0
  138.6540   78.0650  221.8790 O   0  0  0  0  0  0  0  0  0  0  0  0
  138.0780   78.5000  223.0220 C   0  0  0  0  0  0  0  0  0  0  0  0
  138.3290   79.8830  223.5080 C   0  0  0  0  0  0  0  0  0  0  0  0
  137.4210   80.3990  224.3840 F   0  0  0  0  0  0  0  0  0  0  0  0
  138.5800   80.7450  222.4460 F   0  0  0  0  0  0  0  0  0  0  0  0
  139.5450   79.8460  224.2150 F   0  0  0  0  0  0  0  0  0  0  0  0
  140.6050   76.6140  222.0970 C   0  0  0  0  0  0  0  0  0  0  0  0
  141.4290   75.6420  221.5740 C   0  0  0  0  0  0  0  0  0  0  0  0
  141.7980   79.1290  219.6100 C   0  0  0  0  0  0  0  0  0  0  0  0
  141.2200   80.3570  219.3700 C   0  0  0  0  0  0  0  0  0  0  0  0
  141.0660   81.3220  220.3490 C   0  0  0  0  0  0  0  0  0  0  0  0
  141.5320   80.9990  221.6250 C   0  0  0  0  0  0  0  0  0  0  0  0
  141.3840   81.9520  222.6050 C   0  0  0  0  0  0  0  0  0  0  0  0
  141.8400   81.6480  223.8750 C   0  0  0  0  0  0  0  0  0  0  0  0
  142.4330   80.4120  224.1570 C   0  0  0  0  0  0  0  0  0  0  0  0
  142.5610   79.4750  223.1320 C   0  0  0  0  0  0  0  0  0  0  0  0
  142.1090   79.7720  221.8600 C   0  0  0  0  0  0  0  0  0  0  0  0
  142.2270   78.8770  220.8640 N   0  0  0  0  0  0  0  0  0  0  0  0
  143.8700   77.4360  219.0150 H   0  0  0  0  0  0  0  0  0  0  0  0
  142.1474   76.4812  216.6887 H   0  0  0  0  0  0  0  0  0  0  0  0
  143.9439   76.7139  216.5840 H   0  0  0  0  0  0  0  0  0  0  0  0
  145.1459   74.8939  219.7755 H   0  0  0  0  0  0  0  0  0  0  0  0
  143.9511   75.5365  220.8551 H   0  0  0  0  0  0  0  0  0  0  0  0
  144.4423   72.5468  220.0950 H   0  0  0  0  0  0  0  0  0  0  0  0
  144.4466   73.1771  221.7175 H   0  0  0  0  0  0  0  0  0  0  0  0
  142.1916   72.1133  220.5346 H   0  0  0  0  0  0  0  0  0  0  0  0
  142.0518   73.3972  221.7405 H   0  0  0  0  0  0  0  0  0  0  0  0
  141.3415   73.5417  218.9574 H   0  0  0  0  0  0  0  0  0  0  0  0
  139.8335   75.2131  218.6298 H   0  0  0  0  0  0  0  0  0  0  0  0
  138.3938   76.9444  219.5996 H   0  0  0  0  0  0  0  0  0  0  0  0
  136.9908   78.4055  222.8843 H   0  0  0  0  0  0  0  0  0  0  0  0
  138.5497   77.8741  223.7938 H   0  0  0  0  0  0  0  0  0  0  0  0
  140.8431   77.0062  223.0967 H   0  0  0  0  0  0  0  0  0  0  0  0
  142.2943   75.2746  222.1452 H   0  0  0  0  0  0  0  0  0  0  0  0
  140.8648   80.5799  218.3531 H   0  0  0  0  0  0  0  0  0  0  0  0
  140.5999   82.2947  220.1332 H   0  0  0  0  0  0  0  0  0  0  0  0
  140.9183   82.9242  222.3862 H   0  0  0  0  0  0  0  0  0  0  0  0
  141.7346   82.3918  224.6786 H   0  0  0  0  0  0  0  0  0  0  0  0
  142.7924   80.1832  225.1711 H   0  0  0  0  0  0  0  0  0  0  0  0
  143.0226   78.4976  223.3362 H   0  0  0  0  0  0  0  0  0  0  0  0
  1  2  2  0
  2  3  1  0
  3  4  1  0
  4  5  1  0
  5  6  2  0
  5  7  1  0
  7  8  1  0
  8  9  1  0
  9 10  1  0
 10 11  1  0
 11 12  1  0
 12 13  2  0
 13 14  1  0
 14 15  2  0
 15 16  1  0
 16 17  1  0
 17 18  1  0
 18 19  1  0
 18 20  1  0
 18 21  1  0
 15 22  1  0
 22 23  2  0
  2 24  1  0
 24 25  2  0
 25 26  1  0
 26 27  2  0
 27 28  1  0
 28 29  2  0
 29 30  1  0
 30 31  2  0
 31 32  1  0
 32 33  2  0
 11  7  1  0
 23 12  1  0
 33 24  1  0
 32 27  1  0
  3 34  1  0
  4 35  1  0
  4 36  1  0
  8 37  1  0
  8 38  1  0
  9 39  1  0
  9 40  1  0
 10 41  1  0
 10 42  1  0
 11 43  1  6
 13 44  1  0
 14 45  1  0
 17 46  1  0
 17 47  1  0
 22 48  1  0
 23 49  1  0
 25 50  1  0
 26 51  1  0
 28 52  1  0
 29 53  1  0
 30 54  1  0
 31 55  1  0
M  END
>  <smiles>  (55) 
O=C(NCC(=O)N1CCCC1c1ccc(OCC(F)(F)F)cc1)c1ccc2ccccc2n1

>  <score_type>  (55) 
oracle

>  <origin>  (55) 
autodockgpu

>  <m_score__min__energy>  (55) 
-8

>  <m_primary>  (55) 
energy

>  <rmsd>  (55) 
8.98722271147989

>  <m_score__min__rmsd>  (55) 
8.98722271147989

>  <meeko>  (55) 
{"free_energy": -5.38, "intermolecular_energy": -7.76, "internal_energy": -3.43, "cluster_size": 7, "cluster_id": 14, "rank_in_cluster": 6}

>  <energy>  (55) 
-7.64

>  <cluster_rmsd>  (55) 
1.81

>  <cluster>  (55) 
1

$$$$

     RDKit          3D

 55 58  0  0  0  0  0  0  0  0999 V2000
  140.6890   79.1770  218.8340 O   0  0  0  0  0  0  0  0  0  0  0  0
  141.5510   78.6850  219.6390 C   0  0  0  0  0  0  0  0  0  0  0  0
  142.1780   79.5730  220.5310 N   0  0  0  0  0  0  0  0  0  0  0  0
  141.8260   80.9780  220.5000 C   0  0  0  0  0  0  0  0  0  0  0  0
  141.2100   81.4220  221.7720 C   0  0  0  0  0  0  0  0  0  0  0  0
  141.7540   82.3200  222.4660 O   0  0  0  0  0  0  0  0  0  0  0  0
  140.0050   80.8690  222.2610 N   0  0  0  0  0  0  0  0  0  0  0  0
  138.6400   81.0230  221.7320 C   0  0  0  0  0  0  0  0  0  0  0  0
  137.8740   81.3490  223.0260 C   0  0  0  0  0  0  0  0  0  0  0  0
  138.4460   80.3330  223.9740 C   0  0  0  0  0  0  0  0  0  0  0  0
  139.7940   79.9980  223.4300 C   0  0  1  0  0  0  0  0  0  0  0  0
  139.8080   78.5670  223.0200 C   0  0  0  0  0  0  0  0  0  0  0  0
  141.0190   77.9130  223.0030 C   0  0  0  0  0  0  0  0  0  0  0  0
  141.0860   76.5880  222.6570 C   0  0  0  0  0  0  0  0  0  0  0  0
  139.9370   75.8480  222.3080 C   0  0  0  0  0  0  0  0  0  0  0  0
  140.1280   74.5620  221.9880 O   0  0  0  0  0  0  0  0  0  0  0  0
  139.4620   73.3860  221.9780 C   0  0  0  0  0  0  0  0  0  0  0  0
  140.1440   72.1350  222.4030 C   0  0  0  0  0  0  0  0  0  0  0  0
  141.4030   71.9290  221.9220 F   0  0  0  0  0  0  0  0  0  0  0  0
  139.3230   71.0310  222.2110 F   0  0  0  0  0  0  0  0  0  0  0  0
  140.2930   72.2140  223.8010 F   0  0  0  0  0  0  0  0  0  0  0  0
  138.7600   76.5520  222.3440 C   0  0  0  0  0  0  0  0  0  0  0  0
  138.6620   77.8830  222.6880 C   0  0  0  0  0  0  0  0  0  0  0  0
  141.8490   77.2580  219.6080 C   0  0  0  0  0  0  0  0  0  0  0  0
  140.9060   76.3800  219.1170 C   0  0  0  0  0  0  0  0  0  0  0  0
  141.1110   75.0140  219.0530 C   0  0  0  0  0  0  0  0  0  0  0  0
  142.3410   74.5430  219.5170 C   0  0  0  0  0  0  0  0  0  0  0  0
  142.5530   73.1850  219.4580 C   0  0  0  0  0  0  0  0  0  0  0  0
  143.7670   72.7020  219.9130 C   0  0  0  0  0  0  0  0  0  0  0  0
  144.7480   73.5620  220.4190 C   0  0  0  0  0  0  0  0  0  0  0  0
  144.4890   74.9320  220.4590 C   0  0  0  0  0  0  0  0  0  0  0  0
  143.2790   75.4230  220.0060 C   0  0  0  0  0  0  0  0  0  0  0  0
  143.0170   76.7410  220.0410 N   0  0  0  0  0  0  0  0  0  0  0  0
  142.8990   79.2140  221.2170 H   0  0  0  0  0  0  0  0  0  0  0  0
  142.7364   81.5687  220.3207 H   0  0  0  0  0  0  0  0  0  0  0  0
  141.0911   81.1274  219.6953 H   0  0  0  0  0  0  0  0  0  0  0  0
  138.5767   81.8454  221.0043 H   0  0  0  0  0  0  0  0  0  0  0  0
  138.2601   80.1497  221.1816 H   0  0  0  0  0  0  0  0  0  0  0  0
  138.0770   82.3753  223.3659 H   0  0  0  0  0  0  0  0  0  0  0  0
  136.7797   81.3027  222.9243 H   0  0  0  0  0  0  0  0  0  0  0  0
  138.5336   80.7568  224.9853 H   0  0  0  0  0  0  0  0  0  0  0  0
  137.8049   79.4428  224.0550 H   0  0  0  0  0  0  0  0  0  0  0  0
  140.5885   80.1518  224.1751 H   0  0  0  0  0  0  0  0  0  0  0  0
  141.9379   78.4563  223.2684 H   0  0  0  0  0  0  0  0  0  0  0  0
  142.0653   76.0870  222.6514 H   0  0  0  0  0  0  0  0  0  0  0  0
  138.5902   73.5106  222.6372 H   0  0  0  0  0  0  0  0  0  0  0  0
  139.2715   73.2157  220.9081 H   0  0  0  0  0  0  0  0  0  0  0  0
  137.8341   76.0194  222.0811 H   0  0  0  0  0  0  0  0  0  0  0  0
  137.6853   78.3889  222.6969 H   0  0  0  0  0  0  0  0  0  0  0  0
  139.9473   76.7845  218.7601 H   0  0  0  0  0  0  0  0  0  0  0  0
  140.3438   74.3327  218.6565 H   0  0  0  0  0  0  0  0  0  0  0  0
  141.7832   72.5061  219.0624 H   0  0  0  0  0  0  0  0  0  0  0  0
  143.9650   71.6206  219.8762 H   0  0  0  0  0  0  0  0  0  0  0  0
  145.7080   73.1640  220.7795 H   0  0  0  0  0  0  0  0  0  0  0  0
  145.2493   75.6231  220.8519 H   0  0  0  0  0  0  0  0  0  0  0  0
  1  2  2  0
  2  3  1  0
  3  4  1  0
  4  5  1  0
  5  6  2  0
  5  7  1  0
  7  8  1  0
  8  9  1  0
  9 10  1  0
 10 11  1  0
 11 12  1  0
 12 13  2  0
 13 14  1  0
 14 15  2  0
 15 16  1  0
 16 17  1  0
 17 18  1  0
 18 19  1  0
 18 20  1  0
 18 21  1  0
 15 22  1  0
 22 23  2  0
  2 24  1  0
 24 25  2  0
 25 26  1  0
 26 27  2  0
 27 28  1  0
 28 29  2  0
 29 30  1  0
 30 31  2  0
 31 32  1  0
 32 33  2  0
 11  7  1  0
 23 12  1  0
 33 24  1  0
 32 27  1  0
  3 34  1  0
  4 35  1  0
  4 36  1  0
  8 37  1  0
  8 38  1  0
  9 39  1  0
  9 40  1  0
 10 41  1  0
 10 42  1  0
 11 43  1  1
 13 44  1  0
 14 45  1  0
 17 46  1  0
 17 47  1  0
 22 48  1  0
 23 49  1  0
 25 50  1  0
 26 51  1  0
 28 52  1  0
 29 53  1  0
 30 54  1  0
 31 55  1  0
M  END
>  <smiles>  (56) 
O=C(NCC(=O)N1CCCC1c1ccc(OCC(F)(F)F)cc1)c1ccc2ccccc2n1

>  <score_type>  (56) 
oracle

>  <origin>  (56) 
autodockgpu

>  <m_score__min__energy>  (56) 
-8

>  <m_primary>  (56) 
energy

>  <rmsd>  (56) 
7.921141496888138

>  <m_score__min__rmsd>  (56) 
7.921141496888138

>  <meeko>  (56) 
{"free_energy": -5.97, "intermolecular_energy": -8.36, "internal_energy": -3.17, "cluster_size": 3, "cluster_id": 13, "rank_in_cluster": 2}

>  <energy>  (56) 
-7.52

>  <cluster_rmsd>  (56) 
0.74

>  <cluster>  (56) 
1

$$$$

     RDKit          3D

 55 58  0  0  0  0  0  0  0  0999 V2000
  140.2840   71.3450  221.2850 O   0  0  0  0  0  0  0  0  0  0  0  0
  140.0430   71.9890  222.3630 C   0  0  0  0  0  0  0  0  0  0  0  0
  139.7690   73.3630  222.2430 N   0  0  0  0  0  0  0  0  0  0  0  0
  139.7700   73.9760  220.9300 C   0  0  0  0  0  0  0  0  0  0  0  0
  141.1430   74.1570  220.4060 C   0  0  0  0  0  0  0  0  0  0  0  0
  142.1080   73.5250  220.9100 O   0  0  0  0  0  0  0  0  0  0  0  0
  141.4340   75.0330  219.3350 N   0  0  0  0  0  0  0  0  0  0  0  0
  140.6640   75.2680  218.1030 C   0  0  0  0  0  0  0  0  0  0  0  0
  141.7850   75.1820  217.0530 C   0  0  0  0  0  0  0  0  0  0  0  0
  142.8640   76.0020  217.7020 C   0  0  0  0  0  0  0  0  0  0  0  0
  142.5850   75.9360  219.1660 C   0  0  1  0  0  0  0  0  0  0  0  0
  142.2480   77.3020  219.6550 C   0  0  0  0  0  0  0  0  0  0  0  0
  141.7400   77.4230  220.9280 C   0  0  0  0  0  0  0  0  0  0  0  0
  141.4350   78.6590  221.4380 C   0  0  0  0  0  0  0  0  0  0  0  0
  141.6260   79.8420  220.6930 C   0  0  0  0  0  0  0  0  0  0  0  0
  141.2910   80.9890  221.2970 O   0  0  0  0  0  0  0  0  0  0  0  0
  141.5550   81.6790  222.4290 C   0  0  0  0  0  0  0  0  0  0  0  0
  142.2360   81.0120  223.5700 C   0  0  0  0  0  0  0  0  0  0  0  0
  143.4830   80.5140  223.3340 F   0  0  0  0  0  0  0  0  0  0  0  0
  141.4030   80.0730  224.1670 F   0  0  0  0  0  0  0  0  0  0  0  0
  142.4140   81.9940  224.5620 F   0  0  0  0  0  0  0  0  0  0  0  0
  142.1350   79.6580  219.4320 C   0  0  0  0  0  0  0  0  0  0  0  0
  142.4510   78.4300  218.8940 C   0  0  0  0  0  0  0  0  0  0  0  0
  140.0620   71.2990  223.6470 C   0  0  0  0  0  0  0  0  0  0  0  0
  139.5600   70.0180  223.7340 C   0  0  0  0  0  0  0  0  0  0  0  0
  139.5400   69.2950  224.9130 C   0  0  0  0  0  0  0  0  0  0  0  0
  140.0620   69.9260  226.0430 C   0  0  0  0  0  0  0  0  0  0  0  0
  140.0460   69.2160  227.2200 C   0  0  0  0  0  0  0  0  0  0  0  0
  140.5600   69.8270  228.3490 C   0  0  0  0  0  0  0  0  0  0  0  0
  141.0780   71.1260  228.3010 C   0  0  0  0  0  0  0  0  0  0  0  0
  141.0740   71.8090  227.0850 C   0  0  0  0  0  0  0  0  0  0  0  0
  140.5620   71.2050  225.9510 C   0  0  0  0  0  0  0  0  0  0  0  0
  140.5520   71.8540  224.7740 N   0  0  0  0  0  0  0  0  0  0  0  0
  139.5640   73.9390  223.1050 H   0  0  0  0  0  0  0  0  0  0  0  0
  139.2068   73.3335  220.2372 H   0  0  0  0  0  0  0  0  0  0  0  0
  139.3048   74.9690  221.0171 H   0  0  0  0  0  0  0  0  0  0  0  0
  139.9004   74.4918  217.9467 H   0  0  0  0  0  0  0  0  0  0  0  0
  140.0943   76.2089  218.0902 H   0  0  0  0  0  0  0  0  0  0  0  0
  142.1095   74.1428  216.8953 H   0  0  0  0  0  0  0  0  0  0  0  0
  141.4922   75.5352  216.0532 H   0  0  0  0  0  0  0  0  0  0  0  0
  143.8549   75.5794  217.4796 H   0  0  0  0  0  0  0  0  0  0  0  0
  142.8685   77.0381  217.3326 H   0  0  0  0  0  0  0  0  0  0  0  0
  143.4519   75.5683  219.7345 H   0  0  0  0  0  0  0  0  0  0  0  0
  141.5776   76.5235  221.5399 H   0  0  0  0  0  0  0  0  0  0  0  0
  141.0295   78.7302  222.4580 H   0  0  0  0  0  0  0  0  0  0  0  0
  142.1852   82.5329  222.1396 H   0  0  0  0  0  0  0  0  0  0  0  0
  140.5537   81.8981  222.8282 H   0  0  0  0  0  0  0  0  0  0  0  0
  142.3016   80.5498  218.8099 H   0  0  0  0  0  0  0  0  0  0  0  0
  142.8580   78.3527  217.8750 H   0  0  0  0  0  0  0  0  0  0  0  0
  139.1569   69.5494  222.8241 H   0  0  0  0  0  0  0  0  0  0  0  0
  139.1331   68.2740  224.9577 H   0  0  0  0  0  0  0  0  0  0  0  0
  139.6378   68.1954  227.2623 H   0  0  0  0  0  0  0  0  0  0  0  0
  140.5617   69.2810  229.3039 H   0  0  0  0  0  0  0  0  0  0  0  0
  141.4817   71.6007  229.2075 H   0  0  0  0  0  0  0  0  0  0  0  0
  141.4789   72.8302  227.0277 H   0  0  0  0  0  0  0  0  0  0  0  0
  1  2  2  0
  2  3  1  0
  3  4  1  0
  4  5  1  0
  5  6  2  0
  5  7  1  0
  7  8  1  0
  8  9  1  0
  9 10  1  0
 10 11  1  0
 11 12  1  0
 12 13  2  0
 13 14  1  0
 14 15  2  0
 15 16  1  0
 16 17  1  0
 17 18  1  0
 18 19  1  0
 18 20  1  0
 18 21  1  0
 15 22  1  0
 22 23  2  0
  2 24  1  0
 24 25  2  0
 25 26  1  0
 26 27  2  0
 27 28  1  0
 28 29  2  0
 29 30  1  0
 30 31  2  0
 31 32  1  0
 32 33  2  0
 11  7  1  0
 23 12  1  0
 33 24  1  0
 32 27  1  0
  3 34  1  0
  4 35  1  0
  4 36  1  0
  8 37  1  0
  8 38  1  0
  9 39  1  0
  9 40  1  0
 10 41  1  0
 10 42  1  0
 11 43  1  1
 13 44  1  0
 14 45  1  0
 17 46  1  0
 17 47  1  0
 22 48  1  0
 23 49  1  0
 25 50  1  0
 26 51  1  0
 28 52  1  0
 29 53  1  0
 30 54  1  0
 31 55  1  0
M  END
>  <smiles>  (57) 
O=C(NCC(=O)N1CCCC1c1ccc(OCC(F)(F)F)cc1)c1ccc2ccccc2n1

>  <score_type>  (57) 
oracle

>  <origin>  (57) 
autodockgpu

>  <m_score__min__energy>  (57) 
-8

>  <m_primary>  (57) 
energy

>  <rmsd>  (57) 
1.6748849115556463

>  <m_score__min__rmsd>  (57) 
1.6748849115556463

>  <meeko>  (57) 
{"free_energy": -7.6, "intermolecular_energy": -9.99, "internal_energy": -1.49, "cluster_size": 11, "cluster_id": 2, "rank_in_cluster": 3}

>  <energy>  (57) 
-7.48

>  <cluster_rmsd>  (57) 
1.31

>  <cluster>  (57) 
1

$$$$

     RDKit          3D

 55 58  0  0  0  0  0  0  0  0999 V2000
  141.5250   72.1340  221.9730 O   0  0  0  0  0  0  0  0  0  0  0  0
  140.4910   72.2100  222.7210 C   0  0  0  0  0  0  0  0  0  0  0  0
  139.6040   73.2760  222.4860 N   0  0  0  0  0  0  0  0  0  0  0  0
  139.8950   74.2210  221.4270 C   0  0  0  0  0  0  0  0  0  0  0  0
  139.3220   75.5580  221.7070 C   0  0  0  0  0  0  0  0  0  0  0  0
  138.2320   75.6690  222.3260 O   0  0  0  0  0  0  0  0  0  0  0  0
  139.9580   76.7530  221.3000 N   0  0  0  0  0  0  0  0  0  0  0  0
  139.8930   77.4320  219.9960 C   0  0  0  0  0  0  0  0  0  0  0  0
  141.3870   77.7040  219.7480 C   0  0  0  0  0  0  0  0  0  0  0  0
  141.8240   78.2110  221.0930 C   0  0  0  0  0  0  0  0  0  0  0  0
  140.8570   77.6310  222.0690 C   0  0  1  0  0  0  0  0  0  0  0  0
  140.0860   78.7370  222.7010 C   0  0  0  0  0  0  0  0  0  0  0  0
  138.7480   78.5320  222.9450 C   0  0  0  0  0  0  0  0  0  0  0  0
  137.9950   79.5070  223.5470 C   0  0  0  0  0  0  0  0  0  0  0  0
  138.5510   80.7450  223.9370 C   0  0  0  0  0  0  0  0  0  0  0  0
  137.7170   81.6190  224.5140 O   0  0  0  0  0  0  0  0  0  0  0  0
  137.3300   82.0230  225.7440 C   0  0  0  0  0  0  0  0  0  0  0  0
  136.0150   81.5940  226.2930 C   0  0  0  0  0  0  0  0  0  0  0  0
  135.9740   81.2960  227.6220 F   0  0  0  0  0  0  0  0  0  0  0  0
  135.4550   80.5890  225.5140 F   0  0  0  0  0  0  0  0  0  0  0  0
  135.1380   82.6830  226.1320 F   0  0  0  0  0  0  0  0  0  0  0  0
  139.8880   80.8910  223.6680 C   0  0  0  0  0  0  0  0  0  0  0  0
  140.6690   79.9290  223.0650 C   0  0  0  0  0  0  0  0  0  0  0  0
  140.2700   71.2180  223.7660 C   0  0  0  0  0  0  0  0  0  0  0  0
  139.5640   70.0710  223.4720 C   0  0  0  0  0  0  0  0  0  0  0  0
  139.3110   69.0820  224.4050 C   0  0  0  0  0  0  0  0  0  0  0  0
  139.8100   69.2930  225.6920 C   0  0  0  0  0  0  0  0  0  0  0  0
  139.5640   68.3160  226.6270 C   0  0  0  0  0  0  0  0  0  0  0  0
  140.0520   68.5090  227.9060 C   0  0  0  0  0  0  0  0  0  0  0  0
  140.7730   69.6600  228.2430 C   0  0  0  0  0  0  0  0  0  0  0  0
  141.0000   70.6250  227.2620 C   0  0  0  0  0  0  0  0  0  0  0  0
  140.5150   70.4400  225.9810 C   0  0  0  0  0  0  0  0  0  0  0  0
  140.7270   71.3630  225.0270 N   0  0  0  0  0  0  0  0  0  0  0  0
  138.7350   73.3830  223.0780 H   0  0  0  0  0  0  0  0  0  0  0  0
  140.9861   74.3160  221.3250 H   0  0  0  0  0  0  0  0  0  0  0  0
  139.4414   73.8432  220.4988 H   0  0  0  0  0  0  0  0  0  0  0  0
  139.4643   76.7810  219.2199 H   0  0  0  0  0  0  0  0  0  0  0  0
  139.2542   78.3273  219.9762 H   0  0  0  0  0  0  0  0  0  0  0  0
  141.9228   76.7840  219.4714 H   0  0  0  0  0  0  0  0  0  0  0  0
  141.5856   78.3996  218.9193 H   0  0  0  0  0  0  0  0  0  0  0  0
  142.8466   77.8735  221.3177 H   0  0  0  0  0  0  0  0  0  0  0  0
  141.8343   79.3103  221.1319 H   0  0  0  0  0  0  0  0  0  0  0  0
  141.3641   77.0646  222.8640 H   0  0  0  0  0  0  0  0  0  0  0  0
  138.2791   77.5800  222.6554 H   0  0  0  0  0  0  0  0  0  0  0  0
  136.9269   79.3194  223.7315 H   0  0  0  0  0  0  0  0  0  0  0  0
  138.0975   81.6711  226.4490 H   0  0  0  0  0  0  0  0  0  0  0  0
  137.2096   83.1099  225.6247 H   0  0  0  0  0  0  0  0  0  0  0  0
  140.3686   81.8387  223.9524 H   0  0  0  0  0  0  0  0  0  0  0  0
  141.7377   80.1105  222.8783 H   0  0  0  0  0  0  0  0  0  0  0  0
  139.1845   69.9362  222.4484 H   0  0  0  0  0  0  0  0  0  0  0  0
  138.7452   68.1748  224.1463 H   0  0  0  0  0  0  0  0  0  0  0  0
  138.9973   67.4100  226.3661 H   0  0  0  0  0  0  0  0  0  0  0  0
  139.8700   67.7427  228.6739 H   0  0  0  0  0  0  0  0  0  0  0  0
  141.1545   69.8014  229.2650 H   0  0  0  0  0  0  0  0  0  0  0  0
  141.5663   71.5353  227.5083 H   0  0  0  0  0  0  0  0  0  0  0  0
  1  2  2  0
  2  3  1  0
  3  4  1  0
  4  5  1  0
  5  6  2  0
  5  7  1  0
  7  8  1  0
  8  9  1  0
  9 10  1  0
 10 11  1  0
 11 12  1  0
 12 13  2  0
 13 14  1  0
 14 15  2  0
 15 16  1  0
 16 17  1  0
 17 18  1  0
 18 19  1  0
 18 20  1  0
 18 21  1  0
 15 22  1  0
 22 23  2  0
  2 24  1  0
 24 25  2  0
 25 26  1  0
 26 27  2  0
 27 28  1  0
 28 29  2  0
 29 30  1  0
 30 31  2  0
 31 32  1  0
 32 33  2  0
 11  7  1  0
 23 12  1  0
 33 24  1  0
 32 27  1  0
  3 34  1  0
  4 35  1  0
  4 36  1  0
  8 37  1  0
  8 38  1  0
  9 39  1  0
  9 40  1  0
 10 41  1  0
 10 42  1  0
 11 43  1  1
 13 44  1  0
 14 45  1  0
 17 46  1  0
 17 47  1  0
 22 48  1  0
 23 49  1  0
 25 50  1  0
 26 51  1  0
 28 52  1  0
 29 53  1  0
 30 54  1  0
 31 55  1  0
M  END
>  <smiles>  (58) 
O=C(NCC(=O)N1CCCC1c1ccc(OCC(F)(F)F)cc1)c1ccc2ccccc2n1

>  <score_type>  (58) 
oracle

>  <origin>  (58) 
autodockgpu

>  <m_score__min__energy>  (58) 
-8

>  <m_primary>  (58) 
energy

>  <rmsd>  (58) 
2.1556882120689456

>  <m_score__min__rmsd>  (58) 
2.1556882120689456

>  <meeko>  (58) 
{"free_energy": -7.85, "intermolecular_energy": -10.23, "internal_energy": -1.56, "cluster_size": 9, "cluster_id": 1, "rank_in_cluster": 3}

>  <energy>  (58) 
-7.31

>  <cluster_rmsd>  (58) 
0.98

>  <cluster>  (58) 
1

$$$$

     RDKit          3D

 55 58  0  0  0  0  0  0  0  0999 V2000
  140.9000   78.0520  217.7700 O   0  0  0  0  0  0  0  0  0  0  0  0
  141.9130   78.2030  218.5340 C   0  0  0  0  0  0  0  0  0  0  0  0
  143.0460   77.4160  218.2620 N   0  0  0  0  0  0  0  0  0  0  0  0
  143.0160   76.4880  217.1500 C   0  0  0  0  0  0  0  0  0  0  0  0
  143.0590   75.0790  217.6040 C   0  0  0  0  0  0  0  0  0  0  0  0
  143.1090   74.1390  216.7690 O   0  0  0  0  0  0  0  0  0  0  0  0
  143.0440   74.7260  218.9730 N   0  0  0  0  0  0  0  0  0  0  0  0
  144.1060   74.8910  219.9780 C   0  0  0  0  0  0  0  0  0  0  0  0
  144.1010   73.4940  220.6220 C   0  0  0  0  0  0  0  0  0  0  0  0
  142.6280   73.2500  220.7890 C   0  0  0  0  0  0  0  0  0  0  0  0
  141.9660   74.0960  219.7530 C   0  0  1  0  0  0  0  0  0  0  0  0
  141.1420   75.1330  220.4320 C   0  0  0  0  0  0  0  0  0  0  0  0
  140.1450   75.7420  219.7040 C   0  0  0  0  0  0  0  0  0  0  0  0
  139.3400   76.6870  220.2860 C   0  0  0  0  0  0  0  0  0  0  0  0
  139.4950   77.0720  221.6350 C   0  0  0  0  0  0  0  0  0  0  0  0
  138.6500   78.0050  222.0910 O   0  0  0  0  0  0  0  0  0  0  0  0
  138.5110   79.3490  222.1210 C   0  0  0  0  0  0  0  0  0  0  0  0
  138.4820   80.0690  223.4220 C   0  0  0  0  0  0  0  0  0  0  0  0
  137.3440   79.9520  224.1630 F   0  0  0  0  0  0  0  0  0  0  0  0
  138.8710   81.3940  223.2660 F   0  0  0  0  0  0  0  0  0  0  0  0
  139.4980   79.5050  224.2160 F   0  0  0  0  0  0  0  0  0  0  0  0
  140.5030   76.4310  222.3090 C   0  0  0  0  0  0  0  0  0  0  0  0
  141.3270   75.4770  221.7510 C   0  0  0  0  0  0  0  0  0  0  0  0
  141.8640   79.1590  219.6340 C   0  0  0  0  0  0  0  0  0  0  0  0
  141.4620   80.4540  219.3880 C   0  0  0  0  0  0  0  0  0  0  0  0
  141.3880   81.4210  220.3740 C   0  0  0  0  0  0  0  0  0  0  0  0
  141.7450   81.0260  221.6650 C   0  0  0  0  0  0  0  0  0  0  0  0
  141.6750   81.9800  222.6530 C   0  0  0  0  0  0  0  0  0  0  0  0
  142.0240   81.6050  223.9380 C   0  0  0  0  0  0  0  0  0  0  0  0
  142.4370   80.2990  224.2270 C   0  0  0  0  0  0  0  0  0  0  0  0
  142.4920   79.3640  223.1930 C   0  0  0  0  0  0  0  0  0  0  0  0
  142.1450   79.7310  221.9070 C   0  0  0  0  0  0  0  0  0  0  0  0
  142.1950   78.8390  220.9020 N   0  0  0  0  0  0  0  0  0  0  0  0
  143.9090   77.5040  218.8660 H   0  0  0  0  0  0  0  0  0  0  0  0
  142.0905   76.6489  216.5776 H   0  0  0  0  0  0  0  0  0  0  0  0
  143.9045   76.6727  216.5284 H   0  0  0  0  0  0  0  0  0  0  0  0
  145.0753   75.1195  219.5109 H   0  0  0  0  0  0  0  0  0  0  0  0
  143.9464   75.7211  220.6819 H   0  0  0  0  0  0  0  0  0  0  0  0
  144.5606   72.7445  219.9609 H   0  0  0  0  0  0  0  0  0  0  0  0
  144.6767   73.4277  221.5570 H   0  0  0  0  0  0  0  0  0  0  0  0
  142.3930   72.1878  220.6261 H   0  0  0  0  0  0  0  0  0  0  0  0
  142.2842   73.5014  221.8032 H   0  0  0  0  0  0  0  0  0  0  0  0
  141.3084   73.5065  219.0972 H   0  0  0  0  0  0  0  0  0  0  0  0
  139.9933   75.4689  218.6493 H   0  0  0  0  0  0  0  0  0  0  0  0
  138.5499   77.1591  219.6837 H   0  0  0  0  0  0  0  0  0  0  0  0
  139.3507   79.7671  221.5464 H   0  0  0  0  0  0  0  0  0  0  0  0
  137.4966   79.5051  221.7254 H   0  0  0  0  0  0  0  0  0  0  0  0
  140.6646   76.6956  223.3644 H   0  0  0  0  0  0  0  0  0  0  0  0
  142.1174   74.9999  222.3491 H   0  0  0  0  0  0  0  0  0  0  0  0
  141.1872   80.7315  218.3596 H   0  0  0  0  0  0  0  0  0  0  0  0
  141.0645   82.4488  220.1526 H   0  0  0  0  0  0  0  0  0  0  0  0
  141.3522   83.0074  222.4289 H   0  0  0  0  0  0  0  0  0  0  0  0
  141.9761   82.3473  224.7483 H   0  0  0  0  0  0  0  0  0  0  0  0
  142.7137   80.0145  225.2529 H   0  0  0  0  0  0  0  0  0  0  0  0
  142.8123   78.3326  223.4020 H   0  0  0  0  0  0  0  0  0  0  0  0
  1  2  2  0
  2  3  1  0
  3  4  1  0
  4  5  1  0
  5  6  2  0
  5  7  1  0
  7  8  1  0
  8  9  1  0
  9 10  1  0
 10 11  1  0
 11 12  1  0
 12 13  2  0
 13 14  1  0
 14 15  2  0
 15 16  1  0
 16 17  1  0
 17 18  1  0
 18 19  1  0
 18 20  1  0
 18 21  1  0
 15 22  1  0
 22 23  2  0
  2 24  1  0
 24 25  2  0
 25 26  1  0
 26 27  2  0
 27 28  1  0
 28 29  2  0
 29 30  1  0
 30 31  2  0
 31 32  1  0
 32 33  2  0
 11  7  1  0
 23 12  1  0
 33 24  1  0
 32 27  1  0
  3 34  1  0
  4 35  1  0
  4 36  1  0
  8 37  1  0
  8 38  1  0
  9 39  1  0
  9 40  1  0
 10 41  1  0
 10 42  1  0
 11 43  1  6
 13 44  1  0
 14 45  1  0
 17 46  1  0
 17 47  1  0
 22 48  1  0
 23 49  1  0
 25 50  1  0
 26 51  1  0
 28 52  1  0
 29 53  1  0
 30 54  1  0
 31 55  1  0
M  END
>  <smiles>  (59) 
O=C(NCC(=O)N1CCCC1c1ccc(OCC(F)(F)F)cc1)c1ccc2ccccc2n1

>  <score_type>  (59) 
oracle

>  <origin>  (59) 
autodockgpu

>  <m_score__min__energy>  (59) 
-8

>  <m_primary>  (59) 
energy

>  <rmsd>  (59) 
8.99564115580238

>  <m_score__min__rmsd>  (59) 
8.99564115580238

>  <meeko>  (59) 
{"free_energy": -5.58, "intermolecular_energy": -7.97, "internal_energy": -3.46, "cluster_size": 7, "cluster_id": 14, "rank_in_cluster": 3}

>  <energy>  (59) 
-7.26

>  <cluster_rmsd>  (59) 
1.49

>  <cluster>  (59) 
1

$$$$

     RDKit          3D

 55 58  0  0  0  0  0  0  0  0999 V2000
  140.7250   77.8120  217.9500 O   0  0  0  0  0  0  0  0  0  0  0  0
  141.7980   78.1170  218.5740 C   0  0  0  0  0  0  0  0  0  0  0  0
  142.9840   77.4850  218.1600 N   0  0  0  0  0  0  0  0  0  0  0  0
  142.9390   76.5370  217.0660 C   0  0  0  0  0  0  0  0  0  0  0  0
  142.8510   75.1390  217.5490 C   0  0  0  0  0  0  0  0  0  0  0  0
  142.7080   74.1900  216.7360 O   0  0  0  0  0  0  0  0  0  0  0  0
  142.9220   74.8090  218.9220 N   0  0  0  0  0  0  0  0  0  0  0  0
  144.0070   75.0770  219.8790 C   0  0  0  0  0  0  0  0  0  0  0  0
  144.1420   73.6950  220.5420 C   0  0  0  0  0  0  0  0  0  0  0  0
  142.7030   73.3350  220.7740 C   0  0  0  0  0  0  0  0  0  0  0  0
  141.9320   74.1060  219.7560 C   0  0  1  0  0  0  0  0  0  0  0  0
  141.0540   75.0850  220.4550 C   0  0  0  0  0  0  0  0  0  0  0  0
  141.4420   75.5230  221.7010 C   0  0  0  0  0  0  0  0  0  0  0  0
  140.6840   76.4420  222.3790 C   0  0  0  0  0  0  0  0  0  0  0  0
  139.4920   76.9720  221.8400 C   0  0  0  0  0  0  0  0  0  0  0  0
  138.8370   77.8610  222.5960 O   0  0  0  0  0  0  0  0  0  0  0  0
  138.2290   79.0630  222.4890 C   0  0  0  0  0  0  0  0  0  0  0  0
  138.4370   80.1020  223.5330 C   0  0  0  0  0  0  0  0  0  0  0  0
  137.4690   80.2170  224.4860 F   0  0  0  0  0  0  0  0  0  0  0  0
  138.7520   81.3280  222.9580 F   0  0  0  0  0  0  0  0  0  0  0  0
  139.6030   79.7410  224.2330 F   0  0  0  0  0  0  0  0  0  0  0  0
  139.1570   76.4980  220.5970 C   0  0  0  0  0  0  0  0  0  0  0  0
  139.8990   75.5750  219.8910 C   0  0  0  0  0  0  0  0  0  0  0  0
  141.7600   79.0820  219.6660 C   0  0  0  0  0  0  0  0  0  0  0  0
  141.2790   80.3530  219.4300 C   0  0  0  0  0  0  0  0  0  0  0  0
  141.2090   81.3260  220.4100 C   0  0  0  0  0  0  0  0  0  0  0  0
  141.6560   80.9660  221.6830 C   0  0  0  0  0  0  0  0  0  0  0  0
  141.5920   81.9270  222.6640 C   0  0  0  0  0  0  0  0  0  0  0  0
  142.0300   81.5860  223.9310 C   0  0  0  0  0  0  0  0  0  0  0  0
  142.5250   80.3070  224.2090 C   0  0  0  0  0  0  0  0  0  0  0  0
  142.5720   79.3630  223.1830 C   0  0  0  0  0  0  0  0  0  0  0  0
  142.1360   79.6960  221.9140 C   0  0  0  0  0  0  0  0  0  0  0  0
  142.1760   78.7960  220.9160 N   0  0  0  0  0  0  0  0  0  0  0  0
  143.8980   77.7030  218.6450 H   0  0  0  0  0  0  0  0  0  0  0  0
  142.0585   76.7541  216.4434 H   0  0  0  0  0  0  0  0  0  0  0  0
  143.8690   76.6398  216.4877 H   0  0  0  0  0  0  0  0  0  0  0  0
  144.9346   75.3751  219.3685 H   0  0  0  0  0  0  0  0  0  0  0  0
  143.8092   75.9036  220.5773 H   0  0  0  0  0  0  0  0  0  0  0  0
  144.6341   72.9741  219.8726 H   0  0  0  0  0  0  0  0  0  0  0  0
  144.7585   73.6919  221.4530 H   0  0  0  0  0  0  0  0  0  0  0  0
  142.5496   72.2546  220.6357 H   0  0  0  0  0  0  0  0  0  0  0  0
  142.3816   73.5750  221.7982 H   0  0  0  0  0  0  0  0  0  0  0  0
  141.2987   73.4533  219.1372 H   0  0  0  0  0  0  0  0  0  0  0  0
  142.3652   75.1335  222.1549 H   0  0  0  0  0  0  0  0  0  0  0  0
  141.0147   76.7766  223.3733 H   0  0  0  0  0  0  0  0  0  0  0  0
  138.5595   79.5013  221.5358 H   0  0  0  0  0  0  0  0  0  0  0  0
  137.1624   78.8145  222.5915 H   0  0  0  0  0  0  0  0  0  0  0  0
  138.2355   76.8795  220.1329 H   0  0  0  0  0  0  0  0  0  0  0  0
  139.5737   75.2370  218.8961 H   0  0  0  0  0  0  0  0  0  0  0  0
  140.9354   80.6041  218.4157 H   0  0  0  0  0  0  0  0  0  0  0  0
  140.8207   82.3330  220.1975 H   0  0  0  0  0  0  0  0  0  0  0  0
  141.2052   82.9340  222.4485 H   0  0  0  0  0  0  0  0  0  0  0  0
  141.9884   82.3348  224.7357 H   0  0  0  0  0  0  0  0  0  0  0  0
  142.8716   80.0500  225.2208 H   0  0  0  0  0  0  0  0  0  0  0  0
  142.9566   78.3522  223.3839 H   0  0  0  0  0  0  0  0  0  0  0  0
  1  2  2  0
  2  3  1  0
  3  4  1  0
  4  5  1  0
  5  6  2  0
  5  7  1  0
  7  8  1  0
  8  9  1  0
  9 10  1  0
 10 11  1  0
 11 12  1  0
 12 13  2  0
 13 14  1  0
 14 15  2  0
 15 16  1  0
 16 17  1  0
 17 18  1  0
 18 19  1  0
 18 20  1  0
 18 21  1  0
 15 22  1  0
 22 23  2  0
  2 24  1  0
 24 25  2  0
 25 26  1  0
 26 27  2  0
 27 28  1  0
 28 29  2  0
 29 30  1  0
 30 31  2  0
 31 32  1  0
 32 33  2  0
 11  7  1  0
 23 12  1  0
 33 24  1  0
 32 27  1  0
  3 34  1  0
  4 35  1  0
  4 36  1  0
  8 37  1  0
  8 38  1  0
  9 39  1  0
  9 40  1  0
 10 41  1  0
 10 42  1  0
 11 43  1  6
 13 44  1  0
 14 45  1  0
 17 46  1  0
 17 47  1  0
 22 48  1  0
 23 49  1  0
 25 50  1  0
 26 51  1  0
 28 52  1  0
 29 53  1  0
 30 54  1  0
 31 55  1  0
M  END
>  <smiles>  (60) 
O=C(NCC(=O)N1CCCC1c1ccc(OCC(F)(F)F)cc1)c1ccc2ccccc2n1

>  <score_type>  (60) 
oracle

>  <origin>  (60) 
autodockgpu

>  <m_score__min__energy>  (60) 
-8

>  <m_primary>  (60) 
energy

>  <rmsd>  (60) 
8.940053224642813

>  <m_score__min__rmsd>  (60) 
8.940053224642813

>  <meeko>  (60) 
{"free_energy": -5.57, "intermolecular_energy": -7.96, "internal_energy": -3.46, "cluster_size": 7, "cluster_id": 14, "rank_in_cluster": 4}

>  <energy>  (60) 
-7.72

>  <cluster_rmsd>  (60) 
0.0

>  <cluster>  (60) 
2

$$$$

     RDKit          3D

 55 58  0  0  0  0  0  0  0  0999 V2000
  139.0580   70.6080  221.4060 O   0  0  0  0  0  0  0  0  0  0  0  0
  139.1860   71.4140  222.3890 C   0  0  0  0  0  0  0  0  0  0  0  0
  138.9800   72.7810  222.1310 N   0  0  0  0  0  0  0  0  0  0  0  0
  138.6380   73.2070  220.7890 C   0  0  0  0  0  0  0  0  0  0  0  0
  139.6170   72.7200  219.7890 C   0  0  0  0  0  0  0  0  0  0  0  0
  139.2520   71.9570  218.8570 O   0  0  0  0  0  0  0  0  0  0  0  0
  140.9830   73.0790  219.8320 N   0  0  0  0  0  0  0  0  0  0  0  0
  141.9880   73.0100  218.7580 C   0  0  0  0  0  0  0  0  0  0  0  0
  143.1490   72.3320  219.5060 C   0  0  0  0  0  0  0  0  0  0  0  0
  143.1540   73.0930  220.8010 C   0  0  0  0  0  0  0  0  0  0  0  0
  141.7640   73.6110  220.9620 C   0  0  1  0  0  0  0  0  0  0  0  0
  141.7950   75.0990  220.9160 C   0  0  0  0  0  0  0  0  0  0  0  0
  141.0280   75.7870  221.8270 C   0  0  0  0  0  0  0  0  0  0  0  0
  141.0380   77.1580  221.8460 C   0  0  0  0  0  0  0  0  0  0  0  0
  141.8220   77.9120  220.9460 C   0  0  0  0  0  0  0  0  0  0  0  0
  141.7470   79.2440  221.0600 O   0  0  0  0  0  0  0  0  0  0  0  0
  141.4950   80.1910  221.9910 C   0  0  0  0  0  0  0  0  0  0  0  0
  142.3730   80.3200  223.1840 C   0  0  0  0  0  0  0  0  0  0  0  0
  142.1870   81.4210  223.9670 F   0  0  0  0  0  0  0  0  0  0  0  0
  143.7080   80.1410  222.8410 F   0  0  0  0  0  0  0  0  0  0  0  0
  142.0820   79.2220  224.0170 F   0  0  0  0  0  0  0  0  0  0  0  0
  142.5640   77.1710  220.0630 C   0  0  0  0  0  0  0  0  0  0  0  0
  142.5750   75.7940  220.0210 C   0  0  0  0  0  0  0  0  0  0  0  0
  139.5320   70.9060  223.7110 C   0  0  0  0  0  0  0  0  0  0  0  0
  139.2360   69.5980  224.0320 C   0  0  0  0  0  0  0  0  0  0  0  0
  139.5310   69.0400  225.2630 C   0  0  0  0  0  0  0  0  0  0  0  0
  140.1570   69.8710  226.1940 C   0  0  0  0  0  0  0  0  0  0  0  0
  140.4540   69.3240  227.4200 C   0  0  0  0  0  0  0  0  0  0  0  0
  141.0750   70.1340  228.3540 C   0  0  0  0  0  0  0  0  0  0  0  0
  141.3910   71.4660  228.0640 C   0  0  0  0  0  0  0  0  0  0  0  0
  141.0720   71.9780  226.8070 C   0  0  0  0  0  0  0  0  0  0  0  0
  140.4510   71.1750  225.8680 C   0  0  0  0  0  0  0  0  0  0  0  0
  140.1380   71.6570  224.6530 N   0  0  0  0  0  0  0  0  0  0  0  0
  139.0750   73.4880  222.9120 H   0  0  0  0  0  0  0  0  0  0  0  0
  137.6430   72.8136  220.5336 H   0  0  0  0  0  0  0  0  0  0  0  0
  138.6468   74.3068  220.7675 H   0  0  0  0  0  0  0  0  0  0  0  0
  141.6379   72.3998  217.9124 H   0  0  0  0  0  0  0  0  0  0  0  0
  142.2394   73.9788  218.3017 H   0  0  0  0  0  0  0  0  0  0  0  0
  142.9520   71.2622  219.6691 H   0  0  0  0  0  0  0  0  0  0  0  0
  144.1071   72.3580  218.9662 H   0  0  0  0  0  0  0  0  0  0  0  0
  143.4161   72.4280  221.6371 H   0  0  0  0  0  0  0  0  0  0  0  0
  143.8951   73.9058  220.7948 H   0  0  0  0  0  0  0  0  0  0  0  0
  141.3179   73.3035  221.9193 H   0  0  0  0  0  0  0  0  0  0  0  0
  140.4032   75.2345  222.5442 H   0  0  0  0  0  0  0  0  0  0  0  0
  140.4167   77.6860  222.5844 H   0  0  0  0  0  0  0  0  0  0  0  0
  141.5221   81.1604  221.4718 H   0  0  0  0  0  0  0  0  0  0  0  0
  140.5344   79.8705  222.4205 H   0  0  0  0  0  0  0  0  0  0  0  0
  143.1923   77.7118  219.3400 H   0  0  0  0  0  0  0  0  0  0  0  0
  143.1956   75.2605  219.2859 H   0  0  0  0  0  0  0  0  0  0  0  0
  138.7431   68.9701  223.2752 H   0  0  0  0  0  0  0  0  0  0  0  0
  139.2847   67.9937  225.4967 H   0  0  0  0  0  0  0  0  0  0  0  0
  140.2061   68.2774  227.6505 H   0  0  0  0  0  0  0  0  0  0  0  0
  141.3251   69.7232  229.3433 H   0  0  0  0  0  0  0  0  0  0  0  0
  141.8836   72.0995  228.8163 H   0  0  0  0  0  0  0  0  0  0  0  0
  141.3147   73.0225  226.5618 H   0  0  0  0  0  0  0  0  0  0  0  0
  1  2  2  0
  2  3  1  0
  3  4  1  0
  4  5  1  0
  5  6  2  0
  5  7  1  0
  7  8  1  0
  8  9  1  0
  9 10  1  0
 10 11  1  0
 11 12  1  0
 12 13  2  0
 13 14  1  0
 14 15  2  0
 15 16  1  0
 16 17  1  0
 17 18  1  0
 18 19  1  0
 18 20  1  0
 18 21  1  0
 15 22  1  0
 22 23  2  0
  2 24  1  0
 24 25  2  0
 25 26  1  0
 26 27  2  0
 27 28  1  0
 28 29  2  0
 29 30  1  0
 30 31  2  0
 31 32  1  0
 32 33  2  0
 11  7  1  0
 23 12  1  0
 33 24  1  0
 32 27  1  0
  3 34  1  0
  4 35  1  0
  4 36  1  0
  8 37  1  0
  8 38  1  0
  9 39  1  0
  9 40  1  0
 10 41  1  0
 10 42  1  0
 11 43  1  1
 13 44  1  0
 14 45  1  0
 17 46  1  0
 17 47  1  0
 22 48  1  0
 23 49  1  0
 25 50  1  0
 26 51  1  0
 28 52  1  0
 29 53  1  0
 30 54  1  0
 31 55  1  0
M  END
>  <smiles>  (61) 
O=C(NCC(=O)N1CCCC1c1ccc(OCC(F)(F)F)cc1)c1ccc2ccccc2n1

>  <score_type>  (61) 
oracle

>  <origin>  (61) 
autodockgpu

>  <m_score__min__energy>  (61) 
-8

>  <m_primary>  (61) 
energy

>  <rmsd>  (61) 
2.8213969866770654

>  <m_score__min__rmsd>  (61) 
2.8213969866770654

>  <meeko>  (61) 
{"free_energy": -7.38, "intermolecular_energy": -9.77, "internal_energy": -1.78, "cluster_size": 11, "cluster_id": 2, "rank_in_cluster": 6}

>  <energy>  (61) 
-7.63

>  <cluster_rmsd>  (61) 
0.45

>  <cluster>  (61) 
2

$$$$

     RDKit          3D

 55 58  0  0  0  0  0  0  0  0999 V2000
  138.8380   70.5090  221.6680 O   0  0  0  0  0  0  0  0  0  0  0  0
  138.5640   71.1730  222.7250 C   0  0  0  0  0  0  0  0  0  0  0  0
  137.5850   72.1770  222.6180 N   0  0  0  0  0  0  0  0  0  0  0  0
  136.9420   72.4090  221.3400 C   0  0  0  0  0  0  0  0  0  0  0  0
  137.5020   73.5920  220.6470 C   0  0  0  0  0  0  0  0  0  0  0  0
  136.7600   74.3380  219.9560 O   0  0  0  0  0  0  0  0  0  0  0  0
  138.8700   73.9360  220.7240 N   0  0  0  0  0  0  0  0  0  0  0  0
  139.8390   74.1140  219.6300 C   0  0  0  0  0  0  0  0  0  0  0  0
  141.0210   73.2880  220.1670 C   0  0  0  0  0  0  0  0  0  0  0  0
  141.0720   73.7380  221.5990 C   0  0  0  0  0  0  0  0  0  0  0  0
  139.6900   74.2020  221.9180 C   0  0  1  0  0  0  0  0  0  0  0  0
  139.7270   75.6620  222.2080 C   0  0  0  0  0  0  0  0  0  0  0  0
  140.9560   76.2790  222.2560 C   0  0  0  0  0  0  0  0  0  0  0  0
  141.0480   77.6260  222.4940 C   0  0  0  0  0  0  0  0  0  0  0  0
  139.9040   78.4270  222.6990 C   0  0  0  0  0  0  0  0  0  0  0  0
  140.1190   79.7290  222.9250 O   0  0  0  0  0  0  0  0  0  0  0  0
  141.0810   80.6630  222.7600 C   0  0  0  0  0  0  0  0  0  0  0  0
  142.3280   80.6040  223.5690 C   0  0  0  0  0  0  0  0  0  0  0  0
  142.5600   81.6480  224.4150 F   0  0  0  0  0  0  0  0  0  0  0  0
  143.4290   80.3270  222.7670 F   0  0  0  0  0  0  0  0  0  0  0  0
  142.2150   79.4740  224.4000 F   0  0  0  0  0  0  0  0  0  0  0  0
  138.7080   77.7570  222.6410 C   0  0  0  0  0  0  0  0  0  0  0  0
  138.5860   76.4060  222.4020 C   0  0  0  0  0  0  0  0  0  0  0  0
  139.2560   70.8790  223.9730 C   0  0  0  0  0  0  0  0  0  0  0  0
  140.2310   71.7420  224.4270 C   0  0  0  0  0  0  0  0  0  0  0  0
  140.9330   71.5350  225.6010 C   0  0  0  0  0  0  0  0  0  0  0  0
  140.6110   70.3900  226.3300 C   0  0  0  0  0  0  0  0  0  0  0  0
  141.3040   70.1750  227.4980 C   0  0  0  0  0  0  0  0  0  0  0  0
  140.9960   69.0450  228.2330 C   0  0  0  0  0  0  0  0  0  0  0  0
  140.0130   68.1450  227.8050 C   0  0  0  0  0  0  0  0  0  0  0  0
  139.3340   68.4030  226.6140 C   0  0  0  0  0  0  0  0  0  0  0  0
  139.6370   69.5310  225.8730 C   0  0  0  0  0  0  0  0  0  0  0  0
  138.9900   69.7900  224.7230 N   0  0  0  0  0  0  0  0  0  0  0  0
  137.3240   72.7550  223.4640 H   0  0  0  0  0  0  0  0  0  0  0  0
  137.0853   71.5232  220.7037 H   0  0  0  0  0  0  0  0  0  0  0  0
  135.8738   72.5959  221.5246 H   0  0  0  0  0  0  0  0  0  0  0  0
  139.4587   73.7093  218.6805 H   0  0  0  0  0  0  0  0  0  0  0  0
  140.0799   75.1615  219.3962 H   0  0  0  0  0  0  0  0  0  0  0  0
  140.8244   72.2084  220.0915 H   0  0  0  0  0  0  0  0  0  0  0  0
  141.9609   73.4374  219.6154 H   0  0  0  0  0  0  0  0  0  0  0  0
  141.3586   72.9027  222.2549 H   0  0  0  0  0  0  0  0  0  0  0  0
  141.8161   74.5336  221.7515 H   0  0  0  0  0  0  0  0  0  0  0  0
  139.2734   73.6851  222.7951 H   0  0  0  0  0  0  0  0  0  0  0  0
  141.8707   75.6876  222.1024 H   0  0  0  0  0  0  0  0  0  0  0  0
  142.0420   78.0961  222.5261 H   0  0  0  0  0  0  0  0  0  0  0  0
  141.3863   80.6199  221.7041 H   0  0  0  0  0  0  0  0  0  0  0  0
  140.5972   81.5860  223.1122 H   0  0  0  0  0  0  0  0  0  0  0  0
  137.7861   78.3369  222.7955 H   0  0  0  0  0  0  0  0  0  0  0  0
  137.5946   75.9307  222.3669 H   0  0  0  0  0  0  0  0  0  0  0  0
  140.4611   72.6357  223.8284 H   0  0  0  0  0  0  0  0  0  0  0  0
  141.7067   72.2383  225.9427 H   0  0  0  0  0  0  0  0  0  0  0  0
  142.0783   70.8791  227.8367 H   0  0  0  0  0  0  0  0  0  0  0  0
  141.5339   68.8495  229.1724 H   0  0  0  0  0  0  0  0  0  0  0  0
  139.7797   67.2486  228.3983 H   0  0  0  0  0  0  0  0  0  0  0  0
  138.5564   67.7083  226.2636 H   0  0  0  0  0  0  0  0  0  0  0  0
  1  2  2  0
  2  3  1  0
  3  4  1  0
  4  5  1  0
  5  6  2  0
  5  7  1  0
  7  8  1  0
  8  9  1  0
  9 10  1  0
 10 11  1  0
 11 12  1  0
 12 13  2  0
 13 14  1  0
 14 15  2  0
 15 16  1  0
 16 17  1  0
 17 18  1  0
 18 19  1  0
 18 20  1  0
 18 21  1  0
 15 22  1  0
 22 23  2  0
  2 24  1  0
 24 25  2  0
 25 26  1  0
 26 27  2  0
 27 28  1  0
 28 29  2  0
 29 30  1  0
 30 31  2  0
 31 32  1  0
 32 33  2  0
 11  7  1  0
 23 12  1  0
 33 24  1  0
 32 27  1  0
  3 34  1  0
  4 35  1  0
  4 36  1  0
  8 37  1  0
  8 38  1  0
  9 39  1  0
  9 40  1  0
 10 41  1  0
 10 42  1  0
 11 43  1  1
 13 44  1  0
 14 45  1  0
 17 46  1  0
 17 47  1  0
 22 48  1  0
 23 49  1  0
 25 50  1  0
 26 51  1  0
 28 52  1  0
 29 53  1  0
 30 54  1  0
 31 55  1  0
M  END
>  <smiles>  (62) 
O=C(NCC(=O)N1CCCC1c1ccc(OCC(F)(F)F)cc1)c1ccc2ccccc2n1

>  <score_type>  (62) 
oracle

>  <origin>  (62) 
autodockgpu

>  <m_score__min__energy>  (62) 
-8

>  <m_primary>  (62) 
energy

>  <rmsd>  (62) 
3.2568711052946657

>  <m_score__min__rmsd>  (62) 
3.2568711052946657

>  <meeko>  (62) 
{"free_energy": -7.2, "intermolecular_energy": -9.59, "internal_energy": -2.0, "cluster_size": 6, "cluster_id": 6, "rank_in_cluster": 2}

>  <energy>  (62) 
-7.6

>  <cluster_rmsd>  (62) 
1.83

>  <cluster>  (62) 
2

$$$$

     RDKit          3D

 55 58  0  0  0  0  0  0  0  0999 V2000
  140.7300   77.7820  218.0070 O   0  0  0  0  0  0  0  0  0  0  0  0
  141.8230   78.1030  218.5860 C   0  0  0  0  0  0  0  0  0  0  0  0
  142.9970   77.4730  218.1380 N   0  0  0  0  0  0  0  0  0  0  0  0
  142.9190   76.5080  217.0590 C   0  0  0  0  0  0  0  0  0  0  0  0
  142.8660   75.1170  217.5660 C   0  0  0  0  0  0  0  0  0  0  0  0
  142.7420   74.1510  216.7680 O   0  0  0  0  0  0  0  0  0  0  0  0
  142.9510   74.8110  218.9430 N   0  0  0  0  0  0  0  0  0  0  0  0
  144.0540   75.0800  219.8800 C   0  0  0  0  0  0  0  0  0  0  0  0
  144.1780   73.7090  220.5660 C   0  0  0  0  0  0  0  0  0  0  0  0
  142.7370   73.3730  220.8240 C   0  0  0  0  0  0  0  0  0  0  0  0
  141.9630   74.1380  219.8030 C   0  0  1  0  0  0  0  0  0  0  0  0
  141.1090   75.1410  220.4960 C   0  0  0  0  0  0  0  0  0  0  0  0
  139.9570   75.5510  219.8660 C   0  0  0  0  0  0  0  0  0  0  0  0
  139.1210   76.4550  220.4690 C   0  0  0  0  0  0  0  0  0  0  0  0
  139.4000   76.9970  221.7420 C   0  0  0  0  0  0  0  0  0  0  0  0
  138.5100   77.8710  222.2280 O   0  0  0  0  0  0  0  0  0  0  0  0
  138.2330   79.1940  222.1930 C   0  0  0  0  0  0  0  0  0  0  0  0
  138.4950   80.0440  223.3850 C   0  0  0  0  0  0  0  0  0  0  0  0
  137.4950   80.1340  224.3060 F   0  0  0  0  0  0  0  0  0  0  0  0
  138.9730   81.2940  223.0080 F   0  0  0  0  0  0  0  0  0  0  0  0
  139.5750   79.4560  224.0690 F   0  0  0  0  0  0  0  0  0  0  0  0
  140.5610   76.5510  222.3200 C   0  0  0  0  0  0  0  0  0  0  0  0
  141.4200   75.6430  221.7390 C   0  0  0  0  0  0  0  0  0  0  0  0
  141.8180   79.0840  219.6650 C   0  0  0  0  0  0  0  0  0  0  0  0
  141.4240   80.3780  219.4010 C   0  0  0  0  0  0  0  0  0  0  0  0
  141.3920   81.3670  220.3670 C   0  0  0  0  0  0  0  0  0  0  0  0
  141.7830   80.9970  221.6550 C   0  0  0  0  0  0  0  0  0  0  0  0
  141.7540   81.9740  222.6230 C   0  0  0  0  0  0  0  0  0  0  0  0
  142.1380   81.6240  223.9050 C   0  0  0  0  0  0  0  0  0  0  0  0
  142.5440   80.3210  224.2110 C   0  0  0  0  0  0  0  0  0  0  0  0
  142.5570   79.3620  223.1980 C   0  0  0  0  0  0  0  0  0  0  0  0
  142.1750   79.7040  221.9140 C   0  0  0  0  0  0  0  0  0  0  0  0
  142.1840   78.7890  220.9290 N   0  0  0  0  0  0  0  0  0  0  0  0
  143.9270   77.7040  218.5850 H   0  0  0  0  0  0  0  0  0  0  0  0
  142.0121   76.7065  216.4690 H   0  0  0  0  0  0  0  0  0  0  0  0
  143.8236   76.6121  216.4419 H   0  0  0  0  0  0  0  0  0  0  0  0
  144.9785   75.3548  219.3511 H   0  0  0  0  0  0  0  0  0  0  0  0
  143.8785   75.9220  220.5657 H   0  0  0  0  0  0  0  0  0  0  0  0
  144.6508   72.9692  219.9033 H   0  0  0  0  0  0  0  0  0  0  0  0
  144.8064   73.7140  221.4688 H   0  0  0  0  0  0  0  0  0  0  0  0
  142.5666   72.2927  220.7062 H   0  0  0  0  0  0  0  0  0  0  0  0
  142.4330   73.6344  221.8483 H   0  0  0  0  0  0  0  0  0  0  0  0
  141.3116   73.4841  219.2045 H   0  0  0  0  0  0  0  0  0  0  0  0
  139.7050   75.1513  218.8727 H   0  0  0  0  0  0  0  0  0  0  0  0
  138.2056   76.7672  219.9451 H   0  0  0  0  0  0  0  0  0  0  0  0
  138.8204   79.6189  221.3657 H   0  0  0  0  0  0  0  0  0  0  0  0
  137.1370   79.2188  222.1029 H   0  0  0  0  0  0  0  0  0  0  0  0
  140.8241   76.9440  223.3131 H   0  0  0  0  0  0  0  0  0  0  0  0
  142.3361   75.3259  222.2587 H   0  0  0  0  0  0  0  0  0  0  0  0
  141.1213   80.6358  218.3754 H   0  0  0  0  0  0  0  0  0  0  0  0
  141.0744   82.3937  220.1323 H   0  0  0  0  0  0  0  0  0  0  0  0
  141.4359   82.9998  222.3854 H   0  0  0  0  0  0  0  0  0  0  0  0
  142.1238   82.3851  224.6991 H   0  0  0  0  0  0  0  0  0  0  0  0
  142.8483   80.0566  225.2345 H   0  0  0  0  0  0  0  0  0  0  0  0
  142.8717   78.3319  223.4212 H   0  0  0  0  0  0  0  0  0  0  0  0
  1  2  2  0
  2  3  1  0
  3  4  1  0
  4  5  1  0
  5  6  2  0
  5  7  1  0
  7  8  1  0
  8  9  1  0
  9 10  1  0
 10 11  1  0
 11 12  1  0
 12 13  2  0
 13 14  1  0
 14 15  2  0
 15 16  1  0
 16 17  1  0
 17 18  1  0
 18 19  1  0
 18 20  1  0
 18 21  1  0
 15 22  1  0
 22 23  2  0
  2 24  1  0
 24 25  2  0
 25 26  1  0
 26 27  2  0
 27 28  1  0
 28 29  2  0
 29 30  1  0
 30 31  2  0
 31 32  1  0
 32 33  2  0
 11  7  1  0
 23 12  1  0
 33 24  1  0
 32 27  1  0
  3 34  1  0
  4 35  1  0
  4 36  1  0
  8 37  1  0
  8 38  1  0
  9 39  1  0
  9 40  1  0
 10 41  1  0
 10 42  1  0
 11 43  1  6
 13 44  1  0
 14 45  1  0
 17 46  1  0
 17 47  1  0
 22 48  1  0
 23 49  1  0
 25 50  1  0
 26 51  1  0
 28 52  1  0
 29 53  1  0
 30 54  1  0
 31 55  1  0
M  END
>  <smiles>  (63) 
O=C(NCC(=O)N1CCCC1c1ccc(OCC(F)(F)F)cc1)c1ccc2ccccc2n1

>  <score_type>  (63) 
oracle

>  <origin>  (63) 
autodockgpu

>  <m_score__min__energy>  (63) 
-8

>  <m_primary>  (63) 
energy

>  <rmsd>  (63) 
8.967588553906726

>  <m_score__min__rmsd>  (63) 
8.967588553906726

>  <meeko>  (63) 
{"free_energy": -5.53, "intermolecular_energy": -7.92, "internal_energy": -3.45, "cluster_size": 7, "cluster_id": 14, "rank_in_cluster": 5}

>  <energy>  (63) 
-7.54

>  <cluster_rmsd>  (63) 
1.38

>  <cluster>  (63) 
2

$$$$

     RDKit          3D

 55 58  0  0  0  0  0  0  0  0999 V2000
  141.5100   72.4920  221.8570 O   0  0  0  0  0  0  0  0  0  0  0  0
  140.4760   72.5270  222.6070 C   0  0  0  0  0  0  0  0  0  0  0  0
  139.5820   73.5950  222.4190 N   0  0  0  0  0  0  0  0  0  0  0  0
  139.8650   74.5890  221.4040 C   0  0  0  0  0  0  0  0  0  0  0  0
  139.3130   75.9170  221.7610 C   0  0  0  0  0  0  0  0  0  0  0  0
  138.1890   76.0120  222.3170 O   0  0  0  0  0  0  0  0  0  0  0  0
  140.0080   77.1190  221.4980 N   0  0  0  0  0  0  0  0  0  0  0  0
  140.3380   77.7260  220.1980 C   0  0  0  0  0  0  0  0  0  0  0  0
  141.8250   78.0590  220.4160 C   0  0  0  0  0  0  0  0  0  0  0  0
  141.7980   78.6550  221.7940 C   0  0  0  0  0  0  0  0  0  0  0  0
  140.5890   78.0790  222.4520 C   0  0  1  0  0  0  0  0  0  0  0  0
  139.6250   79.1770  222.7370 C   0  0  0  0  0  0  0  0  0  0  0  0
  138.3480   78.8300  223.1160 C   0  0  0  0  0  0  0  0  0  0  0  0
  137.4260   79.7990  223.4140 C   0  0  0  0  0  0  0  0  0  0  0  0
  137.7390   81.1740  223.3460 C   0  0  0  0  0  0  0  0  0  0  0  0
  136.7550   82.0270  223.6590 O   0  0  0  0  0  0  0  0  0  0  0  0
  136.2970   82.7370  224.7130 C   0  0  0  0  0  0  0  0  0  0  0  0
  136.6630   82.3390  226.0990 C   0  0  0  0  0  0  0  0  0  0  0  0
  136.0340   81.2430  226.6090 F   0  0  0  0  0  0  0  0  0  0  0  0
  136.5980   83.4270  226.9620 F   0  0  0  0  0  0  0  0  0  0  0  0
  138.0290   82.0020  226.0730 F   0  0  0  0  0  0  0  0  0  0  0  0
  139.0250   81.4580  222.9630 C   0  0  0  0  0  0  0  0  0  0  0  0
  139.9730   80.5050  222.6580 C   0  0  0  0  0  0  0  0  0  0  0  0
  140.2620   71.4870  223.6060 C   0  0  0  0  0  0  0  0  0  0  0  0
  139.5650   70.3490  223.2610 C   0  0  0  0  0  0  0  0  0  0  0  0
  139.3200   69.3180  224.1490 C   0  0  0  0  0  0  0  0  0  0  0  0
  139.8180   69.4750  225.4440 C   0  0  0  0  0  0  0  0  0  0  0  0
  139.5780   68.4550  226.3350 C   0  0  0  0  0  0  0  0  0  0  0  0
  140.0650   68.5940  227.6220 C   0  0  0  0  0  0  0  0  0  0  0  0
  140.7770   69.7350  228.0100 C   0  0  0  0  0  0  0  0  0  0  0  0
  140.9970   70.7450  227.0730 C   0  0  0  0  0  0  0  0  0  0  0  0
  140.5130   70.6130  225.7840 C   0  0  0  0  0  0  0  0  0  0  0  0
  140.7180   71.5790  224.8730 N   0  0  0  0  0  0  0  0  0  0  0  0
  138.7120   73.6690  223.0160 H   0  0  0  0  0  0  0  0  0  0  0  0
  140.9552   74.6770  221.2868 H   0  0  0  0  0  0  0  0  0  0  0  0
  139.3900   74.2635  220.4668 H   0  0  0  0  0  0  0  0  0  0  0  0
  140.1977   77.0153  219.3702 H   0  0  0  0  0  0  0  0  0  0  0  0
  139.7107   78.5858  219.9201 H   0  0  0  0  0  0  0  0  0  0  0  0
  142.4490   77.1537  220.3816 H   0  0  0  0  0  0  0  0  0  0  0  0
  142.2541   78.7205  219.6490 H   0  0  0  0  0  0  0  0  0  0  0  0
  142.7064   78.3800  222.3500 H   0  0  0  0  0  0  0  0  0  0  0  0
  141.7623   79.7540  221.7634 H   0  0  0  0  0  0  0  0  0  0  0  0
  140.8342   77.5799  223.4011 H   0  0  0  0  0  0  0  0  0  0  0  0
  138.0660   77.7687  223.1800 H   0  0  0  0  0  0  0  0  0  0  0  0
  136.4121   79.4966  223.7151 H   0  0  0  0  0  0  0  0  0  0  0  0
  136.6500   83.7698  224.5765 H   0  0  0  0  0  0  0  0  0  0  0  0
  135.2115   82.5623  224.6803 H   0  0  0  0  0  0  0  0  0  0  0  0
  139.3192   82.5157  222.8947 H   0  0  0  0  0  0  0  0  0  0  0  0
  140.9887   80.8012  222.3571 H   0  0  0  0  0  0  0  0  0  0  0  0
  139.1864   70.2569  222.2323 H   0  0  0  0  0  0  0  0  0  0  0  0
  138.7608   68.4191  223.8503 H   0  0  0  0  0  0  0  0  0  0  0  0
  139.0171   67.5580  226.0338 H   0  0  0  0  0  0  0  0  0  0  0  0
  139.8895   67.7926  228.3547 H   0  0  0  0  0  0  0  0  0  0  0  0
  141.1571   69.8338  229.0375 H   0  0  0  0  0  0  0  0  0  0  0  0
  141.5563   71.6478  227.3598 H   0  0  0  0  0  0  0  0  0  0  0  0
  1  2  2  0
  2  3  1  0
  3  4  1  0
  4  5  1  0
  5  6  2  0
  5  7  1  0
  7  8  1  0
  8  9  1  0
  9 10  1  0
 10 11  1  0
 11 12  1  0
 12 13  2  0
 13 14  1  0
 14 15  2  0
 15 16  1  0
 16 17  1  0
 17 18  1  0
 18 19  1  0
 18 20  1  0
 18 21  1  0
 15 22  1  0
 22 23  2  0
  2 24  1  0
 24 25  2  0
 25 26  1  0
 26 27  2  0
 27 28  1  0
 28 29  2  0
 29 30  1  0
 30 31  2  0
 31 32  1  0
 32 33  2  0
 11  7  1  0
 23 12  1  0
 33 24  1  0
 32 27  1  0
  3 34  1  0
  4 35  1  0
  4 36  1  0
  8 37  1  0
  8 38  1  0
  9 39  1  0
  9 40  1  0
 10 41  1  0
 10 42  1  0
 11 43  1  1
 13 44  1  0
 14 45  1  0
 17 46  1  0
 17 47  1  0
 22 48  1  0
 23 49  1  0
 25 50  1  0
 26 51  1  0
 28 52  1  0
 29 53  1  0
 30 54  1  0
 31 55  1  0
M  END
>  <smiles>  (64) 
O=C(NCC(=O)N1CCCC1c1ccc(OCC(F)(F)F)cc1)c1ccc2ccccc2n1

>  <score_type>  (64) 
oracle

>  <origin>  (64) 
autodockgpu

>  <m_score__min__energy>  (64) 
-8

>  <m_primary>  (64) 
energy

>  <rmsd>  (64) 
2.5019086762841027

>  <m_score__min__rmsd>  (64) 
2.5019086762841027

>  <meeko>  (64) 
{"free_energy": -7.52, "intermolecular_energy": -9.9, "internal_energy": -1.62, "cluster_size": 9, "cluster_id": 1, "rank_in_cluster": 6}

>  <energy>  (64) 
-7.52

>  <cluster_rmsd>  (64) 
1.12

>  <cluster>  (64) 
2

$$$$

     RDKit          3D

 55 58  0  0  0  0  0  0  0  0999 V2000
  138.5620   70.8000  221.6980 O   0  0  0  0  0  0  0  0  0  0  0  0
  139.0250   71.3710  222.7430 C   0  0  0  0  0  0  0  0  0  0  0  0
  139.2210   72.7620  222.6820 N   0  0  0  0  0  0  0  0  0  0  0  0
  138.8970   73.4720  221.4610 C   0  0  0  0  0  0  0  0  0  0  0  0
  139.1510   74.9260  221.5840 C   0  0  0  0  0  0  0  0  0  0  0  0
  138.5200   75.6170  222.4260 O   0  0  0  0  0  0  0  0  0  0  0  0
  140.0960   75.5990  220.7760 N   0  0  0  0  0  0  0  0  0  0  0  0
  139.9760   76.0140  219.3700 C   0  0  0  0  0  0  0  0  0  0  0  0
  141.3170   75.5050  218.8130 C   0  0  0  0  0  0  0  0  0  0  0  0
  142.2710   75.9500  219.8840 C   0  0  0  0  0  0  0  0  0  0  0  0
  141.4520   76.0570  221.1260 C   0  0  1  0  0  0  0  0  0  0  0  0
  141.4220   77.4790  221.5640 C   0  0  0  0  0  0  0  0  0  0  0  0
  141.8170   78.4400  220.6600 C   0  0  0  0  0  0  0  0  0  0  0  0
  141.7860   79.7670  221.0020 C   0  0  0  0  0  0  0  0  0  0  0  0
  141.3560   80.2010  222.2750 C   0  0  0  0  0  0  0  0  0  0  0  0
  141.3720   81.5220  222.4920 O   0  0  0  0  0  0  0  0  0  0  0  0
  141.4250   82.6840  221.8040 C   0  0  0  0  0  0  0  0  0  0  0  0
  140.3160   83.0630  220.8890 C   0  0  0  0  0  0  0  0  0  0  0  0
  140.0680   84.3960  220.7450 F   0  0  0  0  0  0  0  0  0  0  0  0
  139.1630   82.3450  221.1810 F   0  0  0  0  0  0  0  0  0  0  0  0
  140.6840   82.6160  219.6060 F   0  0  0  0  0  0  0  0  0  0  0  0
  140.9760   79.1990  223.1310 C   0  0  0  0  0  0  0  0  0  0  0  0
  140.9950   77.8580  222.8150 C   0  0  0  0  0  0  0  0  0  0  0  0
  139.3260   70.5850  223.9330 C   0  0  0  0  0  0  0  0  0  0  0  0
  139.0050   69.2440  223.9580 C   0  0  0  0  0  0  0  0  0  0  0  0
  139.2580   68.4300  225.0470 C   0  0  0  0  0  0  0  0  0  0  0  0
  139.8660   69.0310  226.1510 C   0  0  0  0  0  0  0  0  0  0  0  0
  140.1210   68.2290  227.2380 C   0  0  0  0  0  0  0  0  0  0  0  0
  140.7240   68.8080  228.3400 C   0  0  0  0  0  0  0  0  0  0  0  0
  141.0650   70.1660  228.3520 C   0  0  0  0  0  0  0  0  0  0  0  0
  140.7880   70.9410  227.2260 C   0  0  0  0  0  0  0  0  0  0  0  0
  140.1850   70.3690  226.1210 C   0  0  0  0  0  0  0  0  0  0  0  0
  139.9130   71.1060  225.0300 N   0  0  0  0  0  0  0  0  0  0  0  0
  139.6020   73.2810  223.5210 H   0  0  0  0  0  0  0  0  0  0  0  0
  139.5130   73.0713  220.6424 H   0  0  0  0  0  0  0  0  0  0  0  0
  137.8255   73.3290  221.2574 H   0  0  0  0  0  0  0  0  0  0  0  0
  139.1208   75.5304  218.8752 H   0  0  0  0  0  0  0  0  0  0  0  0
  139.7966   77.0892  219.2228 H   0  0  0  0  0  0  0  0  0  0  0  0
  141.3176   74.4105  218.7032 H   0  0  0  0  0  0  0  0  0  0  0  0
  141.5596   75.8836  217.8091 H   0  0  0  0  0  0  0  0  0  0  0  0
  143.0742   75.2100  220.0154 H   0  0  0  0  0  0  0  0  0  0  0  0
  142.7543   76.9049  219.6297 H   0  0  0  0  0  0  0  0  0  0  0  0
  141.8656   75.4515  221.9460 H   0  0  0  0  0  0  0  0  0  0  0  0
  142.1592   78.1411  219.6582 H   0  0  0  0  0  0  0  0  0  0  0  0
  142.1056   80.5162  220.2627 H   0  0  0  0  0  0  0  0  0  0  0  0
  141.5102   83.4891  222.5486 H   0  0  0  0  0  0  0  0  0  0  0  0
  142.2731   82.5318  221.1202 H   0  0  0  0  0  0  0  0  0  0  0  0
  140.6334   79.4849  224.1364 H   0  0  0  0  0  0  0  0  0  0  0  0
  140.6746   77.1047  223.5497 H   0  0  0  0  0  0  0  0  0  0  0  0
  138.5262   68.8020  223.0718 H   0  0  0  0  0  0  0  0  0  0  0  0
  138.9934   67.3623  225.0436 H   0  0  0  0  0  0  0  0  0  0  0  0
  139.8543   67.1618  227.2316 H   0  0  0  0  0  0  0  0  0  0  0  0
  140.9398   68.1898  229.2239 H   0  0  0  0  0  0  0  0  0  0  0  0
  141.5436   70.6143  229.2352 H   0  0  0  0  0  0  0  0  0  0  0  0
  141.0497   72.0094  227.2170 H   0  0  0  0  0  0  0  0  0  0  0  0
  1  2  2  0
  2  3  1  0
  3  4  1  0
  4  5  1  0
  5  6  2  0
  5  7  1  0
  7  8  1  0
  8  9  1  0
  9 10  1  0
 10 11  1  0
 11 12  1  0
 12 13  2  0
 13 14  1  0
 14 15  2  0
 15 16  1  0
 16 17  1  0
 17 18  1  0
 18 19  1  0
 18 20  1  0
 18 21  1  0
 15 22  1  0
 22 23  2  0
  2 24  1  0
 24 25  2  0
 25 26  1  0
 26 27  2  0
 27 28  1  0
 28 29  2  0
 29 30  1  0
 30 31  2  0
 31 32  1  0
 32 33  2  0
 11  7  1  0
 23 12  1  0
 33 24  1  0
 32 27  1  0
  3 34  1  0
  4 35  1  0
  4 36  1  0
  8 37  1  0
  8 38  1  0
  9 39  1  0
  9 40  1  0
 10 41  1  0
 10 42  1  0
 11 43  1  1
 13 44  1  0
 14 45  1  0
 17 46  1  0
 17 47  1  0
 22 48  1  0
 23 49  1  0
 25 50  1  0
 26 51  1  0
 28 52  1  0
 29 53  1  0
 30 54  1  0
 31 55  1  0
M  END
>  <smiles>  (65) 
O=C(NCC(=O)N1CCCC1c1ccc(OCC(F)(F)F)cc1)c1ccc2ccccc2n1

>  <score_type>  (65) 
oracle

>  <origin>  (65) 
autodockgpu

>  <m_score__min__energy>  (65) 
-8

>  <m_primary>  (65) 
energy

>  <rmsd>  (65) 
1.4786423769534078

>  <m_score__min__rmsd>  (65) 
1.4786423769534078

>  <meeko>  (65) 
{"free_energy": -7.28, "intermolecular_energy": -9.67, "internal_energy": -1.63, "cluster_size": 2, "cluster_id": 4, "rank_in_cluster": 2}

>  <energy>  (65) 
-7.38

>  <cluster_rmsd>  (65) 
1.37

>  <cluster>  (65) 
2

$$$$

     RDKit          3D

 55 58  0  0  0  0  0  0  0  0999 V2000
  141.5380   72.2400  221.9690 O   0  0  0  0  0  0  0  0  0  0  0  0
  140.4840   72.2520  222.6910 C   0  0  0  0  0  0  0  0  0  0  0  0
  139.5890   73.3210  222.5050 N   0  0  0  0  0  0  0  0  0  0  0  0
  139.8960   74.3400  221.5220 C   0  0  0  0  0  0  0  0  0  0  0  0
  139.3580   75.6640  221.9130 C   0  0  0  0  0  0  0  0  0  0  0  0
  138.2870   75.7510  222.5670 O   0  0  0  0  0  0  0  0  0  0  0  0
  140.0090   76.8730  221.5770 N   0  0  0  0  0  0  0  0  0  0  0  0
  140.1910   77.4830  220.2500 C   0  0  0  0  0  0  0  0  0  0  0  0
  141.6890   77.8290  220.3040 C   0  0  0  0  0  0  0  0  0  0  0  0
  141.8060   78.4260  221.6780 C   0  0  0  0  0  0  0  0  0  0  0  0
  140.6820   77.8380  222.4630 C   0  0  1  0  0  0  0  0  0  0  0  0
  139.7440   78.9270  222.8520 C   0  0  0  0  0  0  0  0  0  0  0  0
  138.3960   78.6470  222.8510 C   0  0  0  0  0  0  0  0  0  0  0  0
  137.4890   79.6050  223.2240 C   0  0  0  0  0  0  0  0  0  0  0  0
  137.8900   80.9000  223.6180 C   0  0  0  0  0  0  0  0  0  0  0  0
  136.9130   81.7490  223.9590 O   0  0  0  0  0  0  0  0  0  0  0  0
  136.5860   82.6080  224.9510 C   0  0  0  0  0  0  0  0  0  0  0  0
  136.5100   82.1310  226.3580 C   0  0  0  0  0  0  0  0  0  0  0  0
  135.2650   81.8830  226.8550 F   0  0  0  0  0  0  0  0  0  0  0  0
  137.2560   82.9470  227.2000 F   0  0  0  0  0  0  0  0  0  0  0  0
  137.1780   80.8930  226.3990 F   0  0  0  0  0  0  0  0  0  0  0  0
  139.2430   81.1190  223.5980 C   0  0  0  0  0  0  0  0  0  0  0  0
  140.1780   80.1770  223.2290 C   0  0  0  0  0  0  0  0  0  0  0  0
  140.2480   71.1880  223.6590 C   0  0  0  0  0  0  0  0  0  0  0  0
  139.4880   70.0970  223.2940 C   0  0  0  0  0  0  0  0  0  0  0  0
  139.2180   69.0460  224.1520 C   0  0  0  0  0  0  0  0  0  0  0  0
  139.7580   69.1320  225.4360 C   0  0  0  0  0  0  0  0  0  0  0  0
  139.4940   68.0920  226.2960 C   0  0  0  0  0  0  0  0  0  0  0  0
  140.0230   68.1610  227.5720 C   0  0  0  0  0  0  0  0  0  0  0  0
  140.8000   69.2510  227.9790 C   0  0  0  0  0  0  0  0  0  0  0  0
  141.0420   70.2830  227.0730 C   0  0  0  0  0  0  0  0  0  0  0  0
  140.5170   70.2220  225.7960 C   0  0  0  0  0  0  0  0  0  0  0  0
  140.7430   71.2110  224.9130 N   0  0  0  0  0  0  0  0  0  0  0  0
  138.7030   73.3760  223.0780 H   0  0  0  0  0  0  0  0  0  0  0  0
  140.9884   74.4165  221.4182 H   0  0  0  0  0  0  0  0  0  0  0  0
  139.4269   74.0486  220.5707 H   0  0  0  0  0  0  0  0  0  0  0  0
  139.9674   76.7712  219.4417 H   0  0  0  0  0  0  0  0  0  0  0  0
  139.5301   78.3378  220.0437 H   0  0  0  0  0  0  0  0  0  0  0  0
  142.3137   76.9294  220.2017 H   0  0  0  0  0  0  0  0  0  0  0  0
  142.0266   78.4933  219.4948 H   0  0  0  0  0  0  0  0  0  0  0  0
  142.7723   78.1608  222.1317 H   0  0  0  0  0  0  0  0  0  0  0  0
  141.7559   79.5246  221.6521 H   0  0  0  0  0  0  0  0  0  0  0  0
  141.0344   77.3409  223.3788 H   0  0  0  0  0  0  0  0  0  0  0  0
  138.0448   77.6492  222.5493 H   0  0  0  0  0  0  0  0  0  0  0  0
  136.4173   79.3573  223.2161 H   0  0  0  0  0  0  0  0  0  0  0  0
  137.3330   83.4152  224.9301 H   0  0  0  0  0  0  0  0  0  0  0  0
  135.5441   82.8740  224.7195 H   0  0  0  0  0  0  0  0  0  0  0  0
  139.6064   82.1134  223.8966 H   0  0  0  0  0  0  0  0  0  0  0  0
  141.2509   80.4195  223.2356 H   0  0  0  0  0  0  0  0  0  0  0  0
  139.0777   70.0607  222.2741 H   0  0  0  0  0  0  0  0  0  0  0  0
  138.6084   68.1859  223.8380 H   0  0  0  0  0  0  0  0  0  0  0  0
  138.8826   67.2340  225.9797 H   0  0  0  0  0  0  0  0  0  0  0  0
  139.8290   67.3426  228.2810 H   0  0  0  0  0  0  0  0  0  0  0  0
  141.2134   69.2932  228.9975 H   0  0  0  0  0  0  0  0  0  0  0  0
  141.6518   71.1472  227.3752 H   0  0  0  0  0  0  0  0  0  0  0  0
  1  2  2  0
  2  3  1  0
  3  4  1  0
  4  5  1  0
  5  6  2  0
  5  7  1  0
  7  8  1  0
  8  9  1  0
  9 10  1  0
 10 11  1  0
 11 12  1  0
 12 13  2  0
 13 14  1  0
 14 15  2  0
 15 16  1  0
 16 17  1  0
 17 18  1  0
 18 19  1  0
 18 20  1  0
 18 21  1  0
 15 22  1  0
 22 23  2  0
  2 24  1  0
 24 25  2  0
 25 26  1  0
 26 27  2  0
 27 28  1  0
 28 29  2  0
 29 30  1  0
 30 31  2  0
 31 32  1  0
 32 33  2  0
 11  7  1  0
 23 12  1  0
 33 24  1  0
 32 27  1  0
  3 34  1  0
  4 35  1  0
  4 36  1  0
  8 37  1  0
  8 38  1  0
  9 39  1  0
  9 40  1  0
 10 41  1  0
 10 42  1  0
 11 43  1  1
 13 44  1  0
 14 45  1  0
 17 46  1  0
 17 47  1  0
 22 48  1  0
 23 49  1  0
 25 50  1  0
 26 51  1  0
 28 52  1  0
 29 53  1  0
 30 54  1  0
 31 55  1  0
M  END
>  <smiles>  (66) 
O=C(NCC(=O)N1CCCC1c1ccc(OCC(F)(F)F)cc1)c1ccc2ccccc2n1

>  <score_type>  (66) 
oracle

>  <origin>  (66) 
autodockgpu

>  <m_score__min__energy>  (66) 
-8

>  <m_primary>  (66) 
energy

>  <rmsd>  (66) 
2.4086584864000034

>  <m_score__min__rmsd>  (66) 
2.4086584864000034

>  <meeko>  (66) 
{"free_energy": -7.7, "intermolecular_energy": -10.09, "internal_energy": -1.58, "cluster_size": 9, "cluster_id": 1, "rank_in_cluster": 4}

>  <energy>  (66) 
-7.36

>  <cluster_rmsd>  (66) 
1.51

>  <cluster>  (66) 
2

$$$$

     RDKit          3D

 55 58  0  0  0  0  0  0  0  0999 V2000
  141.5080   72.0470  222.0250 O   0  0  0  0  0  0  0  0  0  0  0  0
  140.4700   72.1140  222.7670 C   0  0  0  0  0  0  0  0  0  0  0  0
  139.5580   73.1520  222.5050 N   0  0  0  0  0  0  0  0  0  0  0  0
  139.8300   74.0800  221.4260 C   0  0  0  0  0  0  0  0  0  0  0  0
  139.2820   75.4280  221.7060 C   0  0  0  0  0  0  0  0  0  0  0  0
  138.2150   75.5610  222.3600 O   0  0  0  0  0  0  0  0  0  0  0  0
  139.9180   76.6090  221.2610 N   0  0  0  0  0  0  0  0  0  0  0  0
  139.7650   77.3080  219.9740 C   0  0  0  0  0  0  0  0  0  0  0  0
  141.2410   77.5390  219.6060 C   0  0  0  0  0  0  0  0  0  0  0  0
  141.8030   78.0150  220.9150 C   0  0  0  0  0  0  0  0  0  0  0  0
  140.9030   77.4500  221.9620 C   0  0  1  0  0  0  0  0  0  0  0  0
  140.2210   78.5690  222.6680 C   0  0  0  0  0  0  0  0  0  0  0  0
  138.8570   78.4900  222.8350 C   0  0  0  0  0  0  0  0  0  0  0  0
  138.1810   79.4810  223.4990 C   0  0  0  0  0  0  0  0  0  0  0  0
  138.8420   80.6080  224.0320 C   0  0  0  0  0  0  0  0  0  0  0  0
  138.0760   81.5100  224.6580 O   0  0  0  0  0  0  0  0  0  0  0  0
  136.9400   81.5750  225.3870 C   0  0  0  0  0  0  0  0  0  0  0  0
  136.5040   82.8690  225.9790 C   0  0  0  0  0  0  0  0  0  0  0  0
  136.6000   83.9710  225.1830 F   0  0  0  0  0  0  0  0  0  0  0  0
  137.0910   83.0690  227.2230 F   0  0  0  0  0  0  0  0  0  0  0  0
  135.1320   82.7380  226.2640 F   0  0  0  0  0  0  0  0  0  0  0  0
  140.2000   80.6320  223.8350 C   0  0  0  0  0  0  0  0  0  0  0  0
  140.9050   79.6510  223.1730 C   0  0  0  0  0  0  0  0  0  0  0  0
  140.2690   71.1400  223.8330 C   0  0  0  0  0  0  0  0  0  0  0  0
  139.5720   69.9800  223.5680 C   0  0  0  0  0  0  0  0  0  0  0  0
  139.3380   69.0070  224.5230 C   0  0  0  0  0  0  0  0  0  0  0  0
  139.8470   69.2480  225.8000 C   0  0  0  0  0  0  0  0  0  0  0  0
  139.6190   68.2860  226.7560 C   0  0  0  0  0  0  0  0  0  0  0  0
  140.1180   68.5090  228.0270 C   0  0  0  0  0  0  0  0  0  0  0  0
  140.8300   69.6740  228.3340 C   0  0  0  0  0  0  0  0  0  0  0  0
  141.0380   70.6230  227.3330 C   0  0  0  0  0  0  0  0  0  0  0  0
  140.5430   70.4070  226.0600 C   0  0  0  0  0  0  0  0  0  0  0  0
  140.7360   71.3140  225.0870 N   0  0  0  0  0  0  0  0  0  0  0  0
  138.6840   73.2500  223.0920 H   0  0  0  0  0  0  0  0  0  0  0  0
  140.9188   74.1596  221.2912 H   0  0  0  0  0  0  0  0  0  0  0  0
  139.3450   73.6968  220.5161 H   0  0  0  0  0  0  0  0  0  0  0  0
  139.2537   76.6807  219.2290 H   0  0  0  0  0  0  0  0  0  0  0  0
  139.1540   78.2217  220.0174 H   0  0  0  0  0  0  0  0  0  0  0  0
  141.7238   76.6073  219.2761 H   0  0  0  0  0  0  0  0  0  0  0  0
  141.3916   78.2394  218.7712 H   0  0  0  0  0  0  0  0  0  0  0  0
  142.8301   77.6451  221.0500 H   0  0  0  0  0  0  0  0  0  0  0  0
  141.8495   79.1129  220.9649 H   0  0  0  0  0  0  0  0  0  0  0  0
  141.4568   76.8585  222.7059 H   0  0  0  0  0  0  0  0  0  0  0  0
  138.3061   77.6268  222.4334 H   0  0  0  0  0  0  0  0  0  0  0  0
  137.0910   79.3950  223.6198 H   0  0  0  0  0  0  0  0  0  0  0  0
  136.1238   81.2352  224.7325 H   0  0  0  0  0  0  0  0  0  0  0  0
  137.1728   80.9611  226.2696 H   0  0  0  0  0  0  0  0  0  0  0  0
  140.7620   81.4904  224.2315 H   0  0  0  0  0  0  0  0  0  0  0  0
  141.9952   79.7311  223.0503 H   0  0  0  0  0  0  0  0  0  0  0  0
  139.1845   69.8212  222.5508 H   0  0  0  0  0  0  0  0  0  0  0  0
  138.7788   68.0894  224.2878 H   0  0  0  0  0  0  0  0  0  0  0  0
  139.0586   67.3698  226.5181 H   0  0  0  0  0  0  0  0  0  0  0  0
  139.9518   67.7560  228.8114 H   0  0  0  0  0  0  0  0  0  0  0  0
  141.2198   69.8389  229.3493 H   0  0  0  0  0  0  0  0  0  0  0  0
  141.5963   71.5441  227.5565 H   0  0  0  0  0  0  0  0  0  0  0  0
  1  2  2  0
  2  3  1  0
  3  4  1  0
  4  5  1  0
  5  6  2  0
  5  7  1  0
  7  8  1  0
  8  9  1  0
  9 10  1  0
 10 11  1  0
 11 12  1  0
 12 13  2  0
 13 14  1  0
 14 15  2  0
 15 16  1  0
 16 17  1  0
 17 18  1  0
 18 19  1  0
 18 20  1  0
 18 21  1  0
 15 22  1  0
 22 23  2  0
  2 24  1  0
 24 25  2  0
 25 26  1  0
 26 27  2  0
 27 28  1  0
 28 29  2  0
 29 30  1  0
 30 31  2  0
 31 32  1  0
 32 33  2  0
 11  7  1  0
 23 12  1  0
 33 24  1  0
 32 27  1  0
  3 34  1  0
  4 35  1  0
  4 36  1  0
  8 37  1  0
  8 38  1  0
  9 39  1  0
  9 40  1  0
 10 41  1  0
 10 42  1  0
 11 43  1  1
 13 44  1  0
 14 45  1  0
 17 46  1  0
 17 47  1  0
 22 48  1  0
 23 49  1  0
 25 50  1  0
 26 51  1  0
 28 52  1  0
 29 53  1  0
 30 54  1  0
 31 55  1  0
M  END
>  <smiles>  (67) 
O=C(NCC(=O)N1CCCC1c1ccc(OCC(F)(F)F)cc1)c1ccc2ccccc2n1

>  <score_type>  (67) 
oracle

>  <origin>  (67) 
autodockgpu

>  <m_score__min__energy>  (67) 
-8

>  <m_primary>  (67) 
energy

>  <rmsd>  (67) 
2.052698916797423

>  <m_score__min__rmsd>  (67) 
2.052698916797423

>  <meeko>  (67) 
{"free_energy": -7.91, "intermolecular_energy": -10.29, "internal_energy": -1.5, "cluster_size": 9, "cluster_id": 1, "rank_in_cluster": 2}

>  <energy>  (67) 
-7.22

>  <cluster_rmsd>  (67) 
1.52

>  <cluster>  (67) 
2

$$$$

     RDKit          3D

 55 58  0  0  0  0  0  0  0  0999 V2000
  140.6840   73.3280  222.2380 O   0  0  0  0  0  0  0  0  0  0  0  0
  140.6790   72.0540  222.3350 C   0  0  0  0  0  0  0  0  0  0  0  0
  141.0060   71.3190  221.1820 N   0  0  0  0  0  0  0  0  0  0  0  0
  141.3300   72.0250  219.9590 C   0  0  0  0  0  0  0  0  0  0  0  0
  142.7070   71.7290  219.4980 C   0  0  0  0  0  0  0  0  0  0  0  0
  142.9800   70.6200  218.9710 O   0  0  0  0  0  0  0  0  0  0  0  0
  143.7620   72.6610  219.6270 N   0  0  0  0  0  0  0  0  0  0  0  0
  145.1430   72.5620  219.1270 C   0  0  0  0  0  0  0  0  0  0  0  0
  145.9250   72.9790  220.3850 C   0  0  0  0  0  0  0  0  0  0  0  0
  145.1350   74.1710  220.8440 C   0  0  0  0  0  0  0  0  0  0  0  0
  143.7620   73.9720  220.2970 C   0  0  1  0  0  0  0  0  0  0  0  0
  143.4700   75.0550  219.3180 C   0  0  0  0  0  0  0  0  0  0  0  0
  143.2020   76.3120  219.8100 C   0  0  0  0  0  0  0  0  0  0  0  0
  142.9500   77.3530  218.9540 C   0  0  0  0  0  0  0  0  0  0  0  0
  142.9540   77.1840  217.5520 C   0  0  0  0  0  0  0  0  0  0  0  0
  142.6930   78.2730  216.8180 O   0  0  0  0  0  0  0  0  0  0  0  0
  141.8360   79.3180  216.7850 C   0  0  0  0  0  0  0  0  0  0  0  0
  142.1340   80.5550  217.5540 C   0  0  0  0  0  0  0  0  0  0  0  0
  142.5570   81.6350  216.8380 F   0  0  0  0  0  0  0  0  0  0  0  0
  142.9690   80.2820  218.6310 F   0  0  0  0  0  0  0  0  0  0  0  0
  140.9250   80.9590  218.1500 F   0  0  0  0  0  0  0  0  0  0  0  0
  143.2270   75.9100  217.1220 C   0  0  0  0  0  0  0  0  0  0  0  0
  143.4840   74.8460  217.9590 C   0  0  0  0  0  0  0  0  0  0  0  0
  140.3420   71.4180  223.6040 C   0  0  0  0  0  0  0  0  0  0  0  0
  139.5570   70.2850  223.6060 C   0  0  0  0  0  0  0  0  0  0  0  0
  139.1930   69.6230  224.7640 C   0  0  0  0  0  0  0  0  0  0  0  0
  139.6620   70.1590  225.9650 C   0  0  0  0  0  0  0  0  0  0  0  0
  139.3050   69.5080  227.1230 C   0  0  0  0  0  0  0  0  0  0  0  0
  139.7620   70.0260  228.3210 C   0  0  0  0  0  0  0  0  0  0  0  0
  140.5600   71.1740  228.3590 C   0  0  0  0  0  0  0  0  0  0  0  0
  140.8980   71.8020  227.1600 C   0  0  0  0  0  0  0  0  0  0  0  0
  140.4450   71.2900  225.9580 C   0  0  0  0  0  0  0  0  0  0  0  0
  140.7640   71.8860  224.7960 N   0  0  0  0  0  0  0  0  0  0  0  0
  141.0150   70.2620  221.2110 H   0  0  0  0  0  0  0  0  0  0  0  0
  140.6199   71.7227  219.1752 H   0  0  0  0  0  0  0  0  0  0  0  0
  141.2627   73.1043  220.1605 H   0  0  0  0  0  0  0  0  0  0  0  0
  145.3902   71.5362  218.8162 H   0  0  0  0  0  0  0  0  0  0  0  0
  145.3526   73.1689  218.2338 H   0  0  0  0  0  0  0  0  0  0  0  0
  145.9249   72.1807  221.1418 H   0  0  0  0  0  0  0  0  0  0  0  0
  146.9896   73.1880  220.2038 H   0  0  0  0  0  0  0  0  0  0  0  0
  145.1087   74.2151  221.9428 H   0  0  0  0  0  0  0  0  0  0  0  0
  145.5804   75.1149  220.4966 H   0  0  0  0  0  0  0  0  0  0  0  0
  142.9958   74.0033  221.0857 H   0  0  0  0  0  0  0  0  0  0  0  0
  143.1899   76.4826  220.8966 H   0  0  0  0  0  0  0  0  0  0  0  0
  142.7386   78.3485  219.3714 H   0  0  0  0  0  0  0  0  0  0  0  0
  141.7410   79.6161  215.7305 H   0  0  0  0  0  0  0  0  0  0  0  0
  140.9395   78.9224  217.2848 H   0  0  0  0  0  0  0  0  0  0  0  0
  143.2417   75.7259  216.0376 H   0  0  0  0  0  0  0  0  0  0  0  0
  143.6964   73.8481  217.5477 H   0  0  0  0  0  0  0  0  0  0  0  0
  139.2040   69.8894  222.6422 H   0  0  0  0  0  0  0  0  0  0  0  0
  138.5656   68.7198  224.7403 H   0  0  0  0  0  0  0  0  0  0  0  0
  138.6768   68.6054  227.0969 H   0  0  0  0  0  0  0  0  0  0  0  0
  139.4926   69.5253  229.2626 H   0  0  0  0  0  0  0  0  0  0  0  0
  140.9156   71.5755  229.3194 H   0  0  0  0  0  0  0  0  0  0  0  0
  141.5255   72.7054  227.1708 H   0  0  0  0  0  0  0  0  0  0  0  0
  1  2  2  0
  2  3  1  0
  3  4  1  0
  4  5  1  0
  5  6  2  0
  5  7  1  0
  7  8  1  0
  8  9  1  0
  9 10  1  0
 10 11  1  0
 11 12  1  0
 12 13  2  0
 13 14  1  0
 14 15  2  0
 15 16  1  0
 16 17  1  0
 17 18  1  0
 18 19  1  0
 18 20  1  0
 18 21  1  0
 15 22  1  0
 22 23  2  0
  2 24  1  0
 24 25  2  0
 25 26  1  0
 26 27  2  0
 27 28  1  0
 28 29  2  0
 29 30  1  0
 30 31  2  0
 31 32  1  0
 32 33  2  0
 11  7  1  0
 23 12  1  0
 33 24  1  0
 32 27  1  0
  3 34  1  0
  4 35  1  0
  4 36  1  0
  8 37  1  0
  8 38  1  0
  9 39  1  0
  9 40  1  0
 10 41  1  0
 10 42  1  0
 11 43  1  1
 13 44  1  0
 14 45  1  0
 17 46  1  0
 17 47  1  0
 22 48  1  0
 23 49  1  0
 25 50  1  0
 26 51  1  0
 28 52  1  0
 29 53  1  0
 30 54  1  0
 31 55  1  0
M  END
>  <smiles>  (68) 
O=C(NCC(=O)N1CCCC1c1ccc(OCC(F)(F)F)cc1)c1ccc2ccccc2n1

>  <score_type>  (68) 
oracle

>  <origin>  (68) 
autodockgpu

>  <m_score__min__energy>  (68) 
-8

>  <m_primary>  (68) 
energy

>  <rmsd>  (68) 
4.018373176564853

>  <m_score__min__rmsd>  (68) 
4.018373176564853

>  <meeko>  (68) 
{"free_energy": -7.36, "intermolecular_energy": -9.75, "internal_energy": -1.47, "cluster_size": 1, "cluster_id": 5, "rank_in_cluster": 1}

>  <energy>  (68) 
-7.07

>  <cluster_rmsd>  (68) 
1.77

>  <cluster>  (68) 
2

$$$$

     RDKit          3D

 55 58  0  0  0  0  0  0  0  0999 V2000
  137.7660   69.8600  222.0540 O   0  0  0  0  0  0  0  0  0  0  0  0
  137.8850   70.6550  223.0470 C   0  0  0  0  0  0  0  0  0  0  0  0
  137.2630   71.9120  222.9430 N   0  0  0  0  0  0  0  0  0  0  0  0
  136.5280   72.2430  221.7390 C   0  0  0  0  0  0  0  0  0  0  0  0
  137.2610   73.2150  220.8950 C   0  0  0  0  0  0  0  0  0  0  0  0
  136.6370   73.9910  220.1250 O   0  0  0  0  0  0  0  0  0  0  0  0
  138.6710   73.3170  220.9110 N   0  0  0  0  0  0  0  0  0  0  0  0
  139.6260   73.0520  219.8230 C   0  0  0  0  0  0  0  0  0  0  0  0
  140.6570   72.1810  220.5620 C   0  0  0  0  0  0  0  0  0  0  0  0
  140.8250   72.9430  221.8450 C   0  0  0  0  0  0  0  0  0  0  0  0
  139.5570   73.7100  222.0200 C   0  0  1  0  0  0  0  0  0  0  0  0
  139.8600   75.1670  221.9510 C   0  0  0  0  0  0  0  0  0  0  0  0
  141.1080   75.5440  221.5120 C   0  0  0  0  0  0  0  0  0  0  0  0
  141.4330   76.8720  221.4050 C   0  0  0  0  0  0  0  0  0  0  0  0
  140.5170   77.8940  221.7360 C   0  0  0  0  0  0  0  0  0  0  0  0
  140.9490   79.1530  221.5930 O   0  0  0  0  0  0  0  0  0  0  0  0
  141.9530   79.9570  222.0090 C   0  0  0  0  0  0  0  0  0  0  0  0
  142.1990   80.1570  223.4620 C   0  0  0  0  0  0  0  0  0  0  0  0
  143.4260   80.6340  223.8160 F   0  0  0  0  0  0  0  0  0  0  0  0
  141.8490   79.0240  224.1860 F   0  0  0  0  0  0  0  0  0  0  0  0
  141.2840   81.1360  223.8920 F   0  0  0  0  0  0  0  0  0  0  0  0
  139.2910   77.4560  222.1670 C   0  0  0  0  0  0  0  0  0  0  0  0
  138.9360   76.1300  222.2830 C   0  0  0  0  0  0  0  0  0  0  0  0
  138.6410   70.2460  224.2250 C   0  0  0  0  0  0  0  0  0  0  0  0
  138.7530   68.9060  224.5260 C   0  0  0  0  0  0  0  0  0  0  0  0
  139.4530   68.4360  225.6230 C   0  0  0  0  0  0  0  0  0  0  0  0
  140.0570   69.3950  226.4380 C   0  0  0  0  0  0  0  0  0  0  0  0
  140.7540   68.9370  227.5310 C   0  0  0  0  0  0  0  0  0  0  0  0
  141.3590   69.8740  228.3490 C   0  0  0  0  0  0  0  0  0  0  0  0
  141.2670   71.2440  228.0760 C   0  0  0  0  0  0  0  0  0  0  0  0
  140.5500   71.6630  226.9550 C   0  0  0  0  0  0  0  0  0  0  0  0
  139.9420   70.7320  226.1330 C   0  0  0  0  0  0  0  0  0  0  0  0
  139.2480   71.1230  225.0510 N   0  0  0  0  0  0  0  0  0  0  0  0
  137.3320   72.6050  223.7380 H   0  0  0  0  0  0  0  0  0  0  0  0
  136.3617   71.3230  221.1594 H   0  0  0  0  0  0  0  0  0  0  0  0
  135.5735   72.7014  222.0370 H   0  0  0  0  0  0  0  0  0  0  0  0
  139.1543   72.5066  218.9923 H   0  0  0  0  0  0  0  0  0  0  0  0
  140.0425   73.9529  219.3486 H   0  0  0  0  0  0  0  0  0  0  0  0
  140.2704   71.1674  220.7439 H   0  0  0  0  0  0  0  0  0  0  0  0
  141.5935   72.0245  220.0065 H   0  0  0  0  0  0  0  0  0  0  0  0
  140.9753   72.2509  222.6867 H   0  0  0  0  0  0  0  0  0  0  0  0
  141.7027   73.6054  221.8152 H   0  0  0  0  0  0  0  0  0  0  0  0
  139.0797   73.5016  222.9889 H   0  0  0  0  0  0  0  0  0  0  0  0
  141.8492   74.7762  221.2454 H   0  0  0  0  0  0  0  0  0  0  0  0
  142.4369   77.1491  221.0509 H   0  0  0  0  0  0  0  0  0  0  0  0
  142.8819   79.5490  221.5840 H   0  0  0  0  0  0  0  0  0  0  0  0
  141.6328   80.9532  221.6699 H   0  0  0  0  0  0  0  0  0  0  0  0
  138.5412   78.2139  222.4381 H   0  0  0  0  0  0  0  0  0  0  0  0
  137.9328   75.8469  222.6344 H   0  0  0  0  0  0  0  0  0  0  0  0
  138.2635   68.1766  223.8639 H   0  0  0  0  0  0  0  0  0  0  0  0
  139.5297   67.3607  225.8419 H   0  0  0  0  0  0  0  0  0  0  0  0
  140.8280   67.8611  227.7478 H   0  0  0  0  0  0  0  0  0  0  0  0
  141.9232   69.5363  229.2308 H   0  0  0  0  0  0  0  0  0  0  0  0
  141.7525   71.9787  228.7352 H   0  0  0  0  0  0  0  0  0  0  0  0
  140.4682   72.7355  226.7247 H   0  0  0  0  0  0  0  0  0  0  0  0
  1  2  2  0
  2  3  1  0
  3  4  1  0
  4  5  1  0
  5  6  2  0
  5  7  1  0
  7  8  1  0
  8  9  1  0
  9 10  1  0
 10 11  1  0
 11 12  1  0
 12 13  2  0
 13 14  1  0
 14 15  2  0
 15 16  1  0
 16 17  1  0
 17 18  1  0
 18 19  1  0
 18 20  1  0
 18 21  1  0
 15 22  1  0
 22 23  2  0
  2 24  1  0
 24 25  2  0
 25 26  1  0
 26 27  2  0
 27 28  1  0
 28 29  2  0
 29 30  1  0
 30 31  2  0
 31 32  1  0
 32 33  2  0
 11  7  1  0
 23 12  1  0
 33 24  1  0
 32 27  1  0
  3 34  1  0
  4 35  1  0
  4 36  1  0
  8 37  1  0
  8 38  1  0
  9 39  1  0
  9 40  1  0
 10 41  1  0
 10 42  1  0
 11 43  1  1
 13 44  1  0
 14 45  1  0
 17 46  1  0
 17 47  1  0
 22 48  1  0
 23 49  1  0
 25 50  1  0
 26 51  1  0
 28 52  1  0
 29 53  1  0
 30 54  1  0
 31 55  1  0
M  END
>  <smiles>  (69) 
O=C(NCC(=O)N1CCCC1c1ccc(OCC(F)(F)F)cc1)c1ccc2ccccc2n1

>  <score_type>  (69) 
oracle

>  <origin>  (69) 
autodockgpu

>  <m_score__min__energy>  (69) 
-8

>  <m_primary>  (69) 
energy

>  <rmsd>  (69) 
2.960648714497294

>  <m_score__min__rmsd>  (69) 
2.960648714497294

>  <meeko>  (69) 
{"free_energy": -7.03, "intermolecular_energy": -9.42, "internal_energy": -2.13, "cluster_size": 6, "cluster_id": 6, "rank_in_cluster": 5}

>  <energy>  (69) 
-7.01

>  <cluster_rmsd>  (69) 
1.93

>  <cluster>  (69) 
2

$$$$

     RDKit          3D

 55 58  0  0  0  0  0  0  0  0999 V2000
  138.4500   70.2170  221.7070 O   0  0  0  0  0  0  0  0  0  0  0  0
  138.3010   70.9220  222.7630 C   0  0  0  0  0  0  0  0  0  0  0  0
  137.5100   72.0790  222.6580 N   0  0  0  0  0  0  0  0  0  0  0  0
  136.9090   72.4160  221.3820 C   0  0  0  0  0  0  0  0  0  0  0  0
  137.4170   73.7040  220.8560 C   0  0  0  0  0  0  0  0  0  0  0  0
  136.6220   74.5650  220.3980 O   0  0  0  0  0  0  0  0  0  0  0  0
  138.7940   74.0230  220.8400 N   0  0  0  0  0  0  0  0  0  0  0  0
  139.6880   74.1900  219.6830 C   0  0  0  0  0  0  0  0  0  0  0  0
  140.8890   73.3410  220.1320 C   0  0  0  0  0  0  0  0  0  0  0  0
  141.0470   73.7810  221.5600 C   0  0  0  0  0  0  0  0  0  0  0  0
  139.6990   74.2680  221.9760 C   0  0  1  0  0  0  0  0  0  0  0  0
  139.7820   75.7250  222.2700 C   0  0  0  0  0  0  0  0  0  0  0  0
  138.6060   76.4050  222.4920 C   0  0  0  0  0  0  0  0  0  0  0  0
  138.6250   77.7430  222.7910 C   0  0  0  0  0  0  0  0  0  0  0  0
  139.8310   78.4710  222.8820 C   0  0  0  0  0  0  0  0  0  0  0  0
  139.7220   79.7720  223.1780 O   0  0  0  0  0  0  0  0  0  0  0  0
  140.1920   80.9700  222.7670 C   0  0  0  0  0  0  0  0  0  0  0  0
  141.6440   81.1540  222.5030 C   0  0  0  0  0  0  0  0  0  0  0  0
  142.2290   80.2690  221.6470 F   0  0  0  0  0  0  0  0  0  0  0  0
  142.3540   81.2790  223.6910 F   0  0  0  0  0  0  0  0  0  0  0  0
  141.7850   82.4110  221.8860 F   0  0  0  0  0  0  0  0  0  0  0  0
  140.9680   77.7400  222.6500 C   0  0  0  0  0  0  0  0  0  0  0  0
  140.9800   76.3960  222.3490 C   0  0  0  0  0  0  0  0  0  0  0  0
  138.9390   70.5150  224.0090 C   0  0  0  0  0  0  0  0  0  0  0  0
  138.9460   69.1820  224.3620 C   0  0  0  0  0  0  0  0  0  0  0  0
  139.5290   68.7140  225.5260 C   0  0  0  0  0  0  0  0  0  0  0  0
  140.1270   69.6670  226.3530 C   0  0  0  0  0  0  0  0  0  0  0  0
  140.7090   69.2110  227.5120 C   0  0  0  0  0  0  0  0  0  0  0  0
  141.3070   70.1420  228.3430 C   0  0  0  0  0  0  0  0  0  0  0  0
  141.3190   71.5030  228.0190 C   0  0  0  0  0  0  0  0  0  0  0  0
  140.7170   71.9200  226.8320 C   0  0  0  0  0  0  0  0  0  0  0  0
  140.1180   70.9960  225.9960 C   0  0  0  0  0  0  0  0  0  0  0  0
  139.5330   71.3850  224.8500 N   0  0  0  0  0  0  0  0  0  0  0  0
  137.3570   72.6960  223.5030 H   0  0  0  0  0  0  0  0  0  0  0  0
  137.1403   71.6203  220.6586 H   0  0  0  0  0  0  0  0  0  0  0  0
  135.8234   72.5127  221.5311 H   0  0  0  0  0  0  0  0  0  0  0  0
  139.2356   73.7976  218.7603 H   0  0  0  0  0  0  0  0  0  0  0  0
  139.9309   75.2346  219.4384 H   0  0  0  0  0  0  0  0  0  0  0  0
  140.6688   72.2654  220.0646 H   0  0  0  0  0  0  0  0  0  0  0  0
  141.7909   73.4778  219.5173 H   0  0  0  0  0  0  0  0  0  0  0  0
  141.3625   72.9365  222.1903 H   0  0  0  0  0  0  0  0  0  0  0  0
  141.8145   74.5620  221.6649 H   0  0  0  0  0  0  0  0  0  0  0  0
  139.3346   73.7539  222.8776 H   0  0  0  0  0  0  0  0  0  0  0  0
  137.6458   75.8721  222.4292 H   0  0  0  0  0  0  0  0  0  0  0  0
  137.6723   78.2646  222.9651 H   0  0  0  0  0  0  0  0  0  0  0  0
  139.6671   81.2117  221.8310 H   0  0  0  0  0  0  0  0  0  0  0  0
  140.0108   81.6212  223.6348 H   0  0  0  0  0  0  0  0  0  0  0  0
  141.9346   78.2618  222.7082 H   0  0  0  0  0  0  0  0  0  0  0  0
  141.9298   75.8692  222.1751 H   0  0  0  0  0  0  0  0  0  0  0  0
  138.4661   68.4578  223.6873 H   0  0  0  0  0  0  0  0  0  0  0  0
  139.5219   67.6454  225.7868 H   0  0  0  0  0  0  0  0  0  0  0  0
  140.6996   68.1418  227.7702 H   0  0  0  0  0  0  0  0  0  0  0  0
  141.7821   69.8055  229.2763 H   0  0  0  0  0  0  0  0  0  0  0  0
  141.7958   72.2328  228.6899 H   0  0  0  0  0  0  0  0  0  0  0  0
  140.7188   72.9860  226.5605 H   0  0  0  0  0  0  0  0  0  0  0  0
  1  2  2  0
  2  3  1  0
  3  4  1  0
  4  5  1  0
  5  6  2  0
  5  7  1  0
  7  8  1  0
  8  9  1  0
  9 10  1  0
 10 11  1  0
 11 12  1  0
 12 13  2  0
 13 14  1  0
 14 15  2  0
 15 16  1  0
 16 17  1  0
 17 18  1  0
 18 19  1  0
 18 20  1  0
 18 21  1  0
 15 22  1  0
 22 23  2  0
  2 24  1  0
 24 25  2  0
 25 26  1  0
 26 27  2  0
 27 28  1  0
 28 29  2  0
 29 30  1  0
 30 31  2  0
 31 32  1  0
 32 33  2  0
 11  7  1  0
 23 12  1  0
 33 24  1  0
 32 27  1  0
  3 34  1  0
  4 35  1  0
  4 36  1  0
  8 37  1  0
  8 38  1  0
  9 39  1  0
  9 40  1  0
 10 41  1  0
 10 42  1  0
 11 43  1  1
 13 44  1  0
 14 45  1  0
 17 46  1  0
 17 47  1  0
 22 48  1  0
 23 49  1  0
 25 50  1  0
 26 51  1  0
 28 52  1  0
 29 53  1  0
 30 54  1  0
 31 55  1  0
M  END
>  <smiles>  (70) 
O=C(NCC(=O)N1CCCC1c1ccc(OCC(F)(F)F)cc1)c1ccc2ccccc2n1

>  <score_type>  (70) 
oracle

>  <origin>  (70) 
autodockgpu

>  <m_score__min__energy>  (70) 
-8

>  <m_primary>  (70) 
energy

>  <rmsd>  (70) 
2.5312381499761685

>  <m_score__min__rmsd>  (70) 
2.5312381499761685

>  <meeko>  (70) 
{"free_energy": -7.04, "intermolecular_energy": -9.42, "internal_energy": -1.99, "cluster_size": 6, "cluster_id": 6, "rank_in_cluster": 4}

>  <energy>  (70) 
-6.98

>  <cluster_rmsd>  (70) 
1.95

>  <cluster>  (70) 
2

$$$$

     RDKit          3D

 55 58  0  0  0  0  0  0  0  0999 V2000
  138.6520   70.6190  221.5220 O   0  0  0  0  0  0  0  0  0  0  0  0
  138.9190   71.3920  222.5040 C   0  0  0  0  0  0  0  0  0  0  0  0
  138.7870   72.7750  222.2870 N   0  0  0  0  0  0  0  0  0  0  0  0
  138.3630   73.2530  220.9860 C   0  0  0  0  0  0  0  0  0  0  0  0
  139.3250   72.8840  219.9220 C   0  0  0  0  0  0  0  0  0  0  0  0
  138.9680   72.1500  218.9640 O   0  0  0  0  0  0  0  0  0  0  0  0
  140.6660   73.3300  219.9290 N   0  0  0  0  0  0  0  0  0  0  0  0
  141.6240   73.3840  218.8130 C   0  0  0  0  0  0  0  0  0  0  0  0
  142.8580   72.7460  219.4730 C   0  0  0  0  0  0  0  0  0  0  0  0
  142.8730   73.4350  220.8070 C   0  0  0  0  0  0  0  0  0  0  0  0
  141.4610   73.8510  221.0530 C   0  0  1  0  0  0  0  0  0  0  0  0
  141.3960   75.3390  221.0900 C   0  0  0  0  0  0  0  0  0  0  0  0
  140.5040   75.9230  221.9600 C   0  0  0  0  0  0  0  0  0  0  0  0
  140.4190   77.2880  222.0520 C   0  0  0  0  0  0  0  0  0  0  0  0
  141.2280   78.1410  221.2720 C   0  0  0  0  0  0  0  0  0  0  0  0
  141.0540   79.4570  221.4490 O   0  0  0  0  0  0  0  0  0  0  0  0
  141.6150   80.4970  222.1040 C   0  0  0  0  0  0  0  0  0  0  0  0
  142.3300   80.2740  223.3890 C   0  0  0  0  0  0  0  0  0  0  0  0
  142.0130   79.1410  224.0790 F   0  0  0  0  0  0  0  0  0  0  0  0
  142.2760   81.4070  224.1920 F   0  0  0  0  0  0  0  0  0  0  0  0
  143.6950   80.1420  223.0720 F   0  0  0  0  0  0  0  0  0  0  0  0
  142.0970   77.5020  220.4240 C   0  0  0  0  0  0  0  0  0  0  0  0
  142.2050   76.1330  220.3110 C   0  0  0  0  0  0  0  0  0  0  0  0
  139.3410   70.8330  223.7830 C   0  0  0  0  0  0  0  0  0  0  0  0
  139.1920   69.4820  224.0120 C   0  0  0  0  0  0  0  0  0  0  0  0
  139.5670   68.8730  225.1970 C   0  0  0  0  0  0  0  0  0  0  0  0
  140.1160   69.7000  226.1790 C   0  0  0  0  0  0  0  0  0  0  0  0
  140.4910   69.1040  227.3600 C   0  0  0  0  0  0  0  0  0  0  0  0
  141.0370   69.9090  228.3430 C   0  0  0  0  0  0  0  0  0  0  0  0
  141.2030   71.2840  228.1470 C   0  0  0  0  0  0  0  0  0  0  0  0
  140.8090   71.8460  226.9330 C   0  0  0  0  0  0  0  0  0  0  0  0
  140.2620   71.0480  225.9450 C   0  0  0  0  0  0  0  0  0  0  0  0
  139.8780   71.5770  224.7700 N   0  0  0  0  0  0  0  0  0  0  0  0
  138.9970   73.4570  223.0680 H   0  0  0  0  0  0  0  0  0  0  0  0
  137.3832   72.8136  220.7476 H   0  0  0  0  0  0  0  0  0  0  0  0
  138.3055   74.3507  221.0281 H   0  0  0  0  0  0  0  0  0  0  0  0
  141.2759   72.7974  217.9501 H   0  0  0  0  0  0  0  0  0  0  0  0
  141.7926   74.3901  218.4014 H   0  0  0  0  0  0  0  0  0  0  0  0
  142.7373   71.6583  219.5838 H   0  0  0  0  0  0  0  0  0  0  0  0
  143.7871   72.8646  218.8962 H   0  0  0  0  0  0  0  0  0  0  0  0
  143.2136   72.7449  221.5930 H   0  0  0  0  0  0  0  0  0  0  0  0
  143.5605   74.2937  220.8167 H   0  0  0  0  0  0  0  0  0  0  0  0
  141.0777   73.4638  222.0086 H   0  0  0  0  0  0  0  0  0  0  0  0
  139.8558   75.2911  222.5849 H   0  0  0  0  0  0  0  0  0  0  0  0
  139.6985   77.7316  222.7550 H   0  0  0  0  0  0  0  0  0  0  0  0
  142.3400   80.9523  221.4132 H   0  0  0  0  0  0  0  0  0  0  0  0
  140.7468   81.1031  222.4022 H   0  0  0  0  0  0  0  0  0  0  0  0
  142.7500   78.1231  219.7933 H   0  0  0  0  0  0  0  0  0  0  0  0
  142.9247   75.6836  219.6110 H   0  0  0  0  0  0  0  0  0  0  0  0
  138.7553   68.8597  223.2170 H   0  0  0  0  0  0  0  0  0  0  0  0
  139.4390   67.7923  225.3571 H   0  0  0  0  0  0  0  0  0  0  0  0
  140.3611   68.0231  227.5176 H   0  0  0  0  0  0  0  0  0  0  0  0
  141.3469   69.4592  229.2978 H   0  0  0  0  0  0  0  0  0  0  0  0
  141.6377   71.9124  228.9383 H   0  0  0  0  0  0  0  0  0  0  0  0
  140.9335   72.9253  226.7612 H   0  0  0  0  0  0  0  0  0  0  0  0
  1  2  2  0
  2  3  1  0
  3  4  1  0
  4  5  1  0
  5  6  2  0
  5  7  1  0
  7  8  1  0
  8  9  1  0
  9 10  1  0
 10 11  1  0
 11 12  1  0
 12 13  2  0
 13 14  1  0
 14 15  2  0
 15 16  1  0
 16 17  1  0
 17 18  1  0
 18 19  1  0
 18 20  1  0
 18 21  1  0
 15 22  1  0
 22 23  2  0
  2 24  1  0
 24 25  2  0
 25 26  1  0
 26 27  2  0
 27 28  1  0
 28 29  2  0
 29 30  1  0
 30 31  2  0
 31 32  1  0
 32 33  2  0
 11  7  1  0
 23 12  1  0
 33 24  1  0
 32 27  1  0
  3 34  1  0
  4 35  1  0
  4 36  1  0
  8 37  1  0
  8 38  1  0
  9 39  1  0
  9 40  1  0
 10 41  1  0
 10 42  1  0
 11 43  1  1
 13 44  1  0
 14 45  1  0
 17 46  1  0
 17 47  1  0
 22 48  1  0
 23 49  1  0
 25 50  1  0
 26 51  1  0
 28 52  1  0
 29 53  1  0
 30 54  1  0
 31 55  1  0
M  END
>  <smiles>  (71) 
O=C(NCC(=O)N1CCCC1c1ccc(OCC(F)(F)F)cc1)c1ccc2ccccc2n1

>  <score_type>  (71) 
oracle

>  <origin>  (71) 
autodockgpu

>  <m_score__min__energy>  (71) 
-8

>  <m_primary>  (71) 
energy

>  <rmsd>  (71) 
2.5973926365577458

>  <m_score__min__rmsd>  (71) 
2.5973926365577458

>  <meeko>  (71) 
{"free_energy": -7.36, "intermolecular_energy": -9.75, "internal_energy": -1.87, "cluster_size": 11, "cluster_id": 2, "rank_in_cluster": 7}

>  <energy>  (71) 
-7.5

>  <cluster_rmsd>  (71) 
0.0

>  <cluster>  (71) 
3

$$$$

     RDKit          3D

 55 58  0  0  0  0  0  0  0  0999 V2000
  138.4760   70.2720  221.5760 O   0  0  0  0  0  0  0  0  0  0  0  0
  138.5960   71.0880  222.5520 C   0  0  0  0  0  0  0  0  0  0  0  0
  138.2220   72.4240  222.3220 N   0  0  0  0  0  0  0  0  0  0  0  0
  137.7270   72.8080  221.0150 C   0  0  0  0  0  0  0  0  0  0  0  0
  138.7520   72.6280  219.9610 C   0  0  0  0  0  0  0  0  0  0  0  0
  138.5120   71.9150  218.9510 O   0  0  0  0  0  0  0  0  0  0  0  0
  140.0270   73.2340  220.0360 N   0  0  0  0  0  0  0  0  0  0  0  0
  140.9180   73.6400  218.9380 C   0  0  0  0  0  0  0  0  0  0  0  0
  142.2510   73.0470  219.4270 C   0  0  0  0  0  0  0  0  0  0  0  0
  142.2410   73.4450  220.8750 C   0  0  0  0  0  0  0  0  0  0  0  0
  140.8010   73.6140  221.2290 C   0  0  1  0  0  0  0  0  0  0  0  0
  140.5530   75.0410  221.5760 C   0  0  0  0  0  0  0  0  0  0  0  0
  139.4120   75.3420  222.2840 C   0  0  0  0  0  0  0  0  0  0  0  0
  139.1460   76.6360  222.6510 C   0  0  0  0  0  0  0  0  0  0  0  0
  140.0160   77.6990  222.3250 C   0  0  0  0  0  0  0  0  0  0  0  0
  139.6490   78.9190  222.7370 O   0  0  0  0  0  0  0  0  0  0  0  0
  140.2000   80.0990  223.0970 C   0  0  0  0  0  0  0  0  0  0  0  0
  141.6360   80.1700  223.4770 C   0  0  0  0  0  0  0  0  0  0  0  0
  142.0250   81.2540  224.2070 F   0  0  0  0  0  0  0  0  0  0  0  0
  142.4540   79.9620  222.3730 F   0  0  0  0  0  0  0  0  0  0  0  0
  141.8880   79.0590  224.3050 F   0  0  0  0  0  0  0  0  0  0  0  0
  141.1360   77.3370  221.6200 C   0  0  0  0  0  0  0  0  0  0  0  0
  141.4290   76.0460  221.2380 C   0  0  0  0  0  0  0  0  0  0  0  0
  139.1030   70.6230  223.8370 C   0  0  0  0  0  0  0  0  0  0  0  0
  139.0090   69.2860  224.1580 C   0  0  0  0  0  0  0  0  0  0  0  0
  139.4650   68.7650  225.3560 C   0  0  0  0  0  0  0  0  0  0  0  0
  140.0400   69.6670  226.2520 C   0  0  0  0  0  0  0  0  0  0  0  0
  140.4970   69.1580  227.4450 C   0  0  0  0  0  0  0  0  0  0  0  0
  141.0710   70.0390  228.3450 C   0  0  0  0  0  0  0  0  0  0  0  0
  141.1840   71.4030  228.0550 C   0  0  0  0  0  0  0  0  0  0  0  0
  140.7080   71.8750  226.8310 C   0  0  0  0  0  0  0  0  0  0  0  0
  140.1330   71.0010  225.9270 C   0  0  0  0  0  0  0  0  0  0  0  0
  139.6700   71.4440  224.7450 N   0  0  0  0  0  0  0  0  0  0  0  0
  138.3030   73.1390  223.0970 H   0  0  0  0  0  0  0  0  0  0  0  0
  136.8522   72.1878  220.7698 H   0  0  0  0  0  0  0  0  0  0  0  0
  137.4596   73.8744  221.0517 H   0  0  0  0  0  0  0  0  0  0  0  0
  140.6061   73.2020  217.9784 H   0  0  0  0  0  0  0  0  0  0  0  0
  140.9414   74.7222  218.7421 H   0  0  0  0  0  0  0  0  0  0  0  0
  142.2712   71.9533  219.3108 H   0  0  0  0  0  0  0  0  0  0  0  0
  143.1311   73.4011  218.8701 H   0  0  0  0  0  0  0  0  0  0  0  0
  142.6998   72.6594  221.4933 H   0  0  0  0  0  0  0  0  0  0  0  0
  142.8164   74.3659  221.0504 H   0  0  0  0  0  0  0  0  0  0  0  0
  140.5129   72.9936  222.0904 H   0  0  0  0  0  0  0  0  0  0  0  0
  138.7098   74.5404  222.5569 H   0  0  0  0  0  0  0  0  0  0  0  0
  138.2275   76.8523  223.2162 H   0  0  0  0  0  0  0  0  0  0  0  0
  140.0632   80.7843  222.2475 H   0  0  0  0  0  0  0  0  0  0  0  0
  139.6804   80.3418  224.0357 H   0  0  0  0  0  0  0  0  0  0  0  0
  141.8465   78.1293  221.3415 H   0  0  0  0  0  0  0  0  0  0  0  0
  142.3463   75.8233  220.6733 H   0  0  0  0  0  0  0  0  0  0  0  0
  138.5506   68.6020  223.4286 H   0  0  0  0  0  0  0  0  0  0  0  0
  139.3786   67.6937  225.5903 H   0  0  0  0  0  0  0  0  0  0  0  0
  140.4092   68.0862  227.6763 H   0  0  0  0  0  0  0  0  0  0  0  0
  141.4456   69.6594  229.3070 H   0  0  0  0  0  0  0  0  0  0  0  0
  141.6408   72.0924  228.7802 H   0  0  0  0  0  0  0  0  0  0  0  0
  140.7904   72.9440  226.5850 H   0  0  0  0  0  0  0  0  0  0  0  0
  1  2  2  0
  2  3  1  0
  3  4  1  0
  4  5  1  0
  5  6  2  0
  5  7  1  0
  7  8  1  0
  8  9  1  0
  9 10  1  0
 10 11  1  0
 11 12  1  0
 12 13  2  0
 13 14  1  0
 14 15  2  0
 15 16  1  0
 16 17  1  0
 17 18  1  0
 18 19  1  0
 18 20  1  0
 18 21  1  0
 15 22  1  0
 22 23  2  0
  2 24  1  0
 24 25  2  0
 25 26  1  0
 26 27  2  0
 27 28  1  0
 28 29  2  0
 29 30  1  0
 30 31  2  0
 31 32  1  0
 32 33  2  0
 11  7  1  0
 23 12  1  0
 33 24  1  0
 32 27  1  0
  3 34  1  0
  4 35  1  0
  4 36  1  0
  8 37  1  0
  8 38  1  0
  9 39  1  0
  9 40  1  0
 10 41  1  0
 10 42  1  0
 11 43  1  1
 13 44  1  0
 14 45  1  0
 17 46  1  0
 17 47  1  0
 22 48  1  0
 23 49  1  0
 25 50  1  0
 26 51  1  0
 28 52  1  0
 29 53  1  0
 30 54  1  0
 31 55  1  0
M  END
>  <smiles>  (72) 
O=C(NCC(=O)N1CCCC1c1ccc(OCC(F)(F)F)cc1)c1ccc2ccccc2n1

>  <score_type>  (72) 
oracle

>  <origin>  (72) 
autodockgpu

>  <m_score__min__energy>  (72) 
-8

>  <m_primary>  (72) 
energy

>  <rmsd>  (72) 
2.5296807389978686

>  <m_score__min__rmsd>  (72) 
2.5296807389978686

>  <meeko>  (72) 
{"free_energy": -7.07, "intermolecular_energy": -9.45, "internal_energy": -1.97, "cluster_size": 11, "cluster_id": 2, "rank_in_cluster": 9}

>  <energy>  (72) 
-7.37

>  <cluster_rmsd>  (72) 
1.11

>  <cluster>  (72) 
3

$$$$

     RDKit          3D

 55 58  0  0  0  0  0  0  0  0999 V2000
  138.9310   70.7120  221.4510 O   0  0  0  0  0  0  0  0  0  0  0  0
  139.2160   71.4370  222.4640 C   0  0  0  0  0  0  0  0  0  0  0  0
  139.2070   72.8310  222.2800 N   0  0  0  0  0  0  0  0  0  0  0  0
  138.8810   73.3730  220.9760 C   0  0  0  0  0  0  0  0  0  0  0  0
  139.8450   72.9360  219.9400 C   0  0  0  0  0  0  0  0  0  0  0  0
  139.5420   72.0200  219.1310 O   0  0  0  0  0  0  0  0  0  0  0  0
  141.1290   73.5120  219.8110 N   0  0  0  0  0  0  0  0  0  0  0  0
  141.9410   73.6900  218.5960 C   0  0  0  0  0  0  0  0  0  0  0  0
  143.2990   73.1610  219.0890 C   0  0  0  0  0  0  0  0  0  0  0  0
  143.4030   73.8150  220.4370 C   0  0  0  0  0  0  0  0  0  0  0  0
  141.9960   74.0820  220.8570 C   0  0  1  0  0  0  0  0  0  0  0  0
  141.7920   75.5540  220.9540 C   0  0  0  0  0  0  0  0  0  0  0  0
  141.0030   76.0290  221.9770 C   0  0  0  0  0  0  0  0  0  0  0  0
  140.8020   77.3760  222.1290 C   0  0  0  0  0  0  0  0  0  0  0  0
  141.3850   78.3210  221.2570 C   0  0  0  0  0  0  0  0  0  0  0  0
  141.1140   79.6090  221.5050 O   0  0  0  0  0  0  0  0  0  0  0  0
  141.4390   80.5850  222.3810 C   0  0  0  0  0  0  0  0  0  0  0  0
  142.4450   80.3300  223.4470 C   0  0  0  0  0  0  0  0  0  0  0  0
  143.7390   80.1830  223.0460 F   0  0  0  0  0  0  0  0  0  0  0  0
  142.0350   79.2960  224.2800 F   0  0  0  0  0  0  0  0  0  0  0  0
  142.4440   81.4640  224.2800 F   0  0  0  0  0  0  0  0  0  0  0  0
  142.1600   77.7890  220.2580 C   0  0  0  0  0  0  0  0  0  0  0  0
  142.3810   76.4400  220.0820 C   0  0  0  0  0  0  0  0  0  0  0  0
  139.5320   70.8140  223.7440 C   0  0  0  0  0  0  0  0  0  0  0  0
  139.3160   69.4620  223.9110 C   0  0  0  0  0  0  0  0  0  0  0  0
  139.5900   68.7960  225.0910 C   0  0  0  0  0  0  0  0  0  0  0  0
  140.1080   69.5620  226.1370 C   0  0  0  0  0  0  0  0  0  0  0  0
  140.3830   68.9080  227.3150 C   0  0  0  0  0  0  0  0  0  0  0  0
  140.8970   69.6530  228.3610 C   0  0  0  0  0  0  0  0  0  0  0  0
  141.1300   71.0260  228.2300 C   0  0  0  0  0  0  0  0  0  0  0  0
  140.8370   71.6480  227.0160 C   0  0  0  0  0  0  0  0  0  0  0  0
  140.3230   70.9110  225.9660 C   0  0  0  0  0  0  0  0  0  0  0  0
  140.0350   71.4980  224.7910 N   0  0  0  0  0  0  0  0  0  0  0  0
  139.4360   73.4730  223.0880 H   0  0  0  0  0  0  0  0  0  0  0  0
  137.8743   73.0332  220.6911 H   0  0  0  0  0  0  0  0  0  0  0  0
  138.9251   74.4701  221.0419 H   0  0  0  0  0  0  0  0  0  0  0  0
  141.5530   73.0939  217.7569 H   0  0  0  0  0  0  0  0  0  0  0  0
  141.9631   74.7179  218.2050 H   0  0  0  0  0  0  0  0  0  0  0  0
  143.2964   72.0643  219.1735 H   0  0  0  0  0  0  0  0  0  0  0  0
  144.1392   73.3853  218.4154 H   0  0  0  0  0  0  0  0  0  0  0  0
  143.8978   73.1430  221.1537 H   0  0  0  0  0  0  0  0  0  0  0  0
  144.0009   74.7375  220.3993 H   0  0  0  0  0  0  0  0  0  0  0  0
  141.7664   73.6354  221.8357 H   0  0  0  0  0  0  0  0  0  0  0  0
  140.5311   75.3233  222.6765 H   0  0  0  0  0  0  0  0  0  0  0  0
  140.1679   77.7314  222.9546 H   0  0  0  0  0  0  0  0  0  0  0  0
  141.8149   81.4311  221.7870 H   0  0  0  0  0  0  0  0  0  0  0  0
  140.5074   80.7343  222.9465 H   0  0  0  0  0  0  0  0  0  0  0  0
  142.6362   78.4845  219.5512 H   0  0  0  0  0  0  0  0  0  0  0  0
  143.0163   76.0787  219.2599 H   0  0  0  0  0  0  0  0  0  0  0  0
  138.9071   68.8875  223.0667 H   0  0  0  0  0  0  0  0  0  0  0  0
  139.4089   67.7165  225.2004 H   0  0  0  0  0  0  0  0  0  0  0  0
  140.2003   67.8286  227.4219 H   0  0  0  0  0  0  0  0  0  0  0  0
  141.1271   69.1558  229.3149 H   0  0  0  0  0  0  0  0  0  0  0  0
  141.5378   71.6062  229.0709 H   0  0  0  0  0  0  0  0  0  0  0  0
  141.0154   72.7266  226.8944 H   0  0  0  0  0  0  0  0  0  0  0  0
  1  2  2  0
  2  3  1  0
  3  4  1  0
  4  5  1  0
  5  6  2  0
  5  7  1  0
  7  8  1  0
  8  9  1  0
  9 10  1  0
 10 11  1  0
 11 12  1  0
 12 13  2  0
 13 14  1  0
 14 15  2  0
 15 16  1  0
 16 17  1  0
 17 18  1  0
 18 19  1  0
 18 20  1  0
 18 21  1  0
 15 22  1  0
 22 23  2  0
  2 24  1  0
 24 25  2  0
 25 26  1  0
 26 27  2  0
 27 28  1  0
 28 29  2  0
 29 30  1  0
 30 31  2  0
 31 32  1  0
 32 33  2  0
 11  7  1  0
 23 12  1  0
 33 24  1  0
 32 27  1  0
  3 34  1  0
  4 35  1  0
  4 36  1  0
  8 37  1  0
  8 38  1  0
  9 39  1  0
  9 40  1  0
 10 41  1  0
 10 42  1  0
 11 43  1  1
 13 44  1  0
 14 45  1  0
 17 46  1  0
 17 47  1  0
 22 48  1  0
 23 49  1  0
 25 50  1  0
 26 51  1  0
 28 52  1  0
 29 53  1  0
 30 54  1  0
 31 55  1  0
M  END
>  <smiles>  (73) 
O=C(NCC(=O)N1CCCC1c1ccc(OCC(F)(F)F)cc1)c1ccc2ccccc2n1

>  <score_type>  (73) 
oracle

>  <origin>  (73) 
autodockgpu

>  <m_score__min__energy>  (73) 
-8

>  <m_primary>  (73) 
energy

>  <rmsd>  (73) 
2.5241434138827126

>  <m_score__min__rmsd>  (73) 
2.5241434138827126

>  <meeko>  (73) 
{"free_energy": -7.54, "intermolecular_energy": -9.92, "internal_energy": -1.73, "cluster_size": 11, "cluster_id": 2, "rank_in_cluster": 4}

>  <energy>  (73) 
-7.19

>  <cluster_rmsd>  (73) 
1.56

>  <cluster>  (73) 
3

$$$$

     RDKit          3D

 55 58  0  0  0  0  0  0  0  0999 V2000
  140.9840   78.0670  217.6960 O   0  0  0  0  0  0  0  0  0  0  0  0
  141.9550   78.2120  218.5140 C   0  0  0  0  0  0  0  0  0  0  0  0
  143.0970   77.4180  218.3050 N   0  0  0  0  0  0  0  0  0  0  0  0
  143.1210   76.4900  217.1930 C   0  0  0  0  0  0  0  0  0  0  0  0
  143.2800   75.0890  217.6470 C   0  0  0  0  0  0  0  0  0  0  0  0
  143.4830   74.1660  216.8150 O   0  0  0  0  0  0  0  0  0  0  0  0
  143.2120   74.7240  219.0110 N   0  0  0  0  0  0  0  0  0  0  0  0
  144.2200   74.9150  220.0660 C   0  0  0  0  0  0  0  0  0  0  0  0
  144.2280   73.5130  220.7000 C   0  0  0  0  0  0  0  0  0  0  0  0
  142.7580   73.2210  220.7950 C   0  0  0  0  0  0  0  0  0  0  0  0
  142.1190   74.0530  219.7350 C   0  0  1  0  0  0  0  0  0  0  0  0
  141.2310   75.0590  220.3810 C   0  0  0  0  0  0  0  0  0  0  0  0
  140.2130   75.5980  219.6270 C   0  0  0  0  0  0  0  0  0  0  0  0
  139.3500   76.5090  220.1780 C   0  0  0  0  0  0  0  0  0  0  0  0
  139.4650   76.9300  221.5210 C   0  0  0  0  0  0  0  0  0  0  0  0
  138.5650   77.8260  221.9460 O   0  0  0  0  0  0  0  0  0  0  0  0
  138.4050   79.1640  222.0480 C   0  0  0  0  0  0  0  0  0  0  0  0
  138.4930   79.8290  223.3750 C   0  0  0  0  0  0  0  0  0  0  0  0
  139.4800   79.3980  224.2120 F   0  0  0  0  0  0  0  0  0  0  0  0
  137.2530   79.8580  224.0000 F   0  0  0  0  0  0  0  0  0  0  0  0
  138.7850   81.1830  223.1270 F   0  0  0  0  0  0  0  0  0  0  0  0
  140.4970   76.3590  222.2210 C   0  0  0  0  0  0  0  0  0  0  0  0
  141.3790   75.4400  221.6940 C   0  0  0  0  0  0  0  0  0  0  0  0
  141.8520   79.1700  219.6090 C   0  0  0  0  0  0  0  0  0  0  0  0
  141.3920   80.4440  219.3530 C   0  0  0  0  0  0  0  0  0  0  0  0
  141.2650   81.4100  220.3350 C   0  0  0  0  0  0  0  0  0  0  0  0
  141.6290   81.0380  221.6300 C   0  0  0  0  0  0  0  0  0  0  0  0
  141.5070   81.9920  222.6130 C   0  0  0  0  0  0  0  0  0  0  0  0
  141.8630   81.6390  223.9020 C   0  0  0  0  0  0  0  0  0  0  0  0
  142.3340   80.3560  224.2010 C   0  0  0  0  0  0  0  0  0  0  0  0
  142.4410   79.4200  223.1720 C   0  0  0  0  0  0  0  0  0  0  0  0
  142.0880   79.7650  221.8810 C   0  0  0  0  0  0  0  0  0  0  0  0
  142.1870   78.8720  220.8810 N   0  0  0  0  0  0  0  0  0  0  0  0
  143.9270   77.5010  218.9540 H   0  0  0  0  0  0  0  0  0  0  0  0
  142.1769   76.5783  216.6355 H   0  0  0  0  0  0  0  0  0  0  0  0
  143.9820   76.7422  216.5566 H   0  0  0  0  0  0  0  0  0  0  0  0
  145.2026   75.1771  219.6467 H   0  0  0  0  0  0  0  0  0  0  0  0
  144.0020   75.7346  220.7665 H   0  0  0  0  0  0  0  0  0  0  0  0
  144.7421   72.7837  220.0567 H   0  0  0  0  0  0  0  0  0  0  0  0
  144.7600   73.4577  221.6612 H   0  0  0  0  0  0  0  0  0  0  0  0
  142.5654   72.1532  220.6143 H   0  0  0  0  0  0  0  0  0  0  0  0
  142.3587   73.4534  221.7933 H   0  0  0  0  0  0  0  0  0  0  0  0
  141.5124   73.4476  219.0454 H   0  0  0  0  0  0  0  0  0  0  0  0
  140.0916   75.2957  218.5763 H   0  0  0  0  0  0  0  0  0  0  0  0
  138.5438   76.9246  219.5556 H   0  0  0  0  0  0  0  0  0  0  0  0
  139.1751   79.6243  221.4116 H   0  0  0  0  0  0  0  0  0  0  0  0
  137.3533   79.3131  221.7623 H   0  0  0  0  0  0  0  0  0  0  0  0
  140.6296   76.6539  223.2724 H   0  0  0  0  0  0  0  0  0  0  0  0
  142.1859   75.0194  222.3120 H   0  0  0  0  0  0  0  0  0  0  0  0
  141.1133   80.7042  218.3212 H   0  0  0  0  0  0  0  0  0  0  0  0
  140.8956   82.4207  220.1067 H   0  0  0  0  0  0  0  0  0  0  0  0
  141.1385   83.0023  222.3818 H   0  0  0  0  0  0  0  0  0  0  0  0
  141.7740   82.3819  224.7083 H   0  0  0  0  0  0  0  0  0  0  0  0
  142.6153   80.0896  225.2305 H   0  0  0  0  0  0  0  0  0  0  0  0
  142.8070   78.4055  223.3885 H   0  0  0  0  0  0  0  0  0  0  0  0
  1  2  2  0
  2  3  1  0
  3  4  1  0
  4  5  1  0
  5  6  2  0
  5  7  1  0
  7  8  1  0
  8  9  1  0
  9 10  1  0
 10 11  1  0
 11 12  1  0
 12 13  2  0
 13 14  1  0
 14 15  2  0
 15 16  1  0
 16 17  1  0
 17 18  1  0
 18 19  1  0
 18 20  1  0
 18 21  1  0
 15 22  1  0
 22 23  2  0
  2 24  1  0
 24 25  2  0
 25 26  1  0
 26 27  2  0
 27 28  1  0
 28 29  2  0
 29 30  1  0
 30 31  2  0
 31 32  1  0
 32 33  2  0
 11  7  1  0
 23 12  1  0
 33 24  1  0
 32 27  1  0
  3 34  1  0
  4 35  1  0
  4 36  1  0
  8 37  1  0
  8 38  1  0
  9 39  1  0
  9 40  1  0
 10 41  1  0
 10 42  1  0
 11 43  1  6
 13 44  1  0
 14 45  1  0
 17 46  1  0
 17 47  1  0
 22 48  1  0
 23 49  1  0
 25 50  1  0
 26 51  1  0
 28 52  1  0
 29 53  1  0
 30 54  1  0
 31 55  1  0
M  END
>  <smiles>  (74) 
O=C(NCC(=O)N1CCCC1c1ccc(OCC(F)(F)F)cc1)c1ccc2ccccc2n1

>  <score_type>  (74) 
oracle

>  <origin>  (74) 
autodockgpu

>  <m_score__min__energy>  (74) 
-8

>  <m_primary>  (74) 
energy

>  <rmsd>  (74) 
9.028676450380331

>  <m_score__min__rmsd>  (74) 
9.028676450380331

>  <meeko>  (74) 
{"free_energy": -5.59, "intermolecular_energy": -7.98, "internal_energy": -3.43, "cluster_size": 7, "cluster_id": 14, "rank_in_cluster": 2}

>  <energy>  (74) 
-7.47

>  <cluster_rmsd>  (74) 
0.0

>  <cluster>  (74) 
4

$$$$

     RDKit          3D

 55 58  0  0  0  0  0  0  0  0999 V2000
  140.9280   71.8310  221.4300 O   0  0  0  0  0  0  0  0  0  0  0  0
  140.2000   72.2410  222.3970 C   0  0  0  0  0  0  0  0  0  0  0  0
  139.5050   73.4500  222.2110 N   0  0  0  0  0  0  0  0  0  0  0  0
  139.6430   74.1620  220.9560 C   0  0  0  0  0  0  0  0  0  0  0  0
  140.7300   75.1670  221.0080 C   0  0  0  0  0  0  0  0  0  0  0  0
  141.5110   75.2130  221.9950 O   0  0  0  0  0  0  0  0  0  0  0  0
  140.9400   76.1060  219.9730 N   0  0  0  0  0  0  0  0  0  0  0  0
  140.0690   76.4290  218.8320 C   0  0  0  0  0  0  0  0  0  0  0  0
  141.0920   76.3990  217.6830 C   0  0  0  0  0  0  0  0  0  0  0  0
  142.2380   77.1620  218.2840 C   0  0  0  0  0  0  0  0  0  0  0  0
  142.0870   77.0060  219.7600 C   0  0  1  0  0  0  0  0  0  0  0  0
  141.8180   78.3410  220.3620 C   0  0  0  0  0  0  0  0  0  0  0  0
  141.7150   79.4210  219.5150 C   0  0  0  0  0  0  0  0  0  0  0  0
  141.4440   80.6690  220.0130 C   0  0  0  0  0  0  0  0  0  0  0  0
  141.2620   80.8990  221.3940 C   0  0  0  0  0  0  0  0  0  0  0  0
  141.0030   82.1610  221.7600 O   0  0  0  0  0  0  0  0  0  0  0  0
  140.0790   83.1270  221.5650 C   0  0  0  0  0  0  0  0  0  0  0  0
  140.3090   84.1890  220.5490 C   0  0  0  0  0  0  0  0  0  0  0  0
  139.2050   84.8350  220.0760 F   0  0  0  0  0  0  0  0  0  0  0  0
  141.1240   83.7270  219.5230 F   0  0  0  0  0  0  0  0  0  0  0  0
  141.0790   85.1860  221.1770 F   0  0  0  0  0  0  0  0  0  0  0  0
  141.3760   79.7860  222.1870 C   0  0  0  0  0  0  0  0  0  0  0  0
  141.6470   78.5200  221.7150 C   0  0  0  0  0  0  0  0  0  0  0  0
  140.1140   71.4650  223.6280 C   0  0  0  0  0  0  0  0  0  0  0  0
  139.5230   70.2200  223.6040 C   0  0  0  0  0  0  0  0  0  0  0  0
  139.4020   69.4220  224.7270 C   0  0  0  0  0  0  0  0  0  0  0  0
  139.9140   69.9370  225.9190 C   0  0  0  0  0  0  0  0  0  0  0  0
  139.7980   69.1510  227.0410 C   0  0  0  0  0  0  0  0  0  0  0  0
  140.3010   69.6460  228.2310 C   0  0  0  0  0  0  0  0  0  0  0  0
  140.9080   70.9050  228.2950 C   0  0  0  0  0  0  0  0  0  0  0  0
  141.0040   71.6680  227.1310 C   0  0  0  0  0  0  0  0  0  0  0  0
  140.5040   71.1800  225.9390 C   0  0  0  0  0  0  0  0  0  0  0  0
  140.5900   71.9060  224.8100 N   0  0  0  0  0  0  0  0  0  0  0  0
  138.8900   73.8310  222.9810 H   0  0  0  0  0  0  0  0  0  0  0  0
  139.8662   73.4377  220.1588 H   0  0  0  0  0  0  0  0  0  0  0  0
  138.6989   74.6907  220.7583 H   0  0  0  0  0  0  0  0  0  0  0  0
  139.2817   75.6731  218.6950 H   0  0  0  0  0  0  0  0  0  0  0  0
  139.5163   77.3750  218.9299 H   0  0  0  0  0  0  0  0  0  0  0  0
  141.3832   75.3687  217.4308 H   0  0  0  0  0  0  0  0  0  0  0  0
  140.7184   76.8205  216.7381 H   0  0  0  0  0  0  0  0  0  0  0  0
  143.1979   76.7421  217.9488 H   0  0  0  0  0  0  0  0  0  0  0  0
  142.2290   78.2195  217.9813 H   0  0  0  0  0  0  0  0  0  0  0  0
  142.9941   76.5933  220.2257 H   0  0  0  0  0  0  0  0  0  0  0  0
  141.8509   79.2818  218.4323 H   0  0  0  0  0  0  0  0  0  0  0  0
  141.3660   81.5164  219.3160 H   0  0  0  0  0  0  0  0  0  0  0  0
  139.1441   82.6190  221.2858 H   0  0  0  0  0  0  0  0  0  0  0  0
  140.0925   83.6819  222.5147 H   0  0  0  0  0  0  0  0  0  0  0  0
  141.2423   79.9121  223.2715 H   0  0  0  0  0  0  0  0  0  0  0  0
  141.7251   77.6687  222.4072 H   0  0  0  0  0  0  0  0  0  0  0  0
  139.1296   69.8440  222.6480 H   0  0  0  0  0  0  0  0  0  0  0  0
  138.9262   68.4312  224.6830 H   0  0  0  0  0  0  0  0  0  0  0  0
  139.3209   68.1610  226.9941 H   0  0  0  0  0  0  0  0  0  0  0  0
  140.2222   69.0381  229.1444 H   0  0  0  0  0  0  0  0  0  0  0  0
  141.3032   71.2871  229.2478 H   0  0  0  0  0  0  0  0  0  0  0  0
  141.4786   72.6599  227.1623 H   0  0  0  0  0  0  0  0  0  0  0  0
  1  2  2  0
  2  3  1  0
  3  4  1  0
  4  5  1  0
  5  6  2  0
  5  7  1  0
  7  8  1  0
  8  9  1  0
  9 10  1  0
 10 11  1  0
 11 12  1  0
 12 13  2  0
 13 14  1  0
 14 15  2  0
 15 16  1  0
 16 17  1  0
 17 18  1  0
 18 19  1  0
 18 20  1  0
 18 21  1  0
 15 22  1  0
 22 23  2  0
  2 24  1  0
 24 25  2  0
 25 26  1  0
 26 27  2  0
 27 28  1  0
 28 29  2  0
 29 30  1  0
 30 31  2  0
 31 32  1  0
 32 33  2  0
 11  7  1  0
 23 12  1  0
 33 24  1  0
 32 27  1  0
  3 34  1  0
  4 35  1  0
  4 36  1  0
  8 37  1  0
  8 38  1  0
  9 39  1  0
  9 40  1  0
 10 41  1  0
 10 42  1  0
 11 43  1  1
 13 44  1  0
 14 45  1  0
 17 46  1  0
 17 47  1  0
 22 48  1  0
 23 49  1  0
 25 50  1  0
 26 51  1  0
 28 52  1  0
 29 53  1  0
 30 54  1  0
 31 55  1  0
M  END
>  <smiles>  (75) 
O=C(NCC(=O)N1CCCC1c1ccc(OCC(F)(F)F)cc1)c1ccc2ccccc2n1

>  <score_type>  (75) 
oracle

>  <origin>  (75) 
autodockgpu

>  <m_score__min__energy>  (75) 
-8

>  <m_primary>  (75) 
energy

>  <rmsd>  (75) 
1.41525738712317

>  <m_score__min__rmsd>  (75) 
1.41525738712317

>  <meeko>  (75) 
{"free_energy": -7.47, "intermolecular_energy": -9.86, "internal_energy": -1.43, "cluster_size": 2, "cluster_id": 4, "rank_in_cluster": 1}

>  <energy>  (75) 
-7.28

>  <cluster_rmsd>  (75) 
1.3

>  <cluster>  (75) 
4

$$$$

     RDKit          3D

 55 58  0  0  0  0  0  0  0  0999 V2000
  140.8640   72.6890  221.9780 O   0  0  0  0  0  0  0  0  0  0  0  0
  139.8390   72.4690  222.7090 C   0  0  0  0  0  0  0  0  0  0  0  0
  138.6540   73.1500  222.3770 N   0  0  0  0  0  0  0  0  0  0  0  0
  138.6480   74.0510  221.2420 C   0  0  0  0  0  0  0  0  0  0  0  0
  137.2740   74.3130  220.7530 C   0  0  0  0  0  0  0  0  0  0  0  0
  136.7840   73.6180  219.8250 O   0  0  0  0  0  0  0  0  0  0  0  0
  136.4620   75.3360  221.2920 N   0  0  0  0  0  0  0  0  0  0  0  0
  135.2370   75.9300  220.7330 C   0  0  0  0  0  0  0  0  0  0  0  0
  135.5470   77.4270  220.9100 C   0  0  0  0  0  0  0  0  0  0  0  0
  136.0950   77.4540  222.3080 C   0  0  0  0  0  0  0  0  0  0  0  0
  136.6290   76.0810  222.5510 C   0  0  1  0  0  0  0  0  0  0  0  0
  135.8390   75.4430  223.6410 C   0  0  0  0  0  0  0  0  0  0  0  0
  135.8000   74.0680  223.6860 C   0  0  0  0  0  0  0  0  0  0  0  0
  135.1090   73.4270  224.6820 C   0  0  0  0  0  0  0  0  0  0  0  0
  134.4180   74.1360  225.6880 C   0  0  0  0  0  0  0  0  0  0  0  0
  133.7780   73.4010  226.6050 O   0  0  0  0  0  0  0  0  0  0  0  0
  132.6940   72.6020  226.7200 C   0  0  0  0  0  0  0  0  0  0  0  0
  131.4640   73.1020  227.3910 C   0  0  0  0  0  0  0  0  0  0  0  0
  130.9160   72.2960  228.3440 F   0  0  0  0  0  0  0  0  0  0  0  0
  130.5240   73.5230  226.4580 F   0  0  0  0  0  0  0  0  0  0  0  0
  131.8280   74.2810  228.0690 F   0  0  0  0  0  0  0  0  0  0  0  0
  134.4930   75.5030  225.5900 C   0  0  0  0  0  0  0  0  0  0  0  0
  135.1810   76.1740  224.6020 C   0  0  0  0  0  0  0  0  0  0  0  0
  139.9270   71.5460  223.8350 C   0  0  0  0  0  0  0  0  0  0  0  0
  139.4780   70.2520  223.6850 C   0  0  0  0  0  0  0  0  0  0  0  0
  139.5270   69.3150  224.7020 C   0  0  0  0  0  0  0  0  0  0  0  0
  140.0620   69.7400  225.9190 C   0  0  0  0  0  0  0  0  0  0  0  0
  140.1140   68.8170  226.9360 C   0  0  0  0  0  0  0  0  0  0  0  0
  140.6420   69.2210  228.1490 C   0  0  0  0  0  0  0  0  0  0  0  0
  141.1080   70.5270  228.3390 C   0  0  0  0  0  0  0  0  0  0  0  0
  141.0360   71.4310  227.2790 C   0  0  0  0  0  0  0  0  0  0  0  0
  140.5100   71.0340  226.0640 C   0  0  0  0  0  0  0  0  0  0  0  0
  140.4340   71.8950  225.0350 N   0  0  0  0  0  0  0  0  0  0  0  0
  137.7790   73.0030  222.9510 H   0  0  0  0  0  0  0  0  0  0  0  0
  139.1067   75.0046  221.5423 H   0  0  0  0  0  0  0  0  0  0  0  0
  139.2157   73.5776  220.4274 H   0  0  0  0  0  0  0  0  0  0  0  0
  135.1038   75.6651  219.6737 H   0  0  0  0  0  0  0  0  0  0  0  0
  134.3048   75.5947  221.2111 H   0  0  0  0  0  0  0  0  0  0  0  0
  136.2928   77.7724  220.1790 H   0  0  0  0  0  0  0  0  0  0  0  0
  134.6806   78.0867  220.7543 H   0  0  0  0  0  0  0  0  0  0  0  0
  136.8990   78.2001  222.3919 H   0  0  0  0  0  0  0  0  0  0  0  0
  135.3253   77.7298  223.0439 H   0  0  0  0  0  0  0  0  0  0  0  0
  137.6866   76.0965  222.8532 H   0  0  0  0  0  0  0  0  0  0  0  0
  136.3258   73.4803  222.9191 H   0  0  0  0  0  0  0  0  0  0  0  0
  135.0927   72.3272  224.6974 H   0  0  0  0  0  0  0  0  0  0  0  0
  132.4030   72.3142  225.6990 H   0  0  0  0  0  0  0  0  0  0  0  0
  133.0406   71.8045  227.3936 H   0  0  0  0  0  0  0  0  0  0  0  0
  133.9698   76.1023  226.3497 H   0  0  0  0  0  0  0  0  0  0  0  0
  135.2033   77.2736  224.5826 H   0  0  0  0  0  0  0  0  0  0  0  0
  139.0617   69.9501  222.7126 H   0  0  0  0  0  0  0  0  0  0  0  0
  139.1627   68.2870  224.5585 H   0  0  0  0  0  0  0  0  0  0  0  0
  139.7476   67.7901  226.7901 H   0  0  0  0  0  0  0  0  0  0  0  0
  140.6967   68.5023  228.9799 H   0  0  0  0  0  0  0  0  0  0  0  0
  141.5246   70.8358  229.3091 H   0  0  0  0  0  0  0  0  0  0  0  0
  141.3983   72.4613  227.4103 H   0  0  0  0  0  0  0  0  0  0  0  0
  1  2  2  0
  2  3  1  0
  3  4  1  0
  4  5  1  0
  5  6  2  0
  5  7  1  0
  7  8  1  0
  8  9  1  0
  9 10  1  0
 10 11  1  0
 11 12  1  0
 12 13  2  0
 13 14  1  0
 14 15  2  0
 15 16  1  0
 16 17  1  0
 17 18  1  0
 18 19  1  0
 18 20  1  0
 18 21  1  0
 15 22  1  0
 22 23  2  0
  2 24  1  0
 24 25  2  0
 25 26  1  0
 26 27  2  0
 27 28  1  0
 28 29  2  0
 29 30  1  0
 30 31  2  0
 31 32  1  0
 32 33  2  0
 11  7  1  0
 23 12  1  0
 33 24  1  0
 32 27  1  0
  3 34  1  0
  4 35  1  0
  4 36  1  0
  8 37  1  0
  8 38  1  0
  9 39  1  0
  9 40  1  0
 10 41  1  0
 10 42  1  0
 11 43  1  1
 13 44  1  0
 14 45  1  0
 17 46  1  0
 17 47  1  0
 22 48  1  0
 23 49  1  0
 25 50  1  0
 26 51  1  0
 28 52  1  0
 29 53  1  0
 30 54  1  0
 31 55  1  0
M  END
>  <smiles>  (76) 
O=C(NCC(=O)N1CCCC1c1ccc(OCC(F)(F)F)cc1)c1ccc2ccccc2n1

>  <score_type>  (76) 
oracle

>  <origin>  (76) 
autodockgpu

>  <m_score__min__energy>  (76) 
-8

>  <m_primary>  (76) 
energy

>  <rmsd>  (76) 
3.4139391294443557

>  <m_score__min__rmsd>  (76) 
3.4139391294443557

>  <meeko>  (76) 
{"free_energy": -7.16, "intermolecular_energy": -9.54, "internal_energy": -1.55, "cluster_size": 1, "cluster_id": 7, "rank_in_cluster": 1}

>  <energy>  (76) 
-7.36

>  <cluster_rmsd>  (76) 
0.0

>  <cluster>  (76) 
5

$$$$

     RDKit          3D

 55 58  0  0  0  0  0  0  0  0999 V2000
  140.7300   73.0670  222.6840 O   0  0  0  0  0  0  0  0  0  0  0  0
  139.9460   72.0980  222.9690 C   0  0  0  0  0  0  0  0  0  0  0  0
  138.9110   71.8200  222.0590 N   0  0  0  0  0  0  0  0  0  0  0  0
  138.7810   72.6260  220.8620 C   0  0  0  0  0  0  0  0  0  0  0  0
  138.5810   74.0590  221.1810 C   0  0  0  0  0  0  0  0  0  0  0  0
  137.5460   74.4410  221.7860 O   0  0  0  0  0  0  0  0  0  0  0  0
  139.5250   75.0500  220.8270 N   0  0  0  0  0  0  0  0  0  0  0  0
  139.7040   75.7310  219.5340 C   0  0  0  0  0  0  0  0  0  0  0  0
  141.2270   75.6070  219.3620 C   0  0  0  0  0  0  0  0  0  0  0  0
  141.7130   75.9740  220.7350 C   0  0  0  0  0  0  0  0  0  0  0  0
  140.5810   75.6590  221.6530 C   0  0  1  0  0  0  0  0  0  0  0  0
  140.0930   76.9240  222.2700 C   0  0  0  0  0  0  0  0  0  0  0  0
  141.0310   77.8380  222.6920 C   0  0  0  0  0  0  0  0  0  0  0  0
  140.6370   79.0300  223.2440 C   0  0  0  0  0  0  0  0  0  0  0  0
  139.2760   79.3660  223.4020 C   0  0  0  0  0  0  0  0  0  0  0  0
  139.0150   80.5570  223.9560 O   0  0  0  0  0  0  0  0  0  0  0  0
  138.0530   81.5060  223.9650 C   0  0  0  0  0  0  0  0  0  0  0  0
  136.8530   81.3460  224.8300 C   0  0  0  0  0  0  0  0  0  0  0  0
  136.0330   80.2930  224.5520 F   0  0  0  0  0  0  0  0  0  0  0  0
  136.1520   82.5420  224.9330 F   0  0  0  0  0  0  0  0  0  0  0  0
  137.3260   81.1120  226.1340 F   0  0  0  0  0  0  0  0  0  0  0  0
  138.3890   78.4160  222.9640 C   0  0  0  0  0  0  0  0  0  0  0  0
  138.7550   77.2110  222.4050 C   0  0  0  0  0  0  0  0  0  0  0  0
  140.1430   71.3340  224.1940 C   0  0  0  0  0  0  0  0  0  0  0  0
  140.8530   71.8940  225.2350 C   0  0  0  0  0  0  0  0  0  0  0  0
  141.0840   71.2360  226.4290 C   0  0  0  0  0  0  0  0  0  0  0  0
  140.5590   69.9480  226.5470 C   0  0  0  0  0  0  0  0  0  0  0  0
  140.7840   69.2860  227.7310 C   0  0  0  0  0  0  0  0  0  0  0  0
  140.2690   68.0090  227.8640 C   0  0  0  0  0  0  0  0  0  0  0  0
  139.5430   67.4070  226.8300 C   0  0  0  0  0  0  0  0  0  0  0  0
  139.3380   68.1170  225.6460 C   0  0  0  0  0  0  0  0  0  0  0  0
  139.8500   69.3930  225.5060 C   0  0  0  0  0  0  0  0  0  0  0  0
  139.6600   70.0870  224.3700 N   0  0  0  0  0  0  0  0  0  0  0  0
  138.2360   71.0290  222.2500 H   0  0  0  0  0  0  0  0  0  0  0  0
  139.6958   72.5197  220.2604 H   0  0  0  0  0  0  0  0  0  0  0  0
  137.8990   72.2735  220.3073 H   0  0  0  0  0  0  0  0  0  0  0  0
  139.1608   75.2186  218.7263 H   0  0  0  0  0  0  0  0  0  0  0  0
  139.3209   76.7616  219.5012 H   0  0  0  0  0  0  0  0  0  0  0  0
  141.5190   74.5811  219.0930 H   0  0  0  0  0  0  0  0  0  0  0  0
  141.6404   76.2327  218.5573 H   0  0  0  0  0  0  0  0  0  0  0  0
  142.6004   75.3807  221.0005 H   0  0  0  0  0  0  0  0  0  0  0  0
  142.0066   77.0324  220.7957 H   0  0  0  0  0  0  0  0  0  0  0  0
  140.8831   74.9747  222.4595 H   0  0  0  0  0  0  0  0  0  0  0  0
  142.1022   77.6115  222.5861 H   0  0  0  0  0  0  0  0  0  0  0  0
  141.4050   79.7453  223.5733 H   0  0  0  0  0  0  0  0  0  0  0  0
  138.5381   82.4459  224.2670 H   0  0  0  0  0  0  0  0  0  0  0  0
  137.6380   81.4525  222.9477 H   0  0  0  0  0  0  0  0  0  0  0  0
  137.3149   78.6302  223.0657 H   0  0  0  0  0  0  0  0  0  0  0  0
  137.9914   76.4922  222.0730 H   0  0  0  0  0  0  0  0  0  0  0  0
  141.2539   72.9107  225.1099 H   0  0  0  0  0  0  0  0  0  0  0  0
  141.6533   71.7043  227.2454 H   0  0  0  0  0  0  0  0  0  0  0  0
  141.3546   69.7563  228.5454 H   0  0  0  0  0  0  0  0  0  0  0  0
  140.4333   67.4560  228.8006 H   0  0  0  0  0  0  0  0  0  0  0  0
  139.1403   66.3903  226.9486 H   0  0  0  0  0  0  0  0  0  0  0  0
  138.7682   67.6604  224.8233 H   0  0  0  0  0  0  0  0  0  0  0  0
  1  2  2  0
  2  3  1  0
  3  4  1  0
  4  5  1  0
  5  6  2  0
  5  7  1  0
  7  8  1  0
  8  9  1  0
  9 10  1  0
 10 11  1  0
 11 12  1  0
 12 13  2  0
 13 14  1  0
 14 15  2  0
 15 16  1  0
 16 17  1  0
 17 18  1  0
 18 19  1  0
 18 20  1  0
 18 21  1  0
 15 22  1  0
 22 23  2  0
  2 24  1  0
 24 25  2  0
 25 26  1  0
 26 27  2  0
 27 28  1  0
 28 29  2  0
 29 30  1  0
 30 31  2  0
 31 32  1  0
 32 33  2  0
 11  7  1  0
 23 12  1  0
 33 24  1  0
 32 27  1  0
  3 34  1  0
  4 35  1  0
  4 36  1  0
  8 37  1  0
  8 38  1  0
  9 39  1  0
  9 40  1  0
 10 41  1  0
 10 42  1  0
 11 43  1  1
 13 44  1  0
 14 45  1  0
 17 46  1  0
 17 47  1  0
 22 48  1  0
 23 49  1  0
 25 50  1  0
 26 51  1  0
 28 52  1  0
 29 53  1  0
 30 54  1  0
 31 55  1  0
M  END
>  <smiles>  (77) 
O=C(NCC(=O)N1CCCC1c1ccc(OCC(F)(F)F)cc1)c1ccc2ccccc2n1

>  <score_type>  (77) 
oracle

>  <origin>  (77) 
autodockgpu

>  <m_score__min__energy>  (77) 
-8

>  <m_primary>  (77) 
energy

>  <rmsd>  (77) 
2.9262613774018056

>  <m_score__min__rmsd>  (77) 
2.9262613774018056

>  <meeko>  (77) 
{"free_energy": -7.26, "intermolecular_energy": -9.64, "internal_energy": -1.68, "cluster_size": 9, "cluster_id": 1, "rank_in_cluster": 9}

>  <energy>  (77) 
-7.32

>  <cluster_rmsd>  (77) 
0.0

>  <cluster>  (77) 
6

$$$$

     RDKit          3D

 55 58  0  0  0  0  0  0  0  0999 V2000
  140.4870   71.2160  221.3610 O   0  0  0  0  0  0  0  0  0  0  0  0
  140.1420   71.8070  222.4410 C   0  0  0  0  0  0  0  0  0  0  0  0
  139.8550   73.1810  222.3590 N   0  0  0  0  0  0  0  0  0  0  0  0
  139.9590   73.8530  221.0800 C   0  0  0  0  0  0  0  0  0  0  0  0
  141.0630   74.8410  221.0640 C   0  0  0  0  0  0  0  0  0  0  0  0
  141.1110   75.7600  221.9220 O   0  0  0  0  0  0  0  0  0  0  0  0
  142.0980   74.8020  220.1010 N   0  0  0  0  0  0  0  0  0  0  0  0
  143.3650   75.5500  220.0810 C   0  0  0  0  0  0  0  0  0  0  0  0
  143.3640   76.0610  218.6290 C   0  0  0  0  0  0  0  0  0  0  0  0
  142.9450   74.8280  217.8800 C   0  0  0  0  0  0  0  0  0  0  0  0
  142.1800   74.0080  218.8640 C   0  0  1  0  0  0  0  0  0  0  0  0
  142.9160   72.7370  219.1100 C   0  0  0  0  0  0  0  0  0  0  0  0
  143.0410   72.3070  220.4110 C   0  0  0  0  0  0  0  0  0  0  0  0
  143.6880   71.1320  220.6930 C   0  0  0  0  0  0  0  0  0  0  0  0
  144.2460   70.3240  219.6790 C   0  0  0  0  0  0  0  0  0  0  0  0
  144.8550   69.2000  220.0780 O   0  0  0  0  0  0  0  0  0  0  0  0
  145.1090   67.9480  219.6370 C   0  0  0  0  0  0  0  0  0  0  0  0
  145.9360   67.7380  218.4180 C   0  0  0  0  0  0  0  0  0  0  0  0
  146.7640   66.6550  218.4190 F   0  0  0  0  0  0  0  0  0  0  0  0
  146.6010   68.9050  218.0610 F   0  0  0  0  0  0  0  0  0  0  0  0
  145.0390   67.5160  217.3570 F   0  0  0  0  0  0  0  0  0  0  0  0
  144.0900   70.8040  218.4040 C   0  0  0  0  0  0  0  0  0  0  0  0
  143.4440   71.9800  218.0900 C   0  0  0  0  0  0  0  0  0  0  0  0
  140.0610   71.0580  223.6890 C   0  0  0  0  0  0  0  0  0  0  0  0
  139.4280   69.8330  223.7040 C   0  0  0  0  0  0  0  0  0  0  0  0
  139.3090   69.0610  224.8460 C   0  0  0  0  0  0  0  0  0  0  0  0
  139.8660   69.5820  226.0150 C   0  0  0  0  0  0  0  0  0  0  0  0
  139.7510   68.8220  227.1550 C   0  0  0  0  0  0  0  0  0  0  0  0
  140.2990   69.3230  228.3220 C   0  0  0  0  0  0  0  0  0  0  0  0
  140.9480   70.5620  228.3470 C   0  0  0  0  0  0  0  0  0  0  0  0
  141.0420   71.2990  227.1660 C   0  0  0  0  0  0  0  0  0  0  0  0
  140.4970   70.8050  225.9950 C   0  0  0  0  0  0  0  0  0  0  0  0
  140.5790   71.5060  224.8510 N   0  0  0  0  0  0  0  0  0  0  0  0
  139.5660   73.7140  223.2250 H   0  0  0  0  0  0  0  0  0  0  0  0
  140.1423   73.1020  220.2974 H   0  0  0  0  0  0  0  0  0  0  0  0
  139.0168   74.3912  220.8997 H   0  0  0  0  0  0  0  0  0  0  0  0
  143.3588   76.3793  220.8037 H   0  0  0  0  0  0  0  0  0  0  0  0
  144.2508   74.9602  220.3595 H   0  0  0  0  0  0  0  0  0  0  0  0
  142.6425   76.8798  218.4913 H   0  0  0  0  0  0  0  0  0  0  0  0
  144.3258   76.4814  218.3000 H   0  0  0  0  0  0  0  0  0  0  0  0
  142.3080   75.0954  217.0240 H   0  0  0  0  0  0  0  0  0  0  0  0
  143.8096   74.2810  217.4759 H   0  0  0  0  0  0  0  0  0  0  0  0
  141.1731   73.7588  218.4979 H   0  0  0  0  0  0  0  0  0  0  0  0
  142.6194   72.9094  221.2292 H   0  0  0  0  0  0  0  0  0  0  0  0
  143.7750   70.8090  221.7409 H   0  0  0  0  0  0  0  0  0  0  0  0
  145.6154   67.4196  220.4582 H   0  0  0  0  0  0  0  0  0  0  0  0
  144.1169   67.5828  219.3332 H   0  0  0  0  0  0  0  0  0  0  0  0
  144.5082   70.2111  217.5772 H   0  0  0  0  0  0  0  0  0  0  0  0
  143.3523   72.3071  217.0438 H   0  0  0  0  0  0  0  0  0  0  0  0
  138.9982   69.4524  222.7657 H   0  0  0  0  0  0  0  0  0  0  0  0
  138.8009   68.0855  224.8333 H   0  0  0  0  0  0  0  0  0  0  0  0
  139.2402   67.8479  227.1395 H   0  0  0  0  0  0  0  0  0  0  0  0
  140.2230   68.7355  229.2489 H   0  0  0  0  0  0  0  0  0  0  0  0
  141.3774   70.9491  229.2828 H   0  0  0  0  0  0  0  0  0  0  0  0
  141.5504   72.2745  227.1664 H   0  0  0  0  0  0  0  0  0  0  0  0
  1  2  2  0
  2  3  1  0
  3  4  1  0
  4  5  1  0
  5  6  2  0
  5  7  1  0
  7  8  1  0
  8  9  1  0
  9 10  1  0
 10 11  1  0
 11 12  1  0
 12 13  2  0
 13 14  1  0
 14 15  2  0
 15 16  1  0
 16 17  1  0
 17 18  1  0
 18 19  1  0
 18 20  1  0
 18 21  1  0
 15 22  1  0
 22 23  2  0
  2 24  1  0
 24 25  2  0
 25 26  1  0
 26 27  2  0
 27 28  1  0
 28 29  2  0
 29 30  1  0
 30 31  2  0
 31 32  1  0
 32 33  2  0
 11  7  1  0
 23 12  1  0
 33 24  1  0
 32 27  1  0
  3 34  1  0
  4 35  1  0
  4 36  1  0
  8 37  1  0
  8 38  1  0
  9 39  1  0
  9 40  1  0
 10 41  1  0
 10 42  1  0
 11 43  1  6
 13 44  1  0
 14 45  1  0
 17 46  1  0
 17 47  1  0
 22 48  1  0
 23 49  1  0
 25 50  1  0
 26 51  1  0
 28 52  1  0
 29 53  1  0
 30 54  1  0
 31 55  1  0
M  END
>  <smiles>  (78) 
O=C(NCC(=O)N1CCCC1c1ccc(OCC(F)(F)F)cc1)c1ccc2ccccc2n1

>  <score_type>  (78) 
oracle

>  <origin>  (78) 
autodockgpu

>  <m_score__min__energy>  (78) 
-8

>  <m_primary>  (78) 
energy

>  <rmsd>  (78) 
2.5213185619394727

>  <m_score__min__rmsd>  (78) 
2.5213185619394727

>  <meeko>  (78) 
{"free_energy": -7.19, "intermolecular_energy": -9.57, "internal_energy": -1.87, "cluster_size": 3, "cluster_id": 3, "rank_in_cluster": 3}

>  <energy>  (78) 
-7.2

>  <cluster_rmsd>  (78) 
1.78

>  <cluster>  (78) 
6

$$$$

     RDKit          3D

 55 58  0  0  0  0  0  0  0  0999 V2000
  139.5150   75.1570  220.4900 O   0  0  0  0  0  0  0  0  0  0  0  0
  140.5680   75.6370  221.0300 C   0  0  0  0  0  0  0  0  0  0  0  0
  141.7550   74.8950  220.8970 N   0  0  0  0  0  0  0  0  0  0  0  0
  141.7310   73.6440  220.1660 C   0  0  0  0  0  0  0  0  0  0  0  0
  141.2780   72.5170  221.0140 C   0  0  0  0  0  0  0  0  0  0  0  0
  142.1140   71.7670  221.5820 O   0  0  0  0  0  0  0  0  0  0  0  0
  139.9090   72.2330  221.2240 N   0  0  0  0  0  0  0  0  0  0  0  0
  138.9390   71.6390  220.2910 C   0  0  0  0  0  0  0  0  0  0  0  0
  137.7580   72.6100  220.4610 C   0  0  0  0  0  0  0  0  0  0  0  0
  137.7100   72.7620  221.9540 C   0  0  0  0  0  0  0  0  0  0  0  0
  139.0920   72.4600  222.4280 C   0  0  1  0  0  0  0  0  0  0  0  0
  139.0560   71.2320  223.2700 C   0  0  0  0  0  0  0  0  0  0  0  0
  140.1500   70.9610  224.0590 C   0  0  0  0  0  0  0  0  0  0  0  0
  140.1610   69.8570  224.8730 C   0  0  0  0  0  0  0  0  0  0  0  0
  139.0680   68.9650  224.9360 C   0  0  0  0  0  0  0  0  0  0  0  0
  139.1960   67.9220  225.7660 O   0  0  0  0  0  0  0  0  0  0  0  0
  139.9430   67.5220  226.8190 C   0  0  0  0  0  0  0  0  0  0  0  0
  140.3540   68.5020  227.8600 C   0  0  0  0  0  0  0  0  0  0  0  0
  139.3570   69.2050  228.4680 F   0  0  0  0  0  0  0  0  0  0  0  0
  141.3670   69.3290  227.3910 F   0  0  0  0  0  0  0  0  0  0  0  0
  140.9640   67.7610  228.8900 F   0  0  0  0  0  0  0  0  0  0  0  0
  138.0080   69.2870  224.1270 C   0  0  0  0  0  0  0  0  0  0  0  0
  137.9690   70.3890  223.3010 C   0  0  0  0  0  0  0  0  0  0  0  0
  140.5090   76.9040  221.7500 C   0  0  0  0  0  0  0  0  0  0  0  0
  139.3160   77.3110  222.3080 C   0  0  0  0  0  0  0  0  0  0  0  0
  139.1760   78.4970  223.0050 C   0  0  0  0  0  0  0  0  0  0  0  0
  140.3190   79.2900  223.1270 C   0  0  0  0  0  0  0  0  0  0  0  0
  140.1900   80.4720  223.8180 C   0  0  0  0  0  0  0  0  0  0  0  0
  141.3120   81.2690  223.9480 C   0  0  0  0  0  0  0  0  0  0  0  0
  142.5410   80.8900  223.3950 C   0  0  0  0  0  0  0  0  0  0  0  0
  142.6260   79.6820  222.7020 C   0  0  0  0  0  0  0  0  0  0  0  0
  141.5080   78.8800  222.5680 C   0  0  0  0  0  0  0  0  0  0  0  0
  141.5770   77.7140  221.9020 N   0  0  0  0  0  0  0  0  0  0  0  0
  142.6530   75.2490  221.3270 H   0  0  0  0  0  0  0  0  0  0  0  0
  141.0452   73.7444  219.3119 H   0  0  0  0  0  0  0  0  0  0  0  0
  142.7552   73.4266  219.8289 H   0  0  0  0  0  0  0  0  0  0  0  0
  139.3176   71.6365  219.2582 H   0  0  0  0  0  0  0  0  0  0  0  0
  138.6981   70.5842  220.4893 H   0  0  0  0  0  0  0  0  0  0  0  0
  137.9539   73.5721  219.9650 H   0  0  0  0  0  0  0  0  0  0  0  0
  136.8171   72.2551  220.0152 H   0  0  0  0  0  0  0  0  0  0  0  0
  137.4253   73.7888  222.2273 H   0  0  0  0  0  0  0  0  0  0  0  0
  136.9659   72.0920  222.4095 H   0  0  0  0  0  0  0  0  0  0  0  0
  139.5101   73.2801  223.0302 H   0  0  0  0  0  0  0  0  0  0  0  0
  141.0204   71.6332  224.0370 H   0  0  0  0  0  0  0  0  0  0  0  0
  141.0469   69.6608  225.4948 H   0  0  0  0  0  0  0  0  0  0  0  0
  139.3705   66.7357  227.3328 H   0  0  0  0  0  0  0  0  0  0  0  0
  140.8977   67.2346  226.3544 H   0  0  0  0  0  0  0  0  0  0  0  0
  137.1319   68.6219  224.1385 H   0  0  0  0  0  0  0  0  0  0  0  0
  137.0853   70.5911  222.6779 H   0  0  0  0  0  0  0  0  0  0  0  0
  138.4349   76.6625  222.1935 H   0  0  0  0  0  0  0  0  0  0  0  0
  138.2129   78.8005  223.4413 H   0  0  0  0  0  0  0  0  0  0  0  0
  139.2257   80.7734  224.2530 H   0  0  0  0  0  0  0  0  0  0  0  0
  141.2377   82.2195  224.4966 H   0  0  0  0  0  0  0  0  0  0  0  0
  143.4257   81.5344  223.5051 H   0  0  0  0  0  0  0  0  0  0  0  0
  143.5837   79.3674  222.2618 H   0  0  0  0  0  0  0  0  0  0  0  0
  1  2  2  0
  2  3  1  0
  3  4  1  0
  4  5  1  0
  5  6  2  0
  5  7  1  0
  7  8  1  0
  8  9  1  0
  9 10  1  0
 10 11  1  0
 11 12  1  0
 12 13  2  0
 13 14  1  0
 14 15  2  0
 15 16  1  0
 16 17  1  0
 17 18  1  0
 18 19  1  0
 18 20  1  0
 18 21  1  0
 15 22  1  0
 22 23  2  0
  2 24  1  0
 24 25  2  0
 25 26  1  0
 26 27  2  0
 27 28  1  0
 28 29  2  0
 29 30  1  0
 30 31  2  0
 31 32  1  0
 32 33  2  0
 11  7  1  0
 23 12  1  0
 33 24  1  0
 32 27  1  0
  3 34  1  0
  4 35  1  0
  4 36  1  0
  8 37  1  0
  8 38  1  0
  9 39  1  0
  9 40  1  0
 10 41  1  0
 10 42  1  0
 11 43  1  1
 13 44  1  0
 14 45  1  0
 17 46  1  0
 17 47  1  0
 22 48  1  0
 23 49  1  0
 25 50  1  0
 26 51  1  0
 28 52  1  0
 29 53  1  0
 30 54  1  0
 31 55  1  0
M  END
>  <smiles>  (79) 
O=C(NCC(=O)N1CCCC1c1ccc(OCC(F)(F)F)cc1)c1ccc2ccccc2n1

>  <score_type>  (79) 
oracle

>  <origin>  (79) 
autodockgpu

>  <m_score__min__energy>  (79) 
-8

>  <m_primary>  (79) 
energy

>  <rmsd>  (79) 
7.593054617264206

>  <m_score__min__rmsd>  (79) 
7.593054617264206

>  <meeko>  (79) 
{"free_energy": -6.92, "intermolecular_energy": -9.31, "internal_energy": -1.9, "cluster_size": 1, "cluster_id": 11, "rank_in_cluster": 1}

>  <energy>  (79) 
-7.08

>  <cluster_rmsd>  (79) 
1.77

>  <cluster>  (79) 
6

$$$$

     RDKit          3D

 55 58  0  0  0  0  0  0  0  0999 V2000
  138.9640   75.1660  221.7570 O   0  0  0  0  0  0  0  0  0  0  0  0
  140.1240   75.6830  221.9000 C   0  0  0  0  0  0  0  0  0  0  0  0
  141.2310   74.8740  221.5870 N   0  0  0  0  0  0  0  0  0  0  0  0
  141.0120   73.5180  221.1260 C   0  0  0  0  0  0  0  0  0  0  0  0
  142.2510   72.9130  220.5840 C   0  0  0  0  0  0  0  0  0  0  0  0
  142.8760   72.0400  221.2410 O   0  0  0  0  0  0  0  0  0  0  0  0
  142.7830   73.2790  219.3260 N   0  0  0  0  0  0  0  0  0  0  0  0
  142.4290   72.7680  217.9930 C   0  0  0  0  0  0  0  0  0  0  0  0
  143.8300   72.5020  217.4140 C   0  0  0  0  0  0  0  0  0  0  0  0
  144.5600   73.7500  217.8190 C   0  0  0  0  0  0  0  0  0  0  0  0
  143.8350   74.2620  219.0190 C   0  0  1  0  0  0  0  0  0  0  0  0
  143.2310   75.5830  218.6900 C   0  0  0  0  0  0  0  0  0  0  0  0
  143.0450   76.4800  219.7170 C   0  0  0  0  0  0  0  0  0  0  0  0
  142.5150   77.7200  219.4680 C   0  0  0  0  0  0  0  0  0  0  0  0
  142.1420   78.1250  218.1680 C   0  0  0  0  0  0  0  0  0  0  0  0
  141.6340   79.3580  218.0490 O   0  0  0  0  0  0  0  0  0  0  0  0
  141.7520   80.5840  218.6060 C   0  0  0  0  0  0  0  0  0  0  0  0
  140.9750   80.9290  219.8260 C   0  0  0  0  0  0  0  0  0  0  0  0
  139.9280   81.7880  219.6630 F   0  0  0  0  0  0  0  0  0  0  0  0
  141.8180   81.3220  220.8580 F   0  0  0  0  0  0  0  0  0  0  0  0
  140.4000   79.7310  220.2890 F   0  0  0  0  0  0  0  0  0  0  0  0
  142.3500   77.1890  217.1870 C   0  0  0  0  0  0  0  0  0  0  0  0
  142.8810   75.9370  217.4080 C   0  0  0  0  0  0  0  0  0  0  0  0
  140.2600   77.0560  222.3690 C   0  0  0  0  0  0  0  0  0  0  0  0
  139.1280   77.7910  222.6490 C   0  0  0  0  0  0  0  0  0  0  0  0
  139.1710   79.0990  223.0990 C   0  0  0  0  0  0  0  0  0  0  0  0
  140.4370   79.6630  223.2630 C   0  0  0  0  0  0  0  0  0  0  0  0
  140.4900   80.9630  223.7090 C   0  0  0  0  0  0  0  0  0  0  0  0
  141.7370   81.5370  223.8790 C   0  0  0  0  0  0  0  0  0  0  0  0
  142.9080   80.8220  223.6050 C   0  0  0  0  0  0  0  0  0  0  0  0
  142.8070   79.5060  223.1550 C   0  0  0  0  0  0  0  0  0  0  0  0
  141.5640   78.9250  222.9830 C   0  0  0  0  0  0  0  0  0  0  0  0
  141.4540   77.6580  222.5490 N   0  0  0  0  0  0  0  0  0  0  0  0
  142.2120   75.2560  221.6890 H   0  0  0  0  0  0  0  0  0  0  0  0
  140.6579   72.9080  221.9701 H   0  0  0  0  0  0  0  0  0  0  0  0
  140.2654   73.5483  220.3187 H   0  0  0  0  0  0  0  0  0  0  0  0
  141.8339   71.8451  218.0567 H   0  0  0  0  0  0  0  0  0  0  0  0
  141.8058   73.4468  217.3923 H   0  0  0  0  0  0  0  0  0  0  0  0
  144.2864   71.6062  217.8604 H   0  0  0  0  0  0  0  0  0  0  0  0
  143.8395   72.3068  216.3315 H   0  0  0  0  0  0  0  0  0  0  0  0
  145.6058   73.5196  218.0705 H   0  0  0  0  0  0  0  0  0  0  0  0
  144.5826   74.4921  217.0074 H   0  0  0  0  0  0  0  0  0  0  0  0
  144.5052   74.3928  219.8814 H   0  0  0  0  0  0  0  0  0  0  0  0
  143.3232   76.2006  220.7439 H   0  0  0  0  0  0  0  0  0  0  0  0
  142.3764   78.4195  220.3056 H   0  0  0  0  0  0  0  0  0  0  0  0
  142.8143   80.7157  218.8594 H   0  0  0  0  0  0  0  0  0  0  0  0
  141.3256   81.2492  217.8407 H   0  0  0  0  0  0  0  0  0  0  0  0
  142.0747   77.4556  216.1559 H   0  0  0  0  0  0  0  0  0  0  0  0
  143.0224   75.2335  216.5743 H   0  0  0  0  0  0  0  0  0  0  0  0
  138.1457   77.3163  222.5084 H   0  0  0  0  0  0  0  0  0  0  0  0
  138.2536   79.6656  223.3165 H   0  0  0  0  0  0  0  0  0  0  0  0
  139.5708   81.5278  223.9235 H   0  0  0  0  0  0  0  0  0  0  0  0
  141.8093   82.5749  224.2362 H   0  0  0  0  0  0  0  0  0  0  0  0
  143.8935   81.2909  223.7425 H   0  0  0  0  0  0  0  0  0  0  0  0
  143.7177   78.9291  222.9365 H   0  0  0  0  0  0  0  0  0  0  0  0
  1  2  2  0
  2  3  1  0
  3  4  1  0
  4  5  1  0
  5  6  2  0
  5  7  1  0
  7  8  1  0
  8  9  1  0
  9 10  1  0
 10 11  1  0
 11 12  1  0
 12 13  2  0
 13 14  1  0
 14 15  2  0
 15 16  1  0
 16 17  1  0
 17 18  1  0
 18 19  1  0
 18 20  1  0
 18 21  1  0
 15 22  1  0
 22 23  2  0
  2 24  1  0
 24 25  2  0
 25 26  1  0
 26 27  2  0
 27 28  1  0
 28 29  2  0
 29 30  1  0
 30 31  2  0
 31 32  1  0
 32 33  2  0
 11  7  1  0
 23 12  1  0
 33 24  1  0
 32 27  1  0
  3 34  1  0
  4 35  1  0
  4 36  1  0
  8 37  1  0
  8 38  1  0
  9 39  1  0
  9 40  1  0
 10 41  1  0
 10 42  1  0
 11 43  1  1
 13 44  1  0
 14 45  1  0
 17 46  1  0
 17 47  1  0
 22 48  1  0
 23 49  1  0
 25 50  1  0
 26 51  1  0
 28 52  1  0
 29 53  1  0
 30 54  1  0
 31 55  1  0
M  END
>  <smiles>  (80) 
O=C(NCC(=O)N1CCCC1c1ccc(OCC(F)(F)F)cc1)c1ccc2ccccc2n1

>  <score_type>  (80) 
oracle

>  <origin>  (80) 
autodockgpu

>  <m_score__min__energy>  (80) 
-8

>  <m_primary>  (80) 
energy

>  <rmsd>  (80) 
7.5014394886415845

>  <m_score__min__rmsd>  (80) 
7.5014394886415845

>  <meeko>  (80) 
{"free_energy": -5.9, "intermolecular_energy": -8.29, "internal_energy": -2.85, "cluster_size": 3, "cluster_id": 12, "rank_in_cluster": 3}

>  <energy>  (80) 
-7.04

>  <cluster_rmsd>  (80) 
1.91

>  <cluster>  (80) 
6

$$$$

     RDKit          3D

 55 58  0  0  0  0  0  0  0  0999 V2000
  141.0470   78.5420  218.2830 O   0  0  0  0  0  0  0  0  0  0  0  0
  141.7960   78.1520  219.2420 C   0  0  0  0  0  0  0  0  0  0  0  0
  142.2010   79.1220  220.1770 N   0  0  0  0  0  0  0  0  0  0  0  0
  141.7600   80.4920  220.0150 C   0  0  0  0  0  0  0  0  0  0  0  0
  141.1180   81.0150  221.2430 C   0  0  0  0  0  0  0  0  0  0  0  0
  141.6040   82.0060  221.8470 O   0  0  0  0  0  0  0  0  0  0  0  0
  139.9490   80.4360  221.7890 N   0  0  0  0  0  0  0  0  0  0  0  0
  138.5760   80.4610  221.2600 C   0  0  0  0  0  0  0  0  0  0  0  0
  137.7960   80.8540  222.5270 C   0  0  0  0  0  0  0  0  0  0  0  0
  138.4300   79.9620  223.5550 C   0  0  0  0  0  0  0  0  0  0  0  0
  139.7950   79.6610  223.0310 C   0  0  1  0  0  0  0  0  0  0  0  0
  139.8930   78.2020  222.7490 C   0  0  0  0  0  0  0  0  0  0  0  0
  138.7250   77.4750  222.7040 C   0  0  0  0  0  0  0  0  0  0  0  0
  138.7550   76.1330  222.4240 C   0  0  0  0  0  0  0  0  0  0  0  0
  139.9640   75.4490  222.1730 C   0  0  0  0  0  0  0  0  0  0  0  0
  139.8660   74.1390  221.9130 O   0  0  0  0  0  0  0  0  0  0  0  0
  140.5730   72.9980  222.0660 C   0  0  0  0  0  0  0  0  0  0  0  0
  140.0540   71.9070  222.9340 C   0  0  0  0  0  0  0  0  0  0  0  0
  140.4370   71.9280  224.2420 F   0  0  0  0  0  0  0  0  0  0  0  0
  140.2610   70.6640  222.3480 F   0  0  0  0  0  0  0  0  0  0  0  0
  138.6530   72.0460  222.9580 F   0  0  0  0  0  0  0  0  0  0  0  0
  141.0930   76.2260  222.2320 C   0  0  0  0  0  0  0  0  0  0  0  0
  141.0940   77.5750  222.5100 C   0  0  0  0  0  0  0  0  0  0  0  0
  142.1970   76.7530  219.3350 C   0  0  0  0  0  0  0  0  0  0  0  0
  141.3500   75.7740  218.8610 C   0  0  0  0  0  0  0  0  0  0  0  0
  141.6550   74.4260  218.9120 C   0  0  0  0  0  0  0  0  0  0  0  0
  142.8850   74.0830  219.4760 C   0  0  0  0  0  0  0  0  0  0  0  0
  143.1970   72.7450  219.5310 C   0  0  0  0  0  0  0  0  0  0  0  0
  144.4120   72.3880  220.0870 C   0  0  0  0  0  0  0  0  0  0  0  0
  145.2980   73.3530  220.5790 C   0  0  0  0  0  0  0  0  0  0  0  0
  144.9400   74.6990  220.5020 C   0  0  0  0  0  0  0  0  0  0  0  0
  143.7270   75.0640  219.9480 C   0  0  0  0  0  0  0  0  0  0  0  0
  143.3710   76.3580  219.8680 N   0  0  0  0  0  0  0  0  0  0  0  0
  142.8210   78.8490  220.9880 H   0  0  0  0  0  0  0  0  0  0  0  0
  142.6307   81.1196  219.7741 H   0  0  0  0  0  0  0  0  0  0  0  0
  141.0164   80.5170  219.2048 H   0  0  0  0  0  0  0  0  0  0  0  0
  138.4611   81.2106  220.4632 H   0  0  0  0  0  0  0  0  0  0  0  0
  138.2474   79.5214  220.7917 H   0  0  0  0  0  0  0  0  0  0  0  0
  137.9385   81.9165  222.7736 H   0  0  0  0  0  0  0  0  0  0  0  0
  136.7061   80.7341  222.4389 H   0  0  0  0  0  0  0  0  0  0  0  0
  138.4950   80.4777  224.5245 H   0  0  0  0  0  0  0  0  0  0  0  0
  137.8436   79.0459  223.7192 H   0  0  0  0  0  0  0  0  0  0  0  0
  140.5817   79.9271  223.7523 H   0  0  0  0  0  0  0  0  0  0  0  0
  137.7627   77.9731  222.8936 H   0  0  0  0  0  0  0  0  0  0  0  0
  137.8088   75.5728  222.3941 H   0  0  0  0  0  0  0  0  0  0  0  0
  140.7028   72.5688  221.0615 H   0  0  0  0  0  0  0  0  0  0  0  0
  141.4767   73.3322  222.5967 H   0  0  0  0  0  0  0  0  0  0  0  0
  142.0617   75.7395  222.0449 H   0  0  0  0  0  0  0  0  0  0  0  0
  142.0371   78.1403  222.5403 H   0  0  0  0  0  0  0  0  0  0  0  0
  140.3883   76.0787  218.4225 H   0  0  0  0  0  0  0  0  0  0  0  0
  140.9630   73.6624  218.5274 H   0  0  0  0  0  0  0  0  0  0  0  0
  142.5031   71.9836  219.1455 H   0  0  0  0  0  0  0  0  0  0  0  0
  144.6873   71.3245  220.1436 H   0  0  0  0  0  0  0  0  0  0  0  0
  146.2610   73.0550  221.0192 H   0  0  0  0  0  0  0  0  0  0  0  0
  145.6242   75.4716  220.8828 H   0  0  0  0  0  0  0  0  0  0  0  0
  1  2  2  0
  2  3  1  0
  3  4  1  0
  4  5  1  0
  5  6  2  0
  5  7  1  0
  7  8  1  0
  8  9  1  0
  9 10  1  0
 10 11  1  0
 11 12  1  0
 12 13  2  0
 13 14  1  0
 14 15  2  0
 15 16  1  0
 16 17  1  0
 17 18  1  0
 18 19  1  0
 18 20  1  0
 18 21  1  0
 15 22  1  0
 22 23  2  0
  2 24  1  0
 24 25  2  0
 25 26  1  0
 26 27  2  0
 27 28  1  0
 28 29  2  0
 29 30  1  0
 30 31  2  0
 31 32  1  0
 32 33  2  0
 11  7  1  0
 23 12  1  0
 33 24  1  0
 32 27  1  0
  3 34  1  0
  4 35  1  0
  4 36  1  0
  8 37  1  0
  8 38  1  0
  9 39  1  0
  9 40  1  0
 10 41  1  0
 10 42  1  0
 11 43  1  1
 13 44  1  0
 14 45  1  0
 17 46  1  0
 17 47  1  0
 22 48  1  0
 23 49  1  0
 25 50  1  0
 26 51  1  0
 28 52  1  0
 29 53  1  0
 30 54  1  0
 31 55  1  0
M  END
>  <smiles>  (81) 
O=C(NCC(=O)N1CCCC1c1ccc(OCC(F)(F)F)cc1)c1ccc2ccccc2n1

>  <score_type>  (81) 
oracle

>  <origin>  (81) 
autodockgpu

>  <m_score__min__energy>  (81) 
-8

>  <m_primary>  (81) 
energy

>  <rmsd>  (81) 
7.630233583694651

>  <m_score__min__rmsd>  (81) 
7.630233583694651

>  <meeko>  (81) 
{"free_energy": -5.93, "intermolecular_energy": -8.32, "internal_energy": -2.8, "cluster_size": 3, "cluster_id": 13, "rank_in_cluster": 3}

>  <energy>  (81) 
-7.03

>  <cluster_rmsd>  (81) 
1.79

>  <cluster>  (81) 
6

$$$$

     RDKit          3D

 55 58  0  0  0  0  0  0  0  0999 V2000
  138.3540   72.4010  222.0630 O   0  0  0  0  0  0  0  0  0  0  0  0
  139.4580   72.2670  222.6930 C   0  0  0  0  0  0  0  0  0  0  0  0
  140.5060   73.1400  222.3480 N   0  0  0  0  0  0  0  0  0  0  0  0
  140.2920   74.1340  221.3160 C   0  0  0  0  0  0  0  0  0  0  0  0
  139.7080   75.3800  221.8630 C   0  0  0  0  0  0  0  0  0  0  0  0
  138.7420   75.3340  222.6690 O   0  0  0  0  0  0  0  0  0  0  0  0
  140.1960   76.6600  221.5120 N   0  0  0  0  0  0  0  0  0  0  0  0
  140.2340   77.2990  220.1870 C   0  0  0  0  0  0  0  0  0  0  0  0
  141.6830   77.8170  220.1690 C   0  0  0  0  0  0  0  0  0  0  0  0
  141.8040   78.4100  221.5440 C   0  0  0  0  0  0  0  0  0  0  0  0
  140.7990   77.6880  222.3770 C   0  0  1  0  0  0  0  0  0  0  0  0
  139.7630   78.6570  222.8310 C   0  0  0  0  0  0  0  0  0  0  0  0
  138.4410   78.3080  222.6720 C   0  0  0  0  0  0  0  0  0  0  0  0
  137.4460   79.1510  223.0950 C   0  0  0  0  0  0  0  0  0  0  0  0
  137.7280   80.3940  223.7010 C   0  0  0  0  0  0  0  0  0  0  0  0
  136.6730   81.1320  224.0700 O   0  0  0  0  0  0  0  0  0  0  0  0
  135.8530   81.3080  225.1300 C   0  0  0  0  0  0  0  0  0  0  0  0
  136.3520   81.9860  226.3570 C   0  0  0  0  0  0  0  0  0  0  0  0
  137.6670   82.3440  226.3680 F   0  0  0  0  0  0  0  0  0  0  0  0
  135.9920   81.2780  227.4970 F   0  0  0  0  0  0  0  0  0  0  0  0
  135.6390   83.1950  226.4650 F   0  0  0  0  0  0  0  0  0  0  0  0
  139.0620   80.6870  223.8320 C   0  0  0  0  0  0  0  0  0  0  0  0
  140.0820   79.8590  223.4180 C   0  0  0  0  0  0  0  0  0  0  0  0
  139.5940   71.2410  223.7200 C   0  0  0  0  0  0  0  0  0  0  0  0
  139.1050   69.9740  223.4800 C   0  0  0  0  0  0  0  0  0  0  0  0
  139.1940   68.9460  224.4010 C   0  0  0  0  0  0  0  0  0  0  0  0
  139.8140   69.2450  225.6150 C   0  0  0  0  0  0  0  0  0  0  0  0
  139.9070   68.2290  226.5370 C   0  0  0  0  0  0  0  0  0  0  0  0
  140.5190   68.5090  227.7460 C   0  0  0  0  0  0  0  0  0  0  0  0
  141.0280   69.7820  228.0250 C   0  0  0  0  0  0  0  0  0  0  0  0
  140.9120   70.7820  227.0600 C   0  0  0  0  0  0  0  0  0  0  0  0
  140.3010   70.5110  225.8500 C   0  0  0  0  0  0  0  0  0  0  0  0
  140.1830   71.4660  224.9120 N   0  0  0  0  0  0  0  0  0  0  0  0
  141.4390   73.0680  222.8400 H   0  0  0  0  0  0  0  0  0  0  0  0
  141.2572   74.3706  220.8444 H   0  0  0  0  0  0  0  0  0  0  0  0
  139.5844   73.7184  220.5835 H   0  0  0  0  0  0  0  0  0  0  0  0
  140.0517   76.5735  219.3805 H   0  0  0  0  0  0  0  0  0  0  0  0
  139.4680   78.0723  220.0281 H   0  0  0  0  0  0  0  0  0  0  0  0
  142.4013   76.9973  220.0199 H   0  0  0  0  0  0  0  0  0  0  0  0
  141.8972   78.5243  219.3542 H   0  0  0  0  0  0  0  0  0  0  0  0
  142.8174   78.2541  221.9425 H   0  0  0  0  0  0  0  0  0  0  0  0
  141.6264   79.4956  221.5383 H   0  0  0  0  0  0  0  0  0  0  0  0
  141.2547   77.2268  223.2656 H   0  0  0  0  0  0  0  0  0  0  0  0
  138.1815   77.3475  222.2030 H   0  0  0  0  0  0  0  0  0  0  0  0
  136.3970   78.8497  222.9580 H   0  0  0  0  0  0  0  0  0  0  0  0
  134.9935   81.8937  224.7718 H   0  0  0  0  0  0  0  0  0  0  0  0
  135.6605   80.2803  225.4718 H   0  0  0  0  0  0  0  0  0  0  0  0
  139.3347   81.6454  224.2979 H   0  0  0  0  0  0  0  0  0  0  0  0
  141.1329   80.1540  223.5545 H   0  0  0  0  0  0  0  0  0  0  0  0
  138.6224   69.7719  222.5124 H   0  0  0  0  0  0  0  0  0  0  0  0
  138.7961   67.9430  224.1873 H   0  0  0  0  0  0  0  0  0  0  0  0
  139.5081   67.2270  226.3206 H   0  0  0  0  0  0  0  0  0  0  0  0
  140.6070   67.7153  228.5025 H   0  0  0  0  0  0  0  0  0  0  0  0
  141.5121   69.9908  228.9904 H   0  0  0  0  0  0  0  0  0  0  0  0
  141.3075   71.7884  227.2620 H   0  0  0  0  0  0  0  0  0  0  0  0
  1  2  2  0
  2  3  1  0
  3  4  1  0
  4  5  1  0
  5  6  2  0
  5  7  1  0
  7  8  1  0
  8  9  1  0
  9 10  1  0
 10 11  1  0
 11 12  1  0
 12 13  2  0
 13 14  1  0
 14 15  2  0
 15 16  1  0
 16 17  1  0
 17 18  1  0
 18 19  1  0
 18 20  1  0
 18 21  1  0
 15 22  1  0
 22 23  2  0
  2 24  1  0
 24 25  2  0
 25 26  1  0
 26 27  2  0
 27 28  1  0
 28 29  2  0
 29 30  1  0
 30 31  2  0
 31 32  1  0
 32 33  2  0
 11  7  1  0
 23 12  1  0
 33 24  1  0
 32 27  1  0
  3 34  1  0
  4 35  1  0
  4 36  1  0
  8 37  1  0
  8 38  1  0
  9 39  1  0
  9 40  1  0
 10 41  1  0
 10 42  1  0
 11 43  1  1
 13 44  1  0
 14 45  1  0
 17 46  1  0
 17 47  1  0
 22 48  1  0
 23 49  1  0
 25 50  1  0
 26 51  1  0
 28 52  1  0
 29 53  1  0
 30 54  1  0
 31 55  1  0
M  END
>  <smiles>  (82) 
O=C(NCC(=O)N1CCCC1c1ccc(OCC(F)(F)F)cc1)c1ccc2ccccc2n1

>  <score_type>  (82) 
oracle

>  <origin>  (82) 
autodockgpu

>  <m_score__min__energy>  (82) 
-8

>  <m_primary>  (82) 
energy

>  <rmsd>  (82) 
2.2890408105705538

>  <m_score__min__rmsd>  (82) 
2.2890408105705538

>  <meeko>  (82) 
{"free_energy": -7.31, "intermolecular_energy": -9.69, "internal_energy": -1.38, "cluster_size": 9, "cluster_id": 1, "rank_in_cluster": 8}

>  <energy>  (82) 
-6.94

>  <cluster_rmsd>  (82) 
1.85

>  <cluster>  (82) 
6

$$$$

     RDKit          3D

 55 58  0  0  0  0  0  0  0  0999 V2000
  141.2300   78.2140  218.1780 O   0  0  0  0  0  0  0  0  0  0  0  0
  141.8890   77.9000  219.2270 C   0  0  0  0  0  0  0  0  0  0  0  0
  142.1700   78.9310  220.1430 N   0  0  0  0  0  0  0  0  0  0  0  0
  141.7080   80.2750  219.8620 C   0  0  0  0  0  0  0  0  0  0  0  0
  141.2320   80.9620  221.0850 C   0  0  0  0  0  0  0  0  0  0  0  0
  141.8120   81.9970  221.5030 O   0  0  0  0  0  0  0  0  0  0  0  0
  140.1240   80.4970  221.8300 N   0  0  0  0  0  0  0  0  0  0  0  0
  138.6900   80.7010  221.5710 C   0  0  0  0  0  0  0  0  0  0  0  0
  138.2110   81.1240  222.9700 C   0  0  0  0  0  0  0  0  0  0  0  0
  138.9140   80.1220  223.8410 C   0  0  0  0  0  0  0  0  0  0  0  0
  140.1110   79.6920  223.0630 C   0  0  1  0  0  0  0  0  0  0  0  0
  139.9800   78.2450  222.7360 C   0  0  0  0  0  0  0  0  0  0  0  0
  141.1330   77.5010  222.6310 C   0  0  0  0  0  0  0  0  0  0  0  0
  141.0700   76.1590  222.3560 C   0  0  0  0  0  0  0  0  0  0  0  0
  139.8400   75.4920  222.1720 C   0  0  0  0  0  0  0  0  0  0  0  0
  139.9050   74.1810  221.9070 O   0  0  0  0  0  0  0  0  0  0  0  0
  139.3780   73.0110  222.3310 C   0  0  0  0  0  0  0  0  0  0  0  0
  140.2660   71.9220  222.8170 C   0  0  0  0  0  0  0  0  0  0  0  0
  140.4930   71.8690  224.1600 F   0  0  0  0  0  0  0  0  0  0  0  0
  141.4470   71.8800  222.0850 F   0  0  0  0  0  0  0  0  0  0  0  0
  139.6240   70.7100  222.5030 F   0  0  0  0  0  0  0  0  0  0  0  0
  138.7260   76.2840  222.2880 C   0  0  0  0  0  0  0  0  0  0  0  0
  138.7590   77.6340  222.5640 C   0  0  0  0  0  0  0  0  0  0  0  0
  142.3190   76.5230  219.4370 C   0  0  0  0  0  0  0  0  0  0  0  0
  141.4510   75.4920  219.1460 C   0  0  0  0  0  0  0  0  0  0  0  0
  141.7810   74.1590  219.3160 C   0  0  0  0  0  0  0  0  0  0  0  0
  143.0600   73.8890  219.8070 C   0  0  0  0  0  0  0  0  0  0  0  0
  143.3970   72.5670  219.9800 C   0  0  0  0  0  0  0  0  0  0  0  0
  144.6600   72.2810  220.4650 C   0  0  0  0  0  0  0  0  0  0  0  0
  145.5680   73.3010  220.7720 C   0  0  0  0  0  0  0  0  0  0  0  0
  145.1840   74.6280  220.5800 C   0  0  0  0  0  0  0  0  0  0  0  0
  143.9230   74.9210  220.0960 C   0  0  0  0  0  0  0  0  0  0  0  0
  143.5400   76.1960  219.9070 N   0  0  0  0  0  0  0  0  0  0  0  0
  142.7130   78.7220  221.0250 H   0  0  0  0  0  0  0  0  0  0  0  0
  142.5377   80.8532  219.4293 H   0  0  0  0  0  0  0  0  0  0  0  0
  140.8644   80.2058  219.1594 H   0  0  0  0  0  0  0  0  0  0  0  0
  138.5202   81.4930  220.8267 H   0  0  0  0  0  0  0  0  0  0  0  0
  138.1703   79.8262  221.1532 H   0  0  0  0  0  0  0  0  0  0  0  0
  138.5222   82.1519  223.2078 H   0  0  0  0  0  0  0  0  0  0  0  0
  137.1173   81.1318  223.0870 H   0  0  0  0  0  0  0  0  0  0  0  0
  139.2185   80.5847  224.7913 H   0  0  0  0  0  0  0  0  0  0  0  0
  138.2633   79.2719  224.0938 H   0  0  0  0  0  0  0  0  0  0  0  0
  141.0433   79.8364  223.6286 H   0  0  0  0  0  0  0  0  0  0  0  0
  142.1109   77.9856  222.7685 H   0  0  0  0  0  0  0  0  0  0  0  0
  142.0054   75.5857  222.2765 H   0  0  0  0  0  0  0  0  0  0  0  0
  138.6934   73.2534  223.1572 H   0  0  0  0  0  0  0  0  0  0  0  0
  138.9407   72.5871  221.4150 H   0  0  0  0  0  0  0  0  0  0  0  0
  137.7423   75.8109  222.1519 H   0  0  0  0  0  0  0  0  0  0  0  0
  137.8268   78.2122  222.6453 H   0  0  0  0  0  0  0  0  0  0  0  0
  140.4509   75.7404  218.7613 H   0  0  0  0  0  0  0  0  0  0  0  0
  141.0718   73.3530  219.0765 H   0  0  0  0  0  0  0  0  0  0  0  0
  142.6852   71.7633  219.7404 H   0  0  0  0  0  0  0  0  0  0  0  0
  144.9567   71.2321  220.6123 H   0  0  0  0  0  0  0  0  0  0  0  0
  146.5691   73.0597  221.1588 H   0  0  0  0  0  0  0  0  0  0  0  0
  145.8855   75.4423  220.8140 H   0  0  0  0  0  0  0  0  0  0  0  0
  1  2  2  0
  2  3  1  0
  3  4  1  0
  4  5  1  0
  5  6  2  0
  5  7  1  0
  7  8  1  0
  8  9  1  0
  9 10  1  0
 10 11  1  0
 11 12  1  0
 12 13  2  0
 13 14  1  0
 14 15  2  0
 15 16  1  0
 16 17  1  0
 17 18  1  0
 18 19  1  0
 18 20  1  0
 18 21  1  0
 15 22  1  0
 22 23  2  0
  2 24  1  0
 24 25  2  0
 25 26  1  0
 26 27  2  0
 27 28  1  0
 28 29  2  0
 29 30  1  0
 30 31  2  0
 31 32  1  0
 32 33  2  0
 11  7  1  0
 23 12  1  0
 33 24  1  0
 32 27  1  0
  3 34  1  0
  4 35  1  0
  4 36  1  0
  8 37  1  0
  8 38  1  0
  9 39  1  0
  9 40  1  0
 10 41  1  0
 10 42  1  0
 11 43  1  1
 13 44  1  0
 14 45  1  0
 17 46  1  0
 17 47  1  0
 22 48  1  0
 23 49  1  0
 25 50  1  0
 26 51  1  0
 28 52  1  0
 29 53  1  0
 30 54  1  0
 31 55  1  0
M  END
>  <smiles>  (83) 
O=C(NCC(=O)N1CCCC1c1ccc(OCC(F)(F)F)cc1)c1ccc2ccccc2n1

>  <score_type>  (83) 
oracle

>  <origin>  (83) 
autodockgpu

>  <m_score__min__energy>  (83) 
-8

>  <m_primary>  (83) 
energy

>  <rmsd>  (83) 
7.5449319624043385

>  <m_score__min__rmsd>  (83) 
7.5449319624043385

>  <meeko>  (83) 
{"free_energy": -6.42, "intermolecular_energy": -8.8, "internal_energy": -2.75, "cluster_size": 3, "cluster_id": 13, "rank_in_cluster": 1}

>  <energy>  (83) 
-7.16

>  <cluster_rmsd>  (83) 
0.0

>  <cluster>  (83) 
7

$$$$

     RDKit          3D

 55 58  0  0  0  0  0  0  0  0999 V2000
  140.8210   77.9030  217.8540 O   0  0  0  0  0  0  0  0  0  0  0  0
  141.8560   78.1050  218.5770 C   0  0  0  0  0  0  0  0  0  0  0  0
  143.0100   77.3620  218.2690 N   0  0  0  0  0  0  0  0  0  0  0  0
  142.9760   76.4210  217.1680 C   0  0  0  0  0  0  0  0  0  0  0  0
  143.0480   75.0180  217.6390 C   0  0  0  0  0  0  0  0  0  0  0  0
  143.1380   74.0710  216.8140 O   0  0  0  0  0  0  0  0  0  0  0  0
  143.0180   74.6790  219.0110 N   0  0  0  0  0  0  0  0  0  0  0  0
  144.0420   74.9190  220.0410 C   0  0  0  0  0  0  0  0  0  0  0  0
  144.1040   73.5310  220.7020 C   0  0  0  0  0  0  0  0  0  0  0  0
  142.6450   73.1990  220.8330 C   0  0  0  0  0  0  0  0  0  0  0  0
  141.9600   73.9920  219.7710 C   0  0  1  0  0  0  0  0  0  0  0  0
  141.0570   74.9840  220.4150 C   0  0  0  0  0  0  0  0  0  0  0  0
  141.4520   75.5300  221.6150 C   0  0  0  0  0  0  0  0  0  0  0  0
  140.6700   76.4670  222.2410 C   0  0  0  0  0  0  0  0  0  0  0  0
  139.4460   76.9050  221.6920 C   0  0  0  0  0  0  0  0  0  0  0  0
  138.7700   77.8220  222.3960 O   0  0  0  0  0  0  0  0  0  0  0  0
  138.4030   79.1210  222.3210 C   0  0  0  0  0  0  0  0  0  0  0  0
  138.6140   80.0260  223.4830 C   0  0  0  0  0  0  0  0  0  0  0  0
  138.8170   81.3450  223.2040 F   0  0  0  0  0  0  0  0  0  0  0  0
  139.5830   79.5170  224.3400 F   0  0  0  0  0  0  0  0  0  0  0  0
  137.4290   79.9870  224.2420 F   0  0  0  0  0  0  0  0  0  0  0  0
  139.1050   76.3260  220.4970 C   0  0  0  0  0  0  0  0  0  0  0  0
  139.8710   75.3830  219.8450 C   0  0  0  0  0  0  0  0  0  0  0  0
  141.8090   79.0710  219.6670 C   0  0  0  0  0  0  0  0  0  0  0  0
  141.3470   80.3460  219.4230 C   0  0  0  0  0  0  0  0  0  0  0  0
  141.2700   81.3210  220.4010 C   0  0  0  0  0  0  0  0  0  0  0  0
  141.6900   80.9560  221.6820 C   0  0  0  0  0  0  0  0  0  0  0  0
  141.6180   81.9180  222.6620 C   0  0  0  0  0  0  0  0  0  0  0  0
  142.0300   81.5730  223.9360 C   0  0  0  0  0  0  0  0  0  0  0  0
  142.5050   80.2880  224.2230 C   0  0  0  0  0  0  0  0  0  0  0  0
  142.5600   79.3440  223.1980 C   0  0  0  0  0  0  0  0  0  0  0  0
  142.1500   79.6810  221.9220 C   0  0  0  0  0  0  0  0  0  0  0  0
  142.1990   78.7800  220.9250 N   0  0  0  0  0  0  0  0  0  0  0  0
  143.8910   77.4930  218.8380 H   0  0  0  0  0  0  0  0  0  0  0  0
  142.0390   76.5610  216.6091 H   0  0  0  0  0  0  0  0  0  0  0  0
  143.8507   76.6118  216.5289 H   0  0  0  0  0  0  0  0  0  0  0  0
  145.0077   75.2005  219.5959 H   0  0  0  0  0  0  0  0  0  0  0  0
  143.8146   75.7456  220.7302 H   0  0  0  0  0  0  0  0  0  0  0  0
  144.6261   72.8040  220.0626 H   0  0  0  0  0  0  0  0  0  0  0  0
  144.6568   73.5103  221.6528 H   0  0  0  0  0  0  0  0  0  0  0  0
  142.4799   72.1228  220.6763 H   0  0  0  0  0  0  0  0  0  0  0  0
  142.2597   73.4393  221.8349 H   0  0  0  0  0  0  0  0  0  0  0  0
  141.3567   73.3560  219.1065 H   0  0  0  0  0  0  0  0  0  0  0  0
  142.3999   75.2133  222.0745 H   0  0  0  0  0  0  0  0  0  0  0  0
  141.0069   76.8895  223.1991 H   0  0  0  0  0  0  0  0  0  0  0  0
  138.9545   79.5576  221.4753 H   0  0  0  0  0  0  0  0  0  0  0  0
  137.3073   79.0679  222.2400 H   0  0  0  0  0  0  0  0  0  0  0  0
  138.1588   76.6337  220.0279 H   0  0  0  0  0  0  0  0  0  0  0  0
  139.5394   74.9576  218.8863 H   0  0  0  0  0  0  0  0  0  0  0  0
  141.0243   80.6003  218.4026 H   0  0  0  0  0  0  0  0  0  0  0  0
  140.8970   82.3322  220.1811 H   0  0  0  0  0  0  0  0  0  0  0  0
  141.2449   82.9287  222.4397 H   0  0  0  0  0  0  0  0  0  0  0  0
  141.9836   82.3228  224.7395 H   0  0  0  0  0  0  0  0  0  0  0  0
  142.8298   80.0269  225.2410 H   0  0  0  0  0  0  0  0  0  0  0  0
  142.9304   78.3293  223.4055 H   0  0  0  0  0  0  0  0  0  0  0  0
  1  2  2  0
  2  3  1  0
  3  4  1  0
  4  5  1  0
  5  6  2  0
  5  7  1  0
  7  8  1  0
  8  9  1  0
  9 10  1  0
 10 11  1  0
 11 12  1  0
 12 13  2  0
 13 14  1  0
 14 15  2  0
 15 16  1  0
 16 17  1  0
 17 18  1  0
 18 19  1  0
 18 20  1  0
 18 21  1  0
 15 22  1  0
 22 23  2  0
  2 24  1  0
 24 25  2  0
 25 26  1  0
 26 27  2  0
 27 28  1  0
 28 29  2  0
 29 30  1  0
 30 31  2  0
 31 32  1  0
 32 33  2  0
 11  7  1  0
 23 12  1  0
 33 24  1  0
 32 27  1  0
  3 34  1  0
  4 35  1  0
  4 36  1  0
  8 37  1  0
  8 38  1  0
  9 39  1  0
  9 40  1  0
 10 41  1  0
 10 42  1  0
 11 43  1  6
 13 44  1  0
 14 45  1  0
 17 46  1  0
 17 47  1  0
 22 48  1  0
 23 49  1  0
 25 50  1  0
 26 51  1  0
 28 52  1  0
 29 53  1  0
 30 54  1  0
 31 55  1  0
M  END
>  <smiles>  (84) 
O=C(NCC(=O)N1CCCC1c1ccc(OCC(F)(F)F)cc1)c1ccc2ccccc2n1

>  <score_type>  (84) 
oracle

>  <origin>  (84) 
autodockgpu

>  <m_score__min__energy>  (84) 
-8

>  <m_primary>  (84) 
energy

>  <rmsd>  (84) 
8.946785627910137

>  <m_score__min__rmsd>  (84) 
8.946785627910137

>  <meeko>  (84) 
{"free_energy": -5.63, "intermolecular_energy": -8.01, "internal_energy": -3.39, "cluster_size": 7, "cluster_id": 14, "rank_in_cluster": 1}

>  <energy>  (84) 
-7.08

>  <cluster_rmsd>  (84) 
0.0

>  <cluster>  (84) 
8

$$$$

     RDKit          3D

 55 58  0  0  0  0  0  0  0  0999 V2000
  138.4410   70.4570  221.6020 O   0  0  0  0  0  0  0  0  0  0  0  0
  138.7580   71.2490  222.5540 C   0  0  0  0  0  0  0  0  0  0  0  0
  138.6210   72.6280  222.3140 N   0  0  0  0  0  0  0  0  0  0  0  0
  138.1370   73.0810  221.0260 C   0  0  0  0  0  0  0  0  0  0  0  0
  139.0590   72.7080  219.9270 C   0  0  0  0  0  0  0  0  0  0  0  0
  138.6460   72.0380  218.9460 O   0  0  0  0  0  0  0  0  0  0  0  0
  140.4230   73.0780  219.9280 N   0  0  0  0  0  0  0  0  0  0  0  0
  141.3810   73.0660  218.8100 C   0  0  0  0  0  0  0  0  0  0  0  0
  142.5790   72.3670  219.4770 C   0  0  0  0  0  0  0  0  0  0  0  0
  142.6340   73.0710  220.8030 C   0  0  0  0  0  0  0  0  0  0  0  0
  141.2480   73.5680  221.0450 C   0  0  1  0  0  0  0  0  0  0  0  0
  141.2650   75.0570  221.0640 C   0  0  0  0  0  0  0  0  0  0  0  0
  140.3290   75.7020  221.8390 C   0  0  0  0  0  0  0  0  0  0  0  0
  140.3140   77.0710  221.9120 C   0  0  0  0  0  0  0  0  0  0  0  0
  141.2430   77.8670  221.2070 C   0  0  0  0  0  0  0  0  0  0  0  0
  141.1290   79.1930  221.3560 O   0  0  0  0  0  0  0  0  0  0  0  0
  141.8290   80.2450  221.8340 C   0  0  0  0  0  0  0  0  0  0  0  0
  142.3480   80.2280  223.2280 C   0  0  0  0  0  0  0  0  0  0  0  0
  143.6720   80.5090  223.3930 F   0  0  0  0  0  0  0  0  0  0  0  0
  141.9760   79.0590  223.8820 F   0  0  0  0  0  0  0  0  0  0  0  0
  141.6660   81.2430  223.9240 F   0  0  0  0  0  0  0  0  0  0  0  0
  142.1510   77.1680  220.4530 C   0  0  0  0  0  0  0  0  0  0  0  0
  142.1900   75.7940  220.3610 C   0  0  0  0  0  0  0  0  0  0  0  0
  139.2370   70.7150  223.8220 C   0  0  0  0  0  0  0  0  0  0  0  0
  139.1580   69.3590  224.0580 C   0  0  0  0  0  0  0  0  0  0  0  0
  139.5910   68.7720  225.2340 C   0  0  0  0  0  0  0  0  0  0  0  0
  140.1250   69.6270  226.2000 C   0  0  0  0  0  0  0  0  0  0  0  0
  140.5570   69.0530  227.3730 C   0  0  0  0  0  0  0  0  0  0  0  0
  141.0900   69.8860  228.3400 C   0  0  0  0  0  0  0  0  0  0  0  0
  141.1860   71.2670  228.1370 C   0  0  0  0  0  0  0  0  0  0  0  0
  140.7350   71.8060  226.9320 C   0  0  0  0  0  0  0  0  0  0  0  0
  140.2020   70.9800  225.9600 C   0  0  0  0  0  0  0  0  0  0  0  0
  139.7630   71.4870  224.7950 N   0  0  0  0  0  0  0  0  0  0  0  0
  138.8710   73.3250  223.0700 H   0  0  0  0  0  0  0  0  0  0  0  0
  137.1539   72.6259  220.8354 H   0  0  0  0  0  0  0  0  0  0  0  0
  138.0670   74.1784  221.0547 H   0  0  0  0  0  0  0  0  0  0  0  0
  140.9994   72.4900  217.9540 H   0  0  0  0  0  0  0  0  0  0  0  0
  141.6048   74.0563  218.3866 H   0  0  0  0  0  0  0  0  0  0  0  0
  142.3976   71.2892  219.6012 H   0  0  0  0  0  0  0  0  0  0  0  0
  143.5126   72.4257  218.8982 H   0  0  0  0  0  0  0  0  0  0  0  0
  142.9367   72.3728  221.5973 H   0  0  0  0  0  0  0  0  0  0  0  0
  143.3681   73.8902  220.8013 H   0  0  0  0  0  0  0  0  0  0  0  0
  140.8458   73.2145  222.0059 H   0  0  0  0  0  0  0  0  0  0  0  0
  139.5885   75.1161  222.4032 H   0  0  0  0  0  0  0  0  0  0  0  0
  139.5558   77.5638  222.5383 H   0  0  0  0  0  0  0  0  0  0  0  0
  142.6996   80.3721  221.1737 H   0  0  0  0  0  0  0  0  0  0  0  0
  141.0833   81.0534  221.8543 H   0  0  0  0  0  0  0  0  0  0  0  0
  142.8971   77.7424  219.8844 H   0  0  0  0  0  0  0  0  0  0  0  0
  142.9465   75.2955  219.7372 H   0  0  0  0  0  0  0  0  0  0  0  0
  138.7312   68.7141  223.2757 H   0  0  0  0  0  0  0  0  0  0  0  0
  139.5182   67.6869  225.3993 H   0  0  0  0  0  0  0  0  0  0  0  0
  140.4811   67.9679  227.5365 H   0  0  0  0  0  0  0  0  0  0  0  0
  141.4454   69.4543  229.2873 H   0  0  0  0  0  0  0  0  0  0  0  0
  141.6106   71.9177  228.9156 H   0  0  0  0  0  0  0  0  0  0  0  0
  140.8035   72.8895  226.7550 H   0  0  0  0  0  0  0  0  0  0  0  0
  1  2  2  0
  2  3  1  0
  3  4  1  0
  4  5  1  0
  5  6  2  0
  5  7  1  0
  7  8  1  0
  8  9  1  0
  9 10  1  0
 10 11  1  0
 11 12  1  0
 12 13  2  0
 13 14  1  0
 14 15  2  0
 15 16  1  0
 16 17  1  0
 17 18  1  0
 18 19  1  0
 18 20  1  0
 18 21  1  0
 15 22  1  0
 22 23  2  0
  2 24  1  0
 24 25  2  0
 25 26  1  0
 26 27  2  0
 27 28  1  0
 28 29  2  0
 29 30  1  0
 30 31  2  0
 31 32  1  0
 32 33  2  0
 11  7  1  0
 23 12  1  0
 33 24  1  0
 32 27  1  0
  3 34  1  0
  4 35  1  0
  4 36  1  0
  8 37  1  0
  8 38  1  0
  9 39  1  0
  9 40  1  0
 10 41  1  0
 10 42  1  0
 11 43  1  1
 13 44  1  0
 14 45  1  0
 17 46  1  0
 17 47  1  0
 22 48  1  0
 23 49  1  0
 25 50  1  0
 26 51  1  0
 28 52  1  0
 29 53  1  0
 30 54  1  0
 31 55  1  0
M  END
>  <smiles>  (85) 
O=C(NCC(=O)N1CCCC1c1ccc(OCC(F)(F)F)cc1)c1ccc2ccccc2n1

>  <score_type>  (85) 
oracle

>  <origin>  (85) 
autodockgpu

>  <m_score__min__energy>  (85) 
-8

>  <m_primary>  (85) 
energy

>  <rmsd>  (85) 
2.68583920821695

>  <m_score__min__rmsd>  (85) 
2.68583920821695

>  <meeko>  (85) 
{"free_energy": -7.22, "intermolecular_energy": -9.6, "internal_energy": -1.9, "cluster_size": 11, "cluster_id": 2, "rank_in_cluster": 8}

>  <energy>  (85) 
-7.06

>  <cluster_rmsd>  (85) 
0.0

>  <cluster>  (85) 
9

$$$$

     RDKit          3D

 55 58  0  0  0  0  0  0  0  0999 V2000
  139.9390   73.4820  222.4840 O   0  0  0  0  0  0  0  0  0  0  0  0
  139.9970   72.2060  222.4310 C   0  0  0  0  0  0  0  0  0  0  0  0
  140.0170   71.6160  221.1550 N   0  0  0  0  0  0  0  0  0  0  0  0
  139.9720   72.4630  219.9800 C   0  0  0  0  0  0  0  0  0  0  0  0
  141.2100   72.3550  219.1730 C   0  0  0  0  0  0  0  0  0  0  0  0
  141.2680   71.5670  218.1940 O   0  0  0  0  0  0  0  0  0  0  0  0
  142.3660   73.1170  219.4590 N   0  0  0  0  0  0  0  0  0  0  0  0
  143.5080   73.4220  218.5810 C   0  0  0  0  0  0  0  0  0  0  0  0
  144.6790   73.0960  219.5230 C   0  0  0  0  0  0  0  0  0  0  0  0
  144.2260   73.7480  220.7980 C   0  0  0  0  0  0  0  0  0  0  0  0
  142.7380   73.8000  220.7090 C   0  0  1  0  0  0  0  0  0  0  0  0
  142.3070   75.2250  220.6690 C   0  0  0  0  0  0  0  0  0  0  0  0
  141.4420   75.6640  221.6460 C   0  0  0  0  0  0  0  0  0  0  0  0
  141.0320   76.9720  221.6710 C   0  0  0  0  0  0  0  0  0  0  0  0
  141.4700   77.9110  220.7130 C   0  0  0  0  0  0  0  0  0  0  0  0
  141.0000   79.1580  220.8400 O   0  0  0  0  0  0  0  0  0  0  0  0
  140.9650   80.1650  221.7410 C   0  0  0  0  0  0  0  0  0  0  0  0
  141.8460   80.1270  222.9400 C   0  0  0  0  0  0  0  0  0  0  0  0
  141.8330   81.2270  223.7450 F   0  0  0  0  0  0  0  0  0  0  0  0
  143.1370   79.7450  222.5960 F   0  0  0  0  0  0  0  0  0  0  0  0
  141.3790   79.0730  223.7480 F   0  0  0  0  0  0  0  0  0  0  0  0
  142.3300   77.4160  219.7660 C   0  0  0  0  0  0  0  0  0  0  0  0
  142.7590   76.1070  219.7160 C   0  0  0  0  0  0  0  0  0  0  0  0
  140.0400   71.4240  223.6600 C   0  0  0  0  0  0  0  0  0  0  0  0
  139.5680   70.1290  223.6550 C   0  0  0  0  0  0  0  0  0  0  0  0
  139.5730   69.3210  224.7780 C   0  0  0  0  0  0  0  0  0  0  0  0
  140.0880   69.8800  225.9490 C   0  0  0  0  0  0  0  0  0  0  0  0
  140.0970   69.0840  227.0710 C   0  0  0  0  0  0  0  0  0  0  0  0
  140.6040   69.6230  228.2390 C   0  0  0  0  0  0  0  0  0  0  0  0
  141.0920   70.9330  228.2840 C   0  0  0  0  0  0  0  0  0  0  0  0
  141.0640   71.7040  227.1210 C   0  0  0  0  0  0  0  0  0  0  0  0
  140.5580   71.1730  225.9490 C   0  0  0  0  0  0  0  0  0  0  0  0
  140.5250   71.9060  224.8230 N   0  0  0  0  0  0  0  0  0  0  0  0
  140.0650   70.5640  221.0570 H   0  0  0  0  0  0  0  0  0  0  0  0
  139.1152   72.1637  219.3585 H   0  0  0  0  0  0  0  0  0  0  0  0
  139.8737   73.5060  220.3153 H   0  0  0  0  0  0  0  0  0  0  0  0
  143.5154   72.7814  217.6868 H   0  0  0  0  0  0  0  0  0  0  0  0
  143.5155   74.4449  218.1766 H   0  0  0  0  0  0  0  0  0  0  0  0
  144.8036   72.0103  219.6488 H   0  0  0  0  0  0  0  0  0  0  0  0
  145.6570   73.4470  219.1619 H   0  0  0  0  0  0  0  0  0  0  0  0
  144.5390   73.1515  221.6676 H   0  0  0  0  0  0  0  0  0  0  0  0
  144.6637   74.7494  220.9235 H   0  0  0  0  0  0  0  0  0  0  0  0
  142.2566   73.3160  221.5716 H   0  0  0  0  0  0  0  0  0  0  0  0
  141.0780   74.9617  222.4104 H   0  0  0  0  0  0  0  0  0  0  0  0
  140.3408   77.2994  222.4616 H   0  0  0  0  0  0  0  0  0  0  0  0
  141.2128   81.0872  221.1950 H   0  0  0  0  0  0  0  0  0  0  0  0
  139.9550   80.0837  222.1691 H   0  0  0  0  0  0  0  0  0  0  0  0
  142.7015   78.1087  218.9964 H   0  0  0  0  0  0  0  0  0  0  0  0
  143.4504   75.7741  218.9279 H   0  0  0  0  0  0  0  0  0  0  0  0
  139.1692   69.7193  222.7153 H   0  0  0  0  0  0  0  0  0  0  0  0
  139.1905   68.2900  224.7496 H   0  0  0  0  0  0  0  0  0  0  0  0
  139.7137   68.0534  227.0400 H   0  0  0  0  0  0  0  0  0  0  0  0
  140.6240   69.0090  229.1515 H   0  0  0  0  0  0  0  0  0  0  0  0
  141.4914   71.3488  229.2208 H   0  0  0  0  0  0  0  0  0  0  0  0
  141.4451   72.7358  227.1368 H   0  0  0  0  0  0  0  0  0  0  0  0
  1  2  2  0
  2  3  1  0
  3  4  1  0
  4  5  1  0
  5  6  2  0
  5  7  1  0
  7  8  1  0
  8  9  1  0
  9 10  1  0
 10 11  1  0
 11 12  1  0
 12 13  2  0
 13 14  1  0
 14 15  2  0
 15 16  1  0
 16 17  1  0
 17 18  1  0
 18 19  1  0
 18 20  1  0
 18 21  1  0
 15 22  1  0
 22 23  2  0
  2 24  1  0
 24 25  2  0
 25 26  1  0
 26 27  2  0
 27 28  1  0
 28 29  2  0
 29 30  1  0
 30 31  2  0
 31 32  1  0
 32 33  2  0
 11  7  1  0
 23 12  1  0
 33 24  1  0
 32 27  1  0
  3 34  1  0
  4 35  1  0
  4 36  1  0
  8 37  1  0
  8 38  1  0
  9 39  1  0
  9 40  1  0
 10 41  1  0
 10 42  1  0
 11 43  1  1
 13 44  1  0
 14 45  1  0
 17 46  1  0
 17 47  1  0
 22 48  1  0
 23 49  1  0
 25 50  1  0
 26 51  1  0
 28 52  1  0
 29 53  1  0
 30 54  1  0
 31 55  1  0
M  END
>  <smiles>  (86) 
O=C(NCC(=O)N1CCCC1c1ccc(OCC(F)(F)F)cc1)c1ccc2ccccc2n1

>  <score_type>  (86) 
oracle

>  <origin>  (86) 
autodockgpu

>  <m_score__min__energy>  (86) 
-8

>  <m_primary>  (86) 
energy

>  <rmsd>  (86) 
3.286549190997863

>  <m_score__min__rmsd>  (86) 
3.286549190997863

>  <meeko>  (86) 
{"free_energy": -7.63, "intermolecular_energy": -10.01, "internal_energy": -1.64, "cluster_size": 11, "cluster_id": 2, "rank_in_cluster": 2}

>  <energy>  (86) 
-6.97

>  <cluster_rmsd>  (86) 
0.0

>  <cluster>  (86) 
10

$$$$

     RDKit          3D

 55 58  0  0  0  0  0  0  0  0999 V2000
  140.2110   75.5550  220.0580 O   0  0  0  0  0  0  0  0  0  0  0  0
  140.0540   75.7000  221.3170 C   0  0  0  0  0  0  0  0  0  0  0  0
  139.7180   74.5550  222.0600 N   0  0  0  0  0  0  0  0  0  0  0  0
  139.5690   73.2850  221.3780 C   0  0  0  0  0  0  0  0  0  0  0  0
  140.7100   72.3780  221.6420 C   0  0  0  0  0  0  0  0  0  0  0  0
  140.7780   71.7340  222.7210 O   0  0  0  0  0  0  0  0  0  0  0  0
  141.7600   72.1950  220.7130 N   0  0  0  0  0  0  0  0  0  0  0  0
  141.8000   71.3230  219.5290 C   0  0  0  0  0  0  0  0  0  0  0  0
  143.1670   70.6460  219.7270 C   0  0  0  0  0  0  0  0  0  0  0  0
  144.0270   71.8170  220.1060 C   0  0  0  0  0  0  0  0  0  0  0  0
  143.0920   72.8240  220.6880 C   0  0  1  0  0  0  0  0  0  0  0  0
  143.0790   74.0310  219.8160 C   0  0  0  0  0  0  0  0  0  0  0  0
  143.1270   75.2650  220.4250 C   0  0  0  0  0  0  0  0  0  0  0  0
  143.1430   76.4090  219.6700 C   0  0  0  0  0  0  0  0  0  0  0  0
  143.1100   76.3750  218.2600 C   0  0  0  0  0  0  0  0  0  0  0  0
  143.1280   77.5570  217.6320 O   0  0  0  0  0  0  0  0  0  0  0  0
  142.9590   78.8720  217.8960 C   0  0  0  0  0  0  0  0  0  0  0  0
  141.8380   79.3230  218.7630 C   0  0  0  0  0  0  0  0  0  0  0  0
  142.1710   80.0400  219.8740 F   0  0  0  0  0  0  0  0  0  0  0  0
  140.9830   78.2680  219.0600 F   0  0  0  0  0  0  0  0  0  0  0  0
  141.0520   80.1930  217.9850 F   0  0  0  0  0  0  0  0  0  0  0  0
  143.0630   75.1180  217.7110 C   0  0  0  0  0  0  0  0  0  0  0  0
  143.0470   73.9510  218.4440 C   0  0  0  0  0  0  0  0  0  0  0  0
  140.2230   77.0130  221.9290 C   0  0  0  0  0  0  0  0  0  0  0  0
  139.1160   77.6930  222.3900 C   0  0  0  0  0  0  0  0  0  0  0  0
  139.1900   78.9400  222.9830 C   0  0  0  0  0  0  0  0  0  0  0  0
  140.4630   79.5030  223.0990 C   0  0  0  0  0  0  0  0  0  0  0  0
  140.5470   80.7430  223.6860 C   0  0  0  0  0  0  0  0  0  0  0  0
  141.8000   81.3150  223.8110 C   0  0  0  0  0  0  0  0  0  0  0  0
  142.9470   80.6560  223.3540 C   0  0  0  0  0  0  0  0  0  0  0  0
  142.8150   79.3980  222.7660 C   0  0  0  0  0  0  0  0  0  0  0  0
  141.5650   78.8210  222.6380 C   0  0  0  0  0  0  0  0  0  0  0  0
  141.4240   77.6100  222.0720 N   0  0  0  0  0  0  0  0  0  0  0  0
  139.5770   74.6230  223.1060 H   0  0  0  0  0  0  0  0  0  0  0  0
  138.6434   72.8020  221.7244 H   0  0  0  0  0  0  0  0  0  0  0  0
  139.5335   73.4815  220.2963 H   0  0  0  0  0  0  0  0  0  0  0  0
  140.9792   70.5907  219.5358 H   0  0  0  0  0  0  0  0  0  0  0  0
  141.6823   71.8470  218.5690 H   0  0  0  0  0  0  0  0  0  0  0  0
  143.1317   69.8961  220.5310 H   0  0  0  0  0  0  0  0  0  0  0  0
  143.5254   70.0917  218.8470 H   0  0  0  0  0  0  0  0  0  0  0  0
  144.7803   71.5166  220.8492 H   0  0  0  0  0  0  0  0  0  0  0  0
  144.5744   72.2193  219.2408 H   0  0  0  0  0  0  0  0  0  0  0  0
  143.3942   73.1314  221.7000 H   0  0  0  0  0  0  0  0  0  0  0  0
  143.1526   75.3331  221.5226 H   0  0  0  0  0  0  0  0  0  0  0  0
  143.1828   77.3833  220.1791 H   0  0  0  0  0  0  0  0  0  0  0  0
  143.8873   79.2213  218.3716 H   0  0  0  0  0  0  0  0  0  0  0  0
  142.7011   79.2938  216.9133 H   0  0  0  0  0  0  0  0  0  0  0  0
  143.0364   75.0367  216.6143 H   0  0  0  0  0  0  0  0  0  0  0  0
  143.0093   72.9737  217.9406 H   0  0  0  0  0  0  0  0  0  0  0  0
  138.1280   77.2218  222.2811 H   0  0  0  0  0  0  0  0  0  0  0  0
  138.2920   79.4621  223.3450 H   0  0  0  0  0  0  0  0  0  0  0  0
  139.6468   81.2636  224.0447 H   0  0  0  0  0  0  0  0  0  0  0  0
  141.8968   82.3061  224.2782 H   0  0  0  0  0  0  0  0  0  0  0  0
  143.9376   81.1230  223.4569 H   0  0  0  0  0  0  0  0  0  0  0  0
  143.7062   78.8645  222.4038 H   0  0  0  0  0  0  0  0  0  0  0  0
  1  2  2  0
  2  3  1  0
  3  4  1  0
  4  5  1  0
  5  6  2  0
  5  7  1  0
  7  8  1  0
  8  9  1  0
  9 10  1  0
 10 11  1  0
 11 12  1  0
 12 13  2  0
 13 14  1  0
 14 15  2  0
 15 16  1  0
 16 17  1  0
 17 18  1  0
 18 19  1  0
 18 20  1  0
 18 21  1  0
 15 22  1  0
 22 23  2  0
  2 24  1  0
 24 25  2  0
 25 26  1  0
 26 27  2  0
 27 28  1  0
 28 29  2  0
 29 30  1  0
 30 31  2  0
 31 32  1  0
 32 33  2  0
 11  7  1  0
 23 12  1  0
 33 24  1  0
 32 27  1  0
  3 34  1  0
  4 35  1  0
  4 36  1  0
  8 37  1  0
  8 38  1  0
  9 39  1  0
  9 40  1  0
 10 41  1  0
 10 42  1  0
 11 43  1  1
 13 44  1  0
 14 45  1  0
 17 46  1  0
 17 47  1  0
 22 48  1  0
 23 49  1  0
 25 50  1  0
 26 51  1  0
 28 52  1  0
 29 53  1  0
 30 54  1  0
 31 55  1  0
M  END
>  <smiles>  (87) 
O=C(NCC(=O)N1CCCC1c1ccc(OCC(F)(F)F)cc1)c1ccc2ccccc2n1

>  <score_type>  (87) 
oracle

>  <origin>  (87) 
autodockgpu

>  <m_score__min__energy>  (87) 
-8

>  <m_primary>  (87) 
energy

>  <rmsd>  (87) 
7.596838297114475

>  <m_score__min__rmsd>  (87) 
7.596838297114475

>  <meeko>  (87) 
{"free_energy": -6.21, "intermolecular_energy": -8.59, "internal_energy": -2.67, "cluster_size": 3, "cluster_id": 12, "rank_in_cluster": 2}

>  <energy>  (87) 
-6.92

>  <cluster_rmsd>  (87) 
0.0

>  <cluster>  (87) 
11

$$$$

     RDKit          3D

 55 58  0  0  0  0  0  0  0  0999 V2000
  137.8420   69.9640  221.9140 O   0  0  0  0  0  0  0  0  0  0  0  0
  137.9340   70.7390  222.9270 C   0  0  0  0  0  0  0  0  0  0  0  0
  137.3390   72.0090  222.8210 N   0  0  0  0  0  0  0  0  0  0  0  0
  136.6620   72.3760  221.5940 C   0  0  0  0  0  0  0  0  0  0  0  0
  137.5940   72.9630  220.6030 C   0  0  0  0  0  0  0  0  0  0  0  0
  137.1570   73.4740  219.5390 O   0  0  0  0  0  0  0  0  0  0  0  0
  138.9940   72.9760  220.7980 N   0  0  0  0  0  0  0  0  0  0  0  0
  140.0560   72.5370  219.8780 C   0  0  0  0  0  0  0  0  0  0  0  0
  140.9140   71.6850  220.8290 C   0  0  0  0  0  0  0  0  0  0  0  0
  140.9760   72.5670  222.0440 C   0  0  0  0  0  0  0  0  0  0  0  0
  139.7590   73.4260  221.9730 C   0  0  1  0  0  0  0  0  0  0  0  0
  140.1790   74.8450  221.8060 C   0  0  0  0  0  0  0  0  0  0  0  0
  141.3260   75.0970  221.0880 C   0  0  0  0  0  0  0  0  0  0  0  0
  141.7460   76.3860  220.8820 C   0  0  0  0  0  0  0  0  0  0  0  0
  141.0340   77.4930  221.3890 C   0  0  0  0  0  0  0  0  0  0  0  0
  141.5430   78.7030  221.1240 O   0  0  0  0  0  0  0  0  0  0  0  0
  141.7490   79.8940  221.7290 C   0  0  0  0  0  0  0  0  0  0  0  0
  142.3650   79.9510  223.0810 C   0  0  0  0  0  0  0  0  0  0  0  0
  143.7090   80.1760  223.1340 F   0  0  0  0  0  0  0  0  0  0  0  0
  141.9890   78.8530  223.8450 F   0  0  0  0  0  0  0  0  0  0  0  0
  141.7810   81.0470  223.7430 F   0  0  0  0  0  0  0  0  0  0  0  0
  139.9000   77.1800  222.0950 C   0  0  0  0  0  0  0  0  0  0  0  0
  139.4540   75.8960  222.3170 C   0  0  0  0  0  0  0  0  0  0  0  0
  138.6330   70.2950  224.1260 C   0  0  0  0  0  0  0  0  0  0  0  0
  138.6960   68.9470  224.4130 C   0  0  0  0  0  0  0  0  0  0  0  0
  139.3400   68.4450  225.5290 C   0  0  0  0  0  0  0  0  0  0  0  0
  139.9390   69.3760  226.3790 C   0  0  0  0  0  0  0  0  0  0  0  0
  140.5810   68.8850  227.4920 C   0  0  0  0  0  0  0  0  0  0  0  0
  141.1800   69.7950  228.3440 C   0  0  0  0  0  0  0  0  0  0  0  0
  141.1370   71.1700  228.0870 C   0  0  0  0  0  0  0  0  0  0  0  0
  140.4750   71.6220  226.9460 C   0  0  0  0  0  0  0  0  0  0  0  0
  139.8730   70.7200  226.0890 C   0  0  0  0  0  0  0  0  0  0  0  0
  139.2320   71.1440  224.9860 N   0  0  0  0  0  0  0  0  0  0  0  0
  137.3890   72.6860  223.6310 H   0  0  0  0  0  0  0  0  0  0  0  0
  136.2011   71.4767  221.1595 H   0  0  0  0  0  0  0  0  0  0  0  0
  135.9020   73.1331  221.8373 H   0  0  0  0  0  0  0  0  0  0  0  0
  139.6527   71.9382  219.0480 H   0  0  0  0  0  0  0  0  0  0  0  0
  140.5976   73.3541  219.3789 H   0  0  0  0  0  0  0  0  0  0  0  0
  140.4302   70.7232  221.0544 H   0  0  0  0  0  0  0  0  0  0  0  0
  141.8985   71.4107  220.4220 H   0  0  0  0  0  0  0  0  0  0  0  0
  140.9654   71.9598  222.9612 H   0  0  0  0  0  0  0  0  0  0  0  0
  141.8983   73.1659  222.0678 H   0  0  0  0  0  0  0  0  0  0  0  0
  139.1476   73.3507  222.8844 H   0  0  0  0  0  0  0  0  0  0  0  0
  141.9090   74.2596  220.6771 H   0  0  0  0  0  0  0  0  0  0  0  0
  142.6654   76.5619  220.3043 H   0  0  0  0  0  0  0  0  0  0  0  0
  142.3973   80.4801  221.0611 H   0  0  0  0  0  0  0  0  0  0  0  0
  140.7285   80.2656  221.9034 H   0  0  0  0  0  0  0  0  0  0  0  0
  139.3083   78.0088  222.5109 H   0  0  0  0  0  0  0  0  0  0  0  0
  138.5344   75.7144  222.8927 H   0  0  0  0  0  0  0  0  0  0  0  0
  138.2123   68.2398  223.7231 H   0  0  0  0  0  0  0  0  0  0  0  0
  139.3783   67.3654  225.7366 H   0  0  0  0  0  0  0  0  0  0  0  0
  140.6168   67.8050  227.6975 H   0  0  0  0  0  0  0  0  0  0  0  0
  141.7007   69.4306  229.2418 H   0  0  0  0  0  0  0  0  0  0  0  0
  141.6175   71.8824  228.7737 H   0  0  0  0  0  0  0  0  0  0  0  0
  140.4318   72.6992  226.7274 H   0  0  0  0  0  0  0  0  0  0  0  0
  1  2  2  0
  2  3  1  0
  3  4  1  0
  4  5  1  0
  5  6  2  0
  5  7  1  0
  7  8  1  0
  8  9  1  0
  9 10  1  0
 10 11  1  0
 11 12  1  0
 12 13  2  0
 13 14  1  0
 14 15  2  0
 15 16  1  0
 16 17  1  0
 17 18  1  0
 18 19  1  0
 18 20  1  0
 18 21  1  0
 15 22  1  0
 22 23  2  0
  2 24  1  0
 24 25  2  0
 25 26  1  0
 26 27  2  0
 27 28  1  0
 28 29  2  0
 29 30  1  0
 30 31  2  0
 31 32  1  0
 32 33  2  0
 11  7  1  0
 23 12  1  0
 33 24  1  0
 32 27  1  0
  3 34  1  0
  4 35  1  0
  4 36  1  0
  8 37  1  0
  8 38  1  0
  9 39  1  0
  9 40  1  0
 10 41  1  0
 10 42  1  0
 11 43  1  1
 13 44  1  0
 14 45  1  0
 17 46  1  0
 17 47  1  0
 22 48  1  0
 23 49  1  0
 25 50  1  0
 26 51  1  0
 28 52  1  0
 29 53  1  0
 30 54  1  0
 31 55  1  0
M  END
>  <smiles>  (88) 
O=C(NCC(=O)N1CCCC1c1ccc(OCC(F)(F)F)cc1)c1ccc2ccccc2n1

>  <score_type>  (88) 
oracle

>  <origin>  (88) 
autodockgpu

>  <m_score__min__energy>  (88) 
-8

>  <m_primary>  (88) 
energy

>  <rmsd>  (88) 
3.1024021604502576

>  <m_score__min__rmsd>  (88) 
3.1024021604502576

>  <meeko>  (88) 
{"free_energy": -7.01, "intermolecular_energy": -9.39, "internal_energy": -2.12, "cluster_size": 11, "cluster_id": 2, "rank_in_cluster": 10}

>  <energy>  (88) 
-6.6

>  <cluster_rmsd>  (88) 
0.0

>  <cluster>  (88) 
12

$$$$

     RDKit          3D

 55 58  0  0  0  0  0  0  0  0999 V2000
  139.9500   73.4030  222.3860 O   0  0  0  0  0  0  0  0  0  0  0  0
  140.1510   72.1420  222.4150 C   0  0  0  0  0  0  0  0  0  0  0  0
  140.4260   71.5050  221.1920 N   0  0  0  0  0  0  0  0  0  0  0  0
  140.4680   72.2920  219.9760 C   0  0  0  0  0  0  0  0  0  0  0  0
  141.7130   72.0560  219.2090 C   0  0  0  0  0  0  0  0  0  0  0  0
  141.8490   71.0150  218.5150 O   0  0  0  0  0  0  0  0  0  0  0  0
  142.7910   72.9710  219.2180 N   0  0  0  0  0  0  0  0  0  0  0  0
  143.6380   73.4080  218.0970 C   0  0  0  0  0  0  0  0  0  0  0  0
  145.0340   73.2600  218.7270 C   0  0  0  0  0  0  0  0  0  0  0  0
  144.8150   73.8710  220.0810 C   0  0  0  0  0  0  0  0  0  0  0  0
  143.3550   73.7230  220.3520 C   0  0  1  0  0  0  0  0  0  0  0  0
  142.7400   75.0760  220.4350 C   0  0  0  0  0  0  0  0  0  0  0  0
  141.7200   75.2660  221.3390 C   0  0  0  0  0  0  0  0  0  0  0  0
  141.1330   76.4970  221.4740 C   0  0  0  0  0  0  0  0  0  0  0  0
  141.5420   77.6080  220.7050 C   0  0  0  0  0  0  0  0  0  0  0  0
  140.8940   78.7580  220.9250 O   0  0  0  0  0  0  0  0  0  0  0  0
  140.9770   79.8620  221.7000 C   0  0  0  0  0  0  0  0  0  0  0  0
  141.7330   79.8220  222.9800 C   0  0  0  0  0  0  0  0  0  0  0  0
  141.5700   78.7120  223.7550 F   0  0  0  0  0  0  0  0  0  0  0  0
  141.5510   80.9950  223.7030 F   0  0  0  0  0  0  0  0  0  0  0  0
  143.0990   79.8360  222.6410 F   0  0  0  0  0  0  0  0  0  0  0  0
  142.5620   77.3580  219.8220 C   0  0  0  0  0  0  0  0  0  0  0  0
  143.1700   76.1320  219.6650 C   0  0  0  0  0  0  0  0  0  0  0  0
  140.0910   71.4210  223.6810 C   0  0  0  0  0  0  0  0  0  0  0  0
  139.4660   70.1930  223.7330 C   0  0  0  0  0  0  0  0  0  0  0  0
  139.3670   69.4470  224.8930 C   0  0  0  0  0  0  0  0  0  0  0  0
  139.9380   69.9960  226.0420 C   0  0  0  0  0  0  0  0  0  0  0  0
  139.8430   69.2610  227.2000 C   0  0  0  0  0  0  0  0  0  0  0  0
  140.4040   69.7920  228.3480 C   0  0  0  0  0  0  0  0  0  0  0  0
  141.0460   71.0350  228.3360 C   0  0  0  0  0  0  0  0  0  0  0  0
  141.1190   71.7450  227.1370 C   0  0  0  0  0  0  0  0  0  0  0  0
  140.5610   71.2220  225.9860 C   0  0  0  0  0  0  0  0  0  0  0  0
  140.6230   71.8980  224.8250 N   0  0  0  0  0  0  0  0  0  0  0  0
  140.5990   70.4630  221.1640 H   0  0  0  0  0  0  0  0  0  0  0  0
  139.6064   72.0221  219.3476 H   0  0  0  0  0  0  0  0  0  0  0  0
  140.4363   73.3552  220.2564 H   0  0  0  0  0  0  0  0  0  0  0  0
  143.5175   72.7566  217.2188 H   0  0  0  0  0  0  0  0  0  0  0  0
  143.4111   74.4146  217.7160 H   0  0  0  0  0  0  0  0  0  0  0  0
  145.3299   72.2035  218.8056 H   0  0  0  0  0  0  0  0  0  0  0  0
  145.8412   73.7308  218.1467 H   0  0  0  0  0  0  0  0  0  0  0  0
  145.4036   73.3390  220.8429 H   0  0  0  0  0  0  0  0  0  0  0  0
  145.1315   74.9241  220.1102 H   0  0  0  0  0  0  0  0  0  0  0  0
  143.1623   73.1971  221.2987 H   0  0  0  0  0  0  0  0  0  0  0  0
  141.3737   74.4246  221.9571 H   0  0  0  0  0  0  0  0  0  0  0  0
  140.3191   76.6231  222.2031 H   0  0  0  0  0  0  0  0  0  0  0  0
  141.4390   80.6474  221.0838 H   0  0  0  0  0  0  0  0  0  0  0  0
  139.9383   80.0175  222.0270 H   0  0  0  0  0  0  0  0  0  0  0  0
  142.9176   78.1915  219.1984 H   0  0  0  0  0  0  0  0  0  0  0  0
  143.9843   75.9997  218.9374 H   0  0  0  0  0  0  0  0  0  0  0  0
  139.0261   69.7884  222.8095 H   0  0  0  0  0  0  0  0  0  0  0  0
  138.8632   68.4693  224.9094 H   0  0  0  0  0  0  0  0  0  0  0  0
  139.3381   68.2838  227.2134 H   0  0  0  0  0  0  0  0  0  0  0  0
  140.3440   69.2255  229.2890 H   0  0  0  0  0  0  0  0  0  0  0  0
  141.4860   71.4459  229.2567 H   0  0  0  0  0  0  0  0  0  0  0  0
  141.6217   72.7230  227.1079 H   0  0  0  0  0  0  0  0  0  0  0  0
  1  2  2  0
  2  3  1  0
  3  4  1  0
  4  5  1  0
  5  6  2  0
  5  7  1  0
  7  8  1  0
  8  9  1  0
  9 10  1  0
 10 11  1  0
 11 12  1  0
 12 13  2  0
 13 14  1  0
 14 15  2  0
 15 16  1  0
 16 17  1  0
 17 18  1  0
 18 19  1  0
 18 20  1  0
 18 21  1  0
 15 22  1  0
 22 23  2  0
  2 24  1  0
 24 25  2  0
 25 26  1  0
 26 27  2  0
 27 28  1  0
 28 29  2  0
 29 30  1  0
 30 31  2  0
 31 32  1  0
 32 33  2  0
 11  7  1  0
 23 12  1  0
 33 24  1  0
 32 27  1  0
  3 34  1  0
  4 35  1  0
  4 36  1  0
  8 37  1  0
  8 38  1  0
  9 39  1  0
  9 40  1  0
 10 41  1  0
 10 42  1  0
 11 43  1  1
 13 44  1  0
 14 45  1  0
 17 46  1  0
 17 47  1  0
 22 48  1  0
 23 49  1  0
 25 50  1  0
 26 51  1  0
 28 52  1  0
 29 53  1  0
 30 54  1  0
 31 55  1  0
M  END
>  <smiles>  (89) 
O=C(NCC(=O)N1CCCC1c1ccc(OCC(F)(F)F)cc1)c1ccc2ccccc2n1

>  <score_type>  (89) 
oracle

>  <origin>  (89) 
autodockgpu

>  <m_score__min__energy>  (89) 
-8

>  <m_primary>  (89) 
energy

>  <rmsd>  (89) 
3.41848920092557

>  <m_score__min__rmsd>  (89) 
3.41848920092557

>  <meeko>  (89) 
{"free_energy": -7.72, "intermolecular_energy": -10.11, "internal_energy": -1.66, "cluster_size": 11, "cluster_id": 2, "rank_in_cluster": 1}

>  <energy>  (89) 
-6.21

>  <cluster_rmsd>  (89) 
1.32

>  <cluster>  (89) 
12

$$$$

     RDKit          3D

 55 58  0  0  0  0  0  0  0  0999 V2000
  140.7100   71.5690  221.3520 O   0  0  0  0  0  0  0  0  0  0  0  0
  140.2810   72.1450  222.4100 C   0  0  0  0  0  0  0  0  0  0  0  0
  139.9100   73.4970  222.3010 N   0  0  0  0  0  0  0  0  0  0  0  0
  140.0260   74.1640  221.0200 C   0  0  0  0  0  0  0  0  0  0  0  0
  141.1040   75.1810  221.0230 C   0  0  0  0  0  0  0  0  0  0  0  0
  141.2290   75.9760  221.9910 O   0  0  0  0  0  0  0  0  0  0  0  0
  142.0270   75.3070  219.9600 N   0  0  0  0  0  0  0  0  0  0  0  0
  143.1470   76.2510  219.8200 C   0  0  0  0  0  0  0  0  0  0  0  0
  142.9140   76.7490  218.3830 C   0  0  0  0  0  0  0  0  0  0  0  0
  142.6260   75.4620  217.6650 C   0  0  0  0  0  0  0  0  0  0  0  0
  142.1080   74.5320  218.7100 C   0  0  1  0  0  0  0  0  0  0  0  0
  143.0630   73.3990  218.8640 C   0  0  0  0  0  0  0  0  0  0  0  0
  144.3940   73.6400  218.6120 C   0  0  0  0  0  0  0  0  0  0  0  0
  145.3200   72.6400  218.7610 C   0  0  0  0  0  0  0  0  0  0  0  0
  144.9550   71.3400  219.1720 C   0  0  0  0  0  0  0  0  0  0  0  0
  145.9470   70.4470  219.2810 O   0  0  0  0  0  0  0  0  0  0  0  0
  146.3280   69.2550  218.7700 C   0  0  0  0  0  0  0  0  0  0  0  0
  145.7400   67.9940  219.2950 C   0  0  0  0  0  0  0  0  0  0  0  0
  146.0120   66.8540  218.5980 F   0  0  0  0  0  0  0  0  0  0  0  0
  144.3800   68.1440  219.5410 F   0  0  0  0  0  0  0  0  0  0  0  0
  146.3000   67.7900  220.5700 F   0  0  0  0  0  0  0  0  0  0  0  0
  143.6160   71.1600  219.4080 C   0  0  0  0  0  0  0  0  0  0  0  0
  142.6630   72.1460  219.2670 C   0  0  0  0  0  0  0  0  0  0  0  0
  140.1930   71.4030  223.6620 C   0  0  0  0  0  0  0  0  0  0  0  0
  139.5990   70.1590  223.6710 C   0  0  0  0  0  0  0  0  0  0  0  0
  139.4770   69.3910  224.8150 C   0  0  0  0  0  0  0  0  0  0  0  0
  139.9900   69.9370  225.9930 C   0  0  0  0  0  0  0  0  0  0  0  0
  139.8720   69.1820  227.1360 C   0  0  0  0  0  0  0  0  0  0  0  0
  140.3770   69.7070  228.3120 C   0  0  0  0  0  0  0  0  0  0  0  0
  140.9860   70.9670  228.3420 C   0  0  0  0  0  0  0  0  0  0  0  0
  141.0840   71.6980  227.1580 C   0  0  0  0  0  0  0  0  0  0  0  0
  140.5830   71.1790  225.9790 C   0  0  0  0  0  0  0  0  0  0  0  0
  140.6710   71.8740  224.8320 N   0  0  0  0  0  0  0  0  0  0  0  0
  139.5490   74.0170  223.1480 H   0  0  0  0  0  0  0  0  0  0  0  0
  140.2471   73.4135  220.2468 H   0  0  0  0  0  0  0  0  0  0  0  0
  139.0744   74.6760  220.8144 H   0  0  0  0  0  0  0  0  0  0  0  0
  143.0808   77.0712  220.5500 H   0  0  0  0  0  0  0  0  0  0  0  0
  144.1406   75.8141  219.9989 H   0  0  0  0  0  0  0  0  0  0  0  0
  142.0589   77.4390  218.3302 H   0  0  0  0  0  0  0  0  0  0  0  0
  143.7559   77.3189  217.9631 H   0  0  0  0  0  0  0  0  0  0  0  0
  141.8703   75.6194  216.8813 H   0  0  0  0  0  0  0  0  0  0  0  0
  143.5223   75.0612  217.1690 H   0  0  0  0  0  0  0  0  0  0  0  0
  141.1227   74.1213  218.4445 H   0  0  0  0  0  0  0  0  0  0  0  0
  144.7170   74.6407  218.2891 H   0  0  0  0  0  0  0  0  0  0  0  0
  146.3783   72.8572  218.5542 H   0  0  0  0  0  0  0  0  0  0  0  0
  146.1028   69.2853  217.6937 H   0  0  0  0  0  0  0  0  0  0  0  0
  147.3848   69.1814  219.0664 H   0  0  0  0  0  0  0  0  0  0  0  0
  143.2805   70.1635  219.7310 H   0  0  0  0  0  0  0  0  0  0  0  0
  141.6032   71.9350  219.4727 H   0  0  0  0  0  0  0  0  0  0  0  0
  139.2041   69.7589  222.7255 H   0  0  0  0  0  0  0  0  0  0  0  0
  138.9998   68.4000  224.7974 H   0  0  0  0  0  0  0  0  0  0  0  0
  139.3916   68.1926  227.1160 H   0  0  0  0  0  0  0  0  0  0  0  0
  140.2985   69.1233  229.2411 H   0  0  0  0  0  0  0  0  0  0  0  0
  141.3810   71.3743  229.2844 H   0  0  0  0  0  0  0  0  0  0  0  0
  141.5609   72.6893  227.1626 H   0  0  0  0  0  0  0  0  0  0  0  0
  1  2  2  0
  2  3  1  0
  3  4  1  0
  4  5  1  0
  5  6  2  0
  5  7  1  0
  7  8  1  0
  8  9  1  0
  9 10  1  0
 10 11  1  0
 11 12  1  0
 12 13  2  0
 13 14  1  0
 14 15  2  0
 15 16  1  0
 16 17  1  0
 17 18  1  0
 18 19  1  0
 18 20  1  0
 18 21  1  0
 15 22  1  0
 22 23  2  0
  2 24  1  0
 24 25  2  0
 25 26  1  0
 26 27  2  0
 27 28  1  0
 28 29  2  0
 29 30  1  0
 30 31  2  0
 31 32  1  0
 32 33  2  0
 11  7  1  0
 23 12  1  0
 33 24  1  0
 32 27  1  0
  3 34  1  0
  4 35  1  0
  4 36  1  0
  8 37  1  0
  8 38  1  0
  9 39  1  0
  9 40  1  0
 10 41  1  0
 10 42  1  0
 11 43  1  6
 13 44  1  0
 14 45  1  0
 17 46  1  0
 17 47  1  0
 22 48  1  0
 23 49  1  0
 25 50  1  0
 26 51  1  0
 28 52  1  0
 29 53  1  0
 30 54  1  0
 31 55  1  0
M  END
>  <smiles>  (90) 
O=C(NCC(=O)N1CCCC1c1ccc(OCC(F)(F)F)cc1)c1ccc2ccccc2n1

>  <score_type>  (90) 
oracle

>  <origin>  (90) 
autodockgpu

>  <m_score__min__energy>  (90) 
-8

>  <m_primary>  (90) 
energy

>  <rmsd>  (90) 
2.4241263302481975

>  <m_score__min__rmsd>  (90) 
2.4241263302481975

>  <meeko>  (90) 
{"free_energy": -7.37, "intermolecular_energy": -9.76, "internal_energy": -1.68, "cluster_size": 3, "cluster_id": 3, "rank_in_cluster": 2}

>  <energy>  (90) 
-5.9

>  <cluster_rmsd>  (90) 
1.17

>  <cluster>  (90) 
12

$$$$

     RDKit          3D

 55 58  0  0  0  0  0  0  0  0999 V2000
  137.9730   69.8880  221.9880 O   0  0  0  0  0  0  0  0  0  0  0  0
  138.0270   70.6950  222.9770 C   0  0  0  0  0  0  0  0  0  0  0  0
  137.3600   71.9260  222.8400 N   0  0  0  0  0  0  0  0  0  0  0  0
  136.6550   72.2170  221.6080 C   0  0  0  0  0  0  0  0  0  0  0  0
  137.3050   73.3070  220.8440 C   0  0  0  0  0  0  0  0  0  0  0  0
  136.6130   74.2010  220.2920 O   0  0  0  0  0  0  0  0  0  0  0  0
  138.7090   73.3940  220.6990 N   0  0  0  0  0  0  0  0  0  0  0  0
  139.5200   73.2290  219.4830 C   0  0  0  0  0  0  0  0  0  0  0  0
  140.6140   72.2800  220.0040 C   0  0  0  0  0  0  0  0  0  0  0  0
  140.9500   72.9100  221.3240 C   0  0  0  0  0  0  0  0  0  0  0  0
  139.7290   73.6680  221.7250 C   0  0  1  0  0  0  0  0  0  0  0  0
  140.0520   75.1210  221.7610 C   0  0  0  0  0  0  0  0  0  0  0  0
  139.1530   75.9650  222.3720 C   0  0  0  0  0  0  0  0  0  0  0  0
  139.4120   77.3090  222.4560 C   0  0  0  0  0  0  0  0  0  0  0  0
  140.5910   77.8770  221.9280 C   0  0  0  0  0  0  0  0  0  0  0  0
  140.7310   79.2010  222.0690 O   0  0  0  0  0  0  0  0  0  0  0  0
  141.6970   80.1470  222.0620 C   0  0  0  0  0  0  0  0  0  0  0  0
  142.4150   80.4920  223.3170 C   0  0  0  0  0  0  0  0  0  0  0  0
  141.9880   81.6020  223.9830 F   0  0  0  0  0  0  0  0  0  0  0  0
  143.7910   80.4990  223.1180 F   0  0  0  0  0  0  0  0  0  0  0  0
  142.2030   79.4230  224.2090 F   0  0  0  0  0  0  0  0  0  0  0  0
  141.4470   76.9870  221.3320 C   0  0  0  0  0  0  0  0  0  0  0  0
  141.2150   75.6320  221.2340 C   0  0  0  0  0  0  0  0  0  0  0  0
  138.7590   70.3270  224.1830 C   0  0  0  0  0  0  0  0  0  0  0  0
  138.8220   69.0010  224.5580 C   0  0  0  0  0  0  0  0  0  0  0  0
  139.4950   68.5690  225.6860 C   0  0  0  0  0  0  0  0  0  0  0  0
  140.1250   69.5500  226.4530 C   0  0  0  0  0  0  0  0  0  0  0  0
  140.7960   69.1300  227.5780 C   0  0  0  0  0  0  0  0  0  0  0  0
  141.4270   70.0900  228.3490 C   0  0  0  0  0  0  0  0  0  0  0  0
  141.3850   71.4450  228.0010 C   0  0  0  0  0  0  0  0  0  0  0  0
  140.6920   71.8250  226.8510 C   0  0  0  0  0  0  0  0  0  0  0  0
  140.0590   70.8720  226.0750 C   0  0  0  0  0  0  0  0  0  0  0  0
  139.3890   71.2260  224.9660 N   0  0  0  0  0  0  0  0  0  0  0  0
  137.3750   72.6280  223.6300 H   0  0  0  0  0  0  0  0  0  0  0  0
  136.6356   71.3096  220.9865 H   0  0  0  0  0  0  0  0  0  0  0  0
  135.6365   72.5423  221.8666 H   0  0  0  0  0  0  0  0  0  0  0  0
  138.9407   72.7722  218.6671 H   0  0  0  0  0  0  0  0  0  0  0  0
  139.8951   74.1683  219.0505 H   0  0  0  0  0  0  0  0  0  0  0  0
  140.2310   71.2569  220.1326 H   0  0  0  0  0  0  0  0  0  0  0  0
  141.4737   72.1706  219.3266 H   0  0  0  0  0  0  0  0  0  0  0  0
  141.1852   72.1370  222.0704 H   0  0  0  0  0  0  0  0  0  0  0  0
  141.8315   73.5640  221.2520 H   0  0  0  0  0  0  0  0  0  0  0  0
  139.3669   73.3701  222.7201 H   0  0  0  0  0  0  0  0  0  0  0  0
  138.2221   75.5595  222.7951 H   0  0  0  0  0  0  0  0  0  0  0  0
  138.6789   77.9639  222.9497 H   0  0  0  0  0  0  0  0  0  0  0  0
  142.4596   79.8154  221.3419 H   0  0  0  0  0  0  0  0  0  0  0  0
  141.1436   81.0685  221.8285 H   0  0  0  0  0  0  0  0  0  0  0  0
  142.3807   77.3805  220.9038 H   0  0  0  0  0  0  0  0  0  0  0  0
  141.9458   74.9720  220.7438 H   0  0  0  0  0  0  0  0  0  0  0  0
  138.3138   68.2534  223.9312 H   0  0  0  0  0  0  0  0  0  0  0  0
  139.5319   67.5056  225.9648 H   0  0  0  0  0  0  0  0  0  0  0  0
  140.8298   68.0661  227.8554 H   0  0  0  0  0  0  0  0  0  0  0  0
  141.9724   69.7822  229.2533 H   0  0  0  0  0  0  0  0  0  0  0  0
  141.8900   72.1980  228.6238 H   0  0  0  0  0  0  0  0  0  0  0  0
  140.6493   72.8853  226.5613 H   0  0  0  0  0  0  0  0  0  0  0  0
  1  2  2  0
  2  3  1  0
  3  4  1  0
  4  5  1  0
  5  6  2  0
  5  7  1  0
  7  8  1  0
  8  9  1  0
  9 10  1  0
 10 11  1  0
 11 12  1  0
 12 13  2  0
 13 14  1  0
 14 15  2  0
 15 16  1  0
 16 17  1  0
 17 18  1  0
 18 19  1  0
 18 20  1  0
 18 21  1  0
 15 22  1  0
 22 23  2  0
  2 24  1  0
 24 25  2  0
 25 26  1  0
 26 27  2  0
 27 28  1  0
 28 29  2  0
 29 30  1  0
 30 31  2  0
 31 32  1  0
 32 33  2  0
 11  7  1  0
 23 12  1  0
 33 24  1  0
 32 27  1  0
  3 34  1  0
  4 35  1  0
  4 36  1  0
  8 37  1  0
  8 38  1  0
  9 39  1  0
  9 40  1  0
 10 41  1  0
 10 42  1  0
 11 43  1  1
 13 44  1  0
 14 45  1  0
 17 46  1  0
 17 47  1  0
 22 48  1  0
 23 49  1  0
 25 50  1  0
 26 51  1  0
 28 52  1  0
 29 53  1  0
 30 54  1  0
 31 55  1  0
M  END
>  <smiles>  (91) 
O=C(NCC(=O)N1CCCC1c1ccc(OCC(F)(F)F)cc1)c1ccc2ccccc2n1

>  <score_type>  (91) 
oracle

>  <origin>  (91) 
autodockgpu

>  <m_score__min__energy>  (91) 
-8

>  <m_primary>  (91) 
energy

>  <rmsd>  (91) 
2.8180178460706995

>  <m_score__min__rmsd>  (91) 
2.8180178460706995

>  <meeko>  (91) 
{"free_energy": -7.08, "intermolecular_energy": -9.47, "internal_energy": -2.04, "cluster_size": 6, "cluster_id": 6, "rank_in_cluster": 3}

>  <energy>  (91) 
-6.42

>  <cluster_rmsd>  (91) 
0.0

>  <cluster>  (91) 
13

$$$$

     RDKit          3D

 55 58  0  0  0  0  0  0  0  0999 V2000
  141.0880   78.0410  217.6710 O   0  0  0  0  0  0  0  0  0  0  0  0
  142.0630   78.2030  218.4810 C   0  0  0  0  0  0  0  0  0  0  0  0
  143.2200   77.4380  218.2550 N   0  0  0  0  0  0  0  0  0  0  0  0
  143.2570   76.5180  217.1370 C   0  0  0  0  0  0  0  0  0  0  0  0
  143.0710   75.1140  217.5700 C   0  0  0  0  0  0  0  0  0  0  0  0
  142.9220   74.1970  216.7200 O   0  0  0  0  0  0  0  0  0  0  0  0
  143.0510   74.7400  218.9330 N   0  0  0  0  0  0  0  0  0  0  0  0
  144.0820   74.9530  219.9610 C   0  0  0  0  0  0  0  0  0  0  0  0
  144.1460   73.5480  220.5870 C   0  0  0  0  0  0  0  0  0  0  0  0
  142.6880   73.2150  220.7200 C   0  0  0  0  0  0  0  0  0  0  0  0
  141.9970   74.0360  219.6830 C   0  0  1  0  0  0  0  0  0  0  0  0
  141.1000   75.0140  220.3600 C   0  0  0  0  0  0  0  0  0  0  0  0
  141.3400   75.2980  221.6840 C   0  0  0  0  0  0  0  0  0  0  0  0
  140.5610   76.2090  222.3500 C   0  0  0  0  0  0  0  0  0  0  0  0
  139.4950   76.8840  221.7170 C   0  0  0  0  0  0  0  0  0  0  0  0
  138.8040   77.7490  222.4700 O   0  0  0  0  0  0  0  0  0  0  0  0
  138.8410   79.0430  222.8590 C   0  0  0  0  0  0  0  0  0  0  0  0
  138.2970   80.1060  221.9720 C   0  0  0  0  0  0  0  0  0  0  0  0
  138.6590   81.3880  222.2590 F   0  0  0  0  0  0  0  0  0  0  0  0
  136.9220   79.9720  221.8220 F   0  0  0  0  0  0  0  0  0  0  0  0
  138.8090   79.8570  220.6850 F   0  0  0  0  0  0  0  0  0  0  0  0
  139.3040   76.5590  220.3980 C   0  0  0  0  0  0  0  0  0  0  0  0
  140.0720   75.6490  219.7040 C   0  0  0  0  0  0  0  0  0  0  0  0
  141.9480   79.1500  219.5840 C   0  0  0  0  0  0  0  0  0  0  0  0
  141.5770   80.4520  219.3230 C   0  0  0  0  0  0  0  0  0  0  0  0
  141.4450   81.4110  220.3110 C   0  0  0  0  0  0  0  0  0  0  0  0
  141.7080   81.0010  221.6190 C   0  0  0  0  0  0  0  0  0  0  0  0
  141.5800   81.9470  222.6090 C   0  0  0  0  0  0  0  0  0  0  0  0
  141.8360   81.5570  223.9110 C   0  0  0  0  0  0  0  0  0  0  0  0
  142.2150   80.2450  224.2160 C   0  0  0  0  0  0  0  0  0  0  0  0
  142.3320   79.3180  223.1800 C   0  0  0  0  0  0  0  0  0  0  0  0
  142.0770   79.7000  221.8760 C   0  0  0  0  0  0  0  0  0  0  0  0
  142.1870   78.8170  220.8690 N   0  0  0  0  0  0  0  0  0  0  0  0
  144.0540   77.5360  218.8980 H   0  0  0  0  0  0  0  0  0  0  0  0
  142.4545   76.7821  216.4326 H   0  0  0  0  0  0  0  0  0  0  0  0
  144.2454   76.5996  216.6612 H   0  0  0  0  0  0  0  0  0  0  0  0
  145.0451   75.2441  219.5164 H   0  0  0  0  0  0  0  0  0  0  0  0
  143.8609   75.7627  220.6720 H   0  0  0  0  0  0  0  0  0  0  0  0
  144.6624   72.8364  219.9260 H   0  0  0  0  0  0  0  0  0  0  0  0
  144.7053   73.5028  221.5331 H   0  0  0  0  0  0  0  0  0  0  0  0
  142.5199   72.1434  220.5372 H   0  0  0  0  0  0  0  0  0  0  0  0
  142.3101   73.4302  221.7304 H   0  0  0  0  0  0  0  0  0  0  0  0
  141.3877   73.4186  219.0066 H   0  0  0  0  0  0  0  0  0  0  0  0
  142.1615   74.7915  222.2118 H   0  0  0  0  0  0  0  0  0  0  0  0
  140.7730   76.4200  223.4086 H   0  0  0  0  0  0  0  0  0  0  0  0
  138.2846   79.1051  223.8059 H   0  0  0  0  0  0  0  0  0  0  0  0
  139.9178   79.2660  222.8869 H   0  0  0  0  0  0  0  0  0  0  0  0
  138.4845   77.0571  219.8591 H   0  0  0  0  0  0  0  0  0  0  0  0
  139.8663   75.4347  218.6449 H   0  0  0  0  0  0  0  0  0  0  0  0
  141.3767   80.7415  218.2809 H   0  0  0  0  0  0  0  0  0  0  0  0
  141.1479   82.4441  220.0778 H   0  0  0  0  0  0  0  0  0  0  0  0
  141.2838   82.9798  222.3731 H   0  0  0  0  0  0  0  0  0  0  0  0
  141.7397   82.2929  224.7229 H   0  0  0  0  0  0  0  0  0  0  0  0
  142.4174   79.9493  225.2560 H   0  0  0  0  0  0  0  0  0  0  0  0
  142.6276   78.2817  223.4010 H   0  0  0  0  0  0  0  0  0  0  0  0
  1  2  2  0
  2  3  1  0
  3  4  1  0
  4  5  1  0
  5  6  2  0
  5  7  1  0
  7  8  1  0
  8  9  1  0
  9 10  1  0
 10 11  1  0
 11 12  1  0
 12 13  2  0
 13 14  1  0
 14 15  2  0
 15 16  1  0
 16 17  1  0
 17 18  1  0
 18 19  1  0
 18 20  1  0
 18 21  1  0
 15 22  1  0
 22 23  2  0
  2 24  1  0
 24 25  2  0
 25 26  1  0
 26 27  2  0
 27 28  1  0
 28 29  2  0
 29 30  1  0
 30 31  2  0
 31 32  1  0
 32 33  2  0
 11  7  1  0
 23 12  1  0
 33 24  1  0
 32 27  1  0
  3 34  1  0
  4 35  1  0
  4 36  1  0
  8 37  1  0
  8 38  1  0
  9 39  1  0
  9 40  1  0
 10 41  1  0
 10 42  1  0
 11 43  1  6
 13 44  1  0
 14 45  1  0
 17 46  1  0
 17 47  1  0
 22 48  1  0
 23 49  1  0
 25 50  1  0
 26 51  1  0
 28 52  1  0
 29 53  1  0
 30 54  1  0
 31 55  1  0
M  END
>  <smiles>  (92) 
O=C(NCC(=O)N1CCCC1c1ccc(OCC(F)(F)F)cc1)c1ccc2ccccc2n1

>  <score_type>  (92) 
oracle

>  <origin>  (92) 
autodockgpu

>  <m_score__min__energy>  (92) 
-8

>  <m_primary>  (92) 
energy

>  <rmsd>  (92) 
9.014434674421507

>  <m_score__min__rmsd>  (92) 
9.014434674421507

>  <meeko>  (92) 
{"free_energy": -5.29, "intermolecular_energy": -7.67, "internal_energy": -3.51, "cluster_size": 7, "cluster_id": 14, "rank_in_cluster": 7}

>  <energy>  (92) 
-5.97

>  <cluster_rmsd>  (92) 
0.68

>  <cluster>  (92) 
13

$$$$

     RDKit          3D

 55 58  0  0  0  0  0  0  0  0999 V2000
  138.7260   75.4460  221.7560 O   0  0  0  0  0  0  0  0  0  0  0  0
  139.9230   75.8360  221.9770 C   0  0  0  0  0  0  0  0  0  0  0  0
  140.9500   74.8930  221.7940 N   0  0  0  0  0  0  0  0  0  0  0  0
  140.6130   73.5490  221.3710 C   0  0  0  0  0  0  0  0  0  0  0  0
  141.8210   72.7220  221.1440 C   0  0  0  0  0  0  0  0  0  0  0  0
  141.8660   71.5310  221.5490 O   0  0  0  0  0  0  0  0  0  0  0  0
  142.9620   73.2200  220.4740 N   0  0  0  0  0  0  0  0  0  0  0  0
  143.7770   72.5690  219.4360 C   0  0  0  0  0  0  0  0  0  0  0  0
  145.1900   72.8320  219.9850 C   0  0  0  0  0  0  0  0  0  0  0  0
  145.0900   74.2760  220.3860 C   0  0  0  0  0  0  0  0  0  0  0  0
  143.6400   74.5160  220.6420 C   0  0  1  0  0  0  0  0  0  0  0  0
  143.1310   75.5000  219.6470 C   0  0  0  0  0  0  0  0  0  0  0  0
  142.9720   76.8050  220.0550 C   0  0  0  0  0  0  0  0  0  0  0  0
  142.5300   77.7580  219.1740 C   0  0  0  0  0  0  0  0  0  0  0  0
  142.2220   77.4480  217.8310 C   0  0  0  0  0  0  0  0  0  0  0  0
  141.7980   78.4620  217.0670 O   0  0  0  0  0  0  0  0  0  0  0  0
  142.2000   79.6840  216.6500 C   0  0  0  0  0  0  0  0  0  0  0  0
  142.2010   80.8330  217.5940 C   0  0  0  0  0  0  0  0  0  0  0  0
  143.3340   81.5910  217.6360 F   0  0  0  0  0  0  0  0  0  0  0  0
  141.7910   80.4370  218.8610 F   0  0  0  0  0  0  0  0  0  0  0  0
  141.1870   81.7090  217.1630 F   0  0  0  0  0  0  0  0  0  0  0  0
  142.3990   76.1330  217.4840 C   0  0  0  0  0  0  0  0  0  0  0  0
  142.8430   75.1550  218.3470 C   0  0  0  0  0  0  0  0  0  0  0  0
  140.1790   77.2070  222.4000 C   0  0  0  0  0  0  0  0  0  0  0  0
  139.1160   78.0420  222.6720 C   0  0  0  0  0  0  0  0  0  0  0  0
  139.2740   79.3540  223.0780 C   0  0  0  0  0  0  0  0  0  0  0  0
  140.5850   79.8170  223.2070 C   0  0  0  0  0  0  0  0  0  0  0  0
  140.7520   81.1200  223.6100 C   0  0  0  0  0  0  0  0  0  0  0  0
  142.0450   81.5940  223.7430 C   0  0  0  0  0  0  0  0  0  0  0  0
  143.1490   80.7770  223.4760 C   0  0  0  0  0  0  0  0  0  0  0  0
  142.9320   79.4600  223.0700 C   0  0  0  0  0  0  0  0  0  0  0  0
  141.6430   78.9800  222.9350 C   0  0  0  0  0  0  0  0  0  0  0  0
  141.4210   77.7130  222.5440 N   0  0  0  0  0  0  0  0  0  0  0  0
  141.9570   75.1660  221.9640 H   0  0  0  0  0  0  0  0  0  0  0  0
  139.9985   73.0745  222.1502 H   0  0  0  0  0  0  0  0  0  0  0  0
  140.0639   73.6184  220.4204 H   0  0  0  0  0  0  0  0  0  0  0  0
  143.5620   71.4925  219.3663 H   0  0  0  0  0  0  0  0  0  0  0  0
  143.6042   72.9422  218.4158 H   0  0  0  0  0  0  0  0  0  0  0  0
  145.4115   72.1890  220.8496 H   0  0  0  0  0  0  0  0  0  0  0  0
  145.9969   72.6199  219.2681 H   0  0  0  0  0  0  0  0  0  0  0  0
  145.6780   74.4643  221.2964 H   0  0  0  0  0  0  0  0  0  0  0  0
  145.4844   74.9453  219.6072 H   0  0  0  0  0  0  0  0  0  0  0  0
  143.4608   74.9180  221.6501 H   0  0  0  0  0  0  0  0  0  0  0  0
  143.2009   77.0849  221.0939 H   0  0  0  0  0  0  0  0  0  0  0  0
  142.4118   78.7943  219.5234 H   0  0  0  0  0  0  0  0  0  0  0  0
  143.2324   79.5711  216.2874 H   0  0  0  0  0  0  0  0  0  0  0  0
  141.4310   79.9638  215.9150 H   0  0  0  0  0  0  0  0  0  0  0  0
  142.1715   75.8398  216.4485 H   0  0  0  0  0  0  0  0  0  0  0  0
  142.9649   74.1174  218.0027 H   0  0  0  0  0  0  0  0  0  0  0  0
  138.0957   77.6461  222.5609 H   0  0  0  0  0  0  0  0  0  0  0  0
  138.4098   80.0011  223.2890 H   0  0  0  0  0  0  0  0  0  0  0  0
  139.8861   81.7651  223.8200 H   0  0  0  0  0  0  0  0  0  0  0  0
  142.2082   82.6331  224.0648 H   0  0  0  0  0  0  0  0  0  0  0  0
  144.1718   81.1669  223.5845 H   0  0  0  0  0  0  0  0  0  0  0  0
  143.7880   78.8028  222.8571 H   0  0  0  0  0  0  0  0  0  0  0  0
  1  2  2  0
  2  3  1  0
  3  4  1  0
  4  5  1  0
  5  6  2  0
  5  7  1  0
  7  8  1  0
  8  9  1  0
  9 10  1  0
 10 11  1  0
 11 12  1  0
 12 13  2  0
 13 14  1  0
 14 15  2  0
 15 16  1  0
 16 17  1  0
 17 18  1  0
 18 19  1  0
 18 20  1  0
 18 21  1  0
 15 22  1  0
 22 23  2  0
  2 24  1  0
 24 25  2  0
 25 26  1  0
 26 27  2  0
 27 28  1  0
 28 29  2  0
 29 30  1  0
 30 31  2  0
 31 32  1  0
 32 33  2  0
 11  7  1  0
 23 12  1  0
 33 24  1  0
 32 27  1  0
  3 34  1  0
  4 35  1  0
  4 36  1  0
  8 37  1  0
  8 38  1  0
  9 39  1  0
  9 40  1  0
 10 41  1  0
 10 42  1  0
 11 43  1  1
 13 44  1  0
 14 45  1  0
 17 46  1  0
 17 47  1  0
 22 48  1  0
 23 49  1  0
 25 50  1  0
 26 51  1  0
 28 52  1  0
 29 53  1  0
 30 54  1  0
 31 55  1  0
M  END
>  <smiles>  (93) 
O=C(NCC(=O)N1CCCC1c1ccc(OCC(F)(F)F)cc1)c1ccc2ccccc2n1

>  <score_type>  (93) 
oracle

>  <origin>  (93) 
autodockgpu

>  <m_score__min__energy>  (93) 
-8

>  <m_primary>  (93) 
energy

>  <rmsd>  (93) 
7.721876962837022

>  <m_score__min__rmsd>  (93) 
7.721876962837022

>  <meeko>  (93) 
{"free_energy": -6.6, "intermolecular_energy": -8.99, "internal_energy": -2.19, "cluster_size": 3, "cluster_id": 12, "rank_in_cluster": 1}

>  <energy>  (93) 
-5.93

>  <cluster_rmsd>  (93) 
0.49

>  <cluster>  (93) 
13

$$$$

     RDKit          3D

 55 58  0  0  0  0  0  0  0  0999 V2000
  137.8240   69.9820  221.8720 O   0  0  0  0  0  0  0  0  0  0  0  0
  137.9210   70.7400  222.8960 C   0  0  0  0  0  0  0  0  0  0  0  0
  137.3560   72.0240  222.8020 N   0  0  0  0  0  0  0  0  0  0  0  0
  136.7000   72.4230  221.5730 C   0  0  0  0  0  0  0  0  0  0  0  0
  137.6760   72.7560  220.5100 C   0  0  0  0  0  0  0  0  0  0  0  0
  137.2950   72.9210  219.3210 O   0  0  0  0  0  0  0  0  0  0  0  0
  139.0580   72.9020  220.7710 N   0  0  0  0  0  0  0  0  0  0  0  0
  140.1980   72.5910  219.8940 C   0  0  0  0  0  0  0  0  0  0  0  0
  141.0930   71.8050  220.8690 C   0  0  0  0  0  0  0  0  0  0  0  0
  141.0120   72.6590  222.1010 C   0  0  0  0  0  0  0  0  0  0  0  0
  139.7210   73.3970  221.9890 C   0  0  1  0  0  0  0  0  0  0  0  0
  140.0060   74.8540  221.8690 C   0  0  0  0  0  0  0  0  0  0  0  0
  141.1570   75.2330  221.2170 C   0  0  0  0  0  0  0  0  0  0  0  0
  141.4570   76.5610  221.0560 C   0  0  0  0  0  0  0  0  0  0  0  0
  140.6130   77.5820  221.5440 C   0  0  0  0  0  0  0  0  0  0  0  0
  141.0120   78.8410  221.3280 O   0  0  0  0  0  0  0  0  0  0  0  0
  141.4390   79.9240  222.0150 C   0  0  0  0  0  0  0  0  0  0  0  0
  142.2770   79.7560  223.2320 C   0  0  0  0  0  0  0  0  0  0  0  0
  142.1480   78.5790  223.9070 F   0  0  0  0  0  0  0  0  0  0  0  0
  142.1590   80.8560  224.0730 F   0  0  0  0  0  0  0  0  0  0  0  0
  143.6180   79.7920  222.8050 F   0  0  0  0  0  0  0  0  0  0  0  0
  139.4820   77.1430  222.1840 C   0  0  0  0  0  0  0  0  0  0  0  0
  139.1540   75.8160  222.3590 C   0  0  0  0  0  0  0  0  0  0  0  0
  138.5970   70.2630  224.0970 C   0  0  0  0  0  0  0  0  0  0  0  0
  138.6270   68.9110  224.3660 C   0  0  0  0  0  0  0  0  0  0  0  0
  139.2470   68.3790  225.4820 C   0  0  0  0  0  0  0  0  0  0  0  0
  139.8580   69.2850  226.3500 C   0  0  0  0  0  0  0  0  0  0  0  0
  140.4760   68.7650  227.4630 C   0  0  0  0  0  0  0  0  0  0  0  0
  141.0870   69.6490  228.3340 C   0  0  0  0  0  0  0  0  0  0  0  0
  141.0780   71.0280  228.0950 C   0  0  0  0  0  0  0  0  0  0  0  0
  140.4390   71.5110  226.9530 C   0  0  0  0  0  0  0  0  0  0  0  0
  139.8260   70.6340  226.0780 C   0  0  0  0  0  0  0  0  0  0  0  0
  139.2060   71.0870  224.9740 N   0  0  0  0  0  0  0  0  0  0  0  0
  137.4100   72.6880  223.6220 H   0  0  0  0  0  0  0  0  0  0  0  0
  136.0632   71.5963  221.2250 H   0  0  0  0  0  0  0  0  0  0  0  0
  136.1024   73.3226  221.7816 H   0  0  0  0  0  0  0  0  0  0  0  0
  139.8937   71.9750  219.0350 H   0  0  0  0  0  0  0  0  0  0  0  0
  140.6778   73.4685  219.4360 H   0  0  0  0  0  0  0  0  0  0  0  0
  140.6975   70.7952  221.0529 H   0  0  0  0  0  0  0  0  0  0  0  0
  142.1173   71.6388  220.5041 H   0  0  0  0  0  0  0  0  0  0  0  0
  141.0194   72.0320  223.0048 H   0  0  0  0  0  0  0  0  0  0  0  0
  141.8687   73.3444  222.1799 H   0  0  0  0  0  0  0  0  0  0  0  0
  139.0797   73.2415  222.8691 H   0  0  0  0  0  0  0  0  0  0  0  0
  141.8401   74.4662  220.8228 H   0  0  0  0  0  0  0  0  0  0  0  0
  142.3827   76.8392  220.5310 H   0  0  0  0  0  0  0  0  0  0  0  0
  142.0224   80.5355  221.3110 H   0  0  0  0  0  0  0  0  0  0  0  0
  140.5066   80.3533  222.4104 H   0  0  0  0  0  0  0  0  0  0  0  0
  138.7913   77.9000  222.5839 H   0  0  0  0  0  0  0  0  0  0  0  0
  138.2283   75.5316  222.8807 H   0  0  0  0  0  0  0  0  0  0  0  0
  138.1355   68.2244  223.6610 H   0  0  0  0  0  0  0  0  0  0  0  0
  139.2579   67.2962  225.6757 H   0  0  0  0  0  0  0  0  0  0  0  0
  140.4842   67.6818  227.6543 H   0  0  0  0  0  0  0  0  0  0  0  0
  141.5898   69.2606  229.2320 H   0  0  0  0  0  0  0  0  0  0  0  0
  141.5670   71.7199  228.7965 H   0  0  0  0  0  0  0  0  0  0  0  0
  140.4229   72.5917  226.7484 H   0  0  0  0  0  0  0  0  0  0  0  0
  1  2  2  0
  2  3  1  0
  3  4  1  0
  4  5  1  0
  5  6  2  0
  5  7  1  0
  7  8  1  0
  8  9  1  0
  9 10  1  0
 10 11  1  0
 11 12  1  0
 12 13  2  0
 13 14  1  0
 14 15  2  0
 15 16  1  0
 16 17  1  0
 17 18  1  0
 18 19  1  0
 18 20  1  0
 18 21  1  0
 15 22  1  0
 22 23  2  0
  2 24  1  0
 24 25  2  0
 25 26  1  0
 26 27  2  0
 27 28  1  0
 28 29  2  0
 29 30  1  0
 30 31  2  0
 31 32  1  0
 32 33  2  0
 11  7  1  0
 23 12  1  0
 33 24  1  0
 32 27  1  0
  3 34  1  0
  4 35  1  0
  4 36  1  0
  8 37  1  0
  8 38  1  0
  9 39  1  0
  9 40  1  0
 10 41  1  0
 10 42  1  0
 11 43  1  1
 13 44  1  0
 14 45  1  0
 17 46  1  0
 17 47  1  0
 22 48  1  0
 23 49  1  0
 25 50  1  0
 26 51  1  0
 28 52  1  0
 29 53  1  0
 30 54  1  0
 31 55  1  0
M  END
>  <smiles>  (94) 
O=C(NCC(=O)N1CCCC1c1ccc(OCC(F)(F)F)cc1)c1ccc2ccccc2n1

>  <score_type>  (94) 
oracle

>  <origin>  (94) 
autodockgpu

>  <m_score__min__energy>  (94) 
-8

>  <m_primary>  (94) 
energy

>  <rmsd>  (94) 
3.097617273275021

>  <m_score__min__rmsd>  (94) 
3.097617273275021

>  <meeko>  (94) 
{"free_energy": -6.98, "intermolecular_energy": -9.37, "internal_energy": -2.09, "cluster_size": 11, "cluster_id": 2, "rank_in_cluster": 11}

>  <energy>  (94) 
-5.63

>  <cluster_rmsd>  (94) 
0.0

>  <cluster>  (94) 
14

$$$$

     RDKit          3D

 55 58  0  0  0  0  0  0  0  0999 V2000
  140.9750   74.5040  221.1400 O   0  0  0  0  0  0  0  0  0  0  0  0
  140.0500   74.9180  221.9180 C   0  0  0  0  0  0  0  0  0  0  0  0
  139.0990   73.9740  222.3450 N   0  0  0  0  0  0  0  0  0  0  0  0
  139.2090   72.6010  221.8960 C   0  0  0  0  0  0  0  0  0  0  0  0
  140.2610   71.8620  222.6320 C   0  0  0  0  0  0  0  0  0  0  0  0
  141.4420   71.8300  222.1980 O   0  0  0  0  0  0  0  0  0  0  0  0
  139.9960   71.1680  223.8340 N   0  0  0  0  0  0  0  0  0  0  0  0
  140.3580   71.5390  225.2110 C   0  0  0  0  0  0  0  0  0  0  0  0
  140.9410   70.2080  225.7150 C   0  0  0  0  0  0  0  0  0  0  0  0
  139.9270   69.2260  225.2040 C   0  0  0  0  0  0  0  0  0  0  0  0
  139.2920   69.8880  224.0270 C   0  0  1  0  0  0  0  0  0  0  0  0
  137.8530   70.1270  224.3250 C   0  0  0  0  0  0  0  0  0  0  0  0
  137.3130   71.3400  223.9640 C   0  0  0  0  0  0  0  0  0  0  0  0
  135.9870   71.6040  224.1920 C   0  0  0  0  0  0  0  0  0  0  0  0
  135.1310   70.6590  224.7980 C   0  0  0  0  0  0  0  0  0  0  0  0
  133.8570   71.0320  224.9710 O   0  0  0  0  0  0  0  0  0  0  0  0
  133.1280   72.1410  225.2270 C   0  0  0  0  0  0  0  0  0  0  0  0
  133.1590   72.7610  226.5790 C   0  0  0  0  0  0  0  0  0  0  0  0
  133.7950   72.0610  227.5600 F   0  0  0  0  0  0  0  0  0  0  0  0
  131.8880   73.1690  226.9670 F   0  0  0  0  0  0  0  0  0  0  0  0
  133.8820   73.9620  226.4540 F   0  0  0  0  0  0  0  0  0  0  0  0
  135.7260   69.4700  225.1360 C   0  0  0  0  0  0  0  0  0  0  0  0
  137.0540   69.1770  224.9180 C   0  0  0  0  0  0  0  0  0  0  0  0
  140.0080   76.3170  222.3250 C   0  0  0  0  0  0  0  0  0  0  0  0
  138.7890   76.9470  222.4610 C   0  0  0  0  0  0  0  0  0  0  0  0
  138.6640   78.2700  222.8430 C   0  0  0  0  0  0  0  0  0  0  0  0
  139.8480   78.9650  223.0940 C   0  0  0  0  0  0  0  0  0  0  0  0
  139.7340   80.2810  223.4740 C   0  0  0  0  0  0  0  0  0  0  0  0
  140.8980   80.9830  223.7270 C   0  0  0  0  0  0  0  0  0  0  0  0
  142.1540   80.3790  223.6000 C   0  0  0  0  0  0  0  0  0  0  0  0
  142.2220   79.0400  223.2120 C   0  0  0  0  0  0  0  0  0  0  0  0
  141.0630   78.3320  222.9580 C   0  0  0  0  0  0  0  0  0  0  0  0
  141.1160   77.0420  222.5820 N   0  0  0  0  0  0  0  0  0  0  0  0
  138.3130   74.2680  222.9890 H   0  0  0  0  0  0  0  0  0  0  0  0
  138.2440   72.0970  222.0533 H   0  0  0  0  0  0  0  0  0  0  0  0
  139.4817   72.6115  220.8304 H   0  0  0  0  0  0  0  0  0  0  0  0
  141.1072   72.3442  225.2312 H   0  0  0  0  0  0  0  0  0  0  0  0
  139.5263   71.9329  225.8136 H   0  0  0  0  0  0  0  0  0  0  0  0
  141.9363   70.0174  225.2872 H   0  0  0  0  0  0  0  0  0  0  0  0
  141.0951   70.1688  226.8034 H   0  0  0  0  0  0  0  0  0  0  0  0
  140.4174   68.2893  224.9005 H   0  0  0  0  0  0  0  0  0  0  0  0
  139.1869   68.9641  225.9745 H   0  0  0  0  0  0  0  0  0  0  0  0
  139.3588   69.2690  223.1201 H   0  0  0  0  0  0  0  0  0  0  0  0
  137.9487   72.1022  223.4898 H   0  0  0  0  0  0  0  0  0  0  0  0
  135.5782   72.5808  223.8940 H   0  0  0  0  0  0  0  0  0  0  0  0
  133.4640   72.9115  224.5175 H   0  0  0  0  0  0  0  0  0  0  0  0
  132.0909   71.7855  225.1379 H   0  0  0  0  0  0  0  0  0  0  0  0
  135.1014   68.7000  225.6125 H   0  0  0  0  0  0  0  0  0  0  0  0
  137.4681   68.2014  225.2126 H   0  0  0  0  0  0  0  0  0  0  0  0
  137.8745   76.3709  222.2563 H   0  0  0  0  0  0  0  0  0  0  0  0
  137.6799   78.7510  222.9441 H   0  0  0  0  0  0  0  0  0  0  0  0
  138.7488   80.7601  223.5736 H   0  0  0  0  0  0  0  0  0  0  0  0
  140.8356   82.0374  224.0343 H   0  0  0  0  0  0  0  0  0  0  0  0
  143.0722   80.9499  223.8026 H   0  0  0  0  0  0  0  0  0  0  0  0
  143.2001   78.5475  223.1083 H   0  0  0  0  0  0  0  0  0  0  0  0
  1  2  2  0
  2  3  1  0
  3  4  1  0
  4  5  1  0
  5  6  2  0
  5  7  1  0
  7  8  1  0
  8  9  1  0
  9 10  1  0
 10 11  1  0
 11 12  1  0
 12 13  2  0
 13 14  1  0
 14 15  2  0
 15 16  1  0
 16 17  1  0
 17 18  1  0
 18 19  1  0
 18 20  1  0
 18 21  1  0
 15 22  1  0
 22 23  2  0
  2 24  1  0
 24 25  2  0
 25 26  1  0
 26 27  2  0
 27 28  1  0
 28 29  2  0
 29 30  1  0
 30 31  2  0
 31 32  1  0
 32 33  2  0
 11  7  1  0
 23 12  1  0
 33 24  1  0
 32 27  1  0
  3 34  1  0
  4 35  1  0
  4 36  1  0
  8 37  1  0
  8 38  1  0
  9 39  1  0
  9 40  1  0
 10 41  1  0
 10 42  1  0
 11 43  1  6
 13 44  1  0
 14 45  1  0
 17 46  1  0
 17 47  1  0
 22 48  1  0
 23 49  1  0
 25 50  1  0
 26 51  1  0
 28 52  1  0
 29 53  1  0
 30 54  1  0
 31 55  1  0
M  END
>  <smiles>  (95) 
O=C(NCC(=O)N1CCCC1c1ccc(OCC(F)(F)F)cc1)c1ccc2ccccc2n1

>  <score_type>  (95) 
oracle

>  <origin>  (95) 
autodockgpu

>  <m_score__min__energy>  (95) 
-8

>  <m_primary>  (95) 
energy

>  <rmsd>  (95) 
8.38080256046624

>  <m_score__min__rmsd>  (95) 
8.38080256046624

>  <meeko>  (95) 
{"free_energy": -7.06, "intermolecular_energy": -9.45, "internal_energy": -1.35, "cluster_size": 1, "cluster_id": 9, "rank_in_cluster": 1}

>  <energy>  (95) 
-5.59

>  <cluster_rmsd>  (95) 
0.23

>  <cluster>  (95) 
14

$$$$

     RDKit          3D

 55 58  0  0  0  0  0  0  0  0999 V2000
  141.2550   72.7190  221.9730 O   0  0  0  0  0  0  0  0  0  0  0  0
  140.1750   72.5990  222.6450 C   0  0  0  0  0  0  0  0  0  0  0  0
  139.1510   73.5270  222.3890 N   0  0  0  0  0  0  0  0  0  0  0  0
  139.3610   74.5580  221.3920 C   0  0  0  0  0  0  0  0  0  0  0  0
  139.0980   75.9120  221.9340 C   0  0  0  0  0  0  0  0  0  0  0  0
  138.0360   76.1520  222.5660 O   0  0  0  0  0  0  0  0  0  0  0  0
  140.0080   76.9810  221.7710 N   0  0  0  0  0  0  0  0  0  0  0  0
  141.0630   77.4400  222.6890 C   0  0  0  0  0  0  0  0  0  0  0  0
  140.7950   78.9550  222.6860 C   0  0  0  0  0  0  0  0  0  0  0  0
  140.5910   79.2190  221.2210 C   0  0  0  0  0  0  0  0  0  0  0  0
  140.1390   77.9200  220.6440 C   0  0  1  0  0  0  0  0  0  0  0  0
  141.1670   77.4350  219.6810 C   0  0  0  0  0  0  0  0  0  0  0  0
  141.8080   78.3690  218.9000 C   0  0  0  0  0  0  0  0  0  0  0  0
  142.7810   77.9820  218.0140 C   0  0  0  0  0  0  0  0  0  0  0  0
  143.1600   76.6300  217.8660 C   0  0  0  0  0  0  0  0  0  0  0  0
  144.1200   76.3740  216.9680 O   0  0  0  0  0  0  0  0  0  0  0  0
  144.2620   76.1200  215.6480 C   0  0  0  0  0  0  0  0  0  0  0  0
  143.2860   76.6720  214.6710 C   0  0  0  0  0  0  0  0  0  0  0  0
  143.6430   76.6260  213.3560 F   0  0  0  0  0  0  0  0  0  0  0  0
  142.8610   77.9380  215.0530 F   0  0  0  0  0  0  0  0  0  0  0  0
  142.1280   75.8770  214.7670 F   0  0  0  0  0  0  0  0  0  0  0  0
  142.4860   75.7470  218.6700 C   0  0  0  0  0  0  0  0  0  0  0  0
  141.5060   76.1070  219.5690 C   0  0  0  0  0  0  0  0  0  0  0  0
  140.0420   71.5330  223.6310 C   0  0  0  0  0  0  0  0  0  0  0  0
  139.4150   70.3570  223.2770 C   0  0  0  0  0  0  0  0  0  0  0  0
  139.2490   69.2990  224.1520 C   0  0  0  0  0  0  0  0  0  0  0  0
  139.7530   69.4690  225.4430 C   0  0  0  0  0  0  0  0  0  0  0  0
  139.5920   68.4220  226.3200 C   0  0  0  0  0  0  0  0  0  0  0  0
  140.0860   68.5740  227.6030 C   0  0  0  0  0  0  0  0  0  0  0  0
  140.7290   69.7520  227.9990 C   0  0  0  0  0  0  0  0  0  0  0  0
  140.8700   70.7870  227.0760 C   0  0  0  0  0  0  0  0  0  0  0  0
  140.3790   70.6440  225.7920 C   0  0  0  0  0  0  0  0  0  0  0  0
  140.5080   71.6350  224.8930 N   0  0  0  0  0  0  0  0  0  0  0  0
  138.2390   73.4710  222.9200 H   0  0  0  0  0  0  0  0  0  0  0  0
  140.4037   74.5101  221.0450 H   0  0  0  0  0  0  0  0  0  0  0  0
  138.6591   74.3798  220.5640 H   0  0  0  0  0  0  0  0  0  0  0  0
  140.9437   77.0082  223.6936 H   0  0  0  0  0  0  0  0  0  0  0  0
  142.0837   77.1538  222.3952 H   0  0  0  0  0  0  0  0  0  0  0  0
  139.8962   79.2054  223.2686 H   0  0  0  0  0  0  0  0  0  0  0  0
  141.5969   79.5537  223.1427 H   0  0  0  0  0  0  0  0  0  0  0  0
  139.8243   79.9937  221.0726 H   0  0  0  0  0  0  0  0  0  0  0  0
  141.5102   79.5832  220.7389 H   0  0  0  0  0  0  0  0  0  0  0  0
  139.1827   78.0175  220.1092 H   0  0  0  0  0  0  0  0  0  0  0  0
  141.5386   79.4320  218.9866 H   0  0  0  0  0  0  0  0  0  0  0  0
  143.2804   78.7469  217.4012 H   0  0  0  0  0  0  0  0  0  0  0  0
  145.2518   76.5015  215.3568 H   0  0  0  0  0  0  0  0  0  0  0  0
  144.0961   75.0346  215.5822 H   0  0  0  0  0  0  0  0  0  0  0  0
  142.7449   74.6807  218.5920 H   0  0  0  0  0  0  0  0  0  0  0  0
  141.0043   75.3466  220.1855 H   0  0  0  0  0  0  0  0  0  0  0  0
  139.0292   70.2558  222.2518 H   0  0  0  0  0  0  0  0  0  0  0  0
  138.7452   68.3702  223.8463 H   0  0  0  0  0  0  0  0  0  0  0  0
  139.0872   67.4946  226.0115 H   0  0  0  0  0  0  0  0  0  0  0  0
  139.9712   67.7530  228.3260 H   0  0  0  0  0  0  0  0  0  0  0  0
  141.1171   69.8596  229.0226 H   0  0  0  0  0  0  0  0  0  0  0  0
  141.3732   71.7198  227.3703 H   0  0  0  0  0  0  0  0  0  0  0  0
  1  2  2  0
  2  3  1  0
  3  4  1  0
  4  5  1  0
  5  6  2  0
  5  7  1  0
  7  8  1  0
  8  9  1  0
  9 10  1  0
 10 11  1  0
 11 12  1  0
 12 13  2  0
 13 14  1  0
 14 15  2  0
 15 16  1  0
 16 17  1  0
 17 18  1  0
 18 19  1  0
 18 20  1  0
 18 21  1  0
 15 22  1  0
 22 23  2  0
  2 24  1  0
 24 25  2  0
 25 26  1  0
 26 27  2  0
 27 28  1  0
 28 29  2  0
 29 30  1  0
 30 31  2  0
 31 32  1  0
 32 33  2  0
 11  7  1  0
 23 12  1  0
 33 24  1  0
 32 27  1  0
  3 34  1  0
  4 35  1  0
  4 36  1  0
  8 37  1  0
  8 38  1  0
  9 39  1  0
  9 40  1  0
 10 41  1  0
 10 42  1  0
 11 43  1  6
 13 44  1  0
 14 45  1  0
 17 46  1  0
 17 47  1  0
 22 48  1  0
 23 49  1  0
 25 50  1  0
 26 51  1  0
 28 52  1  0
 29 53  1  0
 30 54  1  0
 31 55  1  0
M  END
>  <smiles>  (96) 
O=C(NCC(=O)N1CCCC1c1ccc(OCC(F)(F)F)cc1)c1ccc2ccccc2n1

>  <score_type>  (96) 
oracle

>  <origin>  (96) 
autodockgpu

>  <m_score__min__energy>  (96) 
-8

>  <m_primary>  (96) 
energy

>  <rmsd>  (96) 
2.8515789262420608

>  <m_score__min__rmsd>  (96) 
2.8515789262420608

>  <meeko>  (96) 
{"free_energy": -6.97, "intermolecular_energy": -9.35, "internal_energy": -1.58, "cluster_size": 1, "cluster_id": 10, "rank_in_cluster": 1}

>  <energy>  (96) 
-5.58

>  <cluster_rmsd>  (96) 
0.18

>  <cluster>  (96) 
14

$$$$

     RDKit          3D

 55 58  0  0  0  0  0  0  0  0999 V2000
  140.1080   73.4100  222.3840 O   0  0  0  0  0  0  0  0  0  0  0  0
  140.1740   72.1340  222.3950 C   0  0  0  0  0  0  0  0  0  0  0  0
  140.3050   71.4860  221.1540 N   0  0  0  0  0  0  0  0  0  0  0  0
  140.3590   72.2780  219.9420 C   0  0  0  0  0  0  0  0  0  0  0  0
  141.7150   72.8220  219.6980 C   0  0  0  0  0  0  0  0  0  0  0  0
  142.7330   72.2130  220.1190 O   0  0  0  0  0  0  0  0  0  0  0  0
  141.9300   74.0290  218.9940 N   0  0  0  0  0  0  0  0  0  0  0  0
  141.2340   74.5350  217.8000 C   0  0  0  0  0  0  0  0  0  0  0  0
  142.4340   74.9570  216.9350 C   0  0  0  0  0  0  0  0  0  0  0  0
  143.2910   75.6700  217.9430 C   0  0  0  0  0  0  0  0  0  0  0  0
  142.9090   75.0960  219.2650 C   0  0  1  0  0  0  0  0  0  0  0  0
  142.2920   76.1660  220.0970 C   0  0  0  0  0  0  0  0  0  0  0  0
  141.6130   75.7890  221.2330 C   0  0  0  0  0  0  0  0  0  0  0  0
  141.0470   76.7340  222.0480 C   0  0  0  0  0  0  0  0  0  0  0  0
  141.1330   78.1140  221.7640 C   0  0  0  0  0  0  0  0  0  0  0  0
  140.5390   78.9420  222.6330 O   0  0  0  0  0  0  0  0  0  0  0  0
  140.8580   79.8210  223.6090 C   0  0  0  0  0  0  0  0  0  0  0  0
  141.9850   80.7730  223.4200 C   0  0  0  0  0  0  0  0  0  0  0  0
  142.2510   81.6210  224.4530 F   0  0  0  0  0  0  0  0  0  0  0  0
  141.8700   81.4440  222.2080 F   0  0  0  0  0  0  0  0  0  0  0  0
  143.1480   79.9950  223.2720 F   0  0  0  0  0  0  0  0  0  0  0  0
  141.8220   78.4290  220.6200 C   0  0  0  0  0  0  0  0  0  0  0  0
  142.4010   77.5010  219.7820 C   0  0  0  0  0  0  0  0  0  0  0  0
  140.1120   71.4090  223.6590 C   0  0  0  0  0  0  0  0  0  0  0  0
  139.4790   70.1850  223.7070 C   0  0  0  0  0  0  0  0  0  0  0  0
  139.3780   69.4350  224.8640 C   0  0  0  0  0  0  0  0  0  0  0  0
  139.9550   69.9760  226.0140 C   0  0  0  0  0  0  0  0  0  0  0  0
  139.8580   69.2380  227.1700 C   0  0  0  0  0  0  0  0  0  0  0  0
  140.4250   69.7600  228.3190 C   0  0  0  0  0  0  0  0  0  0  0  0
  141.0760   70.9990  228.3090 C   0  0  0  0  0  0  0  0  0  0  0  0
  141.1500   71.7140  227.1130 C   0  0  0  0  0  0  0  0  0  0  0  0
  140.5860   71.1990  225.9610 C   0  0  0  0  0  0  0  0  0  0  0  0
  140.6500   71.8780  224.8030 N   0  0  0  0  0  0  0  0  0  0  0  0
  140.3630   70.4310  221.1100 H   0  0  0  0  0  0  0  0  0  0  0  0
  140.0713   71.6445  219.0900 H   0  0  0  0  0  0  0  0  0  0  0  0
  139.6672   73.1254  220.0573 H   0  0  0  0  0  0  0  0  0  0  0  0
  140.6387   73.7486  217.3130 H   0  0  0  0  0  0  0  0  0  0  0  0
  140.5068   75.3363  217.9980 H   0  0  0  0  0  0  0  0  0  0  0  0
  142.9522   74.0835  216.5125 H   0  0  0  0  0  0  0  0  0  0  0  0
  142.1651   75.5685  216.0611 H   0  0  0  0  0  0  0  0  0  0  0  0
  144.3566   75.4893  217.7385 H   0  0  0  0  0  0  0  0  0  0  0  0
  143.1396   76.7591  217.9110 H   0  0  0  0  0  0  0  0  0  0  0  0
  143.7787   74.6951  219.8062 H   0  0  0  0  0  0  0  0  0  0  0  0
  141.5241   74.7227  221.4883 H   0  0  0  0  0  0  0  0  0  0  0  0
  140.5096   76.4074  222.9505 H   0  0  0  0  0  0  0  0  0  0  0  0
  139.9593   80.4274  223.7949 H   0  0  0  0  0  0  0  0  0  0  0  0
  141.2119   79.1726  224.4241 H   0  0  0  0  0  0  0  0  0  0  0  0
  141.9185   79.4921  220.3544 H   0  0  0  0  0  0  0  0  0  0  0  0
  142.9402   77.8213  218.8783 H   0  0  0  0  0  0  0  0  0  0  0  0
  139.0342   69.7872  222.7829 H   0  0  0  0  0  0  0  0  0  0  0  0
  138.8682   68.4603  224.8776 H   0  0  0  0  0  0  0  0  0  0  0  0
  139.3463   68.2643  227.1810 H   0  0  0  0  0  0  0  0  0  0  0  0
  140.3630   69.1905  229.2581 H   0  0  0  0  0  0  0  0  0  0  0  0
  141.5224   71.4028  229.2297 H   0  0  0  0  0  0  0  0  0  0  0  0
  141.6581   72.6893  227.0870 H   0  0  0  0  0  0  0  0  0  0  0  0
  1  2  2  0
  2  3  1  0
  3  4  1  0
  4  5  1  0
  5  6  2  0
  5  7  1  0
  7  8  1  0
  8  9  1  0
  9 10  1  0
 10 11  1  0
 11 12  1  0
 12 13  2  0
 13 14  1  0
 14 15  2  0
 15 16  1  0
 16 17  1  0
 17 18  1  0
 18 19  1  0
 18 20  1  0
 18 21  1  0
 15 22  1  0
 22 23  2  0
  2 24  1  0
 24 25  2  0
 25 26  1  0
 26 27  2  0
 27 28  1  0
 28 29  2  0
 29 30  1  0
 30 31  2  0
 31 32  1  0
 32 33  2  0
 11  7  1  0
 23 12  1  0
 33 24  1  0
 32 27  1  0
  3 34  1  0
  4 35  1  0
  4 36  1  0
  8 37  1  0
  8 38  1  0
  9 39  1  0
  9 40  1  0
 10 41  1  0
 10 42  1  0
 11 43  1  1
 13 44  1  0
 14 45  1  0
 17 46  1  0
 17 47  1  0
 22 48  1  0
 23 49  1  0
 25 50  1  0
 26 51  1  0
 28 52  1  0
 29 53  1  0
 30 54  1  0
 31 55  1  0
M  END
>  <smiles>  (97) 
O=C(NCC(=O)N1CCCC1c1ccc(OCC(F)(F)F)cc1)c1ccc2ccccc2n1

>  <score_type>  (97) 
oracle

>  <origin>  (97) 
autodockgpu

>  <m_score__min__energy>  (97) 
-8

>  <m_primary>  (97) 
energy

>  <rmsd>  (97) 
2.2817333554562236

>  <m_score__min__rmsd>  (97) 
2.2817333554562236

>  <meeko>  (97) 
{"free_energy": -7.52, "intermolecular_energy": -9.91, "internal_energy": -1.69, "cluster_size": 11, "cluster_id": 2, "rank_in_cluster": 5}

>  <energy>  (97) 
-5.57

>  <cluster_rmsd>  (97) 
0.19

>  <cluster>  (97) 
14

$$$$

     RDKit          3D

 55 58  0  0  0  0  0  0  0  0999 V2000
  140.7020   73.0460  222.5600 O   0  0  0  0  0  0  0  0  0  0  0  0
  139.7450   72.2320  222.7920 C   0  0  0  0  0  0  0  0  0  0  0  0
  138.6180   72.3080  221.9530 N   0  0  0  0  0  0  0  0  0  0  0  0
  138.5940   73.2860  220.8850 C   0  0  0  0  0  0  0  0  0  0  0  0
  138.5660   74.6730  221.4060 C   0  0  0  0  0  0  0  0  0  0  0  0
  137.7050   75.0190  222.2550 O   0  0  0  0  0  0  0  0  0  0  0  0
  139.4880   75.6570  220.9810 N   0  0  0  0  0  0  0  0  0  0  0  0
  139.5440   76.3730  219.6960 C   0  0  0  0  0  0  0  0  0  0  0  0
  141.0390   76.2270  219.3610 C   0  0  0  0  0  0  0  0  0  0  0  0
  141.6730   76.5450  220.6850 C   0  0  0  0  0  0  0  0  0  0  0  0
  140.6370   76.2230  221.7090 C   0  0  1  0  0  0  0  0  0  0  0  0
  140.2420   77.4770  222.4070 C   0  0  0  0  0  0  0  0  0  0  0  0
  138.9060   77.8040  222.4370 C   0  0  0  0  0  0  0  0  0  0  0  0
  138.4830   78.9350  223.0880 C   0  0  0  0  0  0  0  0  0  0  0  0
  139.3850   79.8000  223.7440 C   0  0  0  0  0  0  0  0  0  0  0  0
  138.8550   80.8730  224.3430 O   0  0  0  0  0  0  0  0  0  0  0  0
  137.7160   81.2570  224.9600 C   0  0  0  0  0  0  0  0  0  0  0  0
  136.5660   81.7610  224.1630 C   0  0  0  0  0  0  0  0  0  0  0  0
  136.7950   82.0010  222.8410 F   0  0  0  0  0  0  0  0  0  0  0  0
  135.9590   82.8420  224.7930 F   0  0  0  0  0  0  0  0  0  0  0  0
  135.5850   80.7520  224.1900 F   0  0  0  0  0  0  0  0  0  0  0  0
  140.7020   79.4220  223.6800 C   0  0  0  0  0  0  0  0  0  0  0  0
  141.1550   78.2920  223.0350 C   0  0  0  0  0  0  0  0  0  0  0  0
  139.8470   71.2760  223.8880 C   0  0  0  0  0  0  0  0  0  0  0  0
  139.3960   69.9860  223.7060 C   0  0  0  0  0  0  0  0  0  0  0  0
  139.4570   69.0200  224.6940 C   0  0  0  0  0  0  0  0  0  0  0  0
  140.0070   69.4090  225.9160 C   0  0  0  0  0  0  0  0  0  0  0  0
  140.0710   68.4560  226.9050 C   0  0  0  0  0  0  0  0  0  0  0  0
  140.6140   68.8240  228.1230 C   0  0  0  0  0  0  0  0  0  0  0  0
  141.0820   70.1240  228.3460 C   0  0  0  0  0  0  0  0  0  0  0  0
  140.9980   71.0590  227.3130 C   0  0  0  0  0  0  0  0  0  0  0  0
  140.4560   70.6980  226.0940 C   0  0  0  0  0  0  0  0  0  0  0  0
  140.3680   71.5890  225.0920 N   0  0  0  0  0  0  0  0  0  0  0  0
  137.8000   71.6560  222.1050 H   0  0  0  0  0  0  0  0  0  0  0  0
  139.4932   73.1573  220.2647 H   0  0  0  0  0  0  0  0  0  0  0  0
  137.6792   73.1248  220.2958 H   0  0  0  0  0  0  0  0  0  0  0  0
  138.9086   75.8946  218.9361 H   0  0  0  0  0  0  0  0  0  0  0  0
  139.1808   77.4107  219.7323 H   0  0  0  0  0  0  0  0  0  0  0  0
  141.2801   75.2045  219.0349 H   0  0  0  0  0  0  0  0  0  0  0  0
  141.3789   76.8684  218.5345 H   0  0  0  0  0  0  0  0  0  0  0  0
  142.5710   75.9288  220.8394 H   0  0  0  0  0  0  0  0  0  0  0  0
  141.9924   77.5960  220.7432 H   0  0  0  0  0  0  0  0  0  0  0  0
  141.0076   75.5108  222.4609 H   0  0  0  0  0  0  0  0  0  0  0  0
  138.1728   77.1548  221.9361 H   0  0  0  0  0  0  0  0  0  0  0  0
  137.4095   79.1748  223.0991 H   0  0  0  0  0  0  0  0  0  0  0  0
  137.3524   80.3855  225.5241 H   0  0  0  0  0  0  0  0  0  0  0  0
  138.0286   82.1411  225.5351 H   0  0  0  0  0  0  0  0  0  0  0  0
  141.4453   80.0632  224.1763 H   0  0  0  0  0  0  0  0  0  0  0  0
  142.2271   78.0460  223.0225 H   0  0  0  0  0  0  0  0  0  0  0  0
  138.9680   69.7124  222.7303 H   0  0  0  0  0  0  0  0  0  0  0  0
  139.0904   67.9967  224.5250 H   0  0  0  0  0  0  0  0  0  0  0  0
  139.7023   67.4339  226.7333 H   0  0  0  0  0  0  0  0  0  0  0  0
  140.6792   68.0809  228.9314 H   0  0  0  0  0  0  0  0  0  0  0  0
  141.5093   70.4045  229.3200 H   0  0  0  0  0  0  0  0  0  0  0  0
  141.3637   72.0846  227.4694 H   0  0  0  0  0  0  0  0  0  0  0  0
  1  2  2  0
  2  3  1  0
  3  4  1  0
  4  5  1  0
  5  6  2  0
  5  7  1  0
  7  8  1  0
  8  9  1  0
  9 10  1  0
 10 11  1  0
 11 12  1  0
 12 13  2  0
 13 14  1  0
 14 15  2  0
 15 16  1  0
 16 17  1  0
 17 18  1  0
 18 19  1  0
 18 20  1  0
 18 21  1  0
 15 22  1  0
 22 23  2  0
  2 24  1  0
 24 25  2  0
 25 26  1  0
 26 27  2  0
 27 28  1  0
 28 29  2  0
 29 30  1  0
 30 31  2  0
 31 32  1  0
 32 33  2  0
 11  7  1  0
 23 12  1  0
 33 24  1  0
 32 27  1  0
  3 34  1  0
  4 35  1  0
  4 36  1  0
  8 37  1  0
  8 38  1  0
  9 39  1  0
  9 40  1  0
 10 41  1  0
 10 42  1  0
 11 43  1  1
 13 44  1  0
 14 45  1  0
 17 46  1  0
 17 47  1  0
 22 48  1  0
 23 49  1  0
 25 50  1  0
 26 51  1  0
 28 52  1  0
 29 53  1  0
 30 54  1  0
 31 55  1  0
M  END
>  <smiles>  (98) 
O=C(NCC(=O)N1CCCC1c1ccc(OCC(F)(F)F)cc1)c1ccc2ccccc2n1

>  <score_type>  (98) 
oracle

>  <origin>  (98) 
autodockgpu

>  <m_score__min__energy>  (98) 
-8

>  <m_primary>  (98) 
energy

>  <rmsd>  (98) 
1.7376813813822587

>  <m_score__min__rmsd>  (98) 
1.7376813813822587

>  <meeko>  (98) 
{"free_energy": -7.48, "intermolecular_energy": -9.86, "internal_energy": -1.5, "cluster_size": 9, "cluster_id": 1, "rank_in_cluster": 7}

>  <energy>  (98) 
-5.53

>  <cluster_rmsd>  (98) 
0.19

>  <cluster>  (98) 
14

$$$$

     RDKit          3D

 55 58  0  0  0  0  0  0  0  0999 V2000
  140.7070   73.0350  222.6620 O   0  0  0  0  0  0  0  0  0  0  0  0
  139.8620   72.1490  223.0250 C   0  0  0  0  0  0  0  0  0  0  0  0
  138.7190   71.9830  222.2230 N   0  0  0  0  0  0  0  0  0  0  0  0
  138.5540   72.8080  221.0430 C   0  0  0  0  0  0  0  0  0  0  0  0
  138.4720   74.2470  221.3830 C   0  0  0  0  0  0  0  0  0  0  0  0
  137.5050   74.6910  222.0560 O   0  0  0  0  0  0  0  0  0  0  0  0
  139.4540   75.1770  220.9740 N   0  0  0  0  0  0  0  0  0  0  0  0
  139.6280   75.8150  219.6590 C   0  0  0  0  0  0  0  0  0  0  0  0
  141.1370   75.6050  219.4440 C   0  0  0  0  0  0  0  0  0  0  0  0
  141.6850   75.9800  220.7920 C   0  0  0  0  0  0  0  0  0  0  0  0
  140.5660   75.7500  221.7520 C   0  0  1  0  0  0  0  0  0  0  0  0
  140.1650   77.0540  222.3480 C   0  0  0  0  0  0  0  0  0  0  0  0
  138.8230   77.3550  222.3950 C   0  0  0  0  0  0  0  0  0  0  0  0
  138.3950   78.5310  222.9550 C   0  0  0  0  0  0  0  0  0  0  0  0
  139.2980   79.4710  223.4990 C   0  0  0  0  0  0  0  0  0  0  0  0
  138.7620   80.5830  224.0160 O   0  0  0  0  0  0  0  0  0  0  0  0
  137.9370   81.5950  223.6660 C   0  0  0  0  0  0  0  0  0  0  0  0
  137.9910   82.1630  222.2930 C   0  0  0  0  0  0  0  0  0  0  0  0
  137.4640   83.4090  222.1230 F   0  0  0  0  0  0  0  0  0  0  0  0
  137.5010   81.2570  221.3600 F   0  0  0  0  0  0  0  0  0  0  0  0
  139.3540   82.2910  221.9650 F   0  0  0  0  0  0  0  0  0  0  0  0
  140.6200   79.1160  223.4230 C   0  0  0  0  0  0  0  0  0  0  0  0
  141.0790   77.9410  222.8680 C   0  0  0  0  0  0  0  0  0  0  0  0
  140.1010   71.3590  224.2270 C   0  0  0  0  0  0  0  0  0  0  0  0
  140.8610   71.8910  225.2470 C   0  0  0  0  0  0  0  0  0  0  0  0
  141.1340   71.2080  226.4180 C   0  0  0  0  0  0  0  0  0  0  0  0
  140.5970   69.9240  226.5330 C   0  0  0  0  0  0  0  0  0  0  0  0
  140.8640   69.2360  227.6940 C   0  0  0  0  0  0  0  0  0  0  0  0
  140.3390   67.9630  227.8250 C   0  0  0  0  0  0  0  0  0  0  0  0
  139.5630   67.3900  226.8120 C   0  0  0  0  0  0  0  0  0  0  0  0
  139.3180   68.1240  225.6510 C   0  0  0  0  0  0  0  0  0  0  0  0
  139.8390   69.3970  225.5130 C   0  0  0  0  0  0  0  0  0  0  0  0
  139.6100   70.1140  224.3990 N   0  0  0  0  0  0  0  0  0  0  0  0
  137.9890   71.2630  222.4810 H   0  0  0  0  0  0  0  0  0  0  0  0
  139.4131   72.6488  220.3747 H   0  0  0  0  0  0  0  0  0  0  0  0
  137.6123   72.5189  220.5536 H   0  0  0  0  0  0  0  0  0  0  0  0
  139.0332   75.3128  218.8819 H   0  0  0  0  0  0  0  0  0  0  0  0
  139.2993   76.8636  219.6108 H   0  0  0  0  0  0  0  0  0  0  0  0
  141.3657   74.5585  219.1939 H   0  0  0  0  0  0  0  0  0  0  0  0
  141.5572   76.1871  218.6106 H   0  0  0  0  0  0  0  0  0  0  0  0
  142.5472   75.3463  221.0469 H   0  0  0  0  0  0  0  0  0  0  0  0
  142.0367   77.0220  220.8154 H   0  0  0  0  0  0  0  0  0  0  0  0
  140.8562   75.0717  222.5679 H   0  0  0  0  0  0  0  0  0  0  0  0
  138.0893   76.6478  221.9808 H   0  0  0  0  0  0  0  0  0  0  0  0
  137.3171   78.7488  222.9814 H   0  0  0  0  0  0  0  0  0  0  0  0
  136.9095   81.2331  223.8187 H   0  0  0  0  0  0  0  0  0  0  0  0
  138.2814   82.4285  224.2958 H   0  0  0  0  0  0  0  0  0  0  0  0
  141.3638   79.8155  223.8322 H   0  0  0  0  0  0  0  0  0  0  0  0
  142.1556   77.7167  222.8413 H   0  0  0  0  0  0  0  0  0  0  0  0
  141.2688   72.9051  225.1236 H   0  0  0  0  0  0  0  0  0  0  0  0
  141.7432   71.6535  227.2183 H   0  0  0  0  0  0  0  0  0  0  0  0
  141.4749   69.6835  228.4919 H   0  0  0  0  0  0  0  0  0  0  0  0
  140.5355   67.3903  228.7434 H   0  0  0  0  0  0  0  0  0  0  0  0
  139.1522   66.3763  226.9289 H   0  0  0  0  0  0  0  0  0  0  0  0
  138.7094   67.6892  224.8444 H   0  0  0  0  0  0  0  0  0  0  0  0
  1  2  2  0
  2  3  1  0
  3  4  1  0
  4  5  1  0
  5  6  2  0
  5  7  1  0
  7  8  1  0
  8  9  1  0
  9 10  1  0
 10 11  1  0
 11 12  1  0
 12 13  2  0
 13 14  1  0
 14 15  2  0
 15 16  1  0
 16 17  1  0
 17 18  1  0
 18 19  1  0
 18 20  1  0
 18 21  1  0
 15 22  1  0
 22 23  2  0
  2 24  1  0
 24 25  2  0
 25 26  1  0
 26 27  2  0
 27 28  1  0
 28 29  2  0
 29 30  1  0
 30 31  2  0
 31 32  1  0
 32 33  2  0
 11  7  1  0
 23 12  1  0
 33 24  1  0
 32 27  1  0
  3 34  1  0
  4 35  1  0
  4 36  1  0
  8 37  1  0
  8 38  1  0
  9 39  1  0
  9 40  1  0
 10 41  1  0
 10 42  1  0
 11 43  1  1
 13 44  1  0
 14 45  1  0
 17 46  1  0
 17 47  1  0
 22 48  1  0
 23 49  1  0
 25 50  1  0
 26 51  1  0
 28 52  1  0
 29 53  1  0
 30 54  1  0
 31 55  1  0
M  END
>  <smiles>  (99) 
O=C(NCC(=O)N1CCCC1c1ccc(OCC(F)(F)F)cc1)c1ccc2ccccc2n1

>  <score_type>  (99) 
oracle

>  <origin>  (99) 
autodockgpu

>  <m_score__min__energy>  (99) 
-8

>  <m_primary>  (99) 
energy

>  <rmsd>  (99) 
2.9211490914618605

>  <m_score__min__rmsd>  (99) 
2.9211490914618605

>  <meeko>  (99) 
{"free_energy": -7.08, "intermolecular_energy": -9.47, "internal_energy": -1.75, "cluster_size": 1, "cluster_id": 8, "rank_in_cluster": 1}

>  <energy>  (99) 
-5.38

>  <cluster_rmsd>  (99) 
0.35

>  <cluster>  (99) 
14

$$$$

     RDKit          3D

 55 58  0  0  0  0  0  0  0  0999 V2000
  139.2630   70.4890  221.4810 O   0  0  0  0  0  0  0  0  0  0  0  0
  139.4500   71.1370  222.5660 C   0  0  0  0  0  0  0  0  0  0  0  0
  139.4980   72.5400  222.4780 N   0  0  0  0  0  0  0  0  0  0  0  0
  139.3350   73.1760  221.1860 C   0  0  0  0  0  0  0  0  0  0  0  0
  140.0540   74.4690  221.1120 C   0  0  0  0  0  0  0  0  0  0  0  0
  140.7020   74.8970  222.1020 O   0  0  0  0  0  0  0  0  0  0  0  0
  140.0470   75.2720  219.9480 N   0  0  0  0  0  0  0  0  0  0  0  0
  138.8990   75.7050  219.1360 C   0  0  0  0  0  0  0  0  0  0  0  0
  139.4160   75.3780  217.7250 C   0  0  0  0  0  0  0  0  0  0  0  0
  140.8200   75.9070  217.7920 C   0  0  0  0  0  0  0  0  0  0  0  0
  141.1840   75.8810  219.2390 C   0  0  1  0  0  0  0  0  0  0  0  0
  141.4000   77.2780  219.7070 C   0  0  0  0  0  0  0  0  0  0  0  0
  141.0430   77.5860  221.0000 C   0  0  0  0  0  0  0  0  0  0  0  0
  141.2420   78.8500  221.4910 C   0  0  0  0  0  0  0  0  0  0  0  0
  141.8130   79.8750  220.7060 C   0  0  0  0  0  0  0  0  0  0  0  0
  141.9560   81.0690  221.2950 O   0  0  0  0  0  0  0  0  0  0  0  0
  141.7750   81.6590  222.4980 C   0  0  0  0  0  0  0  0  0  0  0  0
  142.3270   81.0340  223.7290 C   0  0  0  0  0  0  0  0  0  0  0  0
  141.6620   79.9480  224.2160 F   0  0  0  0  0  0  0  0  0  0  0  0
  142.5580   81.9890  224.7110 F   0  0  0  0  0  0  0  0  0  0  0  0
  143.6110   80.5630  223.3990 F   0  0  0  0  0  0  0  0  0  0  0  0
  142.1480   79.5090  219.4280 C   0  0  0  0  0  0  0  0  0  0  0  0
  141.9610   78.2470  218.9070 C   0  0  0  0  0  0  0  0  0  0  0  0
  139.6060   70.4230  223.8280 C   0  0  0  0  0  0  0  0  0  0  0  0
  139.1440   69.1280  223.9340 C   0  0  0  0  0  0  0  0  0  0  0  0
  139.2520   68.3820  225.0930 C   0  0  0  0  0  0  0  0  0  0  0  0
  139.8640   69.0050  226.1830 C   0  0  0  0  0  0  0  0  0  0  0  0
  139.9760   68.2710  227.3410 C   0  0  0  0  0  0  0  0  0  0  0  0
  140.5800   68.8730  228.4300 C   0  0  0  0  0  0  0  0  0  0  0  0
  141.0610   70.1850  228.3610 C   0  0  0  0  0  0  0  0  0  0  0  0
  140.9260   70.8920  227.1650 C   0  0  0  0  0  0  0  0  0  0  0  0
  140.3240   70.2970  226.0730 C   0  0  0  0  0  0  0  0  0  0  0  0
  140.1870   70.9680  224.9160 N   0  0  0  0  0  0  0  0  0  0  0  0
  139.6520   73.1210  223.3470 H   0  0  0  0  0  0  0  0  0  0  0  0
  139.7280   72.5055  220.4075 H   0  0  0  0  0  0  0  0  0  0  0  0
  138.2632   73.3729  221.0358 H   0  0  0  0  0  0  0  0  0  0  0  0
  137.9911   75.1334  219.3786 H   0  0  0  0  0  0  0  0  0  0  0  0
  138.6017   76.7537  219.2841 H   0  0  0  0  0  0  0  0  0  0  0  0
  139.4032   74.2949  217.5331 H   0  0  0  0  0  0  0  0  0  0  0  0
  138.8115   75.8102  216.9140 H   0  0  0  0  0  0  0  0  0  0  0  0
  141.5008   75.2664  217.2122 H   0  0  0  0  0  0  0  0  0  0  0  0
  140.8966   76.9194  217.3688 H   0  0  0  0  0  0  0  0  0  0  0  0
  142.1050   75.3083  219.4225 H   0  0  0  0  0  0  0  0  0  0  0  0
  140.5956   76.8136  221.6428 H   0  0  0  0  0  0  0  0  0  0  0  0
  140.9481   79.0724  222.5274 H   0  0  0  0  0  0  0  0  0  0  0  0
  142.2174   82.6636  222.4275 H   0  0  0  0  0  0  0  0  0  0  0  0
  140.6875   81.5912  222.6489 H   0  0  0  0  0  0  0  0  0  0  0  0
  142.5956   80.2731  218.7754 H   0  0  0  0  0  0  0  0  0  0  0  0
  142.2545   78.0187  217.8718 H   0  0  0  0  0  0  0  0  0  0  0  0
  138.6676   68.6674  223.0560 H   0  0  0  0  0  0  0  0  0  0  0  0
  138.8751   67.3504  225.1536 H   0  0  0  0  0  0  0  0  0  0  0  0
  139.5978   67.2397  227.3990 H   0  0  0  0  0  0  0  0  0  0  0  0
  140.6842   68.3092  229.3687 H   0  0  0  0  0  0  0  0  0  0  0  0
  141.5380   70.6520  229.2353 H   0  0  0  0  0  0  0  0  0  0  0  0
  141.2993   71.9241  227.0918 H   0  0  0  0  0  0  0  0  0  0  0  0
  1  2  2  0
  2  3  1  0
  3  4  1  0
  4  5  1  0
  5  6  2  0
  5  7  1  0
  7  8  1  0
  8  9  1  0
  9 10  1  0
 10 11  1  0
 11 12  1  0
 12 13  2  0
 13 14  1  0
 14 15  2  0
 15 16  1  0
 16 17  1  0
 17 18  1  0
 18 19  1  0
 18 20  1  0
 18 21  1  0
 15 22  1  0
 22 23  2  0
  2 24  1  0
 24 25  2  0
 25 26  1  0
 26 27  2  0
 27 28  1  0
 28 29  2  0
 29 30  1  0
 30 31  2  0
 31 32  1  0
 32 33  2  0
 11  7  1  0
 23 12  1  0
 33 24  1  0
 32 27  1  0
  3 34  1  0
  4 35  1  0
  4 36  1  0
  8 37  1  0
  8 38  1  0
  9 39  1  0
  9 40  1  0
 10 41  1  0
 10 42  1  0
 11 43  1  6
 13 44  1  0
 14 45  1  0
 17 46  1  0
 17 47  1  0
 22 48  1  0
 23 49  1  0
 25 50  1  0
 26 51  1  0
 28 52  1  0
 29 53  1  0
 30 54  1  0
 31 55  1  0
M  END
>  <smiles>  (100) 
O=C(NCC(=O)N1CCCC1c1ccc(OCC(F)(F)F)cc1)c1ccc2ccccc2n1

>  <score_type>  (100) 
oracle

>  <origin>  (100) 
autodockgpu

>  <m_score__min__energy>  (100) 
-8

>  <m_primary>  (100) 
energy

>  <rmsd>  (100) 
1.167028497185533

>  <m_score__min__rmsd>  (100) 
1.167028497185533

>  <meeko>  (100) 
{"free_energy": -7.32, "intermolecular_energy": -9.71, "internal_energy": -1.78, "cluster_size": 6, "cluster_id": 6, "rank_in_cluster": 1}

>  <energy>  (100) 
-5.29

>  <cluster_rmsd>  (100) 
0.74

>  <cluster>  (100) 
14

$$$$
