
     RDKit          3D

 39 41  0  0  0  0  0  0  0  0999 V2000
  139.1890   67.4010  225.4290 N   0  0  0  0  0  0  0  0  0  0  0  0
  139.7400   68.3120  225.8250 C   0  0  0  0  0  0  0  0  0  0  0  0
  140.4180   69.4620  226.3430 C   0  0  2  0  0  0  0  0  0  0  0  0
  139.7910   69.9600  227.6540 C   0  0  0  0  0  0  0  0  0  0  0  0
  140.6700   71.2020  227.8550 C   0  0  0  0  0  0  0  0  0  0  0  0
  140.8240   71.7270  226.4450 C   0  0  0  0  0  0  0  0  0  0  0  0
  140.3160   70.6630  225.5610 N   0  0  0  0  0  0  0  0  0  0  0  0
  139.8690   70.9300  224.2570 C   0  0  0  0  0  0  0  0  0  0  0  0
  140.6150   71.6770  223.5410 O   0  0  0  0  0  0  0  0  0  0  0  0
  138.6370   70.4380  223.6400 C   0  0  0  0  0  0  0  0  0  0  0  0
  137.4460   70.9580  224.3290 N   0  0  0  0  0  0  0  0  0  0  0  0
  136.3300   70.1050  224.5740 C   0  0  0  0  0  0  0  0  0  0  0  0
  136.3340   68.9000  224.2120 O   0  0  0  0  0  0  0  0  0  0  0  0
  135.1840   70.6930  225.2620 C   0  0  0  0  0  0  0  0  0  0  0  0
  134.2400   69.8770  225.8680 C   0  0  0  0  0  0  0  0  0  0  0  0
  133.1430   70.4030  226.5290 C   0  0  0  0  0  0  0  0  0  0  0  0
  133.0210   71.7790  226.5630 C   0  0  0  0  0  0  0  0  0  0  0  0
  131.9460   72.3480  227.2100 C   0  0  0  0  0  0  0  0  0  0  0  0
  131.8090   73.7340  227.2520 C   0  0  0  0  0  0  0  0  0  0  0  0
  132.7360   74.5780  226.6570 C   0  0  0  0  0  0  0  0  0  0  0  0
  133.8000   73.9600  226.0190 C   0  0  0  0  0  0  0  0  0  0  0  0
  133.9520   72.5950  225.9660 C   0  0  0  0  0  0  0  0  0  0  0  0
  134.9850   72.0220  225.3460 N   0  0  0  0  0  0  0  0  0  0  0  0
  141.4467   69.0765  226.3998 H   0  0  0  0  0  0  0  0  0  0  0  0
  138.7280   70.2169  227.5359 H   0  0  0  0  0  0  0  0  0  0  0  0
  139.7765   69.2400  228.4855 H   0  0  0  0  0  0  0  0  0  0  0  0
  140.1730   71.9401  228.5017 H   0  0  0  0  0  0  0  0  0  0  0  0
  141.6287   70.9850  228.3488 H   0  0  0  0  0  0  0  0  0  0  0  0
  140.2363   72.6474  226.3130 H   0  0  0  0  0  0  0  0  0  0  0  0
  141.8714   71.9752  226.2182 H   0  0  0  0  0  0  0  0  0  0  0  0
  138.6106   70.7592  222.5883 H   0  0  0  0  0  0  0  0  0  0  0  0
  138.6276   69.3405  223.7138 H   0  0  0  0  0  0  0  0  0  0  0  0
  137.4430   71.9710  224.6330 H   0  0  0  0  0  0  0  0  0  0  0  0
  134.3661   68.7852  225.8223 H   0  0  0  0  0  0  0  0  0  0  0  0
  132.3978   69.7511  227.0083 H   0  0  0  0  0  0  0  0  0  0  0  0
  131.1945   71.7071  227.6943 H   0  0  0  0  0  0  0  0  0  0  0  0
  130.9429   74.1708  227.7707 H   0  0  0  0  0  0  0  0  0  0  0  0
  132.6325   75.6726  226.6897 H   0  0  0  0  0  0  0  0  0  0  0  0
  134.5581   74.5913  225.5324 H   0  0  0  0  0  0  0  0  0  0  0  0
  1  2  3  0
  2  3  1  0
  3  4  1  0
  4  5  1  0
  5  6  1  0
  6  7  1  0
  7  8  1  0
  8  9  2  0
  8 10  1  0
 10 11  1  0
 11 12  1  0
 12 13  2  0
 12 14  1  0
 14 15  2  0
 15 16  1  0
 16 17  2  0
 17 18  1  0
 18 19  2  0
 19 20  1  0
 20 21  2  0
 21 22  1  0
 22 23  2  0
  7  3  1  0
 23 14  1  0
 22 17  1  0
  3 24  1  1
  4 25  1  0
  4 26  1  0
  5 27  1  0
  5 28  1  0
  6 29  1  0
  6 30  1  0
 10 31  1  0
 10 32  1  0
 11 33  1  0
 15 34  1  0
 16 35  1  0
 18 36  1  0
 19 37  1  0
 20 38  1  0
 21 39  1  0
M  END
>  <smiles>  (1) 
N#C[C@@H]1CCCN1C(=O)CNC(=O)c1ccc2ccccc2n1

>  <score_type>  (1) 
oracle

>  <origin>  (1) 
autodockgpu

>  <m_score__min__energy>  (1) 
-7.3799999999999999

>  <m_primary>  (1) 
energy

>  <rmsd>  (1) 
8.013801485271348

>  <m_score__min__rmsd>  (1) 
8.013801485271348

>  <meeko>  (1) 
{"free_energy": -6.93, "intermolecular_energy": -8.42, "internal_energy": -1.39, "cluster_size": 13, "cluster_id": 3, "rank_in_cluster": 4}

>  <energy>  (1) 
-7.38

>  <cluster_rmsd>  (1) 
0.0

>  <cluster>  (1) 
1

$$$$

     RDKit          3D

 39 41  0  0  0  0  0  0  0  0999 V2000
  141.1880   71.8820  228.3600 N   0  0  0  0  0  0  0  0  0  0  0  0
  140.6250   71.0190  227.8820 C   0  0  0  0  0  0  0  0  0  0  0  0
  139.9200   69.9160  227.3000 C   0  0  2  0  0  0  0  0  0  0  0  0
  140.5880   68.5700  227.6190 C   0  0  0  0  0  0  0  0  0  0  0  0
  139.6620   67.6690  226.7920 C   0  0  0  0  0  0  0  0  0  0  0  0
  139.4120   68.5030  225.5540 C   0  0  0  0  0  0  0  0  0  0  0  0
  139.9250   69.8490  225.8650 N   0  0  0  0  0  0  0  0  0  0  0  0
  140.2920   70.7550  224.8570 C   0  0  0  0  0  0  0  0  0  0  0  0
  141.4120   71.3480  225.0050 O   0  0  0  0  0  0  0  0  0  0  0  0
  139.5220   71.0830  223.6570 C   0  0  0  0  0  0  0  0  0  0  0  0
  139.9390   72.3740  223.0880 N   0  0  0  0  0  0  0  0  0  0  0  0
  140.7580   72.4120  221.9220 C   0  0  0  0  0  0  0  0  0  0  0  0
  141.1410   71.3560  221.3550 O   0  0  0  0  0  0  0  0  0  0  0  0
  141.1320   73.7310  221.4160 C   0  0  0  0  0  0  0  0  0  0  0  0
  141.9480   73.8440  220.3000 C   0  0  0  0  0  0  0  0  0  0  0  0
  142.3200   75.0790  219.7960 C   0  0  0  0  0  0  0  0  0  0  0  0
  141.8470   76.2010  220.4490 C   0  0  0  0  0  0  0  0  0  0  0  0
  142.1910   77.4510  219.9830 C   0  0  0  0  0  0  0  0  0  0  0  0
  141.7220   78.5920  220.6310 C   0  0  0  0  0  0  0  0  0  0  0  0
  140.9050   78.5130  221.7490 C   0  0  0  0  0  0  0  0  0  0  0  0
  140.5850   77.2340  222.1810 C   0  0  0  0  0  0  0  0  0  0  0  0
  141.0380   76.0970  221.5550 C   0  0  0  0  0  0  0  0  0  0  0  0
  140.7180   74.8770  221.9880 N   0  0  0  0  0  0  0  0  0  0  0  0
  138.9151   70.0812  227.7158 H   0  0  0  0  0  0  0  0  0  0  0  0
  141.6301   68.5290  227.2692 H   0  0  0  0  0  0  0  0  0  0  0  0
  140.6793   68.3179  228.6858 H   0  0  0  0  0  0  0  0  0  0  0  0
  140.1548   66.7189  226.5382 H   0  0  0  0  0  0  0  0  0  0  0  0
  138.7410   67.3837  227.3214 H   0  0  0  0  0  0  0  0  0  0  0  0
  139.9478   68.0788  224.6920 H   0  0  0  0  0  0  0  0  0  0  0  0
  138.3439   68.5278  225.2920 H   0  0  0  0  0  0  0  0  0  0  0  0
  139.6764   70.2943  222.9060 H   0  0  0  0  0  0  0  0  0  0  0  0
  138.4603   71.1542  223.9356 H   0  0  0  0  0  0  0  0  0  0  0  0
  139.6170   73.2620  223.5640 H   0  0  0  0  0  0  0  0  0  0  0  0
  142.3082   72.9309  219.8035 H   0  0  0  0  0  0  0  0  0  0  0  0
  142.9669   75.1635  218.9103 H   0  0  0  0  0  0  0  0  0  0  0  0
  142.8369   77.5485  219.0980 H   0  0  0  0  0  0  0  0  0  0  0  0
  142.0074   79.5819  220.2455 H   0  0  0  0  0  0  0  0  0  0  0  0
  140.5327   79.4115  222.2629 H   0  0  0  0  0  0  0  0  0  0  0  0
  139.9393   77.1247  223.0648 H   0  0  0  0  0  0  0  0  0  0  0  0
  1  2  3  0
  2  3  1  0
  3  4  1  0
  4  5  1  0
  5  6  1  0
  6  7  1  0
  7  8  1  0
  8  9  2  0
  8 10  1  0
 10 11  1  0
 11 12  1  0
 12 13  2  0
 12 14  1  0
 14 15  2  0
 15 16  1  0
 16 17  2  0
 17 18  1  0
 18 19  2  0
 19 20  1  0
 20 21  2  0
 21 22  1  0
 22 23  2  0
  7  3  1  0
 23 14  1  0
 22 17  1  0
  3 24  1  1
  4 25  1  0
  4 26  1  0
  5 27  1  0
  5 28  1  0
  6 29  1  0
  6 30  1  0
 10 31  1  0
 10 32  1  0
 11 33  1  0
 15 34  1  0
 16 35  1  0
 18 36  1  0
 19 37  1  0
 20 38  1  0
 21 39  1  0
M  END
>  <smiles>  (2) 
N#C[C@@H]1CCCN1C(=O)CNC(=O)c1ccc2ccccc2n1

>  <score_type>  (2) 
oracle

>  <origin>  (2) 
autodockgpu

>  <m_score__min__energy>  (2) 
-7.3799999999999999

>  <m_primary>  (2) 
energy

>  <rmsd>  (2) 
8.750365986204999

>  <m_score__min__rmsd>  (2) 
8.750365986204999

>  <meeko>  (2) 
{"free_energy": -7.16, "intermolecular_energy": -8.66, "internal_energy": -1.19, "cluster_size": 28, "cluster_id": 1, "rank_in_cluster": 24}

>  <energy>  (2) 
-7.37

>  <cluster_rmsd>  (2) 
0.1

>  <cluster>  (2) 
1

$$$$

     RDKit          3D

 39 41  0  0  0  0  0  0  0  0999 V2000
  139.2120   67.4710  225.3410 N   0  0  0  0  0  0  0  0  0  0  0  0
  139.7470   68.3700  225.7830 C   0  0  0  0  0  0  0  0  0  0  0  0
  140.4260   69.5120  226.3170 C   0  0  2  0  0  0  0  0  0  0  0  0
  139.8050   69.9870  227.6400 C   0  0  0  0  0  0  0  0  0  0  0  0
  140.6840   71.2260  227.8560 C   0  0  0  0  0  0  0  0  0  0  0  0
  140.8290   71.7750  226.4540 C   0  0  0  0  0  0  0  0  0  0  0  0
  140.3170   70.7250  225.5550 N   0  0  0  0  0  0  0  0  0  0  0  0
  139.8620   71.0140  224.2590 C   0  0  0  0  0  0  0  0  0  0  0  0
  140.5960   71.7870  223.5570 O   0  0  0  0  0  0  0  0  0  0  0  0
  138.6360   70.5170  223.6350 C   0  0  0  0  0  0  0  0  0  0  0  0
  137.4390   71.0370  224.3130 N   0  0  0  0  0  0  0  0  0  0  0  0
  136.3350   70.1760  224.5790 C   0  0  0  0  0  0  0  0  0  0  0  0
  136.3540   68.9630  224.2450 O   0  0  0  0  0  0  0  0  0  0  0  0
  135.1810   70.7650  225.2550 C   0  0  0  0  0  0  0  0  0  0  0  0
  134.2130   69.9490  225.8230 C   0  0  0  0  0  0  0  0  0  0  0  0
  133.1090   70.4770  226.4710 C   0  0  0  0  0  0  0  0  0  0  0  0
  133.0050   71.8530  226.5320 C   0  0  0  0  0  0  0  0  0  0  0  0
  131.9240   72.4230  227.1670 C   0  0  0  0  0  0  0  0  0  0  0  0
  131.8050   73.8100  227.2370 C   0  0  0  0  0  0  0  0  0  0  0  0
  132.7550   74.6530  226.6800 C   0  0  0  0  0  0  0  0  0  0  0  0
  133.8260   74.0330  226.0520 C   0  0  0  0  0  0  0  0  0  0  0  0
  133.9600   72.6680  225.9730 C   0  0  0  0  0  0  0  0  0  0  0  0
  134.9980   72.0940  225.3630 N   0  0  0  0  0  0  0  0  0  0  0  0
  141.4557   69.1279  226.3628 H   0  0  0  0  0  0  0  0  0  0  0  0
  138.7411   70.2447  227.5320 H   0  0  0  0  0  0  0  0  0  0  0  0
  139.7952   69.2533  228.4595 H   0  0  0  0  0  0  0  0  0  0  0  0
  140.1905   71.9527  228.5181 H   0  0  0  0  0  0  0  0  0  0  0  0
  141.6460   71.0014  228.3400 H   0  0  0  0  0  0  0  0  0  0  0  0
  140.2393   72.6967  226.3409 H   0  0  0  0  0  0  0  0  0  0  0  0
  141.8747   72.0285  226.2252 H   0  0  0  0  0  0  0  0  0  0  0  0
  138.6167   70.8340  222.5818 H   0  0  0  0  0  0  0  0  0  0  0  0
  138.6285   69.4198  223.7130 H   0  0  0  0  0  0  0  0  0  0  0  0
  137.4230   72.0570  224.5940 H   0  0  0  0  0  0  0  0  0  0  0  0
  134.3253   68.8567  225.7569 H   0  0  0  0  0  0  0  0  0  0  0  0
  132.3444   69.8258  226.9198 H   0  0  0  0  0  0  0  0  0  0  0  0
  131.1529   71.7824  227.6199 H   0  0  0  0  0  0  0  0  0  0  0  0
  130.9345   74.2476  227.7476 H   0  0  0  0  0  0  0  0  0  0  0  0
  132.6649   75.7480  226.7328 H   0  0  0  0  0  0  0  0  0  0  0  0
  134.6036   74.6637  225.5964 H   0  0  0  0  0  0  0  0  0  0  0  0
  1  2  3  0
  2  3  1  0
  3  4  1  0
  4  5  1  0
  5  6  1  0
  6  7  1  0
  7  8  1  0
  8  9  2  0
  8 10  1  0
 10 11  1  0
 11 12  1  0
 12 13  2  0
 12 14  1  0
 14 15  2  0
 15 16  1  0
 16 17  2  0
 17 18  1  0
 18 19  2  0
 19 20  1  0
 20 21  2  0
 21 22  1  0
 22 23  2  0
  7  3  1  0
 23 14  1  0
 22 17  1  0
  3 24  1  1
  4 25  1  0
  4 26  1  0
  5 27  1  0
  5 28  1  0
  6 29  1  0
  6 30  1  0
 10 31  1  0
 10 32  1  0
 11 33  1  0
 15 34  1  0
 16 35  1  0
 18 36  1  0
 19 37  1  0
 20 38  1  0
 21 39  1  0
M  END
>  <smiles>  (3) 
N#C[C@@H]1CCCN1C(=O)CNC(=O)c1ccc2ccccc2n1

>  <score_type>  (3) 
oracle

>  <origin>  (3) 
autodockgpu

>  <m_score__min__energy>  (3) 
-7.3799999999999999

>  <m_primary>  (3) 
energy

>  <rmsd>  (3) 
8.004304226409763

>  <m_score__min__rmsd>  (3) 
8.004304226409763

>  <meeko>  (3) 
{"free_energy": -6.92, "intermolecular_energy": -8.41, "internal_energy": -1.4, "cluster_size": 13, "cluster_id": 3, "rank_in_cluster": 8}

>  <energy>  (3) 
-7.36

>  <cluster_rmsd>  (3) 
0.2

>  <cluster>  (3) 
1

$$$$

     RDKit          3D

 39 41  0  0  0  0  0  0  0  0999 V2000
  139.1850   67.4020  225.8350 N   0  0  0  0  0  0  0  0  0  0  0  0
  139.7800   68.3480  226.0390 C   0  0  0  0  0  0  0  0  0  0  0  0
  140.5120   69.5540  226.2830 C   0  0  2  0  0  0  0  0  0  0  0  0
  140.2650   70.1030  227.6970 C   0  0  0  0  0  0  0  0  0  0  0  0
  141.0910   71.3900  227.5750 C   0  0  0  0  0  0  0  0  0  0  0  0
  140.7980   71.8370  226.1600 C   0  0  0  0  0  0  0  0  0  0  0  0
  140.1170   70.7010  225.5120 N   0  0  0  0  0  0  0  0  0  0  0  0
  139.2950   70.8710  224.3870 C   0  0  0  0  0  0  0  0  0  0  0  0
  138.0380   70.9000  224.5990 O   0  0  0  0  0  0  0  0  0  0  0  0
  139.7370   71.0200  223.0000 C   0  0  0  0  0  0  0  0  0  0  0  0
  139.9700   72.4310  222.6590 N   0  0  0  0  0  0  0  0  0  0  0  0
  140.9660   72.7830  221.7020 C   0  0  0  0  0  0  0  0  0  0  0  0
  141.6640   71.9060  221.1300 O   0  0  0  0  0  0  0  0  0  0  0  0
  141.1400   74.2050  221.4160 C   0  0  0  0  0  0  0  0  0  0  0  0
  142.0050   74.6140  220.4110 C   0  0  0  0  0  0  0  0  0  0  0  0
  142.1910   75.9540  220.1150 C   0  0  0  0  0  0  0  0  0  0  0  0
  141.4810   76.8740  220.8620 C   0  0  0  0  0  0  0  0  0  0  0  0
  141.6340   78.2190  220.6030 C   0  0  0  0  0  0  0  0  0  0  0  0
  140.9240   79.1590  221.3480 C   0  0  0  0  0  0  0  0  0  0  0  0
  140.0520   78.7830  222.3580 C   0  0  0  0  0  0  0  0  0  0  0  0
  139.9310   77.4190  222.5820 C   0  0  0  0  0  0  0  0  0  0  0  0
  140.6210   76.4770  221.8590 C   0  0  0  0  0  0  0  0  0  0  0  0
  140.4890   75.1710  222.0910 N   0  0  0  0  0  0  0  0  0  0  0  0
  141.5334   69.2165  226.0529 H   0  0  0  0  0  0  0  0  0  0  0  0
  139.2005   70.3075  227.8843 H   0  0  0  0  0  0  0  0  0  0  0  0
  140.5340   69.4342  228.5279 H   0  0  0  0  0  0  0  0  0  0  0  0
  140.7622   72.1437  228.3057 H   0  0  0  0  0  0  0  0  0  0  0  0
  142.1627   71.2427  227.7743 H   0  0  0  0  0  0  0  0  0  0  0  0
  140.1451   72.7223  226.1655 H   0  0  0  0  0  0  0  0  0  0  0  0
  141.7179   72.1158  225.6251 H   0  0  0  0  0  0  0  0  0  0  0  0
  140.6729   70.4590  222.8606 H   0  0  0  0  0  0  0  0  0  0  0  0
  138.9464   70.6311  222.3414 H   0  0  0  0  0  0  0  0  0  0  0  0
  139.3830   73.1690  223.1390 H   0  0  0  0  0  0  0  0  0  0  0  0
  142.5562   73.8556  219.8356 H   0  0  0  0  0  0  0  0  0  0  0  0
  142.8770   76.2732  219.3166 H   0  0  0  0  0  0  0  0  0  0  0  0
  142.3172   78.5510  219.8074 H   0  0  0  0  0  0  0  0  0  0  0  0
  141.0593   80.2284  221.1286 H   0  0  0  0  0  0  0  0  0  0  0  0
  139.4893   79.5222  222.9470 H   0  0  0  0  0  0  0  0  0  0  0  0
  139.2508   77.0762  223.3756 H   0  0  0  0  0  0  0  0  0  0  0  0
  1  2  3  0
  2  3  1  0
  3  4  1  0
  4  5  1  0
  5  6  1  0
  6  7  1  0
  7  8  1  0
  8  9  2  0
  8 10  1  0
 10 11  1  0
 11 12  1  0
 12 13  2  0
 12 14  1  0
 14 15  2  0
 15 16  1  0
 16 17  2  0
 17 18  1  0
 18 19  2  0
 19 20  1  0
 20 21  2  0
 21 22  1  0
 22 23  2  0
  7  3  1  0
 23 14  1  0
 22 17  1  0
  3 24  1  1
  4 25  1  0
  4 26  1  0
  5 27  1  0
  5 28  1  0
  6 29  1  0
  6 30  1  0
 10 31  1  0
 10 32  1  0
 11 33  1  0
 15 34  1  0
 16 35  1  0
 18 36  1  0
 19 37  1  0
 20 38  1  0
 21 39  1  0
M  END
>  <smiles>  (4) 
N#C[C@@H]1CCCN1C(=O)CNC(=O)c1ccc2ccccc2n1

>  <score_type>  (4) 
oracle

>  <origin>  (4) 
autodockgpu

>  <m_score__min__energy>  (4) 
-7.3799999999999999

>  <m_primary>  (4) 
energy

>  <rmsd>  (4) 
8.51409632870545

>  <m_score__min__rmsd>  (4) 
8.51409632870545

>  <meeko>  (4) 
{"free_energy": -7.33, "intermolecular_energy": -8.82, "internal_energy": -1.23, "cluster_size": 28, "cluster_id": 1, "rank_in_cluster": 14}

>  <energy>  (4) 
-7.36

>  <cluster_rmsd>  (4) 
0.12

>  <cluster>  (4) 
1

$$$$

     RDKit          3D

 39 41  0  0  0  0  0  0  0  0999 V2000
  139.2180   67.4690  225.7120 N   0  0  0  0  0  0  0  0  0  0  0  0
  139.7850   68.4170  225.9800 C   0  0  0  0  0  0  0  0  0  0  0  0
  140.5060   69.6010  226.3390 C   0  0  2  0  0  0  0  0  0  0  0  0
  140.1700   70.0730  227.7620 C   0  0  0  0  0  0  0  0  0  0  0  0
  141.0100   71.3560  227.7670 C   0  0  0  0  0  0  0  0  0  0  0  0
  140.8140   71.8830  226.3630 C   0  0  0  0  0  0  0  0  0  0  0  0
  140.1700   70.7920  225.6090 N   0  0  0  0  0  0  0  0  0  0  0  0
  139.4260   71.0330  224.4430 C   0  0  0  0  0  0  0  0  0  0  0  0
  138.1660   71.1680  224.5900 O   0  0  0  0  0  0  0  0  0  0  0  0
  139.9510   71.1440  223.0820 C   0  0  0  0  0  0  0  0  0  0  0  0
  140.1480   72.5500  222.6970 N   0  0  0  0  0  0  0  0  0  0  0  0
  141.0870   72.8890  221.6790 C   0  0  0  0  0  0  0  0  0  0  0  0
  141.7640   72.0060  221.0910 O   0  0  0  0  0  0  0  0  0  0  0  0
  141.2290   74.3060  221.3520 C   0  0  0  0  0  0  0  0  0  0  0  0
  142.1040   74.7070  220.3530 C   0  0  0  0  0  0  0  0  0  0  0  0
  142.2600   76.0420  220.0180 C   0  0  0  0  0  0  0  0  0  0  0  0
  141.5090   76.9650  220.7200 C   0  0  0  0  0  0  0  0  0  0  0  0
  141.6310   78.3040  220.4220 C   0  0  0  0  0  0  0  0  0  0  0  0
  140.8800   79.2480  221.1200 C   0  0  0  0  0  0  0  0  0  0  0  0
  139.9960   78.8790  222.1240 C   0  0  0  0  0  0  0  0  0  0  0  0
  139.9070   77.5210  222.3880 C   0  0  0  0  0  0  0  0  0  0  0  0
  140.6390   76.5760  221.7100 C   0  0  0  0  0  0  0  0  0  0  0  0
  140.5370   75.2740  221.9820 N   0  0  0  0  0  0  0  0  0  0  0  0
  141.5384   69.2670  226.1583 H   0  0  0  0  0  0  0  0  0  0  0  0
  139.0968   70.2774  227.8904 H   0  0  0  0  0  0  0  0  0  0  0  0
  140.3796   69.3563  228.5698 H   0  0  0  0  0  0  0  0  0  0  0  0
  140.6381   72.0713  228.5153 H   0  0  0  0  0  0  0  0  0  0  0  0
  142.0652   71.1875  228.0281 H   0  0  0  0  0  0  0  0  0  0  0  0
  140.1680   72.7732  226.3750 H   0  0  0  0  0  0  0  0  0  0  0  0
  141.7692   72.1811  225.9062 H   0  0  0  0  0  0  0  0  0  0  0  0
  140.9160   70.6189  223.0265 H   0  0  0  0  0  0  0  0  0  0  0  0
  139.2223   70.6943  222.3915 H   0  0  0  0  0  0  0  0  0  0  0  0
  139.5790   73.2920  223.1910 H   0  0  0  0  0  0  0  0  0  0  0  0
  142.6880   73.9465  219.8139 H   0  0  0  0  0  0  0  0  0  0  0  0
  142.9544   76.3549  219.2244 H   0  0  0  0  0  0  0  0  0  0  0  0
  142.3229   78.6292  219.6311 H   0  0  0  0  0  0  0  0  0  0  0  0
  140.9909   80.3131  220.8685 H   0  0  0  0  0  0  0  0  0  0  0  0
  139.4010   79.6203  222.6777 H   0  0  0  0  0  0  0  0  0  0  0  0
  139.2184   77.1842  223.1769 H   0  0  0  0  0  0  0  0  0  0  0  0
  1  2  3  0
  2  3  1  0
  3  4  1  0
  4  5  1  0
  5  6  1  0
  6  7  1  0
  7  8  1  0
  8  9  2  0
  8 10  1  0
 10 11  1  0
 11 12  1  0
 12 13  2  0
 12 14  1  0
 14 15  2  0
 15 16  1  0
 16 17  2  0
 17 18  1  0
 18 19  2  0
 19 20  1  0
 20 21  2  0
 21 22  1  0
 22 23  2  0
  7  3  1  0
 23 14  1  0
 22 17  1  0
  3 24  1  1
  4 25  1  0
  4 26  1  0
  5 27  1  0
  5 28  1  0
  6 29  1  0
  6 30  1  0
 10 31  1  0
 10 32  1  0
 11 33  1  0
 15 34  1  0
 16 35  1  0
 18 36  1  0
 19 37  1  0
 20 38  1  0
 21 39  1  0
M  END
>  <smiles>  (5) 
N#C[C@@H]1CCCN1C(=O)CNC(=O)c1ccc2ccccc2n1

>  <score_type>  (5) 
oracle

>  <origin>  (5) 
autodockgpu

>  <m_score__min__energy>  (5) 
-7.3799999999999999

>  <m_primary>  (5) 
energy

>  <rmsd>  (5) 
8.626709306652135

>  <m_score__min__rmsd>  (5) 
8.626709306652135

>  <meeko>  (5) 
{"free_energy": -7.33, "intermolecular_energy": -8.82, "internal_energy": -1.23, "cluster_size": 28, "cluster_id": 1, "rank_in_cluster": 15}

>  <energy>  (5) 
-7.36

>  <cluster_rmsd>  (5) 
0.11

>  <cluster>  (5) 
1

$$$$

     RDKit          3D

 39 41  0  0  0  0  0  0  0  0999 V2000
  139.2050   67.3860  226.0930 N   0  0  0  0  0  0  0  0  0  0  0  0
  139.7840   68.3540  226.2280 C   0  0  0  0  0  0  0  0  0  0  0  0
  140.5010   69.5850  226.3770 C   0  0  2  0  0  0  0  0  0  0  0  0
  140.2600   70.2320  227.7490 C   0  0  0  0  0  0  0  0  0  0  0  0
  141.0680   71.5170  227.5250 C   0  0  0  0  0  0  0  0  0  0  0  0
  140.7560   71.8550  226.0840 C   0  0  0  0  0  0  0  0  0  0  0  0
  140.0840   70.6660  225.5280 N   0  0  0  0  0  0  0  0  0  0  0  0
  139.2500   70.7430  224.4010 C   0  0  0  0  0  0  0  0  0  0  0  0
  137.9960   70.6340  224.6120 O   0  0  0  0  0  0  0  0  0  0  0  0
  139.6740   70.9370  223.0140 C   0  0  0  0  0  0  0  0  0  0  0  0
  139.9050   72.3590  222.7180 N   0  0  0  0  0  0  0  0  0  0  0  0
  140.9090   72.7430  221.7810 C   0  0  0  0  0  0  0  0  0  0  0  0
  141.6140   71.8850  221.1890 O   0  0  0  0  0  0  0  0  0  0  0  0
  141.0810   74.1730  221.5390 C   0  0  0  0  0  0  0  0  0  0  0  0
  142.0100   74.6170  220.6090 C   0  0  0  0  0  0  0  0  0  0  0  0
  142.1960   75.9660  220.3570 C   0  0  0  0  0  0  0  0  0  0  0  0
  141.4190   76.8590  221.0690 C   0  0  0  0  0  0  0  0  0  0  0  0
  141.5690   78.2110  220.8520 C   0  0  0  0  0  0  0  0  0  0  0  0
  140.7910   79.1240  221.5620 C   0  0  0  0  0  0  0  0  0  0  0  0
  139.8530   78.7130  222.4970 C   0  0  0  0  0  0  0  0  0  0  0  0
  139.7380   77.3430  222.6810 C   0  0  0  0  0  0  0  0  0  0  0  0
  140.4950   76.4270  221.9910 C   0  0  0  0  0  0  0  0  0  0  0  0
  140.3670   75.1140  222.1850 N   0  0  0  0  0  0  0  0  0  0  0  0
  141.5251   69.2453  226.1629 H   0  0  0  0  0  0  0  0  0  0  0  0
  139.1947   70.4364  227.9318 H   0  0  0  0  0  0  0  0  0  0  0  0
  140.5454   69.6290  228.6236 H   0  0  0  0  0  0  0  0  0  0  0  0
  140.7359   72.3181  228.2018 H   0  0  0  0  0  0  0  0  0  0  0  0
  142.1433   71.3983  227.7239 H   0  0  0  0  0  0  0  0  0  0  0  0
  140.0916   72.7301  226.0312 H   0  0  0  0  0  0  0  0  0  0  0  0
  141.6672   72.1051  225.5208 H   0  0  0  0  0  0  0  0  0  0  0  0
  140.6069   70.3797  222.8436 H   0  0  0  0  0  0  0  0  0  0  0  0
  138.8746   70.5709  222.3529 H   0  0  0  0  0  0  0  0  0  0  0  0
  139.3120   73.0810  223.2150 H   0  0  0  0  0  0  0  0  0  0  0  0
  142.6132   73.8799  220.0587 H   0  0  0  0  0  0  0  0  0  0  0  0
  142.9338   76.3129  219.6185 H   0  0  0  0  0  0  0  0  0  0  0  0
  142.3041   78.5708  220.1171 H   0  0  0  0  0  0  0  0  0  0  0  0
  140.9247   80.1998  221.3755 H   0  0  0  0  0  0  0  0  0  0  0  0
  139.2371   79.4304  223.0591 H   0  0  0  0  0  0  0  0  0  0  0  0
  139.0063   76.9723  223.4139 H   0  0  0  0  0  0  0  0  0  0  0  0
  1  2  3  0
  2  3  1  0
  3  4  1  0
  4  5  1  0
  5  6  1  0
  6  7  1  0
  7  8  1  0
  8  9  2  0
  8 10  1  0
 10 11  1  0
 11 12  1  0
 12 13  2  0
 12 14  1  0
 14 15  2  0
 15 16  1  0
 16 17  2  0
 17 18  1  0
 18 19  2  0
 19 20  1  0
 20 21  2  0
 21 22  1  0
 22 23  2  0
  7  3  1  0
 23 14  1  0
 22 17  1  0
  3 24  1  6
  4 25  1  0
  4 26  1  0
  5 27  1  0
  5 28  1  0
  6 29  1  0
  6 30  1  0
 10 31  1  0
 10 32  1  0
 11 33  1  0
 15 34  1  0
 16 35  1  0
 18 36  1  0
 19 37  1  0
 20 38  1  0
 21 39  1  0
M  END
>  <smiles>  (6) 
N#C[C@@H]1CCCN1C(=O)CNC(=O)c1ccc2ccccc2n1

>  <score_type>  (6) 
oracle

>  <origin>  (6) 
autodockgpu

>  <m_score__min__energy>  (6) 
-7.3799999999999999

>  <m_primary>  (6) 
energy

>  <rmsd>  (6) 
8.45842614853195

>  <m_score__min__rmsd>  (6) 
8.45842614853195

>  <meeko>  (6) 
{"free_energy": -7.35, "intermolecular_energy": -8.84, "internal_energy": -1.24, "cluster_size": 28, "cluster_id": 1, "rank_in_cluster": 11}

>  <energy>  (6) 
-7.36

>  <cluster_rmsd>  (6) 
0.18

>  <cluster>  (6) 
1

$$$$

     RDKit          3D

 39 41  0  0  0  0  0  0  0  0999 V2000
  139.2010   67.4150  225.6710 N   0  0  0  0  0  0  0  0  0  0  0  0
  139.7960   68.3240  226.0020 C   0  0  0  0  0  0  0  0  0  0  0  0
  140.5240   69.4820  226.4250 C   0  0  2  0  0  0  0  0  0  0  0  0
  140.1400   69.9180  227.8470 C   0  0  0  0  0  0  0  0  0  0  0  0
  141.0040   71.1840  227.9250 C   0  0  0  0  0  0  0  0  0  0  0  0
  140.8740   71.7560  226.5300 C   0  0  0  0  0  0  0  0  0  0  0  0
  140.2410   70.7010  225.7190 N   0  0  0  0  0  0  0  0  0  0  0  0
  139.5490   70.9910  224.5320 C   0  0  0  0  0  0  0  0  0  0  0  0
  138.2870   71.1480  224.6330 O   0  0  0  0  0  0  0  0  0  0  0  0
  140.1300   71.1310  223.1970 C   0  0  0  0  0  0  0  0  0  0  0  0
  140.3210   72.5450  222.8410 N   0  0  0  0  0  0  0  0  0  0  0  0
  141.0750   72.8980  221.6840 C   0  0  0  0  0  0  0  0  0  0  0  0
  141.5900   72.0190  220.9440 O   0  0  0  0  0  0  0  0  0  0  0  0
  141.2230   74.3230  221.3950 C   0  0  0  0  0  0  0  0  0  0  0  0
  142.0170   74.7420  220.3370 C   0  0  0  0  0  0  0  0  0  0  0  0
  142.1760   76.0850  220.0380 C   0  0  0  0  0  0  0  0  0  0  0  0
  141.5120   76.9970  220.8360 C   0  0  0  0  0  0  0  0  0  0  0  0
  141.6410   78.3440  220.5760 C   0  0  0  0  0  0  0  0  0  0  0  0
  140.9780   79.2760  221.3720 C   0  0  0  0  0  0  0  0  0  0  0  0
  140.1770   78.8890  222.4360 C   0  0  0  0  0  0  0  0  0  0  0  0
  140.0780   77.5240  222.6590 C   0  0  0  0  0  0  0  0  0  0  0  0
  140.7230   76.5890  221.8860 C   0  0  0  0  0  0  0  0  0  0  0  0
  140.6140   75.2810  222.1180 N   0  0  0  0  0  0  0  0  0  0  0  0
  141.5562   69.1326  226.2749 H   0  0  0  0  0  0  0  0  0  0  0  0
  139.0666   70.1402  227.9388 H   0  0  0  0  0  0  0  0  0  0  0  0
  140.3032   69.1734  228.6401 H   0  0  0  0  0  0  0  0  0  0  0  0
  140.6160   71.8842  228.6794 H   0  0  0  0  0  0  0  0  0  0  0  0
  142.0444   70.9871  228.2229 H   0  0  0  0  0  0  0  0  0  0  0  0
  140.2445   72.6580  226.5433 H   0  0  0  0  0  0  0  0  0  0  0  0
  141.8521   72.0485  226.1204 H   0  0  0  0  0  0  0  0  0  0  0  0
  141.1047   70.6217  223.1756 H   0  0  0  0  0  0  0  0  0  0  0  0
  139.4386   70.6810  222.4694 H   0  0  0  0  0  0  0  0  0  0  0  0
  139.8880   73.2840  223.4620 H   0  0  0  0  0  0  0  0  0  0  0  0
  142.5322   73.9900  219.7214 H   0  0  0  0  0  0  0  0  0  0  0  0
  142.8062   76.4128  219.1981 H   0  0  0  0  0  0  0  0  0  0  0  0
  142.2683   78.6841  219.7389 H   0  0  0  0  0  0  0  0  0  0  0  0
  141.0930   80.3473  221.1505 H   0  0  0  0  0  0  0  0  0  0  0  0
  139.6512   79.6217  223.0659 H   0  0  0  0  0  0  0  0  0  0  0  0
  139.4537   77.1732  223.4940 H   0  0  0  0  0  0  0  0  0  0  0  0
  1  2  3  0
  2  3  1  0
  3  4  1  0
  4  5  1  0
  5  6  1  0
  6  7  1  0
  7  8  1  0
  8  9  2  0
  8 10  1  0
 10 11  1  0
 11 12  1  0
 12 13  2  0
 12 14  1  0
 14 15  2  0
 15 16  1  0
 16 17  2  0
 17 18  1  0
 18 19  2  0
 19 20  1  0
 20 21  2  0
 21 22  1  0
 22 23  2  0
  7  3  1  0
 23 14  1  0
 22 17  1  0
  3 24  1  1
  4 25  1  0
  4 26  1  0
  5 27  1  0
  5 28  1  0
  6 29  1  0
  6 30  1  0
 10 31  1  0
 10 32  1  0
 11 33  1  0
 15 34  1  0
 16 35  1  0
 18 36  1  0
 19 37  1  0
 20 38  1  0
 21 39  1  0
M  END
>  <smiles>  (7) 
N#C[C@@H]1CCCN1C(=O)CNC(=O)c1ccc2ccccc2n1

>  <score_type>  (7) 
oracle

>  <origin>  (7) 
autodockgpu

>  <m_score__min__energy>  (7) 
-7.3799999999999999

>  <m_primary>  (7) 
energy

>  <rmsd>  (7) 
8.67180985119091

>  <m_score__min__rmsd>  (7) 
8.67180985119091

>  <meeko>  (7) 
{"free_energy": -7.34, "intermolecular_energy": -8.83, "internal_energy": -1.21, "cluster_size": 28, "cluster_id": 1, "rank_in_cluster": 12}

>  <energy>  (7) 
-7.36

>  <cluster_rmsd>  (7) 
0.18

>  <cluster>  (7) 
1

$$$$

     RDKit          3D

 39 41  0  0  0  0  0  0  0  0999 V2000
  139.1930   67.3910  225.4180 N   0  0  0  0  0  0  0  0  0  0  0  0
  139.7510   68.2940  225.8230 C   0  0  0  0  0  0  0  0  0  0  0  0
  140.4320   69.4420  226.3420 C   0  0  2  0  0  0  0  0  0  0  0  0
  139.7960   69.9500  227.6450 C   0  0  0  0  0  0  0  0  0  0  0  0
  140.6820   71.1860  227.8480 C   0  0  0  0  0  0  0  0  0  0  0  0
  140.8520   71.7040  226.4370 C   0  0  0  0  0  0  0  0  0  0  0  0
  140.3450   70.6390  225.5530 N   0  0  0  0  0  0  0  0  0  0  0  0
  139.9120   70.9040  224.2440 C   0  0  0  0  0  0  0  0  0  0  0  0
  140.6730   71.6370  223.5290 O   0  0  0  0  0  0  0  0  0  0  0  0
  138.6790   70.4210  223.6190 C   0  0  0  0  0  0  0  0  0  0  0  0
  137.4890   70.9410  224.3090 N   0  0  0  0  0  0  0  0  0  0  0  0
  136.3680   70.0930  224.5440 C   0  0  0  0  0  0  0  0  0  0  0  0
  136.3670   68.8900  224.1710 O   0  0  0  0  0  0  0  0  0  0  0  0
  135.2220   70.6800  225.2340 C   0  0  0  0  0  0  0  0  0  0  0  0
  134.2730   69.8630  225.8310 C   0  0  0  0  0  0  0  0  0  0  0  0
  133.1770   70.3900  226.4930 C   0  0  0  0  0  0  0  0  0  0  0  0
  133.0610   71.7660  226.5370 C   0  0  0  0  0  0  0  0  0  0  0  0
  131.9870   72.3350  227.1850 C   0  0  0  0  0  0  0  0  0  0  0  0
  131.8560   73.7210  227.2380 C   0  0  0  0  0  0  0  0  0  0  0  0
  132.7880   74.5650  226.6520 C   0  0  0  0  0  0  0  0  0  0  0  0
  133.8520   73.9470  226.0120 C   0  0  0  0  0  0  0  0  0  0  0  0
  133.9980   72.5820  225.9490 C   0  0  0  0  0  0  0  0  0  0  0  0
  135.0290   72.0090  225.3270 N   0  0  0  0  0  0  0  0  0  0  0  0
  141.4577   69.0507  226.4107 H   0  0  0  0  0  0  0  0  0  0  0  0
  138.7360   70.2140  227.5159 H   0  0  0  0  0  0  0  0  0  0  0  0
  139.7682   69.2339  228.4795 H   0  0  0  0  0  0  0  0  0  0  0  0
  140.1850   71.9304  228.4873 H   0  0  0  0  0  0  0  0  0  0  0  0
  141.6348   70.9640  228.3508 H   0  0  0  0  0  0  0  0  0  0  0  0
  140.2714   72.6275  226.2957 H   0  0  0  0  0  0  0  0  0  0  0  0
  141.9029   71.9447  226.2185 H   0  0  0  0  0  0  0  0  0  0  0  0
  138.6568   70.7502  222.5696 H   0  0  0  0  0  0  0  0  0  0  0  0
  138.6649   69.3230  223.6837 H   0  0  0  0  0  0  0  0  0  0  0  0
  137.4900   71.9520  224.6220 H   0  0  0  0  0  0  0  0  0  0  0  0
  134.3940   68.7710  225.7772 H   0  0  0  0  0  0  0  0  0  0  0  0
  132.4275   69.7382  226.9657 H   0  0  0  0  0  0  0  0  0  0  0  0
  131.2310   71.6937  227.6617 H   0  0  0  0  0  0  0  0  0  0  0  0
  130.9907   74.1576  227.7583 H   0  0  0  0  0  0  0  0  0  0  0  0
  132.6890   75.6598  226.6925 H   0  0  0  0  0  0  0  0  0  0  0  0
  134.6143   74.5787  225.5326 H   0  0  0  0  0  0  0  0  0  0  0  0
  1  2  3  0
  2  3  1  0
  3  4  1  0
  4  5  1  0
  5  6  1  0
  6  7  1  0
  7  8  1  0
  8  9  2  0
  8 10  1  0
 10 11  1  0
 11 12  1  0
 12 13  2  0
 12 14  1  0
 14 15  2  0
 15 16  1  0
 16 17  2  0
 17 18  1  0
 18 19  2  0
 19 20  1  0
 20 21  2  0
 21 22  1  0
 22 23  2  0
  7  3  1  0
 23 14  1  0
 22 17  1  0
  3 24  1  1
  4 25  1  0
  4 26  1  0
  5 27  1  0
  5 28  1  0
  6 29  1  0
  6 30  1  0
 10 31  1  0
 10 32  1  0
 11 33  1  0
 15 34  1  0
 16 35  1  0
 18 36  1  0
 19 37  1  0
 20 38  1  0
 21 39  1  0
M  END
>  <smiles>  (8) 
N#C[C@@H]1CCCN1C(=O)CNC(=O)c1ccc2ccccc2n1

>  <score_type>  (8) 
oracle

>  <origin>  (8) 
autodockgpu

>  <m_score__min__energy>  (8) 
-7.3799999999999999

>  <m_primary>  (8) 
energy

>  <rmsd>  (8) 
7.9962900344573

>  <m_score__min__rmsd>  (8) 
7.9962900344573

>  <meeko>  (8) 
{"free_energy": -6.93, "intermolecular_energy": -8.42, "internal_energy": -1.4, "cluster_size": 13, "cluster_id": 3, "rank_in_cluster": 5}

>  <energy>  (8) 
-7.35

>  <cluster_rmsd>  (8) 
0.17

>  <cluster>  (8) 
1

$$$$

     RDKit          3D

 39 41  0  0  0  0  0  0  0  0999 V2000
  141.2160   78.9600  223.8450 N   0  0  0  0  0  0  0  0  0  0  0  0
  141.4680   78.6570  222.7800 C   0  0  0  0  0  0  0  0  0  0  0  0
  141.8050   78.2600  221.4460 C   0  0  2  0  0  0  0  0  0  0  0  0
  141.2490   79.2320  220.3950 C   0  0  0  0  0  0  0  0  0  0  0  0
  141.6990   78.4730  219.1400 C   0  0  0  0  0  0  0  0  0  0  0  0
  141.4670   77.0290  219.5280 C   0  0  0  0  0  0  0  0  0  0  0  0
  141.2070   77.0390  220.9790 N   0  0  0  0  0  0  0  0  0  0  0  0
  140.5120   75.9990  221.6170 C   0  0  0  0  0  0  0  0  0  0  0  0
  139.8490   76.3130  222.6610 O   0  0  0  0  0  0  0  0  0  0  0  0
  140.4710   74.5960  221.2030 C   0  0  0  0  0  0  0  0  0  0  0  0
  140.1680   73.7110  222.3380 N   0  0  0  0  0  0  0  0  0  0  0  0
  140.6720   72.3780  222.3620 C   0  0  0  0  0  0  0  0  0  0  0  0
  141.3810   71.9280  221.4240 O   0  0  0  0  0  0  0  0  0  0  0  0
  140.3280   71.5580  223.5210 C   0  0  0  0  0  0  0  0  0  0  0  0
  139.5920   70.3930  223.3590 C   0  0  0  0  0  0  0  0  0  0  0  0
  139.2510   69.5940  224.4370 C   0  0  0  0  0  0  0  0  0  0  0  0
  139.6720   70.0030  225.6890 C   0  0  0  0  0  0  0  0  0  0  0  0
  139.3570   69.2390  226.7910 C   0  0  0  0  0  0  0  0  0  0  0  0
  139.7740   69.6380  228.0600 C   0  0  0  0  0  0  0  0  0  0  0  0
  140.5110   70.7960  228.2560 C   0  0  0  0  0  0  0  0  0  0  0  0
  140.8050   71.5310  227.1160 C   0  0  0  0  0  0  0  0  0  0  0  0
  140.4020   71.1550  225.8580 C   0  0  0  0  0  0  0  0  0  0  0  0
  140.6960   71.8770  224.7760 N   0  0  0  0  0  0  0  0  0  0  0  0
  142.8998   78.1943  221.5299 H   0  0  0  0  0  0  0  0  0  0  0  0
  140.1547   79.3275  220.4538 H   0  0  0  0  0  0  0  0  0  0  0  0
  141.5891   80.2750  220.4754 H   0  0  0  0  0  0  0  0  0  0  0  0
  141.0907   78.7525  218.2672 H   0  0  0  0  0  0  0  0  0  0  0  0
  142.7378   78.6865  218.8480 H   0  0  0  0  0  0  0  0  0  0  0  0
  140.6005   76.6215  218.9865 H   0  0  0  0  0  0  0  0  0  0  0  0
  142.3325   76.3984  219.2764 H   0  0  0  0  0  0  0  0  0  0  0  0
  139.6935   74.4720  220.4348 H   0  0  0  0  0  0  0  0  0  0  0  0
  141.4595   74.3231  220.8050 H   0  0  0  0  0  0  0  0  0  0  0  0
  139.5720   74.0880  223.1260 H   0  0  0  0  0  0  0  0  0  0  0  0
  139.2715   70.0969  222.3492 H   0  0  0  0  0  0  0  0  0  0  0  0
  138.6684   68.6706  224.3029 H   0  0  0  0  0  0  0  0  0  0  0  0
  138.7758   68.3130  226.6696 H   0  0  0  0  0  0  0  0  0  0  0  0
  139.5112   69.0174  228.9293 H   0  0  0  0  0  0  0  0  0  0  0  0
  140.8429   71.1133  229.2556 H   0  0  0  0  0  0  0  0  0  0  0  0
  141.3877   72.4576  227.2251 H   0  0  0  0  0  0  0  0  0  0  0  0
  1  2  3  0
  2  3  1  0
  3  4  1  0
  4  5  1  0
  5  6  1  0
  6  7  1  0
  7  8  1  0
  8  9  2  0
  8 10  1  0
 10 11  1  0
 11 12  1  0
 12 13  2  0
 12 14  1  0
 14 15  2  0
 15 16  1  0
 16 17  2  0
 17 18  1  0
 18 19  2  0
 19 20  1  0
 20 21  2  0
 21 22  1  0
 22 23  2  0
  7  3  1  0
 23 14  1  0
 22 17  1  0
  3 24  1  1
  4 25  1  0
  4 26  1  0
  5 27  1  0
  5 28  1  0
  6 29  1  0
  6 30  1  0
 10 31  1  0
 10 32  1  0
 11 33  1  0
 15 34  1  0
 16 35  1  0
 18 36  1  0
 19 37  1  0
 20 38  1  0
 21 39  1  0
M  END
>  <smiles>  (9) 
N#C[C@@H]1CCCN1C(=O)CNC(=O)c1ccc2ccccc2n1

>  <score_type>  (9) 
oracle

>  <origin>  (9) 
autodockgpu

>  <m_score__min__energy>  (9) 
-7.3799999999999999

>  <m_primary>  (9) 
energy

>  <rmsd>  (9) 
2.220070192210246

>  <m_score__min__rmsd>  (9) 
2.220070192210246

>  <meeko>  (9) 
{"free_energy": -6.94, "intermolecular_energy": -8.43, "internal_energy": -1.32, "cluster_size": 9, "cluster_id": 2, "rank_in_cluster": 4}

>  <energy>  (9) 
-7.35

>  <cluster_rmsd>  (9) 
0.19

>  <cluster>  (9) 
1

$$$$

     RDKit          3D

 39 41  0  0  0  0  0  0  0  0999 V2000
  141.2660   71.5230  228.5480 N   0  0  0  0  0  0  0  0  0  0  0  0
  140.6940   70.7320  227.9670 C   0  0  0  0  0  0  0  0  0  0  0  0
  139.9850   69.7170  227.2490 C   0  0  2  0  0  0  0  0  0  0  0  0
  140.6990   68.3580  227.3120 C   0  0  0  0  0  0  0  0  0  0  0  0
  139.7510   67.5740  226.3960 C   0  0  0  0  0  0  0  0  0  0  0  0
  139.4170   68.5870  225.3230 C   0  0  0  0  0  0  0  0  0  0  0  0
  139.9150   69.8810  225.8230 N   0  0  0  0  0  0  0  0  0  0  0  0
  140.2080   70.9490  224.9600 C   0  0  0  0  0  0  0  0  0  0  0  0
  140.9230   71.8910  225.4400 O   0  0  0  0  0  0  0  0  0  0  0  0
  139.7790   71.0870  223.5670 C   0  0  0  0  0  0  0  0  0  0  0  0
  140.1260   72.4100  223.0280 N   0  0  0  0  0  0  0  0  0  0  0  0
  140.7590   72.5230  221.7560 C   0  0  0  0  0  0  0  0  0  0  0  0
  141.0340   71.5050  221.0690 O   0  0  0  0  0  0  0  0  0  0  0  0
  141.0730   73.8700  221.2860 C   0  0  0  0  0  0  0  0  0  0  0  0
  141.7500   74.0520  220.0890 C   0  0  0  0  0  0  0  0  0  0  0  0
  142.0610   75.3160  219.6170 C   0  0  0  0  0  0  0  0  0  0  0  0
  141.6720   76.3950  220.3860 C   0  0  0  0  0  0  0  0  0  0  0  0
  141.9600   77.6720  219.9560 C   0  0  0  0  0  0  0  0  0  0  0  0
  141.5750   78.7710  220.7210 C   0  0  0  0  0  0  0  0  0  0  0  0
  140.8970   78.6230  221.9220 C   0  0  0  0  0  0  0  0  0  0  0  0
  140.6280   77.3200  222.3130 C   0  0  0  0  0  0  0  0  0  0  0  0
  141.0010   76.2240  221.5730 C   0  0  0  0  0  0  0  0  0  0  0  0
  140.7320   74.9790  221.9690 N   0  0  0  0  0  0  0  0  0  0  0  0
  139.0003   69.7831  227.7348 H   0  0  0  0  0  0  0  0  0  0  0  0
  141.7217   68.4059  226.9097 H   0  0  0  0  0  0  0  0  0  0  0  0
  140.8524   67.9402  228.3180 H   0  0  0  0  0  0  0  0  0  0  0  0
  140.2508   66.6924  225.9682 H   0  0  0  0  0  0  0  0  0  0  0  0
  138.8658   67.1798  226.9166 H   0  0  0  0  0  0  0  0  0  0  0  0
  139.9161   68.3235  224.3788 H   0  0  0  0  0  0  0  0  0  0  0  0
  138.3364   68.6203  225.1201 H   0  0  0  0  0  0  0  0  0  0  0  0
  140.2735   70.3129  222.9618 H   0  0  0  0  0  0  0  0  0  0  0  0
  138.6856   70.9731  223.5283 H   0  0  0  0  0  0  0  0  0  0  0  0
  139.8940   73.2660  223.6050 H   0  0  0  0  0  0  0  0  0  0  0  0
  142.0468   73.1712  219.5008 H   0  0  0  0  0  0  0  0  0  0  0  0
  142.5970   75.4552  218.6666 H   0  0  0  0  0  0  0  0  0  0  0  0
  142.4949   77.8241  219.0069 H   0  0  0  0  0  0  0  0  0  0  0  0
  141.8151   79.7830  220.3630 H   0  0  0  0  0  0  0  0  0  0  0  0
  140.5908   79.4881  222.5285 H   0  0  0  0  0  0  0  0  0  0  0  0
  140.0913   77.1563  223.2591 H   0  0  0  0  0  0  0  0  0  0  0  0
  1  2  3  0
  2  3  1  0
  3  4  1  0
  4  5  1  0
  5  6  1  0
  6  7  1  0
  7  8  1  0
  8  9  2  0
  8 10  1  0
 10 11  1  0
 11 12  1  0
 12 13  2  0
 12 14  1  0
 14 15  2  0
 15 16  1  0
 16 17  2  0
 17 18  1  0
 18 19  2  0
 19 20  1  0
 20 21  2  0
 21 22  1  0
 22 23  2  0
  7  3  1  0
 23 14  1  0
 22 17  1  0
  3 24  1  1
  4 25  1  0
  4 26  1  0
  5 27  1  0
  5 28  1  0
  6 29  1  0
  6 30  1  0
 10 31  1  0
 10 32  1  0
 11 33  1  0
 15 34  1  0
 16 35  1  0
 18 36  1  0
 19 37  1  0
 20 38  1  0
 21 39  1  0
M  END
>  <smiles>  (10) 
N#C[C@@H]1CCCN1C(=O)CNC(=O)c1ccc2ccccc2n1

>  <score_type>  (10) 
oracle

>  <origin>  (10) 
autodockgpu

>  <m_score__min__energy>  (10) 
-7.3799999999999999

>  <m_primary>  (10) 
energy

>  <rmsd>  (10) 
8.745501668605588

>  <m_score__min__rmsd>  (10) 
8.745501668605588

>  <meeko>  (10) 
{"free_energy": -7.04, "intermolecular_energy": -8.53, "internal_energy": -1.3, "cluster_size": 28, "cluster_id": 1, "rank_in_cluster": 26}

>  <energy>  (10) 
-7.35

>  <cluster_rmsd>  (10) 
0.2

>  <cluster>  (10) 
1

$$$$

     RDKit          3D

 39 41  0  0  0  0  0  0  0  0999 V2000
  140.7150   79.0060  223.7980 N   0  0  0  0  0  0  0  0  0  0  0  0
  141.1170   78.6630  222.7930 C   0  0  0  0  0  0  0  0  0  0  0  0
  141.6380   78.2530  221.5230 C   0  0  2  0  0  0  0  0  0  0  0  0
  141.2110   79.1990  220.3900 C   0  0  0  0  0  0  0  0  0  0  0  0
  141.8380   78.4300  219.2200 C   0  0  0  0  0  0  0  0  0  0  0  0
  141.5820   76.9880  219.5990 C   0  0  0  0  0  0  0  0  0  0  0  0
  141.1290   77.0140  221.0010 N   0  0  0  0  0  0  0  0  0  0  0  0
  140.3730   75.9700  221.5580 C   0  0  0  0  0  0  0  0  0  0  0  0
  139.5500   76.2910  222.4790 O   0  0  0  0  0  0  0  0  0  0  0  0
  140.4330   74.5560  221.1860 C   0  0  0  0  0  0  0  0  0  0  0  0
  140.1340   73.6870  222.3330 N   0  0  0  0  0  0  0  0  0  0  0  0
  140.6480   72.3580  222.3790 C   0  0  0  0  0  0  0  0  0  0  0  0
  141.3620   71.8990  221.4490 O   0  0  0  0  0  0  0  0  0  0  0  0
  140.3080   71.5530  223.5500 C   0  0  0  0  0  0  0  0  0  0  0  0
  139.5650   70.3900  223.4070 C   0  0  0  0  0  0  0  0  0  0  0  0
  139.2280   69.6060  224.4970 C   0  0  0  0  0  0  0  0  0  0  0  0
  139.6600   70.0270  225.7400 C   0  0  0  0  0  0  0  0  0  0  0  0
  139.3490   69.2790  226.8540 C   0  0  0  0  0  0  0  0  0  0  0  0
  139.7770   69.6900  228.1150 C   0  0  0  0  0  0  0  0  0  0  0  0
  140.5220   70.8470  228.2920 C   0  0  0  0  0  0  0  0  0  0  0  0
  140.8110   71.5660  227.1420 C   0  0  0  0  0  0  0  0  0  0  0  0
  140.3970   71.1780  225.8910 C   0  0  0  0  0  0  0  0  0  0  0  0
  140.6870   71.8850  224.7980 N   0  0  0  0  0  0  0  0  0  0  0  0
  142.7126   78.2098  221.7540 H   0  0  0  0  0  0  0  0  0  0  0  0
  140.1172   79.2743  220.3004 H   0  0  0  0  0  0  0  0  0  0  0  0
  141.5193   80.2495  220.4970 H   0  0  0  0  0  0  0  0  0  0  0  0
  141.3469   78.6840  218.2691 H   0  0  0  0  0  0  0  0  0  0  0  0
  142.9026   78.6597  219.0655 H   0  0  0  0  0  0  0  0  0  0  0  0
  140.8039   76.5549  218.9533 H   0  0  0  0  0  0  0  0  0  0  0  0
  142.4850   76.3717  219.4774 H   0  0  0  0  0  0  0  0  0  0  0  0
  139.6984   74.3637  220.3902 H   0  0  0  0  0  0  0  0  0  0  0  0
  141.4524   74.3323  220.8384 H   0  0  0  0  0  0  0  0  0  0  0  0
  139.5340   74.0720  223.1150 H   0  0  0  0  0  0  0  0  0  0  0  0
  139.2358   70.0835  222.4032 H   0  0  0  0  0  0  0  0  0  0  0  0
  138.6395   68.6843  224.3782 H   0  0  0  0  0  0  0  0  0  0  0  0
  138.7615   68.3551  226.7481 H   0  0  0  0  0  0  0  0  0  0  0  0
  139.5172   69.0809  228.9934 H   0  0  0  0  0  0  0  0  0  0  0  0
  140.8630   71.1744  229.2852 H   0  0  0  0  0  0  0  0  0  0  0  0
  141.3995   72.4906  227.2360 H   0  0  0  0  0  0  0  0  0  0  0  0
  1  2  3  0
  2  3  1  0
  3  4  1  0
  4  5  1  0
  5  6  1  0
  6  7  1  0
  7  8  1  0
  8  9  2  0
  8 10  1  0
 10 11  1  0
 11 12  1  0
 12 13  2  0
 12 14  1  0
 14 15  2  0
 15 16  1  0
 16 17  2  0
 17 18  1  0
 18 19  2  0
 19 20  1  0
 20 21  2  0
 21 22  1  0
 22 23  2  0
  7  3  1  0
 23 14  1  0
 22 17  1  0
  3 24  1  1
  4 25  1  0
  4 26  1  0
  5 27  1  0
  5 28  1  0
  6 29  1  0
  6 30  1  0
 10 31  1  0
 10 32  1  0
 11 33  1  0
 15 34  1  0
 16 35  1  0
 18 36  1  0
 19 37  1  0
 20 38  1  0
 21 39  1  0
M  END
>  <smiles>  (11) 
N#C[C@@H]1CCCN1C(=O)CNC(=O)c1ccc2ccccc2n1

>  <score_type>  (11) 
oracle

>  <origin>  (11) 
autodockgpu

>  <m_score__min__energy>  (11) 
-7.3799999999999999

>  <m_primary>  (11) 
energy

>  <rmsd>  (11) 
2.2236841097628752

>  <m_score__min__rmsd>  (11) 
2.2236841097628752

>  <meeko>  (11) 
{"free_energy": -6.91, "intermolecular_energy": -8.4, "internal_energy": -1.3, "cluster_size": 9, "cluster_id": 2, "rank_in_cluster": 7}

>  <energy>  (11) 
-7.35

>  <cluster_rmsd>  (11) 
0.23

>  <cluster>  (11) 
1

$$$$

     RDKit          3D

 39 41  0  0  0  0  0  0  0  0999 V2000
  139.1830   67.4310  225.7160 N   0  0  0  0  0  0  0  0  0  0  0  0
  139.7540   68.3550  226.0500 C   0  0  0  0  0  0  0  0  0  0  0  0
  140.4910   69.5140  226.4520 C   0  0  2  0  0  0  0  0  0  0  0  0
  140.1100   69.9790  227.8660 C   0  0  0  0  0  0  0  0  0  0  0  0
  140.9840   71.2390  227.9200 C   0  0  0  0  0  0  0  0  0  0  0  0
  140.8590   71.7870  226.5150 C   0  0  0  0  0  0  0  0  0  0  0  0
  140.2180   70.7220  225.7240 N   0  0  0  0  0  0  0  0  0  0  0  0
  139.5280   70.9960  224.5320 C   0  0  0  0  0  0  0  0  0  0  0  0
  138.2630   71.1330  224.6250 O   0  0  0  0  0  0  0  0  0  0  0  0
  140.1140   71.1400  223.1990 C   0  0  0  0  0  0  0  0  0  0  0  0
  140.3010   72.5550  222.8450 N   0  0  0  0  0  0  0  0  0  0  0  0
  141.0640   72.9110  221.6950 C   0  0  0  0  0  0  0  0  0  0  0  0
  141.5900   72.0350  220.9600 O   0  0  0  0  0  0  0  0  0  0  0  0
  141.2070   74.3370  221.4080 C   0  0  0  0  0  0  0  0  0  0  0  0
  142.0120   74.7610  220.3600 C   0  0  0  0  0  0  0  0  0  0  0  0
  142.1670   76.1040  220.0630 C   0  0  0  0  0  0  0  0  0  0  0  0
  141.4880   77.0120  220.8520 C   0  0  0  0  0  0  0  0  0  0  0  0
  141.6120   78.3600  220.5930 C   0  0  0  0  0  0  0  0  0  0  0  0
  140.9340   79.2890  221.3800 C   0  0  0  0  0  0  0  0  0  0  0  0
  140.1220   78.8970  222.4350 C   0  0  0  0  0  0  0  0  0  0  0  0
  140.0280   77.5320  222.6560 C   0  0  0  0  0  0  0  0  0  0  0  0
  140.6890   76.6010  221.8910 C   0  0  0  0  0  0  0  0  0  0  0  0
  140.5830   75.2920  222.1230 N   0  0  0  0  0  0  0  0  0  0  0  0
  141.5204   69.1536  226.3087 H   0  0  0  0  0  0  0  0  0  0  0  0
  139.0384   70.2113  227.9535 H   0  0  0  0  0  0  0  0  0  0  0  0
  140.2669   69.2480  228.6729 H   0  0  0  0  0  0  0  0  0  0  0  0
  140.6018   71.9560  228.6615 H   0  0  0  0  0  0  0  0  0  0  0  0
  142.0229   71.0386  228.2209 H   0  0  0  0  0  0  0  0  0  0  0  0
  140.2366   72.6940  226.5116 H   0  0  0  0  0  0  0  0  0  0  0  0
  141.8392   72.0650  226.1003 H   0  0  0  0  0  0  0  0  0  0  0  0
  141.0908   70.6345  223.1810 H   0  0  0  0  0  0  0  0  0  0  0  0
  139.4271   70.6882  222.4682 H   0  0  0  0  0  0  0  0  0  0  0  0
  139.8590   73.2910  223.4620 H   0  0  0  0  0  0  0  0  0  0  0  0
  142.5393   74.0120  219.7509 H   0  0  0  0  0  0  0  0  0  0  0  0
  142.8060   76.4353  219.2311 H   0  0  0  0  0  0  0  0  0  0  0  0
  142.2475   78.7033  219.7633 H   0  0  0  0  0  0  0  0  0  0  0  0
  141.0454   80.3609  221.1593 H   0  0  0  0  0  0  0  0  0  0  0  0
  139.5848   79.6265  223.0589 H   0  0  0  0  0  0  0  0  0  0  0  0
  139.3947   77.1771  223.4824 H   0  0  0  0  0  0  0  0  0  0  0  0
  1  2  3  0
  2  3  1  0
  3  4  1  0
  4  5  1  0
  5  6  1  0
  6  7  1  0
  7  8  1  0
  8  9  2  0
  8 10  1  0
 10 11  1  0
 11 12  1  0
 12 13  2  0
 12 14  1  0
 14 15  2  0
 15 16  1  0
 16 17  2  0
 17 18  1  0
 18 19  2  0
 19 20  1  0
 20 21  2  0
 21 22  1  0
 22 23  2  0
  7  3  1  0
 23 14  1  0
 22 17  1  0
  3 24  1  1
  4 25  1  0
  4 26  1  0
  5 27  1  0
  5 28  1  0
  6 29  1  0
  6 30  1  0
 10 31  1  0
 10 32  1  0
 11 33  1  0
 15 34  1  0
 16 35  1  0
 18 36  1  0
 19 37  1  0
 20 38  1  0
 21 39  1  0
M  END
>  <smiles>  (12) 
N#C[C@@H]1CCCN1C(=O)CNC(=O)c1ccc2ccccc2n1

>  <score_type>  (12) 
oracle

>  <origin>  (12) 
autodockgpu

>  <m_score__min__energy>  (12) 
-7.3799999999999999

>  <m_primary>  (12) 
energy

>  <rmsd>  (12) 
8.665721901767345

>  <m_score__min__rmsd>  (12) 
8.665721901767345

>  <meeko>  (12) 
{"free_energy": -7.35, "intermolecular_energy": -8.84, "internal_energy": -1.21, "cluster_size": 28, "cluster_id": 1, "rank_in_cluster": 10}

>  <energy>  (12) 
-7.34

>  <cluster_rmsd>  (12) 
0.21

>  <cluster>  (12) 
1

$$$$

     RDKit          3D

 39 41  0  0  0  0  0  0  0  0999 V2000
  139.2220   67.6030  225.3260 N   0  0  0  0  0  0  0  0  0  0  0  0
  139.7830   68.4960  225.7480 C   0  0  0  0  0  0  0  0  0  0  0  0
  140.5120   69.6110  226.2730 C   0  0  2  0  0  0  0  0  0  0  0  0
  139.9540   70.0820  227.6250 C   0  0  0  0  0  0  0  0  0  0  0  0
  140.8740   71.2940  227.8260 C   0  0  0  0  0  0  0  0  0  0  0  0
  140.9810   71.8610  226.4280 C   0  0  0  0  0  0  0  0  0  0  0  0
  140.4080   70.8390  225.5340 N   0  0  0  0  0  0  0  0  0  0  0  0
  139.9130   71.1610  224.2600 C   0  0  0  0  0  0  0  0  0  0  0  0
  140.5870   72.0060  223.5830 O   0  0  0  0  0  0  0  0  0  0  0  0
  138.7060   70.6220  223.6330 C   0  0  0  0  0  0  0  0  0  0  0  0
  137.4900   71.1050  224.3050 N   0  0  0  0  0  0  0  0  0  0  0  0
  136.4190   70.2070  224.5820 C   0  0  0  0  0  0  0  0  0  0  0  0
  136.4830   68.9910  224.2620 O   0  0  0  0  0  0  0  0  0  0  0  0
  135.2440   70.7600  225.2520 C   0  0  0  0  0  0  0  0  0  0  0  0
  134.2990   69.9140  225.8160 C   0  0  0  0  0  0  0  0  0  0  0  0
  133.1760   70.4070  226.4580 C   0  0  0  0  0  0  0  0  0  0  0  0
  133.0290   71.7790  226.5170 C   0  0  0  0  0  0  0  0  0  0  0  0
  131.9270   72.3160  227.1470 C   0  0  0  0  0  0  0  0  0  0  0  0
  131.7650   73.6980  227.2150 C   0  0  0  0  0  0  0  0  0  0  0  0
  132.6910   74.5700  226.6630 C   0  0  0  0  0  0  0  0  0  0  0  0
  133.7830   73.9840  226.0400 C   0  0  0  0  0  0  0  0  0  0  0  0
  133.9610   72.6240  225.9630 C   0  0  0  0  0  0  0  0  0  0  0  0
  135.0190   72.0820  225.3590 N   0  0  0  0  0  0  0  0  0  0  0  0
  141.5316   69.1982  226.2741 H   0  0  0  0  0  0  0  0  0  0  0  0
  138.8942   70.3696  227.5608 H   0  0  0  0  0  0  0  0  0  0  0  0
  139.9549   69.3362  228.4336 H   0  0  0  0  0  0  0  0  0  0  0  0
  140.4255   72.0229  228.5171 H   0  0  0  0  0  0  0  0  0  0  0  0
  141.8470   71.0364  228.2698 H   0  0  0  0  0  0  0  0  0  0  0  0
  140.4123   72.7994  226.3509 H   0  0  0  0  0  0  0  0  0  0  0  0
  142.0237   72.0908  226.1636 H   0  0  0  0  0  0  0  0  0  0  0  0
  138.6803   70.9347  222.5787 H   0  0  0  0  0  0  0  0  0  0  0  0
  138.7340   69.5254  223.7146 H   0  0  0  0  0  0  0  0  0  0  0  0
  137.4360   72.1270  224.5750 H   0  0  0  0  0  0  0  0  0  0  0  0
  134.4460   68.8258  225.7512 H   0  0  0  0  0  0  0  0  0  0  0  0
  132.4300   69.7325  226.9036 H   0  0  0  0  0  0  0  0  0  0  0  0
  131.1741   71.6522  227.5969 H   0  0  0  0  0  0  0  0  0  0  0  0
  130.8784   74.1086  227.7203 H   0  0  0  0  0  0  0  0  0  0  0  0
  132.5670   75.6617  226.7160 H   0  0  0  0  0  0  0  0  0  0  0  0
  134.5418   74.6387  225.5865 H   0  0  0  0  0  0  0  0  0  0  0  0
  1  2  3  0
  2  3  1  0
  3  4  1  0
  4  5  1  0
  5  6  1  0
  6  7  1  0
  7  8  1  0
  8  9  2  0
  8 10  1  0
 10 11  1  0
 11 12  1  0
 12 13  2  0
 12 14  1  0
 14 15  2  0
 15 16  1  0
 16 17  2  0
 17 18  1  0
 18 19  2  0
 19 20  1  0
 20 21  2  0
 21 22  1  0
 22 23  2  0
  7  3  1  0
 23 14  1  0
 22 17  1  0
  3 24  1  1
  4 25  1  0
  4 26  1  0
  5 27  1  0
  5 28  1  0
  6 29  1  0
  6 30  1  0
 10 31  1  0
 10 32  1  0
 11 33  1  0
 15 34  1  0
 16 35  1  0
 18 36  1  0
 19 37  1  0
 20 38  1  0
 21 39  1  0
M  END
>  <smiles>  (13) 
N#C[C@@H]1CCCN1C(=O)CNC(=O)c1ccc2ccccc2n1

>  <score_type>  (13) 
oracle

>  <origin>  (13) 
autodockgpu

>  <m_score__min__energy>  (13) 
-7.3799999999999999

>  <m_primary>  (13) 
energy

>  <rmsd>  (13) 
7.954407962023346

>  <m_score__min__rmsd>  (13) 
7.954407962023346

>  <meeko>  (13) 
{"free_energy": -6.93, "intermolecular_energy": -8.42, "internal_energy": -1.39, "cluster_size": 13, "cluster_id": 3, "rank_in_cluster": 6}

>  <energy>  (13) 
-7.33

>  <cluster_rmsd>  (13) 
0.26

>  <cluster>  (13) 
1

$$$$

     RDKit          3D

 39 41  0  0  0  0  0  0  0  0999 V2000
  141.2620   78.9720  223.8480 N   0  0  0  0  0  0  0  0  0  0  0  0
  141.4870   78.6520  222.7820 C   0  0  0  0  0  0  0  0  0  0  0  0
  141.7850   78.2700  221.4340 C   0  0  2  0  0  0  0  0  0  0  0  0
  141.1930   79.2510  220.4110 C   0  0  0  0  0  0  0  0  0  0  0  0
  141.6080   78.5070  219.1350 C   0  0  0  0  0  0  0  0  0  0  0  0
  141.3930   77.0580  219.5150 C   0  0  0  0  0  0  0  0  0  0  0  0
  141.1780   77.0520  220.9730 N   0  0  0  0  0  0  0  0  0  0  0  0
  140.5070   76.0020  221.6200 C   0  0  0  0  0  0  0  0  0  0  0  0
  139.8550   76.3070  222.6740 O   0  0  0  0  0  0  0  0  0  0  0  0
  140.4780   74.5990  221.2060 C   0  0  0  0  0  0  0  0  0  0  0  0
  140.1630   73.7130  222.3360 N   0  0  0  0  0  0  0  0  0  0  0  0
  140.6820   72.3860  222.3730 C   0  0  0  0  0  0  0  0  0  0  0  0
  141.4150   71.9430  221.4500 O   0  0  0  0  0  0  0  0  0  0  0  0
  140.3250   71.5640  223.5270 C   0  0  0  0  0  0  0  0  0  0  0  0
  139.5790   70.4070  223.3570 C   0  0  0  0  0  0  0  0  0  0  0  0
  139.2260   69.6070  224.4310 C   0  0  0  0  0  0  0  0  0  0  0  0
  139.6450   70.0060  225.6850 C   0  0  0  0  0  0  0  0  0  0  0  0
  139.3180   69.2410  226.7830 C   0  0  0  0  0  0  0  0  0  0  0  0
  139.7330   69.6300  228.0550 C   0  0  0  0  0  0  0  0  0  0  0  0
  140.4810   70.7800  228.2590 C   0  0  0  0  0  0  0  0  0  0  0  0
  140.7860   71.5170  227.1250 C   0  0  0  0  0  0  0  0  0  0  0  0
  140.3860   71.1500  225.8620 C   0  0  0  0  0  0  0  0  0  0  0  0
  140.6910   71.8740  224.7850 N   0  0  0  0  0  0  0  0  0  0  0  0
  142.8821   78.2077  221.4835 H   0  0  0  0  0  0  0  0  0  0  0  0
  140.1006   79.3409  220.5040 H   0  0  0  0  0  0  0  0  0  0  0  0
  141.5307   80.2947  220.4922 H   0  0  0  0  0  0  0  0  0  0  0  0
  140.9727   78.7930  218.2838 H   0  0  0  0  0  0  0  0  0  0  0  0
  142.6367   78.7278  218.8140 H   0  0  0  0  0  0  0  0  0  0  0  0
  140.5116   76.6529  218.9963 H   0  0  0  0  0  0  0  0  0  0  0  0
  142.2525   76.4333  219.2303 H   0  0  0  0  0  0  0  0  0  0  0  0
  139.7121   74.4715  220.4268 H   0  0  0  0  0  0  0  0  0  0  0  0
  141.4734   74.3305  220.8224 H   0  0  0  0  0  0  0  0  0  0  0  0
  139.5480   74.0850  223.1120 H   0  0  0  0  0  0  0  0  0  0  0  0
  139.2601   70.1179  222.3447 H   0  0  0  0  0  0  0  0  0  0  0  0
  138.6351   68.6898  224.2907 H   0  0  0  0  0  0  0  0  0  0  0  0
  138.7281   68.3213  226.6553 H   0  0  0  0  0  0  0  0  0  0  0  0
  139.4601   69.0084  228.9205 H   0  0  0  0  0  0  0  0  0  0  0  0
  140.8126   71.0890  229.2613 H   0  0  0  0  0  0  0  0  0  0  0  0
  141.3755   72.4384  227.2413 H   0  0  0  0  0  0  0  0  0  0  0  0
  1  2  3  0
  2  3  1  0
  3  4  1  0
  4  5  1  0
  5  6  1  0
  6  7  1  0
  7  8  1  0
  8  9  2  0
  8 10  1  0
 10 11  1  0
 11 12  1  0
 12 13  2  0
 12 14  1  0
 14 15  2  0
 15 16  1  0
 16 17  2  0
 17 18  1  0
 18 19  2  0
 19 20  1  0
 20 21  2  0
 21 22  1  0
 22 23  2  0
  7  3  1  0
 23 14  1  0
 22 17  1  0
  3 24  1  1
  4 25  1  0
  4 26  1  0
  5 27  1  0
  5 28  1  0
  6 29  1  0
  6 30  1  0
 10 31  1  0
 10 32  1  0
 11 33  1  0
 15 34  1  0
 16 35  1  0
 18 36  1  0
 19 37  1  0
 20 38  1  0
 21 39  1  0
M  END
>  <smiles>  (14) 
N#C[C@@H]1CCCN1C(=O)CNC(=O)c1ccc2ccccc2n1

>  <score_type>  (14) 
oracle

>  <origin>  (14) 
autodockgpu

>  <m_score__min__energy>  (14) 
-7.3799999999999999

>  <m_primary>  (14) 
energy

>  <rmsd>  (14) 
2.221600093714867

>  <m_score__min__rmsd>  (14) 
2.221600093714867

>  <meeko>  (14) 
{"free_energy": -6.93, "intermolecular_energy": -8.42, "internal_energy": -1.32, "cluster_size": 9, "cluster_id": 2, "rank_in_cluster": 6}

>  <energy>  (14) 
-7.33

>  <cluster_rmsd>  (14) 
0.19

>  <cluster>  (14) 
1

$$$$

     RDKit          3D

 39 41  0  0  0  0  0  0  0  0999 V2000
  139.1960   67.4390  225.7280 N   0  0  0  0  0  0  0  0  0  0  0  0
  139.7830   68.3710  226.0060 C   0  0  0  0  0  0  0  0  0  0  0  0
  140.5060   69.5600  226.3420 C   0  0  2  0  0  0  0  0  0  0  0  0
  140.1700   70.0600  227.7560 C   0  0  0  0  0  0  0  0  0  0  0  0
  141.0120   71.3420  227.7370 C   0  0  0  0  0  0  0  0  0  0  0  0
  140.8160   71.8430  226.3220 C   0  0  0  0  0  0  0  0  0  0  0  0
  140.1720   70.7380  225.5900 N   0  0  0  0  0  0  0  0  0  0  0  0
  139.4280   70.9570  224.4200 C   0  0  0  0  0  0  0  0  0  0  0  0
  138.1610   71.0310  224.5550 O   0  0  0  0  0  0  0  0  0  0  0  0
  139.9590   71.1110  223.0650 C   0  0  0  0  0  0  0  0  0  0  0  0
  140.1510   72.5280  222.7220 N   0  0  0  0  0  0  0  0  0  0  0  0
  141.0720   72.9000  221.7000 C   0  0  0  0  0  0  0  0  0  0  0  0
  141.7380   72.0360  221.0710 O   0  0  0  0  0  0  0  0  0  0  0  0
  141.2090   74.3270  221.4150 C   0  0  0  0  0  0  0  0  0  0  0  0
  142.0320   74.7570  220.3830 C   0  0  0  0  0  0  0  0  0  0  0  0
  142.1810   76.1010  220.0890 C   0  0  0  0  0  0  0  0  0  0  0  0
  141.4800   77.0040  220.8640 C   0  0  0  0  0  0  0  0  0  0  0  0
  141.5980   78.3530  220.6070 C   0  0  0  0  0  0  0  0  0  0  0  0
  140.8970   79.2760  221.3800 C   0  0  0  0  0  0  0  0  0  0  0  0
  140.0670   78.8780  222.4180 C   0  0  0  0  0  0  0  0  0  0  0  0
  139.9790   77.5120  222.6380 C   0  0  0  0  0  0  0  0  0  0  0  0
  140.6630   76.5860  221.8870 C   0  0  0  0  0  0  0  0  0  0  0  0
  140.5640   75.2770  222.1170 N   0  0  0  0  0  0  0  0  0  0  0  0
  141.5376   69.2206  226.1673 H   0  0  0  0  0  0  0  0  0  0  0  0
  139.0970   70.2684  227.8799 H   0  0  0  0  0  0  0  0  0  0  0  0
  140.3783   69.3587  228.5774 H   0  0  0  0  0  0  0  0  0  0  0  0
  140.6413   72.0718  228.4718 H   0  0  0  0  0  0  0  0  0  0  0  0
  142.0670   71.1772  228.0012 H   0  0  0  0  0  0  0  0  0  0  0  0
  140.1702   72.7334  226.3170 H   0  0  0  0  0  0  0  0  0  0  0  0
  141.7710   72.1326  225.8593 H   0  0  0  0  0  0  0  0  0  0  0  0
  140.9268   70.5924  222.9988 H   0  0  0  0  0  0  0  0  0  0  0  0
  139.2354   70.6786  222.3583 H   0  0  0  0  0  0  0  0  0  0  0  0
  139.5920   73.2550  223.2500 H   0  0  0  0  0  0  0  0  0  0  0  0
  142.5781   74.0124  219.7853 H   0  0  0  0  0  0  0  0  0  0  0  0
  142.8329   76.4373  219.2693 H   0  0  0  0  0  0  0  0  0  0  0  0
  142.2469   78.7015  219.7900 H   0  0  0  0  0  0  0  0  0  0  0  0
  141.0044   80.3487  221.1616 H   0  0  0  0  0  0  0  0  0  0  0  0
  139.5115   79.6035  223.0304 H   0  0  0  0  0  0  0  0  0  0  0  0
  139.3317   77.1525  223.4514 H   0  0  0  0  0  0  0  0  0  0  0  0
  1  2  3  0
  2  3  1  0
  3  4  1  0
  4  5  1  0
  5  6  1  0
  6  7  1  0
  7  8  1  0
  8  9  2  0
  8 10  1  0
 10 11  1  0
 11 12  1  0
 12 13  2  0
 12 14  1  0
 14 15  2  0
 15 16  1  0
 16 17  2  0
 17 18  1  0
 18 19  2  0
 19 20  1  0
 20 21  2  0
 21 22  1  0
 22 23  2  0
  7  3  1  0
 23 14  1  0
 22 17  1  0
  3 24  1  1
  4 25  1  0
  4 26  1  0
  5 27  1  0
  5 28  1  0
  6 29  1  0
  6 30  1  0
 10 31  1  0
 10 32  1  0
 11 33  1  0
 15 34  1  0
 16 35  1  0
 18 36  1  0
 19 37  1  0
 20 38  1  0
 21 39  1  0
M  END
>  <smiles>  (15) 
N#C[C@@H]1CCCN1C(=O)CNC(=O)c1ccc2ccccc2n1

>  <score_type>  (15) 
oracle

>  <origin>  (15) 
autodockgpu

>  <m_score__min__energy>  (15) 
-7.3799999999999999

>  <m_primary>  (15) 
energy

>  <rmsd>  (15) 
8.595051194788343

>  <m_score__min__rmsd>  (15) 
8.595051194788343

>  <meeko>  (15) 
{"free_energy": -7.36, "intermolecular_energy": -8.85, "internal_energy": -1.23, "cluster_size": 28, "cluster_id": 1, "rank_in_cluster": 6}

>  <energy>  (15) 
-7.33

>  <cluster_rmsd>  (15) 
0.24

>  <cluster>  (15) 
1

$$$$

     RDKit          3D

 39 41  0  0  0  0  0  0  0  0999 V2000
  141.1130   71.7860  228.4400 N   0  0  0  0  0  0  0  0  0  0  0  0
  140.6050   70.9200  227.9080 C   0  0  0  0  0  0  0  0  0  0  0  0
  139.9480   69.8450  227.2280 C   0  0  2  0  0  0  0  0  0  0  0  0
  140.7140   68.5200  227.3640 C   0  0  0  0  0  0  0  0  0  0  0  0
  139.8120   67.6580  226.4710 C   0  0  0  0  0  0  0  0  0  0  0  0
  139.4550   68.6070  225.3490 C   0  0  0  0  0  0  0  0  0  0  0  0
  139.8940   69.9420  225.7950 N   0  0  0  0  0  0  0  0  0  0  0  0
  140.1580   70.9790  224.8870 C   0  0  0  0  0  0  0  0  0  0  0  0
  141.0750   71.8030  225.2150 O   0  0  0  0  0  0  0  0  0  0  0  0
  139.4890   71.2080  223.6060 C   0  0  0  0  0  0  0  0  0  0  0  0
  139.8800   72.4980  223.0190 N   0  0  0  0  0  0  0  0  0  0  0  0
  140.8400   72.5450  221.9660 C   0  0  0  0  0  0  0  0  0  0  0  0
  141.3710   71.4960  221.5160 O   0  0  0  0  0  0  0  0  0  0  0  0
  141.1780   73.8630  221.4340 C   0  0  0  0  0  0  0  0  0  0  0  0
  142.0000   73.9760  220.3210 C   0  0  0  0  0  0  0  0  0  0  0  0
  142.3390   75.2110  219.7930 C   0  0  0  0  0  0  0  0  0  0  0  0
  141.8270   76.3320  220.4180 C   0  0  0  0  0  0  0  0  0  0  0  0
  142.1360   77.5810  219.9270 C   0  0  0  0  0  0  0  0  0  0  0  0
  141.6270   78.7210  220.5450 C   0  0  0  0  0  0  0  0  0  0  0  0
  140.8030   78.6420  221.6580 C   0  0  0  0  0  0  0  0  0  0  0  0
  140.5190   77.3640  222.1150 C   0  0  0  0  0  0  0  0  0  0  0  0
  141.0110   76.2280  221.5190 C   0  0  0  0  0  0  0  0  0  0  0  0
  140.7250   75.0080  221.9760 N   0  0  0  0  0  0  0  0  0  0  0  0
  138.9539   69.8925  227.6965 H   0  0  0  0  0  0  0  0  0  0  0  0
  141.7404   68.5905  226.9748 H   0  0  0  0  0  0  0  0  0  0  0  0
  140.8676   68.1548  228.3902 H   0  0  0  0  0  0  0  0  0  0  0  0
  140.3531   66.7790  226.0906 H   0  0  0  0  0  0  0  0  0  0  0  0
  138.9350   67.2523  226.9966 H   0  0  0  0  0  0  0  0  0  0  0  0
  139.9783   68.3210  224.4247 H   0  0  0  0  0  0  0  0  0  0  0  0
  138.3770   68.5879  225.1310 H   0  0  0  0  0  0  0  0  0  0  0  0
  139.7622   70.4009  222.9104 H   0  0  0  0  0  0  0  0  0  0  0  0
  138.4030   71.2223  223.7806 H   0  0  0  0  0  0  0  0  0  0  0  0
  139.4340   73.3800  223.3970 H   0  0  0  0  0  0  0  0  0  0  0  0
  142.3913   73.0636  219.8473 H   0  0  0  0  0  0  0  0  0  0  0  0
  142.9903   75.2960  218.9107 H   0  0  0  0  0  0  0  0  0  0  0  0
  142.7861   77.6787  219.0450 H   0  0  0  0  0  0  0  0  0  0  0  0
  141.8855   79.7103  220.1395 H   0  0  0  0  0  0  0  0  0  0  0  0
  140.3989   79.5396  222.1489 H   0  0  0  0  0  0  0  0  0  0  0  0
  139.8694   77.2545  222.9959 H   0  0  0  0  0  0  0  0  0  0  0  0
  1  2  3  0
  2  3  1  0
  3  4  1  0
  4  5  1  0
  5  6  1  0
  6  7  1  0
  7  8  1  0
  8  9  2  0
  8 10  1  0
 10 11  1  0
 11 12  1  0
 12 13  2  0
 12 14  1  0
 14 15  2  0
 15 16  1  0
 16 17  2  0
 17 18  1  0
 18 19  2  0
 19 20  1  0
 20 21  2  0
 21 22  1  0
 22 23  2  0
  7  3  1  0
 23 14  1  0
 22 17  1  0
  3 24  1  1
  4 25  1  0
  4 26  1  0
  5 27  1  0
  5 28  1  0
  6 29  1  0
  6 30  1  0
 10 31  1  0
 10 32  1  0
 11 33  1  0
 15 34  1  0
 16 35  1  0
 18 36  1  0
 19 37  1  0
 20 38  1  0
 21 39  1  0
M  END
>  <smiles>  (16) 
N#C[C@@H]1CCCN1C(=O)CNC(=O)c1ccc2ccccc2n1

>  <score_type>  (16) 
oracle

>  <origin>  (16) 
autodockgpu

>  <m_score__min__energy>  (16) 
-7.3799999999999999

>  <m_primary>  (16) 
energy

>  <rmsd>  (16) 
8.730707421116488

>  <m_score__min__rmsd>  (16) 
8.730707421116488

>  <meeko>  (16) 
{"free_energy": -7.21, "intermolecular_energy": -8.7, "internal_energy": -1.17, "cluster_size": 28, "cluster_id": 1, "rank_in_cluster": 18}

>  <energy>  (16) 
-7.32

>  <cluster_rmsd>  (16) 
0.2

>  <cluster>  (16) 
1

$$$$

     RDKit          3D

 39 41  0  0  0  0  0  0  0  0999 V2000
  139.2030   67.3740  226.1150 N   0  0  0  0  0  0  0  0  0  0  0  0
  139.7790   68.3430  226.2570 C   0  0  0  0  0  0  0  0  0  0  0  0
  140.5140   69.5550  226.4580 C   0  0  2  0  0  0  0  0  0  0  0  0
  140.2160   70.1920  227.8240 C   0  0  0  0  0  0  0  0  0  0  0  0
  141.0620   71.4610  227.6580 C   0  0  0  0  0  0  0  0  0  0  0  0
  140.8330   71.8220  226.2070 C   0  0  0  0  0  0  0  0  0  0  0  0
  140.1660   70.6550  225.6020 N   0  0  0  0  0  0  0  0  0  0  0  0
  139.3930   70.7640  224.4350 C   0  0  0  0  0  0  0  0  0  0  0  0
  138.1270   70.6950  224.5810 O   0  0  0  0  0  0  0  0  0  0  0  0
  139.8930   70.9490  223.0720 C   0  0  0  0  0  0  0  0  0  0  0  0
  140.1000   72.3720  222.7650 N   0  0  0  0  0  0  0  0  0  0  0  0
  140.9590   72.7580  221.6950 C   0  0  0  0  0  0  0  0  0  0  0  0
  141.5560   71.9000  220.9930 O   0  0  0  0  0  0  0  0  0  0  0  0
  141.1150   74.1900  221.4510 C   0  0  0  0  0  0  0  0  0  0  0  0
  142.0190   74.6410  220.4990 C   0  0  0  0  0  0  0  0  0  0  0  0
  142.1890   75.9910  220.2440 C   0  0  0  0  0  0  0  0  0  0  0  0
  141.4240   76.8780  220.9770 C   0  0  0  0  0  0  0  0  0  0  0  0
  141.5590   78.2310  220.7570 C   0  0  0  0  0  0  0  0  0  0  0  0
  140.7940   79.1380  221.4880 C   0  0  0  0  0  0  0  0  0  0  0  0
  139.8820   78.7190  222.4450 C   0  0  0  0  0  0  0  0  0  0  0  0
  139.7800   77.3490  222.6310 C   0  0  0  0  0  0  0  0  0  0  0  0
  140.5260   76.4390  221.9210 C   0  0  0  0  0  0  0  0  0  0  0  0
  140.4120   75.1250  222.1160 N   0  0  0  0  0  0  0  0  0  0  0  0
  141.5400   69.1944  226.2928 H   0  0  0  0  0  0  0  0  0  0  0  0
  139.1473   70.4179  227.9540 H   0  0  0  0  0  0  0  0  0  0  0  0
  140.4425   69.5730  228.7046 H   0  0  0  0  0  0  0  0  0  0  0  0
  140.7125   72.2616  228.3264 H   0  0  0  0  0  0  0  0  0  0  0  0
  142.1227   71.3162  227.9109 H   0  0  0  0  0  0  0  0  0  0  0  0
  140.1911   72.7120  226.1306 H   0  0  0  0  0  0  0  0  0  0  0  0
  141.7776   72.0582  225.6952 H   0  0  0  0  0  0  0  0  0  0  0  0
  140.8501   70.4172  222.9667 H   0  0  0  0  0  0  0  0  0  0  0  0
  139.1451   70.5490  222.3716 H   0  0  0  0  0  0  0  0  0  0  0  0
  139.5980   73.0930  223.3550 H   0  0  0  0  0  0  0  0  0  0  0  0
  142.6142   73.9085  219.9340 H   0  0  0  0  0  0  0  0  0  0  0  0
  142.9052   76.3438  219.4873 H   0  0  0  0  0  0  0  0  0  0  0  0
  142.2719   78.5962  220.0030 H   0  0  0  0  0  0  0  0  0  0  0  0
  140.9169   80.2150  221.3009 H   0  0  0  0  0  0  0  0  0  0  0  0
  139.2752   79.4318  223.0226 H   0  0  0  0  0  0  0  0  0  0  0  0
  139.0691   76.9730  223.3815 H   0  0  0  0  0  0  0  0  0  0  0  0
  1  2  3  0
  2  3  1  0
  3  4  1  0
  4  5  1  0
  5  6  1  0
  6  7  1  0
  7  8  1  0
  8  9  2  0
  8 10  1  0
 10 11  1  0
 11 12  1  0
 12 13  2  0
 12 14  1  0
 14 15  2  0
 15 16  1  0
 16 17  2  0
 17 18  1  0
 18 19  2  0
 19 20  1  0
 20 21  2  0
 21 22  1  0
 22 23  2  0
  7  3  1  0
 23 14  1  0
 22 17  1  0
  3 24  1  1
  4 25  1  0
  4 26  1  0
  5 27  1  0
  5 28  1  0
  6 29  1  0
  6 30  1  0
 10 31  1  0
 10 32  1  0
 11 33  1  0
 15 34  1  0
 16 35  1  0
 18 36  1  0
 19 37  1  0
 20 38  1  0
 21 39  1  0
M  END
>  <smiles>  (17) 
N#C[C@@H]1CCCN1C(=O)CNC(=O)c1ccc2ccccc2n1

>  <score_type>  (17) 
oracle

>  <origin>  (17) 
autodockgpu

>  <m_score__min__energy>  (17) 
-7.3799999999999999

>  <m_primary>  (17) 
energy

>  <rmsd>  (17) 
8.525870314914805

>  <m_score__min__rmsd>  (17) 
8.525870314914805

>  <meeko>  (17) 
{"free_energy": -7.36, "intermolecular_energy": -8.85, "internal_energy": -1.21, "cluster_size": 28, "cluster_id": 1, "rank_in_cluster": 5}

>  <energy>  (17) 
-7.26

>  <cluster_rmsd>  (17) 
0.3

>  <cluster>  (17) 
1

$$$$

     RDKit          3D

 39 41  0  0  0  0  0  0  0  0999 V2000
  139.1880   67.3950  226.0510 N   0  0  0  0  0  0  0  0  0  0  0  0
  139.7770   68.3380  226.2870 C   0  0  0  0  0  0  0  0  0  0  0  0
  140.5220   69.5300  226.5590 C   0  0  2  0  0  0  0  0  0  0  0  0
  140.1680   70.1340  227.9270 C   0  0  0  0  0  0  0  0  0  0  0  0
  141.0430   71.3910  227.8390 C   0  0  0  0  0  0  0  0  0  0  0  0
  140.8920   71.7970  226.3900 C   0  0  0  0  0  0  0  0  0  0  0  0
  140.2360   70.6600  225.7200 N   0  0  0  0  0  0  0  0  0  0  0  0
  139.5240   70.8160  224.5190 C   0  0  0  0  0  0  0  0  0  0  0  0
  138.2520   70.7720  224.6020 O   0  0  0  0  0  0  0  0  0  0  0  0
  140.0950   71.0240  223.1880 C   0  0  0  0  0  0  0  0  0  0  0  0
  140.2030   72.4550  222.8690 N   0  0  0  0  0  0  0  0  0  0  0  0
  141.0500   72.8910  221.8080 C   0  0  0  0  0  0  0  0  0  0  0  0
  141.7200   72.0730  221.1260 O   0  0  0  0  0  0  0  0  0  0  0  0
  141.1060   74.3280  221.5500 C   0  0  0  0  0  0  0  0  0  0  0  0
  141.9840   74.8330  220.6010 C   0  0  0  0  0  0  0  0  0  0  0  0
  142.0590   76.1900  220.3340 C   0  0  0  0  0  0  0  0  0  0  0  0
  141.2260   77.0270  221.0500 C   0  0  0  0  0  0  0  0  0  0  0  0
  141.2670   78.3840  220.8180 C   0  0  0  0  0  0  0  0  0  0  0  0
  140.4330   79.2420  221.5320 C   0  0  0  0  0  0  0  0  0  0  0  0
  139.5450   78.7680  222.4870 C   0  0  0  0  0  0  0  0  0  0  0  0
  139.5390   77.3960  222.6860 C   0  0  0  0  0  0  0  0  0  0  0  0
  140.3540   76.5340  221.9920 C   0  0  0  0  0  0  0  0  0  0  0  0
  140.3320   75.2170  222.2000 N   0  0  0  0  0  0  0  0  0  0  0  0
  141.5484   69.1547  226.4336 H   0  0  0  0  0  0  0  0  0  0  0  0
  139.0983   70.3762  228.0112 H   0  0  0  0  0  0  0  0  0  0  0  0
  140.3400   69.4865  228.7994 H   0  0  0  0  0  0  0  0  0  0  0  0
  140.6751   72.1789  228.5126 H   0  0  0  0  0  0  0  0  0  0  0  0
  142.0873   71.2191  228.1387 H   0  0  0  0  0  0  0  0  0  0  0  0
  140.2698   72.7005  226.3083 H   0  0  0  0  0  0  0  0  0  0  0  0
  141.8644   72.0304  225.9318 H   0  0  0  0  0  0  0  0  0  0  0  0
  141.0977   70.5730  223.1541 H   0  0  0  0  0  0  0  0  0  0  0  0
  139.4305   70.5534  222.4485 H   0  0  0  0  0  0  0  0  0  0  0  0
  139.6400   73.1440  223.4420 H   0  0  0  0  0  0  0  0  0  0  0  0
  142.6351   74.1397  220.0484 H   0  0  0  0  0  0  0  0  0  0  0  0
  142.7556   76.5860  219.5803 H   0  0  0  0  0  0  0  0  0  0  0  0
  141.9599   78.7915  220.0671 H   0  0  0  0  0  0  0  0  0  0  0  0
  140.4798   80.3229  221.3335 H   0  0  0  0  0  0  0  0  0  0  0  0
  138.8845   79.4413  223.0530 H   0  0  0  0  0  0  0  0  0  0  0  0
  138.8497   76.9778  223.4343 H   0  0  0  0  0  0  0  0  0  0  0  0
  1  2  3  0
  2  3  1  0
  3  4  1  0
  4  5  1  0
  5  6  1  0
  6  7  1  0
  7  8  1  0
  8  9  2  0
  8 10  1  0
 10 11  1  0
 11 12  1  0
 12 13  2  0
 12 14  1  0
 14 15  2  0
 15 16  1  0
 16 17  2  0
 17 18  1  0
 18 19  2  0
 19 20  1  0
 20 21  2  0
 21 22  1  0
 22 23  2  0
  7  3  1  0
 23 14  1  0
 22 17  1  0
  3 24  1  1
  4 25  1  0
  4 26  1  0
  5 27  1  0
  5 28  1  0
  6 29  1  0
  6 30  1  0
 10 31  1  0
 10 32  1  0
 11 33  1  0
 15 34  1  0
 16 35  1  0
 18 36  1  0
 19 37  1  0
 20 38  1  0
 21 39  1  0
M  END
>  <smiles>  (18) 
N#C[C@@H]1CCCN1C(=O)CNC(=O)c1ccc2ccccc2n1

>  <score_type>  (18) 
oracle

>  <origin>  (18) 
autodockgpu

>  <m_score__min__energy>  (18) 
-7.3799999999999999

>  <m_primary>  (18) 
energy

>  <rmsd>  (18) 
8.618356369872782

>  <m_score__min__rmsd>  (18) 
8.618356369872782

>  <meeko>  (18) 
{"free_energy": -7.33, "intermolecular_energy": -8.82, "internal_energy": -1.22, "cluster_size": 28, "cluster_id": 1, "rank_in_cluster": 13}

>  <energy>  (18) 
-7.21

>  <cluster_rmsd>  (18) 
1.45

>  <cluster>  (18) 
1

$$$$

     RDKit          3D

 39 41  0  0  0  0  0  0  0  0999 V2000
  139.1840   67.4320  225.7400 N   0  0  0  0  0  0  0  0  0  0  0  0
  139.7470   68.3700  226.0460 C   0  0  0  0  0  0  0  0  0  0  0  0
  140.4770   69.5450  226.4180 C   0  0  2  0  0  0  0  0  0  0  0  0
  140.1180   70.0250  227.8320 C   0  0  0  0  0  0  0  0  0  0  0  0
  140.9760   71.2970  227.8520 C   0  0  0  0  0  0  0  0  0  0  0  0
  140.8150   71.8230  226.4420 C   0  0  0  0  0  0  0  0  0  0  0  0
  140.1720   70.7390  225.6780 N   0  0  0  0  0  0  0  0  0  0  0  0
  139.4550   70.9860  224.4970 C   0  0  0  0  0  0  0  0  0  0  0  0
  138.1880   71.0890  224.6100 O   0  0  0  0  0  0  0  0  0  0  0  0
  140.0150   71.1400  223.1540 C   0  0  0  0  0  0  0  0  0  0  0  0
  140.2060   72.5580  222.8110 N   0  0  0  0  0  0  0  0  0  0  0  0
  141.0440   72.9250  221.7180 C   0  0  0  0  0  0  0  0  0  0  0  0
  141.6350   72.0560  221.0250 O   0  0  0  0  0  0  0  0  0  0  0  0
  141.1850   74.3520  221.4390 C   0  0  0  0  0  0  0  0  0  0  0  0
  141.9900   74.7820  220.3930 C   0  0  0  0  0  0  0  0  0  0  0  0
  142.1430   76.1270  220.1030 C   0  0  0  0  0  0  0  0  0  0  0  0
  141.4640   77.0300  220.8970 C   0  0  0  0  0  0  0  0  0  0  0  0
  141.5870   78.3790  220.6460 C   0  0  0  0  0  0  0  0  0  0  0  0
  140.9080   79.3030  221.4380 C   0  0  0  0  0  0  0  0  0  0  0  0
  140.0970   78.9060  222.4910 C   0  0  0  0  0  0  0  0  0  0  0  0
  140.0040   77.5380  222.7050 C   0  0  0  0  0  0  0  0  0  0  0  0
  140.6650   76.6120  221.9350 C   0  0  0  0  0  0  0  0  0  0  0  0
  140.5610   75.3020  222.1590 N   0  0  0  0  0  0  0  0  0  0  0  0
  141.5083   69.1965  226.2602 H   0  0  0  0  0  0  0  0  0  0  0  0
  139.0453   70.2446  227.9373 H   0  0  0  0  0  0  0  0  0  0  0  0
  140.3006   69.3075  228.6455 H   0  0  0  0  0  0  0  0  0  0  0  0
  140.5990   72.0192  228.5911 H   0  0  0  0  0  0  0  0  0  0  0  0
  142.0232   71.1151  228.1353 H   0  0  0  0  0  0  0  0  0  0  0  0
  140.1808   72.7217  226.4389 H   0  0  0  0  0  0  0  0  0  0  0  0
  141.7831   72.1071  226.0037 H   0  0  0  0  0  0  0  0  0  0  0  0
  140.9872   70.6273  223.1108 H   0  0  0  0  0  0  0  0  0  0  0  0
  139.3098   70.7014  222.4326 H   0  0  0  0  0  0  0  0  0  0  0  0
  139.7090   73.2880  223.3930 H   0  0  0  0  0  0  0  0  0  0  0  0
  142.5186   74.0368  219.7804 H   0  0  0  0  0  0  0  0  0  0  0  0
  142.7808   76.4634  219.2723 H   0  0  0  0  0  0  0  0  0  0  0  0
  142.2226   78.7275  219.8186 H   0  0  0  0  0  0  0  0  0  0  0  0
  141.0181   80.3760  221.2223 H   0  0  0  0  0  0  0  0  0  0  0  0
  139.5597   79.6321  223.1188 H   0  0  0  0  0  0  0  0  0  0  0  0
  139.3714   77.1783  223.5298 H   0  0  0  0  0  0  0  0  0  0  0  0
  1  2  3  0
  2  3  1  0
  3  4  1  0
  4  5  1  0
  5  6  1  0
  6  7  1  0
  7  8  1  0
  8  9  2  0
  8 10  1  0
 10 11  1  0
 11 12  1  0
 12 13  2  0
 12 14  1  0
 14 15  2  0
 15 16  1  0
 16 17  2  0
 17 18  1  0
 18 19  2  0
 19 20  1  0
 20 21  2  0
 21 22  1  0
 22 23  2  0
  7  3  1  0
 23 14  1  0
 22 17  1  0
  3 24  1  1
  4 25  1  0
  4 26  1  0
  5 27  1  0
  5 28  1  0
  6 29  1  0
  6 30  1  0
 10 31  1  0
 10 32  1  0
 11 33  1  0
 15 34  1  0
 16 35  1  0
 18 36  1  0
 19 37  1  0
 20 38  1  0
 21 39  1  0
M  END
>  <smiles>  (19) 
N#C[C@@H]1CCCN1C(=O)CNC(=O)c1ccc2ccccc2n1

>  <score_type>  (19) 
oracle

>  <origin>  (19) 
autodockgpu

>  <m_score__min__energy>  (19) 
-7.3799999999999999

>  <m_primary>  (19) 
energy

>  <rmsd>  (19) 
8.630911952892479

>  <m_score__min__rmsd>  (19) 
8.630911952892479

>  <meeko>  (19) 
{"free_energy": -7.35, "intermolecular_energy": -8.84, "internal_energy": -1.22, "cluster_size": 28, "cluster_id": 1, "rank_in_cluster": 9}

>  <energy>  (19) 
-7.2

>  <cluster_rmsd>  (19) 
1.45

>  <cluster>  (19) 
1

$$$$

     RDKit          3D

 39 41  0  0  0  0  0  0  0  0999 V2000
  143.8620   73.1740  220.8620 N   0  0  0  0  0  0  0  0  0  0  0  0
  143.3620   74.0180  220.2880 C   0  0  0  0  0  0  0  0  0  0  0  0
  142.7530   75.0960  219.5690 C   0  0  2  0  0  0  0  0  0  0  0  0
  143.6390   76.3510  219.5480 C   0  0  0  0  0  0  0  0  0  0  0  0
  142.6710   77.2860  218.8130 C   0  0  0  0  0  0  0  0  0  0  0  0
  141.3310   76.9000  219.4000 C   0  0  0  0  0  0  0  0  0  0  0  0
  141.5650   75.6550  220.1530 N   0  0  0  0  0  0  0  0  0  0  0  0
  140.7120   75.2410  221.1890 C   0  0  0  0  0  0  0  0  0  0  0  0
  140.8890   75.7920  222.3260 O   0  0  0  0  0  0  0  0  0  0  0  0
  139.6440   74.2460  221.0940 C   0  0  0  0  0  0  0  0  0  0  0  0
  139.5760   73.4150  222.3050 N   0  0  0  0  0  0  0  0  0  0  0  0
  140.3460   72.2190  222.3970 C   0  0  0  0  0  0  0  0  0  0  0  0
  141.0950   71.8470  221.4570 O   0  0  0  0  0  0  0  0  0  0  0  0
  140.2260   71.4440  223.6310 C   0  0  0  0  0  0  0  0  0  0  0  0
  139.6070   70.2030  223.6180 C   0  0  0  0  0  0  0  0  0  0  0  0
  139.4790   69.4450  224.7700 C   0  0  0  0  0  0  0  0  0  0  0  0
  139.9910   69.9730  225.9390 C   0  0  0  0  0  0  0  0  0  0  0  0
  139.8870   69.2550  227.1100 C   0  0  0  0  0  0  0  0  0  0  0  0
  140.3990   69.7750  228.2970 C   0  0  0  0  0  0  0  0  0  0  0  0
  141.0240   71.0120  228.3430 C   0  0  0  0  0  0  0  0  0  0  0  0
  141.1060   71.6980  227.1400 C   0  0  0  0  0  0  0  0  0  0  0  0
  140.6070   71.2030  225.9600 C   0  0  0  0  0  0  0  0  0  0  0  0
  140.6960   71.8800  224.8140 N   0  0  0  0  0  0  0  0  0  0  0  0
  142.5636   74.6067  218.6022 H   0  0  0  0  0  0  0  0  0  0  0  0
  143.8765   76.7099  220.5603 H   0  0  0  0  0  0  0  0  0  0  0  0
  144.6331   76.2316  219.0924 H   0  0  0  0  0  0  0  0  0  0  0  0
  142.9053   78.3411  219.0178 H   0  0  0  0  0  0  0  0  0  0  0  0
  142.7140   77.1880  217.7182 H   0  0  0  0  0  0  0  0  0  0  0  0
  140.9651   77.6906  220.0716 H   0  0  0  0  0  0  0  0  0  0  0  0
  140.5710   76.7622  218.6168 H   0  0  0  0  0  0  0  0  0  0  0  0
  138.6828   74.7642  220.9610 H   0  0  0  0  0  0  0  0  0  0  0  0
  139.8562   73.5911  220.2361 H   0  0  0  0  0  0  0  0  0  0  0  0
  138.9460   73.7270  223.0960 H   0  0  0  0  0  0  0  0  0  0  0  0
  139.2083   69.8116  222.6705 H   0  0  0  0  0  0  0  0  0  0  0  0
  138.9885   68.4605  224.7545 H   0  0  0  0  0  0  0  0  0  0  0  0
  139.3988   68.2693  227.1080 H   0  0  0  0  0  0  0  0  0  0  0  0
  140.3049   69.1883  229.2227 H   0  0  0  0  0  0  0  0  0  0  0  0
  141.4307   71.4249  229.2780 H   0  0  0  0  0  0  0  0  0  0  0  0
  141.5933   72.6841  227.1307 H   0  0  0  0  0  0  0  0  0  0  0  0
  1  2  3  0
  2  3  1  0
  3  4  1  0
  4  5  1  0
  5  6  1  0
  6  7  1  0
  7  8  1  0
  8  9  2  0
  8 10  1  0
 10 11  1  0
 11 12  1  0
 12 13  2  0
 12 14  1  0
 14 15  2  0
 15 16  1  0
 16 17  2  0
 17 18  1  0
 18 19  2  0
 19 20  1  0
 20 21  2  0
 21 22  1  0
 22 23  2  0
  7  3  1  0
 23 14  1  0
 22 17  1  0
  3 24  1  6
  4 25  1  0
  4 26  1  0
  5 27  1  0
  5 28  1  0
  6 29  1  0
  6 30  1  0
 10 31  1  0
 10 32  1  0
 11 33  1  0
 15 34  1  0
 16 35  1  0
 18 36  1  0
 19 37  1  0
 20 38  1  0
 21 39  1  0
M  END
>  <smiles>  (20) 
N#C[C@@H]1CCCN1C(=O)CNC(=O)c1ccc2ccccc2n1

>  <score_type>  (20) 
oracle

>  <origin>  (20) 
autodockgpu

>  <m_score__min__energy>  (20) 
-7.3799999999999999

>  <m_primary>  (20) 
energy

>  <rmsd>  (20) 
2.258623901251965

>  <m_score__min__rmsd>  (20) 
2.258623901251965

>  <meeko>  (20) 
{"free_energy": -7.03, "intermolecular_energy": -8.53, "internal_energy": -1.19, "cluster_size": 9, "cluster_id": 2, "rank_in_cluster": 1}

>  <energy>  (20) 
-7.19

>  <cluster_rmsd>  (20) 
1.44

>  <cluster>  (20) 
1

$$$$

     RDKit          3D

 39 41  0  0  0  0  0  0  0  0999 V2000
  141.0660   71.6300  228.3560 N   0  0  0  0  0  0  0  0  0  0  0  0
  140.5070   70.7840  227.8440 C   0  0  0  0  0  0  0  0  0  0  0  0
  139.8240   69.7120  227.1840 C   0  0  2  0  0  0  0  0  0  0  0  0
  140.5610   68.3730  227.3410 C   0  0  0  0  0  0  0  0  0  0  0  0
  139.6380   67.5160  226.4660 C   0  0  0  0  0  0  0  0  0  0  0  0
  139.2990   68.4530  225.3280 C   0  0  0  0  0  0  0  0  0  0  0  0
  139.7690   69.7850  225.7500 N   0  0  0  0  0  0  0  0  0  0  0  0
  140.0540   70.8000  224.8230 C   0  0  0  0  0  0  0  0  0  0  0  0
  141.1010   71.4960  225.0440 O   0  0  0  0  0  0  0  0  0  0  0  0
  139.2730   71.1380  223.6330 C   0  0  0  0  0  0  0  0  0  0  0  0
  139.7150   72.4110  223.0440 N   0  0  0  0  0  0  0  0  0  0  0  0
  140.6850   72.4190  221.9990 C   0  0  0  0  0  0  0  0  0  0  0  0
  141.1810   71.3510  221.5570 O   0  0  0  0  0  0  0  0  0  0  0  0
  141.0750   73.7220  221.4650 C   0  0  0  0  0  0  0  0  0  0  0  0
  141.9130   73.8010  220.3610 C   0  0  0  0  0  0  0  0  0  0  0  0
  142.3000   75.0210  219.8320 C   0  0  0  0  0  0  0  0  0  0  0  0
  141.8210   76.1620  220.4460 C   0  0  0  0  0  0  0  0  0  0  0  0
  142.1800   77.3970  219.9530 C   0  0  0  0  0  0  0  0  0  0  0  0
  141.7050   78.5580  220.5610 C   0  0  0  0  0  0  0  0  0  0  0  0
  140.8660   78.5120  221.6650 C   0  0  0  0  0  0  0  0  0  0  0  0
  140.5320   77.2470  222.1240 C   0  0  0  0  0  0  0  0  0  0  0  0
  140.9910   76.0920  221.5390 C   0  0  0  0  0  0  0  0  0  0  0  0
  140.6570   74.8850  221.9980 N   0  0  0  0  0  0  0  0  0  0  0  0
  138.8324   69.7899  227.6537 H   0  0  0  0  0  0  0  0  0  0  0  0
  141.5875   68.4141  226.9479 H   0  0  0  0  0  0  0  0  0  0  0  0
  140.7096   68.0224  228.3730 H   0  0  0  0  0  0  0  0  0  0  0  0
  140.1583   66.6186  226.1000 H   0  0  0  0  0  0  0  0  0  0  0  0
  138.7537   67.1392  227.0008 H   0  0  0  0  0  0  0  0  0  0  0  0
  139.8132   68.1394  224.4076 H   0  0  0  0  0  0  0  0  0  0  0  0
  138.2203   68.4541  225.1125 H   0  0  0  0  0  0  0  0  0  0  0  0
  139.3927   70.3382  222.8874 H   0  0  0  0  0  0  0  0  0  0  0  0
  138.2187   71.2415  223.9291 H   0  0  0  0  0  0  0  0  0  0  0  0
  139.2980   73.3100  223.4150 H   0  0  0  0  0  0  0  0  0  0  0  0
  142.2779   72.8734  219.8958 H   0  0  0  0  0  0  0  0  0  0  0  0
  142.9634   75.0792  218.9565 H   0  0  0  0  0  0  0  0  0  0  0  0
  142.8427   77.4673  219.0779 H   0  0  0  0  0  0  0  0  0  0  0  0
  142.0031   79.5359  220.1550 H   0  0  0  0  0  0  0  0  0  0  0  0
  140.4880   79.4253  222.1477 H   0  0  0  0  0  0  0  0  0  0  0  0
  139.8684   77.1645  222.9974 H   0  0  0  0  0  0  0  0  0  0  0  0
  1  2  3  0
  2  3  1  0
  3  4  1  0
  4  5  1  0
  5  6  1  0
  6  7  1  0
  7  8  1  0
  8  9  2  0
  8 10  1  0
 10 11  1  0
 11 12  1  0
 12 13  2  0
 12 14  1  0
 14 15  2  0
 15 16  1  0
 16 17  2  0
 17 18  1  0
 18 19  2  0
 19 20  1  0
 20 21  2  0
 21 22  1  0
 22 23  2  0
  7  3  1  0
 23 14  1  0
 22 17  1  0
  3 24  1  1
  4 25  1  0
  4 26  1  0
  5 27  1  0
  5 28  1  0
  6 29  1  0
  6 30  1  0
 10 31  1  0
 10 32  1  0
 11 33  1  0
 15 34  1  0
 16 35  1  0
 18 36  1  0
 19 37  1  0
 20 38  1  0
 21 39  1  0
M  END
>  <smiles>  (21) 
N#C[C@@H]1CCCN1C(=O)CNC(=O)c1ccc2ccccc2n1

>  <score_type>  (21) 
oracle

>  <origin>  (21) 
autodockgpu

>  <m_score__min__energy>  (21) 
-7.3799999999999999

>  <m_primary>  (21) 
energy

>  <rmsd>  (21) 
8.705959972785811

>  <m_score__min__rmsd>  (21) 
8.705959972785811

>  <meeko>  (21) 
{"free_energy": -7.18, "intermolecular_energy": -8.68, "internal_energy": -1.19, "cluster_size": 28, "cluster_id": 1, "rank_in_cluster": 21}

>  <energy>  (21) 
-7.18

>  <cluster_rmsd>  (21) 
1.44

>  <cluster>  (21) 
1

$$$$

     RDKit          3D

 39 41  0  0  0  0  0  0  0  0999 V2000
  143.8830   73.1350  220.8220 N   0  0  0  0  0  0  0  0  0  0  0  0
  143.4010   74.0190  220.2970 C   0  0  0  0  0  0  0  0  0  0  0  0
  142.7900   75.1190  219.6130 C   0  0  2  0  0  0  0  0  0  0  0  0
  143.6470   76.3920  219.6830 C   0  0  0  0  0  0  0  0  0  0  0  0
  142.6810   77.3420  218.9640 C   0  0  0  0  0  0  0  0  0  0  0  0
  141.3330   76.8980  219.4880 C   0  0  0  0  0  0  0  0  0  0  0  0
  141.5720   75.6220  220.1850 N   0  0  0  0  0  0  0  0  0  0  0  0
  140.6970   75.1390  221.1720 C   0  0  0  0  0  0  0  0  0  0  0  0
  140.7020   75.7550  222.2890 O   0  0  0  0  0  0  0  0  0  0  0  0
  139.7820   74.0040  221.0450 C   0  0  0  0  0  0  0  0  0  0  0  0
  139.7190   73.2240  222.2910 N   0  0  0  0  0  0  0  0  0  0  0  0
  140.2350   71.8960  222.3330 C   0  0  0  0  0  0  0  0  0  0  0  0
  140.7520   71.3620  221.3170 O   0  0  0  0  0  0  0  0  0  0  0  0
  140.1360   71.1840  223.6050 C   0  0  0  0  0  0  0  0  0  0  0  0
  139.5280   69.9380  223.6620 C   0  0  0  0  0  0  0  0  0  0  0  0
  139.4200   69.2390  224.8520 C   0  0  0  0  0  0  0  0  0  0  0  0
  139.9410   69.8300  225.9870 C   0  0  0  0  0  0  0  0  0  0  0  0
  139.8570   69.1700  227.1940 C   0  0  0  0  0  0  0  0  0  0  0  0
  140.3780   69.7530  228.3470 C   0  0  0  0  0  0  0  0  0  0  0  0
  140.9920   70.9970  228.3230 C   0  0  0  0  0  0  0  0  0  0  0  0
  141.0540   71.6220  227.0860 C   0  0  0  0  0  0  0  0  0  0  0  0
  140.5460   71.0630  225.9380 C   0  0  0  0  0  0  0  0  0  0  0  0
  140.6160   71.6830  224.7590 N   0  0  0  0  0  0  0  0  0  0  0  0
  142.6423   74.6751  218.6174 H   0  0  0  0  0  0  0  0  0  0  0  0
  143.8443   76.7046  220.7190 H   0  0  0  0  0  0  0  0  0  0  0  0
  144.6574   76.3170  219.2546 H   0  0  0  0  0  0  0  0  0  0  0  0
  142.8844   78.3903  219.2281 H   0  0  0  0  0  0  0  0  0  0  0  0
  142.7603   77.3003  217.8677 H   0  0  0  0  0  0  0  0  0  0  0  0
  140.9285   77.6456  220.1862 H   0  0  0  0  0  0  0  0  0  0  0  0
  140.6009   76.7836  218.6750 H   0  0  0  0  0  0  0  0  0  0  0  0
  138.7761   74.3800  220.8067 H   0  0  0  0  0  0  0  0  0  0  0  0
  140.1530   73.3478  220.2439 H   0  0  0  0  0  0  0  0  0  0  0  0
  139.2850   73.6730  223.1450 H   0  0  0  0  0  0  0  0  0  0  0  0
  139.1224   69.4954  222.7402 H   0  0  0  0  0  0  0  0  0  0  0  0
  138.9379   68.2511  224.8924 H   0  0  0  0  0  0  0  0  0  0  0  0
  139.3778   68.1813  227.2470 H   0  0  0  0  0  0  0  0  0  0  0  0
  140.3005   69.2126  229.3020 H   0  0  0  0  0  0  0  0  0  0  0  0
  141.4052   71.4603  229.2311 H   0  0  0  0  0  0  0  0  0  0  0  0
  141.5318   72.6107  227.0211 H   0  0  0  0  0  0  0  0  0  0  0  0
  1  2  3  0
  2  3  1  0
  3  4  1  0
  4  5  1  0
  5  6  1  0
  6  7  1  0
  7  8  1  0
  8  9  2  0
  8 10  1  0
 10 11  1  0
 11 12  1  0
 12 13  2  0
 12 14  1  0
 14 15  2  0
 15 16  1  0
 16 17  2  0
 17 18  1  0
 18 19  2  0
 19 20  1  0
 20 21  2  0
 21 22  1  0
 22 23  2  0
  7  3  1  0
 23 14  1  0
 22 17  1  0
  3 24  1  6
  4 25  1  0
  4 26  1  0
  5 27  1  0
  5 28  1  0
  6 29  1  0
  6 30  1  0
 10 31  1  0
 10 32  1  0
 11 33  1  0
 15 34  1  0
 16 35  1  0
 18 36  1  0
 19 37  1  0
 20 38  1  0
 21 39  1  0
M  END
>  <smiles>  (22) 
N#C[C@@H]1CCCN1C(=O)CNC(=O)c1ccc2ccccc2n1

>  <score_type>  (22) 
oracle

>  <origin>  (22) 
autodockgpu

>  <m_score__min__energy>  (22) 
-7.3799999999999999

>  <m_primary>  (22) 
energy

>  <rmsd>  (22) 
2.24230588334355

>  <m_score__min__rmsd>  (22) 
2.24230588334355

>  <meeko>  (22) 
{"free_energy": -6.98, "intermolecular_energy": -8.47, "internal_energy": -1.28, "cluster_size": 9, "cluster_id": 2, "rank_in_cluster": 2}

>  <energy>  (22) 
-7.17

>  <cluster_rmsd>  (22) 
1.51

>  <cluster>  (22) 
1

$$$$

     RDKit          3D

 39 41  0  0  0  0  0  0  0  0999 V2000
  141.1230   71.7830  228.5030 N   0  0  0  0  0  0  0  0  0  0  0  0
  140.6120   70.9330  227.9500 C   0  0  0  0  0  0  0  0  0  0  0  0
  139.9430   69.8690  227.2630 C   0  0  2  0  0  0  0  0  0  0  0  0
  140.6940   68.5350  227.3940 C   0  0  0  0  0  0  0  0  0  0  0  0
  139.7840   67.6870  226.4950 C   0  0  0  0  0  0  0  0  0  0  0  0
  139.4420   68.6470  225.3760 C   0  0  0  0  0  0  0  0  0  0  0  0
  139.8950   69.9730  225.8310 N   0  0  0  0  0  0  0  0  0  0  0  0
  140.1730   71.0130  224.9280 C   0  0  0  0  0  0  0  0  0  0  0  0
  141.0230   71.8850  225.3090 O   0  0  0  0  0  0  0  0  0  0  0  0
  139.5900   71.1920  223.5990 C   0  0  0  0  0  0  0  0  0  0  0  0
  139.9580   72.4950  223.0230 N   0  0  0  0  0  0  0  0  0  0  0  0
  140.8470   72.5620  221.9110 C   0  0  0  0  0  0  0  0  0  0  0  0
  141.3340   71.5210  221.3980 O   0  0  0  0  0  0  0  0  0  0  0  0
  141.1660   73.8900  221.3940 C   0  0  0  0  0  0  0  0  0  0  0  0
  141.9420   74.0270  220.2520 C   0  0  0  0  0  0  0  0  0  0  0  0
  142.2610   75.2720  219.7370 C   0  0  0  0  0  0  0  0  0  0  0  0
  141.7780   76.3800  220.4070 C   0  0  0  0  0  0  0  0  0  0  0  0
  142.0700   77.6400  219.9310 C   0  0  0  0  0  0  0  0  0  0  0  0
  141.5890   78.7670  220.5950 C   0  0  0  0  0  0  0  0  0  0  0  0
  140.8110   78.6640  221.7380 C   0  0  0  0  0  0  0  0  0  0  0  0
  140.5430   77.3760  222.1790 C   0  0  0  0  0  0  0  0  0  0  0  0
  141.0080   76.2530  221.5380 C   0  0  0  0  0  0  0  0  0  0  0  0
  140.7380   75.0240  221.9800 N   0  0  0  0  0  0  0  0  0  0  0  0
  138.9481   69.9262  227.7288 H   0  0  0  0  0  0  0  0  0  0  0  0
  141.7219   68.5960  227.0070 H   0  0  0  0  0  0  0  0  0  0  0  0
  140.8416   68.1632  228.4187 H   0  0  0  0  0  0  0  0  0  0  0  0
  140.3154   66.8033  226.1120 H   0  0  0  0  0  0  0  0  0  0  0  0
  138.9010   67.2887  227.0161 H   0  0  0  0  0  0  0  0  0  0  0  0
  139.9652   68.3599  224.4520 H   0  0  0  0  0  0  0  0  0  0  0  0
  138.3647   68.6419  225.1538 H   0  0  0  0  0  0  0  0  0  0  0  0
  139.9546   70.3923  222.9375 H   0  0  0  0  0  0  0  0  0  0  0  0
  138.4948   71.1516  223.6928 H   0  0  0  0  0  0  0  0  0  0  0  0
  139.5480   73.3700  223.4540 H   0  0  0  0  0  0  0  0  0  0  0  0
  142.3127   73.1248  219.7435 H   0  0  0  0  0  0  0  0  0  0  0  0
  142.8749   75.3752  218.8301 H   0  0  0  0  0  0  0  0  0  0  0  0
  142.6837   77.7563  219.0255 H   0  0  0  0  0  0  0  0  0  0  0  0
  141.8331   79.7649  220.2017 H   0  0  0  0  0  0  0  0  0  0  0  0
  140.4287   79.5511  222.2642 H   0  0  0  0  0  0  0  0  0  0  0  0
  139.9301   77.2480  223.0834 H   0  0  0  0  0  0  0  0  0  0  0  0
  1  2  3  0
  2  3  1  0
  3  4  1  0
  4  5  1  0
  5  6  1  0
  6  7  1  0
  7  8  1  0
  8  9  2  0
  8 10  1  0
 10 11  1  0
 11 12  1  0
 12 13  2  0
 12 14  1  0
 14 15  2  0
 15 16  1  0
 16 17  2  0
 17 18  1  0
 18 19  2  0
 19 20  1  0
 20 21  2  0
 21 22  1  0
 22 23  2  0
  7  3  1  0
 23 14  1  0
 22 17  1  0
  3 24  1  1
  4 25  1  0
  4 26  1  0
  5 27  1  0
  5 28  1  0
  6 29  1  0
  6 30  1  0
 10 31  1  0
 10 32  1  0
 11 33  1  0
 15 34  1  0
 16 35  1  0
 18 36  1  0
 19 37  1  0
 20 38  1  0
 21 39  1  0
M  END
>  <smiles>  (23) 
N#C[C@@H]1CCCN1C(=O)CNC(=O)c1ccc2ccccc2n1

>  <score_type>  (23) 
oracle

>  <origin>  (23) 
autodockgpu

>  <m_score__min__energy>  (23) 
-7.3799999999999999

>  <m_primary>  (23) 
energy

>  <rmsd>  (23) 
8.740109413714448

>  <m_score__min__rmsd>  (23) 
8.740109413714448

>  <meeko>  (23) 
{"free_energy": -7.19, "intermolecular_energy": -8.68, "internal_energy": -1.19, "cluster_size": 28, "cluster_id": 1, "rank_in_cluster": 20}

>  <energy>  (23) 
-7.17

>  <cluster_rmsd>  (23) 
1.45

>  <cluster>  (23) 
1

$$$$

     RDKit          3D

 39 41  0  0  0  0  0  0  0  0999 V2000
  141.1640   78.9730  223.8330 N   0  0  0  0  0  0  0  0  0  0  0  0
  141.4540   78.6710  222.7780 C   0  0  0  0  0  0  0  0  0  0  0  0
  141.8220   78.2650  221.4540 C   0  0  2  0  0  0  0  0  0  0  0  0
  141.2890   79.2310  220.3850 C   0  0  0  0  0  0  0  0  0  0  0  0
  141.7670   78.4640  219.1450 C   0  0  0  0  0  0  0  0  0  0  0  0
  141.5270   77.0220  219.5380 C   0  0  0  0  0  0  0  0  0  0  0  0
  141.2350   77.0420  220.9820 N   0  0  0  0  0  0  0  0  0  0  0  0
  140.5260   76.0050  221.6110 C   0  0  0  0  0  0  0  0  0  0  0  0
  139.8520   76.3230  222.6470 O   0  0  0  0  0  0  0  0  0  0  0  0
  140.4810   74.6030  221.1950 C   0  0  0  0  0  0  0  0  0  0  0  0
  140.1730   73.7180  222.3280 N   0  0  0  0  0  0  0  0  0  0  0  0
  140.6790   72.3850  222.3560 C   0  0  0  0  0  0  0  0  0  0  0  0
  141.3940   71.9370  221.4220 O   0  0  0  0  0  0  0  0  0  0  0  0
  140.3300   71.5650  223.5130 C   0  0  0  0  0  0  0  0  0  0  0  0
  139.5850   70.4060  223.3490 C   0  0  0  0  0  0  0  0  0  0  0  0
  139.2400   69.6070  224.4260 C   0  0  0  0  0  0  0  0  0  0  0  0
  139.6650   70.0090  225.6780 C   0  0  0  0  0  0  0  0  0  0  0  0
  139.3450   69.2460  226.7790 C   0  0  0  0  0  0  0  0  0  0  0  0
  139.7660   69.6380  228.0480 C   0  0  0  0  0  0  0  0  0  0  0  0
  140.5130   70.7900  228.2460 C   0  0  0  0  0  0  0  0  0  0  0  0
  140.8110   71.5250  227.1080 C   0  0  0  0  0  0  0  0  0  0  0  0
  140.4040   71.1560  225.8490 C   0  0  0  0  0  0  0  0  0  0  0  0
  140.7020   71.8780  224.7690 N   0  0  0  0  0  0  0  0  0  0  0  0
  142.9147   78.1995  221.5624 H   0  0  0  0  0  0  0  0  0  0  0  0
  140.1937   79.3266  220.4190 H   0  0  0  0  0  0  0  0  0  0  0  0
  141.6269   80.2747  220.4665 H   0  0  0  0  0  0  0  0  0  0  0  0
  141.1779   78.7372  218.2572 H   0  0  0  0  0  0  0  0  0  0  0  0
  142.8118   78.6763  218.8742 H   0  0  0  0  0  0  0  0  0  0  0  0
  140.6730   76.6102  218.9803 H   0  0  0  0  0  0  0  0  0  0  0  0
  142.3982   76.3902  219.3101 H   0  0  0  0  0  0  0  0  0  0  0  0
  139.7045   74.4826  220.4252 H   0  0  0  0  0  0  0  0  0  0  0  0
  141.4692   74.3272  220.7983 H   0  0  0  0  0  0  0  0  0  0  0  0
  139.5720   74.0940  223.1130 H   0  0  0  0  0  0  0  0  0  0  0  0
  139.2606   70.1149  222.3390 H   0  0  0  0  0  0  0  0  0  0  0  0
  138.6507   68.6882  224.2903 H   0  0  0  0  0  0  0  0  0  0  0  0
  138.7558   68.3252  226.6563 H   0  0  0  0  0  0  0  0  0  0  0  0
  139.4989   69.0174  228.9161 H   0  0  0  0  0  0  0  0  0  0  0  0
  140.8490   71.1020  229.2459 H   0  0  0  0  0  0  0  0  0  0  0  0
  141.4010   72.4467  227.2190 H   0  0  0  0  0  0  0  0  0  0  0  0
  1  2  3  0
  2  3  1  0
  3  4  1  0
  4  5  1  0
  5  6  1  0
  6  7  1  0
  7  8  1  0
  8  9  2  0
  8 10  1  0
 10 11  1  0
 11 12  1  0
 12 13  2  0
 12 14  1  0
 14 15  2  0
 15 16  1  0
 16 17  2  0
 17 18  1  0
 18 19  2  0
 19 20  1  0
 20 21  2  0
 21 22  1  0
 22 23  2  0
  7  3  1  0
 23 14  1  0
 22 17  1  0
  3 24  1  1
  4 25  1  0
  4 26  1  0
  5 27  1  0
  5 28  1  0
  6 29  1  0
  6 30  1  0
 10 31  1  0
 10 32  1  0
 11 33  1  0
 15 34  1  0
 16 35  1  0
 18 36  1  0
 19 37  1  0
 20 38  1  0
 21 39  1  0
M  END
>  <smiles>  (24) 
N#C[C@@H]1CCCN1C(=O)CNC(=O)c1ccc2ccccc2n1

>  <score_type>  (24) 
oracle

>  <origin>  (24) 
autodockgpu

>  <m_score__min__energy>  (24) 
-7.3799999999999999

>  <m_primary>  (24) 
energy

>  <rmsd>  (24) 
2.2317083488494442

>  <m_score__min__rmsd>  (24) 
2.2317083488494442

>  <meeko>  (24) 
{"free_energy": -6.95, "intermolecular_energy": -8.44, "internal_energy": -1.32, "cluster_size": 9, "cluster_id": 2, "rank_in_cluster": 3}

>  <energy>  (24) 
-7.16

>  <cluster_rmsd>  (24) 
1.49

>  <cluster>  (24) 
1

$$$$

     RDKit          3D

 39 41  0  0  0  0  0  0  0  0999 V2000
  139.1890   67.3910  226.0390 N   0  0  0  0  0  0  0  0  0  0  0  0
  139.7690   68.3480  226.2310 C   0  0  0  0  0  0  0  0  0  0  0  0
  140.5100   69.5450  226.4960 C   0  0  2  0  0  0  0  0  0  0  0  0
  140.1750   70.1400  227.8720 C   0  0  0  0  0  0  0  0  0  0  0  0
  141.0390   71.4040  227.7760 C   0  0  0  0  0  0  0  0  0  0  0  0
  140.8600   71.8150  226.3320 C   0  0  0  0  0  0  0  0  0  0  0  0
  140.2010   70.6770  225.6670 N   0  0  0  0  0  0  0  0  0  0  0  0
  139.4680   70.8320  224.4800 C   0  0  0  0  0  0  0  0  0  0  0  0
  138.1970   70.8110  224.5880 O   0  0  0  0  0  0  0  0  0  0  0  0
  140.0160   71.0170  223.1350 C   0  0  0  0  0  0  0  0  0  0  0  0
  140.1850   72.4430  222.8170 N   0  0  0  0  0  0  0  0  0  0  0  0
  141.0220   72.8410  221.7330 C   0  0  0  0  0  0  0  0  0  0  0  0
  141.6300   71.9930  221.0290 O   0  0  0  0  0  0  0  0  0  0  0  0
  141.1420   74.2750  221.4780 C   0  0  0  0  0  0  0  0  0  0  0  0
  141.9970   74.7380  220.4880 C   0  0  0  0  0  0  0  0  0  0  0  0
  142.1320   76.0900  220.2220 C   0  0  0  0  0  0  0  0  0  0  0  0
  141.3810   76.9660  220.9830 C   0  0  0  0  0  0  0  0  0  0  0  0
  141.4830   78.3210  220.7530 C   0  0  0  0  0  0  0  0  0  0  0  0
  140.7320   79.2170  221.5120 C   0  0  0  0  0  0  0  0  0  0  0  0
  139.8680   78.7860  222.5080 C   0  0  0  0  0  0  0  0  0  0  0  0
  139.7990   77.4140  222.7020 C   0  0  0  0  0  0  0  0  0  0  0  0
  140.5310   76.5150  221.9640 C   0  0  0  0  0  0  0  0  0  0  0  0
  140.4490   75.2000  222.1690 N   0  0  0  0  0  0  0  0  0  0  0  0
  141.5368   69.1780  226.3515 H   0  0  0  0  0  0  0  0  0  0  0  0
  139.1051   70.3738  227.9753 H   0  0  0  0  0  0  0  0  0  0  0  0
  140.3667   69.4896  228.7381 H   0  0  0  0  0  0  0  0  0  0  0  0
  140.6766   72.1859  228.4596 H   0  0  0  0  0  0  0  0  0  0  0  0
  142.0895   71.2391  228.0576 H   0  0  0  0  0  0  0  0  0  0  0  0
  140.2300   72.7142  226.2654 H   0  0  0  0  0  0  0  0  0  0  0  0
  141.8230   72.0570  225.8586 H   0  0  0  0  0  0  0  0  0  0  0  0
  140.9947   70.5184  223.0754 H   0  0  0  0  0  0  0  0  0  0  0  0
  139.3119   70.5814  222.4108 H   0  0  0  0  0  0  0  0  0  0  0  0
  139.6740   73.1560  223.4090 H   0  0  0  0  0  0  0  0  0  0  0  0
  142.5811   74.0140  219.9009 H   0  0  0  0  0  0  0  0  0  0  0  0
  142.8104   76.4528  219.4358 H   0  0  0  0  0  0  0  0  0  0  0  0
  142.1579   78.6959  219.9695 H   0  0  0  0  0  0  0  0  0  0  0  0
  140.8270   80.2952  221.3158 H   0  0  0  0  0  0  0  0  0  0  0  0
  139.2730   79.4901  223.1082 H   0  0  0  0  0  0  0  0  0  0  0  0
  139.1272   77.0278  223.4827 H   0  0  0  0  0  0  0  0  0  0  0  0
  1  2  3  0
  2  3  1  0
  3  4  1  0
  4  5  1  0
  5  6  1  0
  6  7  1  0
  7  8  1  0
  8  9  2  0
  8 10  1  0
 10 11  1  0
 11 12  1  0
 12 13  2  0
 12 14  1  0
 14 15  2  0
 15 16  1  0
 16 17  2  0
 17 18  1  0
 18 19  2  0
 19 20  1  0
 20 21  2  0
 21 22  1  0
 22 23  2  0
  7  3  1  0
 23 14  1  0
 22 17  1  0
  3 24  1  1
  4 25  1  0
  4 26  1  0
  5 27  1  0
  5 28  1  0
  6 29  1  0
  6 30  1  0
 10 31  1  0
 10 32  1  0
 11 33  1  0
 15 34  1  0
 16 35  1  0
 18 36  1  0
 19 37  1  0
 20 38  1  0
 21 39  1  0
M  END
>  <smiles>  (25) 
N#C[C@@H]1CCCN1C(=O)CNC(=O)c1ccc2ccccc2n1

>  <score_type>  (25) 
oracle

>  <origin>  (25) 
autodockgpu

>  <m_score__min__energy>  (25) 
-7.3799999999999999

>  <m_primary>  (25) 
energy

>  <rmsd>  (25) 
8.582772357481785

>  <m_score__min__rmsd>  (25) 
8.582772357481785

>  <meeko>  (25) 
{"free_energy": -7.36, "intermolecular_energy": -8.85, "internal_energy": -1.21, "cluster_size": 28, "cluster_id": 1, "rank_in_cluster": 4}

>  <energy>  (25) 
-7.13

>  <cluster_rmsd>  (25) 
1.41

>  <cluster>  (25) 
1

$$$$

     RDKit          3D

 39 41  0  0  0  0  0  0  0  0999 V2000
  141.2180   79.0230  223.7680 N   0  0  0  0  0  0  0  0  0  0  0  0
  141.4440   78.6790  222.7090 C   0  0  0  0  0  0  0  0  0  0  0  0
  141.7450   78.2650  221.3720 C   0  0  2  0  0  0  0  0  0  0  0  0
  141.1410   79.2130  220.3240 C   0  0  0  0  0  0  0  0  0  0  0  0
  141.5630   78.4400  219.0670 C   0  0  0  0  0  0  0  0  0  0  0  0
  141.3650   76.9990  219.4850 C   0  0  0  0  0  0  0  0  0  0  0  0
  141.1510   77.0290  220.9430 N   0  0  0  0  0  0  0  0  0  0  0  0
  140.4920   75.9890  221.6190 C   0  0  0  0  0  0  0  0  0  0  0  0
  139.9060   76.3000  222.7090 O   0  0  0  0  0  0  0  0  0  0  0  0
  140.4090   74.5910  221.1970 C   0  0  0  0  0  0  0  0  0  0  0  0
  140.1040   73.7060  222.3310 N   0  0  0  0  0  0  0  0  0  0  0  0
  140.6370   72.3840  222.3730 C   0  0  0  0  0  0  0  0  0  0  0  0
  141.3740   71.9450  221.4520 O   0  0  0  0  0  0  0  0  0  0  0  0
  140.2900   71.5640  223.5310 C   0  0  0  0  0  0  0  0  0  0  0  0
  139.5440   70.4050  223.3670 C   0  0  0  0  0  0  0  0  0  0  0  0
  139.1990   69.6060  224.4440 C   0  0  0  0  0  0  0  0  0  0  0  0
  139.6260   70.0070  225.6960 C   0  0  0  0  0  0  0  0  0  0  0  0
  139.3070   69.2440  226.7970 C   0  0  0  0  0  0  0  0  0  0  0  0
  139.7310   69.6350  228.0660 C   0  0  0  0  0  0  0  0  0  0  0  0
  140.4780   70.7870  228.2630 C   0  0  0  0  0  0  0  0  0  0  0  0
  140.7750   71.5220  227.1250 C   0  0  0  0  0  0  0  0  0  0  0  0
  140.3660   71.1530  225.8660 C   0  0  0  0  0  0  0  0  0  0  0  0
  140.6630   71.8760  224.7860 N   0  0  0  0  0  0  0  0  0  0  0  0
  142.8427   78.2155  221.4223 H   0  0  0  0  0  0  0  0  0  0  0  0
  140.0478   79.2935  220.4161 H   0  0  0  0  0  0  0  0  0  0  0  0
  141.4674   80.2621  220.3775 H   0  0  0  0  0  0  0  0  0  0  0  0
  140.9235   78.6964  218.2095 H   0  0  0  0  0  0  0  0  0  0  0  0
  142.5888   78.6639  218.7390 H   0  0  0  0  0  0  0  0  0  0  0  0
  140.4880   76.5702  218.9780 H   0  0  0  0  0  0  0  0  0  0  0  0
  142.2314   76.3769  219.2159 H   0  0  0  0  0  0  0  0  0  0  0  0
  139.6154   74.4916  220.4418 H   0  0  0  0  0  0  0  0  0  0  0  0
  141.3834   74.2966  220.7801 H   0  0  0  0  0  0  0  0  0  0  0  0
  139.4850   74.0740  223.1060 H   0  0  0  0  0  0  0  0  0  0  0  0
  139.2191   70.1142  222.3571 H   0  0  0  0  0  0  0  0  0  0  0  0
  138.6082   68.6881  224.3085 H   0  0  0  0  0  0  0  0  0  0  0  0
  138.7164   68.3241  226.6749 H   0  0  0  0  0  0  0  0  0  0  0  0
  139.4662   69.0135  228.9341 H   0  0  0  0  0  0  0  0  0  0  0  0
  140.8149   71.0991  229.2626 H   0  0  0  0  0  0  0  0  0  0  0  0
  141.3656   72.4434  227.2353 H   0  0  0  0  0  0  0  0  0  0  0  0
  1  2  3  0
  2  3  1  0
  3  4  1  0
  4  5  1  0
  5  6  1  0
  6  7  1  0
  7  8  1  0
  8  9  2  0
  8 10  1  0
 10 11  1  0
 11 12  1  0
 12 13  2  0
 12 14  1  0
 14 15  2  0
 15 16  1  0
 16 17  2  0
 17 18  1  0
 18 19  2  0
 19 20  1  0
 20 21  2  0
 21 22  1  0
 22 23  2  0
  7  3  1  0
 23 14  1  0
 22 17  1  0
  3 24  1  1
  4 25  1  0
  4 26  1  0
  5 27  1  0
  5 28  1  0
  6 29  1  0
  6 30  1  0
 10 31  1  0
 10 32  1  0
 11 33  1  0
 15 34  1  0
 16 35  1  0
 18 36  1  0
 19 37  1  0
 20 38  1  0
 21 39  1  0
M  END
>  <smiles>  (26) 
N#C[C@@H]1CCCN1C(=O)CNC(=O)c1ccc2ccccc2n1

>  <score_type>  (26) 
oracle

>  <origin>  (26) 
autodockgpu

>  <m_score__min__energy>  (26) 
-7.3799999999999999

>  <m_primary>  (26) 
energy

>  <rmsd>  (26) 
2.1732425821628794

>  <m_score__min__rmsd>  (26) 
2.1732425821628794

>  <meeko>  (26) 
{"free_energy": -6.93, "intermolecular_energy": -8.42, "internal_energy": -1.3, "cluster_size": 9, "cluster_id": 2, "rank_in_cluster": 5}

>  <energy>  (26) 
-7.04

>  <cluster_rmsd>  (26) 
1.43

>  <cluster>  (26) 
1

$$$$

     RDKit          3D

 39 41  0  0  0  0  0  0  0  0999 V2000
  139.1680   67.3790  226.1240 N   0  0  0  0  0  0  0  0  0  0  0  0
  139.7600   68.3440  226.2150 C   0  0  0  0  0  0  0  0  0  0  0  0
  140.4870   69.5710  226.3440 C   0  0  2  0  0  0  0  0  0  0  0  0
  140.3030   70.2080  227.7310 C   0  0  0  0  0  0  0  0  0  0  0  0
  141.1060   71.4920  227.4850 C   0  0  0  0  0  0  0  0  0  0  0  0
  140.7370   71.8430  226.0600 C   0  0  0  0  0  0  0  0  0  0  0  0
  140.0400   70.6620  225.5220 N   0  0  0  0  0  0  0  0  0  0  0  0
  139.1610   70.7500  224.4300 C   0  0  0  0  0  0  0  0  0  0  0  0
  137.9150   70.6810  224.6950 O   0  0  0  0  0  0  0  0  0  0  0  0
  139.5320   70.9170  223.0250 C   0  0  0  0  0  0  0  0  0  0  0  0
  139.7810   72.3290  222.6990 N   0  0  0  0  0  0  0  0  0  0  0  0
  140.8840   72.6900  221.8710 C   0  0  0  0  0  0  0  0  0  0  0  0
  141.6640   71.8200  221.4030 O   0  0  0  0  0  0  0  0  0  0  0  0
  141.0680   74.1120  221.5920 C   0  0  0  0  0  0  0  0  0  0  0  0
  141.9650   74.5210  220.6150 C   0  0  0  0  0  0  0  0  0  0  0  0
  142.1610   75.8610  220.3270 C   0  0  0  0  0  0  0  0  0  0  0  0
  141.4290   76.7810  221.0510 C   0  0  0  0  0  0  0  0  0  0  0  0
  141.5900   78.1260  220.7990 C   0  0  0  0  0  0  0  0  0  0  0  0
  140.8580   79.0660  221.5210 C   0  0  0  0  0  0  0  0  0  0  0  0
  139.9540   78.6900  222.5030 C   0  0  0  0  0  0  0  0  0  0  0  0
  139.8250   77.3260  222.7210 C   0  0  0  0  0  0  0  0  0  0  0  0
  140.5380   76.3840  222.0200 C   0  0  0  0  0  0  0  0  0  0  0  0
  140.3970   75.0780  222.2470 N   0  0  0  0  0  0  0  0  0  0  0  0
  141.4999   69.2293  226.0847 H   0  0  0  0  0  0  0  0  0  0  0  0
  139.2466   70.4143  227.9578 H   0  0  0  0  0  0  0  0  0  0  0  0
  140.6208   69.5969  228.5887 H   0  0  0  0  0  0  0  0  0  0  0  0
  140.8046   72.2886  228.1811 H   0  0  0  0  0  0  0  0  0  0  0  0
  142.1881   71.3681  227.6393 H   0  0  0  0  0  0  0  0  0  0  0  0
  140.0738   72.7204  226.0413 H   0  0  0  0  0  0  0  0  0  0  0  0
  141.6256   72.0950  225.4626 H   0  0  0  0  0  0  0  0  0  0  0  0
  140.4451   70.3373  222.8248 H   0  0  0  0  0  0  0  0  0  0  0  0
  138.6982   70.5603  222.4025 H   0  0  0  0  0  0  0  0  0  0  0  0
  139.1260   73.0600  223.0920 H   0  0  0  0  0  0  0  0  0  0  0  0
  142.5335   73.7628  220.0565 H   0  0  0  0  0  0  0  0  0  0  0  0
  142.8725   76.1804  219.5512 H   0  0  0  0  0  0  0  0  0  0  0  0
  142.2983   78.4584  220.0258 H   0  0  0  0  0  0  0  0  0  0  0  0
  141.0010   80.1353  221.3063 H   0  0  0  0  0  0  0  0  0  0  0  0
  139.3738   79.4291  223.0750 H   0  0  0  0  0  0  0  0  0  0  0  0
  139.1187   76.9827  223.4912 H   0  0  0  0  0  0  0  0  0  0  0  0
  1  2  3  0
  2  3  1  0
  3  4  1  0
  4  5  1  0
  5  6  1  0
  6  7  1  0
  7  8  1  0
  8  9  2  0
  8 10  1  0
 10 11  1  0
 11 12  1  0
 12 13  2  0
 12 14  1  0
 14 15  2  0
 15 16  1  0
 16 17  2  0
 17 18  1  0
 18 19  2  0
 19 20  1  0
 20 21  2  0
 21 22  1  0
 22 23  2  0
  7  3  1  0
 23 14  1  0
 22 17  1  0
  3 24  1  6
  4 25  1  0
  4 26  1  0
  5 27  1  0
  5 28  1  0
  6 29  1  0
  6 30  1  0
 10 31  1  0
 10 32  1  0
 11 33  1  0
 15 34  1  0
 16 35  1  0
 18 36  1  0
 19 37  1  0
 20 38  1  0
 21 39  1  0
M  END
>  <smiles>  (27) 
N#C[C@@H]1CCCN1C(=O)CNC(=O)c1ccc2ccccc2n1

>  <score_type>  (27) 
oracle

>  <origin>  (27) 
autodockgpu

>  <m_score__min__energy>  (27) 
-7.3799999999999999

>  <m_primary>  (27) 
energy

>  <rmsd>  (27) 
8.427765630862151

>  <m_score__min__rmsd>  (27) 
8.427765630862151

>  <meeko>  (27) 
{"free_energy": -7.26, "intermolecular_energy": -8.75, "internal_energy": -1.24, "cluster_size": 28, "cluster_id": 1, "rank_in_cluster": 17}

>  <energy>  (27) 
-6.9

>  <cluster_rmsd>  (27) 
1.41

>  <cluster>  (27) 
1

$$$$

     RDKit          3D

 39 41  0  0  0  0  0  0  0  0999 V2000
  139.2020   67.4150  226.0180 N   0  0  0  0  0  0  0  0  0  0  0  0
  139.7840   68.3650  226.2350 C   0  0  0  0  0  0  0  0  0  0  0  0
  140.5290   69.5520  226.5300 C   0  0  2  0  0  0  0  0  0  0  0  0
  140.1730   70.1300  227.9090 C   0  0  0  0  0  0  0  0  0  0  0  0
  141.0470   71.3890  227.8460 C   0  0  0  0  0  0  0  0  0  0  0  0
  140.8970   71.8230  226.4050 C   0  0  0  0  0  0  0  0  0  0  0  0
  140.2420   70.6980  225.7120 N   0  0  0  0  0  0  0  0  0  0  0  0
  139.5320   70.8760  224.5150 C   0  0  0  0  0  0  0  0  0  0  0  0
  138.2590   70.8940  224.6050 O   0  0  0  0  0  0  0  0  0  0  0  0
  140.1040   71.0440  223.1780 C   0  0  0  0  0  0  0  0  0  0  0  0
  140.2800   72.4650  222.8450 N   0  0  0  0  0  0  0  0  0  0  0  0
  141.0390   72.8440  221.6990 C   0  0  0  0  0  0  0  0  0  0  0  0
  141.5720   71.9830  220.9520 O   0  0  0  0  0  0  0  0  0  0  0  0
  141.1700   74.2750  221.4320 C   0  0  0  0  0  0  0  0  0  0  0  0
  142.0110   74.7220  220.4230 C   0  0  0  0  0  0  0  0  0  0  0  0
  142.1560   76.0710  220.1450 C   0  0  0  0  0  0  0  0  0  0  0  0
  141.4310   76.9600  220.9150 C   0  0  0  0  0  0  0  0  0  0  0  0
  141.5440   78.3120  220.6740 C   0  0  0  0  0  0  0  0  0  0  0  0
  140.8180   79.2220  221.4420 C   0  0  0  0  0  0  0  0  0  0  0  0
  139.9700   78.8070  222.4570 C   0  0  0  0  0  0  0  0  0  0  0  0
  139.8890   77.4370  222.6620 C   0  0  0  0  0  0  0  0  0  0  0  0
  140.5960   76.5250  221.9160 C   0  0  0  0  0  0  0  0  0  0  0  0
  140.5020   75.2120  222.1300 N   0  0  0  0  0  0  0  0  0  0  0  0
  141.5558   69.1800  226.3984 H   0  0  0  0  0  0  0  0  0  0  0  0
  139.1030   70.3697  227.9965 H   0  0  0  0  0  0  0  0  0  0  0  0
  140.3446   69.4662  228.7692 H   0  0  0  0  0  0  0  0  0  0  0  0
  140.6779   72.1635  228.5344 H   0  0  0  0  0  0  0  0  0  0  0  0
  142.0912   71.2120  228.1432 H   0  0  0  0  0  0  0  0  0  0  0  0
  140.2742   72.7274  226.3403 H   0  0  0  0  0  0  0  0  0  0  0  0
  141.8696   72.0660  225.9523 H   0  0  0  0  0  0  0  0  0  0  0  0
  141.0831   70.5440  223.1421 H   0  0  0  0  0  0  0  0  0  0  0  0
  139.4122   70.6000  222.4470 H   0  0  0  0  0  0  0  0  0  0  0  0
  139.8310   73.1900  223.4720 H   0  0  0  0  0  0  0  0  0  0  0  0
  142.5758   73.9877  219.8299 H   0  0  0  0  0  0  0  0  0  0  0  0
  142.8222   76.4209  219.3427 H   0  0  0  0  0  0  0  0  0  0  0  0
  142.2076   78.6740  219.8749 H   0  0  0  0  0  0  0  0  0  0  0  0
  140.9210   80.2978  221.2368 H   0  0  0  0  0  0  0  0  0  0  0  0
  139.3951   79.5217  223.0642 H   0  0  0  0  0  0  0  0  0  0  0  0
  139.2284   77.0638  223.4584 H   0  0  0  0  0  0  0  0  0  0  0  0
  1  2  3  0
  2  3  1  0
  3  4  1  0
  4  5  1  0
  5  6  1  0
  6  7  1  0
  7  8  1  0
  8  9  2  0
  8 10  1  0
 10 11  1  0
 11 12  1  0
 12 13  2  0
 12 14  1  0
 14 15  2  0
 15 16  1  0
 16 17  2  0
 17 18  1  0
 18 19  2  0
 19 20  1  0
 20 21  2  0
 21 22  1  0
 22 23  2  0
  7  3  1  0
 23 14  1  0
 22 17  1  0
  3 24  1  1
  4 25  1  0
  4 26  1  0
  5 27  1  0
  5 28  1  0
  6 29  1  0
  6 30  1  0
 10 31  1  0
 10 32  1  0
 11 33  1  0
 15 34  1  0
 16 35  1  0
 18 36  1  0
 19 37  1  0
 20 38  1  0
 21 39  1  0
M  END
>  <smiles>  (28) 
N#C[C@@H]1CCCN1C(=O)CNC(=O)c1ccc2ccccc2n1

>  <score_type>  (28) 
oracle

>  <origin>  (28) 
autodockgpu

>  <m_score__min__energy>  (28) 
-7.3799999999999999

>  <m_primary>  (28) 
energy

>  <rmsd>  (28) 
8.614853654636919

>  <m_score__min__rmsd>  (28) 
8.614853654636919

>  <meeko>  (28) 
{"free_energy": -7.37, "intermolecular_energy": -8.86, "internal_energy": -1.2, "cluster_size": 28, "cluster_id": 1, "rank_in_cluster": 2}

>  <energy>  (28) 
-6.42

>  <cluster_rmsd>  (28) 
1.23

>  <cluster>  (28) 
1

$$$$

     RDKit          3D

 39 41  0  0  0  0  0  0  0  0999 V2000
  139.1900   67.5710  225.2470 N   0  0  0  0  0  0  0  0  0  0  0  0
  139.7440   68.4480  225.7090 C   0  0  0  0  0  0  0  0  0  0  0  0
  140.4280   69.5710  226.2770 C   0  0  2  0  0  0  0  0  0  0  0  0
  139.8070   70.0120  227.6110 C   0  0  0  0  0  0  0  0  0  0  0  0
  140.6920   71.2390  227.8650 C   0  0  0  0  0  0  0  0  0  0  0  0
  140.8450   71.8270  226.4790 C   0  0  0  0  0  0  0  0  0  0  0  0
  140.3300   70.8060  225.5500 N   0  0  0  0  0  0  0  0  0  0  0  0
  139.8810   71.1340  224.2600 C   0  0  0  0  0  0  0  0  0  0  0  0
  140.6070   71.9430  223.5930 O   0  0  0  0  0  0  0  0  0  0  0  0
  138.6680   70.6400  223.6080 C   0  0  0  0  0  0  0  0  0  0  0  0
  137.4570   71.1240  224.2890 N   0  0  0  0  0  0  0  0  0  0  0  0
  136.3870   70.2260  224.5730 C   0  0  0  0  0  0  0  0  0  0  0  0
  136.4490   69.0110  224.2530 O   0  0  0  0  0  0  0  0  0  0  0  0
  135.2170   70.7800  225.2500 C   0  0  0  0  0  0  0  0  0  0  0  0
  134.2760   69.9350  225.8220 C   0  0  0  0  0  0  0  0  0  0  0  0
  133.1580   70.4290  226.4710 C   0  0  0  0  0  0  0  0  0  0  0  0
  133.0110   71.8020  226.5290 C   0  0  0  0  0  0  0  0  0  0  0  0
  131.9140   72.3390  227.1660 C   0  0  0  0  0  0  0  0  0  0  0  0
  131.7520   73.7220  227.2340 C   0  0  0  0  0  0  0  0  0  0  0  0
  132.6740   74.5930  226.6730 C   0  0  0  0  0  0  0  0  0  0  0  0
  133.7620   74.0060  226.0440 C   0  0  0  0  0  0  0  0  0  0  0  0
  133.9390   72.6460  225.9670 C   0  0  0  0  0  0  0  0  0  0  0  0
  134.9930   72.1030  225.3560 N   0  0  0  0  0  0  0  0  0  0  0  0
  141.4550   69.1788  226.3140 H   0  0  0  0  0  0  0  0  0  0  0  0
  138.7449   70.2788  227.5078 H   0  0  0  0  0  0  0  0  0  0  0  0
  139.7914   69.2552  228.4091 H   0  0  0  0  0  0  0  0  0  0  0  0
  140.2003   71.9494  228.5459 H   0  0  0  0  0  0  0  0  0  0  0  0
  141.6510   70.9953  228.3456 H   0  0  0  0  0  0  0  0  0  0  0  0
  140.2611   72.7550  226.3901 H   0  0  0  0  0  0  0  0  0  0  0  0
  141.8928   72.0810  226.2607 H   0  0  0  0  0  0  0  0  0  0  0  0
  138.6553   70.9884  222.5647 H   0  0  0  0  0  0  0  0  0  0  0  0
  138.6742   69.5409  223.6526 H   0  0  0  0  0  0  0  0  0  0  0  0
  137.4050   72.1460  224.5580 H   0  0  0  0  0  0  0  0  0  0  0  0
  134.4224   68.8467  225.7579 H   0  0  0  0  0  0  0  0  0  0  0  0
  132.4153   69.7552  226.9230 H   0  0  0  0  0  0  0  0  0  0  0  0
  131.1645   71.6754  227.6218 H   0  0  0  0  0  0  0  0  0  0  0  0
  130.8696   74.1332  227.7461 H   0  0  0  0  0  0  0  0  0  0  0  0
  132.5498   75.6848  226.7239 H   0  0  0  0  0  0  0  0  0  0  0  0
  134.5183   74.6600  225.5855 H   0  0  0  0  0  0  0  0  0  0  0  0
  1  2  3  0
  2  3  1  0
  3  4  1  0
  4  5  1  0
  5  6  1  0
  6  7  1  0
  7  8  1  0
  8  9  2  0
  8 10  1  0
 10 11  1  0
 11 12  1  0
 12 13  2  0
 12 14  1  0
 14 15  2  0
 15 16  1  0
 16 17  2  0
 17 18  1  0
 18 19  2  0
 19 20  1  0
 20 21  2  0
 21 22  1  0
 22 23  2  0
  7  3  1  0
 23 14  1  0
 22 17  1  0
  3 24  1  1
  4 25  1  0
  4 26  1  0
  5 27  1  0
  5 28  1  0
  6 29  1  0
  6 30  1  0
 10 31  1  0
 10 32  1  0
 11 33  1  0
 15 34  1  0
 16 35  1  0
 18 36  1  0
 19 37  1  0
 20 38  1  0
 21 39  1  0
M  END
>  <smiles>  (29) 
N#C[C@@H]1CCCN1C(=O)CNC(=O)c1ccc2ccccc2n1

>  <score_type>  (29) 
oracle

>  <origin>  (29) 
autodockgpu

>  <m_score__min__energy>  (29) 
-7.3799999999999999

>  <m_primary>  (29) 
energy

>  <rmsd>  (29) 
7.979440326197324

>  <m_score__min__rmsd>  (29) 
7.979440326197324

>  <meeko>  (29) 
{"free_energy": -6.9, "intermolecular_energy": -8.39, "internal_energy": -1.41, "cluster_size": 13, "cluster_id": 3, "rank_in_cluster": 10}

>  <energy>  (29) 
-7.03

>  <cluster_rmsd>  (29) 
0.0

>  <cluster>  (29) 
2

$$$$

     RDKit          3D

 39 41  0  0  0  0  0  0  0  0999 V2000
  141.0560   71.8790  228.3440 N   0  0  0  0  0  0  0  0  0  0  0  0
  140.5650   70.9570  227.8980 C   0  0  0  0  0  0  0  0  0  0  0  0
  139.9300   69.8090  227.3240 C   0  0  2  0  0  0  0  0  0  0  0  0
  140.6650   68.5060  227.6740 C   0  0  0  0  0  0  0  0  0  0  0  0
  139.8010   67.5440  226.8480 C   0  0  0  0  0  0  0  0  0  0  0  0
  139.5250   68.3440  225.5940 C   0  0  0  0  0  0  0  0  0  0  0  0
  139.9600   69.7210  225.8900 N   0  0  0  0  0  0  0  0  0  0  0  0
  140.2930   70.6300  224.8740 C   0  0  0  0  0  0  0  0  0  0  0  0
  141.4510   71.1620  224.9420 O   0  0  0  0  0  0  0  0  0  0  0  0
  139.4470   71.0260  223.7470 C   0  0  0  0  0  0  0  0  0  0  0  0
  139.8950   72.2980  223.1610 N   0  0  0  0  0  0  0  0  0  0  0  0
  140.6830   72.3030  221.9730 C   0  0  0  0  0  0  0  0  0  0  0  0
  141.0110   71.2320  221.4000 O   0  0  0  0  0  0  0  0  0  0  0  0
  141.0910   73.6050  221.4510 C   0  0  0  0  0  0  0  0  0  0  0  0
  141.9130   73.6840  220.3360 C   0  0  0  0  0  0  0  0  0  0  0  0
  142.3160   74.9030  219.8170 C   0  0  0  0  0  0  0  0  0  0  0  0
  141.8680   76.0440  220.4540 C   0  0  0  0  0  0  0  0  0  0  0  0
  142.2440   77.2800  219.9730 C   0  0  0  0  0  0  0  0  0  0  0  0
  141.8000   78.4400  220.6040 C   0  0  0  0  0  0  0  0  0  0  0  0
  140.9780   78.3950  221.7210 C   0  0  0  0  0  0  0  0  0  0  0  0
  140.6260   77.1300  222.1670 C   0  0  0  0  0  0  0  0  0  0  0  0
  141.0530   75.9750  221.5590 C   0  0  0  0  0  0  0  0  0  0  0  0
  140.7030   74.7690  222.0060 N   0  0  0  0  0  0  0  0  0  0  0  0
  138.9115   69.9253  227.7230 H   0  0  0  0  0  0  0  0  0  0  0  0
  141.7129   68.5162  227.3397 H   0  0  0  0  0  0  0  0  0  0  0  0
  140.7540   68.2752  228.7458 H   0  0  0  0  0  0  0  0  0  0  0  0
  140.3479   66.6182  226.6163 H   0  0  0  0  0  0  0  0  0  0  0  0
  138.8888   67.2176  227.3689 H   0  0  0  0  0  0  0  0  0  0  0  0
  140.0956   67.9362  224.7465 H   0  0  0  0  0  0  0  0  0  0  0  0
  138.4611   68.3070  225.3171 H   0  0  0  0  0  0  0  0  0  0  0  0
  139.4882   70.2426  222.9759 H   0  0  0  0  0  0  0  0  0  0  0  0
  138.4189   71.1575  224.1153 H   0  0  0  0  0  0  0  0  0  0  0  0
  139.6190   73.1990  223.6420 H   0  0  0  0  0  0  0  0  0  0  0  0
  142.2527   72.7561  219.8527 H   0  0  0  0  0  0  0  0  0  0  0  0
  142.9672   74.9605  218.9323 H   0  0  0  0  0  0  0  0  0  0  0  0
  142.8956   77.3505  219.0896 H   0  0  0  0  0  0  0  0  0  0  0  0
  142.1094   79.4177  220.2061 H   0  0  0  0  0  0  0  0  0  0  0  0
  140.6264   79.3085  222.2229 H   0  0  0  0  0  0  0  0  0  0  0  0
  139.9742   77.0478  223.0492 H   0  0  0  0  0  0  0  0  0  0  0  0
  1  2  3  0
  2  3  1  0
  3  4  1  0
  4  5  1  0
  5  6  1  0
  6  7  1  0
  7  8  1  0
  8  9  2  0
  8 10  1  0
 10 11  1  0
 11 12  1  0
 12 13  2  0
 12 14  1  0
 14 15  2  0
 15 16  1  0
 16 17  2  0
 17 18  1  0
 18 19  2  0
 19 20  1  0
 20 21  2  0
 21 22  1  0
 22 23  2  0
  7  3  1  0
 23 14  1  0
 22 17  1  0
  3 24  1  1
  4 25  1  0
  4 26  1  0
  5 27  1  0
  5 28  1  0
  6 29  1  0
  6 30  1  0
 10 31  1  0
 10 32  1  0
 11 33  1  0
 15 34  1  0
 16 35  1  0
 18 36  1  0
 19 37  1  0
 20 38  1  0
 21 39  1  0
M  END
>  <smiles>  (30) 
N#C[C@@H]1CCCN1C(=O)CNC(=O)c1ccc2ccccc2n1

>  <score_type>  (30) 
oracle

>  <origin>  (30) 
autodockgpu

>  <m_score__min__energy>  (30) 
-7.3799999999999999

>  <m_primary>  (30) 
energy

>  <rmsd>  (30) 
8.753859582416911

>  <m_score__min__rmsd>  (30) 
8.753859582416911

>  <meeko>  (30) 
{"free_energy": -7.17, "intermolecular_energy": -8.67, "internal_energy": -1.21, "cluster_size": 28, "cluster_id": 1, "rank_in_cluster": 22}

>  <energy>  (30) 
-6.98

>  <cluster_rmsd>  (30) 
0.22

>  <cluster>  (30) 
2

$$$$

     RDKit          3D

 39 41  0  0  0  0  0  0  0  0999 V2000
  139.1970   67.5610  225.3340 N   0  0  0  0  0  0  0  0  0  0  0  0
  139.7620   68.4600  225.7390 C   0  0  0  0  0  0  0  0  0  0  0  0
  140.4730   69.5820  226.2720 C   0  0  2  0  0  0  0  0  0  0  0  0
  139.8860   70.0540  227.6120 C   0  0  0  0  0  0  0  0  0  0  0  0
  140.7920   71.2740  227.8260 C   0  0  0  0  0  0  0  0  0  0  0  0
  140.9220   71.8360  226.4270 C   0  0  0  0  0  0  0  0  0  0  0  0
  140.3740   70.8070  225.5260 N   0  0  0  0  0  0  0  0  0  0  0  0
  139.9010   71.1190  224.2420 C   0  0  0  0  0  0  0  0  0  0  0  0
  140.6040   71.9360  223.5590 O   0  0  0  0  0  0  0  0  0  0  0  0
  138.6880   70.6000  223.6100 C   0  0  0  0  0  0  0  0  0  0  0  0
  137.4790   71.0830  224.2930 N   0  0  0  0  0  0  0  0  0  0  0  0
  136.3960   70.1920  224.5510 C   0  0  0  0  0  0  0  0  0  0  0  0
  136.4460   68.9830  224.2050 O   0  0  0  0  0  0  0  0  0  0  0  0
  135.2280   70.7450  225.2330 C   0  0  0  0  0  0  0  0  0  0  0  0
  134.2930   69.8990  225.8120 C   0  0  0  0  0  0  0  0  0  0  0  0
  133.1760   70.3920  226.4660 C   0  0  0  0  0  0  0  0  0  0  0  0
  133.0260   71.7650  226.5200 C   0  0  0  0  0  0  0  0  0  0  0  0
  131.9300   72.3010  227.1600 C   0  0  0  0  0  0  0  0  0  0  0  0
  131.7640   73.6830  227.2240 C   0  0  0  0  0  0  0  0  0  0  0  0
  132.6810   74.5550  226.6550 C   0  0  0  0  0  0  0  0  0  0  0  0
  133.7670   73.9690  226.0230 C   0  0  0  0  0  0  0  0  0  0  0  0
  133.9480   72.6090  225.9490 C   0  0  0  0  0  0  0  0  0  0  0  0
  135.0000   72.0680  225.3350 N   0  0  0  0  0  0  0  0  0  0  0  0
  141.4956   69.1771  226.2931 H   0  0  0  0  0  0  0  0  0  0  0  0
  138.8253   70.3328  227.5268 H   0  0  0  0  0  0  0  0  0  0  0  0
  139.8780   69.3112  228.4233 H   0  0  0  0  0  0  0  0  0  0  0  0
  140.3242   72.0022  228.5049 H   0  0  0  0  0  0  0  0  0  0  0  0
  141.7580   71.0263  228.2902 H   0  0  0  0  0  0  0  0  0  0  0  0
  140.3482   72.7700  226.3350 H   0  0  0  0  0  0  0  0  0  0  0  0
  141.9681   72.0717  226.1820 H   0  0  0  0  0  0  0  0  0  0  0  0
  138.6621   70.9292  222.5608 H   0  0  0  0  0  0  0  0  0  0  0  0
  138.7067   69.5020  223.6740 H   0  0  0  0  0  0  0  0  0  0  0  0
  137.4360   72.1000  224.5840 H   0  0  0  0  0  0  0  0  0  0  0  0
  134.4424   68.8109  225.7502 H   0  0  0  0  0  0  0  0  0  0  0  0
  132.4376   69.7176  226.9242 H   0  0  0  0  0  0  0  0  0  0  0  0
  131.1845   71.6367  227.6214 H   0  0  0  0  0  0  0  0  0  0  0  0
  130.8829   74.0934  227.7391 H   0  0  0  0  0  0  0  0  0  0  0  0
  132.5539   75.6466  226.7025 H   0  0  0  0  0  0  0  0  0  0  0  0
  134.5192   74.6238  225.5589 H   0  0  0  0  0  0  0  0  0  0  0  0
  1  2  3  0
  2  3  1  0
  3  4  1  0
  4  5  1  0
  5  6  1  0
  6  7  1  0
  7  8  1  0
  8  9  2  0
  8 10  1  0
 10 11  1  0
 11 12  1  0
 12 13  2  0
 12 14  1  0
 14 15  2  0
 15 16  1  0
 16 17  2  0
 17 18  1  0
 18 19  2  0
 19 20  1  0
 20 21  2  0
 21 22  1  0
 22 23  2  0
  7  3  1  0
 23 14  1  0
 22 17  1  0
  3 24  1  1
  4 25  1  0
  4 26  1  0
  5 27  1  0
  5 28  1  0
  6 29  1  0
  6 30  1  0
 10 31  1  0
 10 32  1  0
 11 33  1  0
 15 34  1  0
 16 35  1  0
 18 36  1  0
 19 37  1  0
 20 38  1  0
 21 39  1  0
M  END
>  <smiles>  (31) 
N#C[C@@H]1CCCN1C(=O)CNC(=O)c1ccc2ccccc2n1

>  <score_type>  (31) 
oracle

>  <origin>  (31) 
autodockgpu

>  <m_score__min__energy>  (31) 
-7.3799999999999999

>  <m_primary>  (31) 
energy

>  <rmsd>  (31) 
7.959006510617254

>  <m_score__min__rmsd>  (31) 
7.959006510617254

>  <meeko>  (31) 
{"free_energy": -6.94, "intermolecular_energy": -8.43, "internal_energy": -1.39, "cluster_size": 13, "cluster_id": 3, "rank_in_cluster": 1}

>  <energy>  (31) 
-6.95

>  <cluster_rmsd>  (31) 
1.91

>  <cluster>  (31) 
2

$$$$

     RDKit          3D

 39 41  0  0  0  0  0  0  0  0999 V2000
  139.1990   67.4220  225.7600 N   0  0  0  0  0  0  0  0  0  0  0  0
  139.7680   68.3620  226.0490 C   0  0  0  0  0  0  0  0  0  0  0  0
  140.5070   69.5320  226.4150 C   0  0  2  0  0  0  0  0  0  0  0  0
  140.1550   70.0190  227.8290 C   0  0  0  0  0  0  0  0  0  0  0  0
  141.0210   71.2850  227.8430 C   0  0  0  0  0  0  0  0  0  0  0  0
  140.8620   71.8080  226.4330 C   0  0  0  0  0  0  0  0  0  0  0  0
  140.2100   70.7260  225.6730 N   0  0  0  0  0  0  0  0  0  0  0  0
  139.4920   70.9750  224.4920 C   0  0  0  0  0  0  0  0  0  0  0  0
  138.2260   71.0830  224.6070 O   0  0  0  0  0  0  0  0  0  0  0  0
  140.0510   71.1250  223.1480 C   0  0  0  0  0  0  0  0  0  0  0  0
  140.2440   72.5420  222.8030 N   0  0  0  0  0  0  0  0  0  0  0  0
  141.0750   72.9040  221.7020 C   0  0  0  0  0  0  0  0  0  0  0  0
  141.6560   72.0330  221.0050 O   0  0  0  0  0  0  0  0  0  0  0  0
  141.2200   74.3310  221.4200 C   0  0  0  0  0  0  0  0  0  0  0  0
  142.0240   74.7570  220.3730 C   0  0  0  0  0  0  0  0  0  0  0  0
  142.1810   76.1010  220.0810 C   0  0  0  0  0  0  0  0  0  0  0  0
  141.5050   77.0080  220.8740 C   0  0  0  0  0  0  0  0  0  0  0  0
  141.6310   78.3560  220.6200 C   0  0  0  0  0  0  0  0  0  0  0  0
  140.9550   79.2830  221.4120 C   0  0  0  0  0  0  0  0  0  0  0  0
  140.1430   78.8890  222.4650 C   0  0  0  0  0  0  0  0  0  0  0  0
  140.0470   77.5220  222.6810 C   0  0  0  0  0  0  0  0  0  0  0  0
  140.7050   76.5930  221.9130 C   0  0  0  0  0  0  0  0  0  0  0  0
  140.5980   75.2840  222.1400 N   0  0  0  0  0  0  0  0  0  0  0  0
  141.5351   69.1750  226.2549 H   0  0  0  0  0  0  0  0  0  0  0  0
  139.0841   70.2460  227.9365 H   0  0  0  0  0  0  0  0  0  0  0  0
  140.3353   69.3028  228.6442 H   0  0  0  0  0  0  0  0  0  0  0  0
  140.6500   72.0119  228.5805 H   0  0  0  0  0  0  0  0  0  0  0  0
  142.0675   71.0965  228.1247 H   0  0  0  0  0  0  0  0  0  0  0  0
  140.2342   72.7112  226.4282 H   0  0  0  0  0  0  0  0  0  0  0  0
  141.8314   72.0842  225.9925 H   0  0  0  0  0  0  0  0  0  0  0  0
  141.0222   70.6104  223.1047 H   0  0  0  0  0  0  0  0  0  0  0  0
  139.3448   70.6860  222.4279 H   0  0  0  0  0  0  0  0  0  0  0  0
  139.7550   73.2750  223.3880 H   0  0  0  0  0  0  0  0  0  0  0  0
  142.5491   74.0093  219.7604 H   0  0  0  0  0  0  0  0  0  0  0  0
  142.8195   76.4340  219.2495 H   0  0  0  0  0  0  0  0  0  0  0  0
  142.2660   78.7016  219.7909 H   0  0  0  0  0  0  0  0  0  0  0  0
  141.0687   80.3556  221.1960 H   0  0  0  0  0  0  0  0  0  0  0  0
  139.6070   79.6171  223.0916 H   0  0  0  0  0  0  0  0  0  0  0  0
  139.4137   77.1653  223.5067 H   0  0  0  0  0  0  0  0  0  0  0  0
  1  2  3  0
  2  3  1  0
  3  4  1  0
  4  5  1  0
  5  6  1  0
  6  7  1  0
  7  8  1  0
  8  9  2  0
  8 10  1  0
 10 11  1  0
 11 12  1  0
 12 13  2  0
 12 14  1  0
 14 15  2  0
 15 16  1  0
 16 17  2  0
 17 18  1  0
 18 19  2  0
 19 20  1  0
 20 21  2  0
 21 22  1  0
 22 23  2  0
  7  3  1  0
 23 14  1  0
 22 17  1  0
  3 24  1  1
  4 25  1  0
  4 26  1  0
  5 27  1  0
  5 28  1  0
  6 29  1  0
  6 30  1  0
 10 31  1  0
 10 32  1  0
 11 33  1  0
 15 34  1  0
 16 35  1  0
 18 36  1  0
 19 37  1  0
 20 38  1  0
 21 39  1  0
M  END
>  <smiles>  (32) 
N#C[C@@H]1CCCN1C(=O)CNC(=O)c1ccc2ccccc2n1

>  <score_type>  (32) 
oracle

>  <origin>  (32) 
autodockgpu

>  <m_score__min__energy>  (32) 
-7.3799999999999999

>  <m_primary>  (32) 
energy

>  <rmsd>  (32) 
8.632896545633809

>  <m_score__min__rmsd>  (32) 
8.632896545633809

>  <meeko>  (32) 
{"free_energy": -7.36, "intermolecular_energy": -8.85, "internal_energy": -1.21, "cluster_size": 28, "cluster_id": 1, "rank_in_cluster": 7}

>  <energy>  (32) 
-6.94

>  <cluster_rmsd>  (32) 
1.91

>  <cluster>  (32) 
2

$$$$

     RDKit          3D

 39 41  0  0  0  0  0  0  0  0999 V2000
  141.1680   71.7460  228.4300 N   0  0  0  0  0  0  0  0  0  0  0  0
  140.6170   70.9080  227.8980 C   0  0  0  0  0  0  0  0  0  0  0  0
  139.9450   69.8390  227.2220 C   0  0  2  0  0  0  0  0  0  0  0  0
  140.6990   68.5070  227.3530 C   0  0  0  0  0  0  0  0  0  0  0  0
  139.7840   67.6540  226.4660 C   0  0  0  0  0  0  0  0  0  0  0  0
  139.4300   68.6070  225.3450 C   0  0  0  0  0  0  0  0  0  0  0  0
  139.8840   69.9370  225.7890 N   0  0  0  0  0  0  0  0  0  0  0  0
  140.1530   70.9720  224.8800 C   0  0  0  0  0  0  0  0  0  0  0  0
  141.0780   71.7890  225.2040 O   0  0  0  0  0  0  0  0  0  0  0  0
  139.4810   71.2050  223.6010 C   0  0  0  0  0  0  0  0  0  0  0  0
  139.8740   72.4960  223.0160 N   0  0  0  0  0  0  0  0  0  0  0  0
  140.8350   72.5440  221.9640 C   0  0  0  0  0  0  0  0  0  0  0  0
  141.3660   71.4960  221.5130 O   0  0  0  0  0  0  0  0  0  0  0  0
  141.1750   73.8620  221.4340 C   0  0  0  0  0  0  0  0  0  0  0  0
  142.0030   73.9770  220.3270 C   0  0  0  0  0  0  0  0  0  0  0  0
  142.3430   75.2120  219.8010 C   0  0  0  0  0  0  0  0  0  0  0  0
  141.8260   76.3320  220.4230 C   0  0  0  0  0  0  0  0  0  0  0  0
  142.1370   77.5820  219.9340 C   0  0  0  0  0  0  0  0  0  0  0  0
  141.6230   78.7220  220.5510 C   0  0  0  0  0  0  0  0  0  0  0  0
  140.7920   78.6410  221.6590 C   0  0  0  0  0  0  0  0  0  0  0  0
  140.5070   77.3620  222.1140 C   0  0  0  0  0  0  0  0  0  0  0  0
  141.0040   76.2270  221.5200 C   0  0  0  0  0  0  0  0  0  0  0  0
  140.7170   75.0070  221.9750 N   0  0  0  0  0  0  0  0  0  0  0  0
  138.9543   69.8957  227.6966 H   0  0  0  0  0  0  0  0  0  0  0  0
  141.7236   68.5678  226.9575 H   0  0  0  0  0  0  0  0  0  0  0  0
  140.8553   68.1402  228.3782 H   0  0  0  0  0  0  0  0  0  0  0  0
  140.3142   66.7696  226.0829 H   0  0  0  0  0  0  0  0  0  0  0  0
  138.9061   67.2570  226.9967 H   0  0  0  0  0  0  0  0  0  0  0  0
  139.9457   68.3161  224.4180 H   0  0  0  0  0  0  0  0  0  0  0  0
  138.3508   68.5982  225.1323 H   0  0  0  0  0  0  0  0  0  0  0  0
  139.7506   70.3988  222.9029 H   0  0  0  0  0  0  0  0  0  0  0  0
  138.3955   71.2211  223.7780 H   0  0  0  0  0  0  0  0  0  0  0  0
  139.4280   73.3770  223.3950 H   0  0  0  0  0  0  0  0  0  0  0  0
  142.3990   73.0653  219.8557 H   0  0  0  0  0  0  0  0  0  0  0  0
  142.9991   75.2979  218.9223 H   0  0  0  0  0  0  0  0  0  0  0  0
  142.7917   77.6808  219.0556 H   0  0  0  0  0  0  0  0  0  0  0  0
  141.8834   79.7120  220.1484 H   0  0  0  0  0  0  0  0  0  0  0  0
  140.3834   79.5378  222.1477 H   0  0  0  0  0  0  0  0  0  0  0  0
  139.8526   77.2512  222.9912 H   0  0  0  0  0  0  0  0  0  0  0  0
  1  2  3  0
  2  3  1  0
  3  4  1  0
  4  5  1  0
  5  6  1  0
  6  7  1  0
  7  8  1  0
  8  9  2  0
  8 10  1  0
 10 11  1  0
 11 12  1  0
 12 13  2  0
 12 14  1  0
 14 15  2  0
 15 16  1  0
 16 17  2  0
 17 18  1  0
 18 19  2  0
 19 20  1  0
 20 21  2  0
 21 22  1  0
 22 23  2  0
  7  3  1  0
 23 14  1  0
 22 17  1  0
  3 24  1  1
  4 25  1  0
  4 26  1  0
  5 27  1  0
  5 28  1  0
  6 29  1  0
  6 30  1  0
 10 31  1  0
 10 32  1  0
 11 33  1  0
 15 34  1  0
 16 35  1  0
 18 36  1  0
 19 37  1  0
 20 38  1  0
 21 39  1  0
M  END
>  <smiles>  (33) 
N#C[C@@H]1CCCN1C(=O)CNC(=O)c1ccc2ccccc2n1

>  <score_type>  (33) 
oracle

>  <origin>  (33) 
autodockgpu

>  <m_score__min__energy>  (33) 
-7.3799999999999999

>  <m_primary>  (33) 
energy

>  <rmsd>  (33) 
8.729589270115458

>  <m_score__min__rmsd>  (33) 
8.729589270115458

>  <meeko>  (33) 
{"free_energy": -7.2, "intermolecular_energy": -8.7, "internal_energy": -1.17, "cluster_size": 28, "cluster_id": 1, "rank_in_cluster": 19}

>  <energy>  (33) 
-6.93

>  <cluster_rmsd>  (33) 
1.9

>  <cluster>  (33) 
2

$$$$

     RDKit          3D

 39 41  0  0  0  0  0  0  0  0999 V2000
  141.2260   71.6240  228.5100 N   0  0  0  0  0  0  0  0  0  0  0  0
  140.6660   70.8110  227.9480 C   0  0  0  0  0  0  0  0  0  0  0  0
  139.9620   69.7710  227.2590 C   0  0  2  0  0  0  0  0  0  0  0  0
  140.6840   68.4190  227.3620 C   0  0  0  0  0  0  0  0  0  0  0  0
  139.7400   67.6030  226.4690 C   0  0  0  0  0  0  0  0  0  0  0  0
  139.4000   68.5830  225.3680 C   0  0  0  0  0  0  0  0  0  0  0  0
  139.8910   69.8940  225.8290 N   0  0  0  0  0  0  0  0  0  0  0  0
  140.1780   70.9370  224.9350 C   0  0  0  0  0  0  0  0  0  0  0  0
  141.0600   71.7810  225.3080 O   0  0  0  0  0  0  0  0  0  0  0  0
  139.5700   71.1520  223.6210 C   0  0  0  0  0  0  0  0  0  0  0  0
  139.9650   72.4490  223.0530 N   0  0  0  0  0  0  0  0  0  0  0  0
  140.7690   72.5020  221.8770 C   0  0  0  0  0  0  0  0  0  0  0  0
  141.1580   71.4520  221.3010 O   0  0  0  0  0  0  0  0  0  0  0  0
  141.1220   73.8260  221.3710 C   0  0  0  0  0  0  0  0  0  0  0  0
  141.8960   73.9530  220.2260 C   0  0  0  0  0  0  0  0  0  0  0  0
  142.2460   75.1940  219.7220 C   0  0  0  0  0  0  0  0  0  0  0  0
  141.7950   76.3080  220.4040 C   0  0  0  0  0  0  0  0  0  0  0  0
  142.1180   77.5640  219.9390 C   0  0  0  0  0  0  0  0  0  0  0  0
  141.6710   78.6970  220.6160 C   0  0  0  0  0  0  0  0  0  0  0  0
  140.8950   78.6040  221.7620 C   0  0  0  0  0  0  0  0  0  0  0  0
  140.5950   77.3200  222.1920 C   0  0  0  0  0  0  0  0  0  0  0  0
  141.0270   76.1910  221.5380 C   0  0  0  0  0  0  0  0  0  0  0  0
  140.7260   74.9650  221.9700 N   0  0  0  0  0  0  0  0  0  0  0  0
  138.9765   69.8450  227.7421 H   0  0  0  0  0  0  0  0  0  0  0  0
  141.7064   68.4610  226.9584 H   0  0  0  0  0  0  0  0  0  0  0  0
  140.8400   68.0318  228.3797 H   0  0  0  0  0  0  0  0  0  0  0  0
  140.2449   66.7125  226.0663 H   0  0  0  0  0  0  0  0  0  0  0  0
  138.8573   67.2184  227.0010 H   0  0  0  0  0  0  0  0  0  0  0  0
  139.8998   68.2949  224.4314 H   0  0  0  0  0  0  0  0  0  0  0  0
  138.3189   68.6047  225.1660 H   0  0  0  0  0  0  0  0  0  0  0  0
  139.8939   70.3501  222.9413 H   0  0  0  0  0  0  0  0  0  0  0  0
  138.4765   71.1448  223.7402 H   0  0  0  0  0  0  0  0  0  0  0  0
  139.6390   73.3320  223.5360 H   0  0  0  0  0  0  0  0  0  0  0  0
  142.2395   73.0462  219.7067 H   0  0  0  0  0  0  0  0  0  0  0  0
  142.8593   75.2896  218.8139 H   0  0  0  0  0  0  0  0  0  0  0  0
  142.7300   77.6727  219.0314 H   0  0  0  0  0  0  0  0  0  0  0  0
  141.9407   79.6916  220.2314 H   0  0  0  0  0  0  0  0  0  0  0  0
  140.5386   79.4960  222.2981 H   0  0  0  0  0  0  0  0  0  0  0  0
  139.9832   77.1997  223.0982 H   0  0  0  0  0  0  0  0  0  0  0  0
  1  2  3  0
  2  3  1  0
  3  4  1  0
  4  5  1  0
  5  6  1  0
  6  7  1  0
  7  8  1  0
  8  9  2  0
  8 10  1  0
 10 11  1  0
 11 12  1  0
 12 13  2  0
 12 14  1  0
 14 15  2  0
 15 16  1  0
 16 17  2  0
 17 18  1  0
 18 19  2  0
 19 20  1  0
 20 21  2  0
 21 22  1  0
 22 23  2  0
  7  3  1  0
 23 14  1  0
 22 17  1  0
  3 24  1  1
  4 25  1  0
  4 26  1  0
  5 27  1  0
  5 28  1  0
  6 29  1  0
  6 30  1  0
 10 31  1  0
 10 32  1  0
 11 33  1  0
 15 34  1  0
 16 35  1  0
 18 36  1  0
 19 37  1  0
 20 38  1  0
 21 39  1  0
M  END
>  <smiles>  (34) 
N#C[C@@H]1CCCN1C(=O)CNC(=O)c1ccc2ccccc2n1

>  <score_type>  (34) 
oracle

>  <origin>  (34) 
autodockgpu

>  <m_score__min__energy>  (34) 
-7.3799999999999999

>  <m_primary>  (34) 
energy

>  <rmsd>  (34) 
8.737822871229785

>  <m_score__min__rmsd>  (34) 
8.737822871229785

>  <meeko>  (34) 
{"free_energy": -7.17, "intermolecular_energy": -8.66, "internal_energy": -1.2, "cluster_size": 28, "cluster_id": 1, "rank_in_cluster": 23}

>  <energy>  (34) 
-6.93

>  <cluster_rmsd>  (34) 
1.92

>  <cluster>  (34) 
2

$$$$

     RDKit          3D

 39 41  0  0  0  0  0  0  0  0999 V2000
  139.1620   67.4210  225.6890 N   0  0  0  0  0  0  0  0  0  0  0  0
  139.7490   68.3370  226.0140 C   0  0  0  0  0  0  0  0  0  0  0  0
  140.4870   69.5020  226.4000 C   0  0  2  0  0  0  0  0  0  0  0  0
  140.1260   69.9740  227.8170 C   0  0  0  0  0  0  0  0  0  0  0  0
  140.9940   71.2370  227.8510 C   0  0  0  0  0  0  0  0  0  0  0  0
  140.8460   71.7770  226.4450 C   0  0  0  0  0  0  0  0  0  0  0  0
  140.1980   70.7050  225.6690 N   0  0  0  0  0  0  0  0  0  0  0  0
  139.4890   70.9690  224.4860 C   0  0  0  0  0  0  0  0  0  0  0  0
  138.2240   71.0910  224.5950 O   0  0  0  0  0  0  0  0  0  0  0  0
  140.0560   71.1200  223.1450 C   0  0  0  0  0  0  0  0  0  0  0  0
  140.2160   72.5370  222.7860 N   0  0  0  0  0  0  0  0  0  0  0  0
  141.0900   72.9140  221.7260 C   0  0  0  0  0  0  0  0  0  0  0  0
  141.7410   72.0550  221.0760 O   0  0  0  0  0  0  0  0  0  0  0  0
  141.1970   74.3400  221.4270 C   0  0  0  0  0  0  0  0  0  0  0  0
  142.0020   74.7770  220.3850 C   0  0  0  0  0  0  0  0  0  0  0  0
  142.1230   76.1220  220.0780 C   0  0  0  0  0  0  0  0  0  0  0  0
  141.4100   77.0180  220.8500 C   0  0  0  0  0  0  0  0  0  0  0  0
  141.5000   78.3660  220.5810 C   0  0  0  0  0  0  0  0  0  0  0  0
  140.7860   79.2820  221.3510 C   0  0  0  0  0  0  0  0  0  0  0  0
  139.9720   78.8780  222.3990 C   0  0  0  0  0  0  0  0  0  0  0  0
  139.9130   77.5120  222.6320 C   0  0  0  0  0  0  0  0  0  0  0  0
  140.6090   76.5930  221.8840 C   0  0  0  0  0  0  0  0  0  0  0  0
  140.5380   75.2840  222.1260 N   0  0  0  0  0  0  0  0  0  0  0  0
  141.5155   69.1444  226.2443 H   0  0  0  0  0  0  0  0  0  0  0  0
  139.0548   70.2021  227.9196 H   0  0  0  0  0  0  0  0  0  0  0  0
  140.2990   69.2484  228.6254 H   0  0  0  0  0  0  0  0  0  0  0  0
  140.6195   71.9564  228.5942 H   0  0  0  0  0  0  0  0  0  0  0  0
  142.0381   71.0428  228.1375 H   0  0  0  0  0  0  0  0  0  0  0  0
  140.2197   72.6813  226.4460 H   0  0  0  0  0  0  0  0  0  0  0  0
  141.8188   72.0569  226.0145 H   0  0  0  0  0  0  0  0  0  0  0  0
  141.0404   70.6301  223.1155 H   0  0  0  0  0  0  0  0  0  0  0  0
  139.3670   70.6561  222.4238 H   0  0  0  0  0  0  0  0  0  0  0  0
  139.6680   73.2590  223.3320 H   0  0  0  0  0  0  0  0  0  0  0  0
  142.5571   74.0379  219.7887 H   0  0  0  0  0  0  0  0  0  0  0  0
  142.7626   76.4636  219.2508 H   0  0  0  0  0  0  0  0  0  0  0  0
  142.1367   78.7200  219.7568 H   0  0  0  0  0  0  0  0  0  0  0  0
  140.8701   80.3545  221.1215 H   0  0  0  0  0  0  0  0  0  0  0  0
  139.4069   79.5981  223.0090 H   0  0  0  0  0  0  0  0  0  0  0  0
  139.2795   77.1472  223.4539 H   0  0  0  0  0  0  0  0  0  0  0  0
  1  2  3  0
  2  3  1  0
  3  4  1  0
  4  5  1  0
  5  6  1  0
  6  7  1  0
  7  8  1  0
  8  9  2  0
  8 10  1  0
 10 11  1  0
 11 12  1  0
 12 13  2  0
 12 14  1  0
 14 15  2  0
 15 16  1  0
 16 17  2  0
 17 18  1  0
 18 19  2  0
 19 20  1  0
 20 21  2  0
 21 22  1  0
 22 23  2  0
  7  3  1  0
 23 14  1  0
 22 17  1  0
  3 24  1  1
  4 25  1  0
  4 26  1  0
  5 27  1  0
  5 28  1  0
  6 29  1  0
  6 30  1  0
 10 31  1  0
 10 32  1  0
 11 33  1  0
 15 34  1  0
 16 35  1  0
 18 36  1  0
 19 37  1  0
 20 38  1  0
 21 39  1  0
M  END
>  <smiles>  (35) 
N#C[C@@H]1CCCN1C(=O)CNC(=O)c1ccc2ccccc2n1

>  <score_type>  (35) 
oracle

>  <origin>  (35) 
autodockgpu

>  <m_score__min__energy>  (35) 
-7.3799999999999999

>  <m_primary>  (35) 
energy

>  <rmsd>  (35) 
8.648509001523777

>  <m_score__min__rmsd>  (35) 
8.648509001523777

>  <meeko>  (35) 
{"free_energy": -7.32, "intermolecular_energy": -8.81, "internal_energy": -1.22, "cluster_size": 28, "cluster_id": 1, "rank_in_cluster": 16}

>  <energy>  (35) 
-6.91

>  <cluster_rmsd>  (35) 
1.94

>  <cluster>  (35) 
2

$$$$

     RDKit          3D

 39 41  0  0  0  0  0  0  0  0999 V2000
  141.4090   71.2460  228.5530 N   0  0  0  0  0  0  0  0  0  0  0  0
  140.7980   70.4650  227.9990 C   0  0  0  0  0  0  0  0  0  0  0  0
  140.0050   69.4920  227.3100 C   0  0  2  0  0  0  0  0  0  0  0  0
  140.7030   68.1260  227.2350 C   0  0  0  0  0  0  0  0  0  0  0  0
  139.6560   67.3960  226.3850 C   0  0  0  0  0  0  0  0  0  0  0  0
  139.2280   68.4630  225.4020 C   0  0  0  0  0  0  0  0  0  0  0  0
  139.7920   69.7270  225.9090 N   0  0  0  0  0  0  0  0  0  0  0  0
  140.0100   70.8320  225.0710 C   0  0  0  0  0  0  0  0  0  0  0  0
  140.4680   71.8860  225.6250 O   0  0  0  0  0  0  0  0  0  0  0  0
  139.7650   70.8950  223.6290 C   0  0  0  0  0  0  0  0  0  0  0  0
  140.1300   72.2090  223.0800 N   0  0  0  0  0  0  0  0  0  0  0  0
  140.7560   72.3050  221.8030 C   0  0  0  0  0  0  0  0  0  0  0  0
  141.0100   71.2790  221.1200 O   0  0  0  0  0  0  0  0  0  0  0  0
  141.0890   73.6440  221.3240 C   0  0  0  0  0  0  0  0  0  0  0  0
  141.8040   73.8070  220.1460 C   0  0  0  0  0  0  0  0  0  0  0  0
  142.1340   75.0620  219.6660 C   0  0  0  0  0  0  0  0  0  0  0  0
  141.7250   76.1540  220.4070 C   0  0  0  0  0  0  0  0  0  0  0  0
  142.0310   77.4240  219.9680 C   0  0  0  0  0  0  0  0  0  0  0  0
  141.6250   78.5350  220.7040 C   0  0  0  0  0  0  0  0  0  0  0  0
  140.9090   78.4070  221.8850 C   0  0  0  0  0  0  0  0  0  0  0  0
  140.6250   77.1100  222.2870 C   0  0  0  0  0  0  0  0  0  0  0  0
  141.0160   76.0020  221.5750 C   0  0  0  0  0  0  0  0  0  0  0  0
  140.7310   74.7640  221.9800 N   0  0  0  0  0  0  0  0  0  0  0  0
  139.0758   69.5420  227.8966 H   0  0  0  0  0  0  0  0  0  0  0  0
  141.6799   68.1846  226.7327 H   0  0  0  0  0  0  0  0  0  0  0  0
  140.9526   67.6585  228.1989 H   0  0  0  0  0  0  0  0  0  0  0  0
  140.0975   66.5322  225.8664 H   0  0  0  0  0  0  0  0  0  0  0  0
  138.8234   66.9843  226.9743 H   0  0  0  0  0  0  0  0  0  0  0  0
  139.6242   68.2416  224.4000 H   0  0  0  0  0  0  0  0  0  0  0  0
  138.1328   68.5155  225.3135 H   0  0  0  0  0  0  0  0  0  0  0  0
  140.3645   70.1195  223.1299 H   0  0  0  0  0  0  0  0  0  0  0  0
  138.6915   70.7321  223.4527 H   0  0  0  0  0  0  0  0  0  0  0  0
  139.9170   73.0720  223.6550 H   0  0  0  0  0  0  0  0  0  0  0  0
  142.1160   72.9169  219.5800 H   0  0  0  0  0  0  0  0  0  0  0  0
  142.6999   75.1855  218.7309 H   0  0  0  0  0  0  0  0  0  0  0  0
  142.5969   77.5607  219.0347 H   0  0  0  0  0  0  0  0  0  0  0  0
  141.8791   79.5409  220.3386 H   0  0  0  0  0  0  0  0  0  0  0  0
  140.5856   79.2818  222.4681 H   0  0  0  0  0  0  0  0  0  0  0  0
  140.0604   76.9618  223.2193 H   0  0  0  0  0  0  0  0  0  0  0  0
  1  2  3  0
  2  3  1  0
  3  4  1  0
  4  5  1  0
  5  6  1  0
  6  7  1  0
  7  8  1  0
  8  9  2  0
  8 10  1  0
 10 11  1  0
 11 12  1  0
 12 13  2  0
 12 14  1  0
 14 15  2  0
 15 16  1  0
 16 17  2  0
 17 18  1  0
 18 19  2  0
 19 20  1  0
 20 21  2  0
 21 22  1  0
 22 23  2  0
  7  3  1  0
 23 14  1  0
 22 17  1  0
  3 24  1  1
  4 25  1  0
  4 26  1  0
  5 27  1  0
  5 28  1  0
  6 29  1  0
  6 30  1  0
 10 31  1  0
 10 32  1  0
 11 33  1  0
 15 34  1  0
 16 35  1  0
 18 36  1  0
 19 37  1  0
 20 38  1  0
 21 39  1  0
M  END
>  <smiles>  (36) 
N#C[C@@H]1CCCN1C(=O)CNC(=O)c1ccc2ccccc2n1

>  <score_type>  (36) 
oracle

>  <origin>  (36) 
autodockgpu

>  <m_score__min__energy>  (36) 
-7.3799999999999999

>  <m_primary>  (36) 
energy

>  <rmsd>  (36) 
8.74098381804106

>  <m_score__min__rmsd>  (36) 
8.74098381804106

>  <meeko>  (36) 
{"free_energy": -6.9, "intermolecular_energy": -8.39, "internal_energy": -1.43, "cluster_size": 28, "cluster_id": 1, "rank_in_cluster": 27}

>  <energy>  (36) 
-6.8

>  <cluster_rmsd>  (36) 
0.47

>  <cluster>  (36) 
2

$$$$

     RDKit          3D

 39 41  0  0  0  0  0  0  0  0999 V2000
  141.0900   71.8540  227.7350 N   0  0  0  0  0  0  0  0  0  0  0  0
  140.6400   70.8710  227.3860 C   0  0  0  0  0  0  0  0  0  0  0  0
  140.0500   69.6380  226.9600 C   0  0  2  0  0  0  0  0  0  0  0  0
  141.0780   68.4970  226.8960 C   0  0  0  0  0  0  0  0  0  0  0  0
  140.1550   67.4080  226.3340 C   0  0  0  0  0  0  0  0  0  0  0  0
  139.3060   68.1740  225.3440 C   0  0  0  0  0  0  0  0  0  0  0  0
  139.5710   69.6010  225.6050 N   0  0  0  0  0  0  0  0  0  0  0  0
  139.3470   70.5880  224.6330 C   0  0  0  0  0  0  0  0  0  0  0  0
  138.5000   71.4960  224.9280 O   0  0  0  0  0  0  0  0  0  0  0  0
  139.9880   70.6810  223.3210 C   0  0  0  0  0  0  0  0  0  0  0  0
  140.1700   72.0820  222.9110 N   0  0  0  0  0  0  0  0  0  0  0  0
  141.0470   72.4060  221.8350 C   0  0  0  0  0  0  0  0  0  0  0  0
  141.6820   71.5130  221.2150 O   0  0  0  0  0  0  0  0  0  0  0  0
  141.1780   73.8190  221.4860 C   0  0  0  0  0  0  0  0  0  0  0  0
  142.0980   74.2190  220.5280 C   0  0  0  0  0  0  0  0  0  0  0  0
  142.2440   75.5500  220.1740 C   0  0  0  0  0  0  0  0  0  0  0  0
  141.4370   76.4700  220.8150 C   0  0  0  0  0  0  0  0  0  0  0  0
  141.5470   77.8050  220.4950 C   0  0  0  0  0  0  0  0  0  0  0  0
  140.7400   78.7460  221.1320 C   0  0  0  0  0  0  0  0  0  0  0  0
  139.8100   78.3780  222.0930 C   0  0  0  0  0  0  0  0  0  0  0  0
  139.7350   77.0240  222.3810 C   0  0  0  0  0  0  0  0  0  0  0  0
  140.5220   76.0810  221.7640 C   0  0  0  0  0  0  0  0  0  0  0  0
  140.4330   74.7840  222.0570 N   0  0  0  0  0  0  0  0  0  0  0  0
  139.2432   69.5375  227.7009 H   0  0  0  0  0  0  0  0  0  0  0  0
  141.9130   68.7262  226.2175 H   0  0  0  0  0  0  0  0  0  0  0  0
  141.5902   68.2557  227.8391 H   0  0  0  0  0  0  0  0  0  0  0  0
  140.7328   66.6172  225.8333 H   0  0  0  0  0  0  0  0  0  0  0  0
  139.5671   66.8910  227.1067 H   0  0  0  0  0  0  0  0  0  0  0  0
  139.5907   67.9140  224.3138 H   0  0  0  0  0  0  0  0  0  0  0  0
  138.2384   67.9339  225.4561 H   0  0  0  0  0  0  0  0  0  0  0  0
  140.9717   70.1910  223.3677 H   0  0  0  0  0  0  0  0  0  0  0  0
  139.3400   70.1856  222.5830 H   0  0  0  0  0  0  0  0  0  0  0  0
  139.6370   72.8330  223.4320 H   0  0  0  0  0  0  0  0  0  0  0  0
  142.7266   73.4610  220.0378 H   0  0  0  0  0  0  0  0  0  0  0  0
  142.9738   75.8623  219.4125 H   0  0  0  0  0  0  0  0  0  0  0  0
  142.2732   78.1293  219.7351 H   0  0  0  0  0  0  0  0  0  0  0  0
  140.8433   79.8083  220.8657 H   0  0  0  0  0  0  0  0  0  0  0  0
  139.1697   79.1170  222.5969 H   0  0  0  0  0  0  0  0  0  0  0  0
  139.0117   76.6886  223.1389 H   0  0  0  0  0  0  0  0  0  0  0  0
  1  2  3  0
  2  3  1  0
  3  4  1  0
  4  5  1  0
  5  6  1  0
  6  7  1  0
  7  8  1  0
  8  9  2  0
  8 10  1  0
 10 11  1  0
 11 12  1  0
 12 13  2  0
 12 14  1  0
 14 15  2  0
 15 16  1  0
 16 17  2  0
 17 18  1  0
 18 19  2  0
 19 20  1  0
 20 21  2  0
 21 22  1  0
 22 23  2  0
  7  3  1  0
 23 14  1  0
 22 17  1  0
  3 24  1  1
  4 25  1  0
  4 26  1  0
  5 27  1  0
  5 28  1  0
  6 29  1  0
  6 30  1  0
 10 31  1  0
 10 32  1  0
 11 33  1  0
 15 34  1  0
 16 35  1  0
 18 36  1  0
 19 37  1  0
 20 38  1  0
 21 39  1  0
M  END
>  <smiles>  (37) 
N#C[C@@H]1CCCN1C(=O)CNC(=O)c1ccc2ccccc2n1

>  <score_type>  (37) 
oracle

>  <origin>  (37) 
autodockgpu

>  <m_score__min__energy>  (37) 
-7.3799999999999999

>  <m_primary>  (37) 
energy

>  <rmsd>  (37) 
8.673851243295552

>  <m_score__min__rmsd>  (37) 
8.673851243295552

>  <meeko>  (37) 
{"free_energy": -6.42, "intermolecular_energy": -7.91, "internal_energy": -1.62, "cluster_size": 28, "cluster_id": 1, "rank_in_cluster": 28}

>  <energy>  (37) 
-6.61

>  <cluster_rmsd>  (37) 
1.84

>  <cluster>  (37) 
2

$$$$

     RDKit          3D

 39 41  0  0  0  0  0  0  0  0999 V2000
  141.1700   71.4750  228.5080 N   0  0  0  0  0  0  0  0  0  0  0  0
  140.6230   70.6480  227.9550 C   0  0  0  0  0  0  0  0  0  0  0  0
  139.9300   69.6210  227.2370 C   0  0  2  0  0  0  0  0  0  0  0  0
  140.6970   68.2900  227.2460 C   0  0  0  0  0  0  0  0  0  0  0  0
  139.7500   67.4900  226.3430 C   0  0  0  0  0  0  0  0  0  0  0  0
  139.3420   68.5120  225.3060 C   0  0  0  0  0  0  0  0  0  0  0  0
  139.8060   69.8140  225.8190 N   0  0  0  0  0  0  0  0  0  0  0  0
  140.0290   70.9100  224.9700 C   0  0  0  0  0  0  0  0  0  0  0  0
  140.7180   71.8710  225.4500 O   0  0  0  0  0  0  0  0  0  0  0  0
  139.5540   71.0580  223.5940 C   0  0  0  0  0  0  0  0  0  0  0  0
  139.9510   72.3550  223.0270 N   0  0  0  0  0  0  0  0  0  0  0  0
  140.7670   72.4080  221.8590 C   0  0  0  0  0  0  0  0  0  0  0  0
  141.1650   71.3580  221.2900 O   0  0  0  0  0  0  0  0  0  0  0  0
  141.1210   73.7320  221.3540 C   0  0  0  0  0  0  0  0  0  0  0  0
  141.8680   73.8600  220.1920 C   0  0  0  0  0  0  0  0  0  0  0  0
  142.2180   75.1010  219.6880 C   0  0  0  0  0  0  0  0  0  0  0  0
  141.7950   76.2140  220.3880 C   0  0  0  0  0  0  0  0  0  0  0  0
  142.1200   77.4700  219.9240 C   0  0  0  0  0  0  0  0  0  0  0  0
  141.7010   78.6020  220.6190 C   0  0  0  0  0  0  0  0  0  0  0  0
  140.9530   78.5090  221.7830 C   0  0  0  0  0  0  0  0  0  0  0  0
  140.6500   77.2250  222.2110 C   0  0  0  0  0  0  0  0  0  0  0  0
  141.0540   76.0960  221.5400 C   0  0  0  0  0  0  0  0  0  0  0  0
  140.7510   74.8710  221.9700 N   0  0  0  0  0  0  0  0  0  0  0  0
  138.9602   69.6371  227.7559 H   0  0  0  0  0  0  0  0  0  0  0  0
  141.7034   68.3864  226.8125 H   0  0  0  0  0  0  0  0  0  0  0  0
  140.8993   67.8568  228.2366 H   0  0  0  0  0  0  0  0  0  0  0  0
  140.2689   66.6384  225.8787 H   0  0  0  0  0  0  0  0  0  0  0  0
  138.8984   67.0500  226.8826 H   0  0  0  0  0  0  0  0  0  0  0  0
  139.8191   68.2890  224.3403 H   0  0  0  0  0  0  0  0  0  0  0  0
  138.2547   68.5072  225.1396 H   0  0  0  0  0  0  0  0  0  0  0  0
  139.9816   70.2524  222.9790 H   0  0  0  0  0  0  0  0  0  0  0  0
  138.4554   71.0036  223.5988 H   0  0  0  0  0  0  0  0  0  0  0  0
  139.6160   73.2380  223.5050 H   0  0  0  0  0  0  0  0  0  0  0  0
  142.1899   72.9536  219.6583 H   0  0  0  0  0  0  0  0  0  0  0  0
  142.8100   75.1969  218.7659 H   0  0  0  0  0  0  0  0  0  0  0  0
  142.7115   77.5789  219.0030 H   0  0  0  0  0  0  0  0  0  0  0  0
  141.9707   79.5966  220.2342 H   0  0  0  0  0  0  0  0  0  0  0  0
  140.6197   79.4007  222.3342 H   0  0  0  0  0  0  0  0  0  0  0  0
  140.0586   77.1048  223.1307 H   0  0  0  0  0  0  0  0  0  0  0  0
  1  2  3  0
  2  3  1  0
  3  4  1  0
  4  5  1  0
  5  6  1  0
  6  7  1  0
  7  8  1  0
  8  9  2  0
  8 10  1  0
 10 11  1  0
 11 12  1  0
 12 13  2  0
 12 14  1  0
 14 15  2  0
 15 16  1  0
 16 17  2  0
 17 18  1  0
 18 19  2  0
 19 20  1  0
 20 21  2  0
 21 22  1  0
 22 23  2  0
  7  3  1  0
 23 14  1  0
 22 17  1  0
  3 24  1  1
  4 25  1  0
  4 26  1  0
  5 27  1  0
  5 28  1  0
  6 29  1  0
  6 30  1  0
 10 31  1  0
 10 32  1  0
 11 33  1  0
 15 34  1  0
 16 35  1  0
 18 36  1  0
 19 37  1  0
 20 38  1  0
 21 39  1  0
M  END
>  <smiles>  (38) 
N#C[C@@H]1CCCN1C(=O)CNC(=O)c1ccc2ccccc2n1

>  <score_type>  (38) 
oracle

>  <origin>  (38) 
autodockgpu

>  <m_score__min__energy>  (38) 
-7.3799999999999999

>  <m_primary>  (38) 
energy

>  <rmsd>  (38) 
8.717529271555133

>  <m_score__min__rmsd>  (38) 
8.717529271555133

>  <meeko>  (38) 
{"free_energy": -7.13, "intermolecular_energy": -8.62, "internal_energy": -1.23, "cluster_size": 28, "cluster_id": 1, "rank_in_cluster": 25}

>  <energy>  (38) 
-6.94

>  <cluster_rmsd>  (38) 
0.0

>  <cluster>  (38) 
3

$$$$

     RDKit          3D

 39 41  0  0  0  0  0  0  0  0999 V2000
  139.2050   67.4000  225.6930 N   0  0  0  0  0  0  0  0  0  0  0  0
  139.7710   68.3280  226.0230 C   0  0  0  0  0  0  0  0  0  0  0  0
  140.5060   69.4880  226.4280 C   0  0  2  0  0  0  0  0  0  0  0  0
  140.1230   69.9500  227.8430 C   0  0  0  0  0  0  0  0  0  0  0  0
  140.9950   71.2110  227.9000 C   0  0  0  0  0  0  0  0  0  0  0  0
  140.8700   71.7620  226.4970 C   0  0  0  0  0  0  0  0  0  0  0  0
  140.2310   70.6970  225.7020 N   0  0  0  0  0  0  0  0  0  0  0  0
  139.5410   70.9720  224.5110 C   0  0  0  0  0  0  0  0  0  0  0  0
  138.2750   71.1020  224.6020 O   0  0  0  0  0  0  0  0  0  0  0  0
  140.1290   71.1250  223.1790 C   0  0  0  0  0  0  0  0  0  0  0  0
  140.3200   72.5420  222.8370 N   0  0  0  0  0  0  0  0  0  0  0  0
  141.0780   72.9060  221.6850 C   0  0  0  0  0  0  0  0  0  0  0  0
  141.5960   72.0340  220.9400 O   0  0  0  0  0  0  0  0  0  0  0  0
  141.2260   74.3330  221.4100 C   0  0  0  0  0  0  0  0  0  0  0  0
  142.0200   74.7620  220.3560 C   0  0  0  0  0  0  0  0  0  0  0  0
  142.1790   76.1070  220.0700 C   0  0  0  0  0  0  0  0  0  0  0  0
  141.5160   77.0120  220.8760 C   0  0  0  0  0  0  0  0  0  0  0  0
  141.6450   78.3610  220.6280 C   0  0  0  0  0  0  0  0  0  0  0  0
  140.9810   79.2860  221.4330 C   0  0  0  0  0  0  0  0  0  0  0  0
  140.1800   78.8900  222.4930 C   0  0  0  0  0  0  0  0  0  0  0  0
  140.0800   77.5220  222.7030 C   0  0  0  0  0  0  0  0  0  0  0  0
  140.7260   76.5950  221.9210 C   0  0  0  0  0  0  0  0  0  0  0  0
  140.6160   75.2850  222.1420 N   0  0  0  0  0  0  0  0  0  0  0  0
  141.5361   69.1297  226.2850 H   0  0  0  0  0  0  0  0  0  0  0  0
  139.0510   70.1806  227.9300 H   0  0  0  0  0  0  0  0  0  0  0  0
  140.2803   69.2178  228.6487 H   0  0  0  0  0  0  0  0  0  0  0  0
  140.6115   71.9258  228.6430 H   0  0  0  0  0  0  0  0  0  0  0  0
  142.0341   71.0113  228.2007 H   0  0  0  0  0  0  0  0  0  0  0  0
  140.2459   72.6678  226.4955 H   0  0  0  0  0  0  0  0  0  0  0  0
  141.8500   72.0428  226.0837 H   0  0  0  0  0  0  0  0  0  0  0  0
  141.1044   70.6170  223.1578 H   0  0  0  0  0  0  0  0  0  0  0  0
  139.4418   70.6808  222.4439 H   0  0  0  0  0  0  0  0  0  0  0  0
  139.8850   73.2750  223.4630 H   0  0  0  0  0  0  0  0  0  0  0  0
  142.5351   74.0158  219.7332 H   0  0  0  0  0  0  0  0  0  0  0  0
  142.8091   76.4423  219.2330 H   0  0  0  0  0  0  0  0  0  0  0  0
  142.2724   78.7088  219.7941 H   0  0  0  0  0  0  0  0  0  0  0  0
  141.0959   80.3593  221.2212 H   0  0  0  0  0  0  0  0  0  0  0  0
  139.6548   79.6171  223.1298 H   0  0  0  0  0  0  0  0  0  0  0  0
  139.4548   77.1631  223.5338 H   0  0  0  0  0  0  0  0  0  0  0  0
  1  2  3  0
  2  3  1  0
  3  4  1  0
  4  5  1  0
  5  6  1  0
  6  7  1  0
  7  8  1  0
  8  9  2  0
  8 10  1  0
 10 11  1  0
 11 12  1  0
 12 13  2  0
 12 14  1  0
 14 15  2  0
 15 16  1  0
 16 17  2  0
 17 18  1  0
 18 19  2  0
 19 20  1  0
 20 21  2  0
 21 22  1  0
 22 23  2  0
  7  3  1  0
 23 14  1  0
 22 17  1  0
  3 24  1  1
  4 25  1  0
  4 26  1  0
  5 27  1  0
  5 28  1  0
  6 29  1  0
  6 30  1  0
 10 31  1  0
 10 32  1  0
 11 33  1  0
 15 34  1  0
 16 35  1  0
 18 36  1  0
 19 37  1  0
 20 38  1  0
 21 39  1  0
M  END
>  <smiles>  (39) 
N#C[C@@H]1CCCN1C(=O)CNC(=O)c1ccc2ccccc2n1

>  <score_type>  (39) 
oracle

>  <origin>  (39) 
autodockgpu

>  <m_score__min__energy>  (39) 
-7.3799999999999999

>  <m_primary>  (39) 
energy

>  <rmsd>  (39) 
8.658633535494891

>  <m_score__min__rmsd>  (39) 
8.658633535494891

>  <meeko>  (39) 
{"free_energy": -7.36, "intermolecular_energy": -8.86, "internal_energy": -1.21, "cluster_size": 28, "cluster_id": 1, "rank_in_cluster": 3}

>  <energy>  (39) 
-6.94

>  <cluster_rmsd>  (39) 
0.13

>  <cluster>  (39) 
3

$$$$

     RDKit          3D

 39 41  0  0  0  0  0  0  0  0999 V2000
  139.2390   67.5820  225.3420 N   0  0  0  0  0  0  0  0  0  0  0  0
  139.8130   68.4800  225.7350 C   0  0  0  0  0  0  0  0  0  0  0  0
  140.5520   69.6110  226.2100 C   0  0  2  0  0  0  0  0  0  0  0  0
  140.0750   70.0720  227.5960 C   0  0  0  0  0  0  0  0  0  0  0  0
  140.9800   71.3030  227.7360 C   0  0  0  0  0  0  0  0  0  0  0  0
  140.9830   71.8700  226.3330 C   0  0  0  0  0  0  0  0  0  0  0  0
  140.3740   70.8350  225.4790 N   0  0  0  0  0  0  0  0  0  0  0  0
  139.7890   71.1440  224.2410 C   0  0  0  0  0  0  0  0  0  0  0  0
  140.3840   72.0220  223.5330 O   0  0  0  0  0  0  0  0  0  0  0  0
  138.5700   70.5580  223.6820 C   0  0  0  0  0  0  0  0  0  0  0  0
  137.3680   71.0860  224.3460 N   0  0  0  0  0  0  0  0  0  0  0  0
  136.2730   70.2220  224.6410 C   0  0  0  0  0  0  0  0  0  0  0  0
  136.3060   68.9990  224.3460 O   0  0  0  0  0  0  0  0  0  0  0  0
  135.1140   70.8200  225.3000 C   0  0  0  0  0  0  0  0  0  0  0  0
  134.1320   70.0100  225.8540 C   0  0  0  0  0  0  0  0  0  0  0  0
  133.0230   70.5460  226.4860 C   0  0  0  0  0  0  0  0  0  0  0  0
  132.9270   71.9230  226.5440 C   0  0  0  0  0  0  0  0  0  0  0  0
  131.8410   72.5010  227.1630 C   0  0  0  0  0  0  0  0  0  0  0  0
  131.7300   73.8880  227.2310 C   0  0  0  0  0  0  0  0  0  0  0  0
  132.6940   74.7250  226.6870 C   0  0  0  0  0  0  0  0  0  0  0  0
  133.7690   74.0970  226.0750 C   0  0  0  0  0  0  0  0  0  0  0  0
  133.8960   72.7310  225.9990 C   0  0  0  0  0  0  0  0  0  0  0  0
  134.9390   72.1500  225.4050 N   0  0  0  0  0  0  0  0  0  0  0  0
  141.5780   69.2200  226.1436 H   0  0  0  0  0  0  0  0  0  0  0  0
  139.0074   70.3371  227.6021 H   0  0  0  0  0  0  0  0  0  0  0  0
  140.1453   69.3274  228.4026 H   0  0  0  0  0  0  0  0  0  0  0  0
  140.5625   72.0234  228.4548 H   0  0  0  0  0  0  0  0  0  0  0  0
  141.9852   71.0668  228.1152 H   0  0  0  0  0  0  0  0  0  0  0  0
  140.3910   72.7962  226.2932 H   0  0  0  0  0  0  0  0  0  0  0  0
  142.0011   72.1210  226.0005 H   0  0  0  0  0  0  0  0  0  0  0  0
  138.5190   70.7938  222.6088 H   0  0  0  0  0  0  0  0  0  0  0  0
  138.6041   69.4701  223.8411 H   0  0  0  0  0  0  0  0  0  0  0  0
  137.3410   72.1140  224.5940 H   0  0  0  0  0  0  0  0  0  0  0  0
  134.2375   68.9170  225.7893 H   0  0  0  0  0  0  0  0  0  0  0  0
  132.2481   69.9004  226.9250 H   0  0  0  0  0  0  0  0  0  0  0  0
  131.0592   71.8658  227.6049 H   0  0  0  0  0  0  0  0  0  0  0  0
  130.8552   74.3314  227.7290 H   0  0  0  0  0  0  0  0  0  0  0  0
  132.6107   75.8207  226.7380 H   0  0  0  0  0  0  0  0  0  0  0  0
  134.5569   74.7221  225.6296 H   0  0  0  0  0  0  0  0  0  0  0  0
  1  2  3  0
  2  3  1  0
  3  4  1  0
  4  5  1  0
  5  6  1  0
  6  7  1  0
  7  8  1  0
  8  9  2  0
  8 10  1  0
 10 11  1  0
 11 12  1  0
 12 13  2  0
 12 14  1  0
 14 15  2  0
 15 16  1  0
 16 17  2  0
 17 18  1  0
 18 19  2  0
 19 20  1  0
 20 21  2  0
 21 22  1  0
 22 23  2  0
  7  3  1  0
 23 14  1  0
 22 17  1  0
  3 24  1  1
  4 25  1  0
  4 26  1  0
  5 27  1  0
  5 28  1  0
  6 29  1  0
  6 30  1  0
 10 31  1  0
 10 32  1  0
 11 33  1  0
 15 34  1  0
 16 35  1  0
 18 36  1  0
 19 37  1  0
 20 38  1  0
 21 39  1  0
M  END
>  <smiles>  (40) 
N#C[C@@H]1CCCN1C(=O)CNC(=O)c1ccc2ccccc2n1

>  <score_type>  (40) 
oracle

>  <origin>  (40) 
autodockgpu

>  <m_score__min__energy>  (40) 
-7.3799999999999999

>  <m_primary>  (40) 
energy

>  <rmsd>  (40) 
7.989685854181878

>  <m_score__min__rmsd>  (40) 
7.989685854181878

>  <meeko>  (40) 
{"free_energy": -6.91, "intermolecular_energy": -8.4, "internal_energy": -1.35, "cluster_size": 13, "cluster_id": 3, "rank_in_cluster": 9}

>  <energy>  (40) 
-6.93

>  <cluster_rmsd>  (40) 
0.08

>  <cluster>  (40) 
3

$$$$

     RDKit          3D

 39 41  0  0  0  0  0  0  0  0999 V2000
  139.2220   67.4080  225.3100 N   0  0  0  0  0  0  0  0  0  0  0  0
  139.7370   68.3060  225.7770 C   0  0  0  0  0  0  0  0  0  0  0  0
  140.3630   69.4510  226.3670 C   0  0  2  0  0  0  0  0  0  0  0  0
  139.6580   69.8930  227.6590 C   0  0  0  0  0  0  0  0  0  0  0  0
  140.5000   71.1430  227.9460 C   0  0  0  0  0  0  0  0  0  0  0  0
  140.7170   71.7180  226.5630 C   0  0  0  0  0  0  0  0  0  0  0  0
  140.2770   70.6750  225.6200 N   0  0  0  0  0  0  0  0  0  0  0  0
  139.8930   70.9770  224.3040 C   0  0  0  0  0  0  0  0  0  0  0  0
  140.6880   71.7160  223.6330 O   0  0  0  0  0  0  0  0  0  0  0  0
  138.6760   70.5290  223.6260 C   0  0  0  0  0  0  0  0  0  0  0  0
  137.4700   71.0240  224.3070 N   0  0  0  0  0  0  0  0  0  0  0  0
  136.3790   70.1420  224.5650 C   0  0  0  0  0  0  0  0  0  0  0  0
  136.4190   68.9320  224.2200 O   0  0  0  0  0  0  0  0  0  0  0  0
  135.2150   70.7060  225.2440 C   0  0  0  0  0  0  0  0  0  0  0  0
  134.2710   69.8690  225.8220 C   0  0  0  0  0  0  0  0  0  0  0  0
  133.1580   70.3720  226.4740 C   0  0  0  0  0  0  0  0  0  0  0  0
  133.0200   71.7450  226.5280 C   0  0  0  0  0  0  0  0  0  0  0  0
  131.9280   72.2920  227.1660 C   0  0  0  0  0  0  0  0  0  0  0  0
  131.7750   73.6750  227.2300 C   0  0  0  0  0  0  0  0  0  0  0  0
  132.7010   74.5390  226.6630 C   0  0  0  0  0  0  0  0  0  0  0  0
  133.7820   73.9430  226.0320 C   0  0  0  0  0  0  0  0  0  0  0  0
  133.9510   72.5820  225.9590 C   0  0  0  0  0  0  0  0  0  0  0  0
  135.0000   72.0300  225.3470 N   0  0  0  0  0  0  0  0  0  0  0  0
  141.3952   69.0836  226.4656 H   0  0  0  0  0  0  0  0  0  0  0  0
  138.5976   70.1341  227.4933 H   0  0  0  0  0  0  0  0  0  0  0  0
  139.6143   69.1454  228.4647 H   0  0  0  0  0  0  0  0  0  0  0  0
  139.9553   71.8498  228.5892 H   0  0  0  0  0  0  0  0  0  0  0  0
  141.4358   70.9271  228.4824 H   0  0  0  0  0  0  0  0  0  0  0  0
  140.1188   72.6315  226.4300 H   0  0  0  0  0  0  0  0  0  0  0  0
  141.7695   71.9928  226.3998 H   0  0  0  0  0  0  0  0  0  0  0  0
  138.6831   70.9048  222.5922 H   0  0  0  0  0  0  0  0  0  0  0  0
  138.6557   69.4293  223.6411 H   0  0  0  0  0  0  0  0  0  0  0  0
  137.4360   72.0410  224.5970 H   0  0  0  0  0  0  0  0  0  0  0  0
  134.4104   68.7796  225.7607 H   0  0  0  0  0  0  0  0  0  0  0  0
  132.4129   69.7042  226.9310 H   0  0  0  0  0  0  0  0  0  0  0  0
  131.1752   71.6349  227.6259 H   0  0  0  0  0  0  0  0  0  0  0  0
  130.8968   74.0933  227.7436 H   0  0  0  0  0  0  0  0  0  0  0  0
  132.5843   75.6317  226.7113 H   0  0  0  0  0  0  0  0  0  0  0  0
  134.5402   74.5908  225.5678 H   0  0  0  0  0  0  0  0  0  0  0  0
  1  2  3  0
  2  3  1  0
  3  4  1  0
  4  5  1  0
  5  6  1  0
  6  7  1  0
  7  8  1  0
  8  9  2  0
  8 10  1  0
 10 11  1  0
 11 12  1  0
 12 13  2  0
 12 14  1  0
 14 15  2  0
 15 16  1  0
 16 17  2  0
 17 18  1  0
 18 19  2  0
 19 20  1  0
 20 21  2  0
 21 22  1  0
 22 23  2  0
  7  3  1  0
 23 14  1  0
 22 17  1  0
  3 24  1  1
  4 25  1  0
  4 26  1  0
  5 27  1  0
  5 28  1  0
  6 29  1  0
  6 30  1  0
 10 31  1  0
 10 32  1  0
 11 33  1  0
 15 34  1  0
 16 35  1  0
 18 36  1  0
 19 37  1  0
 20 38  1  0
 21 39  1  0
M  END
>  <smiles>  (41) 
N#C[C@@H]1CCCN1C(=O)CNC(=O)c1ccc2ccccc2n1

>  <score_type>  (41) 
oracle

>  <origin>  (41) 
autodockgpu

>  <m_score__min__energy>  (41) 
-7.3799999999999999

>  <m_primary>  (41) 
energy

>  <rmsd>  (41) 
8.029274966090213

>  <m_score__min__rmsd>  (41) 
8.029274966090213

>  <meeko>  (41) 
{"free_energy": -6.88, "intermolecular_energy": -8.37, "internal_energy": -1.43, "cluster_size": 13, "cluster_id": 3, "rank_in_cluster": 11}

>  <energy>  (41) 
-6.93

>  <cluster_rmsd>  (41) 
0.13

>  <cluster>  (41) 
3

$$$$

     RDKit          3D

 39 41  0  0  0  0  0  0  0  0999 V2000
  139.2040   67.6540  225.2760 N   0  0  0  0  0  0  0  0  0  0  0  0
  139.7990   68.5270  225.6950 C   0  0  0  0  0  0  0  0  0  0  0  0
  140.5590   69.6300  226.2010 C   0  0  2  0  0  0  0  0  0  0  0  0
  140.0720   70.0800  227.5870 C   0  0  0  0  0  0  0  0  0  0  0  0
  141.0060   71.2850  227.7620 C   0  0  0  0  0  0  0  0  0  0  0  0
  141.0460   71.8750  226.3690 C   0  0  0  0  0  0  0  0  0  0  0  0
  140.4240   70.8700  225.4880 N   0  0  0  0  0  0  0  0  0  0  0  0
  139.8670   71.2140  224.2460 C   0  0  0  0  0  0  0  0  0  0  0  0
  140.4780   72.1130  223.5770 O   0  0  0  0  0  0  0  0  0  0  0  0
  138.6620   70.6440  223.6430 C   0  0  0  0  0  0  0  0  0  0  0  0
  137.4460   71.1280  224.3140 N   0  0  0  0  0  0  0  0  0  0  0  0
  136.3770   70.2290  224.5970 C   0  0  0  0  0  0  0  0  0  0  0  0
  136.4440   69.0120  224.2830 O   0  0  0  0  0  0  0  0  0  0  0  0
  135.2010   70.7830  225.2650 C   0  0  0  0  0  0  0  0  0  0  0  0
  134.2510   69.9380  225.8200 C   0  0  0  0  0  0  0  0  0  0  0  0
  133.1270   70.4320  226.4610 C   0  0  0  0  0  0  0  0  0  0  0  0
  132.9850   71.8050  226.5260 C   0  0  0  0  0  0  0  0  0  0  0  0
  131.8820   72.3420  227.1540 C   0  0  0  0  0  0  0  0  0  0  0  0
  131.7250   73.7240  227.2280 C   0  0  0  0  0  0  0  0  0  0  0  0
  132.6560   74.5960  226.6840 C   0  0  0  0  0  0  0  0  0  0  0  0
  133.7490   74.0090  226.0630 C   0  0  0  0  0  0  0  0  0  0  0  0
  133.9220   72.6490  225.9790 C   0  0  0  0  0  0  0  0  0  0  0  0
  134.9810   72.1060  225.3770 N   0  0  0  0  0  0  0  0  0  0  0  0
  141.5756   69.2137  226.1444 H   0  0  0  0  0  0  0  0  0  0  0  0
  139.0116   70.3724  227.5812 H   0  0  0  0  0  0  0  0  0  0  0  0
  140.1105   69.3205  228.3818 H   0  0  0  0  0  0  0  0  0  0  0  0
  140.5955   72.0039  228.4863 H   0  0  0  0  0  0  0  0  0  0  0  0
  141.9986   71.0167  228.1527 H   0  0  0  0  0  0  0  0  0  0  0  0
  140.4787   72.8169  226.3357 H   0  0  0  0  0  0  0  0  0  0  0  0
  142.0753   72.1050  226.0566 H   0  0  0  0  0  0  0  0  0  0  0  0
  138.6232   70.9302  222.5816 H   0  0  0  0  0  0  0  0  0  0  0  0
  138.7050   69.5501  223.7509 H   0  0  0  0  0  0  0  0  0  0  0  0
  137.3890   72.1510  224.5780 H   0  0  0  0  0  0  0  0  0  0  0  0
  134.3939   68.8496  225.7493 H   0  0  0  0  0  0  0  0  0  0  0  0
  132.3771   69.7581  226.9009 H   0  0  0  0  0  0  0  0  0  0  0  0
  131.1248   71.6785  227.5973 H   0  0  0  0  0  0  0  0  0  0  0  0
  130.8379   74.1352  227.7319 H   0  0  0  0  0  0  0  0  0  0  0  0
  132.5351   75.6878  226.7414 H   0  0  0  0  0  0  0  0  0  0  0  0
  134.5126   74.6633  225.6171 H   0  0  0  0  0  0  0  0  0  0  0  0
  1  2  3  0
  2  3  1  0
  3  4  1  0
  4  5  1  0
  5  6  1  0
  6  7  1  0
  7  8  1  0
  8  9  2  0
  8 10  1  0
 10 11  1  0
 11 12  1  0
 12 13  2  0
 12 14  1  0
 14 15  2  0
 15 16  1  0
 16 17  2  0
 17 18  1  0
 18 19  2  0
 19 20  1  0
 20 21  2  0
 21 22  1  0
 22 23  2  0
  7  3  1  0
 23 14  1  0
 22 17  1  0
  3 24  1  1
  4 25  1  0
  4 26  1  0
  5 27  1  0
  5 28  1  0
  6 29  1  0
  6 30  1  0
 10 31  1  0
 10 32  1  0
 11 33  1  0
 15 34  1  0
 16 35  1  0
 18 36  1  0
 19 37  1  0
 20 38  1  0
 21 39  1  0
M  END
>  <smiles>  (42) 
N#C[C@@H]1CCCN1C(=O)CNC(=O)c1ccc2ccccc2n1

>  <score_type>  (42) 
oracle

>  <origin>  (42) 
autodockgpu

>  <m_score__min__energy>  (42) 
-7.3799999999999999

>  <m_primary>  (42) 
energy

>  <rmsd>  (42) 
7.951964691508808

>  <m_score__min__rmsd>  (42) 
7.951964691508808

>  <meeko>  (42) 
{"free_energy": -6.92, "intermolecular_energy": -8.41, "internal_energy": -1.36, "cluster_size": 13, "cluster_id": 3, "rank_in_cluster": 7}

>  <energy>  (42) 
-6.93

>  <cluster_rmsd>  (42) 
0.14

>  <cluster>  (42) 
3

$$$$

     RDKit          3D

 39 41  0  0  0  0  0  0  0  0999 V2000
  139.1930   67.5130  225.2380 N   0  0  0  0  0  0  0  0  0  0  0  0
  139.7130   68.4080  225.7050 C   0  0  0  0  0  0  0  0  0  0  0  0
  140.3860   69.5210  226.3050 C   0  0  2  0  0  0  0  0  0  0  0  0
  139.7400   69.9400  227.6340 C   0  0  0  0  0  0  0  0  0  0  0  0
  140.6200   71.1620  227.9250 C   0  0  0  0  0  0  0  0  0  0  0  0
  140.7990   71.7730  226.5530 C   0  0  0  0  0  0  0  0  0  0  0  0
  140.3010   70.7680  225.5960 N   0  0  0  0  0  0  0  0  0  0  0  0
  139.8760   71.1180  224.3050 C   0  0  0  0  0  0  0  0  0  0  0  0
  140.6230   71.9250  223.6580 O   0  0  0  0  0  0  0  0  0  0  0  0
  138.6660   70.6480  223.6280 C   0  0  0  0  0  0  0  0  0  0  0  0
  137.4520   71.1290  224.3050 N   0  0  0  0  0  0  0  0  0  0  0  0
  136.3850   70.2280  224.5890 C   0  0  0  0  0  0  0  0  0  0  0  0
  136.4520   69.0110  224.2720 O   0  0  0  0  0  0  0  0  0  0  0  0
  135.2110   70.7780  225.2630 C   0  0  0  0  0  0  0  0  0  0  0  0
  134.2640   69.9310  225.8200 C   0  0  0  0  0  0  0  0  0  0  0  0
  133.1420   70.4220  226.4650 C   0  0  0  0  0  0  0  0  0  0  0  0
  132.9980   71.7940  226.5340 C   0  0  0  0  0  0  0  0  0  0  0  0
  131.8970   72.3280  227.1670 C   0  0  0  0  0  0  0  0  0  0  0  0
  131.7370   73.7110  227.2440 C   0  0  0  0  0  0  0  0  0  0  0  0
  132.6650   74.5850  226.6980 C   0  0  0  0  0  0  0  0  0  0  0  0
  133.7560   74.0010  226.0720 C   0  0  0  0  0  0  0  0  0  0  0  0
  133.9310   72.6410  225.9850 C   0  0  0  0  0  0  0  0  0  0  0  0
  134.9890   72.1010  225.3780 N   0  0  0  0  0  0  0  0  0  0  0  0
  141.4122   69.1281  226.3558 H   0  0  0  0  0  0  0  0  0  0  0  0
  138.6800   70.2090  227.5152 H   0  0  0  0  0  0  0  0  0  0  0  0
  139.7092   69.1701  228.4190 H   0  0  0  0  0  0  0  0  0  0  0  0
  140.1156   71.8610  228.6084 H   0  0  0  0  0  0  0  0  0  0  0  0
  141.5698   70.9098  228.4192 H   0  0  0  0  0  0  0  0  0  0  0  0
  140.2171   72.7027  226.4691 H   0  0  0  0  0  0  0  0  0  0  0  0
  141.8509   72.0297  226.3589 H   0  0  0  0  0  0  0  0  0  0  0  0
  138.6687   71.0180  222.5921 H   0  0  0  0  0  0  0  0  0  0  0  0
  138.6620   69.5482  223.6493 H   0  0  0  0  0  0  0  0  0  0  0  0
  137.3950   72.1510  224.5710 H   0  0  0  0  0  0  0  0  0  0  0  0
  134.4082   68.8429  225.7474 H   0  0  0  0  0  0  0  0  0  0  0  0
  132.3943   69.7460  226.9054 H   0  0  0  0  0  0  0  0  0  0  0  0
  131.1430   71.6623  227.6124 H   0  0  0  0  0  0  0  0  0  0  0  0
  130.8508   74.1198  227.7515 H   0  0  0  0  0  0  0  0  0  0  0  0
  132.5430   75.6766  226.7579 H   0  0  0  0  0  0  0  0  0  0  0  0
  134.5168   74.6572  225.6242 H   0  0  0  0  0  0  0  0  0  0  0  0
  1  2  3  0
  2  3  1  0
  3  4  1  0
  4  5  1  0
  5  6  1  0
  6  7  1  0
  7  8  1  0
  8  9  2  0
  8 10  1  0
 10 11  1  0
 11 12  1  0
 12 13  2  0
 12 14  1  0
 14 15  2  0
 15 16  1  0
 16 17  2  0
 17 18  1  0
 18 19  2  0
 19 20  1  0
 20 21  2  0
 21 22  1  0
 22 23  2  0
  7  3  1  0
 23 14  1  0
 22 17  1  0
  3 24  1  1
  4 25  1  0
  4 26  1  0
  5 27  1  0
  5 28  1  0
  6 29  1  0
  6 30  1  0
 10 31  1  0
 10 32  1  0
 11 33  1  0
 15 34  1  0
 16 35  1  0
 18 36  1  0
 19 37  1  0
 20 38  1  0
 21 39  1  0
M  END
>  <smiles>  (43) 
N#C[C@@H]1CCCN1C(=O)CNC(=O)c1ccc2ccccc2n1

>  <score_type>  (43) 
oracle

>  <origin>  (43) 
autodockgpu

>  <m_score__min__energy>  (43) 
-7.3799999999999999

>  <m_primary>  (43) 
energy

>  <rmsd>  (43) 
8.013285015922587

>  <m_score__min__rmsd>  (43) 
8.013285015922587

>  <meeko>  (43) 
{"free_energy": -6.87, "intermolecular_energy": -8.36, "internal_energy": -1.42, "cluster_size": 13, "cluster_id": 3, "rank_in_cluster": 12}

>  <energy>  (43) 
-6.93

>  <cluster_rmsd>  (43) 
0.04

>  <cluster>  (43) 
3

$$$$

     RDKit          3D

 39 41  0  0  0  0  0  0  0  0999 V2000
  139.2000   67.4020  225.3700 N   0  0  0  0  0  0  0  0  0  0  0  0
  139.7580   68.2940  225.7970 C   0  0  0  0  0  0  0  0  0  0  0  0
  140.4400   69.4320  226.3360 C   0  0  2  0  0  0  0  0  0  0  0  0
  139.8180   69.9060  227.6580 C   0  0  0  0  0  0  0  0  0  0  0  0
  140.7010   71.1410  227.8800 C   0  0  0  0  0  0  0  0  0  0  0  0
  140.8510   71.6940  226.4800 C   0  0  0  0  0  0  0  0  0  0  0  0
  140.3380   70.6480  225.5770 N   0  0  0  0  0  0  0  0  0  0  0  0
  139.8870   70.9420  224.2800 C   0  0  0  0  0  0  0  0  0  0  0  0
  140.6200   71.7220  223.5850 O   0  0  0  0  0  0  0  0  0  0  0  0
  138.6650   70.4430  223.6480 C   0  0  0  0  0  0  0  0  0  0  0  0
  137.4640   70.9560  224.3240 N   0  0  0  0  0  0  0  0  0  0  0  0
  136.3510   70.0970  224.5580 C   0  0  0  0  0  0  0  0  0  0  0  0
  136.3670   68.8910  224.1990 O   0  0  0  0  0  0  0  0  0  0  0  0
  135.1930   70.6780  225.2340 C   0  0  0  0  0  0  0  0  0  0  0  0
  134.2320   69.8550  225.8040 C   0  0  0  0  0  0  0  0  0  0  0  0
  133.1250   70.3760  226.4520 C   0  0  0  0  0  0  0  0  0  0  0  0
  133.0090   71.7510  226.5080 C   0  0  0  0  0  0  0  0  0  0  0  0
  131.9230   72.3140  227.1430 C   0  0  0  0  0  0  0  0  0  0  0  0
  131.7930   73.7000  227.2080 C   0  0  0  0  0  0  0  0  0  0  0  0
  132.7350   74.5490  226.6480 C   0  0  0  0  0  0  0  0  0  0  0  0
  133.8100   73.9370  226.0220 C   0  0  0  0  0  0  0  0  0  0  0  0
  133.9570   72.5730  225.9460 C   0  0  0  0  0  0  0  0  0  0  0  0
  134.9990   72.0060  225.3380 N   0  0  0  0  0  0  0  0  0  0  0  0
  141.4679   69.0433  226.3834 H   0  0  0  0  0  0  0  0  0  0  0  0
  138.7554   70.1681  227.5480 H   0  0  0  0  0  0  0  0  0  0  0  0
  139.8035   69.1701  228.4755 H   0  0  0  0  0  0  0  0  0  0  0  0
  140.2087   71.8673  228.5434 H   0  0  0  0  0  0  0  0  0  0  0  0
  141.6611   70.9114  228.3654 H   0  0  0  0  0  0  0  0  0  0  0  0
  140.2643   72.6177  226.3683 H   0  0  0  0  0  0  0  0  0  0  0  0
  141.8979   71.9454  226.2544 H   0  0  0  0  0  0  0  0  0  0  0  0
  138.6488   70.7648  222.5962 H   0  0  0  0  0  0  0  0  0  0  0  0
  138.6610   69.3454  223.7202 H   0  0  0  0  0  0  0  0  0  0  0  0
  137.4500   71.9700  224.6260 H   0  0  0  0  0  0  0  0  0  0  0  0
  134.3526   68.7635  225.7395 H   0  0  0  0  0  0  0  0  0  0  0  0
  132.3670   69.7200  226.9048 H   0  0  0  0  0  0  0  0  0  0  0  0
  131.1579   71.6685  227.5991 H   0  0  0  0  0  0  0  0  0  0  0  0
  130.9191   74.1321  227.7175 H   0  0  0  0  0  0  0  0  0  0  0  0
  132.6354   75.6434  226.6974 H   0  0  0  0  0  0  0  0  0  0  0  0
  134.5817   74.5735  225.5645 H   0  0  0  0  0  0  0  0  0  0  0  0
  1  2  3  0
  2  3  1  0
  3  4  1  0
  4  5  1  0
  5  6  1  0
  6  7  1  0
  7  8  1  0
  8  9  2  0
  8 10  1  0
 10 11  1  0
 11 12  1  0
 12 13  2  0
 12 14  1  0
 14 15  2  0
 15 16  1  0
 16 17  2  0
 17 18  1  0
 18 19  2  0
 19 20  1  0
 20 21  2  0
 21 22  1  0
 22 23  2  0
  7  3  1  0
 23 14  1  0
 22 17  1  0
  3 24  1  1
  4 25  1  0
  4 26  1  0
  5 27  1  0
  5 28  1  0
  6 29  1  0
  6 30  1  0
 10 31  1  0
 10 32  1  0
 11 33  1  0
 15 34  1  0
 16 35  1  0
 18 36  1  0
 19 37  1  0
 20 38  1  0
 21 39  1  0
M  END
>  <smiles>  (44) 
N#C[C@@H]1CCCN1C(=O)CNC(=O)c1ccc2ccccc2n1

>  <score_type>  (44) 
oracle

>  <origin>  (44) 
autodockgpu

>  <m_score__min__energy>  (44) 
-7.3799999999999999

>  <m_primary>  (44) 
energy

>  <rmsd>  (44) 
8.023503369798798

>  <m_score__min__rmsd>  (44) 
8.023503369798798

>  <meeko>  (44) 
{"free_energy": -6.94, "intermolecular_energy": -8.43, "internal_energy": -1.39, "cluster_size": 13, "cluster_id": 3, "rank_in_cluster": 2}

>  <energy>  (44) 
-6.92

>  <cluster_rmsd>  (44) 
0.1

>  <cluster>  (44) 
3

$$$$

     RDKit          3D

 39 41  0  0  0  0  0  0  0  0999 V2000
  143.9370   73.4580  220.7100 N   0  0  0  0  0  0  0  0  0  0  0  0
  143.3490   74.3010  220.2280 C   0  0  0  0  0  0  0  0  0  0  0  0
  142.5990   75.3480  219.6010 C   0  0  2  0  0  0  0  0  0  0  0  0
  143.3110   76.7060  219.6980 C   0  0  0  0  0  0  0  0  0  0  0  0
  142.2250   77.5660  219.0400 C   0  0  0  0  0  0  0  0  0  0  0  0
  140.9500   76.9560  219.5800 C   0  0  0  0  0  0  0  0  0  0  0  0
  141.3500   75.6910  220.2230 N   0  0  0  0  0  0  0  0  0  0  0  0
  140.5640   75.0790  221.2120 C   0  0  0  0  0  0  0  0  0  0  0  0
  140.5190   75.6620  222.3460 O   0  0  0  0  0  0  0  0  0  0  0  0
  139.7910   73.8440  221.0710 C   0  0  0  0  0  0  0  0  0  0  0  0
  139.7670   73.0800  222.3270 N   0  0  0  0  0  0  0  0  0  0  0  0
  139.9890   71.6720  222.3140 C   0  0  0  0  0  0  0  0  0  0  0  0
  140.2090   71.0530  221.2410 O   0  0  0  0  0  0  0  0  0  0  0  0
  139.9490   70.9810  223.6010 C   0  0  0  0  0  0  0  0  0  0  0  0
  139.3980   69.7110  223.6950 C   0  0  0  0  0  0  0  0  0  0  0  0
  139.3470   69.0300  224.8990 C   0  0  0  0  0  0  0  0  0  0  0  0
  139.8660   69.6650  226.0110 C   0  0  0  0  0  0  0  0  0  0  0  0
  139.8370   69.0260  227.2310 C   0  0  0  0  0  0  0  0  0  0  0  0
  140.3570   69.6540  228.3620 C   0  0  0  0  0  0  0  0  0  0  0  0
  140.9140   70.9220  228.3020 C   0  0  0  0  0  0  0  0  0  0  0  0
  140.9220   71.5250  227.0530 C   0  0  0  0  0  0  0  0  0  0  0  0
  140.4140   70.9230  225.9270 C   0  0  0  0  0  0  0  0  0  0  0  0
  140.4320   71.5220  224.7350 N   0  0  0  0  0  0  0  0  0  0  0  0
  142.4719   74.9254  218.5934 H   0  0  0  0  0  0  0  0  0  0  0  0
  143.5023   77.0023  220.7399 H   0  0  0  0  0  0  0  0  0  0  0  0
  144.3106   76.7598  219.2421 H   0  0  0  0  0  0  0  0  0  0  0  0
  142.3183   78.6206  219.3385 H   0  0  0  0  0  0  0  0  0  0  0  0
  142.2767   77.5714  217.9412 H   0  0  0  0  0  0  0  0  0  0  0  0
  140.4850   77.6291  220.3154 H   0  0  0  0  0  0  0  0  0  0  0  0
  140.2120   76.7884  218.7817 H   0  0  0  0  0  0  0  0  0  0  0  0
  138.7592   74.0981  220.7868 H   0  0  0  0  0  0  0  0  0  0  0  0
  140.2674   73.2237  220.2975 H   0  0  0  0  0  0  0  0  0  0  0  0
  139.5830   73.6000  223.2300 H   0  0  0  0  0  0  0  0  0  0  0  0
  138.9919   69.2339  222.7909 H   0  0  0  0  0  0  0  0  0  0  0  0
  138.9104   68.0227  224.9678 H   0  0  0  0  0  0  0  0  0  0  0  0
  139.4029   68.0186  227.3130 H   0  0  0  0  0  0  0  0  0  0  0  0
  140.3244   69.1291  229.3281 H   0  0  0  0  0  0  0  0  0  0  0  0
  141.3253   71.4204  229.1922 H   0  0  0  0  0  0  0  0  0  0  0  0
  141.3551   72.5318  226.9594 H   0  0  0  0  0  0  0  0  0  0  0  0
  1  2  3  0
  2  3  1  0
  3  4  1  0
  4  5  1  0
  5  6  1  0
  6  7  1  0
  7  8  1  0
  8  9  2  0
  8 10  1  0
 10 11  1  0
 11 12  1  0
 12 13  2  0
 12 14  1  0
 14 15  2  0
 15 16  1  0
 16 17  2  0
 17 18  1  0
 18 19  2  0
 19 20  1  0
 20 21  2  0
 21 22  1  0
 22 23  2  0
  7  3  1  0
 23 14  1  0
 22 17  1  0
  3 24  1  6
  4 25  1  0
  4 26  1  0
  5 27  1  0
  5 28  1  0
  6 29  1  0
  6 30  1  0
 10 31  1  0
 10 32  1  0
 11 33  1  0
 15 34  1  0
 16 35  1  0
 18 36  1  0
 19 37  1  0
 20 38  1  0
 21 39  1  0
M  END
>  <smiles>  (45) 
N#C[C@@H]1CCCN1C(=O)CNC(=O)c1ccc2ccccc2n1

>  <score_type>  (45) 
oracle

>  <origin>  (45) 
autodockgpu

>  <m_score__min__energy>  (45) 
-7.3799999999999999

>  <m_primary>  (45) 
energy

>  <rmsd>  (45) 
2.082878171562563

>  <m_score__min__rmsd>  (45) 
2.082878171562563

>  <meeko>  (45) 
{"free_energy": -6.8, "intermolecular_energy": -8.29, "internal_energy": -1.45, "cluster_size": 9, "cluster_id": 2, "rank_in_cluster": 8}

>  <energy>  (45) 
-6.92

>  <cluster_rmsd>  (45) 
0.1

>  <cluster>  (45) 
3

$$$$

     RDKit          3D

 39 41  0  0  0  0  0  0  0  0999 V2000
  140.3010   68.1460  228.6180 N   0  0  0  0  0  0  0  0  0  0  0  0
  140.5050   68.8490  227.7490 C   0  0  0  0  0  0  0  0  0  0  0  0
  140.7880   69.7270  226.6540 C   0  0  2  0  0  0  0  0  0  0  0  0
  140.5420   71.2000  227.0160 C   0  0  0  0  0  0  0  0  0  0  0  0
  140.8380   71.8110  225.6410 C   0  0  0  0  0  0  0  0  0  0  0  0
  140.2310   70.8000  224.6930 C   0  0  0  0  0  0  0  0  0  0  0  0
  139.9200   69.6160  225.5140 N   0  0  0  0  0  0  0  0  0  0  0  0
  138.9580   68.6720  225.1220 C   0  0  0  0  0  0  0  0  0  0  0  0
  139.1060   67.4860  225.5700 O   0  0  0  0  0  0  0  0  0  0  0  0
  137.8040   68.9120  224.2550 C   0  0  0  0  0  0  0  0  0  0  0  0
  136.9200   69.9470  224.8130 N   0  0  0  0  0  0  0  0  0  0  0  0
  135.5550   69.6480  225.0940 C   0  0  0  0  0  0  0  0  0  0  0  0
  135.0750   68.5050  224.8750 O   0  0  0  0  0  0  0  0  0  0  0  0
  134.7380   70.7260  225.6460 C   0  0  0  0  0  0  0  0  0  0  0  0
  133.6900   70.4370  226.5090 C   0  0  0  0  0  0  0  0  0  0  0  0
  132.8990   71.4360  227.0500 C   0  0  0  0  0  0  0  0  0  0  0  0
  133.1920   72.7400  226.6960 C   0  0  0  0  0  0  0  0  0  0  0  0
  132.4310   73.7670  227.2100 C   0  0  0  0  0  0  0  0  0  0  0  0
  132.7140   75.0870  226.8630 C   0  0  0  0  0  0  0  0  0  0  0  0
  133.7540   75.4090  226.0040 C   0  0  0  0  0  0  0  0  0  0  0  0
  134.4910   74.3420  225.5130 C   0  0  0  0  0  0  0  0  0  0  0  0
  134.2280   73.0350  225.8430 C   0  0  0  0  0  0  0  0  0  0  0  0
  134.9510   72.0240  225.3590 N   0  0  0  0  0  0  0  0  0  0  0  0
  141.8255   69.4378  226.4306 H   0  0  0  0  0  0  0  0  0  0  0  0
  139.5063   71.3823  227.3385 H   0  0  0  0  0  0  0  0  0  0  0  0
  141.1315   71.5951  227.8565 H   0  0  0  0  0  0  0  0  0  0  0  0
  140.3586   72.7951  225.5322 H   0  0  0  0  0  0  0  0  0  0  0  0
  141.9087   71.9898  225.4630 H   0  0  0  0  0  0  0  0  0  0  0  0
  139.3137   71.2031  224.2391 H   0  0  0  0  0  0  0  0  0  0  0  0
  140.9181   70.5531  223.8702 H   0  0  0  0  0  0  0  0  0  0  0  0
  138.1603   69.2400  223.2674 H   0  0  0  0  0  0  0  0  0  0  0  0
  137.2322   67.9759  224.1723 H   0  0  0  0  0  0  0  0  0  0  0  0
  137.3220   70.9080  224.9970 H   0  0  0  0  0  0  0  0  0  0  0  0
  133.4829   69.3885  226.7694 H   0  0  0  0  0  0  0  0  0  0  0  0
  132.0703   71.2017  227.7343 H   0  0  0  0  0  0  0  0  0  0  0  0
  131.5993   73.5451  227.8949 H   0  0  0  0  0  0  0  0  0  0  0  0
  132.0959   75.8949  227.2817 H   0  0  0  0  0  0  0  0  0  0  0  0
  133.9809   76.4495  225.7284 H   0  0  0  0  0  0  0  0  0  0  0  0
  135.3251   74.5521  224.8273 H   0  0  0  0  0  0  0  0  0  0  0  0
  1  2  3  0
  2  3  1  0
  3  4  1  0
  4  5  1  0
  5  6  1  0
  6  7  1  0
  7  8  1  0
  8  9  2  0
  8 10  1  0
 10 11  1  0
 11 12  1  0
 12 13  2  0
 12 14  1  0
 14 15  2  0
 15 16  1  0
 16 17  2  0
 17 18  1  0
 18 19  2  0
 19 20  1  0
 20 21  2  0
 21 22  1  0
 22 23  2  0
  7  3  1  0
 23 14  1  0
 22 17  1  0
  3 24  1  6
  4 25  1  0
  4 26  1  0
  5 27  1  0
  5 28  1  0
  6 29  1  0
  6 30  1  0
 10 31  1  0
 10 32  1  0
 11 33  1  0
 15 34  1  0
 16 35  1  0
 18 36  1  0
 19 37  1  0
 20 38  1  0
 21 39  1  0
M  END
>  <smiles>  (46) 
N#C[C@@H]1CCCN1C(=O)CNC(=O)c1ccc2ccccc2n1

>  <score_type>  (46) 
oracle

>  <origin>  (46) 
autodockgpu

>  <m_score__min__energy>  (46) 
-7.3799999999999999

>  <m_primary>  (46) 
energy

>  <rmsd>  (46) 
7.942105508565119

>  <m_score__min__rmsd>  (46) 
7.942105508565119

>  <meeko>  (46) 
{"free_energy": -6.79, "intermolecular_energy": -8.28, "internal_energy": -1.14, "cluster_size": 13, "cluster_id": 3, "rank_in_cluster": 13}

>  <energy>  (46) 
-6.91

>  <cluster_rmsd>  (46) 
0.16

>  <cluster>  (46) 
3

$$$$

     RDKit          3D

 39 41  0  0  0  0  0  0  0  0999 V2000
  139.2190   67.3890  226.0160 N   0  0  0  0  0  0  0  0  0  0  0  0
  139.7890   68.3470  226.2310 C   0  0  0  0  0  0  0  0  0  0  0  0
  140.5240   69.5500  226.4830 C   0  0  2  0  0  0  0  0  0  0  0  0
  140.2010   70.1470  227.8620 C   0  0  0  0  0  0  0  0  0  0  0  0
  141.0540   71.4180  227.7500 C   0  0  0  0  0  0  0  0  0  0  0  0
  140.8530   71.8230  226.3070 C   0  0  0  0  0  0  0  0  0  0  0  0
  140.1950   70.6780  225.6550 N   0  0  0  0  0  0  0  0  0  0  0  0
  139.4450   70.8240  224.4770 C   0  0  0  0  0  0  0  0  0  0  0  0
  138.1750   70.8150  224.6040 O   0  0  0  0  0  0  0  0  0  0  0  0
  139.9730   70.9860  223.1210 C   0  0  0  0  0  0  0  0  0  0  0  0
  140.1890   72.4040  222.7960 N   0  0  0  0  0  0  0  0  0  0  0  0
  140.9310   72.7680  221.6350 C   0  0  0  0  0  0  0  0  0  0  0  0
  141.4150   71.8970  220.8660 O   0  0  0  0  0  0  0  0  0  0  0  0
  141.1050   74.1960  221.3780 C   0  0  0  0  0  0  0  0  0  0  0  0
  141.9670   74.6250  220.3790 C   0  0  0  0  0  0  0  0  0  0  0  0
  142.1520   75.9710  220.1100 C   0  0  0  0  0  0  0  0  0  0  0  0
  141.4450   76.8760  220.8790 C   0  0  0  0  0  0  0  0  0  0  0  0
  141.5980   78.2250  220.6470 C   0  0  0  0  0  0  0  0  0  0  0  0
  140.8910   79.1500  221.4140 C   0  0  0  0  0  0  0  0  0  0  0  0
  140.0220   78.7530  222.4190 C   0  0  0  0  0  0  0  0  0  0  0  0
  139.9010   77.3860  222.6150 C   0  0  0  0  0  0  0  0  0  0  0  0
  140.5890   76.4580  221.8700 C   0  0  0  0  0  0  0  0  0  0  0  0
  140.4570   75.1470  222.0750 N   0  0  0  0  0  0  0  0  0  0  0  0
  141.5517   69.1905  226.3263 H   0  0  0  0  0  0  0  0  0  0  0  0
  139.1306   70.3725  227.9780 H   0  0  0  0  0  0  0  0  0  0  0  0
  140.4085   69.5013  228.7280 H   0  0  0  0  0  0  0  0  0  0  0  0
  140.6945   72.1994  228.4357 H   0  0  0  0  0  0  0  0  0  0  0  0
  142.1094   71.2621  228.0181 H   0  0  0  0  0  0  0  0  0  0  0  0
  140.2149   72.7169  226.2457 H   0  0  0  0  0  0  0  0  0  0  0  0
  141.8076   72.0714  225.8202 H   0  0  0  0  0  0  0  0  0  0  0  0
  140.9310   70.4510  223.0435 H   0  0  0  0  0  0  0  0  0  0  0  0
  139.2388   70.5759  222.4119 H   0  0  0  0  0  0  0  0  0  0  0  0
  139.7830   73.1370  223.4420 H   0  0  0  0  0  0  0  0  0  0  0  0
  142.5164   73.8785  219.7867 H   0  0  0  0  0  0  0  0  0  0  0  0
  142.8348   76.3066  219.3155 H   0  0  0  0  0  0  0  0  0  0  0  0
  142.2786   78.5728  219.8559 H   0  0  0  0  0  0  0  0  0  0  0  0
  141.0262   80.2237  221.2166 H   0  0  0  0  0  0  0  0  0  0  0  0
  139.4616   79.4800  223.0251 H   0  0  0  0  0  0  0  0  0  0  0  0
  139.2229   77.0272  223.4033 H   0  0  0  0  0  0  0  0  0  0  0  0
  1  2  3  0
  2  3  1  0
  3  4  1  0
  4  5  1  0
  5  6  1  0
  6  7  1  0
  7  8  1  0
  8  9  2  0
  8 10  1  0
 10 11  1  0
 11 12  1  0
 12 13  2  0
 12 14  1  0
 14 15  2  0
 15 16  1  0
 16 17  2  0
 17 18  1  0
 18 19  2  0
 19 20  1  0
 20 21  2  0
 21 22  1  0
 22 23  2  0
  7  3  1  0
 23 14  1  0
 22 17  1  0
  3 24  1  1
  4 25  1  0
  4 26  1  0
  5 27  1  0
  5 28  1  0
  6 29  1  0
  6 30  1  0
 10 31  1  0
 10 32  1  0
 11 33  1  0
 15 34  1  0
 16 35  1  0
 18 36  1  0
 19 37  1  0
 20 38  1  0
 21 39  1  0
M  END
>  <smiles>  (47) 
N#C[C@@H]1CCCN1C(=O)CNC(=O)c1ccc2ccccc2n1

>  <score_type>  (47) 
oracle

>  <origin>  (47) 
autodockgpu

>  <m_score__min__energy>  (47) 
-7.3799999999999999

>  <m_primary>  (47) 
energy

>  <rmsd>  (47) 
8.56445447726583

>  <m_score__min__rmsd>  (47) 
8.56445447726583

>  <meeko>  (47) 
{"free_energy": -7.38, "intermolecular_energy": -8.88, "internal_energy": -1.2, "cluster_size": 28, "cluster_id": 1, "rank_in_cluster": 1}

>  <energy>  (47) 
-6.9

>  <cluster_rmsd>  (47) 
0.06

>  <cluster>  (47) 
3

$$$$

     RDKit          3D

 39 41  0  0  0  0  0  0  0  0999 V2000
  143.0390   70.2570  220.1000 N   0  0  0  0  0  0  0  0  0  0  0  0
  143.5910   71.2440  219.9960 C   0  0  0  0  0  0  0  0  0  0  0  0
  144.2740   72.4980  219.8870 C   0  0  2  0  0  0  0  0  0  0  0  0
  145.3170   72.6870  220.9990 C   0  0  0  0  0  0  0  0  0  0  0  0
  145.7590   74.1110  220.6390 C   0  0  0  0  0  0  0  0  0  0  0  0
  144.4580   74.7670  220.2340 C   0  0  0  0  0  0  0  0  0  0  0  0
  143.4780   73.6740  220.1060 N   0  0  0  0  0  0  0  0  0  0  0  0
  142.0960   73.9000  220.2000 C   0  0  0  0  0  0  0  0  0  0  0  0
  141.7310   75.0900  220.4780 O   0  0  0  0  0  0  0  0  0  0  0  0
  141.0360   72.9090  220.0080 C   0  0  0  0  0  0  0  0  0  0  0  0
  140.9020   72.0330  221.1810 N   0  0  0  0  0  0  0  0  0  0  0  0
  140.3260   72.5310  222.3860 C   0  0  0  0  0  0  0  0  0  0  0  0
  139.9220   73.7200  222.4770 O   0  0  0  0  0  0  0  0  0  0  0  0
  140.2270   71.6020  223.5090 C   0  0  0  0  0  0  0  0  0  0  0  0
  139.6440   70.3550  223.3340 C   0  0  0  0  0  0  0  0  0  0  0  0
  139.5360   69.4520  224.3780 C   0  0  0  0  0  0  0  0  0  0  0  0
  140.0310   69.8400  225.6080 C   0  0  0  0  0  0  0  0  0  0  0  0
  139.9460   68.9740  226.6760 C   0  0  0  0  0  0  0  0  0  0  0  0
  140.4410   69.3500  227.9230 C   0  0  0  0  0  0  0  0  0  0  0  0
  141.0300   70.5890  228.1310 C   0  0  0  0  0  0  0  0  0  0  0  0
  141.0940   71.4260  227.0270 C   0  0  0  0  0  0  0  0  0  0  0  0
  140.6110   71.0730  225.7900 C   0  0  0  0  0  0  0  0  0  0  0  0
  140.6830   71.8940  224.7410 N   0  0  0  0  0  0  0  0  0  0  0  0
  144.6545   72.4268  218.8574 H   0  0  0  0  0  0  0  0  0  0  0  0
  144.8705   72.6307  222.0027 H   0  0  0  0  0  0  0  0  0  0  0  0
  146.1151   71.9314  221.0451 H   0  0  0  0  0  0  0  0  0  0  0  0
  146.2070   74.6189  221.5058 H   0  0  0  0  0  0  0  0  0  0  0  0
  146.5293   74.1451  219.8545 H   0  0  0  0  0  0  0  0  0  0  0  0
  144.1344   75.4829  221.0039 H   0  0  0  0  0  0  0  0  0  0  0  0
  144.5636   75.3273  219.2933 H   0  0  0  0  0  0  0  0  0  0  0  0
  140.0828   73.4322  219.8412 H   0  0  0  0  0  0  0  0  0  0  0  0
  141.2969   72.2868  219.1392 H   0  0  0  0  0  0  0  0  0  0  0  0
  141.2410   71.0340  221.1050 H   0  0  0  0  0  0  0  0  0  0  0  0
  139.2584   70.0772  222.3420 H   0  0  0  0  0  0  0  0  0  0  0  0
  139.0741   68.4642  224.2337 H   0  0  0  0  0  0  0  0  0  0  0  0
  139.4863   67.9834  226.5440 H   0  0  0  0  0  0  0  0  0  0  0  0
  140.3628   68.6461  228.7647 H   0  0  0  0  0  0  0  0  0  0  0  0
  141.4230   70.8896  229.1135 H   0  0  0  0  0  0  0  0  0  0  0  0
  141.5527   72.4185  227.1472 H   0  0  0  0  0  0  0  0  0  0  0  0
  1  2  3  0
  2  3  1  0
  3  4  1  0
  4  5  1  0
  5  6  1  0
  6  7  1  0
  7  8  1  0
  8  9  2  0
  8 10  1  0
 10 11  1  0
 11 12  1  0
 12 13  2  0
 12 14  1  0
 14 15  2  0
 15 16  1  0
 16 17  2  0
 17 18  1  0
 18 19  2  0
 19 20  1  0
 20 21  2  0
 21 22  1  0
 22 23  2  0
  7  3  1  0
 23 14  1  0
 22 17  1  0
  3 24  1  6
  4 25  1  0
  4 26  1  0
  5 27  1  0
  5 28  1  0
  6 29  1  0
  6 30  1  0
 10 31  1  0
 10 32  1  0
 11 33  1  0
 15 34  1  0
 16 35  1  0
 18 36  1  0
 19 37  1  0
 20 38  1  0
 21 39  1  0
M  END
>  <smiles>  (48) 
N#C[C@@H]1CCCN1C(=O)CNC(=O)c1ccc2ccccc2n1

>  <score_type>  (48) 
oracle

>  <origin>  (48) 
autodockgpu

>  <m_score__min__energy>  (48) 
-7.3799999999999999

>  <m_primary>  (48) 
energy

>  <rmsd>  (48) 
4.047464569606208

>  <m_score__min__rmsd>  (48) 
4.047464569606208

>  <meeko>  (48) 
{"free_energy": -6.61, "intermolecular_energy": -8.11, "internal_energy": -1.58, "cluster_size": 9, "cluster_id": 2, "rank_in_cluster": 9}

>  <energy>  (48) 
-6.88

>  <cluster_rmsd>  (48) 
0.15

>  <cluster>  (48) 
3

$$$$

     RDKit          3D

 39 41  0  0  0  0  0  0  0  0999 V2000
  139.2010   67.3860  226.0330 N   0  0  0  0  0  0  0  0  0  0  0  0
  139.7880   68.3420  226.2110 C   0  0  0  0  0  0  0  0  0  0  0  0
  140.5200   69.5560  226.4130 C   0  0  2  0  0  0  0  0  0  0  0  0
  140.2520   70.1690  227.7960 C   0  0  0  0  0  0  0  0  0  0  0  0
  141.0850   71.4470  227.6300 C   0  0  0  0  0  0  0  0  0  0  0  0
  140.8170   71.8290  226.1910 C   0  0  0  0  0  0  0  0  0  0  0  0
  140.1430   70.6680  225.5840 N   0  0  0  0  0  0  0  0  0  0  0  0
  139.3410   70.7890  224.4380 C   0  0  0  0  0  0  0  0  0  0  0  0
  138.0790   70.7500  224.6200 O   0  0  0  0  0  0  0  0  0  0  0  0
  139.8070   70.9570  223.0610 C   0  0  0  0  0  0  0  0  0  0  0  0
  140.0130   72.3760  222.7340 N   0  0  0  0  0  0  0  0  0  0  0  0
  141.0000   72.7550  221.7770 C   0  0  0  0  0  0  0  0  0  0  0  0
  141.7120   71.8960  221.1940 O   0  0  0  0  0  0  0  0  0  0  0  0
  141.1470   74.1830  221.5050 C   0  0  0  0  0  0  0  0  0  0  0  0
  142.0210   74.6190  220.5190 C   0  0  0  0  0  0  0  0  0  0  0  0
  142.1820   75.9650  220.2370 C   0  0  0  0  0  0  0  0  0  0  0  0
  141.4380   76.8630  220.9770 C   0  0  0  0  0  0  0  0  0  0  0  0
  141.5650   78.2130  220.7310 C   0  0  0  0  0  0  0  0  0  0  0  0
  140.8210   79.1310  221.4690 C   0  0  0  0  0  0  0  0  0  0  0  0
  139.9390   78.7280  222.4600 C   0  0  0  0  0  0  0  0  0  0  0  0
  139.8450   77.3600  222.6710 C   0  0  0  0  0  0  0  0  0  0  0  0
  140.5700   76.4390  221.9550 C   0  0  0  0  0  0  0  0  0  0  0  0
  140.4630   75.1280  222.1750 N   0  0  0  0  0  0  0  0  0  0  0  0
  141.5438   69.2052  226.2160 H   0  0  0  0  0  0  0  0  0  0  0  0
  139.1854   70.3850  227.9561 H   0  0  0  0  0  0  0  0  0  0  0  0
  140.5049   69.5375  228.6605 H   0  0  0  0  0  0  0  0  0  0  0  0
  140.7466   72.2343  228.3197 H   0  0  0  0  0  0  0  0  0  0  0  0
  142.1526   71.3064  227.8544 H   0  0  0  0  0  0  0  0  0  0  0  0
  140.1675   72.7156  226.1451 H   0  0  0  0  0  0  0  0  0  0  0  0
  141.7470   72.0795  225.6596 H   0  0  0  0  0  0  0  0  0  0  0  0
  140.7586   70.4193  222.9370 H   0  0  0  0  0  0  0  0  0  0  0  0
  139.0397   70.5534  222.3840 H   0  0  0  0  0  0  0  0  0  0  0  0
  139.4150   73.0980  223.2240 H   0  0  0  0  0  0  0  0  0  0  0  0
  142.5994   73.8778  219.9481 H   0  0  0  0  0  0  0  0  0  0  0  0
  142.8755   76.3058  219.4541 H   0  0  0  0  0  0  0  0  0  0  0  0
  142.2550   78.5664  219.9506 H   0  0  0  0  0  0  0  0  0  0  0  0
  140.9364   80.2047  221.2598 H   0  0  0  0  0  0  0  0  0  0  0  0
  139.3491   79.4498  223.0440 H   0  0  0  0  0  0  0  0  0  0  0  0
  139.1573   76.9957  223.4485 H   0  0  0  0  0  0  0  0  0  0  0  0
  1  2  3  0
  2  3  1  0
  3  4  1  0
  4  5  1  0
  5  6  1  0
  6  7  1  0
  7  8  1  0
  8  9  2  0
  8 10  1  0
 10 11  1  0
 11 12  1  0
 12 13  2  0
 12 14  1  0
 14 15  2  0
 15 16  1  0
 16 17  2  0
 17 18  1  0
 18 19  2  0
 19 20  1  0
 20 21  2  0
 21 22  1  0
 22 23  2  0
  7  3  1  0
 23 14  1  0
 22 17  1  0
  3 24  1  1
  4 25  1  0
  4 26  1  0
  5 27  1  0
  5 28  1  0
  6 29  1  0
  6 30  1  0
 10 31  1  0
 10 32  1  0
 11 33  1  0
 15 34  1  0
 16 35  1  0
 18 36  1  0
 19 37  1  0
 20 38  1  0
 21 39  1  0
M  END
>  <smiles>  (49) 
N#C[C@@H]1CCCN1C(=O)CNC(=O)c1ccc2ccccc2n1

>  <score_type>  (49) 
oracle

>  <origin>  (49) 
autodockgpu

>  <m_score__min__energy>  (49) 
-7.3799999999999999

>  <m_primary>  (49) 
energy

>  <rmsd>  (49) 
8.51146141857937

>  <m_score__min__rmsd>  (49) 
8.51146141857937

>  <meeko>  (49) 
{"free_energy": -7.35, "intermolecular_energy": -8.84, "internal_energy": -1.24, "cluster_size": 28, "cluster_id": 1, "rank_in_cluster": 8}

>  <energy>  (49) 
-6.87

>  <cluster_rmsd>  (49) 
0.1

>  <cluster>  (49) 
3

$$$$

     RDKit          3D

 39 41  0  0  0  0  0  0  0  0999 V2000
  139.2250   67.4530  225.3680 N   0  0  0  0  0  0  0  0  0  0  0  0
  139.7510   68.3660  225.7930 C   0  0  0  0  0  0  0  0  0  0  0  0
  140.4350   69.5030  226.3320 C   0  0  2  0  0  0  0  0  0  0  0  0
  139.8110   69.9810  227.6520 C   0  0  0  0  0  0  0  0  0  0  0  0
  140.6970   71.2140  227.8740 C   0  0  0  0  0  0  0  0  0  0  0  0
  140.8520   71.7640  226.4730 C   0  0  0  0  0  0  0  0  0  0  0  0
  140.3380   70.7180  225.5710 N   0  0  0  0  0  0  0  0  0  0  0  0
  139.8910   71.0110  224.2720 C   0  0  0  0  0  0  0  0  0  0  0  0
  140.6270   71.7890  223.5790 O   0  0  0  0  0  0  0  0  0  0  0  0
  138.6710   70.5130  223.6370 C   0  0  0  0  0  0  0  0  0  0  0  0
  137.4680   71.0210  224.3150 N   0  0  0  0  0  0  0  0  0  0  0  0
  136.3690   70.1500  224.5720 C   0  0  0  0  0  0  0  0  0  0  0  0
  136.3980   68.9390  224.2310 O   0  0  0  0  0  0  0  0  0  0  0  0
  135.2090   70.7270  225.2480 C   0  0  0  0  0  0  0  0  0  0  0  0
  134.2540   69.9000  225.8230 C   0  0  0  0  0  0  0  0  0  0  0  0
  133.1440   70.4160  226.4710 C   0  0  0  0  0  0  0  0  0  0  0  0
  133.0210   71.7910  226.5240 C   0  0  0  0  0  0  0  0  0  0  0  0
  131.9330   72.3490  227.1590 C   0  0  0  0  0  0  0  0  0  0  0  0
  131.7950   73.7350  227.2210 C   0  0  0  0  0  0  0  0  0  0  0  0
  132.7320   74.5880  226.6570 C   0  0  0  0  0  0  0  0  0  0  0  0
  133.8090   73.9800  226.0300 C   0  0  0  0  0  0  0  0  0  0  0  0
  133.9630   72.6170  225.9580 C   0  0  0  0  0  0  0  0  0  0  0  0
  135.0070   72.0540  225.3490 N   0  0  0  0  0  0  0  0  0  0  0  0
  141.4617   69.1114  226.3825 H   0  0  0  0  0  0  0  0  0  0  0  0
  138.7494   70.2459  227.5390 H   0  0  0  0  0  0  0  0  0  0  0  0
  139.7925   69.2465  228.4707 H   0  0  0  0  0  0  0  0  0  0  0  0
  140.2051   71.9429  228.5348 H   0  0  0  0  0  0  0  0  0  0  0  0
  141.6552   70.9827  228.3622 H   0  0  0  0  0  0  0  0  0  0  0  0
  140.2684   72.6893  226.3582 H   0  0  0  0  0  0  0  0  0  0  0  0
  141.9001   72.0118  226.2494 H   0  0  0  0  0  0  0  0  0  0  0  0
  138.6550   70.8397  222.5868 H   0  0  0  0  0  0  0  0  0  0  0  0
  138.6689   69.4150  223.7038 H   0  0  0  0  0  0  0  0  0  0  0  0
  137.4430   72.0390  224.6010 H   0  0  0  0  0  0  0  0  0  0  0  0
  134.3817   68.8091  225.7626 H   0  0  0  0  0  0  0  0  0  0  0  0
  132.3899   69.7568  226.9256 H   0  0  0  0  0  0  0  0  0  0  0  0
  131.1723   71.7002  227.6176 H   0  0  0  0  0  0  0  0  0  0  0  0
  130.9195   74.1635  227.7309 H   0  0  0  0  0  0  0  0  0  0  0  0
  132.6270   75.6820  226.7043 H   0  0  0  0  0  0  0  0  0  0  0  0
  134.5761   74.6193  225.5686 H   0  0  0  0  0  0  0  0  0  0  0  0
  1  2  3  0
  2  3  1  0
  3  4  1  0
  4  5  1  0
  5  6  1  0
  6  7  1  0
  7  8  1  0
  8  9  2  0
  8 10  1  0
 10 11  1  0
 11 12  1  0
 12 13  2  0
 12 14  1  0
 14 15  2  0
 15 16  1  0
 16 17  2  0
 17 18  1  0
 18 19  2  0
 19 20  1  0
 20 21  2  0
 21 22  1  0
 22 23  2  0
  7  3  1  0
 23 14  1  0
 22 17  1  0
  3 24  1  1
  4 25  1  0
  4 26  1  0
  5 27  1  0
  5 28  1  0
  6 29  1  0
  6 30  1  0
 10 31  1  0
 10 32  1  0
 11 33  1  0
 15 34  1  0
 16 35  1  0
 18 36  1  0
 19 37  1  0
 20 38  1  0
 21 39  1  0
M  END
>  <smiles>  (50) 
N#C[C@@H]1CCCN1C(=O)CNC(=O)c1ccc2ccccc2n1

>  <score_type>  (50) 
oracle

>  <origin>  (50) 
autodockgpu

>  <m_score__min__energy>  (50) 
-7.3799999999999999

>  <m_primary>  (50) 
energy

>  <rmsd>  (50) 
8.001729017403946

>  <m_score__min__rmsd>  (50) 
8.001729017403946

>  <meeko>  (50) 
{"free_energy": -6.93, "intermolecular_energy": -8.42, "internal_energy": -1.4, "cluster_size": 13, "cluster_id": 3, "rank_in_cluster": 3}

>  <energy>  (50) 
-6.79

>  <cluster_rmsd>  (50) 
1.4

>  <cluster>  (50) 
3

$$$$
