
     RDKit          3D

 44 47  0  0  0  0  0  0  0  0999 V2000
  140.9970   71.8990  221.2460 O   0  0  0  0  0  0  0  0  0  0  0  0
  140.3210   72.3270  222.2360 C   0  0  0  0  0  0  0  0  0  0  0  0
  139.6620   73.6090  222.1840 N   0  0  0  0  0  0  0  0  0  0  0  0
  139.7520   74.4500  220.9960 C   0  0  0  0  0  0  0  0  0  0  0  0
  140.9350   75.3010  221.1790 C   0  0  0  0  0  0  0  0  0  0  0  0
  141.3440   75.6290  222.3450 O   0  0  0  0  0  0  0  0  0  0  0  0
  141.7180   75.8310  220.1030 N   0  0  0  0  0  0  0  0  0  0  0  0
  141.5840   77.2490  219.7260 C   0  0  0  0  0  0  0  0  0  0  0  0
  142.1450   77.2350  218.2930 C   0  0  0  0  0  0  0  0  0  0  0  0
  143.3310   76.3270  218.5270 C   0  0  0  0  0  0  0  0  0  0  0  0
  142.6800   75.1780  219.2540 C   0  0  1  0  0  0  0  0  0  0  0  0
  143.6750   74.3590  219.9890 C   0  0  0  0  0  0  0  0  0  0  0  0
  144.8800   74.6980  220.4830 N   0  0  0  0  0  0  0  0  0  0  0  0
  145.4280   73.6480  221.0750 N   0  0  0  0  0  0  0  0  0  0  0  0
  144.5570   72.6440  220.9500 C   0  0  0  0  0  0  0  0  0  0  0  0
  143.4490   73.0450  220.2780 N   0  0  0  0  0  0  0  0  0  0  0  0
  140.2010   71.5200  223.4490 C   0  0  0  0  0  0  0  0  0  0  0  0
  139.5760   70.2910  223.3800 C   0  0  0  0  0  0  0  0  0  0  0  0
  139.4220   69.4660  224.4790 C   0  0  0  0  0  0  0  0  0  0  0  0
  139.9270   69.9220  225.6940 C   0  0  0  0  0  0  0  0  0  0  0  0
  139.7780   69.1140  226.7850 C   0  0  0  0  0  0  0  0  0  0  0  0
  140.2690   69.5440  227.9950 C   0  0  0  0  0  0  0  0  0  0  0  0
  140.1140   68.7310  229.0690 F   0  0  0  0  0  0  0  0  0  0  0  0
  140.8950   70.7750  228.0680 C   0  0  0  0  0  0  0  0  0  0  0  0
  141.0500   71.6010  226.9670 C   0  0  0  0  0  0  0  0  0  0  0  0
  140.5500   71.1530  225.7550 C   0  0  0  0  0  0  0  0  0  0  0  0
  140.6750   71.9220  224.6450 N   0  0  0  0  0  0  0  0  0  0  0  0
  139.1270   73.8880  223.0400 H   0  0  0  0  0  0  0  0  0  0  0  0
  139.8669   73.8270  220.0967 H   0  0  0  0  0  0  0  0  0  0  0  0
  138.8423   75.0545  220.8655 H   0  0  0  0  0  0  0  0  0  0  0  0
  140.5328   77.5727  219.7437 H   0  0  0  0  0  0  0  0  0  0  0  0
  142.0985   77.9457  220.4041 H   0  0  0  0  0  0  0  0  0  0  0  0
  141.4317   76.8081  217.5726 H   0  0  0  0  0  0  0  0  0  0  0  0
  142.3747   78.2196  217.8598 H   0  0  0  0  0  0  0  0  0  0  0  0
  143.7821   76.0003  217.5784 H   0  0  0  0  0  0  0  0  0  0  0  0
  144.1593   76.7982  219.0765 H   0  0  0  0  0  0  0  0  0  0  0  0
  142.2005   74.4452  218.5884 H   0  0  0  0  0  0  0  0  0  0  0  0
  144.7165   71.6278  221.3397 H   0  0  0  0  0  0  0  0  0  0  0  0
  142.6030   72.4900  220.0290 H   0  0  0  0  0  0  0  0  0  0  0  0
  139.1837   69.9536  222.4093 H   0  0  0  0  0  0  0  0  0  0  0  0
  138.9213   68.4900  224.3969 H   0  0  0  0  0  0  0  0  0  0  0  0
  139.2756   68.1394  226.6974 H   0  0  0  0  0  0  0  0  0  0  0  0
  141.2856   71.1117  229.0396 H   0  0  0  0  0  0  0  0  0  0  0  0
  141.5514   72.5764  227.0517 H   0  0  0  0  0  0  0  0  0  0  0  0
  1  2  2  0
  2  3  1  0
  3  4  1  0
  4  5  1  0
  5  6  2  0
  5  7  1  0
  7  8  1  0
  8  9  1  0
  9 10  1  0
 10 11  1  0
 11 12  1  0
 12 13  2  0
 13 14  1  0
 14 15  2  0
 15 16  1  0
  2 17  1  0
 17 18  2  0
 18 19  1  0
 19 20  2  0
 20 21  1  0
 21 22  2  0
 22 23  1  0
 22 24  1  0
 24 25  2  0
 25 26  1  0
 26 27  2  0
 11  7  1  0
 16 12  1  0
 27 17  1  0
 26 20  1  0
  3 28  1  0
  4 29  1  0
  4 30  1  0
  8 31  1  0
  8 32  1  0
  9 33  1  0
  9 34  1  0
 10 35  1  0
 10 36  1  0
 11 37  1  6
 15 38  1  0
 16 39  1  0
 18 40  1  0
 19 41  1  0
 21 42  1  0
 24 43  1  0
 25 44  1  0
M  END
>  <smiles>  (1) 
O=C(NCC(=O)N1CCC[C@H]1c1nnc[nH]1)c1ccc2cc(F)ccc2n1

>  <score_type>  (1) 
oracle

>  <origin>  (1) 
autodockgpu

>  <m_score__min__energy>  (1) 
-7.8399999999999999

>  <m_primary>  (1) 
energy

>  <rmsd>  (1) 
3.0038789693435657

>  <m_score__min__rmsd>  (1) 
3.0038789693435657

>  <meeko>  (1) 
{"free_energy": -7.57, "intermolecular_energy": -9.07, "internal_energy": -2.22, "cluster_size": 23, "cluster_id": 1, "rank_in_cluster": 15}

>  <energy>  (1) 
-7.84

>  <cluster_rmsd>  (1) 
0.0

>  <cluster>  (1) 
1

$$$$

     RDKit          3D

 44 47  0  0  0  0  0  0  0  0999 V2000
  140.7780   71.6900  221.1400 O   0  0  0  0  0  0  0  0  0  0  0  0
  140.3310   72.2560  222.1890 C   0  0  0  0  0  0  0  0  0  0  0  0
  139.9730   73.6530  222.1810 N   0  0  0  0  0  0  0  0  0  0  0  0
  140.1130   74.4550  220.9700 C   0  0  0  0  0  0  0  0  0  0  0  0
  140.3020   75.8440  221.4130 C   0  0  0  0  0  0  0  0  0  0  0  0
  140.0020   76.2090  222.6000 O   0  0  0  0  0  0  0  0  0  0  0  0
  140.8210   76.8870  220.5810 N   0  0  0  0  0  0  0  0  0  0  0  0
  140.3270   77.0410  219.2010 C   0  0  0  0  0  0  0  0  0  0  0  0
  141.4650   77.8570  218.5620 C   0  0  0  0  0  0  0  0  0  0  0  0
  141.7070   78.8280  219.6960 C   0  0  0  0  0  0  0  0  0  0  0  0
  141.8170   77.8860  220.8690 C   0  0  1  0  0  0  0  0  0  0  0  0
  141.6130   78.5890  222.1580 C   0  0  0  0  0  0  0  0  0  0  0  0
  142.5000   79.2140  222.9540 N   0  0  0  0  0  0  0  0  0  0  0  0
  141.8750   79.7130  224.0100 N   0  0  0  0  0  0  0  0  0  0  0  0
  140.5860   79.3970  223.8720 C   0  0  0  0  0  0  0  0  0  0  0  0
  140.3790   78.6950  222.7300 N   0  0  0  0  0  0  0  0  0  0  0  0
  140.1730   71.4940  223.4260 C   0  0  0  0  0  0  0  0  0  0  0  0
  139.4790   70.3000  223.3960 C   0  0  0  0  0  0  0  0  0  0  0  0
  139.2850   69.5190  224.5200 C   0  0  0  0  0  0  0  0  0  0  0  0
  139.8210   69.9820  225.7190 C   0  0  0  0  0  0  0  0  0  0  0  0
  139.6330   69.2160  226.8340 C   0  0  0  0  0  0  0  0  0  0  0  0
  140.1550   69.6530  228.0290 C   0  0  0  0  0  0  0  0  0  0  0  0
  139.9600   68.8830  229.1280 F   0  0  0  0  0  0  0  0  0  0  0  0
  140.8500   70.8490  228.0620 C   0  0  0  0  0  0  0  0  0  0  0  0
  141.0450   71.6310  226.9360 C   0  0  0  0  0  0  0  0  0  0  0  0
  140.5140   71.1760  225.7400 C   0  0  0  0  0  0  0  0  0  0  0  0
  140.6760   71.9040  224.6070 N   0  0  0  0  0  0  0  0  0  0  0  0
  139.6140   74.0430  223.0840 H   0  0  0  0  0  0  0  0  0  0  0  0
  140.9847   74.1187  220.3894 H   0  0  0  0  0  0  0  0  0  0  0  0
  139.2285   74.3591  220.3231 H   0  0  0  0  0  0  0  0  0  0  0  0
  140.2037   76.0662  218.7064 H   0  0  0  0  0  0  0  0  0  0  0  0
  139.3370   77.5147  219.1274 H   0  0  0  0  0  0  0  0  0  0  0  0
  142.3497   77.2389  218.3494 H   0  0  0  0  0  0  0  0  0  0  0  0
  141.2388   78.3094  217.5852 H   0  0  0  0  0  0  0  0  0  0  0  0
  142.6363   79.3976  219.5477 H   0  0  0  0  0  0  0  0  0  0  0  0
  140.9285   79.5973  219.8059 H   0  0  0  0  0  0  0  0  0  0  0  0
  142.8147   77.4383  220.9885 H   0  0  0  0  0  0  0  0  0  0  0  0
  139.7969   79.6693  224.5884 H   0  0  0  0  0  0  0  0  0  0  0  0
  139.4850   78.3140  222.3540 H   0  0  0  0  0  0  0  0  0  0  0  0
  139.0632   69.9562  222.4374 H   0  0  0  0  0  0  0  0  0  0  0  0
  138.7300   68.5706  224.4694 H   0  0  0  0  0  0  0  0  0  0  0  0
  139.0757   68.2693  226.7774 H   0  0  0  0  0  0  0  0  0  0  0  0
  141.2643   71.1924  229.0214 H   0  0  0  0  0  0  0  0  0  0  0  0
  141.6010   72.5786  226.9892 H   0  0  0  0  0  0  0  0  0  0  0  0
  1  2  2  0
  2  3  1  0
  3  4  1  0
  4  5  1  0
  5  6  2  0
  5  7  1  0
  7  8  1  0
  8  9  1  0
  9 10  1  0
 10 11  1  0
 11 12  1  0
 12 13  2  0
 13 14  1  0
 14 15  2  0
 15 16  1  0
  2 17  1  0
 17 18  2  0
 18 19  1  0
 19 20  2  0
 20 21  1  0
 21 22  2  0
 22 23  1  0
 22 24  1  0
 24 25  2  0
 25 26  1  0
 26 27  2  0
 11  7  1  0
 16 12  1  0
 27 17  1  0
 26 20  1  0
  3 28  1  0
  4 29  1  0
  4 30  1  0
  8 31  1  0
  8 32  1  0
  9 33  1  0
  9 34  1  0
 10 35  1  0
 10 36  1  0
 11 37  1  1
 15 38  1  0
 16 39  1  0
 18 40  1  0
 19 41  1  0
 21 42  1  0
 24 43  1  0
 25 44  1  0
M  END
>  <smiles>  (2) 
O=C(NCC(=O)N1CCC[C@H]1c1nnc[nH]1)c1ccc2cc(F)ccc2n1

>  <score_type>  (2) 
oracle

>  <origin>  (2) 
autodockgpu

>  <m_score__min__energy>  (2) 
-7.8399999999999999

>  <m_primary>  (2) 
energy

>  <rmsd>  (2) 
1.8370609266684774

>  <m_score__min__rmsd>  (2) 
1.8370609266684774

>  <meeko>  (2) 
{"free_energy": -7.49, "intermolecular_energy": -8.98, "internal_energy": -2.22, "cluster_size": 14, "cluster_id": 2, "rank_in_cluster": 11}

>  <energy>  (2) 
-7.78

>  <cluster_rmsd>  (2) 
0.19

>  <cluster>  (2) 
1

$$$$

     RDKit          3D

 44 47  0  0  0  0  0  0  0  0999 V2000
  140.8590   77.1100  217.9070 O   0  0  0  0  0  0  0  0  0  0  0  0
  141.9180   77.1260  218.6120 C   0  0  0  0  0  0  0  0  0  0  0  0
  142.3170   78.3160  219.3220 N   0  0  0  0  0  0  0  0  0  0  0  0
  141.5160   79.5340  219.2520 C   0  0  0  0  0  0  0  0  0  0  0  0
  140.5830   79.4800  220.3860 C   0  0  0  0  0  0  0  0  0  0  0  0
  139.3180   79.4910  220.2060 O   0  0  0  0  0  0  0  0  0  0  0  0
  140.9900   79.4160  221.7580 N   0  0  0  0  0  0  0  0  0  0  0  0
  140.8340   80.5960  222.6260 C   0  0  0  0  0  0  0  0  0  0  0  0
  141.8290   80.2740  223.7550 C   0  0  0  0  0  0  0  0  0  0  0  0
  141.5070   78.8070  223.9240 C   0  0  0  0  0  0  0  0  0  0  0  0
  141.5720   78.3260  222.4960 C   0  0  1  0  0  0  0  0  0  0  0  0
  140.8690   77.0330  222.3190 C   0  0  0  0  0  0  0  0  0  0  0  0
  139.6380   76.6550  222.7130 N   0  0  0  0  0  0  0  0  0  0  0  0
  139.4150   75.4060  222.3340 N   0  0  0  0  0  0  0  0  0  0  0  0
  140.5160   75.0000  221.6980 C   0  0  0  0  0  0  0  0  0  0  0  0
  141.4480   75.9840  221.6660 N   0  0  0  0  0  0  0  0  0  0  0  0
  142.7540   75.9310  218.7130 C   0  0  0  0  0  0  0  0  0  0  0  0
  142.6500   74.9550  217.7420 C   0  0  0  0  0  0  0  0  0  0  0  0
  143.4040   73.7950  217.7620 C   0  0  0  0  0  0  0  0  0  0  0  0
  144.2940   73.6320  218.8210 C   0  0  0  0  0  0  0  0  0  0  0  0
  145.0410   72.4890  218.8490 C   0  0  0  0  0  0  0  0  0  0  0  0
  145.9280   72.3070  219.8840 C   0  0  0  0  0  0  0  0  0  0  0  0
  146.6630   71.1680  219.9000 F   0  0  0  0  0  0  0  0  0  0  0  0
  146.0330   73.2830  220.8590 C   0  0  0  0  0  0  0  0  0  0  0  0
  145.2780   74.4450  220.8380 C   0  0  0  0  0  0  0  0  0  0  0  0
  144.3910   74.6130  219.7880 C   0  0  0  0  0  0  0  0  0  0  0  0
  143.6280   75.7320  219.7190 N   0  0  0  0  0  0  0  0  0  0  0  0
  143.2020   78.2480  219.8780 H   0  0  0  0  0  0  0  0  0  0  0  0
  142.1626   80.4202  219.3327 H   0  0  0  0  0  0  0  0  0  0  0  0
  140.9783   79.6043  218.2950 H   0  0  0  0  0  0  0  0  0  0  0  0
  141.1083   81.5221  222.0996 H   0  0  0  0  0  0  0  0  0  0  0  0
  139.8035   80.7691  222.9697 H   0  0  0  0  0  0  0  0  0  0  0  0
  142.8724   80.4367  223.4471 H   0  0  0  0  0  0  0  0  0  0  0  0
  141.7396   80.8907  224.6615 H   0  0  0  0  0  0  0  0  0  0  0  0
  142.2529   78.3006  224.5542 H   0  0  0  0  0  0  0  0  0  0  0  0
  140.5467   78.6103  224.4232 H   0  0  0  0  0  0  0  0  0  0  0  0
  142.5909   78.1005  222.1482 H   0  0  0  0  0  0  0  0  0  0  0  0
  140.6494   74.0005  221.2585 H   0  0  0  0  0  0  0  0  0  0  0  0
  142.4000   75.9650  221.2430 H   0  0  0  0  0  0  0  0  0  0  0  0
  141.9375   75.1060  216.9176 H   0  0  0  0  0  0  0  0  0  0  0  0
  143.3047   73.0334  216.9745 H   0  0  0  0  0  0  0  0  0  0  0  0
  144.9353   71.7298  218.0601 H   0  0  0  0  0  0  0  0  0  0  0  0
  146.7444   73.1305  221.6840 H   0  0  0  0  0  0  0  0  0  0  0  0
  145.3796   75.2056  221.6262 H   0  0  0  0  0  0  0  0  0  0  0  0
  1  2  2  0
  2  3  1  0
  3  4  1  0
  4  5  1  0
  5  6  2  0
  5  7  1  0
  7  8  1  0
  8  9  1  0
  9 10  1  0
 10 11  1  0
 11 12  1  0
 12 13  2  0
 13 14  1  0
 14 15  2  0
 15 16  1  0
  2 17  1  0
 17 18  2  0
 18 19  1  0
 19 20  2  0
 20 21  1  0
 21 22  2  0
 22 23  1  0
 22 24  1  0
 24 25  2  0
 25 26  1  0
 26 27  2  0
 11  7  1  0
 16 12  1  0
 27 17  1  0
 26 20  1  0
  3 28  1  0
  4 29  1  0
  4 30  1  0
  8 31  1  0
  8 32  1  0
  9 33  1  0
  9 34  1  0
 10 35  1  0
 10 36  1  0
 11 37  1  6
 15 38  1  0
 16 39  1  0
 18 40  1  0
 19 41  1  0
 21 42  1  0
 24 43  1  0
 25 44  1  0
M  END
>  <smiles>  (3) 
O=C(NCC(=O)N1CCC[C@H]1c1nnc[nH]1)c1ccc2cc(F)ccc2n1

>  <score_type>  (3) 
oracle

>  <origin>  (3) 
autodockgpu

>  <m_score__min__energy>  (3) 
-7.8399999999999999

>  <m_primary>  (3) 
energy

>  <rmsd>  (3) 
7.516345229488762

>  <m_score__min__rmsd>  (3) 
7.516345229488762

>  <meeko>  (3) 
{"free_energy": -6.56, "intermolecular_energy": -8.05, "internal_energy": -2.79, "cluster_size": 3, "cluster_id": 5, "rank_in_cluster": 3}

>  <energy>  (3) 
-7.76

>  <cluster_rmsd>  (3) 
0.44

>  <cluster>  (3) 
1

$$$$

     RDKit          3D

 44 47  0  0  0  0  0  0  0  0999 V2000
  136.8760   69.5800  222.6900 O   0  0  0  0  0  0  0  0  0  0  0  0
  137.4060   70.3280  223.5730 C   0  0  0  0  0  0  0  0  0  0  0  0
  137.1540   71.7480  223.5880 N   0  0  0  0  0  0  0  0  0  0  0  0
  136.2850   72.3650  222.5920 C   0  0  0  0  0  0  0  0  0  0  0  0
  134.9050   72.0810  223.0130 C   0  0  0  0  0  0  0  0  0  0  0  0
  134.1000   71.4370  222.2590 O   0  0  0  0  0  0  0  0  0  0  0  0
  134.3500   72.4890  224.2690 N   0  0  0  0  0  0  0  0  0  0  0  0
  133.5300   73.7110  224.3480 C   0  0  0  0  0  0  0  0  0  0  0  0
  133.6100   74.0310  225.8510 C   0  0  0  0  0  0  0  0  0  0  0  0
  133.4410   72.6280  226.3870 C   0  0  0  0  0  0  0  0  0  0  0  0
  134.4600   71.8760  225.5680 C   0  0  1  0  0  0  0  0  0  0  0  0
  134.2000   70.4170  225.5710 C   0  0  0  0  0  0  0  0  0  0  0  0
  133.6620   69.6350  226.5260 N   0  0  0  0  0  0  0  0  0  0  0  0
  133.6100   68.3830  226.0970 N   0  0  0  0  0  0  0  0  0  0  0  0
  134.1200   68.3830  224.8640 C   0  0  0  0  0  0  0  0  0  0  0  0
  134.5010   69.6320  224.4960 N   0  0  0  0  0  0  0  0  0  0  0  0
  138.2830   69.7560  224.5930 C   0  0  0  0  0  0  0  0  0  0  0  0
  138.4690   68.3890  224.6290 C   0  0  0  0  0  0  0  0  0  0  0  0
  139.2830   67.7680  225.5590 C   0  0  0  0  0  0  0  0  0  0  0  0
  139.9260   68.5820  226.4880 C   0  0  0  0  0  0  0  0  0  0  0  0
  140.7300   67.9770  227.4110 C   0  0  0  0  0  0  0  0  0  0  0  0
  141.3760   68.7610  228.3370 C   0  0  0  0  0  0  0  0  0  0  0  0
  142.1710   68.1470  229.2470 F   0  0  0  0  0  0  0  0  0  0  0  0
  141.1910   70.1320  228.3040 C   0  0  0  0  0  0  0  0  0  0  0  0
  140.3770   70.7540  227.3710 C   0  0  0  0  0  0  0  0  0  0  0  0
  139.7340   69.9490  226.4450 C   0  0  0  0  0  0  0  0  0  0  0  0
  138.9260   70.5070  225.5100 N   0  0  0  0  0  0  0  0  0  0  0  0
  137.6270   72.2940  224.3470 H   0  0  0  0  0  0  0  0  0  0  0  0
  136.4566   73.4510  222.5577 H   0  0  0  0  0  0  0  0  0  0  0  0
  136.4853   71.9670  221.5863 H   0  0  0  0  0  0  0  0  0  0  0  0
  133.9569   74.5224  223.7402 H   0  0  0  0  0  0  0  0  0  0  0  0
  132.5051   73.5913  223.9668 H   0  0  0  0  0  0  0  0  0  0  0  0
  134.5800   74.4677  226.1309 H   0  0  0  0  0  0  0  0  0  0  0  0
  132.8882   74.7742  226.2206 H   0  0  0  0  0  0  0  0  0  0  0  0
  133.6704   72.5768  227.4616 H   0  0  0  0  0  0  0  0  0  0  0  0
  132.4171   72.2342  226.3056 H   0  0  0  0  0  0  0  0  0  0  0  0
  135.4848   71.9427  225.9621 H   0  0  0  0  0  0  0  0  0  0  0  0
  134.2184   67.4893  224.2303 H   0  0  0  0  0  0  0  0  0  0  0  0
  134.9280   69.9440  223.5990 H   0  0  0  0  0  0  0  0  0  0  0  0
  137.9477   67.7669  223.8865 H   0  0  0  0  0  0  0  0  0  0  0  0
  139.4169   66.6762  225.5645 H   0  0  0  0  0  0  0  0  0  0  0  0
  140.8581   66.8845  227.4135 H   0  0  0  0  0  0  0  0  0  0  0  0
  141.7110   70.7530  229.0483 H   0  0  0  0  0  0  0  0  0  0  0  0
  140.2463   71.8462  227.3658 H   0  0  0  0  0  0  0  0  0  0  0  0
  1  2  2  0
  2  3  1  0
  3  4  1  0
  4  5  1  0
  5  6  2  0
  5  7  1  0
  7  8  1  0
  8  9  1  0
  9 10  1  0
 10 11  1  0
 11 12  1  0
 12 13  2  0
 13 14  1  0
 14 15  2  0
 15 16  1  0
  2 17  1  0
 17 18  2  0
 18 19  1  0
 19 20  2  0
 20 21  1  0
 21 22  2  0
 22 23  1  0
 22 24  1  0
 24 25  2  0
 25 26  1  0
 26 27  2  0
 11  7  1  0
 16 12  1  0
 27 17  1  0
 26 20  1  0
  3 28  1  0
  4 29  1  0
  4 30  1  0
  8 31  1  0
  8 32  1  0
  9 33  1  0
  9 34  1  0
 10 35  1  0
 10 36  1  0
 11 37  1  1
 15 38  1  0
 16 39  1  0
 18 40  1  0
 19 41  1  0
 21 42  1  0
 24 43  1  0
 25 44  1  0
M  END
>  <smiles>  (4) 
O=C(NCC(=O)N1CCC[C@H]1c1nnc[nH]1)c1ccc2cc(F)ccc2n1

>  <score_type>  (4) 
oracle

>  <origin>  (4) 
autodockgpu

>  <m_score__min__energy>  (4) 
-7.8399999999999999

>  <m_primary>  (4) 
energy

>  <rmsd>  (4) 
7.042521827316905

>  <m_score__min__rmsd>  (4) 
7.042521827316905

>  <meeko>  (4) 
{"free_energy": -6.55, "intermolecular_energy": -8.04, "internal_energy": -3.23, "cluster_size": 4, "cluster_id": 6, "rank_in_cluster": 1}

>  <energy>  (4) 
-7.73

>  <cluster_rmsd>  (4) 
1.03

>  <cluster>  (4) 
1

$$$$

     RDKit          3D

 44 47  0  0  0  0  0  0  0  0999 V2000
  141.2600   71.9200  221.3170 O   0  0  0  0  0  0  0  0  0  0  0  0
  140.4200   72.2850  222.2000 C   0  0  0  0  0  0  0  0  0  0  0  0
  139.6300   73.4780  222.0220 N   0  0  0  0  0  0  0  0  0  0  0  0
  139.7710   74.2980  220.8240 C   0  0  0  0  0  0  0  0  0  0  0  0
  140.9040   75.2010  221.0720 C   0  0  0  0  0  0  0  0  0  0  0  0
  141.3630   75.3830  222.2510 O   0  0  0  0  0  0  0  0  0  0  0  0
  141.5780   75.9420  220.0480 N   0  0  0  0  0  0  0  0  0  0  0  0
  141.3960   77.4020  219.9570 C   0  0  0  0  0  0  0  0  0  0  0  0
  141.8220   77.6690  218.5030 C   0  0  0  0  0  0  0  0  0  0  0  0
  143.0340   76.7650  218.4560 C   0  0  0  0  0  0  0  0  0  0  0  0
  142.4650   75.4840  219.0110 C   0  0  1  0  0  0  0  0  0  0  0  0
  143.5310   74.5700  219.4880 C   0  0  0  0  0  0  0  0  0  0  0  0
  144.3720   73.7840  218.7920 N   0  0  0  0  0  0  0  0  0  0  0  0
  145.1720   73.1400  219.6280 N   0  0  0  0  0  0  0  0  0  0  0  0
  144.8270   73.5280  220.8580 C   0  0  0  0  0  0  0  0  0  0  0  0
  143.8070   74.4210  220.8150 N   0  0  0  0  0  0  0  0  0  0  0  0
  140.2420   71.4950  223.4180 C   0  0  0  0  0  0  0  0  0  0  0  0
  139.5680   70.2930  223.3460 C   0  0  0  0  0  0  0  0  0  0  0  0
  139.3570   69.4860  224.4490 C   0  0  0  0  0  0  0  0  0  0  0  0
  139.8560   69.9320  225.6700 C   0  0  0  0  0  0  0  0  0  0  0  0
  139.6520   69.1410  226.7650 C   0  0  0  0  0  0  0  0  0  0  0  0
  140.1370   69.5610  227.9810 C   0  0  0  0  0  0  0  0  0  0  0  0
  139.9260   68.7660  229.0590 F   0  0  0  0  0  0  0  0  0  0  0  0
  140.8120   70.7660  228.0560 C   0  0  0  0  0  0  0  0  0  0  0  0
  141.0240   71.5740  226.9510 C   0  0  0  0  0  0  0  0  0  0  0  0
  140.5300   71.1360  225.7330 C   0  0  0  0  0  0  0  0  0  0  0  0
  140.7090   71.8880  224.6190 N   0  0  0  0  0  0  0  0  0  0  0  0
  138.9620   73.7100  222.7950 H   0  0  0  0  0  0  0  0  0  0  0  0
  139.9749   73.6626  219.9496 H   0  0  0  0  0  0  0  0  0  0  0  0
  138.8496   74.8613  220.6149 H   0  0  0  0  0  0  0  0  0  0  0  0
  140.3479   77.6886  220.1286 H   0  0  0  0  0  0  0  0  0  0  0  0
  141.9642   77.9742  220.7051 H   0  0  0  0  0  0  0  0  0  0  0  0
  141.0492   77.3643  217.7819 H   0  0  0  0  0  0  0  0  0  0  0  0
  142.0012   78.7227  218.2432 H   0  0  0  0  0  0  0  0  0  0  0  0
  143.3979   76.6318  217.4265 H   0  0  0  0  0  0  0  0  0  0  0  0
  143.9051   77.1485  219.0074 H   0  0  0  0  0  0  0  0  0  0  0  0
  141.9340   74.8739  218.2655 H   0  0  0  0  0  0  0  0  0  0  0  0
  145.3056   73.1714  221.7820 H   0  0  0  0  0  0  0  0  0  0  0  0
  143.3270   74.8980  221.6070 H   0  0  0  0  0  0  0  0  0  0  0  0
  139.1823   69.9629  222.3701 H   0  0  0  0  0  0  0  0  0  0  0  0
  138.8172   68.5312  224.3652 H   0  0  0  0  0  0  0  0  0  0  0  0
  139.1108   68.1875  226.6756 H   0  0  0  0  0  0  0  0  0  0  0  0
  141.1960   71.0960  229.0326 H   0  0  0  0  0  0  0  0  0  0  0  0
  141.5646   72.5281  227.0374 H   0  0  0  0  0  0  0  0  0  0  0  0
  1  2  2  0
  2  3  1  0
  3  4  1  0
  4  5  1  0
  5  6  2  0
  5  7  1  0
  7  8  1  0
  8  9  1  0
  9 10  1  0
 10 11  1  0
 11 12  1  0
 12 13  2  0
 13 14  1  0
 14 15  2  0
 15 16  1  0
  2 17  1  0
 17 18  2  0
 18 19  1  0
 19 20  2  0
 20 21  1  0
 21 22  2  0
 22 23  1  0
 22 24  1  0
 24 25  2  0
 25 26  1  0
 26 27  2  0
 11  7  1  0
 16 12  1  0
 27 17  1  0
 26 20  1  0
  3 28  1  0
  4 29  1  0
  4 30  1  0
  8 31  1  0
  8 32  1  0
  9 33  1  0
  9 34  1  0
 10 35  1  0
 10 36  1  0
 11 37  1  6
 15 38  1  0
 16 39  1  0
 18 40  1  0
 19 41  1  0
 21 42  1  0
 24 43  1  0
 25 44  1  0
M  END
>  <smiles>  (5) 
O=C(NCC(=O)N1CCC[C@H]1c1nnc[nH]1)c1ccc2cc(F)ccc2n1

>  <score_type>  (5) 
oracle

>  <origin>  (5) 
autodockgpu

>  <m_score__min__energy>  (5) 
-7.8399999999999999

>  <m_primary>  (5) 
energy

>  <rmsd>  (5) 
2.723845469684647

>  <m_score__min__rmsd>  (5) 
2.723845469684647

>  <meeko>  (5) 
{"free_energy": -7.69, "intermolecular_energy": -9.18, "internal_energy": -2.14, "cluster_size": 23, "cluster_id": 1, "rank_in_cluster": 6}

>  <energy>  (5) 
-7.69

>  <cluster_rmsd>  (5) 
1.68

>  <cluster>  (5) 
1

$$$$

     RDKit          3D

 44 47  0  0  0  0  0  0  0  0999 V2000
  140.9500   71.9830  221.2740 O   0  0  0  0  0  0  0  0  0  0  0  0
  140.1740   72.3310  222.2210 C   0  0  0  0  0  0  0  0  0  0  0  0
  139.3690   73.5240  222.1190 N   0  0  0  0  0  0  0  0  0  0  0  0
  139.4230   74.3630  220.9260 C   0  0  0  0  0  0  0  0  0  0  0  0
  140.7670   74.9560  220.8970 C   0  0  0  0  0  0  0  0  0  0  0  0
  141.4550   75.0960  221.9650 O   0  0  0  0  0  0  0  0  0  0  0  0
  141.4140   75.4210  219.7060 N   0  0  0  0  0  0  0  0  0  0  0  0
  141.1080   76.7630  219.1810 C   0  0  0  0  0  0  0  0  0  0  0  0
  141.5660   76.6260  217.7180 C   0  0  0  0  0  0  0  0  0  0  0  0
  142.8530   75.8700  217.9570 C   0  0  0  0  0  0  0  0  0  0  0  0
  142.3780   74.7620  218.8640 C   0  0  1  0  0  0  0  0  0  0  0  0
  143.5010   74.1380  219.6040 C   0  0  0  0  0  0  0  0  0  0  0  0
  144.8180   74.1250  219.3290 N   0  0  0  0  0  0  0  0  0  0  0  0
  145.4610   73.4520  220.2720 N   0  0  0  0  0  0  0  0  0  0  0  0
  144.5370   73.0430  221.1430 C   0  0  0  0  0  0  0  0  0  0  0  0
  143.3000   73.4490  220.7650 N   0  0  0  0  0  0  0  0  0  0  0  0
  140.0850   71.5230  223.4360 C   0  0  0  0  0  0  0  0  0  0  0  0
  139.4460   70.3000  223.3830 C   0  0  0  0  0  0  0  0  0  0  0  0
  139.3200   69.4740  224.4850 C   0  0  0  0  0  0  0  0  0  0  0  0
  139.8680   69.9220  225.6840 C   0  0  0  0  0  0  0  0  0  0  0  0
  139.7460   69.1130  226.7780 C   0  0  0  0  0  0  0  0  0  0  0  0
  140.2800   69.5340  227.9720 C   0  0  0  0  0  0  0  0  0  0  0  0
  140.1520   68.7210  229.0490 F   0  0  0  0  0  0  0  0  0  0  0  0
  140.9200   70.7590  228.0280 C   0  0  0  0  0  0  0  0  0  0  0  0
  141.0480   71.5860  226.9240 C   0  0  0  0  0  0  0  0  0  0  0  0
  140.5050   71.1460  225.7280 C   0  0  0  0  0  0  0  0  0  0  0  0
  140.6010   71.9170  224.6160 N   0  0  0  0  0  0  0  0  0  0  0  0
  138.7580   73.7420  222.9410 H   0  0  0  0  0  0  0  0  0  0  0  0
  139.2561   73.7545  220.0250 H   0  0  0  0  0  0  0  0  0  0  0  0
  138.6446   75.1398  220.9490 H   0  0  0  0  0  0  0  0  0  0  0  0
  140.0328   76.9858  219.2472 H   0  0  0  0  0  0  0  0  0  0  0  0
  141.5936   77.5831  219.7302 H   0  0  0  0  0  0  0  0  0  0  0  0
  140.8521   76.0483  217.1124 H   0  0  0  0  0  0  0  0  0  0  0  0
  141.6616   77.5673  217.1569 H   0  0  0  0  0  0  0  0  0  0  0  0
  143.2675   75.4730  217.0186 H   0  0  0  0  0  0  0  0  0  0  0  0
  143.6643   76.4817  218.3783 H   0  0  0  0  0  0  0  0  0  0  0  0
  141.9329   73.9093  218.3303 H   0  0  0  0  0  0  0  0  0  0  0  0
  144.7504   72.4546  222.0476 H   0  0  0  0  0  0  0  0  0  0  0  0
  142.3880   73.2850  221.2400 H   0  0  0  0  0  0  0  0  0  0  0  0
  139.0195   69.9691  222.4246 H   0  0  0  0  0  0  0  0  0  0  0  0
  138.8079   68.5029  224.4171 H   0  0  0  0  0  0  0  0  0  0  0  0
  139.2306   68.1440  226.7045 H   0  0  0  0  0  0  0  0  0  0  0  0
  141.3443   71.0897  228.9875 H   0  0  0  0  0  0  0  0  0  0  0  0
  141.5618   72.5561  226.9945 H   0  0  0  0  0  0  0  0  0  0  0  0
  1  2  2  0
  2  3  1  0
  3  4  1  0
  4  5  1  0
  5  6  2  0
  5  7  1  0
  7  8  1  0
  8  9  1  0
  9 10  1  0
 10 11  1  0
 11 12  1  0
 12 13  2  0
 13 14  1  0
 14 15  2  0
 15 16  1  0
  2 17  1  0
 17 18  2  0
 18 19  1  0
 19 20  2  0
 20 21  1  0
 21 22  2  0
 22 23  1  0
 22 24  1  0
 24 25  2  0
 25 26  1  0
 26 27  2  0
 11  7  1  0
 16 12  1  0
 27 17  1  0
 26 20  1  0
  3 28  1  0
  4 29  1  0
  4 30  1  0
  8 31  1  0
  8 32  1  0
  9 33  1  0
  9 34  1  0
 10 35  1  0
 10 36  1  0
 11 37  1  6
 15 38  1  0
 16 39  1  0
 18 40  1  0
 19 41  1  0
 21 42  1  0
 24 43  1  0
 25 44  1  0
M  END
>  <smiles>  (6) 
O=C(NCC(=O)N1CCC[C@H]1c1nnc[nH]1)c1ccc2cc(F)ccc2n1

>  <score_type>  (6) 
oracle

>  <origin>  (6) 
autodockgpu

>  <m_score__min__energy>  (6) 
-7.8399999999999999

>  <m_primary>  (6) 
energy

>  <rmsd>  (6) 
2.725195927579182

>  <m_score__min__rmsd>  (6) 
2.725195927579182

>  <meeko>  (6) 
{"free_energy": -6.86, "intermolecular_energy": -8.35, "internal_energy": -2.69, "cluster_size": 23, "cluster_id": 1, "rank_in_cluster": 23}

>  <energy>  (6) 
-7.69

>  <cluster_rmsd>  (6) 
0.97

>  <cluster>  (6) 
1

$$$$

     RDKit          3D

 44 47  0  0  0  0  0  0  0  0999 V2000
  141.0620   71.8560  221.2710 O   0  0  0  0  0  0  0  0  0  0  0  0
  140.4890   72.3790  222.2790 C   0  0  0  0  0  0  0  0  0  0  0  0
  140.0540   73.7540  222.2530 N   0  0  0  0  0  0  0  0  0  0  0  0
  140.2590   74.5820  221.0690 C   0  0  0  0  0  0  0  0  0  0  0  0
  140.0860   75.9750  221.5040 C   0  0  0  0  0  0  0  0  0  0  0  0
  139.7140   76.2590  222.6930 O   0  0  0  0  0  0  0  0  0  0  0  0
  140.3080   77.1120  220.6610 N   0  0  0  0  0  0  0  0  0  0  0  0
  139.4200   77.3580  219.5110 C   0  0  0  0  0  0  0  0  0  0  0  0
  140.2950   78.2830  218.6460 C   0  0  0  0  0  0  0  0  0  0  0  0
  140.8440   79.1630  219.7460 C   0  0  0  0  0  0  0  0  0  0  0  0
  141.3220   78.1310  220.7360 C   0  0  1  0  0  0  0  0  0  0  0  0
  141.4980   78.7090  222.0910 C   0  0  0  0  0  0  0  0  0  0  0  0
  141.4960   79.9940  222.4900 N   0  0  0  0  0  0  0  0  0  0  0  0
  141.6820   80.0510  223.8010 N   0  0  0  0  0  0  0  0  0  0  0  0
  141.8000   78.7900  224.2220 C   0  0  0  0  0  0  0  0  0  0  0  0
  141.6910   77.9210  223.1870 N   0  0  0  0  0  0  0  0  0  0  0  0
  140.2610   71.5900  223.4880 C   0  0  0  0  0  0  0  0  0  0  0  0
  139.5640   70.4020  223.3940 C   0  0  0  0  0  0  0  0  0  0  0  0
  139.3070   69.5960  224.4880 C   0  0  0  0  0  0  0  0  0  0  0  0
  139.7810   70.0280  225.7230 C   0  0  0  0  0  0  0  0  0  0  0  0
  139.5300   69.2380  226.8090 C   0  0  0  0  0  0  0  0  0  0  0  0
  139.9890   69.6440  228.0400 C   0  0  0  0  0  0  0  0  0  0  0  0
  139.7330   68.8500  229.1090 F   0  0  0  0  0  0  0  0  0  0  0  0
  140.6870   70.8340  228.1380 C   0  0  0  0  0  0  0  0  0  0  0  0
  140.9460   71.6410  227.0420 C   0  0  0  0  0  0  0  0  0  0  0  0
  140.4770   71.2170  225.8100 C   0  0  0  0  0  0  0  0  0  0  0  0
  140.7030   71.9690  224.7040 N   0  0  0  0  0  0  0  0  0  0  0  0
  139.5920   74.1090  223.1230 H   0  0  0  0  0  0  0  0  0  0  0  0
  141.2727   74.4309  220.6696 H   0  0  0  0  0  0  0  0  0  0  0  0
  139.5479   74.3214  220.2712 H   0  0  0  0  0  0  0  0  0  0  0  0
  139.1770   76.4241  218.9830 H   0  0  0  0  0  0  0  0  0  0  0  0
  138.4426   77.7849  219.7801 H   0  0  0  0  0  0  0  0  0  0  0  0
  141.0889   77.7313  218.1212 H   0  0  0  0  0  0  0  0  0  0  0  0
  139.7759   78.8061  217.8293 H   0  0  0  0  0  0  0  0  0  0  0  0
  141.6729   79.7896  219.3850 H   0  0  0  0  0  0  0  0  0  0  0  0
  140.1169   79.8792  220.1563 H   0  0  0  0  0  0  0  0  0  0  0  0
  142.3196   77.7264  220.5098 H   0  0  0  0  0  0  0  0  0  0  0  0
  141.9638   78.4951  225.2690 H   0  0  0  0  0  0  0  0  0  0  0  0
  141.7410   76.8800  223.2040 H   0  0  0  0  0  0  0  0  0  0  0  0
  139.1975   70.0830  222.4071 H   0  0  0  0  0  0  0  0  0  0  0  0
  138.7509   68.6524  224.3862 H   0  0  0  0  0  0  0  0  0  0  0  0
  138.9720   68.2962  226.7009 H   0  0  0  0  0  0  0  0  0  0  0  0
  141.0512   71.1525  229.1259 H   0  0  0  0  0  0  0  0  0  0  0  0
  141.5035   72.5835  227.1466 H   0  0  0  0  0  0  0  0  0  0  0  0
  1  2  2  0
  2  3  1  0
  3  4  1  0
  4  5  1  0
  5  6  2  0
  5  7  1  0
  7  8  1  0
  8  9  1  0
  9 10  1  0
 10 11  1  0
 11 12  1  0
 12 13  2  0
 13 14  1  0
 14 15  2  0
 15 16  1  0
  2 17  1  0
 17 18  2  0
 18 19  1  0
 19 20  2  0
 20 21  1  0
 21 22  2  0
 22 23  1  0
 22 24  1  0
 24 25  2  0
 25 26  1  0
 26 27  2  0
 11  7  1  0
 16 12  1  0
 27 17  1  0
 26 20  1  0
  3 28  1  0
  4 29  1  0
  4 30  1  0
  8 31  1  0
  8 32  1  0
  9 33  1  0
  9 34  1  0
 10 35  1  0
 10 36  1  0
 11 37  1  6
 15 38  1  0
 16 39  1  0
 18 40  1  0
 19 41  1  0
 21 42  1  0
 24 43  1  0
 25 44  1  0
M  END
>  <smiles>  (7) 
O=C(NCC(=O)N1CCC[C@H]1c1nnc[nH]1)c1ccc2cc(F)ccc2n1

>  <score_type>  (7) 
oracle

>  <origin>  (7) 
autodockgpu

>  <m_score__min__energy>  (7) 
-7.8399999999999999

>  <m_primary>  (7) 
energy

>  <rmsd>  (7) 
1.937174069878717

>  <m_score__min__rmsd>  (7) 
1.937174069878717

>  <meeko>  (7) 
{"free_energy": -7.46, "intermolecular_energy": -8.95, "internal_energy": -2.31, "cluster_size": 14, "cluster_id": 2, "rank_in_cluster": 12}

>  <energy>  (7) 
-7.63

>  <cluster_rmsd>  (7) 
1.01

>  <cluster>  (7) 
1

$$$$

     RDKit          3D

 44 47  0  0  0  0  0  0  0  0999 V2000
  139.2760   71.0390  221.4770 O   0  0  0  0  0  0  0  0  0  0  0  0
  139.5420   71.5910  222.5920 C   0  0  0  0  0  0  0  0  0  0  0  0
  139.7250   73.0180  222.6870 N   0  0  0  0  0  0  0  0  0  0  0  0
  139.6080   73.8690  221.5080 C   0  0  0  0  0  0  0  0  0  0  0  0
  139.8790   75.2410  221.9580 C   0  0  0  0  0  0  0  0  0  0  0  0
  141.0470   75.5980  222.3350 O   0  0  0  0  0  0  0  0  0  0  0  0
  138.8910   76.2760  222.0180 N   0  0  0  0  0  0  0  0  0  0  0  0
  137.4780   75.9290  222.2510 C   0  0  0  0  0  0  0  0  0  0  0  0
  136.7670   77.1880  221.7240 C   0  0  0  0  0  0  0  0  0  0  0  0
  137.6940   78.2290  222.3100 C   0  0  0  0  0  0  0  0  0  0  0  0
  139.0380   77.7010  221.8760 C   0  0  1  0  0  0  0  0  0  0  0  0
  140.1410   78.2780  222.6820 C   0  0  0  0  0  0  0  0  0  0  0  0
  140.0970   79.0850  223.7570 N   0  0  0  0  0  0  0  0  0  0  0  0
  141.3290   79.3490  224.1650 N   0  0  0  0  0  0  0  0  0  0  0  0
  142.1500   78.6990  223.3370 C   0  0  0  0  0  0  0  0  0  0  0  0
  141.4500   78.0180  222.3960 N   0  0  0  0  0  0  0  0  0  0  0  0
  139.6690   70.7810  223.8020 C   0  0  0  0  0  0  0  0  0  0  0  0
  139.1880   69.4860  223.7980 C   0  0  0  0  0  0  0  0  0  0  0  0
  139.2690   68.6540  224.8990 C   0  0  0  0  0  0  0  0  0  0  0  0
  139.8630   69.1720  226.0470 C   0  0  0  0  0  0  0  0  0  0  0  0
  139.9450   68.3560  227.1400 C   0  0  0  0  0  0  0  0  0  0  0  0
  140.5290   68.8450  228.2840 C   0  0  0  0  0  0  0  0  0  0  0  0
  140.6040   68.0250  229.3610 F   0  0  0  0  0  0  0  0  0  0  0  0
  141.0100   70.1420  228.2920 C   0  0  0  0  0  0  0  0  0  0  0  0
  140.9300   70.9760  227.1890 C   0  0  0  0  0  0  0  0  0  0  0  0
  140.3400   70.4670  226.0440 C   0  0  0  0  0  0  0  0  0  0  0  0
  140.2360   71.2410  224.9350 N   0  0  0  0  0  0  0  0  0  0  0  0
  139.9420   73.3940  223.6410 H   0  0  0  0  0  0  0  0  0  0  0  0
  140.3417   73.5666  220.7462 H   0  0  0  0  0  0  0  0  0  0  0  0
  138.6087   73.7879  221.0553 H   0  0  0  0  0  0  0  0  0  0  0  0
  137.1845   75.0336  221.6835 H   0  0  0  0  0  0  0  0  0  0  0  0
  137.2413   75.6826  223.2966 H   0  0  0  0  0  0  0  0  0  0  0  0
  136.7462   77.2230  220.6248 H   0  0  0  0  0  0  0  0  0  0  0  0
  135.7054   77.2863  221.9947 H   0  0  0  0  0  0  0  0  0  0  0  0
  137.4976   79.2263  221.8894 H   0  0  0  0  0  0  0  0  0  0  0  0
  137.5915   78.3646  223.3968 H   0  0  0  0  0  0  0  0  0  0  0  0
  139.3140   77.9781  220.8479 H   0  0  0  0  0  0  0  0  0  0  0  0
  143.2476   78.7138  223.4084 H   0  0  0  0  0  0  0  0  0  0  0  0
  141.8100   77.4230  221.6210 H   0  0  0  0  0  0  0  0  0  0  0  0
  138.7207   69.1005  222.8798 H   0  0  0  0  0  0  0  0  0  0  0  0
  138.8803   67.6254  224.8695 H   0  0  0  0  0  0  0  0  0  0  0  0
  139.5518   67.3293  227.1050 H   0  0  0  0  0  0  0  0  0  0  0  0
  141.4749   70.5267  229.2117 H   0  0  0  0  0  0  0  0  0  0  0  0
  141.3204   72.0039  227.2212 H   0  0  0  0  0  0  0  0  0  0  0  0
  1  2  2  0
  2  3  1  0
  3  4  1  0
  4  5  1  0
  5  6  2  0
  5  7  1  0
  7  8  1  0
  8  9  1  0
  9 10  1  0
 10 11  1  0
 11 12  1  0
 12 13  2  0
 13 14  1  0
 14 15  2  0
 15 16  1  0
  2 17  1  0
 17 18  2  0
 18 19  1  0
 19 20  2  0
 20 21  1  0
 21 22  2  0
 22 23  1  0
 22 24  1  0
 24 25  2  0
 25 26  1  0
 26 27  2  0
 11  7  1  0
 16 12  1  0
 27 17  1  0
 26 20  1  0
  3 28  1  0
  4 29  1  0
  4 30  1  0
  8 31  1  0
  8 32  1  0
  9 33  1  0
  9 34  1  0
 10 35  1  0
 10 36  1  0
 11 37  1  6
 15 38  1  0
 16 39  1  0
 18 40  1  0
 19 41  1  0
 21 42  1  0
 24 43  1  0
 25 44  1  0
M  END
>  <smiles>  (8) 
O=C(NCC(=O)N1CCC[C@H]1c1nnc[nH]1)c1ccc2cc(F)ccc2n1

>  <score_type>  (8) 
oracle

>  <origin>  (8) 
autodockgpu

>  <m_score__min__energy>  (8) 
-7.8399999999999999

>  <m_primary>  (8) 
energy

>  <rmsd>  (8) 
2.5847720542914243

>  <m_score__min__rmsd>  (8) 
2.5847720542914243

>  <meeko>  (8) 
{"free_energy": -7.56, "intermolecular_energy": -9.05, "internal_energy": -1.86, "cluster_size": 14, "cluster_id": 2, "rank_in_cluster": 8}

>  <energy>  (8) 
-7.62

>  <cluster_rmsd>  (8) 
1.03

>  <cluster>  (8) 
1

$$$$

     RDKit          3D

 44 47  0  0  0  0  0  0  0  0999 V2000
  140.8080   71.7620  221.1700 O   0  0  0  0  0  0  0  0  0  0  0  0
  140.2590   72.2480  222.2100 C   0  0  0  0  0  0  0  0  0  0  0  0
  139.7170   73.5840  222.2070 N   0  0  0  0  0  0  0  0  0  0  0  0
  139.7840   74.4160  221.0100 C   0  0  0  0  0  0  0  0  0  0  0  0
  140.9610   75.2820  221.1720 C   0  0  0  0  0  0  0  0  0  0  0  0
  141.3260   75.6970  222.3250 O   0  0  0  0  0  0  0  0  0  0  0  0
  141.7820   75.7300  220.0880 N   0  0  0  0  0  0  0  0  0  0  0  0
  141.8320   77.1640  219.7490 C   0  0  0  0  0  0  0  0  0  0  0  0
  142.3530   77.1130  218.3020 C   0  0  0  0  0  0  0  0  0  0  0  0
  143.4110   76.0480  218.4830 C   0  0  0  0  0  0  0  0  0  0  0  0
  142.6290   74.9770  219.2000 C   0  0  1  0  0  0  0  0  0  0  0  0
  143.5210   74.0130  219.8890 C   0  0  0  0  0  0  0  0  0  0  0  0
  143.2420   73.1030  220.8400 N   0  0  0  0  0  0  0  0  0  0  0  0
  144.3460   72.4470  221.1630 N   0  0  0  0  0  0  0  0  0  0  0  0
  145.3230   72.9520  220.4070 C   0  0  0  0  0  0  0  0  0  0  0  0
  144.8510   73.9320  219.5970 N   0  0  0  0  0  0  0  0  0  0  0  0
  140.1670   71.4530  223.4340 C   0  0  0  0  0  0  0  0  0  0  0  0
  139.5590   70.2140  223.3860 C   0  0  0  0  0  0  0  0  0  0  0  0
  139.4310   69.3990  224.4960 C   0  0  0  0  0  0  0  0  0  0  0  0
  139.9470   69.8760  225.6990 C   0  0  0  0  0  0  0  0  0  0  0  0
  139.8250   69.0780  226.8010 C   0  0  0  0  0  0  0  0  0  0  0  0
  140.3280   69.5270  227.9990 C   0  0  0  0  0  0  0  0  0  0  0  0
  140.1990   68.7240  229.0840 F   0  0  0  0  0  0  0  0  0  0  0  0
  140.9370   70.7670  228.0490 C   0  0  0  0  0  0  0  0  0  0  0  0
  141.0650   71.5830  226.9370 C   0  0  0  0  0  0  0  0  0  0  0  0
  140.5540   71.1150  225.7380 C   0  0  0  0  0  0  0  0  0  0  0  0
  140.6530   71.8740  224.6180 N   0  0  0  0  0  0  0  0  0  0  0  0
  139.2830   73.9100  223.1020 H   0  0  0  0  0  0  0  0  0  0  0  0
  139.8951   73.7865  220.1148 H   0  0  0  0  0  0  0  0  0  0  0  0
  138.8663   75.0095  220.8849 H   0  0  0  0  0  0  0  0  0  0  0  0
  140.8349   77.6255  219.8021 H   0  0  0  0  0  0  0  0  0  0  0  0
  142.4508   77.7668  220.4299 H   0  0  0  0  0  0  0  0  0  0  0  0
  141.5723   76.8052  217.5909 H   0  0  0  0  0  0  0  0  0  0  0  0
  142.7035   78.0692  217.8862 H   0  0  0  0  0  0  0  0  0  0  0  0
  143.7917   75.6895  217.5153 H   0  0  0  0  0  0  0  0  0  0  0  0
  144.3075   76.3892  219.0214 H   0  0  0  0  0  0  0  0  0  0  0  0
  142.0411   74.3320  218.5304 H   0  0  0  0  0  0  0  0  0  0  0  0
  146.3707   72.6181  220.4369 H   0  0  0  0  0  0  0  0  0  0  0  0
  145.3710   74.5070  218.9000 H   0  0  0  0  0  0  0  0  0  0  0  0
  139.1596   69.8603  222.4241 H   0  0  0  0  0  0  0  0  0  0  0  0
  138.9424   68.4156  224.4317 H   0  0  0  0  0  0  0  0  0  0  0  0
  139.3342   68.0960  226.7312 H   0  0  0  0  0  0  0  0  0  0  0  0
  141.3363   71.1202  229.0112 H   0  0  0  0  0  0  0  0  0  0  0  0
  141.5542   72.5659  227.0038 H   0  0  0  0  0  0  0  0  0  0  0  0
  1  2  2  0
  2  3  1  0
  3  4  1  0
  4  5  1  0
  5  6  2  0
  5  7  1  0
  7  8  1  0
  8  9  1  0
  9 10  1  0
 10 11  1  0
 11 12  1  0
 12 13  2  0
 13 14  1  0
 14 15  2  0
 15 16  1  0
  2 17  1  0
 17 18  2  0
 18 19  1  0
 19 20  2  0
 20 21  1  0
 21 22  2  0
 22 23  1  0
 22 24  1  0
 24 25  2  0
 25 26  1  0
 26 27  2  0
 11  7  1  0
 16 12  1  0
 27 17  1  0
 26 20  1  0
  3 28  1  0
  4 29  1  0
  4 30  1  0
  8 31  1  0
  8 32  1  0
  9 33  1  0
  9 34  1  0
 10 35  1  0
 10 36  1  0
 11 37  1  6
 15 38  1  0
 16 39  1  0
 18 40  1  0
 19 41  1  0
 21 42  1  0
 24 43  1  0
 25 44  1  0
M  END
>  <smiles>  (9) 
O=C(NCC(=O)N1CCC[C@H]1c1nnc[nH]1)c1ccc2cc(F)ccc2n1

>  <score_type>  (9) 
oracle

>  <origin>  (9) 
autodockgpu

>  <m_score__min__energy>  (9) 
-7.8399999999999999

>  <m_primary>  (9) 
energy

>  <rmsd>  (9) 
3.0620171495324993

>  <m_score__min__rmsd>  (9) 
3.0620171495324993

>  <meeko>  (9) 
{"free_energy": -7.76, "intermolecular_energy": -9.25, "internal_energy": -1.6, "cluster_size": 23, "cluster_id": 1, "rank_in_cluster": 3}

>  <energy>  (9) 
-7.61

>  <cluster_rmsd>  (9) 
1.04

>  <cluster>  (9) 
1

$$$$

     RDKit          3D

 44 47  0  0  0  0  0  0  0  0999 V2000
  139.2440   70.9140  220.7940 O   0  0  0  0  0  0  0  0  0  0  0  0
  139.8750   71.4410  221.7660 C   0  0  0  0  0  0  0  0  0  0  0  0
  140.6320   72.6550  221.5860 N   0  0  0  0  0  0  0  0  0  0  0  0
  140.6950   73.3130  220.2860 C   0  0  0  0  0  0  0  0  0  0  0  0
  141.5810   74.4740  220.4510 C   0  0  0  0  0  0  0  0  0  0  0  0
  141.8240   74.9650  221.6060 O   0  0  0  0  0  0  0  0  0  0  0  0
  142.2340   75.1450  219.3670 N   0  0  0  0  0  0  0  0  0  0  0  0
  141.8310   76.5150  219.0030 C   0  0  0  0  0  0  0  0  0  0  0  0
  142.3630   76.6130  217.5620 C   0  0  0  0  0  0  0  0  0  0  0  0
  143.7010   75.9430  217.7730 C   0  0  0  0  0  0  0  0  0  0  0  0
  143.2890   74.6880  218.5010 C   0  0  1  0  0  0  0  0  0  0  0  0
  144.4310   74.0680  219.2160 C   0  0  0  0  0  0  0  0  0  0  0  0
  145.4530   73.3330  218.7400 N   0  0  0  0  0  0  0  0  0  0  0  0
  146.2530   72.9880  219.7380 N   0  0  0  0  0  0  0  0  0  0  0  0
  145.7250   73.5120  220.8460 C   0  0  0  0  0  0  0  0  0  0  0  0
  144.5870   74.1940  220.5650 N   0  0  0  0  0  0  0  0  0  0  0  0
  139.8420   70.8190  223.0890 C   0  0  0  0  0  0  0  0  0  0  0  0
  139.2320   69.5890  223.2380 C   0  0  0  0  0  0  0  0  0  0  0  0
  139.1580   68.9330  224.4530 C   0  0  0  0  0  0  0  0  0  0  0  0
  139.7290   69.5650  225.5550 C   0  0  0  0  0  0  0  0  0  0  0  0
  139.6590   68.9240  226.7590 C   0  0  0  0  0  0  0  0  0  0  0  0
  140.2180   69.5280  227.8600 C   0  0  0  0  0  0  0  0  0  0  0  0
  140.1410   68.8800  229.0490 F   0  0  0  0  0  0  0  0  0  0  0  0
  140.8290   70.7600  227.7140 C   0  0  0  0  0  0  0  0  0  0  0  0
  140.9040   71.4170  226.4970 C   0  0  0  0  0  0  0  0  0  0  0  0
  140.3370   70.7940  225.3970 C   0  0  0  0  0  0  0  0  0  0  0  0
  140.3830   71.3940  224.1810 N   0  0  0  0  0  0  0  0  0  0  0  0
  141.1230   73.0240  222.4350 H   0  0  0  0  0  0  0  0  0  0  0  0
  141.1050   72.6258  219.5313 H   0  0  0  0  0  0  0  0  0  0  0  0
  139.6950   73.6197  219.9454 H   0  0  0  0  0  0  0  0  0  0  0  0
  140.7382   76.6360  219.0379 H   0  0  0  0  0  0  0  0  0  0  0  0
  142.2160   77.2925  219.6792 H   0  0  0  0  0  0  0  0  0  0  0  0
  141.7317   76.0631  216.8485 H   0  0  0  0  0  0  0  0  0  0  0  0
  142.3973   77.6251  217.1326 H   0  0  0  0  0  0  0  0  0  0  0  0
  144.1911   75.7113  216.8159 H   0  0  0  0  0  0  0  0  0  0  0  0
  144.4338   76.5591  218.3147 H   0  0  0  0  0  0  0  0  0  0  0  0
  142.9465   73.8803  217.8374 H   0  0  0  0  0  0  0  0  0  0  0  0
  146.1554   73.4050  221.8527 H   0  0  0  0  0  0  0  0  0  0  0  0
  143.9570   74.7070  221.2180 H   0  0  0  0  0  0  0  0  0  0  0  0
  138.7863   69.1111  222.3531 H   0  0  0  0  0  0  0  0  0  0  0  0
  138.6683   67.9523  224.5454 H   0  0  0  0  0  0  0  0  0  0  0  0
  139.1655   67.9447  226.8458 H   0  0  0  0  0  0  0  0  0  0  0  0
  141.2732   71.2373  228.5999 H   0  0  0  0  0  0  0  0  0  0  0  0
  141.3955   72.3970  226.4071 H   0  0  0  0  0  0  0  0  0  0  0  0
  1  2  2  0
  2  3  1  0
  3  4  1  0
  4  5  1  0
  5  6  2  0
  5  7  1  0
  7  8  1  0
  8  9  1  0
  9 10  1  0
 10 11  1  0
 11 12  1  0
 12 13  2  0
 13 14  1  0
 14 15  2  0
 15 16  1  0
  2 17  1  0
 17 18  2  0
 18 19  1  0
 19 20  2  0
 20 21  1  0
 21 22  2  0
 22 23  1  0
 22 24  1  0
 24 25  2  0
 25 26  1  0
 26 27  2  0
 11  7  1  0
 16 12  1  0
 27 17  1  0
 26 20  1  0
  3 28  1  0
  4 29  1  0
  4 30  1  0
  8 31  1  0
  8 32  1  0
  9 33  1  0
  9 34  1  0
 10 35  1  0
 10 36  1  0
 11 37  1  6
 15 38  1  0
 16 39  1  0
 18 40  1  0
 19 41  1  0
 21 42  1  0
 24 43  1  0
 25 44  1  0
M  END
>  <smiles>  (10) 
O=C(NCC(=O)N1CCC[C@H]1c1nnc[nH]1)c1ccc2cc(F)ccc2n1

>  <score_type>  (10) 
oracle

>  <origin>  (10) 
autodockgpu

>  <m_score__min__energy>  (10) 
-7.8399999999999999

>  <m_primary>  (10) 
energy

>  <rmsd>  (10) 
2.9622488685864443

>  <m_score__min__rmsd>  (10) 
2.9622488685864443

>  <meeko>  (10) 
{"free_energy": -6.97, "intermolecular_energy": -8.47, "internal_energy": -2.64, "cluster_size": 23, "cluster_id": 1, "rank_in_cluster": 21}

>  <energy>  (10) 
-7.61

>  <cluster_rmsd>  (10) 
1.02

>  <cluster>  (10) 
1

$$$$

     RDKit          3D

 44 47  0  0  0  0  0  0  0  0999 V2000
  140.5260   71.6470  221.1020 O   0  0  0  0  0  0  0  0  0  0  0  0
  140.1710   72.1930  222.1950 C   0  0  0  0  0  0  0  0  0  0  0  0
  139.8170   73.5900  222.2440 N   0  0  0  0  0  0  0  0  0  0  0  0
  139.8550   74.4150  221.0410 C   0  0  0  0  0  0  0  0  0  0  0  0
  140.7290   75.5560  221.3490 C   0  0  0  0  0  0  0  0  0  0  0  0
  140.7500   76.0810  222.5140 O   0  0  0  0  0  0  0  0  0  0  0  0
  141.6100   76.1700  220.4020 N   0  0  0  0  0  0  0  0  0  0  0  0
  141.6590   77.6390  220.2890 C   0  0  0  0  0  0  0  0  0  0  0  0
  142.2710   77.8130  218.8880 C   0  0  0  0  0  0  0  0  0  0  0  0
  143.3330   76.7400  218.9730 C   0  0  0  0  0  0  0  0  0  0  0  0
  142.5240   75.5670  219.4660 C   0  0  1  0  0  0  0  0  0  0  0  0
  143.3850   74.5140  220.0570 C   0  0  0  0  0  0  0  0  0  0  0  0
  144.6730   74.5660  220.4440 N   0  0  0  0  0  0  0  0  0  0  0  0
  145.0390   73.3890  220.9270 N   0  0  0  0  0  0  0  0  0  0  0  0
  143.9700   72.5940  220.8410 C   0  0  0  0  0  0  0  0  0  0  0  0
  142.9160   73.2570  220.3030 N   0  0  0  0  0  0  0  0  0  0  0  0
  140.1170   71.4080  223.4270 C   0  0  0  0  0  0  0  0  0  0  0  0
  139.5630   70.1430  223.3930 C   0  0  0  0  0  0  0  0  0  0  0  0
  139.4730   69.3350  224.5120 C   0  0  0  0  0  0  0  0  0  0  0  0
  139.9690   69.8470  225.7090 C   0  0  0  0  0  0  0  0  0  0  0  0
  139.8840   69.0550  226.8190 C   0  0  0  0  0  0  0  0  0  0  0  0
  140.3680   69.5380  228.0110 C   0  0  0  0  0  0  0  0  0  0  0  0
  140.2770   68.7420  229.1050 F   0  0  0  0  0  0  0  0  0  0  0  0
  140.9230   70.8050  228.0480 C   0  0  0  0  0  0  0  0  0  0  0  0
  141.0130   71.6140  226.9270 C   0  0  0  0  0  0  0  0  0  0  0  0
  140.5220   71.1120  225.7340 C   0  0  0  0  0  0  0  0  0  0  0  0
  140.5850   71.8620  224.6060 N   0  0  0  0  0  0  0  0  0  0  0  0
  139.5360   73.9640  223.1810 H   0  0  0  0  0  0  0  0  0  0  0  0
  140.2636   73.8393  220.1974 H   0  0  0  0  0  0  0  0  0  0  0  0
  138.8471   74.7500  220.7547 H   0  0  0  0  0  0  0  0  0  0  0  0
  140.6534   78.0812  220.3470 H   0  0  0  0  0  0  0  0  0  0  0  0
  142.2242   78.1341  221.0923 H   0  0  0  0  0  0  0  0  0  0  0  0
  141.5418   77.6122  218.0893 H   0  0  0  0  0  0  0  0  0  0  0  0
  142.6312   78.8238  218.6461 H   0  0  0  0  0  0  0  0  0  0  0  0
  143.7802   76.5363  217.9889 H   0  0  0  0  0  0  0  0  0  0  0  0
  144.1881   77.0004  219.6140 H   0  0  0  0  0  0  0  0  0  0  0  0
  141.9904   75.0291  218.6685 H   0  0  0  0  0  0  0  0  0  0  0  0
  143.9470   71.5425  221.1632 H   0  0  0  0  0  0  0  0  0  0  0  0
  141.9540   72.9050  220.1130 H   0  0  0  0  0  0  0  0  0  0  0  0
  139.1772   69.7623  222.4358 H   0  0  0  0  0  0  0  0  0  0  0  0
  139.0284   68.3302  224.4590 H   0  0  0  0  0  0  0  0  0  0  0  0
  139.4374   68.0515  226.7598 H   0  0  0  0  0  0  0  0  0  0  0  0
  141.3081   71.1850  229.0057 H   0  0  0  0  0  0  0  0  0  0  0  0
  141.4582   72.6183  226.9828 H   0  0  0  0  0  0  0  0  0  0  0  0
  1  2  2  0
  2  3  1  0
  3  4  1  0
  4  5  1  0
  5  6  2  0
  5  7  1  0
  7  8  1  0
  8  9  1  0
  9 10  1  0
 10 11  1  0
 11 12  1  0
 12 13  2  0
 13 14  1  0
 14 15  2  0
 15 16  1  0
  2 17  1  0
 17 18  2  0
 18 19  1  0
 19 20  2  0
 20 21  1  0
 21 22  2  0
 22 23  1  0
 22 24  1  0
 24 25  2  0
 25 26  1  0
 26 27  2  0
 11  7  1  0
 16 12  1  0
 27 17  1  0
 26 20  1  0
  3 28  1  0
  4 29  1  0
  4 30  1  0
  8 31  1  0
  8 32  1  0
  9 33  1  0
  9 34  1  0
 10 35  1  0
 10 36  1  0
 11 37  1  6
 15 38  1  0
 16 39  1  0
 18 40  1  0
 19 41  1  0
 21 42  1  0
 24 43  1  0
 25 44  1  0
M  END
>  <smiles>  (11) 
O=C(NCC(=O)N1CCC[C@H]1c1nnc[nH]1)c1ccc2cc(F)ccc2n1

>  <score_type>  (11) 
oracle

>  <origin>  (11) 
autodockgpu

>  <m_score__min__energy>  (11) 
-7.8399999999999999

>  <m_primary>  (11) 
energy

>  <rmsd>  (11) 
2.988968379556251

>  <m_score__min__rmsd>  (11) 
2.988968379556251

>  <meeko>  (11) 
{"free_energy": -7.59, "intermolecular_energy": -9.09, "internal_energy": -2.44, "cluster_size": 23, "cluster_id": 1, "rank_in_cluster": 14}

>  <energy>  (11) 
-7.61

>  <cluster_rmsd>  (11) 
1.03

>  <cluster>  (11) 
1

$$$$

     RDKit          3D

 44 47  0  0  0  0  0  0  0  0999 V2000
  140.7450   71.4560  221.1360 O   0  0  0  0  0  0  0  0  0  0  0  0
  140.2960   72.0130  222.1890 C   0  0  0  0  0  0  0  0  0  0  0  0
  139.8840   73.3950  222.1780 N   0  0  0  0  0  0  0  0  0  0  0  0
  139.9700   74.1920  220.9590 C   0  0  0  0  0  0  0  0  0  0  0  0
  140.7020   75.4150  221.3140 C   0  0  0  0  0  0  0  0  0  0  0  0
  140.5670   75.9610  222.4620 O   0  0  0  0  0  0  0  0  0  0  0  0
  141.6070   76.0930  220.4350 N   0  0  0  0  0  0  0  0  0  0  0  0
  141.6260   77.5660  220.3930 C   0  0  0  0  0  0  0  0  0  0  0  0
  142.2910   77.8200  219.0280 C   0  0  0  0  0  0  0  0  0  0  0  0
  143.3730   76.7670  219.1080 C   0  0  0  0  0  0  0  0  0  0  0  0
  142.5720   75.5540  219.5110 C   0  0  1  0  0  0  0  0  0  0  0  0
  143.4330   74.4930  220.0870 C   0  0  0  0  0  0  0  0  0  0  0  0
  144.7220   74.5380  220.4700 N   0  0  0  0  0  0  0  0  0  0  0  0
  145.0870   73.3540  220.9390 N   0  0  0  0  0  0  0  0  0  0  0  0
  144.0150   72.5640  220.8490 C   0  0  0  0  0  0  0  0  0  0  0  0
  142.9610   73.2350  220.3220 N   0  0  0  0  0  0  0  0  0  0  0  0
  140.1910   71.2550  223.4350 C   0  0  0  0  0  0  0  0  0  0  0  0
  139.5890   70.0130  223.4170 C   0  0  0  0  0  0  0  0  0  0  0  0
  139.4490   69.2320  224.5500 C   0  0  0  0  0  0  0  0  0  0  0  0
  139.9460   69.7480  225.7440 C   0  0  0  0  0  0  0  0  0  0  0  0
  139.8120   68.9830  226.8680 C   0  0  0  0  0  0  0  0  0  0  0  0
  140.2950   69.4710  228.0590 C   0  0  0  0  0  0  0  0  0  0  0  0
  140.1550   68.7020  229.1660 F   0  0  0  0  0  0  0  0  0  0  0  0
  140.8990   70.7160  228.0800 C   0  0  0  0  0  0  0  0  0  0  0  0
  141.0390   71.4980  226.9450 C   0  0  0  0  0  0  0  0  0  0  0  0
  140.5470   70.9910  225.7540 C   0  0  0  0  0  0  0  0  0  0  0  0
  140.6580   71.7150  224.6130 N   0  0  0  0  0  0  0  0  0  0  0  0
  139.5270   73.7780  223.0850 H   0  0  0  0  0  0  0  0  0  0  0  0
  140.5120   73.6371  220.1791 H   0  0  0  0  0  0  0  0  0  0  0  0
  138.9703   74.4260  220.5641 H   0  0  0  0  0  0  0  0  0  0  0  0
  140.6088   77.9831  220.4293 H   0  0  0  0  0  0  0  0  0  0  0  0
  142.1461   78.0343  221.2417 H   0  0  0  0  0  0  0  0  0  0  0  0
  141.6002   77.6420  218.1907 H   0  0  0  0  0  0  0  0  0  0  0  0
  142.6371   78.8486  218.8487 H   0  0  0  0  0  0  0  0  0  0  0  0
  143.8653   76.6201  218.1353 H   0  0  0  0  0  0  0  0  0  0  0  0
  144.1943   77.0149  219.7965 H   0  0  0  0  0  0  0  0  0  0  0  0
  142.0838   75.0427  218.6683 H   0  0  0  0  0  0  0  0  0  0  0  0
  143.9898   71.5094  221.1607 H   0  0  0  0  0  0  0  0  0  0  0  0
  141.9980   72.8870  220.1320 H   0  0  0  0  0  0  0  0  0  0  0  0
  139.2043   69.6280  222.4611 H   0  0  0  0  0  0  0  0  0  0  0  0
  138.9654   68.2448  224.5095 H   0  0  0  0  0  0  0  0  0  0  0  0
  139.3275   67.9966  226.8209 H   0  0  0  0  0  0  0  0  0  0  0  0
  141.2834   71.1001  229.0364 H   0  0  0  0  0  0  0  0  0  0  0  0
  141.5230   72.4849  226.9883 H   0  0  0  0  0  0  0  0  0  0  0  0
  1  2  2  0
  2  3  1  0
  3  4  1  0
  4  5  1  0
  5  6  2  0
  5  7  1  0
  7  8  1  0
  8  9  1  0
  9 10  1  0
 10 11  1  0
 11 12  1  0
 12 13  2  0
 13 14  1  0
 14 15  2  0
 15 16  1  0
  2 17  1  0
 17 18  2  0
 18 19  1  0
 19 20  2  0
 20 21  1  0
 21 22  2  0
 22 23  1  0
 22 24  1  0
 24 25  2  0
 25 26  1  0
 26 27  2  0
 11  7  1  0
 16 12  1  0
 27 17  1  0
 26 20  1  0
  3 28  1  0
  4 29  1  0
  4 30  1  0
  8 31  1  0
  8 32  1  0
  9 33  1  0
  9 34  1  0
 10 35  1  0
 10 36  1  0
 11 37  1  6
 15 38  1  0
 16 39  1  0
 18 40  1  0
 19 41  1  0
 21 42  1  0
 24 43  1  0
 25 44  1  0
M  END
>  <smiles>  (12) 
O=C(NCC(=O)N1CCC[C@H]1c1nnc[nH]1)c1ccc2cc(F)ccc2n1

>  <score_type>  (12) 
oracle

>  <origin>  (12) 
autodockgpu

>  <m_score__min__energy>  (12) 
-7.8399999999999999

>  <m_primary>  (12) 
energy

>  <rmsd>  (12) 
3.001431847991383

>  <m_score__min__rmsd>  (12) 
3.001431847991383

>  <meeko>  (12) 
{"free_energy": -7.6, "intermolecular_energy": -9.1, "internal_energy": -2.41, "cluster_size": 23, "cluster_id": 1, "rank_in_cluster": 13}

>  <energy>  (12) 
-7.61

>  <cluster_rmsd>  (12) 
1.02

>  <cluster>  (12) 
1

$$$$

     RDKit          3D

 44 47  0  0  0  0  0  0  0  0999 V2000
  137.4970   69.6640  222.3370 O   0  0  0  0  0  0  0  0  0  0  0  0
  137.8540   70.3580  223.3430 C   0  0  0  0  0  0  0  0  0  0  0  0
  137.4820   71.7480  223.4520 N   0  0  0  0  0  0  0  0  0  0  0  0
  136.6880   72.3950  222.4140 C   0  0  0  0  0  0  0  0  0  0  0  0
  135.2970   71.9760  222.6350 C   0  0  0  0  0  0  0  0  0  0  0  0
  134.4990   71.7750  221.6570 O   0  0  0  0  0  0  0  0  0  0  0  0
  134.7200   71.7610  223.9290 N   0  0  0  0  0  0  0  0  0  0  0  0
  133.8160   72.7720  224.5070 C   0  0  0  0  0  0  0  0  0  0  0  0
  133.8800   72.4140  226.0020 C   0  0  0  0  0  0  0  0  0  0  0  0
  133.8140   70.9090  225.8750 C   0  0  0  0  0  0  0  0  0  0  0  0
  134.8790   70.6560  224.8380 C   0  0  1  0  0  0  0  0  0  0  0  0
  134.7230   69.3250  224.2030 C   0  0  0  0  0  0  0  0  0  0  0  0
  134.3190   68.1560  224.7320 N   0  0  0  0  0  0  0  0  0  0  0  0
  134.3210   67.2200  223.7940 N   0  0  0  0  0  0  0  0  0  0  0  0
  134.7300   67.8110  222.6700 C   0  0  0  0  0  0  0  0  0  0  0  0
  134.9920   69.1250  222.8800 N   0  0  0  0  0  0  0  0  0  0  0  0
  138.6500   69.7550  224.4090 C   0  0  0  0  0  0  0  0  0  0  0  0
  138.8310   68.3860  224.4200 C   0  0  0  0  0  0  0  0  0  0  0  0
  139.5700   67.7360  225.3920 C   0  0  0  0  0  0  0  0  0  0  0  0
  140.1420   68.5210  226.3890 C   0  0  0  0  0  0  0  0  0  0  0  0
  140.8730   67.8870  227.3530 C   0  0  0  0  0  0  0  0  0  0  0  0
  141.4480   68.6420  228.3480 C   0  0  0  0  0  0  0  0  0  0  0  0
  142.1700   68.0000  229.2980 F   0  0  0  0  0  0  0  0  0  0  0  0
  141.2670   70.0140  228.3400 C   0  0  0  0  0  0  0  0  0  0  0  0
  140.5280   70.6650  227.3660 C   0  0  0  0  0  0  0  0  0  0  0  0
  139.9560   69.8890  226.3710 C   0  0  0  0  0  0  0  0  0  0  0  0
  139.2220   70.4760  225.3940 N   0  0  0  0  0  0  0  0  0  0  0  0
  137.8150   72.2490  224.3090 H   0  0  0  0  0  0  0  0  0  0  0  0
  136.7736   73.4886  222.4956 H   0  0  0  0  0  0  0  0  0  0  0  0
  137.0358   72.1104  221.4100 H   0  0  0  0  0  0  0  0  0  0  0  0
  134.1819   73.7926  224.3213 H   0  0  0  0  0  0  0  0  0  0  0  0
  132.8004   72.7624  224.0845 H   0  0  0  0  0  0  0  0  0  0  0  0
  134.8177   72.7498  226.4688 H   0  0  0  0  0  0  0  0  0  0  0  0
  133.1085   72.8741  226.6368 H   0  0  0  0  0  0  0  0  0  0  0  0
  134.0528   70.4132  226.8274 H   0  0  0  0  0  0  0  0  0  0  0  0
  132.8203   70.5216  225.6057 H   0  0  0  0  0  0  0  0  0  0  0  0
  135.8984   70.6142  225.2492 H   0  0  0  0  0  0  0  0  0  0  0  0
  134.8400   67.3005  221.7019 H   0  0  0  0  0  0  0  0  0  0  0  0
  135.3240   69.8400  222.1990 H   0  0  0  0  0  0  0  0  0  0  0  0
  138.3679   67.7871  223.6220 H   0  0  0  0  0  0  0  0  0  0  0  0
  139.7003   66.6438  225.3776 H   0  0  0  0  0  0  0  0  0  0  0  0
  140.9992   66.7944  227.3337 H   0  0  0  0  0  0  0  0  0  0  0  0
  141.7288   70.6118  229.1396 H   0  0  0  0  0  0  0  0  0  0  0  0
  140.4001   71.7574  227.3819 H   0  0  0  0  0  0  0  0  0  0  0  0
  1  2  2  0
  2  3  1  0
  3  4  1  0
  4  5  1  0
  5  6  2  0
  5  7  1  0
  7  8  1  0
  8  9  1  0
  9 10  1  0
 10 11  1  0
 11 12  1  0
 12 13  2  0
 13 14  1  0
 14 15  2  0
 15 16  1  0
  2 17  1  0
 17 18  2  0
 18 19  1  0
 19 20  2  0
 20 21  1  0
 21 22  2  0
 22 23  1  0
 22 24  1  0
 24 25  2  0
 25 26  1  0
 26 27  2  0
 11  7  1  0
 16 12  1  0
 27 17  1  0
 26 20  1  0
  3 28  1  0
  4 29  1  0
  4 30  1  0
  8 31  1  0
  8 32  1  0
  9 33  1  0
  9 34  1  0
 10 35  1  0
 10 36  1  0
 11 37  1  1
 15 38  1  0
 16 39  1  0
 18 40  1  0
 19 41  1  0
 21 42  1  0
 24 43  1  0
 25 44  1  0
M  END
>  <smiles>  (13) 
O=C(NCC(=O)N1CCC[C@H]1c1nnc[nH]1)c1ccc2cc(F)ccc2n1

>  <score_type>  (13) 
oracle

>  <origin>  (13) 
autodockgpu

>  <m_score__min__energy>  (13) 
-7.8399999999999999

>  <m_primary>  (13) 
energy

>  <rmsd>  (13) 
7.042292028330731

>  <m_score__min__rmsd>  (13) 
7.042292028330731

>  <meeko>  (13) 
{"free_energy": -6.35, "intermolecular_energy": -7.84, "internal_energy": -3.25, "cluster_size": 4, "cluster_id": 6, "rank_in_cluster": 3}

>  <energy>  (13) 
-7.6

>  <cluster_rmsd>  (13) 
1.01

>  <cluster>  (13) 
1

$$$$

     RDKit          3D

 44 47  0  0  0  0  0  0  0  0999 V2000
  140.8470   71.4250  221.2120 O   0  0  0  0  0  0  0  0  0  0  0  0
  140.3250   71.9820  222.2300 C   0  0  0  0  0  0  0  0  0  0  0  0
  139.8640   73.3470  222.1720 N   0  0  0  0  0  0  0  0  0  0  0  0
  139.9830   74.1260  220.9440 C   0  0  0  0  0  0  0  0  0  0  0  0
  140.6980   75.3590  221.3030 C   0  0  0  0  0  0  0  0  0  0  0  0
  140.5590   75.8960  222.4550 O   0  0  0  0  0  0  0  0  0  0  0  0
  141.5900   76.0540  220.4240 N   0  0  0  0  0  0  0  0  0  0  0  0
  141.5800   77.5270  220.3830 C   0  0  0  0  0  0  0  0  0  0  0  0
  142.2390   77.7960  219.0190 C   0  0  0  0  0  0  0  0  0  0  0  0
  143.3410   76.7630  219.0970 C   0  0  0  0  0  0  0  0  0  0  0  0
  142.5640   75.5360  219.4990 C   0  0  1  0  0  0  0  0  0  0  0  0
  143.4460   74.4910  220.0740 C   0  0  0  0  0  0  0  0  0  0  0  0
  144.7370   74.5570  220.4480 N   0  0  0  0  0  0  0  0  0  0  0  0
  145.1230   73.3820  220.9190 N   0  0  0  0  0  0  0  0  0  0  0  0
  144.0630   72.5740  220.8400 C   0  0  0  0  0  0  0  0  0  0  0  0
  142.9950   73.2260  220.3180 N   0  0  0  0  0  0  0  0  0  0  0  0
  140.1830   71.2420  223.4830 C   0  0  0  0  0  0  0  0  0  0  0  0
  139.5710   70.0050  223.4670 C   0  0  0  0  0  0  0  0  0  0  0  0
  139.3980   69.2410  224.6060 C   0  0  0  0  0  0  0  0  0  0  0  0
  139.8690   69.7680  225.8050 C   0  0  0  0  0  0  0  0  0  0  0  0
  139.7010   69.0200  226.9360 C   0  0  0  0  0  0  0  0  0  0  0  0
  140.1600   69.5200  228.1310 C   0  0  0  0  0  0  0  0  0  0  0  0
  139.9870   68.7670  229.2450 F   0  0  0  0  0  0  0  0  0  0  0  0
  140.7730   70.7600  228.1510 C   0  0  0  0  0  0  0  0  0  0  0  0
  140.9470   71.5250  227.0090 C   0  0  0  0  0  0  0  0  0  0  0  0
  140.4800   71.0060  225.8130 C   0  0  0  0  0  0  0  0  0  0  0  0
  140.6250   71.7140  224.6650 N   0  0  0  0  0  0  0  0  0  0  0  0
  139.4470   73.7330  223.0520 H   0  0  0  0  0  0  0  0  0  0  0  0
  140.5514   73.5625  220.1895 H   0  0  0  0  0  0  0  0  0  0  0  0
  138.9947   74.3483  220.5152 H   0  0  0  0  0  0  0  0  0  0  0  0
  140.5547   77.9238  220.4199 H   0  0  0  0  0  0  0  0  0  0  0  0
  142.0913   78.0044  221.2319 H   0  0  0  0  0  0  0  0  0  0  0  0
  141.5514   77.6065  218.1816 H   0  0  0  0  0  0  0  0  0  0  0  0
  142.5655   78.8313  218.8413 H   0  0  0  0  0  0  0  0  0  0  0  0
  143.8351   76.6264  218.1238 H   0  0  0  0  0  0  0  0  0  0  0  0
  144.1581   77.0255  219.7851 H   0  0  0  0  0  0  0  0  0  0  0  0
  142.0849   75.0172  218.6556 H   0  0  0  0  0  0  0  0  0  0  0  0
  144.0570   71.5204  221.1561 H   0  0  0  0  0  0  0  0  0  0  0  0
  142.0360   72.8630  220.1370 H   0  0  0  0  0  0  0  0  0  0  0  0
  139.2055   69.6104  222.5074 H   0  0  0  0  0  0  0  0  0  0  0  0
  138.9082   68.2569  224.5664 H   0  0  0  0  0  0  0  0  0  0  0  0
  139.2084   68.0375  226.8910 H   0  0  0  0  0  0  0  0  0  0  0  0
  141.1366   71.1542  229.1114 H   0  0  0  0  0  0  0  0  0  0  0  0
  141.4380   72.5084  227.0508 H   0  0  0  0  0  0  0  0  0  0  0  0
  1  2  2  0
  2  3  1  0
  3  4  1  0
  4  5  1  0
  5  6  2  0
  5  7  1  0
  7  8  1  0
  8  9  1  0
  9 10  1  0
 10 11  1  0
 11 12  1  0
 12 13  2  0
 13 14  1  0
 14 15  2  0
 15 16  1  0
  2 17  1  0
 17 18  2  0
 18 19  1  0
 19 20  2  0
 20 21  1  0
 21 22  2  0
 22 23  1  0
 22 24  1  0
 24 25  2  0
 25 26  1  0
 26 27  2  0
 11  7  1  0
 16 12  1  0
 27 17  1  0
 26 20  1  0
  3 28  1  0
  4 29  1  0
  4 30  1  0
  8 31  1  0
  8 32  1  0
  9 33  1  0
  9 34  1  0
 10 35  1  0
 10 36  1  0
 11 37  1  6
 15 38  1  0
 16 39  1  0
 18 40  1  0
 19 41  1  0
 21 42  1  0
 24 43  1  0
 25 44  1  0
M  END
>  <smiles>  (14) 
O=C(NCC(=O)N1CCC[C@H]1c1nnc[nH]1)c1ccc2cc(F)ccc2n1

>  <score_type>  (14) 
oracle

>  <origin>  (14) 
autodockgpu

>  <m_score__min__energy>  (14) 
-7.8399999999999999

>  <m_primary>  (14) 
energy

>  <rmsd>  (14) 
2.997609124515718

>  <m_score__min__rmsd>  (14) 
2.997609124515718

>  <meeko>  (14) 
{"free_energy": -7.63, "intermolecular_energy": -9.12, "internal_energy": -2.38, "cluster_size": 23, "cluster_id": 1, "rank_in_cluster": 7}

>  <energy>  (14) 
-7.59

>  <cluster_rmsd>  (14) 
1.03

>  <cluster>  (14) 
1

$$$$

     RDKit          3D

 44 47  0  0  0  0  0  0  0  0999 V2000
  140.4160   71.2890  221.0820 O   0  0  0  0  0  0  0  0  0  0  0  0
  140.0990   71.8870  222.1600 C   0  0  0  0  0  0  0  0  0  0  0  0
  139.8220   73.3020  222.1680 N   0  0  0  0  0  0  0  0  0  0  0  0
  139.8960   74.0870  220.9400 C   0  0  0  0  0  0  0  0  0  0  0  0
  140.6100   75.3250  221.2820 C   0  0  0  0  0  0  0  0  0  0  0  0
  140.4370   75.9020  222.4090 O   0  0  0  0  0  0  0  0  0  0  0  0
  141.5370   75.9830  220.4110 N   0  0  0  0  0  0  0  0  0  0  0  0
  141.5690   77.4550  220.3500 C   0  0  0  0  0  0  0  0  0  0  0  0
  142.2620   77.6860  218.9960 C   0  0  0  0  0  0  0  0  0  0  0  0
  143.3340   76.6250  219.1100 C   0  0  0  0  0  0  0  0  0  0  0  0
  142.5150   75.4250  219.5140 C   0  0  1  0  0  0  0  0  0  0  0  0
  143.3560   74.3650  220.1200 C   0  0  0  0  0  0  0  0  0  0  0  0
  143.0010   73.1990  220.6910 N   0  0  0  0  0  0  0  0  0  0  0  0
  144.0860   72.5540  221.0930 N   0  0  0  0  0  0  0  0  0  0  0  0
  145.1270   73.3250  220.7710 C   0  0  0  0  0  0  0  0  0  0  0  0
  144.7160   74.4640  220.1620 N   0  0  0  0  0  0  0  0  0  0  0  0
  140.0110   71.1440  223.4150 C   0  0  0  0  0  0  0  0  0  0  0  0
  139.4470   69.8830  223.4120 C   0  0  0  0  0  0  0  0  0  0  0  0
  139.3270   69.1140  224.5550 C   0  0  0  0  0  0  0  0  0  0  0  0
  139.8000   69.6610  225.7440 C   0  0  0  0  0  0  0  0  0  0  0  0
  139.6840   68.9080  226.8780 C   0  0  0  0  0  0  0  0  0  0  0  0
  140.1450   69.4270  228.0640 C   0  0  0  0  0  0  0  0  0  0  0  0
  140.0230   68.6690  229.1820 F   0  0  0  0  0  0  0  0  0  0  0  0
  140.7090   70.6910  228.0710 C   0  0  0  0  0  0  0  0  0  0  0  0
  140.8310   71.4610  226.9260 C   0  0  0  0  0  0  0  0  0  0  0  0
  140.3620   70.9220  225.7390 C   0  0  0  0  0  0  0  0  0  0  0  0
  140.4570   71.6340  224.5890 N   0  0  0  0  0  0  0  0  0  0  0  0
  139.5690   73.7190  223.0950 H   0  0  0  0  0  0  0  0  0  0  0  0
  140.4462   73.5318  220.1660 H   0  0  0  0  0  0  0  0  0  0  0  0
  138.8930   74.3016  220.5426 H   0  0  0  0  0  0  0  0  0  0  0  0
  140.5547   77.8806  220.3610 H   0  0  0  0  0  0  0  0  0  0  0  0
  142.0765   77.9301  221.2025 H   0  0  0  0  0  0  0  0  0  0  0  0
  141.5860   77.5030  218.1477 H   0  0  0  0  0  0  0  0  0  0  0  0
  142.6201   78.7094  218.8107 H   0  0  0  0  0  0  0  0  0  0  0  0
  143.8428   76.4609  218.1487 H   0  0  0  0  0  0  0  0  0  0  0  0
  144.1448   76.8752  219.8100 H   0  0  0  0  0  0  0  0  0  0  0  0
  142.0382   74.9068  218.6689 H   0  0  0  0  0  0  0  0  0  0  0  0
  146.1778   73.0701  220.9729 H   0  0  0  0  0  0  0  0  0  0  0  0
  145.2930   75.2520  219.7980 H   0  0  0  0  0  0  0  0  0  0  0  0
  139.0778   69.4733  222.4603 H   0  0  0  0  0  0  0  0  0  0  0  0
  138.8762   68.1111  224.5256 H   0  0  0  0  0  0  0  0  0  0  0  0
  139.2307   67.9064  226.8424 H   0  0  0  0  0  0  0  0  0  0  0  0
  141.0750   71.1005  229.0241 H   0  0  0  0  0  0  0  0  0  0  0  0
  141.2834   72.4631  226.9580 H   0  0  0  0  0  0  0  0  0  0  0  0
  1  2  2  0
  2  3  1  0
  3  4  1  0
  4  5  1  0
  5  6  2  0
  5  7  1  0
  7  8  1  0
  8  9  1  0
  9 10  1  0
 10 11  1  0
 11 12  1  0
 12 13  2  0
 13 14  1  0
 14 15  2  0
 15 16  1  0
  2 17  1  0
 17 18  2  0
 18 19  1  0
 19 20  2  0
 20 21  1  0
 21 22  2  0
 22 23  1  0
 22 24  1  0
 24 25  2  0
 25 26  1  0
 26 27  2  0
 11  7  1  0
 16 12  1  0
 27 17  1  0
 26 20  1  0
  3 28  1  0
  4 29  1  0
  4 30  1  0
  8 31  1  0
  8 32  1  0
  9 33  1  0
  9 34  1  0
 10 35  1  0
 10 36  1  0
 11 37  1  6
 15 38  1  0
 16 39  1  0
 18 40  1  0
 19 41  1  0
 21 42  1  0
 24 43  1  0
 25 44  1  0
M  END
>  <smiles>  (15) 
O=C(NCC(=O)N1CCC[C@H]1c1nnc[nH]1)c1ccc2cc(F)ccc2n1

>  <score_type>  (15) 
oracle

>  <origin>  (15) 
autodockgpu

>  <m_score__min__energy>  (15) 
-7.8399999999999999

>  <m_primary>  (15) 
energy

>  <rmsd>  (15) 
2.897868042546671

>  <m_score__min__rmsd>  (15) 
2.897868042546671

>  <meeko>  (15) 
{"free_energy": -7.78, "intermolecular_energy": -9.28, "internal_energy": -1.83, "cluster_size": 23, "cluster_id": 1, "rank_in_cluster": 2}

>  <energy>  (15) 
-7.57

>  <cluster_rmsd>  (15) 
1.05

>  <cluster>  (15) 
1

$$$$

     RDKit          3D

 44 47  0  0  0  0  0  0  0  0999 V2000
  140.5310   71.5660  221.0850 O   0  0  0  0  0  0  0  0  0  0  0  0
  140.1900   72.1210  222.1780 C   0  0  0  0  0  0  0  0  0  0  0  0
  139.8400   73.5190  222.2220 N   0  0  0  0  0  0  0  0  0  0  0  0
  139.8660   74.3350  221.0130 C   0  0  0  0  0  0  0  0  0  0  0  0
  140.6660   75.5260  221.3350 C   0  0  0  0  0  0  0  0  0  0  0  0
  140.6010   76.0790  222.4850 O   0  0  0  0  0  0  0  0  0  0  0  0
  141.5650   76.1610  220.4180 N   0  0  0  0  0  0  0  0  0  0  0  0
  141.6210   77.6310  220.3440 C   0  0  0  0  0  0  0  0  0  0  0  0
  142.2560   77.8400  218.9580 C   0  0  0  0  0  0  0  0  0  0  0  0
  143.3110   76.7590  219.0300 C   0  0  0  0  0  0  0  0  0  0  0  0
  142.4890   75.5780  219.4800 C   0  0  1  0  0  0  0  0  0  0  0  0
  143.3370   74.5060  220.0550 C   0  0  0  0  0  0  0  0  0  0  0  0
  144.6270   74.5340  220.4390 N   0  0  0  0  0  0  0  0  0  0  0  0
  144.9760   73.3450  220.9060 N   0  0  0  0  0  0  0  0  0  0  0  0
  143.8950   72.5680  220.8140 C   0  0  0  0  0  0  0  0  0  0  0  0
  142.8500   73.2530  220.2880 N   0  0  0  0  0  0  0  0  0  0  0  0
  140.1470   71.3440  223.4160 C   0  0  0  0  0  0  0  0  0  0  0  0
  139.6010   70.0760  223.3950 C   0  0  0  0  0  0  0  0  0  0  0  0
  139.5230   69.2760  224.5200 C   0  0  0  0  0  0  0  0  0  0  0  0
  140.0230   69.7980  225.7100 C   0  0  0  0  0  0  0  0  0  0  0  0
  139.9480   69.0150  226.8260 C   0  0  0  0  0  0  0  0  0  0  0  0
  140.4370   69.5090  228.0120 C   0  0  0  0  0  0  0  0  0  0  0  0
  140.3560   68.7210  229.1120 F   0  0  0  0  0  0  0  0  0  0  0  0
  140.9840   70.7800  228.0360 C   0  0  0  0  0  0  0  0  0  0  0  0
  141.0630   71.5810  226.9090 C   0  0  0  0  0  0  0  0  0  0  0  0
  140.5670   71.0670  225.7220 C   0  0  0  0  0  0  0  0  0  0  0  0
  140.6200   71.8100  224.5890 N   0  0  0  0  0  0  0  0  0  0  0  0
  139.5710   73.8990  223.1600 H   0  0  0  0  0  0  0  0  0  0  0  0
  140.3301   73.7766  220.1867 H   0  0  0  0  0  0  0  0  0  0  0  0
  138.8496   74.6105  220.6951 H   0  0  0  0  0  0  0  0  0  0  0  0
  140.6162   78.0753  220.3975 H   0  0  0  0  0  0  0  0  0  0  0  0
  142.1754   78.1025  221.1689 H   0  0  0  0  0  0  0  0  0  0  0  0
  141.5385   77.6653  218.1427 H   0  0  0  0  0  0  0  0  0  0  0  0
  142.6253   78.8550  218.7497 H   0  0  0  0  0  0  0  0  0  0  0  0
  143.7714   76.5789  218.0474 H   0  0  0  0  0  0  0  0  0  0  0  0
  144.1580   76.9977  219.6901 H   0  0  0  0  0  0  0  0  0  0  0  0
  141.9637   75.0639  218.6616 H   0  0  0  0  0  0  0  0  0  0  0  0
  143.8569   71.5131  221.1235 H   0  0  0  0  0  0  0  0  0  0  0  0
  141.8820   72.9170  220.0970 H   0  0  0  0  0  0  0  0  0  0  0  0
  139.2116   69.6858  222.4431 H   0  0  0  0  0  0  0  0  0  0  0  0
  139.0839   68.2684  224.4767 H   0  0  0  0  0  0  0  0  0  0  0  0
  139.5052   68.0092  226.7771 H   0  0  0  0  0  0  0  0  0  0  0  0
  141.3717   71.1698  228.9888 H   0  0  0  0  0  0  0  0  0  0  0  0
  141.5033   72.5880  226.9547 H   0  0  0  0  0  0  0  0  0  0  0  0
  1  2  2  0
  2  3  1  0
  3  4  1  0
  4  5  1  0
  5  6  2  0
  5  7  1  0
  7  8  1  0
  8  9  1  0
  9 10  1  0
 10 11  1  0
 11 12  1  0
 12 13  2  0
 13 14  1  0
 14 15  2  0
 15 16  1  0
  2 17  1  0
 17 18  2  0
 18 19  1  0
 19 20  2  0
 20 21  1  0
 21 22  2  0
 22 23  1  0
 22 24  1  0
 24 25  2  0
 25 26  1  0
 26 27  2  0
 11  7  1  0
 16 12  1  0
 27 17  1  0
 26 20  1  0
  3 28  1  0
  4 29  1  0
  4 30  1  0
  8 31  1  0
  8 32  1  0
  9 33  1  0
  9 34  1  0
 10 35  1  0
 10 36  1  0
 11 37  1  6
 15 38  1  0
 16 39  1  0
 18 40  1  0
 19 41  1  0
 21 42  1  0
 24 43  1  0
 25 44  1  0
M  END
>  <smiles>  (16) 
O=C(NCC(=O)N1CCC[C@H]1c1nnc[nH]1)c1ccc2cc(F)ccc2n1

>  <score_type>  (16) 
oracle

>  <origin>  (16) 
autodockgpu

>  <m_score__min__energy>  (16) 
-7.8399999999999999

>  <m_primary>  (16) 
energy

>  <rmsd>  (16) 
2.98156842144643

>  <m_score__min__rmsd>  (16) 
2.98156842144643

>  <meeko>  (16) 
{"free_energy": -7.57, "intermolecular_energy": -9.06, "internal_energy": -2.46, "cluster_size": 23, "cluster_id": 1, "rank_in_cluster": 16}

>  <energy>  (16) 
-7.57

>  <cluster_rmsd>  (16) 
1.02

>  <cluster>  (16) 
1

$$$$

     RDKit          3D

 44 47  0  0  0  0  0  0  0  0999 V2000
  140.6280   71.5390  221.1090 O   0  0  0  0  0  0  0  0  0  0  0  0
  140.2160   72.0890  222.1810 C   0  0  0  0  0  0  0  0  0  0  0  0
  139.8240   73.4770  222.1980 N   0  0  0  0  0  0  0  0  0  0  0  0
  139.8880   74.2880  220.9870 C   0  0  0  0  0  0  0  0  0  0  0  0
  140.6750   75.4810  221.3280 C   0  0  0  0  0  0  0  0  0  0  0  0
  140.6100   76.0100  222.4890 O   0  0  0  0  0  0  0  0  0  0  0  0
  141.5610   76.1450  220.4180 N   0  0  0  0  0  0  0  0  0  0  0  0
  141.5740   77.6170  220.3490 C   0  0  0  0  0  0  0  0  0  0  0  0
  142.2120   77.8480  218.9670 C   0  0  0  0  0  0  0  0  0  0  0  0
  143.2980   76.7990  219.0450 C   0  0  0  0  0  0  0  0  0  0  0  0
  142.5090   75.5920  219.4860 C   0  0  1  0  0  0  0  0  0  0  0  0
  143.3840   74.5440  220.0650 C   0  0  0  0  0  0  0  0  0  0  0  0
  144.6770   74.6040  220.4360 N   0  0  0  0  0  0  0  0  0  0  0  0
  145.0550   73.4280  220.9130 N   0  0  0  0  0  0  0  0  0  0  0  0
  143.9900   72.6280  220.8410 C   0  0  0  0  0  0  0  0  0  0  0  0
  142.9250   73.2840  220.3180 N   0  0  0  0  0  0  0  0  0  0  0  0
  140.1350   71.3180  223.4200 C   0  0  0  0  0  0  0  0  0  0  0  0
  139.5530   70.0660  223.3950 C   0  0  0  0  0  0  0  0  0  0  0  0
  139.4360   69.2720  224.5210 C   0  0  0  0  0  0  0  0  0  0  0  0
  139.9350   69.7840  225.7160 C   0  0  0  0  0  0  0  0  0  0  0  0
  139.8230   69.0060  226.8340 C   0  0  0  0  0  0  0  0  0  0  0  0
  140.3100   69.4900  228.0250 C   0  0  0  0  0  0  0  0  0  0  0  0
  140.1920   68.7080  229.1260 F   0  0  0  0  0  0  0  0  0  0  0  0
  140.8930   70.7440  228.0530 C   0  0  0  0  0  0  0  0  0  0  0  0
  141.0100   71.5400  226.9250 C   0  0  0  0  0  0  0  0  0  0  0  0
  140.5160   71.0360  225.7330 C   0  0  0  0  0  0  0  0  0  0  0  0
  140.6050   71.7740  224.5980 N   0  0  0  0  0  0  0  0  0  0  0  0
  139.4980   73.8540  223.1190 H   0  0  0  0  0  0  0  0  0  0  0  0
  140.3791   73.7265  220.1786 H   0  0  0  0  0  0  0  0  0  0  0  0
  138.8818   74.5608  220.6361 H   0  0  0  0  0  0  0  0  0  0  0  0
  140.5562   78.0315  220.3971 H   0  0  0  0  0  0  0  0  0  0  0  0
  142.1084   78.1024  221.1789 H   0  0  0  0  0  0  0  0  0  0  0  0
  141.5057   77.6535  218.1464 H   0  0  0  0  0  0  0  0  0  0  0  0
  142.5519   78.8740  218.7627 H   0  0  0  0  0  0  0  0  0  0  0  0
  143.7713   76.6353  218.0656 H   0  0  0  0  0  0  0  0  0  0  0  0
  144.1319   77.0616  219.7126 H   0  0  0  0  0  0  0  0  0  0  0  0
  142.0063   75.0639  218.6623 H   0  0  0  0  0  0  0  0  0  0  0  0
  143.9775   71.5763  221.1630 H   0  0  0  0  0  0  0  0  0  0  0  0
  141.9630   72.9270  220.1400 H   0  0  0  0  0  0  0  0  0  0  0  0
  139.1660   69.6841  222.4388 H   0  0  0  0  0  0  0  0  0  0  0  0
  138.9683   68.2775  224.4747 H   0  0  0  0  0  0  0  0  0  0  0  0
  139.3528   68.0129  226.7819 H   0  0  0  0  0  0  0  0  0  0  0  0
  141.2795   71.1248  229.0098 H   0  0  0  0  0  0  0  0  0  0  0  0
  141.4774   72.5345  226.9741 H   0  0  0  0  0  0  0  0  0  0  0  0
  1  2  2  0
  2  3  1  0
  3  4  1  0
  4  5  1  0
  5  6  2  0
  5  7  1  0
  7  8  1  0
  8  9  1  0
  9 10  1  0
 10 11  1  0
 11 12  1  0
 12 13  2  0
 13 14  1  0
 14 15  2  0
 15 16  1  0
  2 17  1  0
 17 18  2  0
 18 19  1  0
 19 20  2  0
 20 21  1  0
 21 22  2  0
 22 23  1  0
 22 24  1  0
 24 25  2  0
 25 26  1  0
 26 27  2  0
 11  7  1  0
 16 12  1  0
 27 17  1  0
 26 20  1  0
  3 28  1  0
  4 29  1  0
  4 30  1  0
  8 31  1  0
  8 32  1  0
  9 33  1  0
  9 34  1  0
 10 35  1  0
 10 36  1  0
 11 37  1  6
 15 38  1  0
 16 39  1  0
 18 40  1  0
 19 41  1  0
 21 42  1  0
 24 43  1  0
 25 44  1  0
M  END
>  <smiles>  (17) 
O=C(NCC(=O)N1CCC[C@H]1c1nnc[nH]1)c1ccc2cc(F)ccc2n1

>  <score_type>  (17) 
oracle

>  <origin>  (17) 
autodockgpu

>  <m_score__min__energy>  (17) 
-7.8399999999999999

>  <m_primary>  (17) 
energy

>  <rmsd>  (17) 
2.968852464307596

>  <m_score__min__rmsd>  (17) 
2.968852464307596

>  <meeko>  (17) 
{"free_energy": -7.61, "intermolecular_energy": -9.1, "internal_energy": -2.42, "cluster_size": 23, "cluster_id": 1, "rank_in_cluster": 10}

>  <energy>  (17) 
-7.29

>  <cluster_rmsd>  (17) 
1.06

>  <cluster>  (17) 
1

$$$$

     RDKit          3D

 44 47  0  0  0  0  0  0  0  0999 V2000
  139.8520   70.7410  221.4410 O   0  0  0  0  0  0  0  0  0  0  0  0
  139.8440   71.3300  222.5690 C   0  0  0  0  0  0  0  0  0  0  0  0
  139.8100   72.7700  222.6530 N   0  0  0  0  0  0  0  0  0  0  0  0
  139.7840   73.5900  221.4460 C   0  0  0  0  0  0  0  0  0  0  0  0
  141.0430   74.3480  221.4330 C   0  0  0  0  0  0  0  0  0  0  0  0
  141.1170   75.5210  221.9350 O   0  0  0  0  0  0  0  0  0  0  0  0
  142.2680   73.8600  220.8730 N   0  0  0  0  0  0  0  0  0  0  0  0
  142.4540   72.4130  220.6630 C   0  0  0  0  0  0  0  0  0  0  0  0
  143.9870   72.3160  220.5750 C   0  0  0  0  0  0  0  0  0  0  0  0
  144.2390   73.5340  219.7150 C   0  0  0  0  0  0  0  0  0  0  0  0
  143.4400   74.5810  220.4500 C   0  0  1  0  0  0  0  0  0  0  0  0
  143.1500   75.7540  219.5910 C   0  0  0  0  0  0  0  0  0  0  0  0
  143.3330   75.9250  218.2690 N   0  0  0  0  0  0  0  0  0  0  0  0
  142.9240   77.1350  217.9170 N   0  0  0  0  0  0  0  0  0  0  0  0
  142.4820   77.7240  219.0300 C   0  0  0  0  0  0  0  0  0  0  0  0
  142.6050   76.8970  220.0980 N   0  0  0  0  0  0  0  0  0  0  0  0
  139.8680   70.5520  223.8060 C   0  0  0  0  0  0  0  0  0  0  0  0
  139.2780   69.3040  223.8270 C   0  0  0  0  0  0  0  0  0  0  0  0
  139.2580   68.5040  224.9550 C   0  0  0  0  0  0  0  0  0  0  0  0
  139.8650   69.0050  226.1030 C   0  0  0  0  0  0  0  0  0  0  0  0
  139.8490   68.2220  227.2210 C   0  0  0  0  0  0  0  0  0  0  0  0
  140.4430   68.6960  228.3670 C   0  0  0  0  0  0  0  0  0  0  0  0
  140.4200   67.9070  229.4700 F   0  0  0  0  0  0  0  0  0  0  0  0
  141.0340   69.9460  228.3500 C   0  0  0  0  0  0  0  0  0  0  0  0
  141.0550   70.7480  227.2200 C   0  0  0  0  0  0  0  0  0  0  0  0
  140.4530   70.2540  226.0740 C   0  0  0  0  0  0  0  0  0  0  0  0
  140.4450   70.9980  224.9400 N   0  0  0  0  0  0  0  0  0  0  0  0
  139.8060   73.1770  223.6180 H   0  0  0  0  0  0  0  0  0  0  0  0
  139.7152   72.9510  220.5532 H   0  0  0  0  0  0  0  0  0  0  0  0
  138.9133   74.2622  221.4389 H   0  0  0  0  0  0  0  0  0  0  0  0
  142.0614   71.8296  221.5089 H   0  0  0  0  0  0  0  0  0  0  0  0
  141.9261   72.0137  219.7844 H   0  0  0  0  0  0  0  0  0  0  0  0
  144.4650   72.3994  221.5622 H   0  0  0  0  0  0  0  0  0  0  0  0
  144.3843   71.3665  220.1870 H   0  0  0  0  0  0  0  0  0  0  0  0
  145.3081   73.7911  219.6834 H   0  0  0  0  0  0  0  0  0  0  0  0
  143.9560   73.4082  218.6595 H   0  0  0  0  0  0  0  0  0  0  0  0
  143.9704   75.0273  221.3041 H   0  0  0  0  0  0  0  0  0  0  0  0
  142.0726   78.7440  219.0752 H   0  0  0  0  0  0  0  0  0  0  0  0
  142.3460   77.0750  221.0910 H   0  0  0  0  0  0  0  0  0  0  0  0
  138.8037   68.9301  222.9076 H   0  0  0  0  0  0  0  0  0  0  0  0
  138.7819   67.5124  224.9453 H   0  0  0  0  0  0  0  0  0  0  0  0
  139.3705   67.2316  227.2055 H   0  0  0  0  0  0  0  0  0  0  0  0
  141.5066   70.3189  229.2707 H   0  0  0  0  0  0  0  0  0  0  0  0
  141.5316   71.7393  227.2324 H   0  0  0  0  0  0  0  0  0  0  0  0
  1  2  2  0
  2  3  1  0
  3  4  1  0
  4  5  1  0
  5  6  2  0
  5  7  1  0
  7  8  1  0
  8  9  1  0
  9 10  1  0
 10 11  1  0
 11 12  1  0
 12 13  2  0
 13 14  1  0
 14 15  2  0
 15 16  1  0
  2 17  1  0
 17 18  2  0
 18 19  1  0
 19 20  2  0
 20 21  1  0
 21 22  2  0
 22 23  1  0
 22 24  1  0
 24 25  2  0
 25 26  1  0
 26 27  2  0
 11  7  1  0
 16 12  1  0
 27 17  1  0
 26 20  1  0
  3 28  1  0
  4 29  1  0
  4 30  1  0
  8 31  1  0
  8 32  1  0
  9 33  1  0
  9 34  1  0
 10 35  1  0
 10 36  1  0
 11 37  1  1
 15 38  1  0
 16 39  1  0
 18 40  1  0
 19 41  1  0
 21 42  1  0
 24 43  1  0
 25 44  1  0
M  END
>  <smiles>  (18) 
O=C(NCC(=O)N1CCC[C@H]1c1nnc[nH]1)c1ccc2cc(F)ccc2n1

>  <score_type>  (18) 
oracle

>  <origin>  (18) 
autodockgpu

>  <m_score__min__energy>  (18) 
-7.8399999999999999

>  <m_primary>  (18) 
energy

>  <rmsd>  (18) 
2.960480125662547

>  <m_score__min__rmsd>  (18) 
2.960480125662547

>  <meeko>  (18) 
{"free_energy": -7.59, "intermolecular_energy": -9.08, "internal_energy": -2.15, "cluster_size": 5, "cluster_id": 3, "rank_in_cluster": 4}

>  <energy>  (18) 
-7.23

>  <cluster_rmsd>  (18) 
1.04

>  <cluster>  (18) 
1

$$$$

     RDKit          3D

 44 47  0  0  0  0  0  0  0  0999 V2000
  140.6800   71.4900  221.1220 O   0  0  0  0  0  0  0  0  0  0  0  0
  140.2480   72.0450  222.1830 C   0  0  0  0  0  0  0  0  0  0  0  0
  139.8440   73.4300  222.1820 N   0  0  0  0  0  0  0  0  0  0  0  0
  139.9170   74.2300  220.9640 C   0  0  0  0  0  0  0  0  0  0  0  0
  140.6580   75.4500  221.3150 C   0  0  0  0  0  0  0  0  0  0  0  0
  140.5380   75.9930  222.4660 O   0  0  0  0  0  0  0  0  0  0  0  0
  141.5550   76.1270  220.4260 N   0  0  0  0  0  0  0  0  0  0  0  0
  141.5730   77.5990  220.3820 C   0  0  0  0  0  0  0  0  0  0  0  0
  142.2260   77.8520  219.0110 C   0  0  0  0  0  0  0  0  0  0  0  0
  143.3090   76.7990  219.0840 C   0  0  0  0  0  0  0  0  0  0  0  0
  142.5130   75.5870  219.4960 C   0  0  1  0  0  0  0  0  0  0  0  0
  143.3790   74.5280  220.0670 C   0  0  0  0  0  0  0  0  0  0  0  0
  144.6710   74.5750  220.4420 N   0  0  0  0  0  0  0  0  0  0  0  0
  145.0400   73.3920  220.9090 N   0  0  0  0  0  0  0  0  0  0  0  0
  143.9700   72.6000  220.8250 C   0  0  0  0  0  0  0  0  0  0  0  0
  142.9110   73.2690  220.3050 N   0  0  0  0  0  0  0  0  0  0  0  0
  140.1560   71.2840  223.4280 C   0  0  0  0  0  0  0  0  0  0  0  0
  139.5690   70.0350  223.4090 C   0  0  0  0  0  0  0  0  0  0  0  0
  139.4420   69.2500  224.5410 C   0  0  0  0  0  0  0  0  0  0  0  0
  139.9360   69.7700  225.7350 C   0  0  0  0  0  0  0  0  0  0  0  0
  139.8150   69.0010  226.8580 C   0  0  0  0  0  0  0  0  0  0  0  0
  140.2960   69.4930  228.0480 C   0  0  0  0  0  0  0  0  0  0  0  0
  140.1680   68.7200  229.1540 F   0  0  0  0  0  0  0  0  0  0  0  0
  140.8840   70.7450  228.0700 C   0  0  0  0  0  0  0  0  0  0  0  0
  141.0110   71.5310  226.9360 C   0  0  0  0  0  0  0  0  0  0  0  0
  140.5220   71.0200  225.7450 C   0  0  0  0  0  0  0  0  0  0  0  0
  140.6210   71.7480  224.6050 N   0  0  0  0  0  0  0  0  0  0  0  0
  139.5010   73.8120  223.0950 H   0  0  0  0  0  0  0  0  0  0  0  0
  140.4475   73.6758  220.1756 H   0  0  0  0  0  0  0  0  0  0  0  0
  138.9135   74.4681  220.5815 H   0  0  0  0  0  0  0  0  0  0  0  0
  140.5559   78.0156  220.4266 H   0  0  0  0  0  0  0  0  0  0  0  0
  142.1003   78.0684  221.2256 H   0  0  0  0  0  0  0  0  0  0  0  0
  141.5283   77.6727  218.1797 H   0  0  0  0  0  0  0  0  0  0  0  0
  142.5699   78.8805  218.8270 H   0  0  0  0  0  0  0  0  0  0  0  0
  143.7930   76.6504  218.1074 H   0  0  0  0  0  0  0  0  0  0  0  0
  144.1357   77.0487  219.7653 H   0  0  0  0  0  0  0  0  0  0  0  0
  142.0187   75.0733  218.6583 H   0  0  0  0  0  0  0  0  0  0  0  0
  143.9493   71.5451  221.1360 H   0  0  0  0  0  0  0  0  0  0  0  0
  141.9470   72.9190  220.1200 H   0  0  0  0  0  0  0  0  0  0  0  0
  139.1860   69.6474  222.4534 H   0  0  0  0  0  0  0  0  0  0  0  0
  138.9707   68.2569  224.4999 H   0  0  0  0  0  0  0  0  0  0  0  0
  139.3425   68.0088  226.8107 H   0  0  0  0  0  0  0  0  0  0  0  0
  141.2661   71.1321  229.0261 H   0  0  0  0  0  0  0  0  0  0  0  0
  141.4826   72.5238  226.9799 H   0  0  0  0  0  0  0  0  0  0  0  0
  1  2  2  0
  2  3  1  0
  3  4  1  0
  4  5  1  0
  5  6  2  0
  5  7  1  0
  7  8  1  0
  8  9  1  0
  9 10  1  0
 10 11  1  0
 11 12  1  0
 12 13  2  0
 13 14  1  0
 14 15  2  0
 15 16  1  0
  2 17  1  0
 17 18  2  0
 18 19  1  0
 19 20  2  0
 20 21  1  0
 21 22  2  0
 22 23  1  0
 22 24  1  0
 24 25  2  0
 25 26  1  0
 26 27  2  0
 11  7  1  0
 16 12  1  0
 27 17  1  0
 26 20  1  0
  3 28  1  0
  4 29  1  0
  4 30  1  0
  8 31  1  0
  8 32  1  0
  9 33  1  0
  9 34  1  0
 10 35  1  0
 10 36  1  0
 11 37  1  6
 15 38  1  0
 16 39  1  0
 18 40  1  0
 19 41  1  0
 21 42  1  0
 24 43  1  0
 25 44  1  0
M  END
>  <smiles>  (19) 
O=C(NCC(=O)N1CCC[C@H]1c1nnc[nH]1)c1ccc2cc(F)ccc2n1

>  <score_type>  (19) 
oracle

>  <origin>  (19) 
autodockgpu

>  <m_score__min__energy>  (19) 
-7.8399999999999999

>  <m_primary>  (19) 
energy

>  <rmsd>  (19) 
2.9772317190240347

>  <m_score__min__rmsd>  (19) 
2.9772317190240347

>  <meeko>  (19) 
{"free_energy": -7.61, "intermolecular_energy": -9.1, "internal_energy": -2.42, "cluster_size": 23, "cluster_id": 1, "rank_in_cluster": 12}

>  <energy>  (19) 
-7.1

>  <cluster_rmsd>  (19) 
1.11

>  <cluster>  (19) 
1

$$$$

     RDKit          3D

 44 47  0  0  0  0  0  0  0  0999 V2000
  139.1310   71.1620  220.9350 O   0  0  0  0  0  0  0  0  0  0  0  0
  139.7920   71.6700  221.8960 C   0  0  0  0  0  0  0  0  0  0  0  0
  140.5220   72.9020  221.7230 N   0  0  0  0  0  0  0  0  0  0  0  0
  140.5220   73.5990  220.4420 C   0  0  0  0  0  0  0  0  0  0  0  0
  141.6490   74.5410  220.4830 C   0  0  0  0  0  0  0  0  0  0  0  0
  142.1570   74.9210  221.5920 O   0  0  0  0  0  0  0  0  0  0  0  0
  142.2640   75.1080  219.3200 N   0  0  0  0  0  0  0  0  0  0  0  0
  141.8380   76.4320  218.8350 C   0  0  0  0  0  0  0  0  0  0  0  0
  142.3270   76.3920  217.3770 C   0  0  0  0  0  0  0  0  0  0  0  0
  143.6780   75.7540  217.6120 C   0  0  0  0  0  0  0  0  0  0  0  0
  143.2980   74.5740  218.4720 C   0  0  1  0  0  0  0  0  0  0  0  0
  144.4650   74.0340  219.2100 C   0  0  0  0  0  0  0  0  0  0  0  0
  145.4680   73.2440  218.7850 N   0  0  0  0  0  0  0  0  0  0  0  0
  146.3050   73.0120  219.7850 N   0  0  0  0  0  0  0  0  0  0  0  0
  145.8210   73.6640  220.8430 C   0  0  0  0  0  0  0  0  0  0  0  0
  144.6730   74.3150  220.5290 N   0  0  0  0  0  0  0  0  0  0  0  0
  139.8230   71.0080  223.1990 C   0  0  0  0  0  0  0  0  0  0  0  0
  139.2140   69.7770  223.3420 C   0  0  0  0  0  0  0  0  0  0  0  0
  139.1980   69.0850  224.5390 C   0  0  0  0  0  0  0  0  0  0  0  0
  139.8280   69.6800  225.6290 C   0  0  0  0  0  0  0  0  0  0  0  0
  139.8160   69.0030  226.8150 C   0  0  0  0  0  0  0  0  0  0  0  0
  140.4330   69.5700  227.9040 C   0  0  0  0  0  0  0  0  0  0  0  0
  140.4130   68.8870  229.0750 F   0  0  0  0  0  0  0  0  0  0  0  0
  141.0430   70.8040  227.7640 C   0  0  0  0  0  0  0  0  0  0  0  0
  141.0600   71.4980  226.5650 C   0  0  0  0  0  0  0  0  0  0  0  0
  140.4350   70.9110  225.4770 C   0  0  0  0  0  0  0  0  0  0  0  0
  140.4220   71.5470  224.2800 N   0  0  0  0  0  0  0  0  0  0  0  0
  141.0410   73.2530  222.5630 H   0  0  0  0  0  0  0  0  0  0  0  0
  140.6552   72.8819  219.6186 H   0  0  0  0  0  0  0  0  0  0  0  0
  139.5698   74.1231  220.2729 H   0  0  0  0  0  0  0  0  0  0  0  0
  140.7456   76.5484  218.8901 H   0  0  0  0  0  0  0  0  0  0  0  0
  142.2352   77.2747  219.4199 H   0  0  0  0  0  0  0  0  0  0  0  0
  141.6804   75.7709  216.7397 H   0  0  0  0  0  0  0  0  0  0  0  0
  142.3395   77.3577  216.8504 H   0  0  0  0  0  0  0  0  0  0  0  0
  144.1417   75.4322  216.6679 H   0  0  0  0  0  0  0  0  0  0  0  0
  144.4213   76.4246  218.0678 H   0  0  0  0  0  0  0  0  0  0  0  0
  142.9436   73.7029  217.9014 H   0  0  0  0  0  0  0  0  0  0  0  0
  146.2902   73.6727  221.8379 H   0  0  0  0  0  0  0  0  0  0  0  0
  144.0710   74.9050  221.1410 H   0  0  0  0  0  0  0  0  0  0  0  0
  138.7210   69.3281  222.4671 H   0  0  0  0  0  0  0  0  0  0  0  0
  138.7075   68.1043  224.6266 H   0  0  0  0  0  0  0  0  0  0  0  0
  139.3223   68.0234  226.8969 H   0  0  0  0  0  0  0  0  0  0  0  0
  141.5344   71.2522  228.6402 H   0  0  0  0  0  0  0  0  0  0  0  0
  141.5514   72.4785  226.4802 H   0  0  0  0  0  0  0  0  0  0  0  0
  1  2  2  0
  2  3  1  0
  3  4  1  0
  4  5  1  0
  5  6  2  0
  5  7  1  0
  7  8  1  0
  8  9  1  0
  9 10  1  0
 10 11  1  0
 11 12  1  0
 12 13  2  0
 13 14  1  0
 14 15  2  0
 15 16  1  0
  2 17  1  0
 17 18  2  0
 18 19  1  0
 19 20  2  0
 20 21  1  0
 21 22  2  0
 22 23  1  0
 22 24  1  0
 24 25  2  0
 25 26  1  0
 26 27  2  0
 11  7  1  0
 16 12  1  0
 27 17  1  0
 26 20  1  0
  3 28  1  0
  4 29  1  0
  4 30  1  0
  8 31  1  0
  8 32  1  0
  9 33  1  0
  9 34  1  0
 10 35  1  0
 10 36  1  0
 11 37  1  6
 15 38  1  0
 16 39  1  0
 18 40  1  0
 19 41  1  0
 21 42  1  0
 24 43  1  0
 25 44  1  0
M  END
>  <smiles>  (20) 
O=C(NCC(=O)N1CCC[C@H]1c1nnc[nH]1)c1ccc2cc(F)ccc2n1

>  <score_type>  (20) 
oracle

>  <origin>  (20) 
autodockgpu

>  <m_score__min__energy>  (20) 
-7.8399999999999999

>  <m_primary>  (20) 
energy

>  <rmsd>  (20) 
2.9402224154573657

>  <m_score__min__rmsd>  (20) 
2.9402224154573657

>  <meeko>  (20) 
{"free_energy": -6.95, "intermolecular_energy": -8.44, "internal_energy": -2.64, "cluster_size": 23, "cluster_id": 1, "rank_in_cluster": 22}

>  <energy>  (20) 
-6.99

>  <cluster_rmsd>  (20) 
1.28

>  <cluster>  (20) 
1

$$$$

     RDKit          3D

 44 47  0  0  0  0  0  0  0  0999 V2000
  141.3340   71.9640  221.3800 O   0  0  0  0  0  0  0  0  0  0  0  0
  140.4520   72.3130  222.2280 C   0  0  0  0  0  0  0  0  0  0  0  0
  139.6430   73.4880  222.0140 N   0  0  0  0  0  0  0  0  0  0  0  0
  139.8130   74.3070  220.8180 C   0  0  0  0  0  0  0  0  0  0  0  0
  140.9910   75.1520  221.0600 C   0  0  0  0  0  0  0  0  0  0  0  0
  141.4140   75.3790  222.2440 O   0  0  0  0  0  0  0  0  0  0  0  0
  141.7510   75.7840  220.0240 N   0  0  0  0  0  0  0  0  0  0  0  0
  141.6680   77.2440  219.8380 C   0  0  0  0  0  0  0  0  0  0  0  0
  142.1660   77.3930  218.3900 C   0  0  0  0  0  0  0  0  0  0  0  0
  143.3180   76.4140  218.4480 C   0  0  0  0  0  0  0  0  0  0  0  0
  142.6450   75.2080  219.0540 C   0  0  1  0  0  0  0  0  0  0  0  0
  143.6310   74.2610  219.6290 C   0  0  0  0  0  0  0  0  0  0  0  0
  144.8250   73.8600  219.1560 N   0  0  0  0  0  0  0  0  0  0  0  0
  145.3750   73.0060  220.0050 N   0  0  0  0  0  0  0  0  0  0  0  0
  144.5170   72.8730  221.0190 C   0  0  0  0  0  0  0  0  0  0  0  0
  143.4150   73.6380  220.8240 N   0  0  0  0  0  0  0  0  0  0  0  0
  140.2440   71.5240  223.4410 C   0  0  0  0  0  0  0  0  0  0  0  0
  139.5480   70.3350  223.3570 C   0  0  0  0  0  0  0  0  0  0  0  0
  139.3080   69.5290  224.4560 C   0  0  0  0  0  0  0  0  0  0  0  0
  139.8000   69.9630  225.6840 C   0  0  0  0  0  0  0  0  0  0  0  0
  139.5660   69.1740  226.7740 C   0  0  0  0  0  0  0  0  0  0  0  0
  140.0430   69.5810  227.9970 C   0  0  0  0  0  0  0  0  0  0  0  0
  139.8040   68.7880  229.0700 F   0  0  0  0  0  0  0  0  0  0  0  0
  140.7400   70.7730  228.0840 C   0  0  0  0  0  0  0  0  0  0  0  0
  140.9810   71.5800  226.9840 C   0  0  0  0  0  0  0  0  0  0  0  0
  140.4940   71.1540  225.7590 C   0  0  0  0  0  0  0  0  0  0  0  0
  140.7020   71.9060  224.6490 N   0  0  0  0  0  0  0  0  0  0  0  0
  138.9400   73.7070  222.7590 H   0  0  0  0  0  0  0  0  0  0  0  0
  139.9776   73.6671  219.9385 H   0  0  0  0  0  0  0  0  0  0  0  0
  138.9184   74.9158  220.6201 H   0  0  0  0  0  0  0  0  0  0  0  0
  140.6350   77.6057  219.9476 H   0  0  0  0  0  0  0  0  0  0  0  0
  142.2432   77.8250  220.5739 H   0  0  0  0  0  0  0  0  0  0  0  0
  141.4034   77.0928  217.6563 H   0  0  0  0  0  0  0  0  0  0  0  0
  142.4230   78.4154  218.0757 H   0  0  0  0  0  0  0  0  0  0  0  0
  143.7118   76.1945  217.4446 H   0  0  0  0  0  0  0  0  0  0  0  0
  144.1907   76.7756  219.0116 H   0  0  0  0  0  0  0  0  0  0  0  0
  142.1034   74.5876  218.3247 H   0  0  0  0  0  0  0  0  0  0  0  0
  144.6821   72.2290  221.8953 H   0  0  0  0  0  0  0  0  0  0  0  0
  142.5790   73.7440  221.4370 H   0  0  0  0  0  0  0  0  0  0  0  0
  139.1683   70.0148  222.3755 H   0  0  0  0  0  0  0  0  0  0  0  0
  138.7516   68.5846  224.3632 H   0  0  0  0  0  0  0  0  0  0  0  0
  139.0070   68.2318  226.6750 H   0  0  0  0  0  0  0  0  0  0  0  0
  141.1181   71.0929  229.0662 H   0  0  0  0  0  0  0  0  0  0  0  0
  141.5381   72.5236  227.0797 H   0  0  0  0  0  0  0  0  0  0  0  0
  1  2  2  0
  2  3  1  0
  3  4  1  0
  4  5  1  0
  5  6  2  0
  5  7  1  0
  7  8  1  0
  8  9  1  0
  9 10  1  0
 10 11  1  0
 11 12  1  0
 12 13  2  0
 13 14  1  0
 14 15  2  0
 15 16  1  0
  2 17  1  0
 17 18  2  0
 18 19  1  0
 19 20  2  0
 20 21  1  0
 21 22  2  0
 22 23  1  0
 22 24  1  0
 24 25  2  0
 25 26  1  0
 26 27  2  0
 11  7  1  0
 16 12  1  0
 27 17  1  0
 26 20  1  0
  3 28  1  0
  4 29  1  0
  4 30  1  0
  8 31  1  0
  8 32  1  0
  9 33  1  0
  9 34  1  0
 10 35  1  0
 10 36  1  0
 11 37  1  6
 15 38  1  0
 16 39  1  0
 18 40  1  0
 19 41  1  0
 21 42  1  0
 24 43  1  0
 25 44  1  0
M  END
>  <smiles>  (21) 
O=C(NCC(=O)N1CCC[C@H]1c1nnc[nH]1)c1ccc2cc(F)ccc2n1

>  <score_type>  (21) 
oracle

>  <origin>  (21) 
autodockgpu

>  <m_score__min__energy>  (21) 
-7.8399999999999999

>  <m_primary>  (21) 
energy

>  <rmsd>  (21) 
2.892786824447025

>  <m_score__min__rmsd>  (21) 
2.892786824447025

>  <meeko>  (21) 
{"free_energy": -7.23, "intermolecular_energy": -8.72, "internal_energy": -2.62, "cluster_size": 23, "cluster_id": 1, "rank_in_cluster": 18}

>  <energy>  (21) 
-6.97

>  <cluster_rmsd>  (21) 
1.29

>  <cluster>  (21) 
1

$$$$

     RDKit          3D

 44 47  0  0  0  0  0  0  0  0999 V2000
  140.1310   70.8840  221.3980 O   0  0  0  0  0  0  0  0  0  0  0  0
  139.9690   71.4760  222.5120 C   0  0  0  0  0  0  0  0  0  0  0  0
  139.7980   72.9070  222.5720 N   0  0  0  0  0  0  0  0  0  0  0  0
  139.8060   73.7140  221.3570 C   0  0  0  0  0  0  0  0  0  0  0  0
  141.0490   74.4970  221.3880 C   0  0  0  0  0  0  0  0  0  0  0  0
  141.0940   75.6500  221.9380 O   0  0  0  0  0  0  0  0  0  0  0  0
  142.2880   74.0580  220.8210 N   0  0  0  0  0  0  0  0  0  0  0  0
  142.5130   72.6240  220.5680 C   0  0  0  0  0  0  0  0  0  0  0  0
  144.0490   72.5690  220.4870 C   0  0  0  0  0  0  0  0  0  0  0  0
  144.2740   73.8180  219.6660 C   0  0  0  0  0  0  0  0  0  0  0  0
  143.4440   74.8220  220.4260 C   0  0  1  0  0  0  0  0  0  0  0  0
  143.1280   76.0120  219.6010 C   0  0  0  0  0  0  0  0  0  0  0  0
  143.3160   76.2280  218.2860 N   0  0  0  0  0  0  0  0  0  0  0  0
  142.8760   77.4360  217.9680 N   0  0  0  0  0  0  0  0  0  0  0  0
  142.4100   77.9790  219.0940 C   0  0  0  0  0  0  0  0  0  0  0  0
  142.5480   77.1240  220.1370 N   0  0  0  0  0  0  0  0  0  0  0  0
  139.9540   70.7110  223.7570 C   0  0  0  0  0  0  0  0  0  0  0  0
  139.3380   69.4750  223.7790 C   0  0  0  0  0  0  0  0  0  0  0  0
  139.2790   68.6870  224.9140 C   0  0  0  0  0  0  0  0  0  0  0  0
  139.8740   69.1890  226.0690 C   0  0  0  0  0  0  0  0  0  0  0  0
  139.8190   68.4170  227.1950 C   0  0  0  0  0  0  0  0  0  0  0  0
  140.4000   68.8910  228.3470 C   0  0  0  0  0  0  0  0  0  0  0  0
  140.3390   68.1150  229.4570 F   0  0  0  0  0  0  0  0  0  0  0  0
  141.0170   70.1300  228.3290 C   0  0  0  0  0  0  0  0  0  0  0  0
  141.0760   70.9180  227.1920 C   0  0  0  0  0  0  0  0  0  0  0  0
  140.4870   70.4250  226.0390 C   0  0  0  0  0  0  0  0  0  0  0  0
  140.5160   71.1570  224.8980 N   0  0  0  0  0  0  0  0  0  0  0  0
  139.6710   73.3180  223.5270 H   0  0  0  0  0  0  0  0  0  0  0  0
  139.7871   73.0651  220.4690 H   0  0  0  0  0  0  0  0  0  0  0  0
  138.9233   74.3684  221.3068 H   0  0  0  0  0  0  0  0  0  0  0  0
  142.1309   72.0048  221.3930 H   0  0  0  0  0  0  0  0  0  0  0  0
  142.0008   72.2387  219.6740 H   0  0  0  0  0  0  0  0  0  0  0  0
  144.5191   72.6348  221.4793 H   0  0  0  0  0  0  0  0  0  0  0  0
  144.4730   71.6422  220.0732 H   0  0  0  0  0  0  0  0  0  0  0  0
  145.3362   74.1034  219.6492 H   0  0  0  0  0  0  0  0  0  0  0  0
  144.0002   73.7164  218.6055 H   0  0  0  0  0  0  0  0  0  0  0  0
  143.9584   75.2567  221.2957 H   0  0  0  0  0  0  0  0  0  0  0  0
  141.9724   78.9856  219.1664 H   0  0  0  0  0  0  0  0  0  0  0  0
  142.2770   77.2640  221.1340 H   0  0  0  0  0  0  0  0  0  0  0  0
  138.8744   69.1013  222.8541 H   0  0  0  0  0  0  0  0  0  0  0  0
  138.7831   67.7052  224.9050 H   0  0  0  0  0  0  0  0  0  0  0  0
  139.3202   67.4367  227.1799 H   0  0  0  0  0  0  0  0  0  0  0  0
  141.4788   70.5034  229.2549 H   0  0  0  0  0  0  0  0  0  0  0  0
  141.5724   71.8996  227.2038 H   0  0  0  0  0  0  0  0  0  0  0  0
  1  2  2  0
  2  3  1  0
  3  4  1  0
  4  5  1  0
  5  6  2  0
  5  7  1  0
  7  8  1  0
  8  9  1  0
  9 10  1  0
 10 11  1  0
 11 12  1  0
 12 13  2  0
 13 14  1  0
 14 15  2  0
 15 16  1  0
  2 17  1  0
 17 18  2  0
 18 19  1  0
 19 20  2  0
 20 21  1  0
 21 22  2  0
 22 23  1  0
 22 24  1  0
 24 25  2  0
 25 26  1  0
 26 27  2  0
 11  7  1  0
 16 12  1  0
 27 17  1  0
 26 20  1  0
  3 28  1  0
  4 29  1  0
  4 30  1  0
  8 31  1  0
  8 32  1  0
  9 33  1  0
  9 34  1  0
 10 35  1  0
 10 36  1  0
 11 37  1  1
 15 38  1  0
 16 39  1  0
 18 40  1  0
 19 41  1  0
 21 42  1  0
 24 43  1  0
 25 44  1  0
M  END
>  <smiles>  (22) 
O=C(NCC(=O)N1CCC[C@H]1c1nnc[nH]1)c1ccc2cc(F)ccc2n1

>  <score_type>  (22) 
oracle

>  <origin>  (22) 
autodockgpu

>  <m_score__min__energy>  (22) 
-7.8399999999999999

>  <m_primary>  (22) 
energy

>  <rmsd>  (22) 
2.8737510515445948

>  <m_score__min__rmsd>  (22) 
2.8737510515445948

>  <meeko>  (22) 
{"free_energy": -7.62, "intermolecular_energy": -9.11, "internal_energy": -2.11, "cluster_size": 5, "cluster_id": 3, "rank_in_cluster": 1}

>  <energy>  (22) 
-6.95

>  <cluster_rmsd>  (22) 
1.3

>  <cluster>  (22) 
1

$$$$

     RDKit          3D

 44 47  0  0  0  0  0  0  0  0999 V2000
  140.5930   71.6710  221.0920 O   0  0  0  0  0  0  0  0  0  0  0  0
  140.2050   72.2080  222.1790 C   0  0  0  0  0  0  0  0  0  0  0  0
  139.8200   73.5970  222.2210 N   0  0  0  0  0  0  0  0  0  0  0  0
  139.8640   74.4240  221.0200 C   0  0  0  0  0  0  0  0  0  0  0  0
  140.7730   75.5390  221.3180 C   0  0  0  0  0  0  0  0  0  0  0  0
  140.8550   76.0340  222.4930 O   0  0  0  0  0  0  0  0  0  0  0  0
  141.6260   76.1600  220.3490 N   0  0  0  0  0  0  0  0  0  0  0  0
  141.6320   77.6260  220.2070 C   0  0  0  0  0  0  0  0  0  0  0  0
  142.2240   77.7910  218.7960 C   0  0  0  0  0  0  0  0  0  0  0  0
  143.3160   76.7500  218.8890 C   0  0  0  0  0  0  0  0  0  0  0  0
  142.5460   75.5640  219.4140 C   0  0  1  0  0  0  0  0  0  0  0  0
  143.4440   74.5480  220.0150 C   0  0  0  0  0  0  0  0  0  0  0  0
  144.7300   74.6470  220.3970 N   0  0  0  0  0  0  0  0  0  0  0  0
  145.1360   73.4880  220.8930 N   0  0  0  0  0  0  0  0  0  0  0  0
  144.0930   72.6580  220.8200 C   0  0  0  0  0  0  0  0  0  0  0  0
  143.0170   73.2790  220.2780 N   0  0  0  0  0  0  0  0  0  0  0  0
  140.1430   71.4210  223.4080 C   0  0  0  0  0  0  0  0  0  0  0  0
  139.5720   70.1640  223.3740 C   0  0  0  0  0  0  0  0  0  0  0  0
  139.4750   69.3550  224.4910 C   0  0  0  0  0  0  0  0  0  0  0  0
  139.9810   69.8560  225.6870 C   0  0  0  0  0  0  0  0  0  0  0  0
  139.8880   69.0630  226.7960 C   0  0  0  0  0  0  0  0  0  0  0  0
  140.3820   69.5370  227.9880 C   0  0  0  0  0  0  0  0  0  0  0  0
  140.2830   68.7400  229.0800 F   0  0  0  0  0  0  0  0  0  0  0  0
  140.9540   70.7960  228.0260 C   0  0  0  0  0  0  0  0  0  0  0  0
  141.0520   71.6070  226.9070 C   0  0  0  0  0  0  0  0  0  0  0  0
  140.5510   71.1140  225.7130 C   0  0  0  0  0  0  0  0  0  0  0  0
  140.6210   71.8660  224.5870 N   0  0  0  0  0  0  0  0  0  0  0  0
  139.5130   73.9630  223.1530 H   0  0  0  0  0  0  0  0  0  0  0  0
  140.2446   73.8397  220.1693 H   0  0  0  0  0  0  0  0  0  0  0  0
  138.8618   74.7877  220.7490 H   0  0  0  0  0  0  0  0  0  0  0  0
  140.6149   78.0404  220.2677 H   0  0  0  0  0  0  0  0  0  0  0  0
  142.1918   78.1521  220.9943 H   0  0  0  0  0  0  0  0  0  0  0  0
  141.4923   77.5552  218.0092 H   0  0  0  0  0  0  0  0  0  0  0  0
  142.5532   78.8067  218.5315 H   0  0  0  0  0  0  0  0  0  0  0  0
  143.7576   76.5398  217.9037 H   0  0  0  0  0  0  0  0  0  0  0  0
  144.1704   77.0466  219.5150 H   0  0  0  0  0  0  0  0  0  0  0  0
  142.0187   74.9952  218.6340 H   0  0  0  0  0  0  0  0  0  0  0  0
  144.1052   71.6103  221.1549 H   0  0  0  0  0  0  0  0  0  0  0  0
  142.0660   72.8930  220.0950 H   0  0  0  0  0  0  0  0  0  0  0  0
  139.1776   69.7905  222.4175 H   0  0  0  0  0  0  0  0  0  0  0  0
  139.0168   68.3565  224.4367 H   0  0  0  0  0  0  0  0  0  0  0  0
  139.4273   68.0659  226.7361 H   0  0  0  0  0  0  0  0  0  0  0  0
  141.3470   71.1683  228.9836 H   0  0  0  0  0  0  0  0  0  0  0  0
  141.5105   72.6052  226.9644 H   0  0  0  0  0  0  0  0  0  0  0  0
  1  2  2  0
  2  3  1  0
  3  4  1  0
  4  5  1  0
  5  6  2  0
  5  7  1  0
  7  8  1  0
  8  9  1  0
  9 10  1  0
 10 11  1  0
 11 12  1  0
 12 13  2  0
 13 14  1  0
 14 15  2  0
 15 16  1  0
  2 17  1  0
 17 18  2  0
 18 19  1  0
 19 20  2  0
 20 21  1  0
 21 22  2  0
 22 23  1  0
 22 24  1  0
 24 25  2  0
 25 26  1  0
 26 27  2  0
 11  7  1  0
 16 12  1  0
 27 17  1  0
 26 20  1  0
  3 28  1  0
  4 29  1  0
  4 30  1  0
  8 31  1  0
  8 32  1  0
  9 33  1  0
  9 34  1  0
 10 35  1  0
 10 36  1  0
 11 37  1  6
 15 38  1  0
 16 39  1  0
 18 40  1  0
 19 41  1  0
 21 42  1  0
 24 43  1  0
 25 44  1  0
M  END
>  <smiles>  (23) 
O=C(NCC(=O)N1CCC[C@H]1c1nnc[nH]1)c1ccc2cc(F)ccc2n1

>  <score_type>  (23) 
oracle

>  <origin>  (23) 
autodockgpu

>  <m_score__min__energy>  (23) 
-7.8399999999999999

>  <m_primary>  (23) 
energy

>  <rmsd>  (23) 
2.9802844414887795

>  <m_score__min__rmsd>  (23) 
2.9802844414887795

>  <meeko>  (23) 
{"free_energy": -7.61, "intermolecular_energy": -9.1, "internal_energy": -2.41, "cluster_size": 23, "cluster_id": 1, "rank_in_cluster": 9}

>  <energy>  (23) 
-6.86

>  <cluster_rmsd>  (23) 
1.17

>  <cluster>  (23) 
1

$$$$

     RDKit          3D

 44 47  0  0  0  0  0  0  0  0999 V2000
  141.2330   71.8240  221.3310 O   0  0  0  0  0  0  0  0  0  0  0  0
  140.4160   72.2320  222.2180 C   0  0  0  0  0  0  0  0  0  0  0  0
  139.6730   73.4540  222.0350 N   0  0  0  0  0  0  0  0  0  0  0  0
  139.8370   74.2560  220.8270 C   0  0  0  0  0  0  0  0  0  0  0  0
  140.8310   75.2900  221.1490 C   0  0  0  0  0  0  0  0  0  0  0  0
  141.0250   75.6740  222.3520 O   0  0  0  0  0  0  0  0  0  0  0  0
  141.6490   75.9470  220.1730 N   0  0  0  0  0  0  0  0  0  0  0  0
  141.5090   77.3980  219.9540 C   0  0  0  0  0  0  0  0  0  0  0  0
  142.1290   77.5530  218.5540 C   0  0  0  0  0  0  0  0  0  0  0  0
  143.3190   76.6370  218.7350 C   0  0  0  0  0  0  0  0  0  0  0  0
  142.6570   75.4050  219.2990 C   0  0  1  0  0  0  0  0  0  0  0  0
  143.6330   74.5190  219.9790 C   0  0  0  0  0  0  0  0  0  0  0  0
  144.8530   74.7950  220.4750 N   0  0  0  0  0  0  0  0  0  0  0  0
  145.3740   73.7000  221.0070 N   0  0  0  0  0  0  0  0  0  0  0  0
  144.4700   72.7310  220.8420 C   0  0  0  0  0  0  0  0  0  0  0  0
  143.3690   73.2000  220.2050 N   0  0  0  0  0  0  0  0  0  0  0  0
  140.2170   71.4620  223.4450 C   0  0  0  0  0  0  0  0  0  0  0  0
  139.5060   70.2800  223.3890 C   0  0  0  0  0  0  0  0  0  0  0  0
  139.2740   69.4930  224.5020 C   0  0  0  0  0  0  0  0  0  0  0  0
  139.7890   69.9370  225.7160 C   0  0  0  0  0  0  0  0  0  0  0  0
  139.5630   69.1660  226.8200 C   0  0  0  0  0  0  0  0  0  0  0  0
  140.0640   69.5850  228.0300 C   0  0  0  0  0  0  0  0  0  0  0  0
  139.8320   68.8090  229.1180 F   0  0  0  0  0  0  0  0  0  0  0  0
  140.7760   70.7690  228.0900 C   0  0  0  0  0  0  0  0  0  0  0  0
  141.0090   71.5580  226.9750 C   0  0  0  0  0  0  0  0  0  0  0  0
  140.4990   71.1210  225.7640 C   0  0  0  0  0  0  0  0  0  0  0  0
  140.6990   71.8550  224.6410 N   0  0  0  0  0  0  0  0  0  0  0  0
  139.0230   73.7210  222.8110 H   0  0  0  0  0  0  0  0  0  0  0  0
  140.1960   73.6276  219.9986 H   0  0  0  0  0  0  0  0  0  0  0  0
  138.8828   74.7035  220.5120 H   0  0  0  0  0  0  0  0  0  0  0  0
  140.4532   77.7066  219.9632 H   0  0  0  0  0  0  0  0  0  0  0  0
  141.9842   78.0183  220.7282 H   0  0  0  0  0  0  0  0  0  0  0  0
  141.4531   77.2028  217.7600 H   0  0  0  0  0  0  0  0  0  0  0  0
  142.3608   78.5829  218.2449 H   0  0  0  0  0  0  0  0  0  0  0  0
  143.8143   76.4253  217.7759 H   0  0  0  0  0  0  0  0  0  0  0  0
  144.1159   77.0520  219.3696 H   0  0  0  0  0  0  0  0  0  0  0  0
  142.2183   74.7464  218.5350 H   0  0  0  0  0  0  0  0  0  0  0  0
  144.6011   71.6918  221.1779 H   0  0  0  0  0  0  0  0  0  0  0  0
  142.5030   72.6850  219.9380 H   0  0  0  0  0  0  0  0  0  0  0  0
  139.1073   69.9504  222.4182 H   0  0  0  0  0  0  0  0  0  0  0  0
  138.7054   68.5541  224.4306 H   0  0  0  0  0  0  0  0  0  0  0  0
  138.9919   68.2290  226.7430 H   0  0  0  0  0  0  0  0  0  0  0  0
  141.1733   71.0976  229.0617 H   0  0  0  0  0  0  0  0  0  0  0  0
  141.5779   72.4965  227.0491 H   0  0  0  0  0  0  0  0  0  0  0  0
  1  2  2  0
  2  3  1  0
  3  4  1  0
  4  5  1  0
  5  6  2  0
  5  7  1  0
  7  8  1  0
  8  9  1  0
  9 10  1  0
 10 11  1  0
 11 12  1  0
 12 13  2  0
 13 14  1  0
 14 15  2  0
 15 16  1  0
  2 17  1  0
 17 18  2  0
 18 19  1  0
 19 20  2  0
 20 21  1  0
 21 22  2  0
 22 23  1  0
 22 24  1  0
 24 25  2  0
 25 26  1  0
 26 27  2  0
 11  7  1  0
 16 12  1  0
 27 17  1  0
 26 20  1  0
  3 28  1  0
  4 29  1  0
  4 30  1  0
  8 31  1  0
  8 32  1  0
  9 33  1  0
  9 34  1  0
 10 35  1  0
 10 36  1  0
 11 37  1  6
 15 38  1  0
 16 39  1  0
 18 40  1  0
 19 41  1  0
 21 42  1  0
 24 43  1  0
 25 44  1  0
M  END
>  <smiles>  (24) 
O=C(NCC(=O)N1CCC[C@H]1c1nnc[nH]1)c1ccc2cc(F)ccc2n1

>  <score_type>  (24) 
oracle

>  <origin>  (24) 
autodockgpu

>  <m_score__min__energy>  (24) 
-7.8399999999999999

>  <m_primary>  (24) 
energy

>  <rmsd>  (24) 
2.9904542362751236

>  <m_score__min__rmsd>  (24) 
2.9904542362751236

>  <meeko>  (24) 
{"free_energy": -7.73, "intermolecular_energy": -9.22, "internal_energy": -2.18, "cluster_size": 23, "cluster_id": 1, "rank_in_cluster": 4}

>  <energy>  (24) 
-7.69

>  <cluster_rmsd>  (24) 
0.0

>  <cluster>  (24) 
2

$$$$

     RDKit          3D

 44 47  0  0  0  0  0  0  0  0999 V2000
  139.5830   73.6350  222.3740 O   0  0  0  0  0  0  0  0  0  0  0  0
  139.9970   72.4340  222.2960 C   0  0  0  0  0  0  0  0  0  0  0  0
  140.5110   71.9080  221.0560 N   0  0  0  0  0  0  0  0  0  0  0  0
  140.5720   72.7380  219.8570 C   0  0  0  0  0  0  0  0  0  0  0  0
  141.6590   73.7020  220.0770 C   0  0  0  0  0  0  0  0  0  0  0  0
  142.1320   73.9160  221.2440 O   0  0  0  0  0  0  0  0  0  0  0  0
  142.2710   74.4720  219.0350 N   0  0  0  0  0  0  0  0  0  0  0  0
  141.6820   75.7620  218.6330 C   0  0  0  0  0  0  0  0  0  0  0  0
  142.2900   75.9470  217.2310 C   0  0  0  0  0  0  0  0  0  0  0  0
  143.7000   75.4960  217.5380 C   0  0  0  0  0  0  0  0  0  0  0  0
  143.4420   74.1900  218.2470 C   0  0  1  0  0  0  0  0  0  0  0  0
  144.6150   73.7560  219.0430 C   0  0  0  0  0  0  0  0  0  0  0  0
  145.6700   72.9990  218.6880 N   0  0  0  0  0  0  0  0  0  0  0  0
  146.4890   72.8690  219.7210 N   0  0  0  0  0  0  0  0  0  0  0  0
  145.9420   73.5510  220.7280 C   0  0  0  0  0  0  0  0  0  0  0  0
  144.7710   74.1200  220.3490 N   0  0  0  0  0  0  0  0  0  0  0  0
  139.9570   71.5630  223.4690 C   0  0  0  0  0  0  0  0  0  0  0  0
  139.2940   70.3550  223.3870 C   0  0  0  0  0  0  0  0  0  0  0  0
  139.2100   69.4740  224.4500 C   0  0  0  0  0  0  0  0  0  0  0  0
  139.8280   69.8490  225.6400 C   0  0  0  0  0  0  0  0  0  0  0  0
  139.7480   68.9840  226.6940 C   0  0  0  0  0  0  0  0  0  0  0  0
  140.3520   69.3330  227.8790 C   0  0  0  0  0  0  0  0  0  0  0  0
  140.2650   68.4660  228.9170 F   0  0  0  0  0  0  0  0  0  0  0  0
  141.0160   70.5440  227.9650 C   0  0  0  0  0  0  0  0  0  0  0  0
  141.1010   71.4270  226.9010 C   0  0  0  0  0  0  0  0  0  0  0  0
  140.4880   71.0590  225.7140 C   0  0  0  0  0  0  0  0  0  0  0  0
  140.5410   71.8860  224.6400 N   0  0  0  0  0  0  0  0  0  0  0  0
  140.8310   70.9110  221.0740 H   0  0  0  0  0  0  0  0  0  0  0  0
  140.7864   72.1172  218.9746 H   0  0  0  0  0  0  0  0  0  0  0  0
  139.6151   73.2493  219.6758 H   0  0  0  0  0  0  0  0  0  0  0  0
  140.5841   75.7081  218.5919 H   0  0  0  0  0  0  0  0  0  0  0  0
  141.8913   76.5889  219.3276 H   0  0  0  0  0  0  0  0  0  0  0  0
  141.8039   75.3064  216.4805 H   0  0  0  0  0  0  0  0  0  0  0  0
  142.1937   76.9532  216.7972 H   0  0  0  0  0  0  0  0  0  0  0  0
  144.2847   75.3468  216.6183 H   0  0  0  0  0  0  0  0  0  0  0  0
  144.2879   76.2187  218.1228 H   0  0  0  0  0  0  0  0  0  0  0  0
  143.2777   73.3402  217.5682 H   0  0  0  0  0  0  0  0  0  0  0  0
  146.3821   73.6401  221.7322 H   0  0  0  0  0  0  0  0  0  0  0  0
  144.1210   74.7080  220.9110 H   0  0  0  0  0  0  0  0  0  0  0  0
  138.8124   70.0816  222.4366 H   0  0  0  0  0  0  0  0  0  0  0  0
  138.6767   68.5162  224.3589 H   0  0  0  0  0  0  0  0  0  0  0  0
  139.2118   68.0285  226.5970 H   0  0  0  0  0  0  0  0  0  0  0  0
  141.4957   70.8165  228.9166 H   0  0  0  0  0  0  0  0  0  0  0  0
  141.6349   72.3841  226.9948 H   0  0  0  0  0  0  0  0  0  0  0  0
  1  2  2  0
  2  3  1  0
  3  4  1  0
  4  5  1  0
  5  6  2  0
  5  7  1  0
  7  8  1  0
  8  9  1  0
  9 10  1  0
 10 11  1  0
 11 12  1  0
 12 13  2  0
 13 14  1  0
 14 15  2  0
 15 16  1  0
  2 17  1  0
 17 18  2  0
 18 19  1  0
 19 20  2  0
 20 21  1  0
 21 22  2  0
 22 23  1  0
 22 24  1  0
 24 25  2  0
 25 26  1  0
 26 27  2  0
 11  7  1  0
 16 12  1  0
 27 17  1  0
 26 20  1  0
  3 28  1  0
  4 29  1  0
  4 30  1  0
  8 31  1  0
  8 32  1  0
  9 33  1  0
  9 34  1  0
 10 35  1  0
 10 36  1  0
 11 37  1  6
 15 38  1  0
 16 39  1  0
 18 40  1  0
 19 41  1  0
 21 42  1  0
 24 43  1  0
 25 44  1  0
M  END
>  <smiles>  (25) 
O=C(NCC(=O)N1CCC[C@H]1c1nnc[nH]1)c1ccc2cc(F)ccc2n1

>  <score_type>  (25) 
oracle

>  <origin>  (25) 
autodockgpu

>  <m_score__min__energy>  (25) 
-7.8399999999999999

>  <m_primary>  (25) 
energy

>  <rmsd>  (25) 
3.138474693780131

>  <m_score__min__rmsd>  (25) 
3.138474693780131

>  <meeko>  (25) 
{"free_energy": -7.69, "intermolecular_energy": -9.19, "internal_energy": -1.77, "cluster_size": 23, "cluster_id": 1, "rank_in_cluster": 5}

>  <energy>  (25) 
-7.67

>  <cluster_rmsd>  (25) 
0.08

>  <cluster>  (25) 
2

$$$$

     RDKit          3D

 44 47  0  0  0  0  0  0  0  0999 V2000
  140.0680   70.8700  221.3950 O   0  0  0  0  0  0  0  0  0  0  0  0
  139.9480   71.4690  222.5110 C   0  0  0  0  0  0  0  0  0  0  0  0
  139.8260   72.9050  222.5720 N   0  0  0  0  0  0  0  0  0  0  0  0
  139.8370   73.7090  221.3550 C   0  0  0  0  0  0  0  0  0  0  0  0
  141.0780   74.4950  221.3900 C   0  0  0  0  0  0  0  0  0  0  0  0
  141.1210   75.6460  221.9440 O   0  0  0  0  0  0  0  0  0  0  0  0
  142.3190   74.0610  220.8210 N   0  0  0  0  0  0  0  0  0  0  0  0
  142.5470   72.6280  220.5640 C   0  0  0  0  0  0  0  0  0  0  0  0
  144.0830   72.5760  220.4820 C   0  0  0  0  0  0  0  0  0  0  0  0
  144.3050   73.8290  219.6650 C   0  0  0  0  0  0  0  0  0  0  0  0
  143.4730   74.8280  220.4290 C   0  0  1  0  0  0  0  0  0  0  0  0
  143.1540   76.0210  219.6080 C   0  0  0  0  0  0  0  0  0  0  0  0
  143.3440   76.2430  218.2940 N   0  0  0  0  0  0  0  0  0  0  0  0
  142.9010   77.4510  217.9800 N   0  0  0  0  0  0  0  0  0  0  0  0
  142.4300   77.9870  219.1080 C   0  0  0  0  0  0  0  0  0  0  0  0
  142.5680   77.1280  220.1480 N   0  0  0  0  0  0  0  0  0  0  0  0
  139.9310   70.7060  223.7580 C   0  0  0  0  0  0  0  0  0  0  0  0
  139.3230   69.4660  223.7790 C   0  0  0  0  0  0  0  0  0  0  0  0
  139.2640   68.6800  224.9150 C   0  0  0  0  0  0  0  0  0  0  0  0
  139.8490   69.1880  226.0720 C   0  0  0  0  0  0  0  0  0  0  0  0
  139.7940   68.4190  227.2000 C   0  0  0  0  0  0  0  0  0  0  0  0
  140.3650   68.8990  228.3540 C   0  0  0  0  0  0  0  0  0  0  0  0
  140.3030   68.1250  229.4650 F   0  0  0  0  0  0  0  0  0  0  0  0
  140.9740   70.1420  228.3370 C   0  0  0  0  0  0  0  0  0  0  0  0
  141.0330   70.9290  227.1980 C   0  0  0  0  0  0  0  0  0  0  0  0
  140.4540   70.4290  226.0430 C   0  0  0  0  0  0  0  0  0  0  0  0
  140.4840   71.1580  224.9010 N   0  0  0  0  0  0  0  0  0  0  0  0
  139.7310   73.3200  223.5280 H   0  0  0  0  0  0  0  0  0  0  0  0
  139.8236   73.0579  220.4685 H   0  0  0  0  0  0  0  0  0  0  0  0
  138.9528   74.3609  221.2990 H   0  0  0  0  0  0  0  0  0  0  0  0
  142.1666   72.0058  221.3875 H   0  0  0  0  0  0  0  0  0  0  0  0
  142.0352   72.2442  219.6691 H   0  0  0  0  0  0  0  0  0  0  0  0
  144.5536   72.6391  221.4742 H   0  0  0  0  0  0  0  0  0  0  0  0
  144.5086   71.6514  220.0648 H   0  0  0  0  0  0  0  0  0  0  0  0
  145.3665   74.1169  219.6489 H   0  0  0  0  0  0  0  0  0  0  0  0
  144.0311   73.7307  218.6042 H   0  0  0  0  0  0  0  0  0  0  0  0
  143.9869   75.2599  221.3004 H   0  0  0  0  0  0  0  0  0  0  0  0
  141.9887   78.9917  219.1838 H   0  0  0  0  0  0  0  0  0  0  0  0
  142.2940   77.2630  221.1440 H   0  0  0  0  0  0  0  0  0  0  0  0
  138.8663   69.0877  222.8526 H   0  0  0  0  0  0  0  0  0  0  0  0
  138.7754   67.6945  224.9052 H   0  0  0  0  0  0  0  0  0  0  0  0
  139.3024   67.4351  227.1846 H   0  0  0  0  0  0  0  0  0  0  0  0
  141.4291   70.5200  229.2644 H   0  0  0  0  0  0  0  0  0  0  0  0
  141.5216   71.9145  227.2105 H   0  0  0  0  0  0  0  0  0  0  0  0
  1  2  2  0
  2  3  1  0
  3  4  1  0
  4  5  1  0
  5  6  2  0
  5  7  1  0
  7  8  1  0
  8  9  1  0
  9 10  1  0
 10 11  1  0
 11 12  1  0
 12 13  2  0
 13 14  1  0
 14 15  2  0
 15 16  1  0
  2 17  1  0
 17 18  2  0
 18 19  1  0
 19 20  2  0
 20 21  1  0
 21 22  2  0
 22 23  1  0
 22 24  1  0
 24 25  2  0
 25 26  1  0
 26 27  2  0
 11  7  1  0
 16 12  1  0
 27 17  1  0
 26 20  1  0
  3 28  1  0
  4 29  1  0
  4 30  1  0
  8 31  1  0
  8 32  1  0
  9 33  1  0
  9 34  1  0
 10 35  1  0
 10 36  1  0
 11 37  1  1
 15 38  1  0
 16 39  1  0
 18 40  1  0
 19 41  1  0
 21 42  1  0
 24 43  1  0
 25 44  1  0
M  END
>  <smiles>  (26) 
O=C(NCC(=O)N1CCC[C@H]1c1nnc[nH]1)c1ccc2cc(F)ccc2n1

>  <score_type>  (26) 
oracle

>  <origin>  (26) 
autodockgpu

>  <m_score__min__energy>  (26) 
-7.8399999999999999

>  <m_primary>  (26) 
energy

>  <rmsd>  (26) 
2.882082400677565

>  <m_score__min__rmsd>  (26) 
2.882082400677565

>  <meeko>  (26) 
{"free_energy": -7.6, "intermolecular_energy": -9.09, "internal_energy": -2.13, "cluster_size": 5, "cluster_id": 3, "rank_in_cluster": 3}

>  <energy>  (26) 
-7.62

>  <cluster_rmsd>  (26) 
0.23

>  <cluster>  (26) 
2

$$$$

     RDKit          3D

 44 47  0  0  0  0  0  0  0  0999 V2000
  140.5920   71.6810  221.0830 O   0  0  0  0  0  0  0  0  0  0  0  0
  140.2100   72.2490  222.1570 C   0  0  0  0  0  0  0  0  0  0  0  0
  139.8930   73.6560  222.1780 N   0  0  0  0  0  0  0  0  0  0  0  0
  140.0000   74.4660  220.9690 C   0  0  0  0  0  0  0  0  0  0  0  0
  140.2580   75.8420  221.4150 C   0  0  0  0  0  0  0  0  0  0  0  0
  140.0100   76.2100  222.6130 O   0  0  0  0  0  0  0  0  0  0  0  0
  140.7940   76.8700  220.5740 N   0  0  0  0  0  0  0  0  0  0  0  0
  140.3180   77.0070  219.1860 C   0  0  0  0  0  0  0  0  0  0  0  0
  141.4690   77.8060  218.5490 C   0  0  0  0  0  0  0  0  0  0  0  0
  141.7030   78.7920  219.6720 C   0  0  0  0  0  0  0  0  0  0  0  0
  141.7930   77.8670  220.8600 C   0  0  1  0  0  0  0  0  0  0  0  0
  141.5770   78.5900  222.1360 C   0  0  0  0  0  0  0  0  0  0  0  0
  142.4550   79.2360  222.9250 N   0  0  0  0  0  0  0  0  0  0  0  0
  141.8210   79.7470  223.9690 N   0  0  0  0  0  0  0  0  0  0  0  0
  140.5360   79.4180  223.8310 C   0  0  0  0  0  0  0  0  0  0  0  0
  140.3390   78.6960  222.7010 N   0  0  0  0  0  0  0  0  0  0  0  0
  140.0860   71.4790  223.3930 C   0  0  0  0  0  0  0  0  0  0  0  0
  139.4170   70.2710  223.3680 C   0  0  0  0  0  0  0  0  0  0  0  0
  139.2570   69.4810  224.4920 C   0  0  0  0  0  0  0  0  0  0  0  0
  139.8010   69.9510  225.6840 C   0  0  0  0  0  0  0  0  0  0  0  0
  139.6460   69.1780  226.7990 C   0  0  0  0  0  0  0  0  0  0  0  0
  140.1760   69.6200  227.9880 C   0  0  0  0  0  0  0  0  0  0  0  0
  140.0150   68.8430  229.0860 F   0  0  0  0  0  0  0  0  0  0  0  0
  140.8460   70.8300  228.0160 C   0  0  0  0  0  0  0  0  0  0  0  0
  141.0080   71.6210  226.8900 C   0  0  0  0  0  0  0  0  0  0  0  0
  140.4690   71.1600  225.7010 C   0  0  0  0  0  0  0  0  0  0  0  0
  140.5980   71.8950  224.5680 N   0  0  0  0  0  0  0  0  0  0  0  0
  139.5860   74.0470  223.1000 H   0  0  0  0  0  0  0  0  0  0  0  0
  140.8297   74.1070  220.3424 H   0  0  0  0  0  0  0  0  0  0  0  0
  139.0818   74.4070  220.3661 H   0  0  0  0  0  0  0  0  0  0  0  0
  140.1941   76.0259  218.7042 H   0  0  0  0  0  0  0  0  0  0  0  0
  139.3322   77.4862  219.0934 H   0  0  0  0  0  0  0  0  0  0  0  0
  142.3522   77.1792  218.3565 H   0  0  0  0  0  0  0  0  0  0  0  0
  141.2581   78.2452  217.5628 H   0  0  0  0  0  0  0  0  0  0  0  0
  142.6375   79.3539  219.5269 H   0  0  0  0  0  0  0  0  0  0  0  0
  140.9276   79.5672  219.7611 H   0  0  0  0  0  0  0  0  0  0  0  0
  142.7864   77.4155  220.9986 H   0  0  0  0  0  0  0  0  0  0  0  0
  139.7419   79.6956  224.5397 H   0  0  0  0  0  0  0  0  0  0  0  0
  139.4500   78.3010  222.3270 H   0  0  0  0  0  0  0  0  0  0  0  0
  138.9937   69.9226  222.4143 H   0  0  0  0  0  0  0  0  0  0  0  0
  138.7220   68.5210  224.4459 H   0  0  0  0  0  0  0  0  0  0  0  0
  139.1075   68.2202  226.7468 H   0  0  0  0  0  0  0  0  0  0  0  0
  141.2671   71.1782  228.9707 H   0  0  0  0  0  0  0  0  0  0  0  0
  141.5450   72.5798  226.9389 H   0  0  0  0  0  0  0  0  0  0  0  0
  1  2  2  0
  2  3  1  0
  3  4  1  0
  4  5  1  0
  5  6  2  0
  5  7  1  0
  7  8  1  0
  8  9  1  0
  9 10  1  0
 10 11  1  0
 11 12  1  0
 12 13  2  0
 13 14  1  0
 14 15  2  0
 15 16  1  0
  2 17  1  0
 17 18  2  0
 18 19  1  0
 19 20  2  0
 20 21  1  0
 21 22  2  0
 22 23  1  0
 22 24  1  0
 24 25  2  0
 25 26  1  0
 26 27  2  0
 11  7  1  0
 16 12  1  0
 27 17  1  0
 26 20  1  0
  3 28  1  0
  4 29  1  0
  4 30  1  0
  8 31  1  0
  8 32  1  0
  9 33  1  0
  9 34  1  0
 10 35  1  0
 10 36  1  0
 11 37  1  1
 15 38  1  0
 16 39  1  0
 18 40  1  0
 19 41  1  0
 21 42  1  0
 24 43  1  0
 25 44  1  0
M  END
>  <smiles>  (27) 
O=C(NCC(=O)N1CCC[C@H]1c1nnc[nH]1)c1ccc2cc(F)ccc2n1

>  <score_type>  (27) 
oracle

>  <origin>  (27) 
autodockgpu

>  <m_score__min__energy>  (27) 
-7.8399999999999999

>  <m_primary>  (27) 
energy

>  <rmsd>  (27) 
1.7925465340877091

>  <m_score__min__rmsd>  (27) 
1.7925465340877091

>  <meeko>  (27) 
{"free_energy": -7.5, "intermolecular_energy": -8.99, "internal_energy": -2.21, "cluster_size": 14, "cluster_id": 2, "rank_in_cluster": 10}

>  <energy>  (27) 
-7.61

>  <cluster_rmsd>  (27) 
0.16

>  <cluster>  (27) 
2

$$$$

     RDKit          3D

 44 47  0  0  0  0  0  0  0  0999 V2000
  140.5180   71.7050  221.1030 O   0  0  0  0  0  0  0  0  0  0  0  0
  140.1590   72.2830  222.1790 C   0  0  0  0  0  0  0  0  0  0  0  0
  139.8610   73.6940  222.1980 N   0  0  0  0  0  0  0  0  0  0  0  0
  139.9620   74.4970  220.9840 C   0  0  0  0  0  0  0  0  0  0  0  0
  140.2680   75.8670  221.4180 C   0  0  0  0  0  0  0  0  0  0  0  0
  140.0910   76.2360  222.6290 O   0  0  0  0  0  0  0  0  0  0  0  0
  140.7760   76.8890  220.5520 N   0  0  0  0  0  0  0  0  0  0  0  0
  140.2680   77.0020  219.1730 C   0  0  0  0  0  0  0  0  0  0  0  0
  141.3970   77.8030  218.5000 C   0  0  0  0  0  0  0  0  0  0  0  0
  141.6470   78.8060  219.6040 C   0  0  0  0  0  0  0  0  0  0  0  0
  141.7720   77.8980  220.8020 C   0  0  1  0  0  0  0  0  0  0  0  0
  141.5780   78.6360  222.0730 C   0  0  0  0  0  0  0  0  0  0  0  0
  141.2690   79.9280  222.2850 N   0  0  0  0  0  0  0  0  0  0  0  0
  141.1870   80.1570  223.5870 N   0  0  0  0  0  0  0  0  0  0  0  0
  141.4460   78.9960  224.1930 C   0  0  0  0  0  0  0  0  0  0  0  0
  141.6960   78.0210  223.2850 N   0  0  0  0  0  0  0  0  0  0  0  0
  140.0430   71.5210  223.4210 C   0  0  0  0  0  0  0  0  0  0  0  0
  139.3540   70.3240  223.4130 C   0  0  0  0  0  0  0  0  0  0  0  0
  139.1990   69.5420  224.5430 C   0  0  0  0  0  0  0  0  0  0  0  0
  139.7710   70.0080  225.7240 C   0  0  0  0  0  0  0  0  0  0  0  0
  139.6210   69.2420  226.8450 C   0  0  0  0  0  0  0  0  0  0  0  0
  140.1780   69.6810  228.0220 C   0  0  0  0  0  0  0  0  0  0  0  0
  140.0220   68.9100  229.1270 F   0  0  0  0  0  0  0  0  0  0  0  0
  140.8690   70.8790  228.0330 C   0  0  0  0  0  0  0  0  0  0  0  0
  141.0250   71.6620  226.9020 C   0  0  0  0  0  0  0  0  0  0  0  0
  140.4580   71.2050  225.7230 C   0  0  0  0  0  0  0  0  0  0  0  0
  140.5820   71.9330  224.5860 N   0  0  0  0  0  0  0  0  0  0  0  0
  139.5740   74.0940  223.1220 H   0  0  0  0  0  0  0  0  0  0  0  0
  140.7667   74.1132  220.3397 H   0  0  0  0  0  0  0  0  0  0  0  0
  139.0285   74.4615  220.4032 H   0  0  0  0  0  0  0  0  0  0  0  0
  140.1432   76.0131  218.7076 H   0  0  0  0  0  0  0  0  0  0  0  0
  139.2757   77.4703  219.0956 H   0  0  0  0  0  0  0  0  0  0  0  0
  142.2816   77.1817  218.2960 H   0  0  0  0  0  0  0  0  0  0  0  0
  141.1598   78.2272  217.5132 H   0  0  0  0  0  0  0  0  0  0  0  0
  142.5728   79.3741  219.4304 H   0  0  0  0  0  0  0  0  0  0  0  0
  140.8668   79.5754  219.7001 H   0  0  0  0  0  0  0  0  0  0  0  0
  142.7724   77.4573  220.9241 H   0  0  0  0  0  0  0  0  0  0  0  0
  141.4553   78.8501  225.2832 H   0  0  0  0  0  0  0  0  0  0  0  0
  141.9270   77.0190  223.4530 H   0  0  0  0  0  0  0  0  0  0  0  0
  138.9098   69.9781  222.4680 H   0  0  0  0  0  0  0  0  0  0  0  0
  138.6467   68.5912  224.5103 H   0  0  0  0  0  0  0  0  0  0  0  0
  139.0657   68.2932  226.8063 H   0  0  0  0  0  0  0  0  0  0  0  0
  141.3126   71.2236  228.9787 H   0  0  0  0  0  0  0  0  0  0  0  0
  141.5786   72.6119  226.9379 H   0  0  0  0  0  0  0  0  0  0  0  0
  1  2  2  0
  2  3  1  0
  3  4  1  0
  4  5  1  0
  5  6  2  0
  5  7  1  0
  7  8  1  0
  8  9  1  0
  9 10  1  0
 10 11  1  0
 11 12  1  0
 12 13  2  0
 13 14  1  0
 14 15  2  0
 15 16  1  0
  2 17  1  0
 17 18  2  0
 18 19  1  0
 19 20  2  0
 20 21  1  0
 21 22  2  0
 22 23  1  0
 22 24  1  0
 24 25  2  0
 25 26  1  0
 26 27  2  0
 11  7  1  0
 16 12  1  0
 27 17  1  0
 26 20  1  0
  3 28  1  0
  4 29  1  0
  4 30  1  0
  8 31  1  0
  8 32  1  0
  9 33  1  0
  9 34  1  0
 10 35  1  0
 10 36  1  0
 11 37  1  1
 15 38  1  0
 16 39  1  0
 18 40  1  0
 19 41  1  0
 21 42  1  0
 24 43  1  0
 25 44  1  0
M  END
>  <smiles>  (28) 
O=C(NCC(=O)N1CCC[C@H]1c1nnc[nH]1)c1ccc2cc(F)ccc2n1

>  <score_type>  (28) 
oracle

>  <origin>  (28) 
autodockgpu

>  <m_score__min__energy>  (28) 
-7.8399999999999999

>  <m_primary>  (28) 
energy

>  <rmsd>  (28) 
1.7917137080652363

>  <m_score__min__rmsd>  (28) 
1.7917137080652363

>  <meeko>  (28) 
{"free_energy": -7.69, "intermolecular_energy": -9.18, "internal_energy": -2.17, "cluster_size": 14, "cluster_id": 2, "rank_in_cluster": 1}

>  <energy>  (28) 
-7.6

>  <cluster_rmsd>  (28) 
0.13

>  <cluster>  (28) 
2

$$$$

     RDKit          3D

 44 47  0  0  0  0  0  0  0  0999 V2000
  140.7340   71.7410  221.1420 O   0  0  0  0  0  0  0  0  0  0  0  0
  140.2870   72.3020  222.1940 C   0  0  0  0  0  0  0  0  0  0  0  0
  139.9290   73.6990  222.1920 N   0  0  0  0  0  0  0  0  0  0  0  0
  140.0680   74.5060  220.9850 C   0  0  0  0  0  0  0  0  0  0  0  0
  140.1540   75.9050  221.4290 C   0  0  0  0  0  0  0  0  0  0  0  0
  139.9020   76.2340  222.6380 O   0  0  0  0  0  0  0  0  0  0  0  0
  140.5160   76.9970  220.5760 N   0  0  0  0  0  0  0  0  0  0  0  0
  139.7940   77.2090  219.3080 C   0  0  0  0  0  0  0  0  0  0  0  0
  140.7990   78.0750  218.5290 C   0  0  0  0  0  0  0  0  0  0  0  0
  141.2210   78.9940  219.6540 C   0  0  0  0  0  0  0  0  0  0  0  0
  141.5370   77.9980  220.7420 C   0  0  1  0  0  0  0  0  0  0  0  0
  141.5470   78.6340  222.0820 C   0  0  0  0  0  0  0  0  0  0  0  0
  141.3980   79.9250  222.4290 N   0  0  0  0  0  0  0  0  0  0  0  0
  141.4680   80.0410  223.7460 N   0  0  0  0  0  0  0  0  0  0  0  0
  141.6600   78.8110  224.2260 C   0  0  0  0  0  0  0  0  0  0  0  0
  141.7160   77.9020  223.2220 N   0  0  0  0  0  0  0  0  0  0  0  0
  140.1300   71.5350  223.4280 C   0  0  0  0  0  0  0  0  0  0  0  0
  139.4130   70.3550  223.3980 C   0  0  0  0  0  0  0  0  0  0  0  0
  139.2180   69.5700  224.5200 C   0  0  0  0  0  0  0  0  0  0  0  0
  139.7780   70.0140  225.7150 C   0  0  0  0  0  0  0  0  0  0  0  0
  139.5890   69.2450  226.8270 C   0  0  0  0  0  0  0  0  0  0  0  0
  140.1340   69.6630  228.0180 C   0  0  0  0  0  0  0  0  0  0  0  0
  139.9390   68.8900  229.1140 F   0  0  0  0  0  0  0  0  0  0  0  0
  140.8520   70.8450  228.0510 C   0  0  0  0  0  0  0  0  0  0  0  0
  141.0480   71.6320  226.9270 C   0  0  0  0  0  0  0  0  0  0  0  0
  140.4930   71.1950  225.7350 C   0  0  0  0  0  0  0  0  0  0  0  0
  140.6550   71.9270  224.6050 N   0  0  0  0  0  0  0  0  0  0  0  0
  139.5700   74.0860  223.0970 H   0  0  0  0  0  0  0  0  0  0  0  0
  140.9811   74.2227  220.4409 H   0  0  0  0  0  0  0  0  0  0  0  0
  139.2173   74.3552  220.3042 H   0  0  0  0  0  0  0  0  0  0  0  0
  139.5982   76.2573  218.7923 H   0  0  0  0  0  0  0  0  0  0  0  0
  138.8013   77.6679  219.4265 H   0  0  0  0  0  0  0  0  0  0  0  0
  141.6406   77.4838  218.1388 H   0  0  0  0  0  0  0  0  0  0  0  0
  140.4061   78.5704  217.6289 H   0  0  0  0  0  0  0  0  0  0  0  0
  142.1064   79.5865  219.3801 H   0  0  0  0  0  0  0  0  0  0  0  0
  140.4654   79.7432  219.9329 H   0  0  0  0  0  0  0  0  0  0  0  0
  142.5447   77.5631  220.6682 H   0  0  0  0  0  0  0  0  0  0  0  0
  141.7596   78.5671  225.2940 H   0  0  0  0  0  0  0  0  0  0  0  0
  141.8550   76.8720  223.2830 H   0  0  0  0  0  0  0  0  0  0  0  0
  138.9791   70.0259  222.4423 H   0  0  0  0  0  0  0  0  0  0  0  0
  138.6439   68.6330  224.4703 H   0  0  0  0  0  0  0  0  0  0  0  0
  139.0124   68.3099  226.7712 H   0  0  0  0  0  0  0  0  0  0  0  0
  141.2847   71.1734  229.0075 H   0  0  0  0  0  0  0  0  0  0  0  0
  141.6227   72.5685  226.9793 H   0  0  0  0  0  0  0  0  0  0  0  0
  1  2  2  0
  2  3  1  0
  3  4  1  0
  4  5  1  0
  5  6  2  0
  5  7  1  0
  7  8  1  0
  8  9  1  0
  9 10  1  0
 10 11  1  0
 11 12  1  0
 12 13  2  0
 13 14  1  0
 14 15  2  0
 15 16  1  0
  2 17  1  0
 17 18  2  0
 18 19  1  0
 19 20  2  0
 20 21  1  0
 21 22  2  0
 22 23  1  0
 22 24  1  0
 24 25  2  0
 25 26  1  0
 26 27  2  0
 11  7  1  0
 16 12  1  0
 27 17  1  0
 26 20  1  0
  3 28  1  0
  4 29  1  0
  4 30  1  0
  8 31  1  0
  8 32  1  0
  9 33  1  0
  9 34  1  0
 10 35  1  0
 10 36  1  0
 11 37  1  6
 15 38  1  0
 16 39  1  0
 18 40  1  0
 19 41  1  0
 21 42  1  0
 24 43  1  0
 25 44  1  0
M  END
>  <smiles>  (29) 
O=C(NCC(=O)N1CCC[C@H]1c1nnc[nH]1)c1ccc2cc(F)ccc2n1

>  <score_type>  (29) 
oracle

>  <origin>  (29) 
autodockgpu

>  <m_score__min__energy>  (29) 
-7.8399999999999999

>  <m_primary>  (29) 
energy

>  <rmsd>  (29) 
1.8312510465910774

>  <m_score__min__rmsd>  (29) 
1.8312510465910774

>  <meeko>  (29) 
{"free_energy": -7.62, "intermolecular_energy": -9.11, "internal_energy": -2.25, "cluster_size": 14, "cluster_id": 2, "rank_in_cluster": 3}

>  <energy>  (29) 
-7.58

>  <cluster_rmsd>  (29) 
0.32

>  <cluster>  (29) 
2

$$$$

     RDKit          3D

 44 47  0  0  0  0  0  0  0  0999 V2000
  140.0880   70.8420  221.4190 O   0  0  0  0  0  0  0  0  0  0  0  0
  139.9420   71.4300  222.5380 C   0  0  0  0  0  0  0  0  0  0  0  0
  139.7820   72.8620  222.6060 N   0  0  0  0  0  0  0  0  0  0  0  0
  139.7820   73.6740  221.3940 C   0  0  0  0  0  0  0  0  0  0  0  0
  141.0290   74.4500  221.4150 C   0  0  0  0  0  0  0  0  0  0  0  0
  141.0830   75.6060  221.9580 O   0  0  0  0  0  0  0  0  0  0  0  0
  142.2640   74.0000  220.8460 N   0  0  0  0  0  0  0  0  0  0  0  0
  142.4720   72.5650  220.5850 C   0  0  0  0  0  0  0  0  0  0  0  0
  144.0070   72.4920  220.5040 C   0  0  0  0  0  0  0  0  0  0  0  0
  144.2470   73.7440  219.6910 C   0  0  0  0  0  0  0  0  0  0  0  0
  143.4290   74.7530  220.4570 C   0  0  1  0  0  0  0  0  0  0  0  0
  143.1270   75.9520  219.6390 C   0  0  0  0  0  0  0  0  0  0  0  0
  143.3210   76.1750  218.3260 N   0  0  0  0  0  0  0  0  0  0  0  0
  142.8950   77.3900  218.0150 N   0  0  0  0  0  0  0  0  0  0  0  0
  142.4310   77.9300  219.1440 C   0  0  0  0  0  0  0  0  0  0  0  0
  142.5580   77.0670  220.1820 N   0  0  0  0  0  0  0  0  0  0  0  0
  139.9350   70.6600  223.7800 C   0  0  0  0  0  0  0  0  0  0  0  0
  139.3360   69.4160  223.7960 C   0  0  0  0  0  0  0  0  0  0  0  0
  139.2860   68.6230  224.9280 C   0  0  0  0  0  0  0  0  0  0  0  0
  139.8710   69.1280  226.0860 C   0  0  0  0  0  0  0  0  0  0  0  0
  139.8260   68.3520  227.2090 C   0  0  0  0  0  0  0  0  0  0  0  0
  140.3980   68.8290  228.3640 C   0  0  0  0  0  0  0  0  0  0  0  0
  140.3460   68.0480  229.4710 F   0  0  0  0  0  0  0  0  0  0  0  0
  140.9980   70.0750  228.3510 C   0  0  0  0  0  0  0  0  0  0  0  0
  141.0490   70.8690  227.2180 C   0  0  0  0  0  0  0  0  0  0  0  0
  140.4680   70.3730  226.0620 C   0  0  0  0  0  0  0  0  0  0  0  0
  140.4900   71.1090  224.9230 N   0  0  0  0  0  0  0  0  0  0  0  0
  139.6680   73.2700  223.5640 H   0  0  0  0  0  0  0  0  0  0  0  0
  139.7504   73.0287  220.5037 H   0  0  0  0  0  0  0  0  0  0  0  0
  138.9024   74.3335  221.3557 H   0  0  0  0  0  0  0  0  0  0  0  0
  142.0823   71.9458  221.4064 H   0  0  0  0  0  0  0  0  0  0  0  0
  141.9555   72.1909  219.6887 H   0  0  0  0  0  0  0  0  0  0  0  0
  144.4777   72.5457  221.4968 H   0  0  0  0  0  0  0  0  0  0  0  0
  144.4200   71.5629  220.0844 H   0  0  0  0  0  0  0  0  0  0  0  0
  145.3125   74.0168  219.6762 H   0  0  0  0  0  0  0  0  0  0  0  0
  143.9720   73.6525  218.6299 H   0  0  0  0  0  0  0  0  0  0  0  0
  143.9482   75.1762  221.3295 H   0  0  0  0  0  0  0  0  0  0  0  0
  142.0028   78.9402  219.2219 H   0  0  0  0  0  0  0  0  0  0  0  0
  142.2860   77.2030  221.1790 H   0  0  0  0  0  0  0  0  0  0  0  0
  138.8791   69.0396  222.8689 H   0  0  0  0  0  0  0  0  0  0  0  0
  138.8040   67.6343  224.9140 H   0  0  0  0  0  0  0  0  0  0  0  0
  139.3415   67.3647  227.1894 H   0  0  0  0  0  0  0  0  0  0  0  0
  141.4535   70.4506  229.2791 H   0  0  0  0  0  0  0  0  0  0  0  0
  141.5327   71.8568  227.2349 H   0  0  0  0  0  0  0  0  0  0  0  0
  1  2  2  0
  2  3  1  0
  3  4  1  0
  4  5  1  0
  5  6  2  0
  5  7  1  0
  7  8  1  0
  8  9  1  0
  9 10  1  0
 10 11  1  0
 11 12  1  0
 12 13  2  0
 13 14  1  0
 14 15  2  0
 15 16  1  0
  2 17  1  0
 17 18  2  0
 18 19  1  0
 19 20  2  0
 20 21  1  0
 21 22  2  0
 22 23  1  0
 22 24  1  0
 24 25  2  0
 25 26  1  0
 26 27  2  0
 11  7  1  0
 16 12  1  0
 27 17  1  0
 26 20  1  0
  3 28  1  0
  4 29  1  0
  4 30  1  0
  8 31  1  0
  8 32  1  0
  9 33  1  0
  9 34  1  0
 10 35  1  0
 10 36  1  0
 11 37  1  1
 15 38  1  0
 16 39  1  0
 18 40  1  0
 19 41  1  0
 21 42  1  0
 24 43  1  0
 25 44  1  0
M  END
>  <smiles>  (30) 
O=C(NCC(=O)N1CCC[C@H]1c1nnc[nH]1)c1ccc2cc(F)ccc2n1

>  <score_type>  (30) 
oracle

>  <origin>  (30) 
autodockgpu

>  <m_score__min__energy>  (30) 
-7.8399999999999999

>  <m_primary>  (30) 
energy

>  <rmsd>  (30) 
2.883434342584888

>  <m_score__min__rmsd>  (30) 
2.883434342584888

>  <meeko>  (30) 
{"free_energy": -7.61, "intermolecular_energy": -9.1, "internal_energy": -2.12, "cluster_size": 5, "cluster_id": 3, "rank_in_cluster": 2}

>  <energy>  (30) 
-7.56

>  <cluster_rmsd>  (30) 
0.38

>  <cluster>  (30) 
2

$$$$

     RDKit          3D

 44 47  0  0  0  0  0  0  0  0999 V2000
  140.3610   71.6200  221.0290 O   0  0  0  0  0  0  0  0  0  0  0  0
  140.0690   72.2030  222.1220 C   0  0  0  0  0  0  0  0  0  0  0  0
  139.8210   73.6230  222.1600 N   0  0  0  0  0  0  0  0  0  0  0  0
  139.8970   74.4290  220.9460 C   0  0  0  0  0  0  0  0  0  0  0  0
  140.1740   75.8060  221.3810 C   0  0  0  0  0  0  0  0  0  0  0  0
  139.9860   76.1710  222.5910 O   0  0  0  0  0  0  0  0  0  0  0  0
  140.6620   76.8370  220.5150 N   0  0  0  0  0  0  0  0  0  0  0  0
  140.1000   76.9870  219.1610 C   0  0  0  0  0  0  0  0  0  0  0  0
  141.2130   77.7850  218.4590 C   0  0  0  0  0  0  0  0  0  0  0  0
  141.5230   78.7610  219.5710 C   0  0  0  0  0  0  0  0  0  0  0  0
  141.6820   77.8270  220.7450 C   0  0  1  0  0  0  0  0  0  0  0  0
  141.5510   78.5420  222.0370 C   0  0  0  0  0  0  0  0  0  0  0  0
  141.2980   79.8390  222.2870 N   0  0  0  0  0  0  0  0  0  0  0  0
  141.2590   80.0390  223.5960 N   0  0  0  0  0  0  0  0  0  0  0  0
  141.4890   78.8560  224.1680 C   0  0  0  0  0  0  0  0  0  0  0  0
  141.6770   77.8930  223.2310 N   0  0  0  0  0  0  0  0  0  0  0  0
  139.9800   71.4370  223.3640 C   0  0  0  0  0  0  0  0  0  0  0  0
  139.3580   70.2040  223.3500 C   0  0  0  0  0  0  0  0  0  0  0  0
  139.2320   69.4170  224.4800 C   0  0  0  0  0  0  0  0  0  0  0  0
  139.7630   69.9150  225.6670 C   0  0  0  0  0  0  0  0  0  0  0  0
  139.6420   69.1440  226.7880 C   0  0  0  0  0  0  0  0  0  0  0  0
  140.1590   69.6160  227.9710 C   0  0  0  0  0  0  0  0  0  0  0  0
  140.0310   68.8400  229.0750 F   0  0  0  0  0  0  0  0  0  0  0  0
  140.7810   70.8510  227.9880 C   0  0  0  0  0  0  0  0  0  0  0  0
  140.9080   71.6400  226.8560 C   0  0  0  0  0  0  0  0  0  0  0  0
  140.3830   71.1490  225.6720 C   0  0  0  0  0  0  0  0  0  0  0  0
  140.4790   71.8810  224.5340 N   0  0  0  0  0  0  0  0  0  0  0  0
  139.5870   74.0260  223.0980 H   0  0  0  0  0  0  0  0  0  0  0  0
  140.7069   74.0645  220.2970 H   0  0  0  0  0  0  0  0  0  0  0  0
  138.9618   74.3725  220.3696 H   0  0  0  0  0  0  0  0  0  0  0  0
  139.9406   76.0103  218.6807 H   0  0  0  0  0  0  0  0  0  0  0  0
  139.1129   77.4716  219.1342 H   0  0  0  0  0  0  0  0  0  0  0  0
  142.0788   77.1551  218.2068 H   0  0  0  0  0  0  0  0  0  0  0  0
  140.9426   78.2329  217.4914 H   0  0  0  0  0  0  0  0  0  0  0  0
  142.4499   79.3186  219.3711 H   0  0  0  0  0  0  0  0  0  0  0  0
  140.7594   79.5398  219.7140 H   0  0  0  0  0  0  0  0  0  0  0  0
  142.6796   77.3693  220.8184 H   0  0  0  0  0  0  0  0  0  0  0  0
  141.5218   78.6843  225.2540 H   0  0  0  0  0  0  0  0  0  0  0  0
  141.8730   76.8800  223.3700 H   0  0  0  0  0  0  0  0  0  0  0  0
  138.9456   69.8325  222.4003 H   0  0  0  0  0  0  0  0  0  0  0  0
  138.7327   68.4376  224.4427 H   0  0  0  0  0  0  0  0  0  0  0  0
  139.1412   68.1656  226.7450 H   0  0  0  0  0  0  0  0  0  0  0  0
  141.1916   71.2220  228.9387 H   0  0  0  0  0  0  0  0  0  0  0  0
  141.4070   72.6195  226.8961 H   0  0  0  0  0  0  0  0  0  0  0  0
  1  2  2  0
  2  3  1  0
  3  4  1  0
  4  5  1  0
  5  6  2  0
  5  7  1  0
  7  8  1  0
  8  9  1  0
  9 10  1  0
 10 11  1  0
 11 12  1  0
 12 13  2  0
 13 14  1  0
 14 15  2  0
 15 16  1  0
  2 17  1  0
 17 18  2  0
 18 19  1  0
 19 20  2  0
 20 21  1  0
 21 22  2  0
 22 23  1  0
 22 24  1  0
 24 25  2  0
 25 26  1  0
 26 27  2  0
 11  7  1  0
 16 12  1  0
 27 17  1  0
 26 20  1  0
  3 28  1  0
  4 29  1  0
  4 30  1  0
  8 31  1  0
  8 32  1  0
  9 33  1  0
  9 34  1  0
 10 35  1  0
 10 36  1  0
 11 37  1  1
 15 38  1  0
 16 39  1  0
 18 40  1  0
 19 41  1  0
 21 42  1  0
 24 43  1  0
 25 44  1  0
M  END
>  <smiles>  (31) 
O=C(NCC(=O)N1CCC[C@H]1c1nnc[nH]1)c1ccc2cc(F)ccc2n1

>  <score_type>  (31) 
oracle

>  <origin>  (31) 
autodockgpu

>  <m_score__min__energy>  (31) 
-7.8399999999999999

>  <m_primary>  (31) 
energy

>  <rmsd>  (31) 
1.7134699834046854

>  <m_score__min__rmsd>  (31) 
1.7134699834046854

>  <meeko>  (31) 
{"free_energy": -7.6, "intermolecular_energy": -9.09, "internal_energy": -2.23, "cluster_size": 14, "cluster_id": 2, "rank_in_cluster": 5}

>  <energy>  (31) 
-7.56

>  <cluster_rmsd>  (31) 
1.6

>  <cluster>  (31) 
2

$$$$

     RDKit          3D

 44 47  0  0  0  0  0  0  0  0999 V2000
  139.4640   70.7890  220.7530 O   0  0  0  0  0  0  0  0  0  0  0  0
  139.9570   71.3990  221.7550 C   0  0  0  0  0  0  0  0  0  0  0  0
  140.6000   72.6800  221.6000 N   0  0  0  0  0  0  0  0  0  0  0  0
  140.7010   73.3130  220.2890 C   0  0  0  0  0  0  0  0  0  0  0  0
  141.6010   74.4640  220.4530 C   0  0  0  0  0  0  0  0  0  0  0  0
  141.8660   74.9400  221.6090 O   0  0  0  0  0  0  0  0  0  0  0  0
  142.2440   75.1410  219.3670 N   0  0  0  0  0  0  0  0  0  0  0  0
  141.8250   76.5050  219.0010 C   0  0  0  0  0  0  0  0  0  0  0  0
  142.3520   76.6070  217.5590 C   0  0  0  0  0  0  0  0  0  0  0  0
  143.6990   75.9510  217.7670 C   0  0  0  0  0  0  0  0  0  0  0  0
  143.3020   74.6930  218.4990 C   0  0  1  0  0  0  0  0  0  0  0  0
  144.4520   74.0860  219.2110 C   0  0  0  0  0  0  0  0  0  0  0  0
  145.4690   73.3430  218.7380 N   0  0  0  0  0  0  0  0  0  0  0  0
  146.2800   73.0170  219.7330 N   0  0  0  0  0  0  0  0  0  0  0  0
  145.7650   73.5620  220.8370 C   0  0  0  0  0  0  0  0  0  0  0  0
  144.6240   74.2380  220.5560 N   0  0  0  0  0  0  0  0  0  0  0  0
  139.8800   70.8050  223.0890 C   0  0  0  0  0  0  0  0  0  0  0  0
  139.2540   69.5850  223.2460 C   0  0  0  0  0  0  0  0  0  0  0  0
  139.1380   68.9550  224.4720 C   0  0  0  0  0  0  0  0  0  0  0  0
  139.6840   69.6040  225.5760 C   0  0  0  0  0  0  0  0  0  0  0  0
  139.5740   68.9890  226.7910 C   0  0  0  0  0  0  0  0  0  0  0  0
  140.1060   69.6110  227.8950 C   0  0  0  0  0  0  0  0  0  0  0  0
  139.9890   68.9890  229.0940 F   0  0  0  0  0  0  0  0  0  0  0  0
  140.7340   70.8340  227.7410 C   0  0  0  0  0  0  0  0  0  0  0  0
  140.8500   71.4650  226.5130 C   0  0  0  0  0  0  0  0  0  0  0  0
  140.3090   70.8240  225.4100 C   0  0  0  0  0  0  0  0  0  0  0  0
  140.3950   71.3980  224.1850 N   0  0  0  0  0  0  0  0  0  0  0  0
  140.9800   73.1160  222.4730 H   0  0  0  0  0  0  0  0  0  0  0  0
  141.1169   72.6061  219.5560 H   0  0  0  0  0  0  0  0  0  0  0  0
  139.7135   73.6278  219.9206 H   0  0  0  0  0  0  0  0  0  0  0  0
  140.7310   76.6136  219.0383 H   0  0  0  0  0  0  0  0  0  0  0  0
  142.2032   77.2879  219.6748 H   0  0  0  0  0  0  0  0  0  0  0  0
  141.7247   76.0496  216.8478 H   0  0  0  0  0  0  0  0  0  0  0  0
  142.3744   77.6190  217.1286 H   0  0  0  0  0  0  0  0  0  0  0  0
  144.1884   75.7225  216.8087 H   0  0  0  0  0  0  0  0  0  0  0  0
  144.4273   76.5757  218.3049 H   0  0  0  0  0  0  0  0  0  0  0  0
  142.9660   73.8802  217.8383 H   0  0  0  0  0  0  0  0  0  0  0  0
  146.2071   73.4744  221.8405 H   0  0  0  0  0  0  0  0  0  0  0  0
  144.0020   74.7640  221.2070 H   0  0  0  0  0  0  0  0  0  0  0  0
  138.8293   69.0928  222.3586 H   0  0  0  0  0  0  0  0  0  0  0  0
  138.6352   67.9816  224.5705 H   0  0  0  0  0  0  0  0  0  0  0  0
  139.0699   68.0157  226.8837 H   0  0  0  0  0  0  0  0  0  0  0  0
  141.1582   71.3252  228.6291 H   0  0  0  0  0  0  0  0  0  0  0  0
  141.3529   72.4386  226.4172 H   0  0  0  0  0  0  0  0  0  0  0  0
  1  2  2  0
  2  3  1  0
  3  4  1  0
  4  5  1  0
  5  6  2  0
  5  7  1  0
  7  8  1  0
  8  9  1  0
  9 10  1  0
 10 11  1  0
 11 12  1  0
 12 13  2  0
 13 14  1  0
 14 15  2  0
 15 16  1  0
  2 17  1  0
 17 18  2  0
 18 19  1  0
 19 20  2  0
 20 21  1  0
 21 22  2  0
 22 23  1  0
 22 24  1  0
 24 25  2  0
 25 26  1  0
 26 27  2  0
 11  7  1  0
 16 12  1  0
 27 17  1  0
 26 20  1  0
  3 28  1  0
  4 29  1  0
  4 30  1  0
  8 31  1  0
  8 32  1  0
  9 33  1  0
  9 34  1  0
 10 35  1  0
 10 36  1  0
 11 37  1  6
 15 38  1  0
 16 39  1  0
 18 40  1  0
 19 41  1  0
 21 42  1  0
 24 43  1  0
 25 44  1  0
M  END
>  <smiles>  (32) 
O=C(NCC(=O)N1CCC[C@H]1c1nnc[nH]1)c1ccc2cc(F)ccc2n1

>  <score_type>  (32) 
oracle

>  <origin>  (32) 
autodockgpu

>  <m_score__min__energy>  (32) 
-7.8399999999999999

>  <m_primary>  (32) 
energy

>  <rmsd>  (32) 
2.961844467521924

>  <m_score__min__rmsd>  (32) 
2.961844467521924

>  <meeko>  (32) 
{"free_energy": -6.99, "intermolecular_energy": -8.48, "internal_energy": -2.67, "cluster_size": 23, "cluster_id": 1, "rank_in_cluster": 20}

>  <energy>  (32) 
-7.55

>  <cluster_rmsd>  (32) 
0.7

>  <cluster>  (32) 
2

$$$$

     RDKit          3D

 44 47  0  0  0  0  0  0  0  0999 V2000
  139.2670   71.3160  221.0610 O   0  0  0  0  0  0  0  0  0  0  0  0
  139.4910   71.9060  222.1670 C   0  0  0  0  0  0  0  0  0  0  0  0
  139.6610   73.3370  222.2210 N   0  0  0  0  0  0  0  0  0  0  0  0
  139.5790   74.1470  221.0110 C   0  0  0  0  0  0  0  0  0  0  0  0
  140.5210   75.2600  221.1930 C   0  0  0  0  0  0  0  0  0  0  0  0
  141.0000   75.5440  222.3440 O   0  0  0  0  0  0  0  0  0  0  0  0
  140.9770   76.1080  220.1320 N   0  0  0  0  0  0  0  0  0  0  0  0
  140.6350   75.7850  218.7360 C   0  0  0  0  0  0  0  0  0  0  0  0
  141.7070   76.5800  217.9700 C   0  0  0  0  0  0  0  0  0  0  0  0
  141.6650   77.8530  218.7850 C   0  0  0  0  0  0  0  0  0  0  0  0
  141.7720   77.3070  220.1870 C   0  0  1  0  0  0  0  0  0  0  0  0
  141.3120   78.2910  221.1960 C   0  0  0  0  0  0  0  0  0  0  0  0
  140.7250   79.4910  221.0310 N   0  0  0  0  0  0  0  0  0  0  0  0
  140.4760   80.0290  222.2150 N   0  0  0  0  0  0  0  0  0  0  0  0
  140.9120   79.1580  223.1270 C   0  0  0  0  0  0  0  0  0  0  0  0
  141.4410   78.0600  222.5350 N   0  0  0  0  0  0  0  0  0  0  0  0
  139.5810   71.1370  223.4060 C   0  0  0  0  0  0  0  0  0  0  0  0
  139.1370   69.8290  223.4200 C   0  0  0  0  0  0  0  0  0  0  0  0
  139.1880   69.0330  224.5500 C   0  0  0  0  0  0  0  0  0  0  0  0
  139.7110   69.6020  225.7070 C   0  0  0  0  0  0  0  0  0  0  0  0
  139.7640   68.8230  226.8280 C   0  0  0  0  0  0  0  0  0  0  0  0
  140.2780   69.3630  227.9830 C   0  0  0  0  0  0  0  0  0  0  0  0
  140.3240   68.5780  229.0870 F   0  0  0  0  0  0  0  0  0  0  0  0
  140.7230   70.6730  227.9730 C   0  0  0  0  0  0  0  0  0  0  0  0
  140.6730   71.4700  226.8410 C   0  0  0  0  0  0  0  0  0  0  0  0
  140.1530   70.9100  225.6860 C   0  0  0  0  0  0  0  0  0  0  0  0
  140.0810   71.6470  224.5490 N   0  0  0  0  0  0  0  0  0  0  0  0
  139.8430   73.7450  223.1680 H   0  0  0  0  0  0  0  0  0  0  0  0
  139.8621   73.5486  220.1325 H   0  0  0  0  0  0  0  0  0  0  0  0
  138.5553   74.5137  220.8449 H   0  0  0  0  0  0  0  0  0  0  0  0
  140.7181   74.7057  218.5406 H   0  0  0  0  0  0  0  0  0  0  0  0
  139.6016   76.0374  218.4559 H   0  0  0  0  0  0  0  0  0  0  0  0
  142.6927   76.0934  218.0114 H   0  0  0  0  0  0  0  0  0  0  0  0
  141.5345   76.6977  216.8900 H   0  0  0  0  0  0  0  0  0  0  0  0
  142.5107   78.5139  218.5442 H   0  0  0  0  0  0  0  0  0  0  0  0
  140.7734   78.4727  218.6087 H   0  0  0  0  0  0  0  0  0  0  0  0
  142.8035   77.0939  220.5042 H   0  0  0  0  0  0  0  0  0  0  0  0
  140.8502   79.3110  224.2146 H   0  0  0  0  0  0  0  0  0  0  0  0
  141.8570   77.2160  222.9820 H   0  0  0  0  0  0  0  0  0  0  0  0
  138.7255   69.4025  222.4933 H   0  0  0  0  0  0  0  0  0  0  0  0
  138.8299   67.9930  224.5346 H   0  0  0  0  0  0  0  0  0  0  0  0
  139.4026   67.7843  226.8069 H   0  0  0  0  0  0  0  0  0  0  0  0
  141.1328   71.0986  228.9009 H   0  0  0  0  0  0  0  0  0  0  0  0
  141.0330   72.5093  226.8589 H   0  0  0  0  0  0  0  0  0  0  0  0
  1  2  2  0
  2  3  1  0
  3  4  1  0
  4  5  1  0
  5  6  2  0
  5  7  1  0
  7  8  1  0
  8  9  1  0
  9 10  1  0
 10 11  1  0
 11 12  1  0
 12 13  2  0
 13 14  1  0
 14 15  2  0
 15 16  1  0
  2 17  1  0
 17 18  2  0
 18 19  1  0
 19 20  2  0
 20 21  1  0
 21 22  2  0
 22 23  1  0
 22 24  1  0
 24 25  2  0
 25 26  1  0
 26 27  2  0
 11  7  1  0
 16 12  1  0
 27 17  1  0
 26 20  1  0
  3 28  1  0
  4 29  1  0
  4 30  1  0
  8 31  1  0
  8 32  1  0
  9 33  1  0
  9 34  1  0
 10 35  1  0
 10 36  1  0
 11 37  1  1
 15 38  1  0
 16 39  1  0
 18 40  1  0
 19 41  1  0
 21 42  1  0
 24 43  1  0
 25 44  1  0
M  END
>  <smiles>  (33) 
O=C(NCC(=O)N1CCC[C@H]1c1nnc[nH]1)c1ccc2cc(F)ccc2n1

>  <score_type>  (33) 
oracle

>  <origin>  (33) 
autodockgpu

>  <m_score__min__energy>  (33) 
-7.8399999999999999

>  <m_primary>  (33) 
energy

>  <rmsd>  (33) 
1.2241594172005204

>  <m_score__min__rmsd>  (33) 
1.2241594172005204

>  <meeko>  (33) 
{"free_energy": -7.03, "intermolecular_energy": -8.52, "internal_energy": -2.43, "cluster_size": 14, "cluster_id": 2, "rank_in_cluster": 13}

>  <energy>  (33) 
-7.5

>  <cluster_rmsd>  (33) 
0.74

>  <cluster>  (33) 
2

$$$$

     RDKit          3D

 44 47  0  0  0  0  0  0  0  0999 V2000
  141.0990   71.8160  221.2990 O   0  0  0  0  0  0  0  0  0  0  0  0
  140.4940   72.3450  222.2870 C   0  0  0  0  0  0  0  0  0  0  0  0
  140.0460   73.7150  222.2320 N   0  0  0  0  0  0  0  0  0  0  0  0
  140.2720   74.5300  221.0440 C   0  0  0  0  0  0  0  0  0  0  0  0
  140.1650   75.9310  221.4770 C   0  0  0  0  0  0  0  0  0  0  0  0
  139.8240   76.2340  222.6700 O   0  0  0  0  0  0  0  0  0  0  0  0
  140.4230   77.0550  220.6270 N   0  0  0  0  0  0  0  0  0  0  0  0
  139.5820   77.2860  219.4390 C   0  0  0  0  0  0  0  0  0  0  0  0
  140.4930   78.1970  218.5970 C   0  0  0  0  0  0  0  0  0  0  0  0
  140.9990   79.0930  219.7050 C   0  0  0  0  0  0  0  0  0  0  0  0
  141.4350   78.0740  220.7280 C   0  0  1  0  0  0  0  0  0  0  0  0
  141.5580   78.6710  222.0800 C   0  0  0  0  0  0  0  0  0  0  0  0
  141.5030   79.9590  222.4660 N   0  0  0  0  0  0  0  0  0  0  0  0
  141.6540   80.0350  223.7790 N   0  0  0  0  0  0  0  0  0  0  0  0
  141.8040   78.7840  224.2170 C   0  0  0  0  0  0  0  0  0  0  0  0
  141.7510   77.9010  223.1900 N   0  0  0  0  0  0  0  0  0  0  0  0
  140.2440   71.5680  223.4990 C   0  0  0  0  0  0  0  0  0  0  0  0
  139.4770   70.4230  223.4160 C   0  0  0  0  0  0  0  0  0  0  0  0
  139.1930   69.6310  224.5140 C   0  0  0  0  0  0  0  0  0  0  0  0
  139.7150   70.0320  225.7410 C   0  0  0  0  0  0  0  0  0  0  0  0
  139.4390   69.2560  226.8310 C   0  0  0  0  0  0  0  0  0  0  0  0
  139.9440   69.6320  228.0530 C   0  0  0  0  0  0  0  0  0  0  0  0
  139.6620   68.8530  229.1260 F   0  0  0  0  0  0  0  0  0  0  0  0
  140.7120   70.7800  228.1390 C   0  0  0  0  0  0  0  0  0  0  0  0
  140.9970   71.5720  227.0390 C   0  0  0  0  0  0  0  0  0  0  0  0
  140.4810   71.1790  225.8150 C   0  0  0  0  0  0  0  0  0  0  0  0
  140.7290   71.9190  224.7060 N   0  0  0  0  0  0  0  0  0  0  0  0
  139.5570   74.0760  223.0860 H   0  0  0  0  0  0  0  0  0  0  0  0
  141.2732   74.3341  220.6327 H   0  0  0  0  0  0  0  0  0  0  0  0
  139.5404   74.2986  220.2558 H   0  0  0  0  0  0  0  0  0  0  0  0
  139.3582   76.3451  218.9149 H   0  0  0  0  0  0  0  0  0  0  0  0
  138.5955   77.7182  219.6626 H   0  0  0  0  0  0  0  0  0  0  0  0
  141.3064   77.6366  218.1130 H   0  0  0  0  0  0  0  0  0  0  0  0
  140.0081   78.7087  217.7525 H   0  0  0  0  0  0  0  0  0  0  0  0
  141.8428   79.7132  219.3685 H   0  0  0  0  0  0  0  0  0  0  0  0
  140.2577   79.8165  220.0752 H   0  0  0  0  0  0  0  0  0  0  0  0
  142.4399   77.6646  220.5475 H   0  0  0  0  0  0  0  0  0  0  0  0
  141.9511   78.5060  225.2711 H   0  0  0  0  0  0  0  0  0  0  0  0
  141.8350   76.8630  223.2180 H   0  0  0  0  0  0  0  0  0  0  0  0
  139.0749   70.1281  222.4355 H   0  0  0  0  0  0  0  0  0  0  0  0
  138.5802   68.7222  224.4217 H   0  0  0  0  0  0  0  0  0  0  0  0
  138.8250   68.3486  226.7328 H   0  0  0  0  0  0  0  0  0  0  0  0
  141.1121   71.0753  229.1202 H   0  0  0  0  0  0  0  0  0  0  0  0
  141.6107   72.4799  227.1339 H   0  0  0  0  0  0  0  0  0  0  0  0
  1  2  2  0
  2  3  1  0
  3  4  1  0
  4  5  1  0
  5  6  2  0
  5  7  1  0
  7  8  1  0
  8  9  1  0
  9 10  1  0
 10 11  1  0
 11 12  1  0
 12 13  2  0
 13 14  1  0
 14 15  2  0
 15 16  1  0
  2 17  1  0
 17 18  2  0
 18 19  1  0
 19 20  2  0
 20 21  1  0
 21 22  2  0
 22 23  1  0
 22 24  1  0
 24 25  2  0
 25 26  1  0
 26 27  2  0
 11  7  1  0
 16 12  1  0
 27 17  1  0
 26 20  1  0
  3 28  1  0
  4 29  1  0
  4 30  1  0
  8 31  1  0
  8 32  1  0
  9 33  1  0
  9 34  1  0
 10 35  1  0
 10 36  1  0
 11 37  1  6
 15 38  1  0
 16 39  1  0
 18 40  1  0
 19 41  1  0
 21 42  1  0
 24 43  1  0
 25 44  1  0
M  END
>  <smiles>  (34) 
O=C(NCC(=O)N1CCC[C@H]1c1nnc[nH]1)c1ccc2cc(F)ccc2n1

>  <score_type>  (34) 
oracle

>  <origin>  (34) 
autodockgpu

>  <m_score__min__energy>  (34) 
-7.8399999999999999

>  <m_primary>  (34) 
energy

>  <rmsd>  (34) 
1.91729110499534

>  <m_score__min__rmsd>  (34) 
1.91729110499534

>  <meeko>  (34) 
{"free_energy": -7.56, "intermolecular_energy": -9.05, "internal_energy": -2.28, "cluster_size": 14, "cluster_id": 2, "rank_in_cluster": 7}

>  <energy>  (34) 
-7.49

>  <cluster_rmsd>  (34) 
0.74

>  <cluster>  (34) 
2

$$$$

     RDKit          3D

 44 47  0  0  0  0  0  0  0  0999 V2000
  140.6570   71.7010  221.0990 O   0  0  0  0  0  0  0  0  0  0  0  0
  140.2220   72.2290  222.1720 C   0  0  0  0  0  0  0  0  0  0  0  0
  139.7920   73.6060  222.1990 N   0  0  0  0  0  0  0  0  0  0  0  0
  139.8440   74.4300  220.9960 C   0  0  0  0  0  0  0  0  0  0  0  0
  140.8100   75.5020  221.2690 C   0  0  0  0  0  0  0  0  0  0  0  0
  140.9620   75.9750  222.4460 O   0  0  0  0  0  0  0  0  0  0  0  0
  141.6460   76.1020  220.2730 N   0  0  0  0  0  0  0  0  0  0  0  0
  141.6220   77.5620  220.0750 C   0  0  0  0  0  0  0  0  0  0  0  0
  142.2040   77.6840  218.6560 C   0  0  0  0  0  0  0  0  0  0  0  0
  143.3170   76.6690  218.7820 C   0  0  0  0  0  0  0  0  0  0  0  0
  142.5730   75.4890  219.3560 C   0  0  1  0  0  0  0  0  0  0  0  0
  143.4940   74.5140  219.9900 C   0  0  0  0  0  0  0  0  0  0  0  0
  144.7690   74.6630  220.3920 N   0  0  0  0  0  0  0  0  0  0  0  0
  145.2050   73.5270  220.9150 N   0  0  0  0  0  0  0  0  0  0  0  0
  144.1920   72.6620  220.8400 C   0  0  0  0  0  0  0  0  0  0  0  0
  143.1050   73.2370  220.2690 N   0  0  0  0  0  0  0  0  0  0  0  0
  140.1510   71.4440  223.4030 C   0  0  0  0  0  0  0  0  0  0  0  0
  139.5770   70.1890  223.3680 C   0  0  0  0  0  0  0  0  0  0  0  0
  139.4710   69.3820  224.4860 C   0  0  0  0  0  0  0  0  0  0  0  0
  139.9720   69.8840  225.6840 C   0  0  0  0  0  0  0  0  0  0  0  0
  139.8700   69.0940  226.7930 C   0  0  0  0  0  0  0  0  0  0  0  0
  140.3590   69.5690  227.9870 C   0  0  0  0  0  0  0  0  0  0  0  0
  140.2510   68.7740  229.0800 F   0  0  0  0  0  0  0  0  0  0  0  0
  140.9340   70.8260  228.0270 C   0  0  0  0  0  0  0  0  0  0  0  0
  141.0400   71.6350  226.9070 C   0  0  0  0  0  0  0  0  0  0  0  0
  140.5440   71.1410  225.7110 C   0  0  0  0  0  0  0  0  0  0  0  0
  140.6230   71.8910  224.5840 N   0  0  0  0  0  0  0  0  0  0  0  0
  139.4490   73.9650  223.1200 H   0  0  0  0  0  0  0  0  0  0  0  0
  140.1759   73.8285  220.1369 H   0  0  0  0  0  0  0  0  0  0  0  0
  138.8531   74.8393  220.7499 H   0  0  0  0  0  0  0  0  0  0  0  0
  140.5971   77.9583  220.1252 H   0  0  0  0  0  0  0  0  0  0  0  0
  142.1746   78.1291  220.8386 H   0  0  0  0  0  0  0  0  0  0  0  0
  141.4733   77.4040  217.8829 H   0  0  0  0  0  0  0  0  0  0  0  0
  142.5120   78.6951  218.3514 H   0  0  0  0  0  0  0  0  0  0  0  0
  143.7577   76.4303  217.8028 H   0  0  0  0  0  0  0  0  0  0  0  0
  144.1687   77.0058  219.3913 H   0  0  0  0  0  0  0  0  0  0  0  0
  142.0530   74.8808  218.6012 H   0  0  0  0  0  0  0  0  0  0  0  0
  144.2332   71.6214  221.1941 H   0  0  0  0  0  0  0  0  0  0  0  0
  142.1710   72.8160  220.0770 H   0  0  0  0  0  0  0  0  0  0  0  0
  139.1873   69.8149  222.4098 H   0  0  0  0  0  0  0  0  0  0  0  0
  139.0099   68.3848  224.4310 H   0  0  0  0  0  0  0  0  0  0  0  0
  139.4063   68.0984  226.7324 H   0  0  0  0  0  0  0  0  0  0  0  0
  141.3228   71.1985  228.9862 H   0  0  0  0  0  0  0  0  0  0  0  0
  141.5007   72.6322  226.9651 H   0  0  0  0  0  0  0  0  0  0  0  0
  1  2  2  0
  2  3  1  0
  3  4  1  0
  4  5  1  0
  5  6  2  0
  5  7  1  0
  7  8  1  0
  8  9  1  0
  9 10  1  0
 10 11  1  0
 11 12  1  0
 12 13  2  0
 13 14  1  0
 14 15  2  0
 15 16  1  0
  2 17  1  0
 17 18  2  0
 18 19  1  0
 19 20  2  0
 20 21  1  0
 21 22  2  0
 22 23  1  0
 22 24  1  0
 24 25  2  0
 25 26  1  0
 26 27  2  0
 11  7  1  0
 16 12  1  0
 27 17  1  0
 26 20  1  0
  3 28  1  0
  4 29  1  0
  4 30  1  0
  8 31  1  0
  8 32  1  0
  9 33  1  0
  9 34  1  0
 10 35  1  0
 10 36  1  0
 11 37  1  6
 15 38  1  0
 16 39  1  0
 18 40  1  0
 19 41  1  0
 21 42  1  0
 24 43  1  0
 25 44  1  0
M  END
>  <smiles>  (35) 
O=C(NCC(=O)N1CCC[C@H]1c1nnc[nH]1)c1ccc2cc(F)ccc2n1

>  <score_type>  (35) 
oracle

>  <origin>  (35) 
autodockgpu

>  <m_score__min__energy>  (35) 
-7.8399999999999999

>  <m_primary>  (35) 
energy

>  <rmsd>  (35) 
2.978877214838242

>  <m_score__min__rmsd>  (35) 
2.978877214838242

>  <meeko>  (35) 
{"free_energy": -7.62, "intermolecular_energy": -9.11, "internal_energy": -2.36, "cluster_size": 23, "cluster_id": 1, "rank_in_cluster": 8}

>  <energy>  (35) 
-7.46

>  <cluster_rmsd>  (35) 
0.44

>  <cluster>  (35) 
2

$$$$

     RDKit          3D

 44 47  0  0  0  0  0  0  0  0999 V2000
  141.1530   71.7850  221.2060 O   0  0  0  0  0  0  0  0  0  0  0  0
  140.3650   72.2050  222.1120 C   0  0  0  0  0  0  0  0  0  0  0  0
  139.6200   73.4270  221.9370 N   0  0  0  0  0  0  0  0  0  0  0  0
  139.7480   74.2150  220.7160 C   0  0  0  0  0  0  0  0  0  0  0  0
  141.0070   74.9630  220.8360 C   0  0  0  0  0  0  0  0  0  0  0  0
  141.5200   75.2220  221.9780 O   0  0  0  0  0  0  0  0  0  0  0  0
  141.7550   75.4610  219.7200 N   0  0  0  0  0  0  0  0  0  0  0  0
  141.5880   76.8600  219.2900 C   0  0  0  0  0  0  0  0  0  0  0  0
  142.1150   76.7960  217.8450 C   0  0  0  0  0  0  0  0  0  0  0  0
  143.3220   75.9180  218.0870 C   0  0  0  0  0  0  0  0  0  0  0  0
  142.7090   74.7890  218.8760 C   0  0  1  0  0  0  0  0  0  0  0  0
  143.7340   74.0170  219.6190 C   0  0  0  0  0  0  0  0  0  0  0  0
  145.0200   73.7680  219.3130 N   0  0  0  0  0  0  0  0  0  0  0  0
  145.5710   73.0390  220.2710 N   0  0  0  0  0  0  0  0  0  0  0  0
  144.6210   72.8310  221.1840 C   0  0  0  0  0  0  0  0  0  0  0  0
  143.4580   73.4240  220.8170 N   0  0  0  0  0  0  0  0  0  0  0  0
  140.2020   71.4510  223.3540 C   0  0  0  0  0  0  0  0  0  0  0  0
  139.5340   70.2430  223.3230 C   0  0  0  0  0  0  0  0  0  0  0  0
  139.3380   69.4670  224.4510 C   0  0  0  0  0  0  0  0  0  0  0  0
  139.8440   69.9520  225.6540 C   0  0  0  0  0  0  0  0  0  0  0  0
  139.6540   69.1930  226.7730 C   0  0  0  0  0  0  0  0  0  0  0  0
  140.1460   69.6510  227.9720 C   0  0  0  0  0  0  0  0  0  0  0  0
  139.9500   68.8870  229.0750 F   0  0  0  0  0  0  0  0  0  0  0  0
  140.8150   70.8610  228.0060 C   0  0  0  0  0  0  0  0  0  0  0  0
  141.0130   71.6380  226.8760 C   0  0  0  0  0  0  0  0  0  0  0  0
  140.5110   71.1610  225.6760 C   0  0  0  0  0  0  0  0  0  0  0  0
  140.6770   71.8820  224.5390 N   0  0  0  0  0  0  0  0  0  0  0  0
  138.9940   73.7050  222.7300 H   0  0  0  0  0  0  0  0  0  0  0  0
  139.7806   73.5534  219.8378 H   0  0  0  0  0  0  0  0  0  0  0  0
  138.8916   74.8932  220.5871 H   0  0  0  0  0  0  0  0  0  0  0  0
  140.5323   77.1674  219.3204 H   0  0  0  0  0  0  0  0  0  0  0  0
  142.1064   77.5921  219.9267 H   0  0  0  0  0  0  0  0  0  0  0  0
  141.3923   76.3280  217.1603 H   0  0  0  0  0  0  0  0  0  0  0  0
  142.3171   77.7655  217.3662 H   0  0  0  0  0  0  0  0  0  0  0  0
  143.7562   75.5601  217.1418 H   0  0  0  0  0  0  0  0  0  0  0  0
  144.1545   76.4252  218.5966 H   0  0  0  0  0  0  0  0  0  0  0  0
  142.2277   74.0209  218.2528 H   0  0  0  0  0  0  0  0  0  0  0  0
  144.7621   72.2554  222.1107 H   0  0  0  0  0  0  0  0  0  0  0  0
  142.5470   73.4380  221.3210 H   0  0  0  0  0  0  0  0  0  0  0  0
  139.1412   69.8826  222.3608 H   0  0  0  0  0  0  0  0  0  0  0  0
  138.8044   68.5064  224.3998 H   0  0  0  0  0  0  0  0  0  0  0  0
  139.1179   68.2342  226.7161 H   0  0  0  0  0  0  0  0  0  0  0  0
  141.2057   71.2211  228.9691 H   0  0  0  0  0  0  0  0  0  0  0  0
  141.5485   72.5973  226.9296 H   0  0  0  0  0  0  0  0  0  0  0  0
  1  2  2  0
  2  3  1  0
  3  4  1  0
  4  5  1  0
  5  6  2  0
  5  7  1  0
  7  8  1  0
  8  9  1  0
  9 10  1  0
 10 11  1  0
 11 12  1  0
 12 13  2  0
 13 14  1  0
 14 15  2  0
 15 16  1  0
  2 17  1  0
 17 18  2  0
 18 19  1  0
 19 20  2  0
 20 21  1  0
 21 22  2  0
 22 23  1  0
 22 24  1  0
 24 25  2  0
 25 26  1  0
 26 27  2  0
 11  7  1  0
 16 12  1  0
 27 17  1  0
 26 20  1  0
  3 28  1  0
  4 29  1  0
  4 30  1  0
  8 31  1  0
  8 32  1  0
  9 33  1  0
  9 34  1  0
 10 35  1  0
 10 36  1  0
 11 37  1  6
 15 38  1  0
 16 39  1  0
 18 40  1  0
 19 41  1  0
 21 42  1  0
 24 43  1  0
 25 44  1  0
M  END
>  <smiles>  (36) 
O=C(NCC(=O)N1CCC[C@H]1c1nnc[nH]1)c1ccc2cc(F)ccc2n1

>  <score_type>  (36) 
oracle

>  <origin>  (36) 
autodockgpu

>  <m_score__min__energy>  (36) 
-7.8399999999999999

>  <m_primary>  (36) 
energy

>  <rmsd>  (36) 
2.874210186886776

>  <m_score__min__rmsd>  (36) 
2.874210186886776

>  <meeko>  (36) 
{"free_energy": -7.1, "intermolecular_energy": -8.59, "internal_energy": -2.68, "cluster_size": 23, "cluster_id": 1, "rank_in_cluster": 19}

>  <energy>  (36) 
-7.03

>  <cluster_rmsd>  (36) 
0.8

>  <cluster>  (36) 
2

$$$$

     RDKit          3D

 44 47  0  0  0  0  0  0  0  0999 V2000
  140.5140   71.2970  221.1130 O   0  0  0  0  0  0  0  0  0  0  0  0
  140.1590   71.8940  222.1790 C   0  0  0  0  0  0  0  0  0  0  0  0
  139.8590   73.3050  222.1740 N   0  0  0  0  0  0  0  0  0  0  0  0
  139.9530   74.0860  220.9450 C   0  0  0  0  0  0  0  0  0  0  0  0
  140.7440   75.2800  221.2730 C   0  0  0  0  0  0  0  0  0  0  0  0
  140.6100   75.8790  222.3940 O   0  0  0  0  0  0  0  0  0  0  0  0
  141.7100   75.8690  220.3940 N   0  0  0  0  0  0  0  0  0  0  0  0
  141.8220   77.3350  220.3030 C   0  0  0  0  0  0  0  0  0  0  0  0
  142.5330   77.5000  218.9480 C   0  0  0  0  0  0  0  0  0  0  0  0
  143.5440   76.3850  219.0900 C   0  0  0  0  0  0  0  0  0  0  0  0
  142.6590   75.2400  219.5130 C   0  0  1  0  0  0  0  0  0  0  0  0
  143.4390   74.1480  220.1460 C   0  0  0  0  0  0  0  0  0  0  0  0
  143.0180   73.0420  220.7850 N   0  0  0  0  0  0  0  0  0  0  0  0
  144.0640   72.3350  221.1860 N   0  0  0  0  0  0  0  0  0  0  0  0
  145.1480   73.0070  220.7920 C   0  0  0  0  0  0  0  0  0  0  0  0
  144.8030   74.1440  220.1400 N   0  0  0  0  0  0  0  0  0  0  0  0
  140.0500   71.1540  223.4350 C   0  0  0  0  0  0  0  0  0  0  0  0
  139.4850   69.8940  223.4260 C   0  0  0  0  0  0  0  0  0  0  0  0
  139.3440   69.1280  224.5690 C   0  0  0  0  0  0  0  0  0  0  0  0
  139.8000   69.6770  225.7640 C   0  0  0  0  0  0  0  0  0  0  0  0
  139.6650   68.9280  226.8980 C   0  0  0  0  0  0  0  0  0  0  0  0
  140.1090   69.4490  228.0900 C   0  0  0  0  0  0  0  0  0  0  0  0
  139.9680   68.6940  229.2070 F   0  0  0  0  0  0  0  0  0  0  0  0
  140.6750   70.7110  228.1020 C   0  0  0  0  0  0  0  0  0  0  0  0
  140.8160   71.4780  226.9580 C   0  0  0  0  0  0  0  0  0  0  0  0
  140.3650   70.9380  225.7650 C   0  0  0  0  0  0  0  0  0  0  0  0
  140.4780   71.6470  224.6140 N   0  0  0  0  0  0  0  0  0  0  0  0
  139.5750   73.7200  223.0920 H   0  0  0  0  0  0  0  0  0  0  0  0
  140.4544   73.5012  220.1598 H   0  0  0  0  0  0  0  0  0  0  0  0
  138.9562   74.3586  220.5680 H   0  0  0  0  0  0  0  0  0  0  0  0
  140.8322   77.8150  220.2994 H   0  0  0  0  0  0  0  0  0  0  0  0
  142.3506   77.7996  221.1484 H   0  0  0  0  0  0  0  0  0  0  0  0
  141.8520   77.3368  218.0997 H   0  0  0  0  0  0  0  0  0  0  0  0
  142.9475   78.4983  218.7438 H   0  0  0  0  0  0  0  0  0  0  0  0
  144.0480   76.1737  218.1353 H   0  0  0  0  0  0  0  0  0  0  0  0
  144.3636   76.6049  219.7900 H   0  0  0  0  0  0  0  0  0  0  0  0
  142.1582   74.7316  218.6759 H   0  0  0  0  0  0  0  0  0  0  0  0
  146.1831   72.6814  220.9724 H   0  0  0  0  0  0  0  0  0  0  0  0
  145.4250   74.8670  219.7190 H   0  0  0  0  0  0  0  0  0  0  0  0
  139.1321   69.4820  222.4691 H   0  0  0  0  0  0  0  0  0  0  0  0
  138.8903   68.1265  224.5350 H   0  0  0  0  0  0  0  0  0  0  0  0
  139.2098   67.9274  226.8582 H   0  0  0  0  0  0  0  0  0  0  0  0
  141.0275   71.1220  229.0595 H   0  0  0  0  0  0  0  0  0  0  0  0
  141.2695   72.4795  226.9952 H   0  0  0  0  0  0  0  0  0  0  0  0
  1  2  2  0
  2  3  1  0
  3  4  1  0
  4  5  1  0
  5  6  2  0
  5  7  1  0
  7  8  1  0
  8  9  1  0
  9 10  1  0
 10 11  1  0
 11 12  1  0
 12 13  2  0
 13 14  1  0
 14 15  2  0
 15 16  1  0
  2 17  1  0
 17 18  2  0
 18 19  1  0
 19 20  2  0
 20 21  1  0
 21 22  2  0
 22 23  1  0
 22 24  1  0
 24 25  2  0
 25 26  1  0
 26 27  2  0
 11  7  1  0
 16 12  1  0
 27 17  1  0
 26 20  1  0
  3 28  1  0
  4 29  1  0
  4 30  1  0
  8 31  1  0
  8 32  1  0
  9 33  1  0
  9 34  1  0
 10 35  1  0
 10 36  1  0
 11 37  1  6
 15 38  1  0
 16 39  1  0
 18 40  1  0
 19 41  1  0
 21 42  1  0
 24 43  1  0
 25 44  1  0
M  END
>  <smiles>  (37) 
O=C(NCC(=O)N1CCC[C@H]1c1nnc[nH]1)c1ccc2cc(F)ccc2n1

>  <score_type>  (37) 
oracle

>  <origin>  (37) 
autodockgpu

>  <m_score__min__energy>  (37) 
-7.8399999999999999

>  <m_primary>  (37) 
energy

>  <rmsd>  (37) 
3.0169423312929906

>  <m_score__min__rmsd>  (37) 
3.0169423312929906

>  <meeko>  (37) 
{"free_energy": -7.84, "intermolecular_energy": -9.33, "internal_energy": -1.81, "cluster_size": 23, "cluster_id": 1, "rank_in_cluster": 1}

>  <energy>  (37) 
-6.91

>  <cluster_rmsd>  (37) 
1.18

>  <cluster>  (37) 
2

$$$$

     RDKit          3D

 44 47  0  0  0  0  0  0  0  0999 V2000
  140.3200   71.7050  221.0390 O   0  0  0  0  0  0  0  0  0  0  0  0
  140.0370   72.2790  222.1400 C   0  0  0  0  0  0  0  0  0  0  0  0
  139.7980   73.7000  222.1940 N   0  0  0  0  0  0  0  0  0  0  0  0
  139.8750   74.5190  220.9890 C   0  0  0  0  0  0  0  0  0  0  0  0
  140.2260   75.8750  221.4320 C   0  0  0  0  0  0  0  0  0  0  0  0
  140.0590   76.2430  222.6440 O   0  0  0  0  0  0  0  0  0  0  0  0
  140.7710   76.8840  220.5720 N   0  0  0  0  0  0  0  0  0  0  0  0
  140.2910   77.0030  219.1840 C   0  0  0  0  0  0  0  0  0  0  0  0
  141.4480   77.7790  218.5310 C   0  0  0  0  0  0  0  0  0  0  0  0
  141.6970   78.7810  219.6360 C   0  0  0  0  0  0  0  0  0  0  0  0
  141.7810   77.8740  220.8380 C   0  0  1  0  0  0  0  0  0  0  0  0
  141.5780   78.6200  222.1040 C   0  0  0  0  0  0  0  0  0  0  0  0
  141.2780   79.9160  222.3060 N   0  0  0  0  0  0  0  0  0  0  0  0
  141.1810   80.1510  223.6060 N   0  0  0  0  0  0  0  0  0  0  0  0
  141.4220   78.9910  224.2200 C   0  0  0  0  0  0  0  0  0  0  0  0
  141.6740   78.0100  223.3200 N   0  0  0  0  0  0  0  0  0  0  0  0
  139.9480   71.5010  223.3740 C   0  0  0  0  0  0  0  0  0  0  0  0
  139.2960   70.2840  223.3560 C   0  0  0  0  0  0  0  0  0  0  0  0
  139.1680   69.4860  224.4780 C   0  0  0  0  0  0  0  0  0  0  0  0
  139.7300   69.9570  225.6620 C   0  0  0  0  0  0  0  0  0  0  0  0
  139.6080   69.1750  226.7760 C   0  0  0  0  0  0  0  0  0  0  0  0
  140.1550   69.6190  227.9560 C   0  0  0  0  0  0  0  0  0  0  0  0
  140.0260   68.8330  229.0530 F   0  0  0  0  0  0  0  0  0  0  0  0
  140.8090   70.8380  227.9770 C   0  0  0  0  0  0  0  0  0  0  0  0
  140.9380   71.6370  226.8530 C   0  0  0  0  0  0  0  0  0  0  0  0
  140.3810   71.1740  225.6720 C   0  0  0  0  0  0  0  0  0  0  0  0
  140.4780   71.9170  224.5410 N   0  0  0  0  0  0  0  0  0  0  0  0
  139.5720   74.0950  223.1370 H   0  0  0  0  0  0  0  0  0  0  0  0
  140.6484   74.1277  220.3117 H   0  0  0  0  0  0  0  0  0  0  0  0
  138.9216   74.5126  220.4404 H   0  0  0  0  0  0  0  0  0  0  0  0
  140.1551   76.0155  218.7188 H   0  0  0  0  0  0  0  0  0  0  0  0
  139.3098   77.4905  219.0867 H   0  0  0  0  0  0  0  0  0  0  0  0
  142.3238   77.1396  218.3461 H   0  0  0  0  0  0  0  0  0  0  0  0
  141.2380   78.2044  217.5386 H   0  0  0  0  0  0  0  0  0  0  0  0
  142.6371   79.3300  219.4784 H   0  0  0  0  0  0  0  0  0  0  0  0
  140.9311   79.5666  219.7150 H   0  0  0  0  0  0  0  0  0  0  0  0
  142.7699   77.4136  220.9800 H   0  0  0  0  0  0  0  0  0  0  0  0
  141.4168   78.8500  225.3109 H   0  0  0  0  0  0  0  0  0  0  0  0
  141.8940   77.0060  223.4960 H   0  0  0  0  0  0  0  0  0  0  0  0
  138.8598   69.9343  222.4087 H   0  0  0  0  0  0  0  0  0  0  0  0
  138.6442   68.5196  224.4371 H   0  0  0  0  0  0  0  0  0  0  0  0
  139.0826   68.2097  226.7292 H   0  0  0  0  0  0  0  0  0  0  0  0
  141.2443   71.1869  228.9251 H   0  0  0  0  0  0  0  0  0  0  0  0
  141.4629   72.6027  226.8964 H   0  0  0  0  0  0  0  0  0  0  0  0
  1  2  2  0
  2  3  1  0
  3  4  1  0
  4  5  1  0
  5  6  2  0
  5  7  1  0
  7  8  1  0
  8  9  1  0
  9 10  1  0
 10 11  1  0
 11 12  1  0
 12 13  2  0
 13 14  1  0
 14 15  2  0
 15 16  1  0
  2 17  1  0
 17 18  2  0
 18 19  1  0
 19 20  2  0
 20 21  1  0
 21 22  2  0
 22 23  1  0
 22 24  1  0
 24 25  2  0
 25 26  1  0
 26 27  2  0
 11  7  1  0
 16 12  1  0
 27 17  1  0
 26 20  1  0
  3 28  1  0
  4 29  1  0
  4 30  1  0
  8 31  1  0
  8 32  1  0
  9 33  1  0
  9 34  1  0
 10 35  1  0
 10 36  1  0
 11 37  1  1
 15 38  1  0
 16 39  1  0
 18 40  1  0
 19 41  1  0
 21 42  1  0
 24 43  1  0
 25 44  1  0
M  END
>  <smiles>  (38) 
O=C(NCC(=O)N1CCC[C@H]1c1nnc[nH]1)c1ccc2cc(F)ccc2n1

>  <score_type>  (38) 
oracle

>  <origin>  (38) 
autodockgpu

>  <m_score__min__energy>  (38) 
-7.8399999999999999

>  <m_primary>  (38) 
energy

>  <rmsd>  (38) 
1.7732612561640615

>  <m_score__min__rmsd>  (38) 
1.7732612561640615

>  <meeko>  (38) 
{"free_energy": -7.67, "intermolecular_energy": -9.16, "internal_energy": -2.19, "cluster_size": 14, "cluster_id": 2, "rank_in_cluster": 2}

>  <energy>  (38) 
-7.62

>  <cluster_rmsd>  (38) 
0.0

>  <cluster>  (38) 
3

$$$$

     RDKit          3D

 44 47  0  0  0  0  0  0  0  0999 V2000
  141.1350   77.1740  217.6410 O   0  0  0  0  0  0  0  0  0  0  0  0
  142.1150   77.1320  218.4520 C   0  0  0  0  0  0  0  0  0  0  0  0
  142.4470   78.2720  219.2720 N   0  0  0  0  0  0  0  0  0  0  0  0
  141.6670   79.5020  219.1940 C   0  0  0  0  0  0  0  0  0  0  0  0
  140.6850   79.4390  220.2860 C   0  0  0  0  0  0  0  0  0  0  0  0
  139.4290   79.4100  220.0500 O   0  0  0  0  0  0  0  0  0  0  0  0
  141.0310   79.4080  221.6750 N   0  0  0  0  0  0  0  0  0  0  0  0
  140.8370   80.6080  222.5080 C   0  0  0  0  0  0  0  0  0  0  0  0
  141.7820   80.3140  223.6870 C   0  0  0  0  0  0  0  0  0  0  0  0
  141.4520   78.8510  223.8770 C   0  0  0  0  0  0  0  0  0  0  0  0
  141.5810   78.3360  222.4650 C   0  0  1  0  0  0  0  0  0  0  0  0
  140.8860   77.0380  222.2880 C   0  0  0  0  0  0  0  0  0  0  0  0
  139.6710   76.6420  222.7100 N   0  0  0  0  0  0  0  0  0  0  0  0
  139.4500   75.3960  222.3180 N   0  0  0  0  0  0  0  0  0  0  0  0
  140.5360   75.0120  221.6440 C   0  0  0  0  0  0  0  0  0  0  0  0
  141.4570   76.0060  221.6020 N   0  0  0  0  0  0  0  0  0  0  0  0
  142.9260   75.9210  218.5660 C   0  0  0  0  0  0  0  0  0  0  0  0
  142.9120   75.0040  217.5340 C   0  0  0  0  0  0  0  0  0  0  0  0
  143.6500   73.8350  217.5620 C   0  0  0  0  0  0  0  0  0  0  0  0
  144.4290   73.5990  218.6920 C   0  0  0  0  0  0  0  0  0  0  0  0
  145.1600   72.4460  218.7280 C   0  0  0  0  0  0  0  0  0  0  0  0
  145.9370   72.1930  219.8330 C   0  0  0  0  0  0  0  0  0  0  0  0
  146.6570   71.0440  219.8550 F   0  0  0  0  0  0  0  0  0  0  0  0
  145.9530   73.1100  220.8680 C   0  0  0  0  0  0  0  0  0  0  0  0
  145.2140   74.2810  220.8400 C   0  0  0  0  0  0  0  0  0  0  0  0
  144.4370   74.5220  219.7190 C   0  0  0  0  0  0  0  0  0  0  0  0
  143.6950   75.6540  219.6400 N   0  0  0  0  0  0  0  0  0  0  0  0
  143.2680   78.1580  219.9120 H   0  0  0  0  0  0  0  0  0  0  0  0
  142.3218   80.3767  219.3209 H   0  0  0  0  0  0  0  0  0  0  0  0
  141.1717   79.5995  218.2167 H   0  0  0  0  0  0  0  0  0  0  0  0
  141.1337   81.5219  221.9726 H   0  0  0  0  0  0  0  0  0  0  0  0
  139.7924   80.7875  222.8024 H   0  0  0  0  0  0  0  0  0  0  0  0
  142.8379   80.4698  223.4210 H   0  0  0  0  0  0  0  0  0  0  0  0
  141.6536   80.9524  224.5736 H   0  0  0  0  0  0  0  0  0  0  0  0
  142.1687   78.3604  224.5521 H   0  0  0  0  0  0  0  0  0  0  0  0
  140.4703   78.6656  224.3373 H   0  0  0  0  0  0  0  0  0  0  0  0
  142.6146   78.1039  222.1686 H   0  0  0  0  0  0  0  0  0  0  0  0
  140.6664   74.0213  221.1840 H   0  0  0  0  0  0  0  0  0  0  0  0
  142.3960   76.0050  221.1510 H   0  0  0  0  0  0  0  0  0  0  0  0
  142.2876   75.2121  216.6526 H   0  0  0  0  0  0  0  0  0  0  0  0
  143.6229   73.1207  216.7259 H   0  0  0  0  0  0  0  0  0  0  0  0
  145.1276   71.7344  217.8898 H   0  0  0  0  0  0  0  0  0  0  0  0
  146.5778   72.9010  221.7489 H   0  0  0  0  0  0  0  0  0  0  0  0
  145.2431   74.9936  221.6774 H   0  0  0  0  0  0  0  0  0  0  0  0
  1  2  2  0
  2  3  1  0
  3  4  1  0
  4  5  1  0
  5  6  2  0
  5  7  1  0
  7  8  1  0
  8  9  1  0
  9 10  1  0
 10 11  1  0
 11 12  1  0
 12 13  2  0
 13 14  1  0
 14 15  2  0
 15 16  1  0
  2 17  1  0
 17 18  2  0
 18 19  1  0
 19 20  2  0
 20 21  1  0
 21 22  2  0
 22 23  1  0
 22 24  1  0
 24 25  2  0
 25 26  1  0
 26 27  2  0
 11  7  1  0
 16 12  1  0
 27 17  1  0
 26 20  1  0
  3 28  1  0
  4 29  1  0
  4 30  1  0
  8 31  1  0
  8 32  1  0
  9 33  1  0
  9 34  1  0
 10 35  1  0
 10 36  1  0
 11 37  1  6
 15 38  1  0
 16 39  1  0
 18 40  1  0
 19 41  1  0
 21 42  1  0
 24 43  1  0
 25 44  1  0
M  END
>  <smiles>  (39) 
O=C(NCC(=O)N1CCC[C@H]1c1nnc[nH]1)c1ccc2cc(F)ccc2n1

>  <score_type>  (39) 
oracle

>  <origin>  (39) 
autodockgpu

>  <m_score__min__energy>  (39) 
-7.8399999999999999

>  <m_primary>  (39) 
energy

>  <rmsd>  (39) 
7.567976922593488

>  <m_score__min__rmsd>  (39) 
7.567976922593488

>  <meeko>  (39) 
{"free_energy": -6.61, "intermolecular_energy": -8.1, "internal_energy": -2.74, "cluster_size": 3, "cluster_id": 5, "rank_in_cluster": 2}

>  <energy>  (39) 
-7.61

>  <cluster_rmsd>  (39) 
0.07

>  <cluster>  (39) 
3

$$$$

     RDKit          3D

 44 47  0  0  0  0  0  0  0  0999 V2000
  140.0460   71.6790  221.0550 O   0  0  0  0  0  0  0  0  0  0  0  0
  139.8850   72.2440  222.1840 C   0  0  0  0  0  0  0  0  0  0  0  0
  139.6860   73.6700  222.2770 N   0  0  0  0  0  0  0  0  0  0  0  0
  139.6630   74.5020  221.0790 C   0  0  0  0  0  0  0  0  0  0  0  0
  140.3300   75.7620  221.4370 C   0  0  0  0  0  0  0  0  0  0  0  0
  140.4530   76.1260  222.6560 O   0  0  0  0  0  0  0  0  0  0  0  0
  140.8860   76.6750  220.4830 N   0  0  0  0  0  0  0  0  0  0  0  0
  140.4850   76.5920  219.0670 C   0  0  0  0  0  0  0  0  0  0  0  0
  141.6490   77.3280  218.3810 C   0  0  0  0  0  0  0  0  0  0  0  0
  141.7940   78.4740  219.3560 C   0  0  0  0  0  0  0  0  0  0  0  0
  141.8410   77.7360  220.6700 C   0  0  1  0  0  0  0  0  0  0  0  0
  141.5350   78.6290  221.8140 C   0  0  0  0  0  0  0  0  0  0  0  0
  141.0450   79.8820  221.8270 N   0  0  0  0  0  0  0  0  0  0  0  0
  140.9210   80.2970  223.0780 N   0  0  0  0  0  0  0  0  0  0  0  0
  141.3370   79.2930  223.8540 C   0  0  0  0  0  0  0  0  0  0  0  0
  141.7290   78.2330  223.1050 N   0  0  0  0  0  0  0  0  0  0  0  0
  139.9010   71.4530  223.4130 C   0  0  0  0  0  0  0  0  0  0  0  0
  139.3700   70.1780  223.3970 C   0  0  0  0  0  0  0  0  0  0  0  0
  139.3450   69.3640  224.5150 C   0  0  0  0  0  0  0  0  0  0  0  0
  139.8850   69.8790  225.6910 C   0  0  0  0  0  0  0  0  0  0  0  0
  139.8640   69.0810  226.7990 C   0  0  0  0  0  0  0  0  0  0  0  0
  140.3910   69.5680  227.9720 C   0  0  0  0  0  0  0  0  0  0  0  0
  140.3640   68.7650  229.0640 F   0  0  0  0  0  0  0  0  0  0  0  0
  140.9230   70.8450  227.9900 C   0  0  0  0  0  0  0  0  0  0  0  0
  140.9480   71.6610  226.8710 C   0  0  0  0  0  0  0  0  0  0  0  0
  140.4130   71.1540  225.6980 C   0  0  0  0  0  0  0  0  0  0  0  0
  140.4120   71.9110  224.5720 N   0  0  0  0  0  0  0  0  0  0  0  0
  139.5630   74.0580  223.2420 H   0  0  0  0  0  0  0  0  0  0  0  0
  140.2032   74.0048  220.2599 H   0  0  0  0  0  0  0  0  0  0  0  0
  138.6330   74.6791  220.7357 H   0  0  0  0  0  0  0  0  0  0  0  0
  140.4138   75.5476  218.7291 H   0  0  0  0  0  0  0  0  0  0  0  0
  139.4938   77.0185  218.8535 H   0  0  0  0  0  0  0  0  0  0  0  0
  142.5575   76.7099  218.3296 H   0  0  0  0  0  0  0  0  0  0  0  0
  141.4828   77.6116  217.3313 H   0  0  0  0  0  0  0  0  0  0  0  0
  142.7203   79.0399  219.1781 H   0  0  0  0  0  0  0  0  0  0  0  0
  140.9952   79.2273  219.2895 H   0  0  0  0  0  0  0  0  0  0  0  0
  142.8368   77.3440  220.9243 H   0  0  0  0  0  0  0  0  0  0  0  0
  141.3587   79.3221  224.9534 H   0  0  0  0  0  0  0  0  0  0  0  0
  142.0980   77.3120  223.4240 H   0  0  0  0  0  0  0  0  0  0  0  0
  138.9495   69.7940  222.4559 H   0  0  0  0  0  0  0  0  0  0  0  0
  138.9163   68.3517  224.4769 H   0  0  0  0  0  0  0  0  0  0  0  0
  139.4343   68.0694  226.7541 H   0  0  0  0  0  0  0  0  0  0  0  0
  141.3434   71.2280  228.9316 H   0  0  0  0  0  0  0  0  0  0  0  0
  141.3764   72.6733  226.9122 H   0  0  0  0  0  0  0  0  0  0  0  0
  1  2  2  0
  2  3  1  0
  3  4  1  0
  4  5  1  0
  5  6  2  0
  5  7  1  0
  7  8  1  0
  8  9  1  0
  9 10  1  0
 10 11  1  0
 11 12  1  0
 12 13  2  0
 13 14  1  0
 14 15  2  0
 15 16  1  0
  2 17  1  0
 17 18  2  0
 18 19  1  0
 19 20  2  0
 20 21  1  0
 21 22  2  0
 22 23  1  0
 22 24  1  0
 24 25  2  0
 25 26  1  0
 26 27  2  0
 11  7  1  0
 16 12  1  0
 27 17  1  0
 26 20  1  0
  3 28  1  0
  4 29  1  0
  4 30  1  0
  8 31  1  0
  8 32  1  0
  9 33  1  0
  9 34  1  0
 10 35  1  0
 10 36  1  0
 11 37  1  1
 15 38  1  0
 16 39  1  0
 18 40  1  0
 19 41  1  0
 21 42  1  0
 24 43  1  0
 25 44  1  0
M  END
>  <smiles>  (40) 
O=C(NCC(=O)N1CCC[C@H]1c1nnc[nH]1)c1ccc2cc(F)ccc2n1

>  <score_type>  (40) 
oracle

>  <origin>  (40) 
autodockgpu

>  <m_score__min__energy>  (40) 
-7.8399999999999999

>  <m_primary>  (40) 
energy

>  <rmsd>  (40) 
1.5930241428909626

>  <m_score__min__rmsd>  (40) 
1.5930241428909626

>  <meeko>  (40) 
{"free_energy": -7.58, "intermolecular_energy": -9.07, "internal_energy": -2.17, "cluster_size": 14, "cluster_id": 2, "rank_in_cluster": 6}

>  <energy>  (40) 
-7.6

>  <cluster_rmsd>  (40) 
0.03

>  <cluster>  (40) 
3

$$$$

     RDKit          3D

 44 47  0  0  0  0  0  0  0  0999 V2000
  138.2100   71.1050  221.4430 O   0  0  0  0  0  0  0  0  0  0  0  0
  138.8150   71.6740  222.4070 C   0  0  0  0  0  0  0  0  0  0  0  0
  139.1440   73.0770  222.3500 N   0  0  0  0  0  0  0  0  0  0  0  0
  138.7910   73.8820  221.1850 C   0  0  0  0  0  0  0  0  0  0  0  0
  139.5930   75.1110  221.2730 C   0  0  0  0  0  0  0  0  0  0  0  0
  140.4790   75.2620  222.1810 O   0  0  0  0  0  0  0  0  0  0  0  0
  139.4590   76.2220  220.3780 N   0  0  0  0  0  0  0  0  0  0  0  0
  138.3730   76.2360  219.3820 C   0  0  0  0  0  0  0  0  0  0  0  0
  138.9100   77.2590  218.3660 C   0  0  0  0  0  0  0  0  0  0  0  0
  139.4410   78.2850  219.3410 C   0  0  0  0  0  0  0  0  0  0  0  0
  140.2570   77.4150  220.2650 C   0  0  1  0  0  0  0  0  0  0  0  0
  140.5240   78.0880  221.5590 C   0  0  0  0  0  0  0  0  0  0  0  0
  139.9690   79.1910  222.0920 N   0  0  0  0  0  0  0  0  0  0  0  0
  140.5070   79.4300  223.2790 N   0  0  0  0  0  0  0  0  0  0  0  0
  141.4060   78.4670  223.4880 C   0  0  0  0  0  0  0  0  0  0  0  0
  141.4500   77.6080  222.4390 N   0  0  0  0  0  0  0  0  0  0  0  0
  139.1880   70.9100  223.5960 C   0  0  0  0  0  0  0  0  0  0  0  0
  138.9190   69.5560  223.6360 C   0  0  0  0  0  0  0  0  0  0  0  0
  139.2400   68.7610  224.7210 C   0  0  0  0  0  0  0  0  0  0  0  0
  139.8580   69.3800  225.8040 C   0  0  0  0  0  0  0  0  0  0  0  0
  140.1770   68.6020  226.8810 C   0  0  0  0  0  0  0  0  0  0  0  0
  140.7890   69.1920  227.9620 C   0  0  0  0  0  0  0  0  0  0  0  0
  141.1000   68.4070  229.0230 F   0  0  0  0  0  0  0  0  0  0  0  0
  141.0580   70.5480  227.9250 C   0  0  0  0  0  0  0  0  0  0  0  0
  140.7370   71.3440  226.8380 C   0  0  0  0  0  0  0  0  0  0  0  0
  140.1230   70.7340  225.7560 C   0  0  0  0  0  0  0  0  0  0  0  0
  139.7870   71.4680  224.6660 N   0  0  0  0  0  0  0  0  0  0  0  0
  139.6420   73.4700  223.1830 H   0  0  0  0  0  0  0  0  0  0  0  0
  139.0294   73.3373  220.2595 H   0  0  0  0  0  0  0  0  0  0  0  0
  137.7146   74.1080  221.1670 H   0  0  0  0  0  0  0  0  0  0  0  0
  138.2351   75.2462  218.9225 H   0  0  0  0  0  0  0  0  0  0  0  0
  137.3852   76.4874  219.7956 H   0  0  0  0  0  0  0  0  0  0  0  0
  139.7054   76.8372  217.7340 H   0  0  0  0  0  0  0  0  0  0  0  0
  138.1807   77.6307  217.6312 H   0  0  0  0  0  0  0  0  0  0  0  0
  140.0671   79.0352  218.8358 H   0  0  0  0  0  0  0  0  0  0  0  0
  138.6614   78.8740  219.8463 H   0  0  0  0  0  0  0  0  0  0  0  0
  141.2672   77.1922  219.8910 H   0  0  0  0  0  0  0  0  0  0  0  0
  142.0287   78.3809  224.3907 H   0  0  0  0  0  0  0  0  0  0  0  0
  142.0470   76.7640  222.3140 H   0  0  0  0  0  0  0  0  0  0  0  0
  138.4288   69.0904  222.7683 H   0  0  0  0  0  0  0  0  0  0  0  0
  139.0163   67.6840  224.7280 H   0  0  0  0  0  0  0  0  0  0  0  0
  139.9490   67.5259  226.8833 H   0  0  0  0  0  0  0  0  0  0  0  0
  141.5466   71.0131  228.7939 H   0  0  0  0  0  0  0  0  0  0  0  0
  140.9613   72.4209  226.8338 H   0  0  0  0  0  0  0  0  0  0  0  0
  1  2  2  0
  2  3  1  0
  3  4  1  0
  4  5  1  0
  5  6  2  0
  5  7  1  0
  7  8  1  0
  8  9  1  0
  9 10  1  0
 10 11  1  0
 11 12  1  0
 12 13  2  0
 13 14  1  0
 14 15  2  0
 15 16  1  0
  2 17  1  0
 17 18  2  0
 18 19  1  0
 19 20  2  0
 20 21  1  0
 21 22  2  0
 22 23  1  0
 22 24  1  0
 24 25  2  0
 25 26  1  0
 26 27  2  0
 11  7  1  0
 16 12  1  0
 27 17  1  0
 26 20  1  0
  3 28  1  0
  4 29  1  0
  4 30  1  0
  8 31  1  0
  8 32  1  0
  9 33  1  0
  9 34  1  0
 10 35  1  0
 10 36  1  0
 11 37  1  6
 15 38  1  0
 16 39  1  0
 18 40  1  0
 19 41  1  0
 21 42  1  0
 24 43  1  0
 25 44  1  0
M  END
>  <smiles>  (41) 
O=C(NCC(=O)N1CCC[C@H]1c1nnc[nH]1)c1ccc2cc(F)ccc2n1

>  <score_type>  (41) 
oracle

>  <origin>  (41) 
autodockgpu

>  <m_score__min__energy>  (41) 
-7.8399999999999999

>  <m_primary>  (41) 
energy

>  <rmsd>  (41) 
1.2246900936376117

>  <m_score__min__rmsd>  (41) 
1.2246900936376117

>  <meeko>  (41) 
{"free_energy": -6.91, "intermolecular_energy": -8.4, "internal_energy": -2.46, "cluster_size": 14, "cluster_id": 2, "rank_in_cluster": 14}

>  <energy>  (41) 
-7.59

>  <cluster_rmsd>  (41) 
0.22

>  <cluster>  (41) 
3

$$$$

     RDKit          3D

 44 47  0  0  0  0  0  0  0  0999 V2000
  140.7710   71.7070  221.1470 O   0  0  0  0  0  0  0  0  0  0  0  0
  140.3140   72.2650  222.1950 C   0  0  0  0  0  0  0  0  0  0  0  0
  139.9500   73.6600  222.1920 N   0  0  0  0  0  0  0  0  0  0  0  0
  140.0960   74.4700  220.9870 C   0  0  0  0  0  0  0  0  0  0  0  0
  140.4520   75.8230  221.4370 C   0  0  0  0  0  0  0  0  0  0  0  0
  140.3900   76.1500  222.6710 O   0  0  0  0  0  0  0  0  0  0  0  0
  140.8870   76.8710  220.5630 N   0  0  0  0  0  0  0  0  0  0  0  0
  140.3050   76.9910  219.2150 C   0  0  0  0  0  0  0  0  0  0  0  0
  141.3750   77.8330  218.4980 C   0  0  0  0  0  0  0  0  0  0  0  0
  141.6560   78.8250  219.6030 C   0  0  0  0  0  0  0  0  0  0  0  0
  141.8670   77.9030  220.7780 C   0  0  1  0  0  0  0  0  0  0  0  0
  141.7200   78.6160  222.0700 C   0  0  0  0  0  0  0  0  0  0  0  0
  142.6210   79.3260  222.7740 N   0  0  0  0  0  0  0  0  0  0  0  0
  142.0520   79.7980  223.8730 N   0  0  0  0  0  0  0  0  0  0  0  0
  140.7850   79.3790  223.8550 C   0  0  0  0  0  0  0  0  0  0  0  0
  140.5360   78.6380  222.7470 N   0  0  0  0  0  0  0  0  0  0  0  0
  140.1500   71.4950  223.4270 C   0  0  0  0  0  0  0  0  0  0  0  0
  139.4130   70.3280  223.3960 C   0  0  0  0  0  0  0  0  0  0  0  0
  139.2100   69.5410  224.5160 C   0  0  0  0  0  0  0  0  0  0  0  0
  139.7840   69.9710  225.7090 C   0  0  0  0  0  0  0  0  0  0  0  0
  139.5870   69.2010  226.8200 C   0  0  0  0  0  0  0  0  0  0  0  0
  140.1450   69.6050  228.0090 C   0  0  0  0  0  0  0  0  0  0  0  0
  139.9420   68.8300  229.1030 F   0  0  0  0  0  0  0  0  0  0  0  0
  140.8830   70.7740  228.0430 C   0  0  0  0  0  0  0  0  0  0  0  0
  141.0870   71.5620  226.9220 C   0  0  0  0  0  0  0  0  0  0  0  0
  140.5190   71.1400  225.7310 C   0  0  0  0  0  0  0  0  0  0  0  0
  140.6880   71.8730  224.6030 N   0  0  0  0  0  0  0  0  0  0  0  0
  139.5830   74.0440  223.0950 H   0  0  0  0  0  0  0  0  0  0  0  0
  140.8915   74.0602  220.3473 H   0  0  0  0  0  0  0  0  0  0  0  0
  139.1678   74.4775  220.3967 H   0  0  0  0  0  0  0  0  0  0  0  0
  140.1827   76.0063  218.7402 H   0  0  0  0  0  0  0  0  0  0  0  0
  139.2977   77.4327  219.1971 H   0  0  0  0  0  0  0  0  0  0  0  0
  142.2638   77.2395  218.2378 H   0  0  0  0  0  0  0  0  0  0  0  0
  141.0747   78.2657  217.5323 H   0  0  0  0  0  0  0  0  0  0  0  0
  142.5564   79.4202  219.3909 H   0  0  0  0  0  0  0  0  0  0  0  0
  140.8621   79.5717  219.7520 H   0  0  0  0  0  0  0  0  0  0  0  0
  142.8839   77.4884  220.8412 H   0  0  0  0  0  0  0  0  0  0  0  0
  140.0423   79.6045  224.6345 H   0  0  0  0  0  0  0  0  0  0  0  0
  139.6460   78.1800  222.4570 H   0  0  0  0  0  0  0  0  0  0  0  0
  138.9686   70.0105  222.4412 H   0  0  0  0  0  0  0  0  0  0  0  0
  138.6196   68.6142  224.4656 H   0  0  0  0  0  0  0  0  0  0  0  0
  138.9938   68.2764  226.7640 H   0  0  0  0  0  0  0  0  0  0  0  0
  141.3259   71.0910  228.9987 H   0  0  0  0  0  0  0  0  0  0  0  0
  141.6780   72.4882  226.9756 H   0  0  0  0  0  0  0  0  0  0  0  0
  1  2  2  0
  2  3  1  0
  3  4  1  0
  4  5  1  0
  5  6  2  0
  5  7  1  0
  7  8  1  0
  8  9  1  0
  9 10  1  0
 10 11  1  0
 11 12  1  0
 12 13  2  0
 13 14  1  0
 14 15  2  0
 15 16  1  0
  2 17  1  0
 17 18  2  0
 18 19  1  0
 19 20  2  0
 20 21  1  0
 21 22  2  0
 22 23  1  0
 22 24  1  0
 24 25  2  0
 25 26  1  0
 26 27  2  0
 11  7  1  0
 16 12  1  0
 27 17  1  0
 26 20  1  0
  3 28  1  0
  4 29  1  0
  4 30  1  0
  8 31  1  0
  8 32  1  0
  9 33  1  0
  9 34  1  0
 10 35  1  0
 10 36  1  0
 11 37  1  6
 15 38  1  0
 16 39  1  0
 18 40  1  0
 19 41  1  0
 21 42  1  0
 24 43  1  0
 25 44  1  0
M  END
>  <smiles>  (42) 
O=C(NCC(=O)N1CCC[C@H]1c1nnc[nH]1)c1ccc2cc(F)ccc2n1

>  <score_type>  (42) 
oracle

>  <origin>  (42) 
autodockgpu

>  <m_score__min__energy>  (42) 
-7.8399999999999999

>  <m_primary>  (42) 
energy

>  <rmsd>  (42) 
1.800339919813428

>  <m_score__min__rmsd>  (42) 
1.800339919813428

>  <meeko>  (42) 
{"free_energy": -7.55, "intermolecular_energy": -9.05, "internal_energy": -2.12, "cluster_size": 14, "cluster_id": 2, "rank_in_cluster": 9}

>  <energy>  (42) 
-7.57

>  <cluster_rmsd>  (42) 
0.29

>  <cluster>  (42) 
3

$$$$

     RDKit          3D

 44 47  0  0  0  0  0  0  0  0999 V2000
  140.1700   71.6320  221.0410 O   0  0  0  0  0  0  0  0  0  0  0  0
  139.9620   72.2070  222.1570 C   0  0  0  0  0  0  0  0  0  0  0  0
  139.7490   73.6320  222.2280 N   0  0  0  0  0  0  0  0  0  0  0  0
  139.7650   74.4520  221.0210 C   0  0  0  0  0  0  0  0  0  0  0  0
  140.1680   75.8010  221.4430 C   0  0  0  0  0  0  0  0  0  0  0  0
  140.0320   76.1870  222.6540 O   0  0  0  0  0  0  0  0  0  0  0  0
  140.7320   76.7820  220.5640 N   0  0  0  0  0  0  0  0  0  0  0  0
  140.2530   76.8850  219.1750 C   0  0  0  0  0  0  0  0  0  0  0  0
  141.4250   77.6240  218.5050 C   0  0  0  0  0  0  0  0  0  0  0  0
  141.6970   78.6410  219.5910 C   0  0  0  0  0  0  0  0  0  0  0  0
  141.7640   77.7560  220.8100 C   0  0  1  0  0  0  0  0  0  0  0  0
  141.5790   78.5290  222.0620 C   0  0  0  0  0  0  0  0  0  0  0  0
  141.2980   79.8330  222.2400 N   0  0  0  0  0  0  0  0  0  0  0  0
  141.2120   80.0950  223.5350 N   0  0  0  0  0  0  0  0  0  0  0  0
  141.4400   78.9440  224.1710 C   0  0  0  0  0  0  0  0  0  0  0  0
  141.6740   77.9410  223.2890 N   0  0  0  0  0  0  0  0  0  0  0  0
  139.9360   71.4280  223.3930 C   0  0  0  0  0  0  0  0  0  0  0  0
  139.3850   70.1620  223.3780 C   0  0  0  0  0  0  0  0  0  0  0  0
  139.3220   69.3590  224.5020 C   0  0  0  0  0  0  0  0  0  0  0  0
  139.8430   69.8770  225.6850 C   0  0  0  0  0  0  0  0  0  0  0  0
  139.7830   69.0910  226.8010 C   0  0  0  0  0  0  0  0  0  0  0  0
  140.2920   69.5810  227.9800 C   0  0  0  0  0  0  0  0  0  0  0  0
  140.2270   68.7900  229.0790 F   0  0  0  0  0  0  0  0  0  0  0  0
  140.8440   70.8490  227.9990 C   0  0  0  0  0  0  0  0  0  0  0  0
  140.9080   71.6530  226.8720 C   0  0  0  0  0  0  0  0  0  0  0  0
  140.3920   71.1440  225.6920 C   0  0  0  0  0  0  0  0  0  0  0  0
  140.4290   71.8890  224.5600 N   0  0  0  0  0  0  0  0  0  0  0  0
  139.5860   74.0280  223.1830 H   0  0  0  0  0  0  0  0  0  0  0  0
  140.4871   74.0483  220.2960 H   0  0  0  0  0  0  0  0  0  0  0  0
  138.7792   74.4639  220.5331 H   0  0  0  0  0  0  0  0  0  0  0  0
  140.0955   75.8920  218.7288 H   0  0  0  0  0  0  0  0  0  0  0  0
  139.2823   77.3917  219.0700 H   0  0  0  0  0  0  0  0  0  0  0  0
  142.2867   76.9629  218.3307 H   0  0  0  0  0  0  0  0  0  0  0  0
  141.2222   78.0349  217.5050 H   0  0  0  0  0  0  0  0  0  0  0  0
  142.6482   79.1670  219.4218 H   0  0  0  0  0  0  0  0  0  0  0  0
  140.9477   79.4436  219.6562 H   0  0  0  0  0  0  0  0  0  0  0  0
  142.7436   77.2784  220.9593 H   0  0  0  0  0  0  0  0  0  0  0  0
  141.4383   78.8249  225.2645 H   0  0  0  0  0  0  0  0  0  0  0  0
  141.8800   76.9390  223.4840 H   0  0  0  0  0  0  0  0  0  0  0  0
  138.9788   69.7757  222.4315 H   0  0  0  0  0  0  0  0  0  0  0  0
  138.8788   68.3530  224.4633 H   0  0  0  0  0  0  0  0  0  0  0  0
  139.3365   68.0867  226.7568 H   0  0  0  0  0  0  0  0  0  0  0  0
  141.2484   71.2347  228.9465 H   0  0  0  0  0  0  0  0  0  0  0  0
  141.3523   72.6584  226.9132 H   0  0  0  0  0  0  0  0  0  0  0  0
  1  2  2  0
  2  3  1  0
  3  4  1  0
  4  5  1  0
  5  6  2  0
  5  7  1  0
  7  8  1  0
  8  9  1  0
  9 10  1  0
 10 11  1  0
 11 12  1  0
 12 13  2  0
 13 14  1  0
 14 15  2  0
 15 16  1  0
  2 17  1  0
 17 18  2  0
 18 19  1  0
 19 20  2  0
 20 21  1  0
 21 22  2  0
 22 23  1  0
 22 24  1  0
 24 25  2  0
 25 26  1  0
 26 27  2  0
 11  7  1  0
 16 12  1  0
 27 17  1  0
 26 20  1  0
  3 28  1  0
  4 29  1  0
  4 30  1  0
  8 31  1  0
  8 32  1  0
  9 33  1  0
  9 34  1  0
 10 35  1  0
 10 36  1  0
 11 37  1  1
 15 38  1  0
 16 39  1  0
 18 40  1  0
 19 41  1  0
 21 42  1  0
 24 43  1  0
 25 44  1  0
M  END
>  <smiles>  (43) 
O=C(NCC(=O)N1CCC[C@H]1c1nnc[nH]1)c1ccc2cc(F)ccc2n1

>  <score_type>  (43) 
oracle

>  <origin>  (43) 
autodockgpu

>  <m_score__min__energy>  (43) 
-7.8399999999999999

>  <m_primary>  (43) 
energy

>  <rmsd>  (43) 
1.6886256942518065

>  <m_score__min__rmsd>  (43) 
1.6886256942518065

>  <meeko>  (43) 
{"free_energy": -7.61, "intermolecular_energy": -9.11, "internal_energy": -2.2, "cluster_size": 14, "cluster_id": 2, "rank_in_cluster": 4}

>  <energy>  (43) 
-6.72

>  <cluster_rmsd>  (43) 
0.0

>  <cluster>  (43) 
4

$$$$

     RDKit          3D

 44 47  0  0  0  0  0  0  0  0999 V2000
  139.5990   70.7140  221.4850 O   0  0  0  0  0  0  0  0  0  0  0  0
  139.7370   71.2920  222.6110 C   0  0  0  0  0  0  0  0  0  0  0  0
  139.8290   72.7280  222.6990 N   0  0  0  0  0  0  0  0  0  0  0  0
  139.7640   73.5580  221.5010 C   0  0  0  0  0  0  0  0  0  0  0  0
  141.0200   74.3200  221.4570 C   0  0  0  0  0  0  0  0  0  0  0  0
  141.0970   75.5030  221.9350 O   0  0  0  0  0  0  0  0  0  0  0  0
  142.2390   73.8260  220.8880 N   0  0  0  0  0  0  0  0  0  0  0  0
  142.4090   72.3800  220.6610 C   0  0  0  0  0  0  0  0  0  0  0  0
  143.9420   72.2680  220.5690 C   0  0  0  0  0  0  0  0  0  0  0  0
  144.2040   73.4930  219.7230 C   0  0  0  0  0  0  0  0  0  0  0  0
  143.4170   74.5400  220.4710 C   0  0  1  0  0  0  0  0  0  0  0  0
  143.1380   75.7260  219.6260 C   0  0  0  0  0  0  0  0  0  0  0  0
  143.3190   75.9100  218.3050 N   0  0  0  0  0  0  0  0  0  0  0  0
  142.9220   77.1280  217.9690 N   0  0  0  0  0  0  0  0  0  0  0  0
  142.4900   77.7090  219.0890 C   0  0  0  0  0  0  0  0  0  0  0  0
  142.6070   76.8700  220.1470 N   0  0  0  0  0  0  0  0  0  0  0  0
  139.8070   70.5030  223.8390 C   0  0  0  0  0  0  0  0  0  0  0  0
  139.2540   69.2380  223.8580 C   0  0  0  0  0  0  0  0  0  0  0  0
  139.2770   68.4270  224.9780 C   0  0  0  0  0  0  0  0  0  0  0  0
  139.8900   68.9360  226.1200 C   0  0  0  0  0  0  0  0  0  0  0  0
  139.9160   68.1410  227.2310 C   0  0  0  0  0  0  0  0  0  0  0  0
  140.5170   68.6220  228.3700 C   0  0  0  0  0  0  0  0  0  0  0  0
  140.5360   67.8230  229.4660 F   0  0  0  0  0  0  0  0  0  0  0  0
  141.0710   69.8890  228.3550 C   0  0  0  0  0  0  0  0  0  0  0  0
  141.0490   70.7010  227.2330 C   0  0  0  0  0  0  0  0  0  0  0  0
  140.4410   70.2010  226.0930 C   0  0  0  0  0  0  0  0  0  0  0  0
  140.3900   70.9550  224.9670 N   0  0  0  0  0  0  0  0  0  0  0  0
  139.9430   73.1260  223.6610 H   0  0  0  0  0  0  0  0  0  0  0  0
  139.6702   72.9266  220.6051 H   0  0  0  0  0  0  0  0  0  0  0  0
  138.8915   74.2274  221.5259 H   0  0  0  0  0  0  0  0  0  0  0  0
  142.0118   71.7910  221.5008 H   0  0  0  0  0  0  0  0  0  0  0  0
  141.8753   71.9964  219.7790 H   0  0  0  0  0  0  0  0  0  0  0  0
  144.4227   72.3351  221.5561 H   0  0  0  0  0  0  0  0  0  0  0  0
  144.3292   71.3190  220.1695 H   0  0  0  0  0  0  0  0  0  0  0  0
  145.2755   73.7398  219.6921 H   0  0  0  0  0  0  0  0  0  0  0  0
  143.9172   73.3818  218.6669 H   0  0  0  0  0  0  0  0  0  0  0  0
  143.9532   74.9716  221.3290 H   0  0  0  0  0  0  0  0  0  0  0  0
  142.0918   78.7328  219.1465 H   0  0  0  0  0  0  0  0  0  0  0  0
  142.3540   77.0390  221.1440 H   0  0  0  0  0  0  0  0  0  0  0  0
  138.7747   68.8591  222.9433 H   0  0  0  0  0  0  0  0  0  0  0  0
  138.8298   67.4221  224.9672 H   0  0  0  0  0  0  0  0  0  0  0  0
  139.4657   67.1375  227.2144 H   0  0  0  0  0  0  0  0  0  0  0  0
  141.5484   70.2672  229.2710 H   0  0  0  0  0  0  0  0  0  0  0  0
  141.4975   71.7053  227.2467 H   0  0  0  0  0  0  0  0  0  0  0  0
  1  2  2  0
  2  3  1  0
  3  4  1  0
  4  5  1  0
  5  6  2  0
  5  7  1  0
  7  8  1  0
  8  9  1  0
  9 10  1  0
 10 11  1  0
 11 12  1  0
 12 13  2  0
 13 14  1  0
 14 15  2  0
 15 16  1  0
  2 17  1  0
 17 18  2  0
 18 19  1  0
 19 20  2  0
 20 21  1  0
 21 22  2  0
 22 23  1  0
 22 24  1  0
 24 25  2  0
 25 26  1  0
 26 27  2  0
 11  7  1  0
 16 12  1  0
 27 17  1  0
 26 20  1  0
  3 28  1  0
  4 29  1  0
  4 30  1  0
  8 31  1  0
  8 32  1  0
  9 33  1  0
  9 34  1  0
 10 35  1  0
 10 36  1  0
 11 37  1  1
 15 38  1  0
 16 39  1  0
 18 40  1  0
 19 41  1  0
 21 42  1  0
 24 43  1  0
 25 44  1  0
M  END
>  <smiles>  (44) 
O=C(NCC(=O)N1CCC[C@H]1c1nnc[nH]1)c1ccc2cc(F)ccc2n1

>  <score_type>  (44) 
oracle

>  <origin>  (44) 
autodockgpu

>  <m_score__min__energy>  (44) 
-7.8399999999999999

>  <m_primary>  (44) 
energy

>  <rmsd>  (44) 
2.958571505418799

>  <m_score__min__rmsd>  (44) 
2.958571505418799

>  <meeko>  (44) 
{"free_energy": -7.57, "intermolecular_energy": -9.06, "internal_energy": -2.18, "cluster_size": 5, "cluster_id": 3, "rank_in_cluster": 5}

>  <energy>  (44) 
-6.67

>  <cluster_rmsd>  (44) 
0.0

>  <cluster>  (44) 
5

$$$$

     RDKit          3D

 44 47  0  0  0  0  0  0  0  0999 V2000
  141.2400   73.1940  221.9950 O   0  0  0  0  0  0  0  0  0  0  0  0
  140.5120   72.1510  222.0250 C   0  0  0  0  0  0  0  0  0  0  0  0
  139.8940   71.6450  220.8240 N   0  0  0  0  0  0  0  0  0  0  0  0
  140.0880   72.3140  219.5420 C   0  0  0  0  0  0  0  0  0  0  0  0
  141.5410   72.3830  219.3270 C   0  0  0  0  0  0  0  0  0  0  0  0
  142.1340   73.5000  219.1460 O   0  0  0  0  0  0  0  0  0  0  0  0
  142.4020   71.2380  219.2990 N   0  0  0  0  0  0  0  0  0  0  0  0
  142.1160   70.1260  218.3760 C   0  0  0  0  0  0  0  0  0  0  0  0
  142.9060   68.9790  219.0310 C   0  0  0  0  0  0  0  0  0  0  0  0
  144.1620   69.7450  219.3810 C   0  0  0  0  0  0  0  0  0  0  0  0
  143.5840   70.9550  220.0720 C   0  0  1  0  0  0  0  0  0  0  0  0
  144.5550   72.0740  220.1230 C   0  0  0  0  0  0  0  0  0  0  0  0
  145.8390   72.1260  219.7230 N   0  0  0  0  0  0  0  0  0  0  0  0
  146.3260   73.3360  219.9520 N   0  0  0  0  0  0  0  0  0  0  0  0
  145.3380   74.0460  220.4980 C   0  0  0  0  0  0  0  0  0  0  0  0
  144.2140   73.2970  220.6230 N   0  0  0  0  0  0  0  0  0  0  0  0
  140.2870   71.4450  223.2850 C   0  0  0  0  0  0  0  0  0  0  0  0
  139.5890   70.2550  223.2730 C   0  0  0  0  0  0  0  0  0  0  0  0
  139.3340   69.5250  224.4200 C   0  0  0  0  0  0  0  0  0  0  0  0
  139.8130   70.0380  225.6220 C   0  0  0  0  0  0  0  0  0  0  0  0
  139.5650   69.3240  226.7600 C   0  0  0  0  0  0  0  0  0  0  0  0
  140.0300   69.8110  227.9580 C   0  0  0  0  0  0  0  0  0  0  0  0
  139.7760   69.0920  229.0790 F   0  0  0  0  0  0  0  0  0  0  0  0
  140.7290   71.0040  227.9730 C   0  0  0  0  0  0  0  0  0  0  0  0
  140.9850   71.7350  226.8250 C   0  0  0  0  0  0  0  0  0  0  0  0
  140.5110   71.2300  225.6250 C   0  0  0  0  0  0  0  0  0  0  0  0
  140.7340   71.9050  224.4710 N   0  0  0  0  0  0  0  0  0  0  0  0
  139.3090   70.7830  220.9330 H   0  0  0  0  0  0  0  0  0  0  0  0
  139.6108   71.7376  218.7358 H   0  0  0  0  0  0  0  0  0  0  0  0
  139.6363   73.3170  219.5426 H   0  0  0  0  0  0  0  0  0  0  0  0
  141.0397   69.9023  218.3364 H   0  0  0  0  0  0  0  0  0  0  0  0
  142.3948   70.3253  217.3308 H   0  0  0  0  0  0  0  0  0  0  0  0
  142.3993   68.5833  219.9236 H   0  0  0  0  0  0  0  0  0  0  0  0
  143.0501   68.0822  218.4105 H   0  0  0  0  0  0  0  0  0  0  0  0
  144.8116   69.1676  220.0553 H   0  0  0  0  0  0  0  0  0  0  0  0
  144.8024   69.9807  218.5182 H   0  0  0  0  0  0  0  0  0  0  0  0
  143.3437   70.7902  221.1327 H   0  0  0  0  0  0  0  0  0  0  0  0
  145.4232   75.0986  220.8059 H   0  0  0  0  0  0  0  0  0  0  0  0
  143.2870   73.5740  221.0100 H   0  0  0  0  0  0  0  0  0  0  0  0
  139.2197   69.8705  222.3108 H   0  0  0  0  0  0  0  0  0  0  0  0
  138.7756   68.5780  224.3837 H   0  0  0  0  0  0  0  0  0  0  0  0
  139.0045   68.3784  226.7182 H   0  0  0  0  0  0  0  0  0  0  0  0
  141.0967   71.3880  228.9360 H   0  0  0  0  0  0  0  0  0  0  0  0
  141.5440   72.6816  226.8644 H   0  0  0  0  0  0  0  0  0  0  0  0
  1  2  2  0
  2  3  1  0
  3  4  1  0
  4  5  1  0
  5  6  2  0
  5  7  1  0
  7  8  1  0
  8  9  1  0
  9 10  1  0
 10 11  1  0
 11 12  1  0
 12 13  2  0
 13 14  1  0
 14 15  2  0
 15 16  1  0
  2 17  1  0
 17 18  2  0
 18 19  1  0
 19 20  2  0
 20 21  1  0
 21 22  2  0
 22 23  1  0
 22 24  1  0
 24 25  2  0
 25 26  1  0
 26 27  2  0
 11  7  1  0
 16 12  1  0
 27 17  1  0
 26 20  1  0
  3 28  1  0
  4 29  1  0
  4 30  1  0
  8 31  1  0
  8 32  1  0
  9 33  1  0
  9 34  1  0
 10 35  1  0
 10 36  1  0
 11 37  1  1
 15 38  1  0
 16 39  1  0
 18 40  1  0
 19 41  1  0
 21 42  1  0
 24 43  1  0
 25 44  1  0
M  END
>  <smiles>  (45) 
O=C(NCC(=O)N1CCC[C@H]1c1nnc[nH]1)c1ccc2cc(F)ccc2n1

>  <score_type>  (45) 
oracle

>  <origin>  (45) 
autodockgpu

>  <m_score__min__energy>  (45) 
-7.8399999999999999

>  <m_primary>  (45) 
energy

>  <rmsd>  (45) 
4.520213174835474

>  <m_score__min__rmsd>  (45) 
4.520213174835474

>  <meeko>  (45) 
{"free_energy": -6.72, "intermolecular_energy": -8.21, "internal_energy": -2.48, "cluster_size": 1, "cluster_id": 4, "rank_in_cluster": 1}

>  <energy>  (45) 
-6.61

>  <cluster_rmsd>  (45) 
0.28

>  <cluster>  (45) 
5

$$$$

     RDKit          3D

 44 47  0  0  0  0  0  0  0  0999 V2000
  140.5660   71.6420  221.0970 O   0  0  0  0  0  0  0  0  0  0  0  0
  140.1910   72.1820  222.1870 C   0  0  0  0  0  0  0  0  0  0  0  0
  139.8240   73.5760  222.2350 N   0  0  0  0  0  0  0  0  0  0  0  0
  139.8700   74.4040  221.0350 C   0  0  0  0  0  0  0  0  0  0  0  0
  140.7340   75.5490  221.3550 C   0  0  0  0  0  0  0  0  0  0  0  0
  140.7510   76.0620  222.5260 O   0  0  0  0  0  0  0  0  0  0  0  0
  141.6120   76.1800  220.4150 N   0  0  0  0  0  0  0  0  0  0  0  0
  141.6430   77.6500  220.3120 C   0  0  0  0  0  0  0  0  0  0  0  0
  142.2580   77.8410  218.9140 C   0  0  0  0  0  0  0  0  0  0  0  0
  143.3320   76.7800  218.9960 C   0  0  0  0  0  0  0  0  0  0  0  0
  142.5350   75.5940  219.4780 C   0  0  1  0  0  0  0  0  0  0  0  0
  143.4070   74.5480  220.0650 C   0  0  0  0  0  0  0  0  0  0  0  0
  144.6940   74.6110  220.4530 N   0  0  0  0  0  0  0  0  0  0  0  0
  145.0720   73.4350  220.9310 N   0  0  0  0  0  0  0  0  0  0  0  0
  144.0110   72.6300  220.8400 C   0  0  0  0  0  0  0  0  0  0  0  0
  142.9510   73.2840  220.3050 N   0  0  0  0  0  0  0  0  0  0  0  0
  140.1280   71.3930  223.4150 C   0  0  0  0  0  0  0  0  0  0  0  0
  139.5690   70.1300  223.3750 C   0  0  0  0  0  0  0  0  0  0  0  0
  139.4710   69.3190  224.4910 C   0  0  0  0  0  0  0  0  0  0  0  0
  139.9630   69.8240  225.6910 C   0  0  0  0  0  0  0  0  0  0  0  0
  139.8690   69.0300  226.7980 C   0  0  0  0  0  0  0  0  0  0  0  0
  140.3490   69.5070  227.9950 C   0  0  0  0  0  0  0  0  0  0  0  0
  140.2490   68.7080  229.0850 F   0  0  0  0  0  0  0  0  0  0  0  0
  140.9080   70.7720  228.0380 C   0  0  0  0  0  0  0  0  0  0  0  0
  141.0070   71.5840  226.9210 C   0  0  0  0  0  0  0  0  0  0  0  0
  140.5200   71.0870  225.7230 C   0  0  0  0  0  0  0  0  0  0  0  0
  140.5920   71.8420  224.5980 N   0  0  0  0  0  0  0  0  0  0  0  0
  139.5280   73.9440  223.1690 H   0  0  0  0  0  0  0  0  0  0  0  0
  140.2908   73.8328  220.1944 H   0  0  0  0  0  0  0  0  0  0  0  0
  138.8633   74.7340  220.7389 H   0  0  0  0  0  0  0  0  0  0  0  0
  140.6318   78.0792  220.3692 H   0  0  0  0  0  0  0  0  0  0  0  0
  142.1991   78.1468  221.1207 H   0  0  0  0  0  0  0  0  0  0  0  0
  141.5342   77.6371  218.1112 H   0  0  0  0  0  0  0  0  0  0  0  0
  142.6071   78.8576  218.6801 H   0  0  0  0  0  0  0  0  0  0  0  0
  143.7853   76.5883  218.0123 H   0  0  0  0  0  0  0  0  0  0  0  0
  144.1815   77.0461  219.6422 H   0  0  0  0  0  0  0  0  0  0  0  0
  142.0101   75.0552  218.6754 H   0  0  0  0  0  0  0  0  0  0  0  0
  143.9985   71.5767  221.1568 H   0  0  0  0  0  0  0  0  0  0  0  0
  141.9930   72.9230  220.1120 H   0  0  0  0  0  0  0  0  0  0  0  0
  139.1858   69.7537  222.4150 H   0  0  0  0  0  0  0  0  0  0  0  0
  139.0227   68.3162  224.4326 H   0  0  0  0  0  0  0  0  0  0  0  0
  139.4182   68.0287  226.7334 H   0  0  0  0  0  0  0  0  0  0  0  0
  141.2893   71.1479  228.9989 H   0  0  0  0  0  0  0  0  0  0  0  0
  141.4556   72.5865  226.9824 H   0  0  0  0  0  0  0  0  0  0  0  0
  1  2  2  0
  2  3  1  0
  3  4  1  0
  4  5  1  0
  5  6  2  0
  5  7  1  0
  7  8  1  0
  8  9  1  0
  9 10  1  0
 10 11  1  0
 11 12  1  0
 12 13  2  0
 13 14  1  0
 14 15  2  0
 15 16  1  0
  2 17  1  0
 17 18  2  0
 18 19  1  0
 19 20  2  0
 20 21  1  0
 21 22  2  0
 22 23  1  0
 22 24  1  0
 24 25  2  0
 25 26  1  0
 26 27  2  0
 11  7  1  0
 16 12  1  0
 27 17  1  0
 26 20  1  0
  3 28  1  0
  4 29  1  0
  4 30  1  0
  8 31  1  0
  8 32  1  0
  9 33  1  0
  9 34  1  0
 10 35  1  0
 10 36  1  0
 11 37  1  6
 15 38  1  0
 16 39  1  0
 18 40  1  0
 19 41  1  0
 21 42  1  0
 24 43  1  0
 25 44  1  0
M  END
>  <smiles>  (46) 
O=C(NCC(=O)N1CCC[C@H]1c1nnc[nH]1)c1ccc2cc(F)ccc2n1

>  <score_type>  (46) 
oracle

>  <origin>  (46) 
autodockgpu

>  <m_score__min__energy>  (46) 
-7.8399999999999999

>  <m_primary>  (46) 
energy

>  <rmsd>  (46) 
2.9856285807240437

>  <m_score__min__rmsd>  (46) 
2.9856285807240437

>  <meeko>  (46) 
{"free_energy": -7.61, "intermolecular_energy": -9.1, "internal_energy": -2.43, "cluster_size": 23, "cluster_id": 1, "rank_in_cluster": 11}

>  <energy>  (46) 
-6.56

>  <cluster_rmsd>  (46) 
0.28

>  <cluster>  (46) 
5

$$$$

     RDKit          3D

 44 47  0  0  0  0  0  0  0  0999 V2000
  137.5080   69.6900  222.3510 O   0  0  0  0  0  0  0  0  0  0  0  0
  137.8440   70.3750  223.3700 C   0  0  0  0  0  0  0  0  0  0  0  0
  137.4470   71.7560  223.4970 N   0  0  0  0  0  0  0  0  0  0  0  0
  136.6510   72.4050  222.4610 C   0  0  0  0  0  0  0  0  0  0  0  0
  135.2650   71.9590  222.6640 C   0  0  0  0  0  0  0  0  0  0  0  0
  134.4870   71.7370  221.6750 O   0  0  0  0  0  0  0  0  0  0  0  0
  134.6740   71.7390  223.9500 N   0  0  0  0  0  0  0  0  0  0  0  0
  133.7500   72.7390  224.5140 C   0  0  0  0  0  0  0  0  0  0  0  0
  133.7970   72.3840  226.0100 C   0  0  0  0  0  0  0  0  0  0  0  0
  133.7500   70.8780  225.8830 C   0  0  0  0  0  0  0  0  0  0  0  0
  134.8330   70.6360  224.8620 C   0  0  1  0  0  0  0  0  0  0  0  0
  134.7010   69.3030  224.2260 C   0  0  0  0  0  0  0  0  0  0  0  0
  134.2990   68.1300  224.7500 N   0  0  0  0  0  0  0  0  0  0  0  0
  134.3270   67.1940  223.8130 N   0  0  0  0  0  0  0  0  0  0  0  0
  134.7490   67.7880  222.6950 C   0  0  0  0  0  0  0  0  0  0  0  0
  134.9950   69.1040  222.9080 N   0  0  0  0  0  0  0  0  0  0  0  0
  138.6410   69.7690  224.4350 C   0  0  0  0  0  0  0  0  0  0  0  0
  138.8160   68.3990  224.4460 C   0  0  0  0  0  0  0  0  0  0  0  0
  139.5550   67.7470  225.4160 C   0  0  0  0  0  0  0  0  0  0  0  0
  140.1340   68.5310  226.4110 C   0  0  0  0  0  0  0  0  0  0  0  0
  140.8650   67.8950  227.3730 C   0  0  0  0  0  0  0  0  0  0  0  0
  141.4460   68.6480  228.3650 C   0  0  0  0  0  0  0  0  0  0  0  0
  142.1690   68.0040  229.3140 F   0  0  0  0  0  0  0  0  0  0  0  0
  141.2720   70.0210  228.3570 C   0  0  0  0  0  0  0  0  0  0  0  0
  140.5320   70.6740  227.3850 C   0  0  0  0  0  0  0  0  0  0  0  0
  139.9540   69.9000  226.3920 C   0  0  0  0  0  0  0  0  0  0  0  0
  139.2190   70.4890  225.4160 N   0  0  0  0  0  0  0  0  0  0  0  0
  137.7640   72.2500  224.3650 H   0  0  0  0  0  0  0  0  0  0  0  0
  136.7172   73.4986  222.5592 H   0  0  0  0  0  0  0  0  0  0  0  0
  137.0122   72.1414  221.4560 H   0  0  0  0  0  0  0  0  0  0  0  0
  134.1060   73.7638  224.3321 H   0  0  0  0  0  0  0  0  0  0  0  0
  132.7406   72.7161  224.0774 H   0  0  0  0  0  0  0  0  0  0  0  0
  134.7241   72.7310  226.4896 H   0  0  0  0  0  0  0  0  0  0  0  0
  133.0117   72.8361  226.6337 H   0  0  0  0  0  0  0  0  0  0  0  0
  133.9802   70.3855  226.8392 H   0  0  0  0  0  0  0  0  0  0  0  0
  132.7648   70.4795  225.5991 H   0  0  0  0  0  0  0  0  0  0  0  0
  135.8469   70.6056  225.2876 H   0  0  0  0  0  0  0  0  0  0  0  0
  134.8798   67.2778  221.7293 H   0  0  0  0  0  0  0  0  0  0  0  0
  135.3310   69.8210  222.2320 H   0  0  0  0  0  0  0  0  0  0  0  0
  138.3479   67.8015  223.6498 H   0  0  0  0  0  0  0  0  0  0  0  0
  139.6804   66.6543  225.4024 H   0  0  0  0  0  0  0  0  0  0  0  0
  140.9864   66.8019  227.3544 H   0  0  0  0  0  0  0  0  0  0  0  0
  141.7399   70.6174  229.1541 H   0  0  0  0  0  0  0  0  0  0  0  0
  140.4079   71.7669  227.4010 H   0  0  0  0  0  0  0  0  0  0  0  0
  1  2  2  0
  2  3  1  0
  3  4  1  0
  4  5  1  0
  5  6  2  0
  5  7  1  0
  7  8  1  0
  8  9  1  0
  9 10  1  0
 10 11  1  0
 11 12  1  0
 12 13  2  0
 13 14  1  0
 14 15  2  0
 15 16  1  0
  2 17  1  0
 17 18  2  0
 18 19  1  0
 19 20  2  0
 20 21  1  0
 21 22  2  0
 22 23  1  0
 22 24  1  0
 24 25  2  0
 25 26  1  0
 26 27  2  0
 11  7  1  0
 16 12  1  0
 27 17  1  0
 26 20  1  0
  3 28  1  0
  4 29  1  0
  4 30  1  0
  8 31  1  0
  8 32  1  0
  9 33  1  0
  9 34  1  0
 10 35  1  0
 10 36  1  0
 11 37  1  1
 15 38  1  0
 16 39  1  0
 18 40  1  0
 19 41  1  0
 21 42  1  0
 24 43  1  0
 25 44  1  0
M  END
>  <smiles>  (47) 
O=C(NCC(=O)N1CCC[C@H]1c1nnc[nH]1)c1ccc2cc(F)ccc2n1

>  <score_type>  (47) 
oracle

>  <origin>  (47) 
autodockgpu

>  <m_score__min__energy>  (47) 
-7.8399999999999999

>  <m_primary>  (47) 
energy

>  <rmsd>  (47) 
7.071531847118386

>  <m_score__min__rmsd>  (47) 
7.071531847118386

>  <meeko>  (47) 
{"free_energy": -6.33, "intermolecular_energy": -7.82, "internal_energy": -3.27, "cluster_size": 4, "cluster_id": 6, "rank_in_cluster": 4}

>  <energy>  (47) 
-6.55

>  <cluster_rmsd>  (47) 
0.0

>  <cluster>  (47) 
6

$$$$

     RDKit          3D

 44 47  0  0  0  0  0  0  0  0999 V2000
  140.7530   76.9880  218.3660 O   0  0  0  0  0  0  0  0  0  0  0  0
  141.9770   77.0580  218.7090 C   0  0  0  0  0  0  0  0  0  0  0  0
  142.5770   78.3230  219.0580 N   0  0  0  0  0  0  0  0  0  0  0  0
  141.7970   79.5550  219.0290 C   0  0  0  0  0  0  0  0  0  0  0  0
  140.8180   79.4520  220.1200 C   0  0  0  0  0  0  0  0  0  0  0  0
  139.5680   79.3310  219.8840 O   0  0  0  0  0  0  0  0  0  0  0  0
  141.1620   79.4770  221.5110 N   0  0  0  0  0  0  0  0  0  0  0  0
  141.0230   80.7280  222.2780 C   0  0  0  0  0  0  0  0  0  0  0  0
  141.9530   80.4530  223.4740 C   0  0  0  0  0  0  0  0  0  0  0  0
  141.5560   79.0180  223.7390 C   0  0  0  0  0  0  0  0  0  0  0  0
  141.6610   78.4250  222.3570 C   0  0  1  0  0  0  0  0  0  0  0  0
  140.9070   77.1520  222.2460 C   0  0  0  0  0  0  0  0  0  0  0  0
  139.6630   76.8460  222.6550 N   0  0  0  0  0  0  0  0  0  0  0  0
  139.3910   75.5880  222.3420 N   0  0  0  0  0  0  0  0  0  0  0  0
  140.4750   75.1050  221.7320 C   0  0  0  0  0  0  0  0  0  0  0  0
  141.4460   76.0490  221.6510 N   0  0  0  0  0  0  0  0  0  0  0  0
  142.8000   75.8510  218.7540 C   0  0  0  0  0  0  0  0  0  0  0  0
  142.6940   74.9270  217.7320 C   0  0  0  0  0  0  0  0  0  0  0  0
  143.4350   73.7610  217.6980 C   0  0  0  0  0  0  0  0  0  0  0  0
  144.3160   73.5340  218.7530 C   0  0  0  0  0  0  0  0  0  0  0  0
  145.0520   72.3840  218.7270 C   0  0  0  0  0  0  0  0  0  0  0  0
  145.9290   72.1390  219.7570 C   0  0  0  0  0  0  0  0  0  0  0  0
  146.6520   70.9930  219.7190 F   0  0  0  0  0  0  0  0  0  0  0  0
  146.0360   73.0620  220.7820 C   0  0  0  0  0  0  0  0  0  0  0  0
  145.2940   74.2310  220.8160 C   0  0  0  0  0  0  0  0  0  0  0  0
  144.4160   74.4620  219.7700 C   0  0  0  0  0  0  0  0  0  0  0  0
  143.6650   75.5920  219.7540 N   0  0  0  0  0  0  0  0  0  0  0  0
  143.5880   78.2960  219.3280 H   0  0  0  0  0  0  0  0  0  0  0  0
  142.4525   80.4241  219.1869 H   0  0  0  0  0  0  0  0  0  0  0  0
  141.2988   79.6888  218.0575 H   0  0  0  0  0  0  0  0  0  0  0  0
  141.3622   81.5973  221.6956 H   0  0  0  0  0  0  0  0  0  0  0  0
  139.9878   80.9717  222.5589 H   0  0  0  0  0  0  0  0  0  0  0  0
  143.0151   80.5463  223.2035 H   0  0  0  0  0  0  0  0  0  0  0  0
  141.8534   81.1420  224.3257 H   0  0  0  0  0  0  0  0  0  0  0  0
  142.2494   78.5309  224.4404 H   0  0  0  0  0  0  0  0  0  0  0  0
  140.5668   78.9022  224.2060 H   0  0  0  0  0  0  0  0  0  0  0  0
  142.6830   78.1306  222.0761 H   0  0  0  0  0  0  0  0  0  0  0  0
  140.5688   74.0790  221.3465 H   0  0  0  0  0  0  0  0  0  0  0  0
  142.3960   75.9700  221.2320 H   0  0  0  0  0  0  0  0  0  0  0  0
  141.9902   75.1280  216.9109 H   0  0  0  0  0  0  0  0  0  0  0  0
  143.3334   73.0418  216.8719 H   0  0  0  0  0  0  0  0  0  0  0  0
  144.9453   71.6682  217.8986 H   0  0  0  0  0  0  0  0  0  0  0  0
  146.7390   72.8592  221.6034 H   0  0  0  0  0  0  0  0  0  0  0  0
  145.3981   74.9491  221.6427 H   0  0  0  0  0  0  0  0  0  0  0  0
  1  2  2  0
  2  3  1  0
  3  4  1  0
  4  5  1  0
  5  6  2  0
  5  7  1  0
  7  8  1  0
  8  9  1  0
  9 10  1  0
 10 11  1  0
 11 12  1  0
 12 13  2  0
 13 14  1  0
 14 15  2  0
 15 16  1  0
  2 17  1  0
 17 18  2  0
 18 19  1  0
 19 20  2  0
 20 21  1  0
 21 22  2  0
 22 23  1  0
 22 24  1  0
 24 25  2  0
 25 26  1  0
 26 27  2  0
 11  7  1  0
 16 12  1  0
 27 17  1  0
 26 20  1  0
  3 28  1  0
  4 29  1  0
  4 30  1  0
  8 31  1  0
  8 32  1  0
  9 33  1  0
  9 34  1  0
 10 35  1  0
 10 36  1  0
 11 37  1  6
 15 38  1  0
 16 39  1  0
 18 40  1  0
 19 41  1  0
 21 42  1  0
 24 43  1  0
 25 44  1  0
M  END
>  <smiles>  (48) 
O=C(NCC(=O)N1CCC[C@H]1c1nnc[nH]1)c1ccc2cc(F)ccc2n1

>  <score_type>  (48) 
oracle

>  <origin>  (48) 
autodockgpu

>  <m_score__min__energy>  (48) 
-7.8399999999999999

>  <m_primary>  (48) 
energy

>  <rmsd>  (48) 
7.53229270128262

>  <m_score__min__rmsd>  (48) 
7.53229270128262

>  <meeko>  (48) 
{"free_energy": -6.67, "intermolecular_energy": -8.16, "internal_energy": -2.68, "cluster_size": 3, "cluster_id": 5, "rank_in_cluster": 1}

>  <energy>  (48) 
-6.55

>  <cluster_rmsd>  (48) 
0.19

>  <cluster>  (48) 
6

$$$$

     RDKit          3D

 44 47  0  0  0  0  0  0  0  0999 V2000
  137.0560   69.7140  222.7390 O   0  0  0  0  0  0  0  0  0  0  0  0
  137.5320   70.4260  223.6810 C   0  0  0  0  0  0  0  0  0  0  0  0
  137.2520   71.8390  223.7550 N   0  0  0  0  0  0  0  0  0  0  0  0
  136.4140   72.4900  222.7540 C   0  0  0  0  0  0  0  0  0  0  0  0
  135.0300   72.1000  223.0560 C   0  0  0  0  0  0  0  0  0  0  0  0
  134.3580   71.3620  222.2580 O   0  0  0  0  0  0  0  0  0  0  0  0
  134.3230   72.5000  224.2360 N   0  0  0  0  0  0  0  0  0  0  0  0
  133.4160   73.6610  224.1900 C   0  0  0  0  0  0  0  0  0  0  0  0
  133.3200   74.0270  225.6820 C   0  0  0  0  0  0  0  0  0  0  0  0
  133.1960   72.6310  226.2470 C   0  0  0  0  0  0  0  0  0  0  0  0
  134.3420   71.9330  225.5590 C   0  0  1  0  0  0  0  0  0  0  0  0
  134.1850   70.4590  225.5870 C   0  0  0  0  0  0  0  0  0  0  0  0
  133.6040   69.6680  226.5070 N   0  0  0  0  0  0  0  0  0  0  0  0
  133.6850   68.4040  226.1200 N   0  0  0  0  0  0  0  0  0  0  0  0
  134.3230   68.4060  224.9480 C   0  0  0  0  0  0  0  0  0  0  0  0
  134.6530   69.6680  224.5780 N   0  0  0  0  0  0  0  0  0  0  0  0
  138.3770   69.8190  224.7080 C   0  0  0  0  0  0  0  0  0  0  0  0
  138.4360   68.4430  224.8020 C   0  0  0  0  0  0  0  0  0  0  0  0
  139.2100   67.7890  225.7440 C   0  0  0  0  0  0  0  0  0  0  0  0
  139.9480   68.5790  226.6220 C   0  0  0  0  0  0  0  0  0  0  0  0
  140.7140   67.9420  227.5560 C   0  0  0  0  0  0  0  0  0  0  0  0
  141.4520   68.7010  228.4320 C   0  0  0  0  0  0  0  0  0  0  0  0
  142.2070   68.0560  229.3540 F   0  0  0  0  0  0  0  0  0  0  0  0
  141.3930   70.0810  228.3410 C   0  0  0  0  0  0  0  0  0  0  0  0
  140.6190   70.7350  227.3980 C   0  0  0  0  0  0  0  0  0  0  0  0
  139.8830   69.9550  226.5210 C   0  0  0  0  0  0  0  0  0  0  0  0
  139.1070   70.5450  225.5780 N   0  0  0  0  0  0  0  0  0  0  0  0
  137.6810   72.3540  224.5600 H   0  0  0  0  0  0  0  0  0  0  0  0
  136.5241   73.5826  222.8177 H   0  0  0  0  0  0  0  0  0  0  0  0
  136.7007   72.1881  221.7358 H   0  0  0  0  0  0  0  0  0  0  0  0
  133.8452   74.4843  223.6001 H   0  0  0  0  0  0  0  0  0  0  0  0
  132.4462   73.4568  223.7127 H   0  0  0  0  0  0  0  0  0  0  0  0
  134.2235   74.5410  226.0417 H   0  0  0  0  0  0  0  0  0  0  0  0
  132.5139   74.7251  225.9519 H   0  0  0  0  0  0  0  0  0  0  0  0
  133.3190   72.6262  227.3401 H   0  0  0  0  0  0  0  0  0  0  0  0
  132.2155   72.1616  226.0789 H   0  0  0  0  0  0  0  0  0  0  0  0
  135.3145   72.0850  226.0501 H   0  0  0  0  0  0  0  0  0  0  0  0
  134.5508   67.5043  224.3605 H   0  0  0  0  0  0  0  0  0  0  0  0
  135.1520   69.9860  223.7200 H   0  0  0  0  0  0  0  0  0  0  0  0
  137.8425   67.8410  224.0982 H   0  0  0  0  0  0  0  0  0  0  0  0
  139.2412   66.6907  225.7973 H   0  0  0  0  0  0  0  0  0  0  0  0
  140.7397   66.8434  227.6061 H   0  0  0  0  0  0  0  0  0  0  0  0
  141.9852   70.6822  229.0466 H   0  0  0  0  0  0  0  0  0  0  0  0
  140.5894   71.8334  227.3469 H   0  0  0  0  0  0  0  0  0  0  0  0
  1  2  2  0
  2  3  1  0
  3  4  1  0
  4  5  1  0
  5  6  2  0
  5  7  1  0
  7  8  1  0
  8  9  1  0
  9 10  1  0
 10 11  1  0
 11 12  1  0
 12 13  2  0
 13 14  1  0
 14 15  2  0
 15 16  1  0
  2 17  1  0
 17 18  2  0
 18 19  1  0
 19 20  2  0
 20 21  1  0
 21 22  2  0
 22 23  1  0
 22 24  1  0
 24 25  2  0
 25 26  1  0
 26 27  2  0
 11  7  1  0
 16 12  1  0
 27 17  1  0
 26 20  1  0
  3 28  1  0
  4 29  1  0
  4 30  1  0
  8 31  1  0
  8 32  1  0
  9 33  1  0
  9 34  1  0
 10 35  1  0
 10 36  1  0
 11 37  1  1
 15 38  1  0
 16 39  1  0
 18 40  1  0
 19 41  1  0
 21 42  1  0
 24 43  1  0
 25 44  1  0
M  END
>  <smiles>  (49) 
O=C(NCC(=O)N1CCC[C@H]1c1nnc[nH]1)c1ccc2cc(F)ccc2n1

>  <score_type>  (49) 
oracle

>  <origin>  (49) 
autodockgpu

>  <m_score__min__energy>  (49) 
-7.8399999999999999

>  <m_primary>  (49) 
energy

>  <rmsd>  (49) 
7.0317879874424305

>  <m_score__min__rmsd>  (49) 
7.0317879874424305

>  <meeko>  (49) 
{"free_energy": -6.55, "intermolecular_energy": -8.04, "internal_energy": -3.17, "cluster_size": 4, "cluster_id": 6, "rank_in_cluster": 2}

>  <energy>  (49) 
-6.35

>  <cluster_rmsd>  (49) 
1.03

>  <cluster>  (49) 
6

$$$$

     RDKit          3D

 44 47  0  0  0  0  0  0  0  0999 V2000
  141.4460   72.1230  221.5160 O   0  0  0  0  0  0  0  0  0  0  0  0
  140.4750   72.3610  222.3030 C   0  0  0  0  0  0  0  0  0  0  0  0
  139.5460   73.4300  222.0310 N   0  0  0  0  0  0  0  0  0  0  0  0
  139.6930   74.2670  220.8450 C   0  0  0  0  0  0  0  0  0  0  0  0
  140.7770   75.2140  221.1390 C   0  0  0  0  0  0  0  0  0  0  0  0
  141.1530   75.4420  222.3390 O   0  0  0  0  0  0  0  0  0  0  0  0
  141.4910   75.9510  220.1400 N   0  0  0  0  0  0  0  0  0  0  0  0
  141.3670   77.4180  220.0810 C   0  0  0  0  0  0  0  0  0  0  0  0
  141.8200   77.7010  218.6370 C   0  0  0  0  0  0  0  0  0  0  0  0
  142.9960   76.7530  218.5820 C   0  0  0  0  0  0  0  0  0  0  0  0
  142.3720   75.4820  219.1020 C   0  0  1  0  0  0  0  0  0  0  0  0
  143.3960   74.5170  219.5690 C   0  0  0  0  0  0  0  0  0  0  0  0
  144.5270   74.0980  218.9720 N   0  0  0  0  0  0  0  0  0  0  0  0
  145.1490   73.2320  219.7570 N   0  0  0  0  0  0  0  0  0  0  0  0
  144.4000   73.1100  220.8550 C   0  0  0  0  0  0  0  0  0  0  0  0
  143.2970   73.8940  220.7790 N   0  0  0  0  0  0  0  0  0  0  0  0
  140.2860   71.5500  223.5040 C   0  0  0  0  0  0  0  0  0  0  0  0
  139.5900   70.3610  223.4090 C   0  0  0  0  0  0  0  0  0  0  0  0
  139.3670   69.5350  224.4950 C   0  0  0  0  0  0  0  0  0  0  0  0
  139.8770   69.9460  225.7240 C   0  0  0  0  0  0  0  0  0  0  0  0
  139.6600   69.1360  226.8030 C   0  0  0  0  0  0  0  0  0  0  0  0
  140.1550   69.5220  228.0260 C   0  0  0  0  0  0  0  0  0  0  0  0
  139.9330   68.7080  229.0880 F   0  0  0  0  0  0  0  0  0  0  0  0
  140.8520   70.7130  228.1250 C   0  0  0  0  0  0  0  0  0  0  0  0
  141.0750   71.5400  227.0360 C   0  0  0  0  0  0  0  0  0  0  0  0
  140.5710   71.1360  225.8110 C   0  0  0  0  0  0  0  0  0  0  0  0
  140.7620   71.9090  224.7130 N   0  0  0  0  0  0  0  0  0  0  0  0
  138.7750   73.5610  222.7280 H   0  0  0  0  0  0  0  0  0  0  0  0
  139.9534   73.6492  219.9729 H   0  0  0  0  0  0  0  0  0  0  0  0
  138.7562   74.7931  220.6089 H   0  0  0  0  0  0  0  0  0  0  0  0
  140.3290   77.7415  220.2481 H   0  0  0  0  0  0  0  0  0  0  0  0
  141.9483   77.9505  220.8481 H   0  0  0  0  0  0  0  0  0  0  0  0
  141.0444   77.4426  217.9010 H   0  0  0  0  0  0  0  0  0  0  0  0
  142.0425   78.7526  218.4033 H   0  0  0  0  0  0  0  0  0  0  0  0
  143.3661   76.6290  217.5536 H   0  0  0  0  0  0  0  0  0  0  0  0
  143.8749   77.0902  219.1511 H   0  0  0  0  0  0  0  0  0  0  0  0
  141.8269   74.9094  218.3372 H   0  0  0  0  0  0  0  0  0  0  0  0
  144.6452   72.4599  221.7078 H   0  0  0  0  0  0  0  0  0  0  0  0
  142.5320   74.0120  221.4770 H   0  0  0  0  0  0  0  0  0  0  0  0
  139.1963   70.0582  222.4275 H   0  0  0  0  0  0  0  0  0  0  0  0
  138.8098   68.5921  224.3925 H   0  0  0  0  0  0  0  0  0  0  0  0
  139.1009   68.1948  226.6952 H   0  0  0  0  0  0  0  0  0  0  0  0
  141.2446   71.0153  229.1071 H   0  0  0  0  0  0  0  0  0  0  0  0
  141.6319   72.4828  227.1406 H   0  0  0  0  0  0  0  0  0  0  0  0
  1  2  2  0
  2  3  1  0
  3  4  1  0
  4  5  1  0
  5  6  2  0
  5  7  1  0
  7  8  1  0
  8  9  1  0
  9 10  1  0
 10 11  1  0
 11 12  1  0
 12 13  2  0
 13 14  1  0
 14 15  2  0
 15 16  1  0
  2 17  1  0
 17 18  2  0
 18 19  1  0
 19 20  2  0
 20 21  1  0
 21 22  2  0
 22 23  1  0
 22 24  1  0
 24 25  2  0
 25 26  1  0
 26 27  2  0
 11  7  1  0
 16 12  1  0
 27 17  1  0
 26 20  1  0
  3 28  1  0
  4 29  1  0
  4 30  1  0
  8 31  1  0
  8 32  1  0
  9 33  1  0
  9 34  1  0
 10 35  1  0
 10 36  1  0
 11 37  1  6
 15 38  1  0
 16 39  1  0
 18 40  1  0
 19 41  1  0
 21 42  1  0
 24 43  1  0
 25 44  1  0
M  END
>  <smiles>  (50) 
O=C(NCC(=O)N1CCC[C@H]1c1nnc[nH]1)c1ccc2cc(F)ccc2n1

>  <score_type>  (50) 
oracle

>  <origin>  (50) 
autodockgpu

>  <m_score__min__energy>  (50) 
-7.8399999999999999

>  <m_primary>  (50) 
energy

>  <rmsd>  (50) 
2.790798789854474

>  <m_score__min__rmsd>  (50) 
2.790798789854474

>  <meeko>  (50) 
{"free_energy": -7.29, "intermolecular_energy": -8.78, "internal_energy": -2.57, "cluster_size": 23, "cluster_id": 1, "rank_in_cluster": 17}

>  <energy>  (50) 
-6.33

>  <cluster_rmsd>  (50) 
1.02

>  <cluster>  (50) 
6

$$$$
