
     RDKit          3D

 47 49  0  0  0  0  0  0  0  0999 V2000
  138.5220   68.7370  225.2670 C   0  0  0  0  0  0  0  0  0  0  0  0
  139.8540   69.3220  224.8930 C   0  0  1  0  0  0  0  0  0  0  0  0
  139.7270   70.0220  223.6270 N   0  0  0  0  0  0  0  0  0  0  0  0
  138.7870   71.0640  223.4350 C   0  0  0  0  0  0  0  0  0  0  0  0
  138.0380   71.3910  224.4120 O   0  0  0  0  0  0  0  0  0  0  0  0
  138.6030   71.8130  222.1770 C   0  0  0  0  0  0  0  0  0  0  0  0
  139.1280   73.1390  222.1630 N   0  0  0  0  0  0  0  0  0  0  0  0
  139.9940   73.6150  221.1220 C   0  0  0  0  0  0  0  0  0  0  0  0
  140.3410   72.8900  220.1490 O   0  0  0  0  0  0  0  0  0  0  0  0
  140.4980   75.0050  221.1940 C   0  0  0  0  0  0  0  0  0  0  0  0
  141.5260   75.4010  220.3650 C   0  0  0  0  0  0  0  0  0  0  0  0
  141.9600   76.7050  220.4710 C   0  0  0  0  0  0  0  0  0  0  0  0
  141.4190   77.6150  221.3540 C   0  0  0  0  0  0  0  0  0  0  0  0
  141.8550   78.9200  221.4570 C   0  0  0  0  0  0  0  0  0  0  0  0
  141.2280   79.7350  222.3850 C   0  0  0  0  0  0  0  0  0  0  0  0
  141.6500   81.1660  222.5520 C   0  0  0  0  0  0  0  0  0  0  0  0
  142.1750   81.6210  221.3350 F   0  0  0  0  0  0  0  0  0  0  0  0
  140.5140   81.9170  222.7590 F   0  0  0  0  0  0  0  0  0  0  0  0
  142.5780   81.3120  223.5660 F   0  0  0  0  0  0  0  0  0  0  0  0
  140.2000   79.2890  223.1940 C   0  0  0  0  0  0  0  0  0  0  0  0
  139.7650   77.9820  223.0880 C   0  0  0  0  0  0  0  0  0  0  0  0
  140.3890   77.1680  222.1630 C   0  0  0  0  0  0  0  0  0  0  0  0
  139.9640   75.8950  222.0640 N   0  0  0  0  0  0  0  0  0  0  0  0
  140.2740   70.2310  226.0040 C   0  0  0  0  0  0  0  0  0  0  0  0
  141.0860   71.3330  225.7730 C   0  0  0  0  0  0  0  0  0  0  0  0
  141.4470   72.1490  226.8490 C   0  0  0  0  0  0  0  0  0  0  0  0
  141.0220   71.8930  228.1350 C   0  0  0  0  0  0  0  0  0  0  0  0
  140.2150   70.7980  228.3650 C   0  0  0  0  0  0  0  0  0  0  0  0
  139.8600   69.9940  227.3020 C   0  0  0  0  0  0  0  0  0  0  0  0
  138.4333   68.6980  226.3627 H   0  0  0  0  0  0  0  0  0  0  0  0
  137.7175   69.3646  224.8561 H   0  0  0  0  0  0  0  0  0  0  0  0
  138.4398   67.7200  224.8561 H   0  0  0  0  0  0  0  0  0  0  0  0
  140.6223   68.5460  224.7600 H   0  0  0  0  0  0  0  0  0  0  0  0
  140.3670   69.7300  222.8610 H   0  0  0  0  0  0  0  0  0  0  0  0
  139.0941   71.2468  221.3719 H   0  0  0  0  0  0  0  0  0  0  0  0
  137.5158   71.9202  222.0488 H   0  0  0  0  0  0  0  0  0  0  0  0
  138.9030   73.8450  222.9280 H   0  0  0  0  0  0  0  0  0  0  0  0
  141.9821   74.7035  219.6470 H   0  0  0  0  0  0  0  0  0  0  0  0
  142.7803   77.0366  219.8174 H   0  0  0  0  0  0  0  0  0  0  0  0
  142.6713   79.2995  220.8248 H   0  0  0  0  0  0  0  0  0  0  0  0
  139.7307   79.9710  223.9184 H   0  0  0  0  0  0  0  0  0  0  0  0
  138.9484   77.6021  223.7196 H   0  0  0  0  0  0  0  0  0  0  0  0
  141.4405   71.5610  224.7570 H   0  0  0  0  0  0  0  0  0  0  0  0
  142.0899   73.0221  226.6638 H   0  0  0  0  0  0  0  0  0  0  0  0
  141.3214   72.5509  228.9642 H   0  0  0  0  0  0  0  0  0  0  0  0
  139.8600   70.5696  229.3808 H   0  0  0  0  0  0  0  0  0  0  0  0
  139.2170   69.1228  227.4959 H   0  0  0  0  0  0  0  0  0  0  0  0
  1  2  1  0
  2  3  1  0
  3  4  1  0
  4  5  2  0
  4  6  1  0
  6  7  1  0
  7  8  1  0
  8  9  2  0
  8 10  1  0
 10 11  2  0
 11 12  1  0
 12 13  2  0
 13 14  1  0
 14 15  2  0
 15 16  1  0
 16 17  1  0
 16 18  1  0
 16 19  1  0
 15 20  1  0
 20 21  2  0
 21 22  1  0
 22 23  2  0
  2 24  1  0
 24 25  2  0
 25 26  1  0
 26 27  2  0
 27 28  1  0
 28 29  2  0
 23 10  1  0
 29 24  1  0
 22 13  1  0
  1 30  1  0
  1 31  1  0
  1 32  1  0
  2 33  1  6
  3 34  1  0
  6 35  1  0
  6 36  1  0
  7 37  1  0
 11 38  1  0
 12 39  1  0
 14 40  1  0
 20 41  1  0
 21 42  1  0
 25 43  1  0
 26 44  1  0
 27 45  1  0
 28 46  1  0
 29 47  1  0
M  END
>  <smiles>  (1) 
C[C@@H](NC(=O)CNC(=O)c1ccc2cc(C(F)(F)F)ccc2n1)c1ccccc1

>  <score_type>  (1) 
oracle

>  <origin>  (1) 
autodockgpu

>  <m_score__min__energy>  (1) 
-7.9900000000000002

>  <m_primary>  (1) 
energy

>  <rmsd>  (1) 
9.977483896466033

>  <m_score__min__rmsd>  (1) 
9.977483896466033

>  <meeko>  (1) 
{"free_energy": -7.99, "intermolecular_energy": -9.78, "internal_energy": -1.42, "cluster_size": 42, "cluster_id": 1, "rank_in_cluster": 1}

>  <energy>  (1) 
-7.99

>  <cluster_rmsd>  (1) 
0.0

>  <cluster>  (1) 
1

$$$$

     RDKit          3D

 47 49  0  0  0  0  0  0  0  0999 V2000
  139.0210   68.4960  224.9210 C   0  0  0  0  0  0  0  0  0  0  0  0
  140.0240   69.5830  224.6600 C   0  0  1  0  0  0  0  0  0  0  0  0
  139.5240   70.4480  223.6070 N   0  0  0  0  0  0  0  0  0  0  0  0
  138.1930   70.9310  223.5980 C   0  0  0  0  0  0  0  0  0  0  0  0
  137.4210   70.5930  224.5530 O   0  0  0  0  0  0  0  0  0  0  0  0
  137.6200   71.8090  222.5590 C   0  0  0  0  0  0  0  0  0  0  0  0
  138.2850   73.0570  222.3660 N   0  0  0  0  0  0  0  0  0  0  0  0
  139.5500   73.1620  221.6990 C   0  0  0  0  0  0  0  0  0  0  0  0
  140.1540   72.1550  221.2340 O   0  0  0  0  0  0  0  0  0  0  0  0
  140.1690   74.4980  221.5510 C   0  0  0  0  0  0  0  0  0  0  0  0
  141.2820   74.6480  220.7520 C   0  0  0  0  0  0  0  0  0  0  0  0
  141.8220   75.9130  220.6470 C   0  0  0  0  0  0  0  0  0  0  0  0
  141.3050   77.0140  221.2950 C   0  0  0  0  0  0  0  0  0  0  0  0
  141.8470   78.2790  221.1890 C   0  0  0  0  0  0  0  0  0  0  0  0
  141.2320   79.3020  221.8910 C   0  0  0  0  0  0  0  0  0  0  0  0
  141.7680   80.7020  221.8210 C   0  0  0  0  0  0  0  0  0  0  0  0
  141.8820   81.0710  220.4740 F   0  0  0  0  0  0  0  0  0  0  0  0
  140.8110   81.5440  222.3460 F   0  0  0  0  0  0  0  0  0  0  0  0
  142.9880   80.8190  222.4610 F   0  0  0  0  0  0  0  0  0  0  0  0
  140.1160   79.0980  222.6790 C   0  0  0  0  0  0  0  0  0  0  0  0
  139.5760   77.8320  222.7850 C   0  0  0  0  0  0  0  0  0  0  0  0
  140.1870   76.8100  222.0850 C   0  0  0  0  0  0  0  0  0  0  0  0
  139.6580   75.5770  222.1900 N   0  0  0  0  0  0  0  0  0  0  0  0
  140.2350   70.3180  225.9460 C   0  0  0  0  0  0  0  0  0  0  0  0
  139.7380   69.8350  227.1490 C   0  0  0  0  0  0  0  0  0  0  0  0
  139.9650   70.5630  228.3200 C   0  0  0  0  0  0  0  0  0  0  0  0
  140.6680   71.7480  228.3180 C   0  0  0  0  0  0  0  0  0  0  0  0
  141.1620   72.2290  227.1230 C   0  0  0  0  0  0  0  0  0  0  0  0
  140.9370   71.5090  225.9680 C   0  0  0  0  0  0  0  0  0  0  0  0
  138.8983   68.3631  226.0060 H   0  0  0  0  0  0  0  0  0  0  0  0
  138.0549   68.7735  224.4741 H   0  0  0  0  0  0  0  0  0  0  0  0
  139.3751   67.5553  224.4741 H   0  0  0  0  0  0  0  0  0  0  0  0
  140.9892   69.1804  224.3189 H   0  0  0  0  0  0  0  0  0  0  0  0
  140.1940   70.7090  222.8550 H   0  0  0  0  0  0  0  0  0  0  0  0
  137.6435   71.2626  221.6046 H   0  0  0  0  0  0  0  0  0  0  0  0
  136.6066   72.0603  222.9051 H   0  0  0  0  0  0  0  0  0  0  0  0
  137.8720   73.9770  222.7100 H   0  0  0  0  0  0  0  0  0  0  0  0
  141.7224   73.7925  220.2189 H   0  0  0  0  0  0  0  0  0  0  0  0
  142.7108   76.0500  220.0136 H   0  0  0  0  0  0  0  0  0  0  0  0
  142.7358   78.4678  220.5690 H   0  0  0  0  0  0  0  0  0  0  0  0
  139.6597   79.9404  223.2195 H   0  0  0  0  0  0  0  0  0  0  0  0
  138.6883   77.6433  223.4065 H   0  0  0  0  0  0  0  0  0  0  0  0
  139.1730   68.8917  227.1800 H   0  0  0  0  0  0  0  0  0  0  0  0
  139.5705   70.1784  229.2721 H   0  0  0  0  0  0  0  0  0  0  0  0
  140.8327   72.3016  229.2541 H   0  0  0  0  0  0  0  0  0  0  0  0
  141.7268   73.1724  227.0917 H   0  0  0  0  0  0  0  0  0  0  0  0
  141.3347   71.9007  225.0202 H   0  0  0  0  0  0  0  0  0  0  0  0
  1  2  1  0
  2  3  1  0
  3  4  1  0
  4  5  2  0
  4  6  1  0
  6  7  1  0
  7  8  1  0
  8  9  2  0
  8 10  1  0
 10 11  2  0
 11 12  1  0
 12 13  2  0
 13 14  1  0
 14 15  2  0
 15 16  1  0
 16 17  1  0
 16 18  1  0
 16 19  1  0
 15 20  1  0
 20 21  2  0
 21 22  1  0
 22 23  2  0
  2 24  1  0
 24 25  2  0
 25 26  1  0
 26 27  2  0
 27 28  1  0
 28 29  2  0
 23 10  1  0
 29 24  1  0
 22 13  1  0
  1 30  1  0
  1 31  1  0
  1 32  1  0
  2 33  1  6
  3 34  1  0
  6 35  1  0
  6 36  1  0
  7 37  1  0
 11 38  1  0
 12 39  1  0
 14 40  1  0
 20 41  1  0
 21 42  1  0
 25 43  1  0
 26 44  1  0
 27 45  1  0
 28 46  1  0
 29 47  1  0
M  END
>  <smiles>  (2) 
C[C@@H](NC(=O)CNC(=O)c1ccc2cc(C(F)(F)F)ccc2n1)c1ccccc1

>  <score_type>  (2) 
oracle

>  <origin>  (2) 
autodockgpu

>  <m_score__min__energy>  (2) 
-7.9900000000000002

>  <m_primary>  (2) 
energy

>  <rmsd>  (2) 
9.681762585330839

>  <m_score__min__rmsd>  (2) 
9.681762585330839

>  <meeko>  (2) 
{"free_energy": -7.92, "intermolecular_energy": -9.71, "internal_energy": -2.07, "cluster_size": 42, "cluster_id": 1, "rank_in_cluster": 21}

>  <energy>  (2) 
-7.97

>  <cluster_rmsd>  (2) 
0.7

>  <cluster>  (2) 
1

$$$$

     RDKit          3D

 47 49  0  0  0  0  0  0  0  0999 V2000
  143.1290   76.0260  217.9460 C   0  0  0  0  0  0  0  0  0  0  0  0
  143.1370   75.7120  219.4150 C   0  0  1  0  0  0  0  0  0  0  0  0
  141.7930   75.3580  219.8330 N   0  0  0  0  0  0  0  0  0  0  0  0
  141.0540   76.1540  220.7430 C   0  0  0  0  0  0  0  0  0  0  0  0
  141.5960   77.2130  221.1980 O   0  0  0  0  0  0  0  0  0  0  0  0
  139.6880   75.8520  221.2110 C   0  0  0  0  0  0  0  0  0  0  0  0
  139.5650   74.7300  222.0840 N   0  0  0  0  0  0  0  0  0  0  0  0
  139.8800   73.3920  221.6710 C   0  0  0  0  0  0  0  0  0  0  0  0
  140.2920   73.1250  220.5080 O   0  0  0  0  0  0  0  0  0  0  0  0
  139.7150   72.2890  222.6430 C   0  0  0  0  0  0  0  0  0  0  0  0
  138.8310   71.2670  222.3690 C   0  0  0  0  0  0  0  0  0  0  0  0
  138.7130   70.2620  223.3060 C   0  0  0  0  0  0  0  0  0  0  0  0
  139.4290   70.2360  224.4840 C   0  0  0  0  0  0  0  0  0  0  0  0
  139.3090   69.2290  225.4200 C   0  0  0  0  0  0  0  0  0  0  0  0
  140.0860   69.3200  226.5630 C   0  0  0  0  0  0  0  0  0  0  0  0
  140.0070   68.2600  227.6240 C   0  0  0  0  0  0  0  0  0  0  0  0
  141.3040   67.8160  227.9090 F   0  0  0  0  0  0  0  0  0  0  0  0
  139.5680   68.8600  228.7840 F   0  0  0  0  0  0  0  0  0  0  0  0
  139.2060   67.2030  227.2350 F   0  0  0  0  0  0  0  0  0  0  0  0
  140.9580   70.3660  226.7900 C   0  0  0  0  0  0  0  0  0  0  0  0
  141.0770   71.3730  225.8510 C   0  0  0  0  0  0  0  0  0  0  0  0
  140.3030   71.2840  224.7100 C   0  0  0  0  0  0  0  0  0  0  0  0
  140.4210   72.2670  223.7990 N   0  0  0  0  0  0  0  0  0  0  0  0
  144.1100   74.5970  219.6310 C   0  0  0  0  0  0  0  0  0  0  0  0
  144.3140   73.6140  218.6700 C   0  0  0  0  0  0  0  0  0  0  0  0
  145.2350   72.5950  218.9250 C   0  0  0  0  0  0  0  0  0  0  0  0
  145.9500   72.5340  220.1020 C   0  0  0  0  0  0  0  0  0  0  0  0
  145.7480   73.5100  221.0560 C   0  0  0  0  0  0  0  0  0  0  0  0
  144.8380   74.5150  220.8030 C   0  0  0  0  0  0  0  0  0  0  0  0
  143.1012   77.1165  217.8043 H   0  0  0  0  0  0  0  0  0  0  0  0
  144.0378   75.6186  217.4790 H   0  0  0  0  0  0  0  0  0  0  0  0
  142.2421   75.5729  217.4790 H   0  0  0  0  0  0  0  0  0  0  0  0
  143.4481   76.5768  220.0194 H   0  0  0  0  0  0  0  0  0  0  0  0
  141.3850   74.4920  219.4250 H   0  0  0  0  0  0  0  0  0  0  0  0
  139.3102   76.7372  221.7436 H   0  0  0  0  0  0  0  0  0  0  0  0
  139.1133   75.5936  220.3093 H   0  0  0  0  0  0  0  0  0  0  0  0
  139.2310   74.8300  223.0910 H   0  0  0  0  0  0  0  0  0  0  0  0
  138.2429   71.2538  221.4395 H   0  0  0  0  0  0  0  0  0  0  0  0
  138.0118   69.4391  223.1032 H   0  0  0  0  0  0  0  0  0  0  0  0
  138.6213   68.3848  225.2640 H   0  0  0  0  0  0  0  0  0  0  0  0
  141.5549   70.3977  227.7134 H   0  0  0  0  0  0  0  0  0  0  0  0
  141.7649   72.2171  226.0068 H   0  0  0  0  0  0  0  0  0  0  0  0
  143.7577   73.6380  217.7213 H   0  0  0  0  0  0  0  0  0  0  0  0
  145.3945   71.8176  218.1633 H   0  0  0  0  0  0  0  0  0  0  0  0
  146.6696   71.7208  220.2777 H   0  0  0  0  0  0  0  0  0  0  0  0
  146.3046   73.4869  222.0045 H   0  0  0  0  0  0  0  0  0  0  0  0
  144.6843   75.2880  221.5704 H   0  0  0  0  0  0  0  0  0  0  0  0
  1  2  1  0
  2  3  1  0
  3  4  1  0
  4  5  2  0
  4  6  1  0
  6  7  1  0
  7  8  1  0
  8  9  2  0
  8 10  1  0
 10 11  2  0
 11 12  1  0
 12 13  2  0
 13 14  1  0
 14 15  2  0
 15 16  1  0
 16 17  1  0
 16 18  1  0
 16 19  1  0
 15 20  1  0
 20 21  2  0
 21 22  1  0
 22 23  2  0
  2 24  1  0
 24 25  2  0
 25 26  1  0
 26 27  2  0
 27 28  1  0
 28 29  2  0
 23 10  1  0
 29 24  1  0
 22 13  1  0
  1 30  1  0
  1 31  1  0
  1 32  1  0
  2 33  1  1
  3 34  1  0
  6 35  1  0
  6 36  1  0
  7 37  1  0
 11 38  1  0
 12 39  1  0
 14 40  1  0
 20 41  1  0
 21 42  1  0
 25 43  1  0
 26 44  1  0
 27 45  1  0
 28 46  1  0
 29 47  1  0
M  END
>  <smiles>  (3) 
C[C@@H](NC(=O)CNC(=O)c1ccc2cc(C(F)(F)F)ccc2n1)c1ccccc1

>  <score_type>  (3) 
oracle

>  <origin>  (3) 
autodockgpu

>  <m_score__min__energy>  (3) 
-7.9900000000000002

>  <m_primary>  (3) 
energy

>  <rmsd>  (3) 
6.394070787628027

>  <m_score__min__rmsd>  (3) 
6.394070787628027

>  <meeko>  (3) 
{"free_energy": -7.44, "intermolecular_energy": -9.23, "internal_energy": -1.93, "cluster_size": 4, "cluster_id": 4, "rank_in_cluster": 3}

>  <energy>  (3) 
-7.97

>  <cluster_rmsd>  (3) 
0.67

>  <cluster>  (3) 
1

$$$$

     RDKit          3D

 47 49  0  0  0  0  0  0  0  0999 V2000
  138.1730   69.2690  224.9890 C   0  0  0  0  0  0  0  0  0  0  0  0
  139.5590   69.7600  224.6830 C   0  0  1  0  0  0  0  0  0  0  0  0
  139.5070   70.6390  223.5290 N   0  0  0  0  0  0  0  0  0  0  0  0
  139.1630   70.1680  222.2380 C   0  0  0  0  0  0  0  0  0  0  0  0
  138.8880   68.9310  222.0990 O   0  0  0  0  0  0  0  0  0  0  0  0
  139.0940   71.0040  221.0240 C   0  0  0  0  0  0  0  0  0  0  0  0
  138.8260   72.3890  221.2400 N   0  0  0  0  0  0  0  0  0  0  0  0
  139.7520   73.2600  221.9050 C   0  0  0  0  0  0  0  0  0  0  0  0
  140.8670   72.8560  222.3370 O   0  0  0  0  0  0  0  0  0  0  0  0
  139.3860   74.6810  222.0910 C   0  0  0  0  0  0  0  0  0  0  0  0
  138.0610   75.0580  222.0260 C   0  0  0  0  0  0  0  0  0  0  0  0
  137.7710   76.3940  222.2060 C   0  0  0  0  0  0  0  0  0  0  0  0
  138.7330   77.3530  222.4430 C   0  0  0  0  0  0  0  0  0  0  0  0
  138.4400   78.6890  222.6230 C   0  0  0  0  0  0  0  0  0  0  0  0
  139.4980   79.5520  222.8550 C   0  0  0  0  0  0  0  0  0  0  0  0
  139.2530   81.0200  223.0580 C   0  0  0  0  0  0  0  0  0  0  0  0
  140.4890   81.6790  223.0870 F   0  0  0  0  0  0  0  0  0  0  0  0
  138.6150   81.4990  221.9350 F   0  0  0  0  0  0  0  0  0  0  0  0
  138.5450   81.2660  224.2190 F   0  0  0  0  0  0  0  0  0  0  0  0
  140.8100   79.1250  222.9100 C   0  0  0  0  0  0  0  0  0  0  0  0
  141.1000   77.7860  222.7300 C   0  0  0  0  0  0  0  0  0  0  0  0
  140.0470   76.9230  222.4990 C   0  0  0  0  0  0  0  0  0  0  0  0
  140.3340   75.6210  222.3230 N   0  0  0  0  0  0  0  0  0  0  0  0
  140.0700   70.4560  225.9040 C   0  0  0  0  0  0  0  0  0  0  0  0
  139.7440   70.0170  227.1800 C   0  0  0  0  0  0  0  0  0  0  0  0
  140.2500   70.7060  228.2860 C   0  0  0  0  0  0  0  0  0  0  0  0
  141.0660   71.8090  228.1490 C   0  0  0  0  0  0  0  0  0  0  0  0
  141.3900   72.2440  226.8810 C   0  0  0  0  0  0  0  0  0  0  0  0
  140.8890   71.5640  225.7910 C   0  0  0  0  0  0  0  0  0  0  0  0
  138.0338   69.2197  226.0790 H   0  0  0  0  0  0  0  0  0  0  0  0
  137.4351   69.9604  224.5560 H   0  0  0  0  0  0  0  0  0  0  0  0
  138.0350   68.2673  224.5560 H   0  0  0  0  0  0  0  0  0  0  0  0
  140.2428   68.9353  224.4334 H   0  0  0  0  0  0  0  0  0  0  0  0
  139.7260   71.6430  223.6910 H   0  0  0  0  0  0  0  0  0  0  0  0
  140.0597   70.9239  220.5034 H   0  0  0  0  0  0  0  0  0  0  0  0
  138.2412   70.6207  220.4445 H   0  0  0  0  0  0  0  0  0  0  0  0
  137.9200   72.8470  220.9160 H   0  0  0  0  0  0  0  0  0  0  0  0
  137.2661   74.3213  221.8378 H   0  0  0  0  0  0  0  0  0  0  0  0
  136.7187   76.7108  222.1581 H   0  0  0  0  0  0  0  0  0  0  0  0
  137.4036   79.0555  222.5837 H   0  0  0  0  0  0  0  0  0  0  0  0
  141.6194   79.8463  223.0960 H   0  0  0  0  0  0  0  0  0  0  0  0
  142.1363   77.4193  222.7694 H   0  0  0  0  0  0  0  0  0  0  0  0
  139.0963   69.1388  227.3188 H   0  0  0  0  0  0  0  0  0  0  0  0
  139.9893   70.3577  229.2963 H   0  0  0  0  0  0  0  0  0  0  0  0
  141.4519   72.3330  229.0358 H   0  0  0  0  0  0  0  0  0  0  0  0
  142.0390   73.1211  226.7411 H   0  0  0  0  0  0  0  0  0  0  0  0
  141.1534   71.9199  224.7843 H   0  0  0  0  0  0  0  0  0  0  0  0
  1  2  1  0
  2  3  1  0
  3  4  1  0
  4  5  2  0
  4  6  1  0
  6  7  1  0
  7  8  1  0
  8  9  2  0
  8 10  1  0
 10 11  2  0
 11 12  1  0
 12 13  2  0
 13 14  1  0
 14 15  2  0
 15 16  1  0
 16 17  1  0
 16 18  1  0
 16 19  1  0
 15 20  1  0
 20 21  2  0
 21 22  1  0
 22 23  2  0
  2 24  1  0
 24 25  2  0
 25 26  1  0
 26 27  2  0
 27 28  1  0
 28 29  2  0
 23 10  1  0
 29 24  1  0
 22 13  1  0
  1 30  1  0
  1 31  1  0
  1 32  1  0
  2 33  1  6
  3 34  1  0
  6 35  1  0
  6 36  1  0
  7 37  1  0
 11 38  1  0
 12 39  1  0
 14 40  1  0
 20 41  1  0
 21 42  1  0
 25 43  1  0
 26 44  1  0
 27 45  1  0
 28 46  1  0
 29 47  1  0
M  END
>  <smiles>  (4) 
C[C@@H](NC(=O)CNC(=O)c1ccc2cc(C(F)(F)F)ccc2n1)c1ccccc1

>  <score_type>  (4) 
oracle

>  <origin>  (4) 
autodockgpu

>  <m_score__min__energy>  (4) 
-7.9900000000000002

>  <m_primary>  (4) 
energy

>  <rmsd>  (4) 
9.533816185496635

>  <m_score__min__rmsd>  (4) 
9.533816185496635

>  <meeko>  (4) 
{"free_energy": -7.49, "intermolecular_energy": -9.28, "internal_energy": -1.81, "cluster_size": 42, "cluster_id": 1, "rank_in_cluster": 40}

>  <energy>  (4) 
-7.95

>  <cluster_rmsd>  (4) 
0.66

>  <cluster>  (4) 
1

$$$$

     RDKit          3D

 47 49  0  0  0  0  0  0  0  0999 V2000
  143.0460   75.8310  217.7760 C   0  0  0  0  0  0  0  0  0  0  0  0
  143.0230   75.5910  219.2580 C   0  0  1  0  0  0  0  0  0  0  0  0
  141.6800   75.2080  219.6560 N   0  0  0  0  0  0  0  0  0  0  0  0
  140.9500   75.9280  220.6340 C   0  0  0  0  0  0  0  0  0  0  0  0
  141.4990   76.9450  221.1700 O   0  0  0  0  0  0  0  0  0  0  0  0
  139.5870   75.5920  221.0870 C   0  0  0  0  0  0  0  0  0  0  0  0
  139.4900   74.5140  222.0170 N   0  0  0  0  0  0  0  0  0  0  0  0
  140.0540   73.2200  221.7590 C   0  0  0  0  0  0  0  0  0  0  0  0
  140.6770   72.9550  220.6940 O   0  0  0  0  0  0  0  0  0  0  0  0
  139.8970   72.1580  222.7780 C   0  0  0  0  0  0  0  0  0  0  0  0
  139.0840   71.0770  222.5160 C   0  0  0  0  0  0  0  0  0  0  0  0
  138.9710   70.1150  223.4980 C   0  0  0  0  0  0  0  0  0  0  0  0
  139.6250   70.1880  224.7100 C   0  0  0  0  0  0  0  0  0  0  0  0
  139.5100   69.2240  225.6910 C   0  0  0  0  0  0  0  0  0  0  0  0
  140.2200   69.4150  226.8640 C   0  0  0  0  0  0  0  0  0  0  0  0
  140.1420   68.4070  227.9740 C   0  0  0  0  0  0  0  0  0  0  0  0
  139.5410   69.0120  229.0850 F   0  0  0  0  0  0  0  0  0  0  0  0
  139.2640   67.4190  227.5830 F   0  0  0  0  0  0  0  0  0  0  0  0
  141.3880   67.9110  228.3070 F   0  0  0  0  0  0  0  0  0  0  0  0
  141.0230   70.5190  227.0780 C   0  0  0  0  0  0  0  0  0  0  0  0
  141.1360   71.4820  226.0940 C   0  0  0  0  0  0  0  0  0  0  0  0
  140.4290   71.2930  224.9230 C   0  0  0  0  0  0  0  0  0  0  0  0
  140.5410   72.2340  223.9680 N   0  0  0  0  0  0  0  0  0  0  0  0
  144.0290   74.5260  219.5580 C   0  0  0  0  0  0  0  0  0  0  0  0
  144.0120   73.3040  218.8980 C   0  0  0  0  0  0  0  0  0  0  0  0
  144.9770   72.3450  219.2180 C   0  0  0  0  0  0  0  0  0  0  0  0
  145.9470   72.5740  220.1710 C   0  0  0  0  0  0  0  0  0  0  0  0
  145.9640   73.7870  220.8270 C   0  0  0  0  0  0  0  0  0  0  0  0
  145.0100   74.7330  220.5100 C   0  0  0  0  0  0  0  0  0  0  0  0
  143.1493   76.9086  217.5806 H   0  0  0  0  0  0  0  0  0  0  0  0
  143.8968   75.2944  217.3308 H   0  0  0  0  0  0  0  0  0  0  0  0
  142.1087   75.4658  217.3308 H   0  0  0  0  0  0  0  0  0  0  0  0
  143.2855   76.4957  219.8260 H   0  0  0  0  0  0  0  0  0  0  0  0
  141.2670   74.3790  219.1830 H   0  0  0  0  0  0  0  0  0  0  0  0
  139.1589   76.4871  221.5619 H   0  0  0  0  0  0  0  0  0  0  0  0
  139.0464   75.2608  220.1881 H   0  0  0  0  0  0  0  0  0  0  0  0
  138.9910   74.6170  222.9520 H   0  0  0  0  0  0  0  0  0  0  0  0
  138.5460   70.9847  221.5610 H   0  0  0  0  0  0  0  0  0  0  0  0
  138.3262   69.2450  223.3045 H   0  0  0  0  0  0  0  0  0  0  0  0
  138.8771   68.3361  225.5461 H   0  0  0  0  0  0  0  0  0  0  0  0
  141.5691   70.6304  228.0264 H   0  0  0  0  0  0  0  0  0  0  0  0
  141.7685   72.3703  226.2385 H   0  0  0  0  0  0  0  0  0  0  0  0
  143.2493   73.0938  218.1337 H   0  0  0  0  0  0  0  0  0  0  0  0
  144.9623   71.3781  218.6937 H   0  0  0  0  0  0  0  0  0  0  0  0
  146.6949   71.8018  220.4042 H   0  0  0  0  0  0  0  0  0  0  0  0
  146.7264   73.9975  221.5914 H   0  0  0  0  0  0  0  0  0  0  0  0
  145.0313   75.6968  221.0397 H   0  0  0  0  0  0  0  0  0  0  0  0
  1  2  1  0
  2  3  1  0
  3  4  1  0
  4  5  2  0
  4  6  1  0
  6  7  1  0
  7  8  1  0
  8  9  2  0
  8 10  1  0
 10 11  2  0
 11 12  1  0
 12 13  2  0
 13 14  1  0
 14 15  2  0
 15 16  1  0
 16 17  1  0
 16 18  1  0
 16 19  1  0
 15 20  1  0
 20 21  2  0
 21 22  1  0
 22 23  2  0
  2 24  1  0
 24 25  2  0
 25 26  1  0
 26 27  2  0
 27 28  1  0
 28 29  2  0
 23 10  1  0
 29 24  1  0
 22 13  1  0
  1 30  1  0
  1 31  1  0
  1 32  1  0
  2 33  1  1
  3 34  1  0
  6 35  1  0
  6 36  1  0
  7 37  1  0
 11 38  1  0
 12 39  1  0
 14 40  1  0
 20 41  1  0
 21 42  1  0
 25 43  1  0
 26 44  1  0
 27 45  1  0
 28 46  1  0
 29 47  1  0
M  END
>  <smiles>  (5) 
C[C@@H](NC(=O)CNC(=O)c1ccc2cc(C(F)(F)F)ccc2n1)c1ccccc1

>  <score_type>  (5) 
oracle

>  <origin>  (5) 
autodockgpu

>  <m_score__min__energy>  (5) 
-7.9900000000000002

>  <m_primary>  (5) 
energy

>  <rmsd>  (5) 
6.415316968177952

>  <m_score__min__rmsd>  (5) 
6.415316968177952

>  <meeko>  (5) 
{"free_energy": -7.42, "intermolecular_energy": -9.21, "internal_energy": -1.91, "cluster_size": 4, "cluster_id": 4, "rank_in_cluster": 4}

>  <energy>  (5) 
-7.95

>  <cluster_rmsd>  (5) 
0.66

>  <cluster>  (5) 
1

$$$$

     RDKit          3D

 47 49  0  0  0  0  0  0  0  0999 V2000
  139.0380   68.5920  224.9670 C   0  0  0  0  0  0  0  0  0  0  0  0
  140.0590   69.6530  224.6720 C   0  0  1  0  0  0  0  0  0  0  0  0
  139.5670   70.4980  223.5980 N   0  0  0  0  0  0  0  0  0  0  0  0
  138.2560   71.0350  223.6030 C   0  0  0  0  0  0  0  0  0  0  0  0
  137.4960   70.7640  224.5880 O   0  0  0  0  0  0  0  0  0  0  0  0
  137.6930   71.8960  222.5450 C   0  0  0  0  0  0  0  0  0  0  0  0
  138.3390   73.1540  222.3590 N   0  0  0  0  0  0  0  0  0  0  0  0
  139.6310   73.2750  221.7460 C   0  0  0  0  0  0  0  0  0  0  0  0
  140.2740   72.2740  221.3250 O   0  0  0  0  0  0  0  0  0  0  0  0
  140.2280   74.6210  221.6020 C   0  0  0  0  0  0  0  0  0  0  0  0
  141.3000   74.8040  220.7550 C   0  0  0  0  0  0  0  0  0  0  0  0
  141.8210   76.0770  220.6570 C   0  0  0  0  0  0  0  0  0  0  0  0
  141.3240   77.1560  221.3550 C   0  0  0  0  0  0  0  0  0  0  0  0
  141.8470   78.4290  221.2540 C   0  0  0  0  0  0  0  0  0  0  0  0
  141.2560   79.4280  222.0100 C   0  0  0  0  0  0  0  0  0  0  0  0
  141.7730   80.8360  221.9500 C   0  0  0  0  0  0  0  0  0  0  0  0
  140.9360   81.6520  222.7220 F   0  0  0  0  0  0  0  0  0  0  0  0
  142.9930   80.8620  222.5900 F   0  0  0  0  0  0  0  0  0  0  0  0
  141.8430   81.3030  220.6510 F   0  0  0  0  0  0  0  0  0  0  0  0
  140.1810   79.1930  222.8450 C   0  0  0  0  0  0  0  0  0  0  0  0
  139.6590   77.9170  222.9440 C   0  0  0  0  0  0  0  0  0  0  0  0
  140.2470   76.9200  222.1910 C   0  0  0  0  0  0  0  0  0  0  0  0
  139.7360   75.6790  222.2910 N   0  0  0  0  0  0  0  0  0  0  0  0
  140.2900   70.4200  225.9350 C   0  0  0  0  0  0  0  0  0  0  0  0
  141.0380   71.5900  225.9480 C   0  0  0  0  0  0  0  0  0  0  0  0
  141.2220   72.2650  227.1580 C   0  0  0  0  0  0  0  0  0  0  0  0
  140.6840   71.8050  228.3410 C   0  0  0  0  0  0  0  0  0  0  0  0
  139.9420   70.6430  228.3280 C   0  0  0  0  0  0  0  0  0  0  0  0
  139.7610   69.9770  227.1340 C   0  0  0  0  0  0  0  0  0  0  0  0
  138.9300   68.4797  226.0559 H   0  0  0  0  0  0  0  0  0  0  0  0
  138.0709   68.8823  224.5306 H   0  0  0  0  0  0  0  0  0  0  0  0
  139.3652   67.6368  224.5306 H   0  0  0  0  0  0  0  0  0  0  0  0
  141.0152   69.2236  224.3384 H   0  0  0  0  0  0  0  0  0  0  0  0
  140.2270   70.7030  222.8200 H   0  0  0  0  0  0  0  0  0  0  0  0
  137.7493   71.3440  221.5952 H   0  0  0  0  0  0  0  0  0  0  0  0
  136.6675   72.1314  222.8657 H   0  0  0  0  0  0  0  0  0  0  0  0
  137.8930   74.0710  222.6690 H   0  0  0  0  0  0  0  0  0  0  0  0
  141.7233   73.9674  220.1798 H   0  0  0  0  0  0  0  0  0  0  0  0
  142.6779   76.2395  219.9867 H   0  0  0  0  0  0  0  0  0  0  0  0
  142.7027   78.6428  220.5966 H   0  0  0  0  0  0  0  0  0  0  0  0
  139.7429   80.0166  223.4278 H   0  0  0  0  0  0  0  0  0  0  0  0
  138.8032   77.7028  223.6011 H   0  0  0  0  0  0  0  0  0  0  0  0
  141.4795   71.9800  225.0190 H   0  0  0  0  0  0  0  0  0  0  0  0
  141.8144   73.1918  227.1666 H   0  0  0  0  0  0  0  0  0  0  0  0
  140.8440   72.3558  229.2796 H   0  0  0  0  0  0  0  0  0  0  0  0
  139.5006   70.2527  229.2569 H   0  0  0  0  0  0  0  0  0  0  0  0
  139.1684   69.0503  227.1351 H   0  0  0  0  0  0  0  0  0  0  0  0
  1  2  1  0
  2  3  1  0
  3  4  1  0
  4  5  2  0
  4  6  1  0
  6  7  1  0
  7  8  1  0
  8  9  2  0
  8 10  1  0
 10 11  2  0
 11 12  1  0
 12 13  2  0
 13 14  1  0
 14 15  2  0
 15 16  1  0
 16 17  1  0
 16 18  1  0
 16 19  1  0
 15 20  1  0
 20 21  2  0
 21 22  1  0
 22 23  2  0
  2 24  1  0
 24 25  2  0
 25 26  1  0
 26 27  2  0
 27 28  1  0
 28 29  2  0
 23 10  1  0
 29 24  1  0
 22 13  1  0
  1 30  1  0
  1 31  1  0
  1 32  1  0
  2 33  1  6
  3 34  1  0
  6 35  1  0
  6 36  1  0
  7 37  1  0
 11 38  1  0
 12 39  1  0
 14 40  1  0
 20 41  1  0
 21 42  1  0
 25 43  1  0
 26 44  1  0
 27 45  1  0
 28 46  1  0
 29 47  1  0
M  END
>  <smiles>  (6) 
C[C@@H](NC(=O)CNC(=O)c1ccc2cc(C(F)(F)F)ccc2n1)c1ccccc1

>  <score_type>  (6) 
oracle

>  <origin>  (6) 
autodockgpu

>  <m_score__min__energy>  (6) 
-7.9900000000000002

>  <m_primary>  (6) 
energy

>  <rmsd>  (6) 
9.852962179150445

>  <m_score__min__rmsd>  (6) 
9.852962179150445

>  <meeko>  (6) 
{"free_energy": -7.97, "intermolecular_energy": -9.76, "internal_energy": -2.07, "cluster_size": 42, "cluster_id": 1, "rank_in_cluster": 3}

>  <energy>  (6) 
-7.95

>  <cluster_rmsd>  (6) 
0.73

>  <cluster>  (6) 
1

$$$$

     RDKit          3D

 47 49  0  0  0  0  0  0  0  0999 V2000
  139.1610   68.4000  225.1840 C   0  0  0  0  0  0  0  0  0  0  0  0
  139.7580   69.7280  224.8160 C   0  0  1  0  0  0  0  0  0  0  0  0
  138.7290   70.5640  224.2270 N   0  0  0  0  0  0  0  0  0  0  0  0
  138.8510   71.1010  222.9210 C   0  0  0  0  0  0  0  0  0  0  0  0
  139.9010   70.8290  222.2520 O   0  0  0  0  0  0  0  0  0  0  0  0
  137.8480   71.9590  222.2640 C   0  0  0  0  0  0  0  0  0  0  0  0
  136.9280   72.6170  223.1340 N   0  0  0  0  0  0  0  0  0  0  0  0
  135.9810   71.9010  223.9400 C   0  0  0  0  0  0  0  0  0  0  0  0
  135.9060   70.6420  223.9340 O   0  0  0  0  0  0  0  0  0  0  0  0
  135.0600   72.6680  224.8080 C   0  0  0  0  0  0  0  0  0  0  0  0
  134.1710   71.9970  225.6190 C   0  0  0  0  0  0  0  0  0  0  0  0
  133.3340   72.7560  226.4090 C   0  0  0  0  0  0  0  0  0  0  0  0
  133.3480   74.1350  226.4220 C   0  0  0  0  0  0  0  0  0  0  0  0
  132.5100   74.8930  227.2140 C   0  0  0  0  0  0  0  0  0  0  0  0
  132.6240   76.2710  227.1340 C   0  0  0  0  0  0  0  0  0  0  0  0
  131.7440   77.1570  227.9670 C   0  0  0  0  0  0  0  0  0  0  0  0
  130.5420   77.3670  227.2780 F   0  0  0  0  0  0  0  0  0  0  0  0
  131.3920   76.4560  229.1000 F   0  0  0  0  0  0  0  0  0  0  0  0
  132.3540   78.3630  228.2550 F   0  0  0  0  0  0  0  0  0  0  0  0
  133.5340   76.8960  226.3040 C   0  0  0  0  0  0  0  0  0  0  0  0
  134.3720   76.1350  225.5130 C   0  0  0  0  0  0  0  0  0  0  0  0
  134.2600   74.7610  225.5900 C   0  0  0  0  0  0  0  0  0  0  0  0
  135.0780   74.0230  224.8170 N   0  0  0  0  0  0  0  0  0  0  0  0
  140.3290   70.3250  226.0630 C   0  0  0  0  0  0  0  0  0  0  0  0
  140.5020   69.5710  227.2170 C   0  0  0  0  0  0  0  0  0  0  0  0
  141.0400   70.1810  228.3530 C   0  0  0  0  0  0  0  0  0  0  0  0
  141.4070   71.5100  228.3640 C   0  0  0  0  0  0  0  0  0  0  0  0
  141.2360   72.2590  227.2190 C   0  0  0  0  0  0  0  0  0  0  0  0
  140.7040   71.6550  226.0990 C   0  0  0  0  0  0  0  0  0  0  0  0
  139.1194   68.3076  226.2793 H   0  0  0  0  0  0  0  0  0  0  0  0
  138.1440   68.3281  224.7711 H   0  0  0  0  0  0  0  0  0  0  0  0
  139.7823   67.5916  224.7711 H   0  0  0  0  0  0  0  0  0  0  0  0
  140.5610   69.6271  224.0710 H   0  0  0  0  0  0  0  0  0  0  0  0
  137.8840   70.7490  224.8040 H   0  0  0  0  0  0  0  0  0  0  0  0
  138.3857   72.7316  221.6948 H   0  0  0  0  0  0  0  0  0  0  0  0
  137.2408   71.2856  221.6412 H   0  0  0  0  0  0  0  0  0  0  0  0
  136.8990   73.6780  223.2290 H   0  0  0  0  0  0  0  0  0  0  0  0
  134.1306   70.8979  225.6356 H   0  0  0  0  0  0  0  0  0  0  0  0
  132.6185   72.2351  227.0623 H   0  0  0  0  0  0  0  0  0  0  0  0
  131.7778   74.4198  227.8848 H   0  0  0  0  0  0  0  0  0  0  0  0
  133.5909   77.9941  226.2732 H   0  0  0  0  0  0  0  0  0  0  0  0
  135.1051   76.6082  224.8432 H   0  0  0  0  0  0  0  0  0  0  0  0
  140.2192   68.5081  227.2360 H   0  0  0  0  0  0  0  0  0  0  0  0
  141.1749   69.5829  229.2663 H   0  0  0  0  0  0  0  0  0  0  0  0
  141.8295   71.9655  229.2718 H   0  0  0  0  0  0  0  0  0  0  0  0
  141.5194   73.3217  227.1991 H   0  0  0  0  0  0  0  0  0  0  0  0
  140.5717   72.2609  225.1905 H   0  0  0  0  0  0  0  0  0  0  0  0
  1  2  1  0
  2  3  1  0
  3  4  1  0
  4  5  2  0
  4  6  1  0
  6  7  1  0
  7  8  1  0
  8  9  2  0
  8 10  1  0
 10 11  2  0
 11 12  1  0
 12 13  2  0
 13 14  1  0
 14 15  2  0
 15 16  1  0
 16 17  1  0
 16 18  1  0
 16 19  1  0
 15 20  1  0
 20 21  2  0
 21 22  1  0
 22 23  2  0
  2 24  1  0
 24 25  2  0
 25 26  1  0
 26 27  2  0
 27 28  1  0
 28 29  2  0
 23 10  1  0
 29 24  1  0
 22 13  1  0
  1 30  1  0
  1 31  1  0
  1 32  1  0
  2 33  1  6
  3 34  1  0
  6 35  1  0
  6 36  1  0
  7 37  1  0
 11 38  1  0
 12 39  1  0
 14 40  1  0
 20 41  1  0
 21 42  1  0
 25 43  1  0
 26 44  1  0
 27 45  1  0
 28 46  1  0
 29 47  1  0
M  END
>  <smiles>  (7) 
C[C@@H](NC(=O)CNC(=O)c1ccc2cc(C(F)(F)F)ccc2n1)c1ccccc1

>  <score_type>  (7) 
oracle

>  <origin>  (7) 
autodockgpu

>  <m_score__min__energy>  (7) 
-7.9900000000000002

>  <m_primary>  (7) 
energy

>  <rmsd>  (7) 
9.81053859216291

>  <m_score__min__rmsd>  (7) 
9.81053859216291

>  <meeko>  (7) 
{"free_energy": -7.21, "intermolecular_energy": -9.0, "internal_energy": -2.17, "cluster_size": 2, "cluster_id": 3, "rank_in_cluster": 2}

>  <energy>  (7) 
-7.95

>  <cluster_rmsd>  (7) 
0.95

>  <cluster>  (7) 
1

$$$$

     RDKit          3D

 47 49  0  0  0  0  0  0  0  0999 V2000
  138.9930   68.5720  224.9750 C   0  0  0  0  0  0  0  0  0  0  0  0
  140.0200   69.6260  224.6770 C   0  0  1  0  0  0  0  0  0  0  0  0
  139.5350   70.4700  223.5990 N   0  0  0  0  0  0  0  0  0  0  0  0
  138.2280   71.0150  223.6010 C   0  0  0  0  0  0  0  0  0  0  0  0
  137.4650   70.7520  224.5870 O   0  0  0  0  0  0  0  0  0  0  0  0
  137.6700   71.8750  222.5400 C   0  0  0  0  0  0  0  0  0  0  0  0
  138.3130   73.1370  222.3630 N   0  0  0  0  0  0  0  0  0  0  0  0
  139.6120   73.2650  221.7670 C   0  0  0  0  0  0  0  0  0  0  0  0
  140.2660   72.2680  221.3560 O   0  0  0  0  0  0  0  0  0  0  0  0
  140.2040   74.6150  221.6320 C   0  0  0  0  0  0  0  0  0  0  0  0
  141.3040   74.7980  220.8230 C   0  0  0  0  0  0  0  0  0  0  0  0
  141.8190   76.0740  220.7300 C   0  0  0  0  0  0  0  0  0  0  0  0
  141.2890   77.1560  221.4010 C   0  0  0  0  0  0  0  0  0  0  0  0
  141.8060   78.4320  221.3060 C   0  0  0  0  0  0  0  0  0  0  0  0
  141.1800   79.4320  222.0310 C   0  0  0  0  0  0  0  0  0  0  0  0
  141.6890   80.8440  221.9760 C   0  0  0  0  0  0  0  0  0  0  0  0
  142.9650   80.8820  222.5530 F   0  0  0  0  0  0  0  0  0  0  0  0
  141.8830   81.1690  220.6500 F   0  0  0  0  0  0  0  0  0  0  0  0
  140.8380   81.7220  222.6200 F   0  0  0  0  0  0  0  0  0  0  0  0
  140.0780   79.1970  222.8290 C   0  0  0  0  0  0  0  0  0  0  0  0
  139.5620   77.9180  222.9210 C   0  0  0  0  0  0  0  0  0  0  0  0
  140.1840   76.9190  222.2000 C   0  0  0  0  0  0  0  0  0  0  0  0
  139.6800   75.6750  222.2930 N   0  0  0  0  0  0  0  0  0  0  0  0
  140.2560   70.3950  225.9380 C   0  0  0  0  0  0  0  0  0  0  0  0
  140.9790   71.5810  225.9410 C   0  0  0  0  0  0  0  0  0  0  0  0
  141.1680   72.2580  227.1490 C   0  0  0  0  0  0  0  0  0  0  0  0
  140.6580   71.7850  228.3390 C   0  0  0  0  0  0  0  0  0  0  0  0
  139.9400   70.6080  228.3360 C   0  0  0  0  0  0  0  0  0  0  0  0
  139.7550   69.9400  227.1430 C   0  0  0  0  0  0  0  0  0  0  0  0
  138.8858   68.4620  226.0642 H   0  0  0  0  0  0  0  0  0  0  0  0
  138.0271   68.8677  224.5395 H   0  0  0  0  0  0  0  0  0  0  0  0
  139.3136   67.6141  224.5395 H   0  0  0  0  0  0  0  0  0  0  0  0
  140.9738   69.1899  224.3451 H   0  0  0  0  0  0  0  0  0  0  0  0
  140.1970   70.6680  222.8220 H   0  0  0  0  0  0  0  0  0  0  0  0
  137.7371   71.3254  221.5895 H   0  0  0  0  0  0  0  0  0  0  0  0
  136.6402   72.1046  222.8513 H   0  0  0  0  0  0  0  0  0  0  0  0
  137.8570   74.0510  222.6670 H   0  0  0  0  0  0  0  0  0  0  0  0
  141.7542   73.9588  220.2725 H   0  0  0  0  0  0  0  0  0  0  0  0
  142.6972   76.2370  220.0879 H   0  0  0  0  0  0  0  0  0  0  0  0
  142.6829   78.6468  220.6776 H   0  0  0  0  0  0  0  0  0  0  0  0
  139.6135   80.0226  223.3881 H   0  0  0  0  0  0  0  0  0  0  0  0
  138.6843   77.7034  223.5484 H   0  0  0  0  0  0  0  0  0  0  0  0
  141.3970   71.9818  225.0057 H   0  0  0  0  0  0  0  0  0  0  0  0
  141.7412   73.1969  227.1501 H   0  0  0  0  0  0  0  0  0  0  0  0
  140.8212   72.3377  229.2760 H   0  0  0  0  0  0  0  0  0  0  0  0
  139.5209   70.2075  229.2708 H   0  0  0  0  0  0  0  0  0  0  0  0
  139.1818   69.0012  227.1514 H   0  0  0  0  0  0  0  0  0  0  0  0
  1  2  1  0
  2  3  1  0
  3  4  1  0
  4  5  2  0
  4  6  1  0
  6  7  1  0
  7  8  1  0
  8  9  2  0
  8 10  1  0
 10 11  2  0
 11 12  1  0
 12 13  2  0
 13 14  1  0
 14 15  2  0
 15 16  1  0
 16 17  1  0
 16 18  1  0
 16 19  1  0
 15 20  1  0
 20 21  2  0
 21 22  1  0
 22 23  2  0
  2 24  1  0
 24 25  2  0
 25 26  1  0
 26 27  2  0
 27 28  1  0
 28 29  2  0
 23 10  1  0
 29 24  1  0
 22 13  1  0
  1 30  1  0
  1 31  1  0
  1 32  1  0
  2 33  1  6
  3 34  1  0
  6 35  1  0
  6 36  1  0
  7 37  1  0
 11 38  1  0
 12 39  1  0
 14 40  1  0
 20 41  1  0
 21 42  1  0
 25 43  1  0
 26 44  1  0
 27 45  1  0
 28 46  1  0
 29 47  1  0
M  END
>  <smiles>  (8) 
C[C@@H](NC(=O)CNC(=O)c1ccc2cc(C(F)(F)F)ccc2n1)c1ccccc1

>  <score_type>  (8) 
oracle

>  <origin>  (8) 
autodockgpu

>  <m_score__min__energy>  (8) 
-7.9900000000000002

>  <m_primary>  (8) 
energy

>  <rmsd>  (8) 
9.85934188288455

>  <m_score__min__rmsd>  (8) 
9.85934188288455

>  <meeko>  (8) 
{"free_energy": -7.92, "intermolecular_energy": -9.71, "internal_energy": -2.09, "cluster_size": 42, "cluster_id": 1, "rank_in_cluster": 20}

>  <energy>  (8) 
-7.94

>  <cluster_rmsd>  (8) 
0.73

>  <cluster>  (8) 
1

$$$$

     RDKit          3D

 47 49  0  0  0  0  0  0  0  0999 V2000
  139.7310   67.7600  225.7660 C   0  0  0  0  0  0  0  0  0  0  0  0
  139.8270   69.1010  225.0960 C   0  0  1  0  0  0  0  0  0  0  0  0
  138.5340   69.4430  224.5310 N   0  0  0  0  0  0  0  0  0  0  0  0
  138.3060   70.6700  223.8600 C   0  0  0  0  0  0  0  0  0  0  0  0
  139.2760   71.4890  223.7530 O   0  0  0  0  0  0  0  0  0  0  0  0
  137.0200   71.0820  223.2660 C   0  0  0  0  0  0  0  0  0  0  0  0
  136.2260   71.9660  224.0570 N   0  0  0  0  0  0  0  0  0  0  0  0
  134.9410   71.5950  224.5740 C   0  0  0  0  0  0  0  0  0  0  0  0
  134.4320   70.4580  224.3670 O   0  0  0  0  0  0  0  0  0  0  0  0
  134.1840   72.5810  225.3780 C   0  0  0  0  0  0  0  0  0  0  0  0
  133.1600   72.1520  226.1950 C   0  0  0  0  0  0  0  0  0  0  0  0
  132.4860   73.1090  226.9230 C   0  0  0  0  0  0  0  0  0  0  0  0
  132.7870   74.4530  226.8710 C   0  0  0  0  0  0  0  0  0  0  0  0
  132.1110   75.4090  227.6010 C   0  0  0  0  0  0  0  0  0  0  0  0
  132.5110   76.7270  227.4590 C   0  0  0  0  0  0  0  0  0  0  0  0
  131.8200   77.8200  228.2220 C   0  0  0  0  0  0  0  0  0  0  0  0
  132.7930   78.6250  228.8280 F   0  0  0  0  0  0  0  0  0  0  0  0
  131.1920   78.6380  227.3080 F   0  0  0  0  0  0  0  0  0  0  0  0
  130.9510   77.3140  229.1700 F   0  0  0  0  0  0  0  0  0  0  0  0
  133.5460   77.1060  226.6260 C   0  0  0  0  0  0  0  0  0  0  0  0
  134.2220   76.1470  225.8960 C   0  0  0  0  0  0  0  0  0  0  0  0
  133.8240   74.8320  226.0360 C   0  0  0  0  0  0  0  0  0  0  0  0
  134.4840   73.9010  225.3230 N   0  0  0  0  0  0  0  0  0  0  0  0
  140.2730   70.0880  226.1280 C   0  0  0  0  0  0  0  0  0  0  0  0
  139.7920   70.0450  227.4300 C   0  0  0  0  0  0  0  0  0  0  0  0
  140.2430   70.9930  228.3530 C   0  0  0  0  0  0  0  0  0  0  0  0
  141.1530   71.9700  228.0110 C   0  0  0  0  0  0  0  0  0  0  0  0
  141.6300   72.0130  226.7180 C   0  0  0  0  0  0  0  0  0  0  0  0
  141.1830   71.0780  225.8080 C   0  0  0  0  0  0  0  0  0  0  0  0
  139.7406   67.8941  226.8578 H   0  0  0  0  0  0  0  0  0  0  0  0
  138.7952   67.2661  225.4655 H   0  0  0  0  0  0  0  0  0  0  0  0
  140.5869   67.1378  225.4655 H   0  0  0  0  0  0  0  0  0  0  0  0
  140.5532   69.0982  224.2698 H   0  0  0  0  0  0  0  0  0  0  0  0
  137.7750   68.7390  224.6300 H   0  0  0  0  0  0  0  0  0  0  0  0
  137.2346   71.5840  222.3111 H   0  0  0  0  0  0  0  0  0  0  0  0
  136.4289   70.1600  223.1634 H   0  0  0  0  0  0  0  0  0  0  0  0
  136.5510   72.9510  224.3020 H   0  0  0  0  0  0  0  0  0  0  0  0
  132.8912   71.0875  226.2634 H   0  0  0  0  0  0  0  0  0  0  0  0
  131.6656   72.7832  227.5793 H   0  0  0  0  0  0  0  0  0  0  0  0
  131.2838   75.1339  228.2719 H   0  0  0  0  0  0  0  0  0  0  0  0
  133.8304   78.1655  226.5443 H   0  0  0  0  0  0  0  0  0  0  0  0
  135.0497   76.4219  225.2256 H   0  0  0  0  0  0  0  0  0  0  0  0
  139.0660   69.2754  227.7309 H   0  0  0  0  0  0  0  0  0  0  0  0
  139.8600   70.9582  229.3836 H   0  0  0  0  0  0  0  0  0  0  0  0
  141.4931   72.7032  228.7571 H   0  0  0  0  0  0  0  0  0  0  0  0
  142.3566   72.7819  226.4166 H   0  0  0  0  0  0  0  0  0  0  0  0
  141.5689   71.1222  224.7789 H   0  0  0  0  0  0  0  0  0  0  0  0
  1  2  1  0
  2  3  1  0
  3  4  1  0
  4  5  2  0
  4  6  1  0
  6  7  1  0
  7  8  1  0
  8  9  2  0
  8 10  1  0
 10 11  2  0
 11 12  1  0
 12 13  2  0
 13 14  1  0
 14 15  2  0
 15 16  1  0
 16 17  1  0
 16 18  1  0
 16 19  1  0
 15 20  1  0
 20 21  2  0
 21 22  1  0
 22 23  2  0
  2 24  1  0
 24 25  2  0
 25 26  1  0
 26 27  2  0
 27 28  1  0
 28 29  2  0
 23 10  1  0
 29 24  1  0
 22 13  1  0
  1 30  1  0
  1 31  1  0
  1 32  1  0
  2 33  1  6
  3 34  1  0
  6 35  1  0
  6 36  1  0
  7 37  1  0
 11 38  1  0
 12 39  1  0
 14 40  1  0
 20 41  1  0
 21 42  1  0
 25 43  1  0
 26 44  1  0
 27 45  1  0
 28 46  1  0
 29 47  1  0
M  END
>  <smiles>  (9) 
C[C@@H](NC(=O)CNC(=O)c1ccc2cc(C(F)(F)F)ccc2n1)c1ccccc1

>  <score_type>  (9) 
oracle

>  <origin>  (9) 
autodockgpu

>  <m_score__min__energy>  (9) 
-7.9900000000000002

>  <m_primary>  (9) 
energy

>  <rmsd>  (9) 
10.228581584664727

>  <m_score__min__rmsd>  (9) 
10.228581584664727

>  <meeko>  (9) 
{"free_energy": -7.82, "intermolecular_energy": -9.61, "internal_energy": -1.36, "cluster_size": 2, "cluster_id": 3, "rank_in_cluster": 1}

>  <energy>  (9) 
-7.94

>  <cluster_rmsd>  (9) 
0.74

>  <cluster>  (9) 
1

$$$$

     RDKit          3D

 47 49  0  0  0  0  0  0  0  0999 V2000
  143.1850   75.8230  218.2580 C   0  0  0  0  0  0  0  0  0  0  0  0
  143.3290   75.5220  219.7230 C   0  0  1  0  0  0  0  0  0  0  0  0
  142.0330   75.1510  220.2610 N   0  0  0  0  0  0  0  0  0  0  0  0
  141.1260   76.1140  220.7680 C   0  0  0  0  0  0  0  0  0  0  0  0
  141.4680   77.3410  220.7390 O   0  0  0  0  0  0  0  0  0  0  0  0
  139.7970   75.8070  221.3310 C   0  0  0  0  0  0  0  0  0  0  0  0
  139.7300   74.6520  222.1670 N   0  0  0  0  0  0  0  0  0  0  0  0
  139.9830   73.3280  221.6750 C   0  0  0  0  0  0  0  0  0  0  0  0
  140.2890   73.1020  220.4720 O   0  0  0  0  0  0  0  0  0  0  0  0
  139.8820   72.1880  222.6130 C   0  0  0  0  0  0  0  0  0  0  0  0
  139.2270   71.0400  222.2230 C   0  0  0  0  0  0  0  0  0  0  0  0
  139.1590   70.0060  223.1330 C   0  0  0  0  0  0  0  0  0  0  0  0
  139.7110   70.0700  224.3950 C   0  0  0  0  0  0  0  0  0  0  0  0
  139.6420   69.0340  225.3040 C   0  0  0  0  0  0  0  0  0  0  0  0
  140.2360   69.2250  226.5400 C   0  0  0  0  0  0  0  0  0  0  0  0
  140.2000   68.1400  227.5780 C   0  0  0  0  0  0  0  0  0  0  0  0
  139.2180   67.2090  227.2160 F   0  0  0  0  0  0  0  0  0  0  0  0
  141.3930   67.4530  227.5080 F   0  0  0  0  0  0  0  0  0  0  0  0
  139.9490   68.6450  228.8400 F   0  0  0  0  0  0  0  0  0  0  0  0
  140.8820   70.3960  226.8830 C   0  0  0  0  0  0  0  0  0  0  0  0
  140.9500   71.4320  225.9720 C   0  0  0  0  0  0  0  0  0  0  0  0
  140.3580   71.2440  224.7380 C   0  0  0  0  0  0  0  0  0  0  0  0
  140.4250   72.2560  223.8530 N   0  0  0  0  0  0  0  0  0  0  0  0
  144.3360   74.4230  219.8590 C   0  0  0  0  0  0  0  0  0  0  0  0
  144.3270   73.3220  219.0140 C   0  0  0  0  0  0  0  0  0  0  0  0
  145.2910   72.3250  219.1870 C   0  0  0  0  0  0  0  0  0  0  0  0
  146.2520   72.4010  220.1720 C   0  0  0  0  0  0  0  0  0  0  0  0
  146.2610   73.4950  221.0120 C   0  0  0  0  0  0  0  0  0  0  0  0
  145.3080   74.4780  220.8400 C   0  0  0  0  0  0  0  0  0  0  0  0
  142.7135   76.8086  218.1308 H   0  0  0  0  0  0  0  0  0  0  0  0
  144.1783   75.8280  217.7853 H   0  0  0  0  0  0  0  0  0  0  0  0
  142.5579   75.0528  217.7853 H   0  0  0  0  0  0  0  0  0  0  0  0
  143.6789   76.3962  220.2916 H   0  0  0  0  0  0  0  0  0  0  0  0
  141.7910   74.1390  220.2520 H   0  0  0  0  0  0  0  0  0  0  0  0
  139.4737   76.6739  221.9259 H   0  0  0  0  0  0  0  0  0  0  0  0
  139.1492   75.5906  220.4687 H   0  0  0  0  0  0  0  0  0  0  0  0
  139.4860   74.7160  223.2020 H   0  0  0  0  0  0  0  0  0  0  0  0
  138.7756   70.9517  221.2238 H   0  0  0  0  0  0  0  0  0  0  0  0
  138.6380   69.0835  222.8371 H   0  0  0  0  0  0  0  0  0  0  0  0
  139.1336   68.0907  225.0556 H   0  0  0  0  0  0  0  0  0  0  0  0
  141.3404   70.5034  227.8771 H   0  0  0  0  0  0  0  0  0  0  0  0
  141.4585   72.3752  226.2207 H   0  0  0  0  0  0  0  0  0  0  0  0
  143.5716   73.2353  218.2191 H   0  0  0  0  0  0  0  0  0  0  0  0
  145.2825   71.4530  218.5165 H   0  0  0  0  0  0  0  0  0  0  0  0
  146.9996   71.6022  220.2864 H   0  0  0  0  0  0  0  0  0  0  0  0
  147.0163   73.5825  221.8069 H   0  0  0  0  0  0  0  0  0  0  0  0
  145.3226   75.3461  221.5154 H   0  0  0  0  0  0  0  0  0  0  0  0
  1  2  1  0
  2  3  1  0
  3  4  1  0
  4  5  2  0
  4  6  1  0
  6  7  1  0
  7  8  1  0
  8  9  2  0
  8 10  1  0
 10 11  2  0
 11 12  1  0
 12 13  2  0
 13 14  1  0
 14 15  2  0
 15 16  1  0
 16 17  1  0
 16 18  1  0
 16 19  1  0
 15 20  1  0
 20 21  2  0
 21 22  1  0
 22 23  2  0
  2 24  1  0
 24 25  2  0
 25 26  1  0
 26 27  2  0
 27 28  1  0
 28 29  2  0
 23 10  1  0
 29 24  1  0
 22 13  1  0
  1 30  1  0
  1 31  1  0
  1 32  1  0
  2 33  1  1
  3 34  1  0
  6 35  1  0
  6 36  1  0
  7 37  1  0
 11 38  1  0
 12 39  1  0
 14 40  1  0
 20 41  1  0
 21 42  1  0
 25 43  1  0
 26 44  1  0
 27 45  1  0
 28 46  1  0
 29 47  1  0
M  END
>  <smiles>  (10) 
C[C@@H](NC(=O)CNC(=O)c1ccc2cc(C(F)(F)F)ccc2n1)c1ccccc1

>  <score_type>  (10) 
oracle

>  <origin>  (10) 
autodockgpu

>  <m_score__min__energy>  (10) 
-7.9900000000000002

>  <m_primary>  (10) 
energy

>  <rmsd>  (10) 
6.477705880009328

>  <m_score__min__rmsd>  (10) 
6.477705880009328

>  <meeko>  (10) 
{"free_energy": -7.51, "intermolecular_energy": -9.3, "internal_energy": -1.98, "cluster_size": 4, "cluster_id": 4, "rank_in_cluster": 2}

>  <energy>  (10) 
-7.94

>  <cluster_rmsd>  (10) 
0.68

>  <cluster>  (10) 
1

$$$$

     RDKit          3D

 47 49  0  0  0  0  0  0  0  0999 V2000
  138.9220   68.5680  224.9330 C   0  0  0  0  0  0  0  0  0  0  0  0
  139.9700   69.6000  224.6270 C   0  0  1  0  0  0  0  0  0  0  0  0
  139.4930   70.4570  223.5560 N   0  0  0  0  0  0  0  0  0  0  0  0
  138.1920   71.0180  223.5630 C   0  0  0  0  0  0  0  0  0  0  0  0
  137.4280   70.7580  224.5490 O   0  0  0  0  0  0  0  0  0  0  0  0
  137.6450   71.8920  222.5090 C   0  0  0  0  0  0  0  0  0  0  0  0
  138.2930   73.1540  222.3500 N   0  0  0  0  0  0  0  0  0  0  0  0
  139.6000   73.2820  221.7730 C   0  0  0  0  0  0  0  0  0  0  0  0
  140.2570   72.2860  221.3620 O   0  0  0  0  0  0  0  0  0  0  0  0
  140.1970   74.6310  221.6550 C   0  0  0  0  0  0  0  0  0  0  0  0
  141.3070   74.8170  220.8590 C   0  0  0  0  0  0  0  0  0  0  0  0
  141.8270   76.0920  220.7820 C   0  0  0  0  0  0  0  0  0  0  0  0
  141.2920   77.1700  221.4560 C   0  0  0  0  0  0  0  0  0  0  0  0
  141.8140   78.4450  221.3770 C   0  0  0  0  0  0  0  0  0  0  0  0
  141.1840   79.4420  222.1030 C   0  0  0  0  0  0  0  0  0  0  0  0
  141.6980   80.8520  222.0650 C   0  0  0  0  0  0  0  0  0  0  0  0
  143.0040   80.8660  222.5710 F   0  0  0  0  0  0  0  0  0  0  0  0
  141.8190   81.2190  220.7420 F   0  0  0  0  0  0  0  0  0  0  0  0
  140.8900   81.7130  222.7840 F   0  0  0  0  0  0  0  0  0  0  0  0
  140.0720   79.2030  222.8870 C   0  0  0  0  0  0  0  0  0  0  0  0
  139.5520   77.9260  222.9640 C   0  0  0  0  0  0  0  0  0  0  0  0
  140.1790   76.9300  222.2410 C   0  0  0  0  0  0  0  0  0  0  0  0
  139.6690   75.6870  222.3190 N   0  0  0  0  0  0  0  0  0  0  0  0
  140.2330   70.3610  225.8880 C   0  0  0  0  0  0  0  0  0  0  0  0
  140.8650   71.5970  225.8710 C   0  0  0  0  0  0  0  0  0  0  0  0
  141.0860   72.2640  227.0800 C   0  0  0  0  0  0  0  0  0  0  0  0
  140.6960   71.7320  228.2900 C   0  0  0  0  0  0  0  0  0  0  0  0
  140.0680   70.5040  228.3060 C   0  0  0  0  0  0  0  0  0  0  0  0
  139.8510   69.8470  227.1130 C   0  0  0  0  0  0  0  0  0  0  0  0
  138.8167   68.4643  226.0230 H   0  0  0  0  0  0  0  0  0  0  0  0
  137.9608   68.8820  224.5000 H   0  0  0  0  0  0  0  0  0  0  0  0
  139.2211   67.6021  224.5000 H   0  0  0  0  0  0  0  0  0  0  0  0
  140.9109   69.1443  224.2850 H   0  0  0  0  0  0  0  0  0  0  0  0
  140.1570   70.6530  222.7790 H   0  0  0  0  0  0  0  0  0  0  0  0
  137.7166   71.3530  221.5528 H   0  0  0  0  0  0  0  0  0  0  0  0
  136.6143   72.1221  222.8168 H   0  0  0  0  0  0  0  0  0  0  0  0
  137.8360   74.0670  222.6540 H   0  0  0  0  0  0  0  0  0  0  0  0
  141.7605   73.9808  220.3066 H   0  0  0  0  0  0  0  0  0  0  0  0
  142.7129   76.2576  220.1514 H   0  0  0  0  0  0  0  0  0  0  0  0
  142.6984   78.6616  220.7598 H   0  0  0  0  0  0  0  0  0  0  0  0
  139.6032   80.0256  223.4470 H   0  0  0  0  0  0  0  0  0  0  0  0
  138.6675   77.7091  223.5809 H   0  0  0  0  0  0  0  0  0  0  0  0
  141.1874   72.0454  224.9197 H   0  0  0  0  0  0  0  0  0  0  0  0
  141.5865   73.2434  227.0648 H   0  0  0  0  0  0  0  0  0  0  0  0
  140.8823   72.2773  229.2270 H   0  0  0  0  0  0  0  0  0  0  0  0
  139.7448   70.0551  229.2568 H   0  0  0  0  0  0  0  0  0  0  0  0
  139.3504   68.8678  227.1374 H   0  0  0  0  0  0  0  0  0  0  0  0
  1  2  1  0
  2  3  1  0
  3  4  1  0
  4  5  2  0
  4  6  1  0
  6  7  1  0
  7  8  1  0
  8  9  2  0
  8 10  1  0
 10 11  2  0
 11 12  1  0
 12 13  2  0
 13 14  1  0
 14 15  2  0
 15 16  1  0
 16 17  1  0
 16 18  1  0
 16 19  1  0
 15 20  1  0
 20 21  2  0
 21 22  1  0
 22 23  2  0
  2 24  1  0
 24 25  2  0
 25 26  1  0
 26 27  2  0
 27 28  1  0
 28 29  2  0
 23 10  1  0
 29 24  1  0
 22 13  1  0
  1 30  1  0
  1 31  1  0
  1 32  1  0
  2 33  1  6
  3 34  1  0
  6 35  1  0
  6 36  1  0
  7 37  1  0
 11 38  1  0
 12 39  1  0
 14 40  1  0
 20 41  1  0
 21 42  1  0
 25 43  1  0
 26 44  1  0
 27 45  1  0
 28 46  1  0
 29 47  1  0
M  END
>  <smiles>  (11) 
C[C@@H](NC(=O)CNC(=O)c1ccc2cc(C(F)(F)F)ccc2n1)c1ccccc1

>  <score_type>  (11) 
oracle

>  <origin>  (11) 
autodockgpu

>  <m_score__min__energy>  (11) 
-7.9900000000000002

>  <m_primary>  (11) 
energy

>  <rmsd>  (11) 
9.8656009049003

>  <m_score__min__rmsd>  (11) 
9.8656009049003

>  <meeko>  (11) 
{"free_energy": -7.89, "intermolecular_energy": -9.68, "internal_energy": -2.09, "cluster_size": 42, "cluster_id": 1, "rank_in_cluster": 30}

>  <energy>  (11) 
-7.93

>  <cluster_rmsd>  (11) 
0.67

>  <cluster>  (11) 
1

$$$$

     RDKit          3D

 47 49  0  0  0  0  0  0  0  0999 V2000
  138.9970   68.5770  224.9650 C   0  0  0  0  0  0  0  0  0  0  0  0
  140.0160   69.6400  224.6710 C   0  0  1  0  0  0  0  0  0  0  0  0
  139.5220   70.4890  223.6020 N   0  0  0  0  0  0  0  0  0  0  0  0
  138.2080   71.0190  223.6070 C   0  0  0  0  0  0  0  0  0  0  0  0
  137.4480   70.7380  224.5900 O   0  0  0  0  0  0  0  0  0  0  0  0
  137.6420   71.8830  222.5540 C   0  0  0  0  0  0  0  0  0  0  0  0
  138.2940   73.1380  222.3650 N   0  0  0  0  0  0  0  0  0  0  0  0
  139.5780   73.2550  221.7360 C   0  0  0  0  0  0  0  0  0  0  0  0
  140.2110   72.2520  221.3040 O   0  0  0  0  0  0  0  0  0  0  0  0
  140.1810   74.5980  221.5900 C   0  0  0  0  0  0  0  0  0  0  0  0
  141.2630   74.7720  220.7550 C   0  0  0  0  0  0  0  0  0  0  0  0
  141.7890   76.0420  220.6530 C   0  0  0  0  0  0  0  0  0  0  0  0
  141.2870   77.1280  221.3390 C   0  0  0  0  0  0  0  0  0  0  0  0
  141.8150   78.3990  221.2360 C   0  0  0  0  0  0  0  0  0  0  0  0
  141.2180   79.4040  221.9780 C   0  0  0  0  0  0  0  0  0  0  0  0
  141.7400   80.8100  221.9140 C   0  0  0  0  0  0  0  0  0  0  0  0
  141.8280   81.1930  220.5700 F   0  0  0  0  0  0  0  0  0  0  0  0
  140.7850   81.6380  222.4640 F   0  0  0  0  0  0  0  0  0  0  0  0
  142.9700   80.9310  222.5340 F   0  0  0  0  0  0  0  0  0  0  0  0
  140.1330   79.1770  222.8020 C   0  0  0  0  0  0  0  0  0  0  0  0
  139.6060   77.9050  222.9040 C   0  0  0  0  0  0  0  0  0  0  0  0
  140.2000   76.9000  222.1640 C   0  0  0  0  0  0  0  0  0  0  0  0
  139.6840   75.6620  222.2670 N   0  0  0  0  0  0  0  0  0  0  0  0
  140.2500   70.4010  225.9370 C   0  0  0  0  0  0  0  0  0  0  0  0
  140.9570   71.5960  225.9460 C   0  0  0  0  0  0  0  0  0  0  0  0
  141.1450   72.2660  227.1590 C   0  0  0  0  0  0  0  0  0  0  0  0
  140.6500   71.7760  228.3480 C   0  0  0  0  0  0  0  0  0  0  0  0
  139.9480   70.5890  228.3400 C   0  0  0  0  0  0  0  0  0  0  0  0
  139.7630   69.9290  227.1420 C   0  0  0  0  0  0  0  0  0  0  0  0
  138.8887   68.4640  226.0538 H   0  0  0  0  0  0  0  0  0  0  0  0
  138.0296   68.8657  224.5283 H   0  0  0  0  0  0  0  0  0  0  0  0
  139.3263   67.6226  224.5283 H   0  0  0  0  0  0  0  0  0  0  0  0
  140.9713   69.2127  224.3321 H   0  0  0  0  0  0  0  0  0  0  0  0
  140.1820   70.7020  222.8270 H   0  0  0  0  0  0  0  0  0  0  0  0
  137.6888   71.3316  221.6033 H   0  0  0  0  0  0  0  0  0  0  0  0
  136.6197   72.1232  222.8814 H   0  0  0  0  0  0  0  0  0  0  0  0
  137.8560   74.0560  222.6840 H   0  0  0  0  0  0  0  0  0  0  0  0
  141.6907   73.9297  220.1914 H   0  0  0  0  0  0  0  0  0  0  0  0
  142.6533   76.1972  219.9906 H   0  0  0  0  0  0  0  0  0  0  0  0
  142.6791   78.6061  220.5876 H   0  0  0  0  0  0  0  0  0  0  0  0
  139.6908   80.0058  223.3743 H   0  0  0  0  0  0  0  0  0  0  0  0
  138.7420   77.6982  223.5527 H   0  0  0  0  0  0  0  0  0  0  0  0
  141.3637   72.0101  225.0116 H   0  0  0  0  0  0  0  0  0  0  0  0
  141.7050   73.2128  227.1642 H   0  0  0  0  0  0  0  0  0  0  0  0
  140.8122   72.3229  229.2885 H   0  0  0  0  0  0  0  0  0  0  0  0
  139.5416   70.1744  229.2743 H   0  0  0  0  0  0  0  0  0  0  0  0
  139.2017   68.9830  227.1460 H   0  0  0  0  0  0  0  0  0  0  0  0
  1  2  1  0
  2  3  1  0
  3  4  1  0
  4  5  2  0
  4  6  1  0
  6  7  1  0
  7  8  1  0
  8  9  2  0
  8 10  1  0
 10 11  2  0
 11 12  1  0
 12 13  2  0
 13 14  1  0
 14 15  2  0
 15 16  1  0
 16 17  1  0
 16 18  1  0
 16 19  1  0
 15 20  1  0
 20 21  2  0
 21 22  1  0
 22 23  2  0
  2 24  1  0
 24 25  2  0
 25 26  1  0
 26 27  2  0
 27 28  1  0
 28 29  2  0
 23 10  1  0
 29 24  1  0
 22 13  1  0
  1 30  1  0
  1 31  1  0
  1 32  1  0
  2 33  1  6
  3 34  1  0
  6 35  1  0
  6 36  1  0
  7 37  1  0
 11 38  1  0
 12 39  1  0
 14 40  1  0
 20 41  1  0
 21 42  1  0
 25 43  1  0
 26 44  1  0
 27 45  1  0
 28 46  1  0
 29 47  1  0
M  END
>  <smiles>  (12) 
C[C@@H](NC(=O)CNC(=O)c1ccc2cc(C(F)(F)F)ccc2n1)c1ccccc1

>  <score_type>  (12) 
oracle

>  <origin>  (12) 
autodockgpu

>  <m_score__min__energy>  (12) 
-7.9900000000000002

>  <m_primary>  (12) 
energy

>  <rmsd>  (12) 
9.862200271653029

>  <m_score__min__rmsd>  (12) 
9.862200271653029

>  <meeko>  (12) 
{"free_energy": -7.91, "intermolecular_energy": -9.7, "internal_energy": -2.08, "cluster_size": 42, "cluster_id": 1, "rank_in_cluster": 24}

>  <energy>  (12) 
-7.93

>  <cluster_rmsd>  (12) 
0.67

>  <cluster>  (12) 
1

$$$$

     RDKit          3D

 47 49  0  0  0  0  0  0  0  0999 V2000
  138.9870   68.5300  224.9580 C   0  0  0  0  0  0  0  0  0  0  0  0
  140.0040   69.6010  224.6820 C   0  0  1  0  0  0  0  0  0  0  0  0
  139.5210   70.4480  223.6060 N   0  0  0  0  0  0  0  0  0  0  0  0
  138.2140   70.9960  223.6090 C   0  0  0  0  0  0  0  0  0  0  0  0
  137.4510   70.7340  224.5940 O   0  0  0  0  0  0  0  0  0  0  0  0
  137.6600   71.8600  222.5500 C   0  0  0  0  0  0  0  0  0  0  0  0
  138.3050   73.1210  222.3760 N   0  0  0  0  0  0  0  0  0  0  0  0
  139.6080   73.2460  221.7870 C   0  0  0  0  0  0  0  0  0  0  0  0
  140.2630   72.2470  221.3810 O   0  0  0  0  0  0  0  0  0  0  0  0
  140.2030   74.5940  221.6540 C   0  0  0  0  0  0  0  0  0  0  0  0
  141.3070   74.7750  220.8480 C   0  0  0  0  0  0  0  0  0  0  0  0
  141.8250   76.0500  220.7580 C   0  0  0  0  0  0  0  0  0  0  0  0
  141.2950   77.1330  221.4260 C   0  0  0  0  0  0  0  0  0  0  0  0
  141.8150   78.4080  221.3340 C   0  0  0  0  0  0  0  0  0  0  0  0
  141.1890   79.4090  222.0560 C   0  0  0  0  0  0  0  0  0  0  0  0
  141.7010   80.8200  222.0030 C   0  0  0  0  0  0  0  0  0  0  0  0
  140.8240   81.6410  222.7240 F   0  0  0  0  0  0  0  0  0  0  0  0
  142.8890   80.8620  222.7000 F   0  0  0  0  0  0  0  0  0  0  0  0
  141.8300   81.2710  220.7030 F   0  0  0  0  0  0  0  0  0  0  0  0
  140.0840   79.1760  222.8510 C   0  0  0  0  0  0  0  0  0  0  0  0
  139.5650   77.8990  222.9420 C   0  0  0  0  0  0  0  0  0  0  0  0
  140.1870   76.8980  222.2220 C   0  0  0  0  0  0  0  0  0  0  0  0
  139.6790   75.6550  222.3140 N   0  0  0  0  0  0  0  0  0  0  0  0
  140.2130   70.3610  225.9530 C   0  0  0  0  0  0  0  0  0  0  0  0
  139.6790   69.9220  227.1570 C   0  0  0  0  0  0  0  0  0  0  0  0
  139.9060   70.6730  228.3150 C   0  0  0  0  0  0  0  0  0  0  0  0
  140.6450   71.8360  228.2980 C   0  0  0  0  0  0  0  0  0  0  0  0
  141.1750   72.2720  227.1010 C   0  0  0  0  0  0  0  0  0  0  0  0
  140.9500   71.5310  225.9600 C   0  0  0  0  0  0  0  0  0  0  0  0
  138.8700   68.4068  226.0448 H   0  0  0  0  0  0  0  0  0  0  0  0
  138.0219   68.8180  224.5156 H   0  0  0  0  0  0  0  0  0  0  0  0
  139.3245   67.5811  224.5156 H   0  0  0  0  0  0  0  0  0  0  0  0
  140.9678   69.1814  224.3579 H   0  0  0  0  0  0  0  0  0  0  0  0
  140.1830   70.6460  222.8290 H   0  0  0  0  0  0  0  0  0  0  0  0
  137.7272   71.3125  221.5983 H   0  0  0  0  0  0  0  0  0  0  0  0
  136.6308   72.0916  222.8616 H   0  0  0  0  0  0  0  0  0  0  0  0
  137.8500   74.0360  222.6760 H   0  0  0  0  0  0  0  0  0  0  0  0
  141.7570   73.9352  220.2982 H   0  0  0  0  0  0  0  0  0  0  0  0
  142.7066   76.2110  220.1202 H   0  0  0  0  0  0  0  0  0  0  0  0
  142.6951   78.6209  220.7095 H   0  0  0  0  0  0  0  0  0  0  0  0
  139.6197   80.0027  223.4087 H   0  0  0  0  0  0  0  0  0  0  0  0
  138.6853   77.6865  223.5673 H   0  0  0  0  0  0  0  0  0  0  0  0
  139.0858   68.9967  227.1997 H   0  0  0  0  0  0  0  0  0  0  0  0
  139.4817   70.3246  229.2682 H   0  0  0  0  0  0  0  0  0  0  0  0
  140.8097   72.4073  229.2235 H   0  0  0  0  0  0  0  0  0  0  0  0
  141.7684   73.1972  227.0575 H   0  0  0  0  0  0  0  0  0  0  0  0
  141.3768   71.8873  225.0109 H   0  0  0  0  0  0  0  0  0  0  0  0
  1  2  1  0
  2  3  1  0
  3  4  1  0
  4  5  2  0
  4  6  1  0
  6  7  1  0
  7  8  1  0
  8  9  2  0
  8 10  1  0
 10 11  2  0
 11 12  1  0
 12 13  2  0
 13 14  1  0
 14 15  2  0
 15 16  1  0
 16 17  1  0
 16 18  1  0
 16 19  1  0
 15 20  1  0
 20 21  2  0
 21 22  1  0
 22 23  2  0
  2 24  1  0
 24 25  2  0
 25 26  1  0
 26 27  2  0
 27 28  1  0
 28 29  2  0
 23 10  1  0
 29 24  1  0
 22 13  1  0
  1 30  1  0
  1 31  1  0
  1 32  1  0
  2 33  1  6
  3 34  1  0
  6 35  1  0
  6 36  1  0
  7 37  1  0
 11 38  1  0
 12 39  1  0
 14 40  1  0
 20 41  1  0
 21 42  1  0
 25 43  1  0
 26 44  1  0
 27 45  1  0
 28 46  1  0
 29 47  1  0
M  END
>  <smiles>  (13) 
C[C@@H](NC(=O)CNC(=O)c1ccc2cc(C(F)(F)F)ccc2n1)c1ccccc1

>  <score_type>  (13) 
oracle

>  <origin>  (13) 
autodockgpu

>  <m_score__min__energy>  (13) 
-7.9900000000000002

>  <m_primary>  (13) 
energy

>  <rmsd>  (13) 
9.663019658332395

>  <m_score__min__rmsd>  (13) 
9.663019658332395

>  <meeko>  (13) 
{"free_energy": -7.92, "intermolecular_energy": -9.71, "internal_energy": -2.11, "cluster_size": 42, "cluster_id": 1, "rank_in_cluster": 23}

>  <energy>  (13) 
-7.93

>  <cluster_rmsd>  (13) 
0.74

>  <cluster>  (13) 
1

$$$$

     RDKit          3D

 47 49  0  0  0  0  0  0  0  0999 V2000
  138.2640   69.0520  225.3040 C   0  0  0  0  0  0  0  0  0  0  0  0
  139.2890   70.0470  224.8420 C   0  0  1  0  0  0  0  0  0  0  0  0
  138.6180   71.1410  224.1650 N   0  0  0  0  0  0  0  0  0  0  0  0
  138.5230   71.2080  222.7530 C   0  0  0  0  0  0  0  0  0  0  0  0
  139.0440   70.2680  222.0680 O   0  0  0  0  0  0  0  0  0  0  0  0
  137.8600   72.2900  222.0010 C   0  0  0  0  0  0  0  0  0  0  0  0
  138.5250   73.5530  222.0150 N   0  0  0  0  0  0  0  0  0  0  0  0
  139.5970   73.8700  221.1170 C   0  0  0  0  0  0  0  0  0  0  0  0
  140.0170   73.0530  220.2510 O   0  0  0  0  0  0  0  0  0  0  0  0
  140.2330   75.2030  221.2090 C   0  0  0  0  0  0  0  0  0  0  0  0
  141.3130   75.5000  220.4060 C   0  0  0  0  0  0  0  0  0  0  0  0
  141.8710   76.7550  220.5300 C   0  0  0  0  0  0  0  0  0  0  0  0
  141.4020   77.7090  221.4070 C   0  0  0  0  0  0  0  0  0  0  0  0
  141.9620   78.9650  221.5290 C   0  0  0  0  0  0  0  0  0  0  0  0
  141.3970   79.8330  222.4490 C   0  0  0  0  0  0  0  0  0  0  0  0
  141.9550   81.2140  222.6350 C   0  0  0  0  0  0  0  0  0  0  0  0
  141.0650   81.9520  223.4260 F   0  0  0  0  0  0  0  0  0  0  0  0
  143.1040   81.1050  223.3880 F   0  0  0  0  0  0  0  0  0  0  0  0
  142.1690   81.8490  221.4260 F   0  0  0  0  0  0  0  0  0  0  0  0
  140.3130   79.4860  223.2320 C   0  0  0  0  0  0  0  0  0  0  0  0
  139.7540   78.2290  223.1070 C   0  0  0  0  0  0  0  0  0  0  0  0
  140.3160   77.3620  222.1910 C   0  0  0  0  0  0  0  0  0  0  0  0
  139.7700   76.1380  222.0730 N   0  0  0  0  0  0  0  0  0  0  0  0
  140.0460   70.5060  226.0480 C   0  0  0  0  0  0  0  0  0  0  0  0
  140.7390   71.7090  226.0560 C   0  0  0  0  0  0  0  0  0  0  0  0
  141.4290   72.0880  227.2110 C   0  0  0  0  0  0  0  0  0  0  0  0
  141.4440   71.3030  228.3440 C   0  0  0  0  0  0  0  0  0  0  0  0
  140.7570   70.1080  228.3360 C   0  0  0  0  0  0  0  0  0  0  0  0
  140.0760   69.7350  227.1960 C   0  0  0  0  0  0  0  0  0  0  0  0
  138.2427   69.0313  226.4036 H   0  0  0  0  0  0  0  0  0  0  0  0
  137.2736   69.3423  224.9235 H   0  0  0  0  0  0  0  0  0  0  0  0
  138.5248   68.0534  224.9235 H   0  0  0  0  0  0  0  0  0  0  0  0
  139.9971   69.6060  224.1249 H   0  0  0  0  0  0  0  0  0  0  0  0
  138.1960   71.8790  224.7650 H   0  0  0  0  0  0  0  0  0  0  0  0
  137.7703   71.9672  220.9533 H   0  0  0  0  0  0  0  0  0  0  0  0
  136.8947   72.4546  222.5021 H   0  0  0  0  0  0  0  0  0  0  0  0
  138.2560   74.3250  222.6980 H   0  0  0  0  0  0  0  0  0  0  0  0
  141.7145   74.7643  219.6936 H   0  0  0  0  0  0  0  0  0  0  0  0
  142.7343   77.0074  219.8967 H   0  0  0  0  0  0  0  0  0  0  0  0
  142.8257   79.2656  220.9177 H   0  0  0  0  0  0  0  0  0  0  0  0
  139.8972   80.2069  223.9513 H   0  0  0  0  0  0  0  0  0  0  0  0
  138.8895   77.9286  223.7172 H   0  0  0  0  0  0  0  0  0  0  0  0
  140.7450   72.3550  225.1657 H   0  0  0  0  0  0  0  0  0  0  0  0
  141.9768   73.0419  227.2160 H   0  0  0  0  0  0  0  0  0  0  0  0
  141.9952   71.6249  229.2398 H   0  0  0  0  0  0  0  0  0  0  0  0
  140.7519   69.4613  229.2258 H   0  0  0  0  0  0  0  0  0  0  0  0
  139.5311   68.7794  227.2000 H   0  0  0  0  0  0  0  0  0  0  0  0
  1  2  1  0
  2  3  1  0
  3  4  1  0
  4  5  2  0
  4  6  1  0
  6  7  1  0
  7  8  1  0
  8  9  2  0
  8 10  1  0
 10 11  2  0
 11 12  1  0
 12 13  2  0
 13 14  1  0
 14 15  2  0
 15 16  1  0
 16 17  1  0
 16 18  1  0
 16 19  1  0
 15 20  1  0
 20 21  2  0
 21 22  1  0
 22 23  2  0
  2 24  1  0
 24 25  2  0
 25 26  1  0
 26 27  2  0
 27 28  1  0
 28 29  2  0
 23 10  1  0
 29 24  1  0
 22 13  1  0
  1 30  1  0
  1 31  1  0
  1 32  1  0
  2 33  1  6
  3 34  1  0
  6 35  1  0
  6 36  1  0
  7 37  1  0
 11 38  1  0
 12 39  1  0
 14 40  1  0
 20 41  1  0
 21 42  1  0
 25 43  1  0
 26 44  1  0
 27 45  1  0
 28 46  1  0
 29 47  1  0
M  END
>  <smiles>  (14) 
C[C@@H](NC(=O)CNC(=O)c1ccc2cc(C(F)(F)F)ccc2n1)c1ccccc1

>  <score_type>  (14) 
oracle

>  <origin>  (14) 
autodockgpu

>  <m_score__min__energy>  (14) 
-7.9900000000000002

>  <m_primary>  (14) 
energy

>  <rmsd>  (14) 
9.994273965879282

>  <m_score__min__rmsd>  (14) 
9.994273965879282

>  <meeko>  (14) 
{"free_energy": -7.93, "intermolecular_energy": -9.72, "internal_energy": -1.38, "cluster_size": 42, "cluster_id": 1, "rank_in_cluster": 14}

>  <energy>  (14) 
-7.93

>  <cluster_rmsd>  (14) 
0.92

>  <cluster>  (14) 
1

$$$$

     RDKit          3D

 47 49  0  0  0  0  0  0  0  0999 V2000
  138.1430   68.8720  225.3200 C   0  0  0  0  0  0  0  0  0  0  0  0
  139.5770   69.1940  225.0100 C   0  0  1  0  0  0  0  0  0  0  0  0
  139.6540   69.7950  223.6900 N   0  0  0  0  0  0  0  0  0  0  0  0
  138.9420   70.9740  223.3570 C   0  0  0  0  0  0  0  0  0  0  0  0
  138.2190   71.5170  224.2540 O   0  0  0  0  0  0  0  0  0  0  0  0
  138.9730   71.6340  222.0380 C   0  0  0  0  0  0  0  0  0  0  0  0
  139.4220   72.9880  222.0320 N   0  0  0  0  0  0  0  0  0  0  0  0
  140.2670   73.5160  220.9990 C   0  0  0  0  0  0  0  0  0  0  0  0
  140.6620   72.8150  220.0260 O   0  0  0  0  0  0  0  0  0  0  0  0
  140.6910   74.9310  221.0800 C   0  0  0  0  0  0  0  0  0  0  0  0
  141.6990   75.3890  220.2580 C   0  0  0  0  0  0  0  0  0  0  0  0
  142.0580   76.7150  220.3710 C   0  0  0  0  0  0  0  0  0  0  0  0
  141.4620   77.5890  221.2560 C   0  0  0  0  0  0  0  0  0  0  0  0
  141.8230   78.9160  221.3670 C   0  0  0  0  0  0  0  0  0  0  0  0
  141.1460   79.6890  222.2950 C   0  0  0  0  0  0  0  0  0  0  0  0
  141.4860   81.1410  222.4700 C   0  0  0  0  0  0  0  0  0  0  0  0
  140.3600   81.8070  222.9700 F   0  0  0  0  0  0  0  0  0  0  0  0
  142.4320   81.2330  223.4680 F   0  0  0  0  0  0  0  0  0  0  0  0
  141.9050   81.7170  221.2860 F   0  0  0  0  0  0  0  0  0  0  0  0
  140.1420   79.1830  223.0960 C   0  0  0  0  0  0  0  0  0  0  0  0
  139.7820   77.8540  222.9830 C   0  0  0  0  0  0  0  0  0  0  0  0
  140.4560   77.0800  222.0580 C   0  0  0  0  0  0  0  0  0  0  0  0
  140.1030   75.7860  221.9510 N   0  0  0  0  0  0  0  0  0  0  0  0
  140.0740   70.1130  226.0800 C   0  0  0  0  0  0  0  0  0  0  0  0
  139.6970   69.9530  227.4070 C   0  0  0  0  0  0  0  0  0  0  0  0
  140.1920   70.8400  228.3670 C   0  0  0  0  0  0  0  0  0  0  0  0
  141.0440   71.8720  228.0370 C   0  0  0  0  0  0  0  0  0  0  0  0
  141.4190   72.0310  226.7190 C   0  0  0  0  0  0  0  0  0  0  0  0
  140.9300   71.1550  225.7730 C   0  0  0  0  0  0  0  0  0  0  0  0
  138.0018   68.8403  226.4104 H   0  0  0  0  0  0  0  0  0  0  0  0
  137.4917   69.6463  224.8883 H   0  0  0  0  0  0  0  0  0  0  0  0
  137.8853   67.8936  224.8883 H   0  0  0  0  0  0  0  0  0  0  0  0
  140.2074   68.2927  224.9955 H   0  0  0  0  0  0  0  0  0  0  0  0
  140.2670   69.3250  222.9930 H   0  0  0  0  0  0  0  0  0  0  0  0
  139.6421   71.0536  221.3858 H   0  0  0  0  0  0  0  0  0  0  0  0
  137.9286   71.6639  221.6942 H   0  0  0  0  0  0  0  0  0  0  0  0
  139.1520   73.6770  222.7980 H   0  0  0  0  0  0  0  0  0  0  0  0
  142.1975   74.7217  219.5396 H   0  0  0  0  0  0  0  0  0  0  0  0
  142.8607   77.0955  219.7223 H   0  0  0  0  0  0  0  0  0  0  0  0
  142.6197   79.3443  220.7410 H   0  0  0  0  0  0  0  0  0  0  0  0
  139.6313   79.8345  223.8204 H   0  0  0  0  0  0  0  0  0  0  0  0
  138.9850   77.4261  223.6089 H   0  0  0  0  0  0  0  0  0  0  0  0
  139.0175   69.1386  227.6988 H   0  0  0  0  0  0  0  0  0  0  0  0
  139.8926   70.7106  229.4175 H   0  0  0  0  0  0  0  0  0  0  0  0
  141.4186   72.5573  228.8116 H   0  0  0  0  0  0  0  0  0  0  0  0
  142.0986   72.8451  226.4268 H   0  0  0  0  0  0  0  0  0  0  0  0
  141.2350   71.2914  224.7250 H   0  0  0  0  0  0  0  0  0  0  0  0
  1  2  1  0
  2  3  1  0
  3  4  1  0
  4  5  2  0
  4  6  1  0
  6  7  1  0
  7  8  1  0
  8  9  2  0
  8 10  1  0
 10 11  2  0
 11 12  1  0
 12 13  2  0
 13 14  1  0
 14 15  2  0
 15 16  1  0
 16 17  1  0
 16 18  1  0
 16 19  1  0
 15 20  1  0
 20 21  2  0
 21 22  1  0
 22 23  2  0
  2 24  1  0
 24 25  2  0
 25 26  1  0
 26 27  2  0
 27 28  1  0
 28 29  2  0
 23 10  1  0
 29 24  1  0
 22 13  1  0
  1 30  1  0
  1 31  1  0
  1 32  1  0
  2 33  1  6
  3 34  1  0
  6 35  1  0
  6 36  1  0
  7 37  1  0
 11 38  1  0
 12 39  1  0
 14 40  1  0
 20 41  1  0
 21 42  1  0
 25 43  1  0
 26 44  1  0
 27 45  1  0
 28 46  1  0
 29 47  1  0
M  END
>  <smiles>  (15) 
C[C@@H](NC(=O)CNC(=O)c1ccc2cc(C(F)(F)F)ccc2n1)c1ccccc1

>  <score_type>  (15) 
oracle

>  <origin>  (15) 
autodockgpu

>  <m_score__min__energy>  (15) 
-7.9900000000000002

>  <m_primary>  (15) 
energy

>  <rmsd>  (15) 
9.823739440554213

>  <m_score__min__rmsd>  (15) 
9.823739440554213

>  <meeko>  (15) 
{"free_energy": -7.9, "intermolecular_energy": -9.69, "internal_energy": -1.42, "cluster_size": 42, "cluster_id": 1, "rank_in_cluster": 28}

>  <energy>  (15) 
-7.93

>  <cluster_rmsd>  (15) 
0.73

>  <cluster>  (15) 
1

$$$$

     RDKit          3D

 47 49  0  0  0  0  0  0  0  0999 V2000
  139.2510   68.1380  225.3430 C   0  0  0  0  0  0  0  0  0  0  0  0
  140.1910   69.2560  224.9950 C   0  0  1  0  0  0  0  0  0  0  0  0
  139.6920   69.9480  223.8200 N   0  0  0  0  0  0  0  0  0  0  0  0
  138.4360   70.6020  223.8090 C   0  0  0  0  0  0  0  0  0  0  0  0
  137.7330   70.5800  224.8710 O   0  0  0  0  0  0  0  0  0  0  0  0
  137.8680   71.3190  222.6510 C   0  0  0  0  0  0  0  0  0  0  0  0
  138.4700   72.5760  222.3440 N   0  0  0  0  0  0  0  0  0  0  0  0
  139.8520   72.7010  221.9780 C   0  0  0  0  0  0  0  0  0  0  0  0
  140.6220   71.7030  221.9000 O   0  0  0  0  0  0  0  0  0  0  0  0
  140.3930   74.0460  221.6840 C   0  0  0  0  0  0  0  0  0  0  0  0
  141.4490   74.1790  220.8080 C   0  0  0  0  0  0  0  0  0  0  0  0
  141.9170   75.4530  220.5670 C   0  0  0  0  0  0  0  0  0  0  0  0
  141.3820   76.5810  221.1530 C   0  0  0  0  0  0  0  0  0  0  0  0
  141.8520   77.8560  220.9100 C   0  0  0  0  0  0  0  0  0  0  0  0
  141.2280   78.9050  221.5630 C   0  0  0  0  0  0  0  0  0  0  0  0
  141.6870   80.3180  221.3450 C   0  0  0  0  0  0  0  0  0  0  0  0
  140.6190   81.1820  221.6210 F   0  0  0  0  0  0  0  0  0  0  0  0
  142.6370   80.6020  222.3030 F   0  0  0  0  0  0  0  0  0  0  0  0
  142.1520   80.5150  220.0590 F   0  0  0  0  0  0  0  0  0  0  0  0
  140.1710   78.7180  222.4320 C   0  0  0  0  0  0  0  0  0  0  0  0
  139.7020   77.4420  222.6740 C   0  0  0  0  0  0  0  0  0  0  0  0
  140.3230   76.3930  222.0240 C   0  0  0  0  0  0  0  0  0  0  0  0
  139.8650   75.1510  222.2620 N   0  0  0  0  0  0  0  0  0  0  0  0
  140.2820   70.1550  226.1870 C   0  0  0  0  0  0  0  0  0  0  0  0
  139.6760   69.8260  227.3920 C   0  0  0  0  0  0  0  0  0  0  0  0
  139.7930   70.7040  228.4740 C   0  0  0  0  0  0  0  0  0  0  0  0
  140.4920   71.8880  228.3810 C   0  0  0  0  0  0  0  0  0  0  0  0
  141.0930   72.2150  227.1840 C   0  0  0  0  0  0  0  0  0  0  0  0
  140.9770   71.3480  226.1170 C   0  0  0  0  0  0  0  0  0  0  0  0
  139.1762   68.0490  226.4368 H   0  0  0  0  0  0  0  0  0  0  0  0
  138.2567   68.3510  224.9236 H   0  0  0  0  0  0  0  0  0  0  0  0
  139.6316   67.1950  224.9236 H   0  0  0  0  0  0  0  0  0  0  0  0
  141.1983   68.8869  224.7517 H   0  0  0  0  0  0  0  0  0  0  0  0
  140.3050   69.9520  222.9790 H   0  0  0  0  0  0  0  0  0  0  0  0
  137.9712   70.6706  221.7685 H   0  0  0  0  0  0  0  0  0  0  0  0
  136.8255   71.5442  222.9204 H   0  0  0  0  0  0  0  0  0  0  0  0
  137.9200   73.4880  222.3710 H   0  0  0  0  0  0  0  0  0  0  0  0
  141.9006   73.3026  220.3202 H   0  0  0  0  0  0  0  0  0  0  0  0
  142.7604   75.5763  219.8717 H   0  0  0  0  0  0  0  0  0  0  0  0
  142.6922   78.0321  220.2222 H   0  0  0  0  0  0  0  0  0  0  0  0
  139.7049   79.5815  222.9291 H   0  0  0  0  0  0  0  0  0  0  0  0
  138.8616   77.2665  223.3617 H   0  0  0  0  0  0  0  0  0  0  0  0
  139.1115   68.8874  227.4942 H   0  0  0  0  0  0  0  0  0  0  0  0
  139.3126   70.4417  229.4282 H   0  0  0  0  0  0  0  0  0  0  0  0
  140.5692   72.5612  229.2475 H   0  0  0  0  0  0  0  0  0  0  0  0
  141.6570   73.1538  227.0811 H   0  0  0  0  0  0  0  0  0  0  0  0
  141.4600   71.6186  225.1665 H   0  0  0  0  0  0  0  0  0  0  0  0
  1  2  1  0
  2  3  1  0
  3  4  1  0
  4  5  2  0
  4  6  1  0
  6  7  1  0
  7  8  1  0
  8  9  2  0
  8 10  1  0
 10 11  2  0
 11 12  1  0
 12 13  2  0
 13 14  1  0
 14 15  2  0
 15 16  1  0
 16 17  1  0
 16 18  1  0
 16 19  1  0
 15 20  1  0
 20 21  2  0
 21 22  1  0
 22 23  2  0
  2 24  1  0
 24 25  2  0
 25 26  1  0
 26 27  2  0
 27 28  1  0
 28 29  2  0
 23 10  1  0
 29 24  1  0
 22 13  1  0
  1 30  1  0
  1 31  1  0
  1 32  1  0
  2 33  1  6
  3 34  1  0
  6 35  1  0
  6 36  1  0
  7 37  1  0
 11 38  1  0
 12 39  1  0
 14 40  1  0
 20 41  1  0
 21 42  1  0
 25 43  1  0
 26 44  1  0
 27 45  1  0
 28 46  1  0
 29 47  1  0
M  END
>  <smiles>  (16) 
C[C@@H](NC(=O)CNC(=O)c1ccc2cc(C(F)(F)F)ccc2n1)c1ccccc1

>  <score_type>  (16) 
oracle

>  <origin>  (16) 
autodockgpu

>  <m_score__min__energy>  (16) 
-7.9900000000000002

>  <m_primary>  (16) 
energy

>  <rmsd>  (16) 
9.747647685563251

>  <m_score__min__rmsd>  (16) 
9.747647685563251

>  <meeko>  (16) 
{"free_energy": -7.62, "intermolecular_energy": -9.41, "internal_energy": -2.14, "cluster_size": 42, "cluster_id": 1, "rank_in_cluster": 37}

>  <energy>  (16) 
-7.93

>  <cluster_rmsd>  (16) 
0.69

>  <cluster>  (16) 
1

$$$$

     RDKit          3D

 47 49  0  0  0  0  0  0  0  0999 V2000
  139.0470   68.5410  224.9430 C   0  0  0  0  0  0  0  0  0  0  0  0
  140.0630   69.6090  224.6570 C   0  0  1  0  0  0  0  0  0  0  0  0
  139.5730   70.4590  223.5870 N   0  0  0  0  0  0  0  0  0  0  0  0
  138.2640   71.0000  223.5970 C   0  0  0  0  0  0  0  0  0  0  0  0
  137.5050   70.7300  224.5840 O   0  0  0  0  0  0  0  0  0  0  0  0
  137.7010   71.8660  222.5430 C   0  0  0  0  0  0  0  0  0  0  0  0
  138.3440   73.1280  222.3670 N   0  0  0  0  0  0  0  0  0  0  0  0
  139.6390   73.2570  221.7630 C   0  0  0  0  0  0  0  0  0  0  0  0
  140.2890   72.2600  221.3430 O   0  0  0  0  0  0  0  0  0  0  0  0
  140.2320   74.6060  221.6300 C   0  0  0  0  0  0  0  0  0  0  0  0
  141.3120   74.7960  220.7950 C   0  0  0  0  0  0  0  0  0  0  0  0
  141.8290   76.0710  220.7060 C   0  0  0  0  0  0  0  0  0  0  0  0
  141.3190   77.1460  221.4020 C   0  0  0  0  0  0  0  0  0  0  0  0
  141.8380   78.4220  221.3110 C   0  0  0  0  0  0  0  0  0  0  0  0
  141.2340   79.4150  222.0630 C   0  0  0  0  0  0  0  0  0  0  0  0
  141.7460   80.8260  222.0130 C   0  0  0  0  0  0  0  0  0  0  0  0
  140.8930   81.6380  222.7710 F   0  0  0  0  0  0  0  0  0  0  0  0
  142.9560   80.8570  222.6730 F   0  0  0  0  0  0  0  0  0  0  0  0
  141.8350   81.2940  220.7160 F   0  0  0  0  0  0  0  0  0  0  0  0
  140.1520   79.1730  222.8860 C   0  0  0  0  0  0  0  0  0  0  0  0
  139.6340   77.8950  222.9760 C   0  0  0  0  0  0  0  0  0  0  0  0
  140.2340   76.9030  222.2260 C   0  0  0  0  0  0  0  0  0  0  0  0
  139.7280   75.6590  222.3170 N   0  0  0  0  0  0  0  0  0  0  0  0
  140.2870   70.3680  225.9270 C   0  0  0  0  0  0  0  0  0  0  0  0
  140.9930   71.5640  225.9430 C   0  0  0  0  0  0  0  0  0  0  0  0
  141.1720   72.2310  227.1580 C   0  0  0  0  0  0  0  0  0  0  0  0
  140.6680   71.7390  228.3430 C   0  0  0  0  0  0  0  0  0  0  0  0
  139.9670   70.5510  228.3270 C   0  0  0  0  0  0  0  0  0  0  0  0
  139.7920   69.8940  227.1270 C   0  0  0  0  0  0  0  0  0  0  0  0
  138.9350   68.4233  226.0309 H   0  0  0  0  0  0  0  0  0  0  0  0
  138.0801   68.8277  224.5038 H   0  0  0  0  0  0  0  0  0  0  0  0
  139.3815   67.5896  224.5038 H   0  0  0  0  0  0  0  0  0  0  0  0
  141.0216   69.1860  224.3220 H   0  0  0  0  0  0  0  0  0  0  0  0
  140.2310   70.6640  222.8080 H   0  0  0  0  0  0  0  0  0  0  0  0
  137.7617   71.3204  221.5898 H   0  0  0  0  0  0  0  0  0  0  0  0
  136.6738   72.0959  222.8622 H   0  0  0  0  0  0  0  0  0  0  0  0
  137.8910   74.0410  222.6790 H   0  0  0  0  0  0  0  0  0  0  0  0
  141.7446   73.9627  220.2219 H   0  0  0  0  0  0  0  0  0  0  0  0
  142.6927   76.2390  220.0458 H   0  0  0  0  0  0  0  0  0  0  0  0
  142.7003   78.6417  220.6644 H   0  0  0  0  0  0  0  0  0  0  0  0
  139.7047   79.9931  223.4669 H   0  0  0  0  0  0  0  0  0  0  0  0
  138.7724   77.6753  223.6236 H   0  0  0  0  0  0  0  0  0  0  0  0
  141.4055   71.9805  225.0122 H   0  0  0  0  0  0  0  0  0  0  0  0
  141.7322   73.1776  227.1691 H   0  0  0  0  0  0  0  0  0  0  0  0
  140.8222   72.2846  229.2856 H   0  0  0  0  0  0  0  0  0  0  0  0
  139.5538   70.1340  229.2573 H   0  0  0  0  0  0  0  0  0  0  0  0
  139.2316   68.9474  227.1250 H   0  0  0  0  0  0  0  0  0  0  0  0
  1  2  1  0
  2  3  1  0
  3  4  1  0
  4  5  2  0
  4  6  1  0
  6  7  1  0
  7  8  1  0
  8  9  2  0
  8 10  1  0
 10 11  2  0
 11 12  1  0
 12 13  2  0
 13 14  1  0
 14 15  2  0
 15 16  1  0
 16 17  1  0
 16 18  1  0
 16 19  1  0
 15 20  1  0
 20 21  2  0
 21 22  1  0
 22 23  2  0
  2 24  1  0
 24 25  2  0
 25 26  1  0
 26 27  2  0
 27 28  1  0
 28 29  2  0
 23 10  1  0
 29 24  1  0
 22 13  1  0
  1 30  1  0
  1 31  1  0
  1 32  1  0
  2 33  1  6
  3 34  1  0
  6 35  1  0
  6 36  1  0
  7 37  1  0
 11 38  1  0
 12 39  1  0
 14 40  1  0
 20 41  1  0
 21 42  1  0
 25 43  1  0
 26 44  1  0
 27 45  1  0
 28 46  1  0
 29 47  1  0
M  END
>  <smiles>  (17) 
C[C@@H](NC(=O)CNC(=O)c1ccc2cc(C(F)(F)F)ccc2n1)c1ccccc1

>  <score_type>  (17) 
oracle

>  <origin>  (17) 
autodockgpu

>  <m_score__min__energy>  (17) 
-7.9900000000000002

>  <m_primary>  (17) 
energy

>  <rmsd>  (17) 
9.871309142803199

>  <m_score__min__rmsd>  (17) 
9.871309142803199

>  <meeko>  (17) 
{"free_energy": -7.95, "intermolecular_energy": -9.74, "internal_energy": -2.1, "cluster_size": 42, "cluster_id": 1, "rank_in_cluster": 5}

>  <energy>  (17) 
-7.93

>  <cluster_rmsd>  (17) 
0.67

>  <cluster>  (17) 
1

$$$$

     RDKit          3D

 47 49  0  0  0  0  0  0  0  0999 V2000
  139.1390   68.5380  224.9820 C   0  0  0  0  0  0  0  0  0  0  0  0
  140.1280   69.6370  224.7160 C   0  0  1  0  0  0  0  0  0  0  0  0
  139.6270   70.4760  223.6420 N   0  0  0  0  0  0  0  0  0  0  0  0
  138.3030   70.9790  223.6350 C   0  0  0  0  0  0  0  0  0  0  0  0
  137.5380   70.6830  224.6110 O   0  0  0  0  0  0  0  0  0  0  0  0
  137.7290   71.8320  222.5770 C   0  0  0  0  0  0  0  0  0  0  0  0
  138.3650   73.0950  222.3850 N   0  0  0  0  0  0  0  0  0  0  0  0
  139.6500   73.2260  221.7610 C   0  0  0  0  0  0  0  0  0  0  0  0
  140.2970   72.2290  221.3350 O   0  0  0  0  0  0  0  0  0  0  0  0
  140.2360   74.5760  221.6120 C   0  0  0  0  0  0  0  0  0  0  0  0
  141.3370   74.7550  220.8010 C   0  0  0  0  0  0  0  0  0  0  0  0
  141.8460   76.0320  220.6950 C   0  0  0  0  0  0  0  0  0  0  0  0
  141.3110   77.1190  221.3540 C   0  0  0  0  0  0  0  0  0  0  0  0
  141.8220   78.3960  221.2460 C   0  0  0  0  0  0  0  0  0  0  0  0
  141.1920   79.4020  221.9600 C   0  0  0  0  0  0  0  0  0  0  0  0
  141.6950   80.8150  221.8900 C   0  0  0  0  0  0  0  0  0  0  0  0
  142.9640   80.8670  222.4800 F   0  0  0  0  0  0  0  0  0  0  0  0
  141.9010   81.1220  220.5630 F   0  0  0  0  0  0  0  0  0  0  0  0
  140.8340   81.6980  222.5130 F   0  0  0  0  0  0  0  0  0  0  0  0
  140.0900   79.1700  222.7600 C   0  0  0  0  0  0  0  0  0  0  0  0
  139.5800   77.8900  222.8660 C   0  0  0  0  0  0  0  0  0  0  0  0
  140.2070   76.8860  222.1550 C   0  0  0  0  0  0  0  0  0  0  0  0
  139.7070   75.6410  222.2610 N   0  0  0  0  0  0  0  0  0  0  0  0
  140.3100   70.3970  225.9910 C   0  0  0  0  0  0  0  0  0  0  0  0
  139.7530   69.9580  227.1850 C   0  0  0  0  0  0  0  0  0  0  0  0
  139.9560   70.7080  228.3470 C   0  0  0  0  0  0  0  0  0  0  0  0
  140.6940   71.8720  228.3450 C   0  0  0  0  0  0  0  0  0  0  0  0
  141.2480   72.3080  227.1590 C   0  0  0  0  0  0  0  0  0  0  0  0
  141.0460   71.5680  226.0140 C   0  0  0  0  0  0  0  0  0  0  0  0
  139.0204   68.4063  226.0676 H   0  0  0  0  0  0  0  0  0  0  0  0
  138.1686   68.8023  224.5366 H   0  0  0  0  0  0  0  0  0  0  0  0
  139.5038   67.6007  224.5366 H   0  0  0  0  0  0  0  0  0  0  0  0
  141.1042   69.2446  224.3949 H   0  0  0  0  0  0  0  0  0  0  0  0
  140.2900   70.7030  222.8730 H   0  0  0  0  0  0  0  0  0  0  0  0
  137.7858   71.2777  221.6285 H   0  0  0  0  0  0  0  0  0  0  0  0
  136.7028   72.0601  222.9007 H   0  0  0  0  0  0  0  0  0  0  0  0
  137.9150   74.0090  222.6990 H   0  0  0  0  0  0  0  0  0  0  0  0
  141.7913   73.9119  220.2599 H   0  0  0  0  0  0  0  0  0  0  0  0
  142.7239   76.1920  220.0518 H   0  0  0  0  0  0  0  0  0  0  0  0
  142.6982   78.6076  220.6156 H   0  0  0  0  0  0  0  0  0  0  0  0
  139.6210   79.9995  223.3096 H   0  0  0  0  0  0  0  0  0  0  0  0
  138.7035   77.6780  223.4960 H   0  0  0  0  0  0  0  0  0  0  0  0
  139.1598   69.0322  227.2159 H   0  0  0  0  0  0  0  0  0  0  0  0
  139.5134   70.3587  229.2915 H   0  0  0  0  0  0  0  0  0  0  0  0
  140.8389   72.4438  229.2734 H   0  0  0  0  0  0  0  0  0  0  0  0
  141.8424   73.2330  227.1278 H   0  0  0  0  0  0  0  0  0  0  0  0
  141.4912   71.9255  225.0738 H   0  0  0  0  0  0  0  0  0  0  0  0
  1  2  1  0
  2  3  1  0
  3  4  1  0
  4  5  2  0
  4  6  1  0
  6  7  1  0
  7  8  1  0
  8  9  2  0
  8 10  1  0
 10 11  2  0
 11 12  1  0
 12 13  2  0
 13 14  1  0
 14 15  2  0
 15 16  1  0
 16 17  1  0
 16 18  1  0
 16 19  1  0
 15 20  1  0
 20 21  2  0
 21 22  1  0
 22 23  2  0
  2 24  1  0
 24 25  2  0
 25 26  1  0
 26 27  2  0
 27 28  1  0
 28 29  2  0
 23 10  1  0
 29 24  1  0
 22 13  1  0
  1 30  1  0
  1 31  1  0
  1 32  1  0
  2 33  1  6
  3 34  1  0
  6 35  1  0
  6 36  1  0
  7 37  1  0
 11 38  1  0
 12 39  1  0
 14 40  1  0
 20 41  1  0
 21 42  1  0
 25 43  1  0
 26 44  1  0
 27 45  1  0
 28 46  1  0
 29 47  1  0
M  END
>  <smiles>  (18) 
C[C@@H](NC(=O)CNC(=O)c1ccc2cc(C(F)(F)F)ccc2n1)c1ccccc1

>  <score_type>  (18) 
oracle

>  <origin>  (18) 
autodockgpu

>  <m_score__min__energy>  (18) 
-7.9900000000000002

>  <m_primary>  (18) 
energy

>  <rmsd>  (18) 
9.655471346158127

>  <m_score__min__rmsd>  (18) 
9.655471346158127

>  <meeko>  (18) 
{"free_energy": -7.93, "intermolecular_energy": -9.72, "internal_energy": -2.1, "cluster_size": 42, "cluster_id": 1, "rank_in_cluster": 16}

>  <energy>  (18) 
-7.92

>  <cluster_rmsd>  (18) 
0.74

>  <cluster>  (18) 
1

$$$$

     RDKit          3D

 47 49  0  0  0  0  0  0  0  0999 V2000
  139.0230   68.5060  224.9500 C   0  0  0  0  0  0  0  0  0  0  0  0
  140.0290   69.5890  224.6850 C   0  0  1  0  0  0  0  0  0  0  0  0
  139.5350   70.4450  223.6220 N   0  0  0  0  0  0  0  0  0  0  0  0
  138.2110   70.9500  223.6150 C   0  0  0  0  0  0  0  0  0  0  0  0
  137.4410   70.6390  224.5810 O   0  0  0  0  0  0  0  0  0  0  0  0
  137.6450   71.8200  222.5670 C   0  0  0  0  0  0  0  0  0  0  0  0
  138.3060   73.0700  222.3740 N   0  0  0  0  0  0  0  0  0  0  0  0
  139.5790   73.1770  221.7230 C   0  0  0  0  0  0  0  0  0  0  0  0
  140.1940   72.1710  221.2730 O   0  0  0  0  0  0  0  0  0  0  0  0
  140.1930   74.5150  221.5740 C   0  0  0  0  0  0  0  0  0  0  0  0
  141.3090   74.6690  220.7790 C   0  0  0  0  0  0  0  0  0  0  0  0
  141.8440   75.9350  220.6740 C   0  0  0  0  0  0  0  0  0  0  0  0
  141.3190   77.0360  221.3180 C   0  0  0  0  0  0  0  0  0  0  0  0
  141.8570   78.3030  221.2100 C   0  0  0  0  0  0  0  0  0  0  0  0
  141.2350   79.3240  221.9090 C   0  0  0  0  0  0  0  0  0  0  0  0
  141.7660   80.7270  221.8380 C   0  0  0  0  0  0  0  0  0  0  0  0
  140.9300   81.5590  222.5950 F   0  0  0  0  0  0  0  0  0  0  0  0
  142.9810   80.7490  222.4870 F   0  0  0  0  0  0  0  0  0  0  0  0
  141.8490   81.1800  220.5350 F   0  0  0  0  0  0  0  0  0  0  0  0
  140.1180   79.1180  222.6930 C   0  0  0  0  0  0  0  0  0  0  0  0
  139.5820   77.8490  222.7990 C   0  0  0  0  0  0  0  0  0  0  0  0
  140.2000   76.8290  222.1030 C   0  0  0  0  0  0  0  0  0  0  0  0
  139.6750   75.5940  222.2100 N   0  0  0  0  0  0  0  0  0  0  0  0
  140.2340   70.3360  225.9650 C   0  0  0  0  0  0  0  0  0  0  0  0
  139.7150   69.8730  227.1670 C   0  0  0  0  0  0  0  0  0  0  0  0
  139.9380   70.6110  228.3330 C   0  0  0  0  0  0  0  0  0  0  0  0
  140.6580   71.7860  228.3270 C   0  0  0  0  0  0  0  0  0  0  0  0
  141.1740   72.2460  227.1330 C   0  0  0  0  0  0  0  0  0  0  0  0
  140.9530   71.5170  225.9840 C   0  0  0  0  0  0  0  0  0  0  0  0
  138.9019   68.3757  226.0355 H   0  0  0  0  0  0  0  0  0  0  0  0
  138.0570   68.7858  224.5043 H   0  0  0  0  0  0  0  0  0  0  0  0
  139.3731   67.5633  224.5043 H   0  0  0  0  0  0  0  0  0  0  0  0
  140.9956   69.1818  224.3533 H   0  0  0  0  0  0  0  0  0  0  0  0
  140.2030   70.6840  222.8600 H   0  0  0  0  0  0  0  0  0  0  0  0
  137.6802   71.2691  221.6156 H   0  0  0  0  0  0  0  0  0  0  0  0
  136.6273   72.0687  222.9024 H   0  0  0  0  0  0  0  0  0  0  0  0
  137.8830   73.9900  222.7070 H   0  0  0  0  0  0  0  0  0  0  0  0
  141.7552   73.8145  220.2490 H   0  0  0  0  0  0  0  0  0  0  0  0
  142.7352   76.0744  220.0444 H   0  0  0  0  0  0  0  0  0  0  0  0
  142.7465   78.4943  220.5918 H   0  0  0  0  0  0  0  0  0  0  0  0
  139.6569   79.9597  223.2306 H   0  0  0  0  0  0  0  0  0  0  0  0
  138.6926   77.6576  223.4173 H   0  0  0  0  0  0  0  0  0  0  0  0
  139.1363   68.9382  227.2011 H   0  0  0  0  0  0  0  0  0  0  0  0
  139.5263   70.2427  229.2842 H   0  0  0  0  0  0  0  0  0  0  0  0
  140.8187   72.3479  229.2589 H   0  0  0  0  0  0  0  0  0  0  0  0
  141.7531   73.1806  227.0984 H   0  0  0  0  0  0  0  0  0  0  0  0
  141.3684   71.8927  225.0373 H   0  0  0  0  0  0  0  0  0  0  0  0
  1  2  1  0
  2  3  1  0
  3  4  1  0
  4  5  2  0
  4  6  1  0
  6  7  1  0
  7  8  1  0
  8  9  2  0
  8 10  1  0
 10 11  2  0
 11 12  1  0
 12 13  2  0
 13 14  1  0
 14 15  2  0
 15 16  1  0
 16 17  1  0
 16 18  1  0
 16 19  1  0
 15 20  1  0
 20 21  2  0
 21 22  1  0
 22 23  2  0
  2 24  1  0
 24 25  2  0
 25 26  1  0
 26 27  2  0
 27 28  1  0
 28 29  2  0
 23 10  1  0
 29 24  1  0
 22 13  1  0
  1 30  1  0
  1 31  1  0
  1 32  1  0
  2 33  1  6
  3 34  1  0
  6 35  1  0
  6 36  1  0
  7 37  1  0
 11 38  1  0
 12 39  1  0
 14 40  1  0
 20 41  1  0
 21 42  1  0
 25 43  1  0
 26 44  1  0
 27 45  1  0
 28 46  1  0
 29 47  1  0
M  END
>  <smiles>  (19) 
C[C@@H](NC(=O)CNC(=O)c1ccc2cc(C(F)(F)F)ccc2n1)c1ccccc1

>  <score_type>  (19) 
oracle

>  <origin>  (19) 
autodockgpu

>  <m_score__min__energy>  (19) 
-7.9900000000000002

>  <m_primary>  (19) 
energy

>  <rmsd>  (19) 
9.676008920099607

>  <m_score__min__rmsd>  (19) 
9.676008920099607

>  <meeko>  (19) 
{"free_energy": -7.95, "intermolecular_energy": -9.74, "internal_energy": -2.08, "cluster_size": 42, "cluster_id": 1, "rank_in_cluster": 6}

>  <energy>  (19) 
-7.92

>  <cluster_rmsd>  (19) 
0.68

>  <cluster>  (19) 
1

$$$$

     RDKit          3D

 47 49  0  0  0  0  0  0  0  0999 V2000
  139.0500   68.5460  224.9250 C   0  0  0  0  0  0  0  0  0  0  0  0
  140.0680   69.6130  224.6430 C   0  0  1  0  0  0  0  0  0  0  0  0
  139.5770   70.4690  223.5790 N   0  0  0  0  0  0  0  0  0  0  0  0
  138.2600   70.9910  223.5800 C   0  0  0  0  0  0  0  0  0  0  0  0
  137.4940   70.6960  224.5550 O   0  0  0  0  0  0  0  0  0  0  0  0
  137.6960   71.8620  222.5320 C   0  0  0  0  0  0  0  0  0  0  0  0
  138.3370   73.1260  222.3630 N   0  0  0  0  0  0  0  0  0  0  0  0
  139.6270   73.2610  221.7500 C   0  0  0  0  0  0  0  0  0  0  0  0
  140.2740   72.2690  221.3140 O   0  0  0  0  0  0  0  0  0  0  0  0
  140.2190   74.6110  221.6250 C   0  0  0  0  0  0  0  0  0  0  0  0
  141.3100   74.8040  220.8050 C   0  0  0  0  0  0  0  0  0  0  0  0
  141.8250   76.0800  220.7220 C   0  0  0  0  0  0  0  0  0  0  0  0
  141.3030   77.1540  221.4130 C   0  0  0  0  0  0  0  0  0  0  0  0
  141.8200   78.4310  221.3290 C   0  0  0  0  0  0  0  0  0  0  0  0
  141.2050   79.4230  222.0740 C   0  0  0  0  0  0  0  0  0  0  0  0
  141.7140   80.8340  222.0310 C   0  0  0  0  0  0  0  0  0  0  0  0
  143.0090   80.8590  222.5660 F   0  0  0  0  0  0  0  0  0  0  0  0
  141.8650   81.1860  220.7060 F   0  0  0  0  0  0  0  0  0  0  0  0
  140.8880   81.7000  222.7210 F   0  0  0  0  0  0  0  0  0  0  0  0
  140.1120   79.1770  222.8820 C   0  0  0  0  0  0  0  0  0  0  0  0
  139.5960   77.8990  222.9640 C   0  0  0  0  0  0  0  0  0  0  0  0
  140.2090   76.9080  222.2220 C   0  0  0  0  0  0  0  0  0  0  0  0
  139.7040   75.6630  222.3060 N   0  0  0  0  0  0  0  0  0  0  0  0
  140.2970   70.3650  225.9160 C   0  0  0  0  0  0  0  0  0  0  0  0
  141.0140   71.5540  225.9380 C   0  0  0  0  0  0  0  0  0  0  0  0
  141.1980   72.2150  227.1560 C   0  0  0  0  0  0  0  0  0  0  0  0
  140.6870   71.7220  228.3380 C   0  0  0  0  0  0  0  0  0  0  0  0
  139.9750   70.5420  228.3160 C   0  0  0  0  0  0  0  0  0  0  0  0
  139.7960   69.8900  227.1130 C   0  0  0  0  0  0  0  0  0  0  0  0
  138.9359   68.4264  226.0125 H   0  0  0  0  0  0  0  0  0  0  0  0
  138.0843   68.8349  224.4846 H   0  0  0  0  0  0  0  0  0  0  0  0
  139.3840   67.5950  224.4846 H   0  0  0  0  0  0  0  0  0  0  0  0
  141.0251   69.1897  224.3043 H   0  0  0  0  0  0  0  0  0  0  0  0
  140.2410   70.6940  222.8100 H   0  0  0  0  0  0  0  0  0  0  0  0
  137.7571   71.3221  221.5756 H   0  0  0  0  0  0  0  0  0  0  0  0
  136.6686   72.0888  222.8531 H   0  0  0  0  0  0  0  0  0  0  0  0
  137.8870   74.0360  222.6870 H   0  0  0  0  0  0  0  0  0  0  0  0
  141.7528   73.9716  220.2384 H   0  0  0  0  0  0  0  0  0  0  0  0
  142.6960   76.2505  220.0721 H   0  0  0  0  0  0  0  0  0  0  0  0
  142.6896   78.6528  220.6929 H   0  0  0  0  0  0  0  0  0  0  0  0
  139.6548   79.9955  223.4574 H   0  0  0  0  0  0  0  0  0  0  0  0
  138.7257   77.6773  223.5991 H   0  0  0  0  0  0  0  0  0  0  0  0
  141.4317   71.9702  225.0094 H   0  0  0  0  0  0  0  0  0  0  0  0
  141.7672   73.1561  227.1719 H   0  0  0  0  0  0  0  0  0  0  0  0
  140.8450   72.2618  229.2833 H   0  0  0  0  0  0  0  0  0  0  0  0
  139.5556   70.1260  229.2439 H   0  0  0  0  0  0  0  0  0  0  0  0
  139.2279   68.9481  227.1067 H   0  0  0  0  0  0  0  0  0  0  0  0
  1  2  1  0
  2  3  1  0
  3  4  1  0
  4  5  2  0
  4  6  1  0
  6  7  1  0
  7  8  1  0
  8  9  2  0
  8 10  1  0
 10 11  2  0
 11 12  1  0
 12 13  2  0
 13 14  1  0
 14 15  2  0
 15 16  1  0
 16 17  1  0
 16 18  1  0
 16 19  1  0
 15 20  1  0
 20 21  2  0
 21 22  1  0
 22 23  2  0
  2 24  1  0
 24 25  2  0
 25 26  1  0
 26 27  2  0
 27 28  1  0
 28 29  2  0
 23 10  1  0
 29 24  1  0
 22 13  1  0
  1 30  1  0
  1 31  1  0
  1 32  1  0
  2 33  1  6
  3 34  1  0
  6 35  1  0
  6 36  1  0
  7 37  1  0
 11 38  1  0
 12 39  1  0
 14 40  1  0
 20 41  1  0
 21 42  1  0
 25 43  1  0
 26 44  1  0
 27 45  1  0
 28 46  1  0
 29 47  1  0
M  END
>  <smiles>  (20) 
C[C@@H](NC(=O)CNC(=O)c1ccc2cc(C(F)(F)F)ccc2n1)c1ccccc1

>  <score_type>  (20) 
oracle

>  <origin>  (20) 
autodockgpu

>  <m_score__min__energy>  (20) 
-7.9900000000000002

>  <m_primary>  (20) 
energy

>  <rmsd>  (20) 
9.869887852947526

>  <m_score__min__rmsd>  (20) 
9.869887852947526

>  <meeko>  (20) 
{"free_energy": -7.93, "intermolecular_energy": -9.72, "internal_energy": -2.07, "cluster_size": 42, "cluster_id": 1, "rank_in_cluster": 12}

>  <energy>  (20) 
-7.92

>  <cluster_rmsd>  (20) 
0.68

>  <cluster>  (20) 
1

$$$$

     RDKit          3D

 47 49  0  0  0  0  0  0  0  0999 V2000
  139.0510   68.5350  224.9420 C   0  0  0  0  0  0  0  0  0  0  0  0
  140.0720   69.5970  224.6500 C   0  0  1  0  0  0  0  0  0  0  0  0
  139.5820   70.4460  223.5800 N   0  0  0  0  0  0  0  0  0  0  0  0
  138.2740   70.9900  223.5900 C   0  0  0  0  0  0  0  0  0  0  0  0
  137.5150   70.7210  224.5780 O   0  0  0  0  0  0  0  0  0  0  0  0
  137.7110   71.8550  222.5360 C   0  0  0  0  0  0  0  0  0  0  0  0
  138.3470   73.1220  222.3680 N   0  0  0  0  0  0  0  0  0  0  0  0
  139.6470   73.2610  221.7790 C   0  0  0  0  0  0  0  0  0  0  0  0
  140.3100   72.2690  221.3650 O   0  0  0  0  0  0  0  0  0  0  0  0
  140.2320   74.6140  221.6530 C   0  0  0  0  0  0  0  0  0  0  0  0
  141.3170   74.8130  220.8270 C   0  0  0  0  0  0  0  0  0  0  0  0
  141.8260   76.0930  220.7440 C   0  0  0  0  0  0  0  0  0  0  0  0
  141.3030   77.1630  221.4400 C   0  0  0  0  0  0  0  0  0  0  0  0
  141.8140   78.4420  221.3550 C   0  0  0  0  0  0  0  0  0  0  0  0
  141.1970   79.4290  222.1040 C   0  0  0  0  0  0  0  0  0  0  0  0
  141.7000   80.8440  222.0610 C   0  0  0  0  0  0  0  0  0  0  0  0
  140.9700   81.6050  222.9840 F   0  0  0  0  0  0  0  0  0  0  0  0
  142.9940   80.8440  222.5350 F   0  0  0  0  0  0  0  0  0  0  0  0
  141.5960   81.3870  220.7940 F   0  0  0  0  0  0  0  0  0  0  0  0
  140.1100   79.1780  222.9180 C   0  0  0  0  0  0  0  0  0  0  0  0
  139.6010   77.8960  223.0010 C   0  0  0  0  0  0  0  0  0  0  0  0
  140.2140   76.9100  222.2540 C   0  0  0  0  0  0  0  0  0  0  0  0
  139.7150   75.6630  222.3380 N   0  0  0  0  0  0  0  0  0  0  0  0
  140.3060   70.3580  225.9160 C   0  0  0  0  0  0  0  0  0  0  0  0
  141.0260   71.5450  225.9280 C   0  0  0  0  0  0  0  0  0  0  0  0
  141.2140   72.2140  227.1400 C   0  0  0  0  0  0  0  0  0  0  0  0
  140.7040   71.7330  228.3270 C   0  0  0  0  0  0  0  0  0  0  0  0
  139.9890   70.5540  228.3160 C   0  0  0  0  0  0  0  0  0  0  0  0
  139.8050   69.8940  227.1190 C   0  0  0  0  0  0  0  0  0  0  0  0
  138.9415   68.4211  226.0306 H   0  0  0  0  0  0  0  0  0  0  0  0
  138.0844   68.8255  224.5046 H   0  0  0  0  0  0  0  0  0  0  0  0
  139.3793   67.5806  224.5046 H   0  0  0  0  0  0  0  0  0  0  0  0
  141.0272   69.1679  224.3132 H   0  0  0  0  0  0  0  0  0  0  0  0
  140.2400   70.6490  222.8000 H   0  0  0  0  0  0  0  0  0  0  0  0
  137.7806   71.3130  221.5813 H   0  0  0  0  0  0  0  0  0  0  0  0
  136.6803   72.0768  222.8498 H   0  0  0  0  0  0  0  0  0  0  0  0
  137.8840   74.0320  222.6750 H   0  0  0  0  0  0  0  0  0  0  0  0
  141.7601   73.9838  220.2560 H   0  0  0  0  0  0  0  0  0  0  0  0
  142.6926   76.2690  220.0898 H   0  0  0  0  0  0  0  0  0  0  0  0
  142.6798   78.6688  220.7155 H   0  0  0  0  0  0  0  0  0  0  0  0
  139.6521   79.9937  223.4968 H   0  0  0  0  0  0  0  0  0  0  0  0
  138.7359   77.6686  223.6412 H   0  0  0  0  0  0  0  0  0  0  0  0
  141.4429   71.9533  224.9956 H   0  0  0  0  0  0  0  0  0  0  0  0
  141.7865   73.1533  227.1474 H   0  0  0  0  0  0  0  0  0  0  0  0
  140.8648   72.2807  229.2673 H   0  0  0  0  0  0  0  0  0  0  0  0
  139.5715   70.1458  229.2482 H   0  0  0  0  0  0  0  0  0  0  0  0
  139.2329   68.9545  227.1211 H   0  0  0  0  0  0  0  0  0  0  0  0
  1  2  1  0
  2  3  1  0
  3  4  1  0
  4  5  2  0
  4  6  1  0
  6  7  1  0
  7  8  1  0
  8  9  2  0
  8 10  1  0
 10 11  2  0
 11 12  1  0
 12 13  2  0
 13 14  1  0
 14 15  2  0
 15 16  1  0
 16 17  1  0
 16 18  1  0
 16 19  1  0
 15 20  1  0
 20 21  2  0
 21 22  1  0
 22 23  2  0
  2 24  1  0
 24 25  2  0
 25 26  1  0
 26 27  2  0
 27 28  1  0
 28 29  2  0
 23 10  1  0
 29 24  1  0
 22 13  1  0
  1 30  1  0
  1 31  1  0
  1 32  1  0
  2 33  1  6
  3 34  1  0
  6 35  1  0
  6 36  1  0
  7 37  1  0
 11 38  1  0
 12 39  1  0
 14 40  1  0
 20 41  1  0
 21 42  1  0
 25 43  1  0
 26 44  1  0
 27 45  1  0
 28 46  1  0
 29 47  1  0
M  END
>  <smiles>  (21) 
C[C@@H](NC(=O)CNC(=O)c1ccc2cc(C(F)(F)F)ccc2n1)c1ccccc1

>  <score_type>  (21) 
oracle

>  <origin>  (21) 
autodockgpu

>  <m_score__min__energy>  (21) 
-7.9900000000000002

>  <m_primary>  (21) 
energy

>  <rmsd>  (21) 
9.871327073964054

>  <m_score__min__rmsd>  (21) 
9.871327073964054

>  <meeko>  (21) 
{"free_energy": -7.93, "intermolecular_energy": -9.72, "internal_energy": -2.09, "cluster_size": 42, "cluster_id": 1, "rank_in_cluster": 17}

>  <energy>  (21) 
-7.92

>  <cluster_rmsd>  (21) 
0.74

>  <cluster>  (21) 
1

$$$$

     RDKit          3D

 47 49  0  0  0  0  0  0  0  0999 V2000
  137.9810   69.1210  224.4790 C   0  0  0  0  0  0  0  0  0  0  0  0
  138.9700   70.2360  224.2960 C   0  0  1  0  0  0  0  0  0  0  0  0
  138.2630   71.4360  223.8850 N   0  0  0  0  0  0  0  0  0  0  0  0
  137.6640   71.5550  222.6070 C   0  0  0  0  0  0  0  0  0  0  0  0
  137.7510   70.5700  221.8040 O   0  0  0  0  0  0  0  0  0  0  0  0
  136.9350   72.7440  222.1240 C   0  0  0  0  0  0  0  0  0  0  0  0
  137.5810   73.9980  222.3410 N   0  0  0  0  0  0  0  0  0  0  0  0
  136.8850   75.2500  222.2530 C   0  0  0  0  0  0  0  0  0  0  0  0
  135.6550   75.3200  221.9820 O   0  0  0  0  0  0  0  0  0  0  0  0
  137.6390   76.5020  222.4860 C   0  0  0  0  0  0  0  0  0  0  0  0
  136.9540   77.6810  222.6900 C   0  0  0  0  0  0  0  0  0  0  0  0
  137.7020   78.8200  222.9020 C   0  0  0  0  0  0  0  0  0  0  0  0
  139.0800   78.8300  222.9190 C   0  0  0  0  0  0  0  0  0  0  0  0
  139.8260   79.9720  223.1320 C   0  0  0  0  0  0  0  0  0  0  0  0
  141.2050   79.8480  223.1250 C   0  0  0  0  0  0  0  0  0  0  0  0
  142.0790   81.0480  223.3490 C   0  0  0  0  0  0  0  0  0  0  0  0
  141.7680   82.0130  222.3830 F   0  0  0  0  0  0  0  0  0  0  0  0
  141.7150   81.6120  224.5530 F   0  0  0  0  0  0  0  0  0  0  0  0
  143.4210   80.7230  223.2970 F   0  0  0  0  0  0  0  0  0  0  0  0
  141.8440   78.6410  222.9140 C   0  0  0  0  0  0  0  0  0  0  0  0
  141.0950   77.5000  222.7020 C   0  0  0  0  0  0  0  0  0  0  0  0
  139.7190   77.6210  222.7090 C   0  0  0  0  0  0  0  0  0  0  0  0
  138.9930   76.5070  222.5010 N   0  0  0  0  0  0  0  0  0  0  0  0
  139.6880   70.4180  225.5960 C   0  0  0  0  0  0  0  0  0  0  0  0
  140.4910   71.5260  225.8330 C   0  0  0  0  0  0  0  0  0  0  0  0
  141.1390   71.6450  227.0660 C   0  0  0  0  0  0  0  0  0  0  0  0
  141.0050   70.6950  228.0560 C   0  0  0  0  0  0  0  0  0  0  0  0
  140.2080   69.5950  227.8200 C   0  0  0  0  0  0  0  0  0  0  0  0
  139.5700   69.4790  226.6030 C   0  0  0  0  0  0  0  0  0  0  0  0
  137.8234   68.9433  225.5530 H   0  0  0  0  0  0  0  0  0  0  0  0
  137.0257   69.3974  224.0090 H   0  0  0  0  0  0  0  0  0  0  0  0
  138.3695   68.2055  224.0090 H   0  0  0  0  0  0  0  0  0  0  0  0
  139.7073   70.0084  223.5121 H   0  0  0  0  0  0  0  0  0  0  0  0
  138.2060   72.2100  224.5780 H   0  0  0  0  0  0  0  0  0  0  0  0
  136.7786   72.6276  221.0414 H   0  0  0  0  0  0  0  0  0  0  0  0
  136.0039   72.7820  222.7084 H   0  0  0  0  0  0  0  0  0  0  0  0
  138.6170   74.0670  222.5810 H   0  0  0  0  0  0  0  0  0  0  0  0
  135.8544   77.7119  222.6839 H   0  0  0  0  0  0  0  0  0  0  0  0
  137.1714   79.7695  223.0660 H   0  0  0  0  0  0  0  0  0  0  0  0
  139.3423   80.9453  223.3012 H   0  0  0  0  0  0  0  0  0  0  0  0
  142.9428   78.5892  222.9149 H   0  0  0  0  0  0  0  0  0  0  0  0
  141.5786   76.5265  222.5331 H   0  0  0  0  0  0  0  0  0  0  0  0
  140.6155   72.2996  225.0609 H   0  0  0  0  0  0  0  0  0  0  0  0
  141.7750   72.5231  227.2518 H   0  0  0  0  0  0  0  0  0  0  0  0
  141.5252   70.8126  229.0180 H   0  0  0  0  0  0  0  0  0  0  0  0
  140.0828   68.8210  228.5915 H   0  0  0  0  0  0  0  0  0  0  0  0
  138.9371   68.5971  226.4253 H   0  0  0  0  0  0  0  0  0  0  0  0
  1  2  1  0
  2  3  1  0
  3  4  1  0
  4  5  2  0
  4  6  1  0
  6  7  1  0
  7  8  1  0
  8  9  2  0
  8 10  1  0
 10 11  2  0
 11 12  1  0
 12 13  2  0
 13 14  1  0
 14 15  2  0
 15 16  1  0
 16 17  1  0
 16 18  1  0
 16 19  1  0
 15 20  1  0
 20 21  2  0
 21 22  1  0
 22 23  2  0
  2 24  1  0
 24 25  2  0
 25 26  1  0
 26 27  2  0
 27 28  1  0
 28 29  2  0
 23 10  1  0
 29 24  1  0
 22 13  1  0
  1 30  1  0
  1 31  1  0
  1 32  1  0
  2 33  1  6
  3 34  1  0
  6 35  1  0
  6 36  1  0
  7 37  1  0
 11 38  1  0
 12 39  1  0
 14 40  1  0
 20 41  1  0
 21 42  1  0
 25 43  1  0
 26 44  1  0
 27 45  1  0
 28 46  1  0
 29 47  1  0
M  END
>  <smiles>  (22) 
C[C@@H](NC(=O)CNC(=O)c1ccc2cc(C(F)(F)F)ccc2n1)c1ccccc1

>  <score_type>  (22) 
oracle

>  <origin>  (22) 
autodockgpu

>  <m_score__min__energy>  (22) 
-7.9900000000000002

>  <m_primary>  (22) 
energy

>  <rmsd>  (22) 
10.084038312697214

>  <m_score__min__rmsd>  (22) 
10.084038312697214

>  <meeko>  (22) 
{"free_energy": -7.86, "intermolecular_energy": -9.65, "internal_energy": -1.26, "cluster_size": 42, "cluster_id": 1, "rank_in_cluster": 31}

>  <energy>  (22) 
-7.92

>  <cluster_rmsd>  (22) 
0.67

>  <cluster>  (22) 
1

$$$$

     RDKit          3D

 47 49  0  0  0  0  0  0  0  0999 V2000
  139.0430   68.5280  224.8930 C   0  0  0  0  0  0  0  0  0  0  0  0
  140.0610   69.5950  224.6070 C   0  0  1  0  0  0  0  0  0  0  0  0
  139.5640   70.4530  223.5470 N   0  0  0  0  0  0  0  0  0  0  0  0
  138.2480   70.9780  223.5580 C   0  0  0  0  0  0  0  0  0  0  0  0
  137.4890   70.6840  224.5370 O   0  0  0  0  0  0  0  0  0  0  0  0
  137.6790   71.8510  222.5140 C   0  0  0  0  0  0  0  0  0  0  0  0
  138.3220   73.1140  222.3430 N   0  0  0  0  0  0  0  0  0  0  0  0
  139.6090   73.2470  221.7220 C   0  0  0  0  0  0  0  0  0  0  0  0
  140.2510   72.2530  221.2820 O   0  0  0  0  0  0  0  0  0  0  0  0
  140.2030   74.5960  221.5940 C   0  0  0  0  0  0  0  0  0  0  0  0
  141.2950   74.7850  220.7750 C   0  0  0  0  0  0  0  0  0  0  0  0
  141.8120   76.0600  220.6900 C   0  0  0  0  0  0  0  0  0  0  0  0
  141.2920   77.1360  221.3780 C   0  0  0  0  0  0  0  0  0  0  0  0
  141.8110   78.4120  221.2910 C   0  0  0  0  0  0  0  0  0  0  0  0
  141.1960   79.4060  222.0330 C   0  0  0  0  0  0  0  0  0  0  0  0
  141.7080   80.8170  221.9870 C   0  0  0  0  0  0  0  0  0  0  0  0
  142.9700   80.8550  222.5940 F   0  0  0  0  0  0  0  0  0  0  0  0
  141.9330   81.1390  220.6660 F   0  0  0  0  0  0  0  0  0  0  0  0
  140.8440   81.6980  222.6090 F   0  0  0  0  0  0  0  0  0  0  0  0
  140.1020   79.1650  222.8400 C   0  0  0  0  0  0  0  0  0  0  0  0
  139.5840   77.8870  222.9250 C   0  0  0  0  0  0  0  0  0  0  0  0
  140.1960   76.8940  222.1860 C   0  0  0  0  0  0  0  0  0  0  0  0
  139.6890   75.6500  222.2720 N   0  0  0  0  0  0  0  0  0  0  0  0
  140.2980   70.3440  225.8790 C   0  0  0  0  0  0  0  0  0  0  0  0
  141.0050   71.5390  225.8980 C   0  0  0  0  0  0  0  0  0  0  0  0
  141.1960   72.1970  227.1160 C   0  0  0  0  0  0  0  0  0  0  0  0
  140.7040   71.6960  228.3020 C   0  0  0  0  0  0  0  0  0  0  0  0
  140.0020   70.5090  228.2840 C   0  0  0  0  0  0  0  0  0  0  0  0
  139.8140   69.8610  227.0810 C   0  0  0  0  0  0  0  0  0  0  0  0
  138.9308   68.4104  225.9809 H   0  0  0  0  0  0  0  0  0  0  0  0
  138.0765   68.8161  224.4538 H   0  0  0  0  0  0  0  0  0  0  0  0
  139.3762   67.5761  224.4538 H   0  0  0  0  0  0  0  0  0  0  0  0
  141.0160   69.1718  224.2624 H   0  0  0  0  0  0  0  0  0  0  0  0
  140.2230   70.6770  222.7740 H   0  0  0  0  0  0  0  0  0  0  0  0
  137.7334   71.3121  221.5566 H   0  0  0  0  0  0  0  0  0  0  0  0
  136.6538   72.0791  222.8409 H   0  0  0  0  0  0  0  0  0  0  0  0
  137.8760   74.0250  222.6700 H   0  0  0  0  0  0  0  0  0  0  0  0
  141.7371   73.9506  220.2108 H   0  0  0  0  0  0  0  0  0  0  0  0
  142.6837   76.2276  220.0403 H   0  0  0  0  0  0  0  0  0  0  0  0
  142.6815   78.6312  220.6553 H   0  0  0  0  0  0  0  0  0  0  0  0
  139.6453   79.9860  223.4121 H   0  0  0  0  0  0  0  0  0  0  0  0
  138.7131   77.6678  223.5602 H   0  0  0  0  0  0  0  0  0  0  0  0
  141.4094   71.9621  224.9666 H   0  0  0  0  0  0  0  0  0  0  0  0
  141.7561   73.1436  227.1286 H   0  0  0  0  0  0  0  0  0  0  0  0
  140.8685   72.2340  229.2473 H   0  0  0  0  0  0  0  0  0  0  0  0
  139.5980   70.0853  229.2153 H   0  0  0  0  0  0  0  0  0  0  0  0
  139.2524   68.9152  227.0775 H   0  0  0  0  0  0  0  0  0  0  0  0
  1  2  1  0
  2  3  1  0
  3  4  1  0
  4  5  2  0
  4  6  1  0
  6  7  1  0
  7  8  1  0
  8  9  2  0
  8 10  1  0
 10 11  2  0
 11 12  1  0
 12 13  2  0
 13 14  1  0
 14 15  2  0
 15 16  1  0
 16 17  1  0
 16 18  1  0
 16 19  1  0
 15 20  1  0
 20 21  2  0
 21 22  1  0
 22 23  2  0
  2 24  1  0
 24 25  2  0
 25 26  1  0
 26 27  2  0
 27 28  1  0
 28 29  2  0
 23 10  1  0
 29 24  1  0
 22 13  1  0
  1 30  1  0
  1 31  1  0
  1 32  1  0
  2 33  1  6
  3 34  1  0
  6 35  1  0
  6 36  1  0
  7 37  1  0
 11 38  1  0
 12 39  1  0
 14 40  1  0
 20 41  1  0
 21 42  1  0
 25 43  1  0
 26 44  1  0
 27 45  1  0
 28 46  1  0
 29 47  1  0
M  END
>  <smiles>  (23) 
C[C@@H](NC(=O)CNC(=O)c1ccc2cc(C(F)(F)F)ccc2n1)c1ccccc1

>  <score_type>  (23) 
oracle

>  <origin>  (23) 
autodockgpu

>  <m_score__min__energy>  (23) 
-7.9900000000000002

>  <m_primary>  (23) 
energy

>  <rmsd>  (23) 
9.87422825095667

>  <m_score__min__rmsd>  (23) 
9.87422825095667

>  <meeko>  (23) 
{"free_energy": -7.91, "intermolecular_energy": -9.7, "internal_energy": -2.07, "cluster_size": 42, "cluster_id": 1, "rank_in_cluster": 27}

>  <energy>  (23) 
-7.92

>  <cluster_rmsd>  (23) 
0.68

>  <cluster>  (23) 
1

$$$$

     RDKit          3D

 47 49  0  0  0  0  0  0  0  0999 V2000
  138.8530   68.1580  225.4830 C   0  0  0  0  0  0  0  0  0  0  0  0
  139.9690   69.0250  224.9750 C   0  0  1  0  0  0  0  0  0  0  0  0
  139.5630   69.6370  223.7220 N   0  0  0  0  0  0  0  0  0  0  0  0
  138.3520   70.3600  223.5960 C   0  0  0  0  0  0  0  0  0  0  0  0
  137.6060   70.4740  224.6230 O   0  0  0  0  0  0  0  0  0  0  0  0
  137.8780   71.0020  222.3560 C   0  0  0  0  0  0  0  0  0  0  0  0
  138.4690   72.2640  222.0450 N   0  0  0  0  0  0  0  0  0  0  0  0
  139.8890   72.4640  222.0170 C   0  0  0  0  0  0  0  0  0  0  0  0
  140.7070   71.5340  222.2600 O   0  0  0  0  0  0  0  0  0  0  0  0
  140.4130   73.8100  221.6930 C   0  0  0  0  0  0  0  0  0  0  0  0
  141.4460   73.9400  220.7900 C   0  0  0  0  0  0  0  0  0  0  0  0
  141.8990   75.2140  220.5220 C   0  0  0  0  0  0  0  0  0  0  0  0
  141.3700   76.3450  221.1080 C   0  0  0  0  0  0  0  0  0  0  0  0
  141.8250   77.6200  220.8370 C   0  0  0  0  0  0  0  0  0  0  0  0
  141.2090   78.6730  221.4930 C   0  0  0  0  0  0  0  0  0  0  0  0
  141.6520   80.0860  221.2470 C   0  0  0  0  0  0  0  0  0  0  0  0
  142.0680   80.1990  219.9140 F   0  0  0  0  0  0  0  0  0  0  0  0
  140.5430   80.8970  221.3490 F   0  0  0  0  0  0  0  0  0  0  0  0
  142.6680   80.4630  222.1050 F   0  0  0  0  0  0  0  0  0  0  0  0
  140.1750   78.4890  222.3900 C   0  0  0  0  0  0  0  0  0  0  0  0
  139.7220   77.2130  222.6590 C   0  0  0  0  0  0  0  0  0  0  0  0
  140.3350   76.1610  222.0060 C   0  0  0  0  0  0  0  0  0  0  0  0
  139.8910   74.9180  222.2710 N   0  0  0  0  0  0  0  0  0  0  0  0
  140.2670   70.0400  226.0320 C   0  0  0  0  0  0  0  0  0  0  0  0
  141.0680   71.1450  225.7720 C   0  0  0  0  0  0  0  0  0  0  0  0
  141.3130   72.0630  226.7980 C   0  0  0  0  0  0  0  0  0  0  0  0
  140.7840   71.9050  228.0610 C   0  0  0  0  0  0  0  0  0  0  0  0
  139.9900   70.8080  228.3190 C   0  0  0  0  0  0  0  0  0  0  0  0
  139.7490   69.9030  227.3060 C   0  0  0  0  0  0  0  0  0  0  0  0
  138.8576   68.1615  226.5830 H   0  0  0  0  0  0  0  0  0  0  0  0
  137.8910   68.5480  225.1191 H   0  0  0  0  0  0  0  0  0  0  0  0
  138.9930   67.1294  225.1191 H   0  0  0  0  0  0  0  0  0  0  0  0
  140.8818   68.4454  224.7728 H   0  0  0  0  0  0  0  0  0  0  0  0
  140.2100   69.5290  222.9140 H   0  0  0  0  0  0  0  0  0  0  0  0
  138.0855   70.3171  221.5206 H   0  0  0  0  0  0  0  0  0  0  0  0
  136.8082   71.2037  222.5139 H   0  0  0  0  0  0  0  0  0  0  0  0
  137.8810   73.1230  221.8190 H   0  0  0  0  0  0  0  0  0  0  0  0
  141.8919   73.0608  220.3019 H   0  0  0  0  0  0  0  0  0  0  0  0
  142.7241   75.3348  219.8046 H   0  0  0  0  0  0  0  0  0  0  0  0
  142.6465   77.7932  220.1263 H   0  0  0  0  0  0  0  0  0  0  0  0
  139.7146   79.3552  222.8877 H   0  0  0  0  0  0  0  0  0  0  0  0
  138.9004   77.0396  223.3695 H   0  0  0  0  0  0  0  0  0  0  0  0
  141.5033   71.2956  224.7731 H   0  0  0  0  0  0  0  0  0  0  0  0
  141.9471   72.9377  226.5909 H   0  0  0  0  0  0  0  0  0  0  0  0
  140.9920   72.6424  228.8503 H   0  0  0  0  0  0  0  0  0  0  0  0
  139.5550   70.6565  229.3179 H   0  0  0  0  0  0  0  0  0  0  0  0
  139.1144   69.0310  227.5225 H   0  0  0  0  0  0  0  0  0  0  0  0
  1  2  1  0
  2  3  1  0
  3  4  1  0
  4  5  2  0
  4  6  1  0
  6  7  1  0
  7  8  1  0
  8  9  2  0
  8 10  1  0
 10 11  2  0
 11 12  1  0
 12 13  2  0
 13 14  1  0
 14 15  2  0
 15 16  1  0
 16 17  1  0
 16 18  1  0
 16 19  1  0
 15 20  1  0
 20 21  2  0
 21 22  1  0
 22 23  2  0
  2 24  1  0
 24 25  2  0
 25 26  1  0
 26 27  2  0
 27 28  1  0
 28 29  2  0
 23 10  1  0
 29 24  1  0
 22 13  1  0
  1 30  1  0
  1 31  1  0
  1 32  1  0
  2 33  1  6
  3 34  1  0
  6 35  1  0
  6 36  1  0
  7 37  1  0
 11 38  1  0
 12 39  1  0
 14 40  1  0
 20 41  1  0
 21 42  1  0
 25 43  1  0
 26 44  1  0
 27 45  1  0
 28 46  1  0
 29 47  1  0
M  END
>  <smiles>  (24) 
C[C@@H](NC(=O)CNC(=O)c1ccc2cc(C(F)(F)F)ccc2n1)c1ccccc1

>  <score_type>  (24) 
oracle

>  <origin>  (24) 
autodockgpu

>  <m_score__min__energy>  (24) 
-7.9900000000000002

>  <m_primary>  (24) 
energy

>  <rmsd>  (24) 
9.939705098118273

>  <m_score__min__rmsd>  (24) 
9.939705098118273

>  <meeko>  (24) 
{"free_energy": -7.56, "intermolecular_energy": -9.35, "internal_energy": -2.01, "cluster_size": 42, "cluster_id": 1, "rank_in_cluster": 38}

>  <energy>  (24) 
-7.91

>  <cluster_rmsd>  (24) 
0.7

>  <cluster>  (24) 
1

$$$$

     RDKit          3D

 47 49  0  0  0  0  0  0  0  0999 V2000
  139.0700   68.4720  224.9360 C   0  0  0  0  0  0  0  0  0  0  0  0
  140.0640   69.5680  224.6750 C   0  0  1  0  0  0  0  0  0  0  0  0
  139.5560   70.4280  223.6210 N   0  0  0  0  0  0  0  0  0  0  0  0
  138.2240   70.9090  223.6190 C   0  0  0  0  0  0  0  0  0  0  0  0
  137.4580   70.5730  224.5800 O   0  0  0  0  0  0  0  0  0  0  0  0
  137.6430   71.7820  222.5810 C   0  0  0  0  0  0  0  0  0  0  0  0
  138.2990   73.0350  222.3860 N   0  0  0  0  0  0  0  0  0  0  0  0
  139.5610   73.1480  221.7130 C   0  0  0  0  0  0  0  0  0  0  0  0
  140.1690   72.1450  221.2460 O   0  0  0  0  0  0  0  0  0  0  0  0
  140.1710   74.4870  221.5630 C   0  0  0  0  0  0  0  0  0  0  0  0
  141.2780   74.6460  220.7570 C   0  0  0  0  0  0  0  0  0  0  0  0
  141.8100   75.9140  220.6510 C   0  0  0  0  0  0  0  0  0  0  0  0
  141.2900   77.0110  221.3040 C   0  0  0  0  0  0  0  0  0  0  0  0
  141.8240   78.2790  221.1960 C   0  0  0  0  0  0  0  0  0  0  0  0
  141.2080   79.2970  221.9040 C   0  0  0  0  0  0  0  0  0  0  0  0
  141.7350   80.7010  221.8330 C   0  0  0  0  0  0  0  0  0  0  0  0
  141.8470   81.0690  220.4850 F   0  0  0  0  0  0  0  0  0  0  0  0
  140.7730   81.5370  222.3560 F   0  0  0  0  0  0  0  0  0  0  0  0
  142.9540   80.8250  222.4720 F   0  0  0  0  0  0  0  0  0  0  0  0
  140.0990   79.0860  222.6990 C   0  0  0  0  0  0  0  0  0  0  0  0
  139.5660   77.8160  222.8060 C   0  0  0  0  0  0  0  0  0  0  0  0
  140.1790   76.7990  222.1000 C   0  0  0  0  0  0  0  0  0  0  0  0
  139.6580   75.5630  222.2070 N   0  0  0  0  0  0  0  0  0  0  0  0
  140.2690   70.3050  225.9600 C   0  0  0  0  0  0  0  0  0  0  0  0
  139.7620   69.8260  227.1610 C   0  0  0  0  0  0  0  0  0  0  0  0
  139.9840   70.5560  228.3320 C   0  0  0  0  0  0  0  0  0  0  0  0
  140.6930   71.7380  228.3320 C   0  0  0  0  0  0  0  0  0  0  0  0
  141.1970   72.2140  227.1390 C   0  0  0  0  0  0  0  0  0  0  0  0
  140.9770   71.4920  225.9850 C   0  0  0  0  0  0  0  0  0  0  0  0
  138.9485   68.3380  226.0210 H   0  0  0  0  0  0  0  0  0  0  0  0
  138.1016   68.7412  224.4890 H   0  0  0  0  0  0  0  0  0  0  0  0
  139.4322   67.5344  224.4890 H   0  0  0  0  0  0  0  0  0  0  0  0
  141.0329   69.1739  224.3346 H   0  0  0  0  0  0  0  0  0  0  0  0
  140.2200   70.6880  222.8640 H   0  0  0  0  0  0  0  0  0  0  0  0
  137.6686   71.2353  221.6268 H   0  0  0  0  0  0  0  0  0  0  0  0
  136.6285   72.0263  222.9289 H   0  0  0  0  0  0  0  0  0  0  0  0
  137.8820   73.9520  222.7320 H   0  0  0  0  0  0  0  0  0  0  0  0
  141.7200   73.7943  220.2191 H   0  0  0  0  0  0  0  0  0  0  0  0
  142.6944   76.0573  220.0128 H   0  0  0  0  0  0  0  0  0  0  0  0
  142.7072   78.4739  220.5700 H   0  0  0  0  0  0  0  0  0  0  0  0
  139.6422   79.9249  223.2444 H   0  0  0  0  0  0  0  0  0  0  0  0
  138.6830   77.6211  223.4324 H   0  0  0  0  0  0  0  0  0  0  0  0
  139.1934   68.8848  227.1902 H   0  0  0  0  0  0  0  0  0  0  0  0
  139.5808   70.1758  229.2822 H   0  0  0  0  0  0  0  0  0  0  0  0
  140.8544   72.2929  229.2680 H   0  0  0  0  0  0  0  0  0  0  0  0
  141.7657   73.1551  227.1090 H   0  0  0  0  0  0  0  0  0  0  0  0
  141.3843   71.8790  225.0393 H   0  0  0  0  0  0  0  0  0  0  0  0
  1  2  1  0
  2  3  1  0
  3  4  1  0
  4  5  2  0
  4  6  1  0
  6  7  1  0
  7  8  1  0
  8  9  2  0
  8 10  1  0
 10 11  2  0
 11 12  1  0
 12 13  2  0
 13 14  1  0
 14 15  2  0
 15 16  1  0
 16 17  1  0
 16 18  1  0
 16 19  1  0
 15 20  1  0
 20 21  2  0
 21 22  1  0
 22 23  2  0
  2 24  1  0
 24 25  2  0
 25 26  1  0
 26 27  2  0
 27 28  1  0
 28 29  2  0
 23 10  1  0
 29 24  1  0
 22 13  1  0
  1 30  1  0
  1 31  1  0
  1 32  1  0
  2 33  1  6
  3 34  1  0
  6 35  1  0
  6 36  1  0
  7 37  1  0
 11 38  1  0
 12 39  1  0
 14 40  1  0
 20 41  1  0
 21 42  1  0
 25 43  1  0
 26 44  1  0
 27 45  1  0
 28 46  1  0
 29 47  1  0
M  END
>  <smiles>  (25) 
C[C@@H](NC(=O)CNC(=O)c1ccc2cc(C(F)(F)F)ccc2n1)c1ccccc1

>  <score_type>  (25) 
oracle

>  <origin>  (25) 
autodockgpu

>  <m_score__min__energy>  (25) 
-7.9900000000000002

>  <m_primary>  (25) 
energy

>  <rmsd>  (25) 
9.689613282058207

>  <m_score__min__rmsd>  (25) 
9.689613282058207

>  <meeko>  (25) 
{"free_energy": -7.92, "intermolecular_energy": -9.71, "internal_energy": -2.07, "cluster_size": 42, "cluster_id": 1, "rank_in_cluster": 18}

>  <energy>  (25) 
-7.91

>  <cluster_rmsd>  (25) 
0.68

>  <cluster>  (25) 
1

$$$$

     RDKit          3D

 47 49  0  0  0  0  0  0  0  0999 V2000
  139.0320   68.5440  224.9750 C   0  0  0  0  0  0  0  0  0  0  0  0
  140.0560   69.6040  224.6820 C   0  0  1  0  0  0  0  0  0  0  0  0
  139.5720   70.4460  223.6030 N   0  0  0  0  0  0  0  0  0  0  0  0
  138.2650   70.9930  223.6040 C   0  0  0  0  0  0  0  0  0  0  0  0
  137.5020   70.7350  224.5910 O   0  0  0  0  0  0  0  0  0  0  0  0
  137.7100   71.8520  222.5410 C   0  0  0  0  0  0  0  0  0  0  0  0
  138.3460   73.1180  222.3700 N   0  0  0  0  0  0  0  0  0  0  0  0
  139.6520   73.2540  221.7910 C   0  0  0  0  0  0  0  0  0  0  0  0
  140.3180   72.2600  221.3900 O   0  0  0  0  0  0  0  0  0  0  0  0
  140.2360   74.6070  221.6600 C   0  0  0  0  0  0  0  0  0  0  0  0
  141.3290   74.8010  220.8430 C   0  0  0  0  0  0  0  0  0  0  0  0
  141.8380   76.0800  220.7560 C   0  0  0  0  0  0  0  0  0  0  0  0
  141.3080   77.1540  221.4380 C   0  0  0  0  0  0  0  0  0  0  0  0
  141.8190   78.4330  221.3490 C   0  0  0  0  0  0  0  0  0  0  0  0
  141.1950   79.4260  222.0860 C   0  0  0  0  0  0  0  0  0  0  0  0
  141.6970   80.8400  222.0370 C   0  0  0  0  0  0  0  0  0  0  0  0
  142.9770   80.8800  222.6060 F   0  0  0  0  0  0  0  0  0  0  0  0
  141.8800   81.1740  220.7130 F   0  0  0  0  0  0  0  0  0  0  0  0
  140.8470   81.7100  222.6930 F   0  0  0  0  0  0  0  0  0  0  0  0
  140.1010   79.1790  222.8920 C   0  0  0  0  0  0  0  0  0  0  0  0
  139.5920   77.8980  222.9800 C   0  0  0  0  0  0  0  0  0  0  0  0
  140.2120   76.9060  222.2450 C   0  0  0  0  0  0  0  0  0  0  0  0
  139.7130   75.6600  222.3340 N   0  0  0  0  0  0  0  0  0  0  0  0
  140.2810   70.3730  225.9450 C   0  0  0  0  0  0  0  0  0  0  0  0
  141.0020   71.5600  225.9530 C   0  0  0  0  0  0  0  0  0  0  0  0
  141.1820   72.2380  227.1620 C   0  0  0  0  0  0  0  0  0  0  0  0
  140.6650   71.7640  228.3490 C   0  0  0  0  0  0  0  0  0  0  0  0
  139.9500   70.5850  228.3410 C   0  0  0  0  0  0  0  0  0  0  0  0
  139.7740   69.9170  227.1470 C   0  0  0  0  0  0  0  0  0  0  0  0
  138.9226   68.4308  226.0637 H   0  0  0  0  0  0  0  0  0  0  0  0
  138.0659   68.8367  224.5379 H   0  0  0  0  0  0  0  0  0  0  0  0
  139.3578   67.5886  224.5379 H   0  0  0  0  0  0  0  0  0  0  0  0
  141.0136   69.1734  224.3540 H   0  0  0  0  0  0  0  0  0  0  0  0
  140.2340   70.6410  222.8250 H   0  0  0  0  0  0  0  0  0  0  0  0
  137.7870   71.3045  221.5901 H   0  0  0  0  0  0  0  0  0  0  0  0
  136.6771   72.0754  222.8464 H   0  0  0  0  0  0  0  0  0  0  0  0
  137.8800   74.0300  222.6660 H   0  0  0  0  0  0  0  0  0  0  0  0
  141.7780   73.9681  220.2821 H   0  0  0  0  0  0  0  0  0  0  0  0
  142.7113   76.2515  220.1095 H   0  0  0  0  0  0  0  0  0  0  0  0
  142.6904   78.6557  220.7156 H   0  0  0  0  0  0  0  0  0  0  0  0
  139.6374   79.9983  223.4610 H   0  0  0  0  0  0  0  0  0  0  0  0
  138.7215   77.6750  223.6145 H   0  0  0  0  0  0  0  0  0  0  0  0
  141.4257   71.9612  225.0205 H   0  0  0  0  0  0  0  0  0  0  0  0
  141.7533   73.1780  227.1666 H   0  0  0  0  0  0  0  0  0  0  0  0
  140.8203   72.3173  229.2870 H   0  0  0  0  0  0  0  0  0  0  0  0
  139.5262   70.1830  229.2731 H   0  0  0  0  0  0  0  0  0  0  0  0
  139.2030   68.9768  227.1519 H   0  0  0  0  0  0  0  0  0  0  0  0
  1  2  1  0
  2  3  1  0
  3  4  1  0
  4  5  2  0
  4  6  1  0
  6  7  1  0
  7  8  1  0
  8  9  2  0
  8 10  1  0
 10 11  2  0
 11 12  1  0
 12 13  2  0
 13 14  1  0
 14 15  2  0
 15 16  1  0
 16 17  1  0
 16 18  1  0
 16 19  1  0
 15 20  1  0
 20 21  2  0
 21 22  1  0
 22 23  2  0
  2 24  1  0
 24 25  2  0
 25 26  1  0
 26 27  2  0
 27 28  1  0
 28 29  2  0
 23 10  1  0
 29 24  1  0
 22 13  1  0
  1 30  1  0
  1 31  1  0
  1 32  1  0
  2 33  1  6
  3 34  1  0
  6 35  1  0
  6 36  1  0
  7 37  1  0
 11 38  1  0
 12 39  1  0
 14 40  1  0
 20 41  1  0
 21 42  1  0
 25 43  1  0
 26 44  1  0
 27 45  1  0
 28 46  1  0
 29 47  1  0
M  END
>  <smiles>  (26) 
C[C@@H](NC(=O)CNC(=O)c1ccc2cc(C(F)(F)F)ccc2n1)c1ccccc1

>  <score_type>  (26) 
oracle

>  <origin>  (26) 
autodockgpu

>  <m_score__min__energy>  (26) 
-7.9900000000000002

>  <m_primary>  (26) 
energy

>  <rmsd>  (26) 
9.867109737191253

>  <m_score__min__rmsd>  (26) 
9.867109737191253

>  <meeko>  (26) 
{"free_energy": -7.92, "intermolecular_energy": -9.71, "internal_energy": -2.09, "cluster_size": 42, "cluster_id": 1, "rank_in_cluster": 22}

>  <energy>  (26) 
-7.91

>  <cluster_rmsd>  (26) 
0.74

>  <cluster>  (26) 
1

$$$$

     RDKit          3D

 47 49  0  0  0  0  0  0  0  0999 V2000
  138.9860   68.5050  224.9850 C   0  0  0  0  0  0  0  0  0  0  0  0
  140.0000   69.5780  224.7080 C   0  0  1  0  0  0  0  0  0  0  0  0
  139.5080   70.4320  223.6420 N   0  0  0  0  0  0  0  0  0  0  0  0
  138.1860   70.9390  223.6340 C   0  0  0  0  0  0  0  0  0  0  0  0
  137.4150   70.6330  224.6010 O   0  0  0  0  0  0  0  0  0  0  0  0
  137.6210   71.8070  222.5830 C   0  0  0  0  0  0  0  0  0  0  0  0
  138.2740   73.0620  222.3970 N   0  0  0  0  0  0  0  0  0  0  0  0
  139.5550   73.1790  221.7620 C   0  0  0  0  0  0  0  0  0  0  0  0
  140.1840   72.1770  221.3210 O   0  0  0  0  0  0  0  0  0  0  0  0
  140.1610   74.5220  221.6210 C   0  0  0  0  0  0  0  0  0  0  0  0
  141.2800   74.6850  220.8330 C   0  0  0  0  0  0  0  0  0  0  0  0
  141.8070   75.9560  220.7340 C   0  0  0  0  0  0  0  0  0  0  0  0
  141.2700   77.0510  221.3760 C   0  0  0  0  0  0  0  0  0  0  0  0
  141.7990   78.3220  221.2750 C   0  0  0  0  0  0  0  0  0  0  0  0
  141.1650   79.3380  221.9700 C   0  0  0  0  0  0  0  0  0  0  0  0
  141.6860   80.7450  221.9060 C   0  0  0  0  0  0  0  0  0  0  0  0
  142.9730   80.7700  222.4590 F   0  0  0  0  0  0  0  0  0  0  0  0
  141.8570   81.0680  220.5770 F   0  0  0  0  0  0  0  0  0  0  0  0
  140.8560   81.6300  222.5670 F   0  0  0  0  0  0  0  0  0  0  0  0
  140.0440   79.1220  222.7470 C   0  0  0  0  0  0  0  0  0  0  0  0
  139.5160   77.8490  222.8470 C   0  0  0  0  0  0  0  0  0  0  0  0
  140.1460   76.8340  222.1540 C   0  0  0  0  0  0  0  0  0  0  0  0
  139.6300   75.5960  222.2540 N   0  0  0  0  0  0  0  0  0  0  0  0
  140.2190   70.3310  225.9820 C   0  0  0  0  0  0  0  0  0  0  0  0
  139.7030   69.8790  227.1900 C   0  0  0  0  0  0  0  0  0  0  0  0
  139.9390   70.6230  228.3500 C   0  0  0  0  0  0  0  0  0  0  0  0
  140.6680   71.7920  228.3320 C   0  0  0  0  0  0  0  0  0  0  0  0
  141.1810   72.2400  227.1330 C   0  0  0  0  0  0  0  0  0  0  0  0
  140.9470   71.5060  225.9890 C   0  0  0  0  0  0  0  0  0  0  0  0
  138.8698   68.3821  226.0719 H   0  0  0  0  0  0  0  0  0  0  0  0
  138.0200   68.7905  224.5430 H   0  0  0  0  0  0  0  0  0  0  0  0
  139.3256   67.5567  224.5430 H   0  0  0  0  0  0  0  0  0  0  0  0
  140.9611   69.1601  224.3737 H   0  0  0  0  0  0  0  0  0  0  0  0
  140.1760   70.6660  222.8800 H   0  0  0  0  0  0  0  0  0  0  0  0
  137.6672   71.2581  221.6309 H   0  0  0  0  0  0  0  0  0  0  0  0
  136.5991   72.0476  222.9114 H   0  0  0  0  0  0  0  0  0  0  0  0
  137.8400   73.9790  222.7240 H   0  0  0  0  0  0  0  0  0  0  0  0
  141.7350   73.8348  220.3037 H   0  0  0  0  0  0  0  0  0  0  0  0
  142.7015   76.1031  220.1109 H   0  0  0  0  0  0  0  0  0  0  0  0
  142.6921   78.5206  220.6643 H   0  0  0  0  0  0  0  0  0  0  0  0
  139.5737   79.9592  223.2836 H   0  0  0  0  0  0  0  0  0  0  0  0
  138.6234   77.6506  223.4584 H   0  0  0  0  0  0  0  0  0  0  0  0
  139.1171   68.9490  227.2333 H   0  0  0  0  0  0  0  0  0  0  0  0
  139.5302   70.2641  229.3061 H   0  0  0  0  0  0  0  0  0  0  0  0
  140.8381   72.3588  229.2592 H   0  0  0  0  0  0  0  0  0  0  0  0
  141.7682   73.1691  227.0896 H   0  0  0  0  0  0  0  0  0  0  0  0
  141.3591   71.8729  225.0374 H   0  0  0  0  0  0  0  0  0  0  0  0
  1  2  1  0
  2  3  1  0
  3  4  1  0
  4  5  2  0
  4  6  1  0
  6  7  1  0
  7  8  1  0
  8  9  2  0
  8 10  1  0
 10 11  2  0
 11 12  1  0
 12 13  2  0
 13 14  1  0
 14 15  2  0
 15 16  1  0
 16 17  1  0
 16 18  1  0
 16 19  1  0
 15 20  1  0
 20 21  2  0
 21 22  1  0
 22 23  2  0
  2 24  1  0
 24 25  2  0
 25 26  1  0
 26 27  2  0
 27 28  1  0
 28 29  2  0
 23 10  1  0
 29 24  1  0
 22 13  1  0
  1 30  1  0
  1 31  1  0
  1 32  1  0
  2 33  1  6
  3 34  1  0
  6 35  1  0
  6 36  1  0
  7 37  1  0
 11 38  1  0
 12 39  1  0
 14 40  1  0
 20 41  1  0
 21 42  1  0
 25 43  1  0
 26 44  1  0
 27 45  1  0
 28 46  1  0
 29 47  1  0
M  END
>  <smiles>  (27) 
C[C@@H](NC(=O)CNC(=O)c1ccc2cc(C(F)(F)F)ccc2n1)c1ccccc1

>  <score_type>  (27) 
oracle

>  <origin>  (27) 
autodockgpu

>  <m_score__min__energy>  (27) 
-7.9900000000000002

>  <m_primary>  (27) 
energy

>  <rmsd>  (27) 
9.677972882675926

>  <m_score__min__rmsd>  (27) 
9.677972882675926

>  <meeko>  (27) 
{"free_energy": -7.93, "intermolecular_energy": -9.72, "internal_energy": -2.07, "cluster_size": 42, "cluster_id": 1, "rank_in_cluster": 15}

>  <energy>  (27) 
-7.91

>  <cluster_rmsd>  (27) 
0.68

>  <cluster>  (27) 
1

$$$$

     RDKit          3D

 47 49  0  0  0  0  0  0  0  0999 V2000
  139.0930   68.4840  224.9620 C   0  0  0  0  0  0  0  0  0  0  0  0
  140.0940   69.5710  224.6870 C   0  0  1  0  0  0  0  0  0  0  0  0
  139.5960   70.4140  223.6150 N   0  0  0  0  0  0  0  0  0  0  0  0
  138.2810   70.9390  223.6190 C   0  0  0  0  0  0  0  0  0  0  0  0
  137.5210   70.6580  224.6030 O   0  0  0  0  0  0  0  0  0  0  0  0
  137.7110   71.7970  222.5630 C   0  0  0  0  0  0  0  0  0  0  0  0
  138.3400   73.0660  222.3880 N   0  0  0  0  0  0  0  0  0  0  0  0
  139.6380   73.2090  221.7930 C   0  0  0  0  0  0  0  0  0  0  0  0
  140.3030   72.2190  221.3800 O   0  0  0  0  0  0  0  0  0  0  0  0
  140.2160   74.5640  221.6600 C   0  0  0  0  0  0  0  0  0  0  0  0
  141.3120   74.7610  220.8480 C   0  0  0  0  0  0  0  0  0  0  0  0
  141.8140   76.0420  220.7580 C   0  0  0  0  0  0  0  0  0  0  0  0
  141.2740   77.1170  221.4320 C   0  0  0  0  0  0  0  0  0  0  0  0
  141.7780   78.3980  221.3400 C   0  0  0  0  0  0  0  0  0  0  0  0
  141.1440   79.3910  222.0680 C   0  0  0  0  0  0  0  0  0  0  0  0
  141.6380   80.8070  222.0150 C   0  0  0  0  0  0  0  0  0  0  0  0
  142.9180   80.8560  222.5840 F   0  0  0  0  0  0  0  0  0  0  0  0
  141.8190   81.1400  220.6900 F   0  0  0  0  0  0  0  0  0  0  0  0
  140.7830   81.6740  222.6700 F   0  0  0  0  0  0  0  0  0  0  0  0
  140.0460   79.1410  222.8680 C   0  0  0  0  0  0  0  0  0  0  0  0
  139.5440   77.8580  222.9590 C   0  0  0  0  0  0  0  0  0  0  0  0
  140.1740   76.8660  222.2330 C   0  0  0  0  0  0  0  0  0  0  0  0
  139.6820   75.6170  222.3250 N   0  0  0  0  0  0  0  0  0  0  0  0
  140.2940   70.3310  225.9600 C   0  0  0  0  0  0  0  0  0  0  0  0
  139.7700   69.8810  227.1640 C   0  0  0  0  0  0  0  0  0  0  0  0
  139.9890   70.6310  228.3230 C   0  0  0  0  0  0  0  0  0  0  0  0
  140.7100   71.8060  228.3070 C   0  0  0  0  0  0  0  0  0  0  0  0
  141.2300   72.2530  227.1110 C   0  0  0  0  0  0  0  0  0  0  0  0
  141.0130   71.5110  225.9680 C   0  0  0  0  0  0  0  0  0  0  0  0
  138.9774   68.3584  226.0487 H   0  0  0  0  0  0  0  0  0  0  0  0
  138.1239   68.7574  224.5193 H   0  0  0  0  0  0  0  0  0  0  0  0
  139.4452   67.5406  224.5193 H   0  0  0  0  0  0  0  0  0  0  0  0
  141.0631   69.1664  224.3598 H   0  0  0  0  0  0  0  0  0  0  0  0
  140.2560   70.6270  222.8390 H   0  0  0  0  0  0  0  0  0  0  0  0
  137.7807   71.2514  221.6104 H   0  0  0  0  0  0  0  0  0  0  0  0
  136.6801   72.0151  222.8788 H   0  0  0  0  0  0  0  0  0  0  0  0
  137.8750   73.9750  222.6930 H   0  0  0  0  0  0  0  0  0  0  0  0
  141.7687   73.9283  220.2931 H   0  0  0  0  0  0  0  0  0  0  0  0
  142.6900   76.2153  220.1157 H   0  0  0  0  0  0  0  0  0  0  0  0
  142.6520   78.6226  220.7110 H   0  0  0  0  0  0  0  0  0  0  0  0
  139.5738   79.9603  223.4300 H   0  0  0  0  0  0  0  0  0  0  0  0
  138.6708   77.6332  223.5891 H   0  0  0  0  0  0  0  0  0  0  0  0
  139.1904   68.9470  227.2055 H   0  0  0  0  0  0  0  0  0  0  0  0
  139.5736   70.2730  229.2765 H   0  0  0  0  0  0  0  0  0  0  0  0
  140.8678   72.3776  229.2335 H   0  0  0  0  0  0  0  0  0  0  0  0
  141.8092   73.1872  227.0685 H   0  0  0  0  0  0  0  0  0  0  0  0
  141.4320   71.8760  225.0187 H   0  0  0  0  0  0  0  0  0  0  0  0
  1  2  1  0
  2  3  1  0
  3  4  1  0
  4  5  2  0
  4  6  1  0
  6  7  1  0
  7  8  1  0
  8  9  2  0
  8 10  1  0
 10 11  2  0
 11 12  1  0
 12 13  2  0
 13 14  1  0
 14 15  2  0
 15 16  1  0
 16 17  1  0
 16 18  1  0
 16 19  1  0
 15 20  1  0
 20 21  2  0
 21 22  1  0
 22 23  2  0
  2 24  1  0
 24 25  2  0
 25 26  1  0
 26 27  2  0
 27 28  1  0
 28 29  2  0
 23 10  1  0
 29 24  1  0
 22 13  1  0
  1 30  1  0
  1 31  1  0
  1 32  1  0
  2 33  1  6
  3 34  1  0
  6 35  1  0
  6 36  1  0
  7 37  1  0
 11 38  1  0
 12 39  1  0
 14 40  1  0
 20 41  1  0
 21 42  1  0
 25 43  1  0
 26 44  1  0
 27 45  1  0
 28 46  1  0
 29 47  1  0
M  END
>  <smiles>  (28) 
C[C@@H](NC(=O)CNC(=O)c1ccc2cc(C(F)(F)F)ccc2n1)c1ccccc1

>  <score_type>  (28) 
oracle

>  <origin>  (28) 
autodockgpu

>  <m_score__min__energy>  (28) 
-7.9900000000000002

>  <m_primary>  (28) 
energy

>  <rmsd>  (28) 
9.674091945014618

>  <m_score__min__rmsd>  (28) 
9.674091945014618

>  <meeko>  (28) 
{"free_energy": -7.91, "intermolecular_energy": -9.7, "internal_energy": -2.11, "cluster_size": 42, "cluster_id": 1, "rank_in_cluster": 25}

>  <energy>  (28) 
-7.9

>  <cluster_rmsd>  (28) 
0.25

>  <cluster>  (28) 
1

$$$$

     RDKit          3D

 47 49  0  0  0  0  0  0  0  0999 V2000
  138.4020   68.9630  225.2660 C   0  0  0  0  0  0  0  0  0  0  0  0
  139.4060   69.9970  224.8460 C   0  0  1  0  0  0  0  0  0  0  0  0
  138.7190   71.0760  224.1590 N   0  0  0  0  0  0  0  0  0  0  0  0
  138.4040   71.0090  222.7790 C   0  0  0  0  0  0  0  0  0  0  0  0
  138.7360   69.9620  222.1330 O   0  0  0  0  0  0  0  0  0  0  0  0
  137.7120   72.0670  222.0190 C   0  0  0  0  0  0  0  0  0  0  0  0
  138.3290   73.3540  222.0440 N   0  0  0  0  0  0  0  0  0  0  0  0
  139.5470   73.6390  221.3400 C   0  0  0  0  0  0  0  0  0  0  0  0
  140.1460   72.7690  220.6500 O   0  0  0  0  0  0  0  0  0  0  0  0
  140.1190   75.0000  221.4290 C   0  0  0  0  0  0  0  0  0  0  0  0
  141.2740   75.3000  220.7390 C   0  0  0  0  0  0  0  0  0  0  0  0
  141.7680   76.5820  220.8540 C   0  0  0  0  0  0  0  0  0  0  0  0
  141.1660   77.5600  221.6180 C   0  0  0  0  0  0  0  0  0  0  0  0
  141.6620   78.8430  221.7320 C   0  0  0  0  0  0  0  0  0  0  0  0
  140.9640   79.7330  222.5300 C   0  0  0  0  0  0  0  0  0  0  0  0
  141.4460   81.1440  222.7000 C   0  0  0  0  0  0  0  0  0  0  0  0
  141.8180   81.3310  224.0380 F   0  0  0  0  0  0  0  0  0  0  0  0
  142.6130   81.2790  221.9800 F   0  0  0  0  0  0  0  0  0  0  0  0
  140.4830   82.0640  222.3310 F   0  0  0  0  0  0  0  0  0  0  0  0
  139.8100   79.3820  223.2030 C   0  0  0  0  0  0  0  0  0  0  0  0
  139.3150   78.0970  223.0870 C   0  0  0  0  0  0  0  0  0  0  0  0
  140.0100   77.2080  222.2910 C   0  0  0  0  0  0  0  0  0  0  0  0
  139.5250   75.9580  222.1810 N   0  0  0  0  0  0  0  0  0  0  0  0
  140.1100   70.4680  226.0790 C   0  0  0  0  0  0  0  0  0  0  0  0
  140.2220   69.6610  227.2040 C   0  0  0  0  0  0  0  0  0  0  0  0
  140.8910   70.1530  228.3290 C   0  0  0  0  0  0  0  0  0  0  0  0
  141.4420   71.4150  228.3570 C   0  0  0  0  0  0  0  0  0  0  0  0
  141.3310   72.2170  227.2400 C   0  0  0  0  0  0  0  0  0  0  0  0
  140.6700   71.7310  226.1310 C   0  0  0  0  0  0  0  0  0  0  0  0
  138.3589   68.9186  226.3643 H   0  0  0  0  0  0  0  0  0  0  0  0
  137.4113   69.2320  224.8708 H   0  0  0  0  0  0  0  0  0  0  0  0
  138.7001   67.9807  224.8708 H   0  0  0  0  0  0  0  0  0  0  0  0
  140.1501   69.5878  224.1468 H   0  0  0  0  0  0  0  0  0  0  0  0
  138.4550   71.9050  224.7290 H   0  0  0  0  0  0  0  0  0  0  0  0
  137.6494   71.7430  220.9697 H   0  0  0  0  0  0  0  0  0  0  0  0
  136.7343   72.1946  222.5066 H   0  0  0  0  0  0  0  0  0  0  0  0
  137.9140   74.1700  222.5890 H   0  0  0  0  0  0  0  0  0  0  0  0
  141.7820   74.5455  220.1204 H   0  0  0  0  0  0  0  0  0  0  0  0
  142.6886   76.8378  220.3090 H   0  0  0  0  0  0  0  0  0  0  0  0
  142.5796   79.1475  221.2072 H   0  0  0  0  0  0  0  0  0  0  0  0
  139.2878   80.1214  223.8280 H   0  0  0  0  0  0  0  0  0  0  0  0
  138.3974   77.7923  223.6116 H   0  0  0  0  0  0  0  0  0  0  0  0
  139.7905   68.6492  227.2098 H   0  0  0  0  0  0  0  0  0  0  0  0
  140.9800   69.5125  229.2189 H   0  0  0  0  0  0  0  0  0  0  0  0
  141.9623   71.7777  229.2557 H   0  0  0  0  0  0  0  0  0  0  0  0
  141.7630   73.2286  227.2338 H   0  0  0  0  0  0  0  0  0  0  0  0
  140.5844   72.3790  225.2462 H   0  0  0  0  0  0  0  0  0  0  0  0
  1  2  1  0
  2  3  1  0
  3  4  1  0
  4  5  2  0
  4  6  1  0
  6  7  1  0
  7  8  1  0
  8  9  2  0
  8 10  1  0
 10 11  2  0
 11 12  1  0
 12 13  2  0
 13 14  1  0
 14 15  2  0
 15 16  1  0
 16 17  1  0
 16 18  1  0
 16 19  1  0
 15 20  1  0
 20 21  2  0
 21 22  1  0
 22 23  2  0
  2 24  1  0
 24 25  2  0
 25 26  1  0
 26 27  2  0
 27 28  1  0
 28 29  2  0
 23 10  1  0
 29 24  1  0
 22 13  1  0
  1 30  1  0
  1 31  1  0
  1 32  1  0
  2 33  1  6
  3 34  1  0
  6 35  1  0
  6 36  1  0
  7 37  1  0
 11 38  1  0
 12 39  1  0
 14 40  1  0
 20 41  1  0
 21 42  1  0
 25 43  1  0
 26 44  1  0
 27 45  1  0
 28 46  1  0
 29 47  1  0
M  END
>  <smiles>  (29) 
C[C@@H](NC(=O)CNC(=O)c1ccc2cc(C(F)(F)F)ccc2n1)c1ccccc1

>  <score_type>  (29) 
oracle

>  <origin>  (29) 
autodockgpu

>  <m_score__min__energy>  (29) 
-7.9900000000000002

>  <m_primary>  (29) 
energy

>  <rmsd>  (29) 
9.746039989146976

>  <m_score__min__rmsd>  (29) 
9.746039989146976

>  <meeko>  (29) 
{"free_energy": -7.95, "intermolecular_energy": -9.74, "internal_energy": -1.43, "cluster_size": 42, "cluster_id": 1, "rank_in_cluster": 7}

>  <energy>  (29) 
-7.89

>  <cluster_rmsd>  (29) 
0.98

>  <cluster>  (29) 
1

$$$$

     RDKit          3D

 47 49  0  0  0  0  0  0  0  0999 V2000
  139.4510   68.2840  225.4030 C   0  0  0  0  0  0  0  0  0  0  0  0
  140.3470   69.4590  225.1330 C   0  0  1  0  0  0  0  0  0  0  0  0
  139.8500   70.1780  223.9740 N   0  0  0  0  0  0  0  0  0  0  0  0
  138.5150   70.6460  223.8940 C   0  0  0  0  0  0  0  0  0  0  0  0
  137.7380   70.4260  224.8790 O   0  0  0  0  0  0  0  0  0  0  0  0
  137.9450   71.3790  222.7480 C   0  0  0  0  0  0  0  0  0  0  0  0
  138.5460   72.6400  222.4570 N   0  0  0  0  0  0  0  0  0  0  0  0
  139.8460   72.7570  221.8610 C   0  0  0  0  0  0  0  0  0  0  0  0
  140.5380   71.7480  221.5490 O   0  0  0  0  0  0  0  0  0  0  0  0
  140.3930   74.1070  221.6020 C   0  0  0  0  0  0  0  0  0  0  0  0
  141.4400   74.2610  220.7180 C   0  0  0  0  0  0  0  0  0  0  0  0
  141.9140   75.5390  220.5120 C   0  0  0  0  0  0  0  0  0  0  0  0
  141.3950   76.6510  221.1410 C   0  0  0  0  0  0  0  0  0  0  0  0
  141.8720   77.9290  220.9330 C   0  0  0  0  0  0  0  0  0  0  0  0
  141.2630   78.9610  221.6260 C   0  0  0  0  0  0  0  0  0  0  0  0
  141.7300   80.3770  221.4490 C   0  0  0  0  0  0  0  0  0  0  0  0
  140.6740   81.2390  221.7720 F   0  0  0  0  0  0  0  0  0  0  0  0
  142.6990   80.6220  222.3980 F   0  0  0  0  0  0  0  0  0  0  0  0
  142.1740   80.6150  220.1620 F   0  0  0  0  0  0  0  0  0  0  0  0
  140.2160   78.7550  222.5030 C   0  0  0  0  0  0  0  0  0  0  0  0
  139.7400   77.4740  222.7090 C   0  0  0  0  0  0  0  0  0  0  0  0
  140.3460   76.4430  222.0180 C   0  0  0  0  0  0  0  0  0  0  0  0
  139.8800   75.1970  222.2230 N   0  0  0  0  0  0  0  0  0  0  0  0
  140.3600   70.3070  226.3650 C   0  0  0  0  0  0  0  0  0  0  0  0
  141.1060   71.4770  226.4330 C   0  0  0  0  0  0  0  0  0  0  0  0
  141.0810   72.2320  227.6090 C   0  0  0  0  0  0  0  0  0  0  0  0
  140.3380   71.8500  228.7060 C   0  0  0  0  0  0  0  0  0  0  0  0
  139.5980   70.6890  228.6390 C   0  0  0  0  0  0  0  0  0  0  0  0
  139.6230   69.9450  227.4770 C   0  0  0  0  0  0  0  0  0  0  0  0
  139.3453   68.1454  226.4891 H   0  0  0  0  0  0  0  0  0  0  0  0
  138.4616   68.4677  224.9588 H   0  0  0  0  0  0  0  0  0  0  0  0
  139.8900   67.3785  224.9588 H   0  0  0  0  0  0  0  0  0  0  0  0
  141.3776   69.1487  224.9058 H   0  0  0  0  0  0  0  0  0  0  0  0
  140.5240   70.3460  223.2000 H   0  0  0  0  0  0  0  0  0  0  0  0
  138.0463   70.7429  221.8563 H   0  0  0  0  0  0  0  0  0  0  0  0
  136.9033   71.6007  223.0231 H   0  0  0  0  0  0  0  0  0  0  0  0
  138.0570   73.5620  222.6700 H   0  0  0  0  0  0  0  0  0  0  0  0
  141.8799   73.3976  220.1974 H   0  0  0  0  0  0  0  0  0  0  0  0
  142.7491   75.6789  219.8098 H   0  0  0  0  0  0  0  0  0  0  0  0
  142.7058   78.1207  220.2416 H   0  0  0  0  0  0  0  0  0  0  0  0
  139.7638   79.6054  223.0343 H   0  0  0  0  0  0  0  0  0  0  0  0
  138.9062   77.2819  223.4003 H   0  0  0  0  0  0  0  0  0  0  0  0
  141.7083   71.8048  225.5729 H   0  0  0  0  0  0  0  0  0  0  0  0
  141.6716   73.1585  227.6609 H   0  0  0  0  0  0  0  0  0  0  0  0
  140.3359   72.4620  229.6200 H   0  0  0  0  0  0  0  0  0  0  0  0
  138.9963   70.3603  229.4992 H   0  0  0  0  0  0  0  0  0  0  0  0
  139.0285   69.0205  227.4336 H   0  0  0  0  0  0  0  0  0  0  0  0
  1  2  1  0
  2  3  1  0
  3  4  1  0
  4  5  2  0
  4  6  1  0
  6  7  1  0
  7  8  1  0
  8  9  2  0
  8 10  1  0
 10 11  2  0
 11 12  1  0
 12 13  2  0
 13 14  1  0
 14 15  2  0
 15 16  1  0
 16 17  1  0
 16 18  1  0
 16 19  1  0
 15 20  1  0
 20 21  2  0
 21 22  1  0
 22 23  2  0
  2 24  1  0
 24 25  2  0
 25 26  1  0
 26 27  2  0
 27 28  1  0
 28 29  2  0
 23 10  1  0
 29 24  1  0
 22 13  1  0
  1 30  1  0
  1 31  1  0
  1 32  1  0
  2 33  1  6
  3 34  1  0
  6 35  1  0
  6 36  1  0
  7 37  1  0
 11 38  1  0
 12 39  1  0
 14 40  1  0
 20 41  1  0
 21 42  1  0
 25 43  1  0
 26 44  1  0
 27 45  1  0
 28 46  1  0
 29 47  1  0
M  END
>  <smiles>  (30) 
C[C@@H](NC(=O)CNC(=O)c1ccc2cc(C(F)(F)F)ccc2n1)c1ccccc1

>  <score_type>  (30) 
oracle

>  <origin>  (30) 
autodockgpu

>  <m_score__min__energy>  (30) 
-7.9900000000000002

>  <m_primary>  (30) 
energy

>  <rmsd>  (30) 
9.934447354559653

>  <m_score__min__rmsd>  (30) 
9.934447354559653

>  <meeko>  (30) 
{"free_energy": -7.85, "intermolecular_energy": -9.64, "internal_energy": -2.12, "cluster_size": 42, "cluster_id": 1, "rank_in_cluster": 32}

>  <energy>  (30) 
-7.89

>  <cluster_rmsd>  (30) 
0.68

>  <cluster>  (30) 
1

$$$$

     RDKit          3D

 47 49  0  0  0  0  0  0  0  0999 V2000
  137.9690   69.3960  224.9180 C   0  0  0  0  0  0  0  0  0  0  0  0
  139.3340   69.8830  224.5260 C   0  0  1  0  0  0  0  0  0  0  0  0
  139.2050   70.8240  223.4270 N   0  0  0  0  0  0  0  0  0  0  0  0
  139.5210   70.4700  222.0930 C   0  0  0  0  0  0  0  0  0  0  0  0
  139.9240   69.2840  221.8610 O   0  0  0  0  0  0  0  0  0  0  0  0
  139.4160   71.3750  220.9320 C   0  0  0  0  0  0  0  0  0  0  0  0
  139.5350   72.7680  221.2200 N   0  0  0  0  0  0  0  0  0  0  0  0
  138.5440   73.4890  221.9660 C   0  0  0  0  0  0  0  0  0  0  0  0
  137.5060   72.9330  222.4220 O   0  0  0  0  0  0  0  0  0  0  0  0
  138.7460   74.9340  222.2090 C   0  0  0  0  0  0  0  0  0  0  0  0
  137.7000   75.6990  222.6780 C   0  0  0  0  0  0  0  0  0  0  0  0
  137.9390   77.0410  222.8880 C   0  0  0  0  0  0  0  0  0  0  0  0
  139.1590   77.6390  222.6540 C   0  0  0  0  0  0  0  0  0  0  0  0
  139.3960   78.9830  222.8650 C   0  0  0  0  0  0  0  0  0  0  0  0
  140.6660   79.4610  222.5910 C   0  0  0  0  0  0  0  0  0  0  0  0
  140.9950   80.9110  222.7970 C   0  0  0  0  0  0  0  0  0  0  0  0
  141.8880   81.0180  223.8710 F   0  0  0  0  0  0  0  0  0  0  0  0
  141.7020   81.3420  221.6950 F   0  0  0  0  0  0  0  0  0  0  0  0
  139.8620   81.6670  223.0310 F   0  0  0  0  0  0  0  0  0  0  0  0
  141.6820   78.6510  222.1210 C   0  0  0  0  0  0  0  0  0  0  0  0
  141.4430   77.3070  221.9110 C   0  0  0  0  0  0  0  0  0  0  0  0
  140.1760   76.8280  222.1840 C   0  0  0  0  0  0  0  0  0  0  0  0
  139.9470   75.5180  221.9770 N   0  0  0  0  0  0  0  0  0  0  0  0
  139.9550   70.5050  225.7360 C   0  0  0  0  0  0  0  0  0  0  0  0
  140.8240   71.5830  225.6330 C   0  0  0  0  0  0  0  0  0  0  0  0
  141.3750   72.1260  226.7980 C   0  0  0  0  0  0  0  0  0  0  0  0
  141.0820   71.6230  228.0470 C   0  0  0  0  0  0  0  0  0  0  0  0
  140.2190   70.5520  228.1490 C   0  0  0  0  0  0  0  0  0  0  0  0
  139.6770   70.0180  226.9990 C   0  0  0  0  0  0  0  0  0  0  0  0
  137.8907   69.3681  226.0149 H   0  0  0  0  0  0  0  0  0  0  0  0
  137.2063   70.0775  224.5132 H   0  0  0  0  0  0  0  0  0  0  0  0
  137.8099   68.3857  224.5132 H   0  0  0  0  0  0  0  0  0  0  0  0
  139.9800   69.0634  224.1784 H   0  0  0  0  0  0  0  0  0  0  0  0
  138.8600   71.7760  223.6620 H   0  0  0  0  0  0  0  0  0  0  0  0
  140.2124   71.1075  220.2219 H   0  0  0  0  0  0  0  0  0  0  0  0
  138.3994   71.2368  220.5352 H   0  0  0  0  0  0  0  0  0  0  0  0
  140.3690   73.3440  220.8910 H   0  0  0  0  0  0  0  0  0  0  0  0
  136.7128   75.2564  222.8771 H   0  0  0  0  0  0  0  0  0  0  0  0
  137.1143   77.6660  223.2612 H   0  0  0  0  0  0  0  0  0  0  0  0
  138.6042   79.6497  223.2374 H   0  0  0  0  0  0  0  0  0  0  0  0
  142.6762   79.0744  221.9151 H   0  0  0  0  0  0  0  0  0  0  0  0
  142.2348   76.6402  221.5389 H   0  0  0  0  0  0  0  0  0  0  0  0
  141.0756   72.0042  224.6485 H   0  0  0  0  0  0  0  0  0  0  0  0
  142.0629   72.9803  226.7148 H   0  0  0  0  0  0  0  0  0  0  0  0
  141.5291   72.0684  228.9480 H   0  0  0  0  0  0  0  0  0  0  0  0
  139.9668   70.1301  229.1331 H   0  0  0  0  0  0  0  0  0  0  0  0
  138.9905   69.1635  227.0914 H   0  0  0  0  0  0  0  0  0  0  0  0
  1  2  1  0
  2  3  1  0
  3  4  1  0
  4  5  2  0
  4  6  1  0
  6  7  1  0
  7  8  1  0
  8  9  2  0
  8 10  1  0
 10 11  2  0
 11 12  1  0
 12 13  2  0
 13 14  1  0
 14 15  2  0
 15 16  1  0
 16 17  1  0
 16 18  1  0
 16 19  1  0
 15 20  1  0
 20 21  2  0
 21 22  1  0
 22 23  2  0
  2 24  1  0
 24 25  2  0
 25 26  1  0
 26 27  2  0
 27 28  1  0
 28 29  2  0
 23 10  1  0
 29 24  1  0
 22 13  1  0
  1 30  1  0
  1 31  1  0
  1 32  1  0
  2 33  1  6
  3 34  1  0
  6 35  1  0
  6 36  1  0
  7 37  1  0
 11 38  1  0
 12 39  1  0
 14 40  1  0
 20 41  1  0
 21 42  1  0
 25 43  1  0
 26 44  1  0
 27 45  1  0
 28 46  1  0
 29 47  1  0
M  END
>  <smiles>  (31) 
C[C@@H](NC(=O)CNC(=O)c1ccc2cc(C(F)(F)F)ccc2n1)c1ccccc1

>  <score_type>  (31) 
oracle

>  <origin>  (31) 
autodockgpu

>  <m_score__min__energy>  (31) 
-7.9900000000000002

>  <m_primary>  (31) 
energy

>  <rmsd>  (31) 
9.681776523835726

>  <m_score__min__rmsd>  (31) 
9.681776523835726

>  <meeko>  (31) 
{"free_energy": -6.95, "intermolecular_energy": -8.74, "internal_energy": -2.17, "cluster_size": 42, "cluster_id": 1, "rank_in_cluster": 42}

>  <energy>  (31) 
-7.86

>  <cluster_rmsd>  (31) 
1.84

>  <cluster>  (31) 
1

$$$$

     RDKit          3D

 47 49  0  0  0  0  0  0  0  0999 V2000
  138.5260   78.6810  221.4160 C   0  0  0  0  0  0  0  0  0  0  0  0
  139.3660   78.0960  222.5140 C   0  0  1  0  0  0  0  0  0  0  0  0
  139.8320   76.7820  222.1070 N   0  0  0  0  0  0  0  0  0  0  0  0
  140.8400   76.6110  221.1270 C   0  0  0  0  0  0  0  0  0  0  0  0
  141.3500   77.6510  220.5960 O   0  0  0  0  0  0  0  0  0  0  0  0
  141.3560   75.3090  220.6650 C   0  0  0  0  0  0  0  0  0  0  0  0
  141.0920   74.1980  221.5210 N   0  0  0  0  0  0  0  0  0  0  0  0
  139.7610   73.7440  221.8080 C   0  0  0  0  0  0  0  0  0  0  0  0
  138.7390   74.2970  221.3150 O   0  0  0  0  0  0  0  0  0  0  0  0
  139.5820   72.5880  222.7140 C   0  0  0  0  0  0  0  0  0  0  0  0
  138.4350   71.8290  222.6320 C   0  0  0  0  0  0  0  0  0  0  0  0
  138.3150   70.7630  223.4990 C   0  0  0  0  0  0  0  0  0  0  0  0
  139.2790   70.4290  224.4270 C   0  0  0  0  0  0  0  0  0  0  0  0
  139.1570   69.3610  225.2920 C   0  0  0  0  0  0  0  0  0  0  0  0
  140.1960   69.1310  226.1780 C   0  0  0  0  0  0  0  0  0  0  0  0
  140.1310   67.9880  227.1480 C   0  0  0  0  0  0  0  0  0  0  0  0
  141.4060   67.4140  227.2490 F   0  0  0  0  0  0  0  0  0  0  0  0
  139.8720   68.5110  228.3970 F   0  0  0  0  0  0  0  0  0  0  0  0
  139.2020   67.0400  226.7640 F   0  0  0  0  0  0  0  0  0  0  0  0
  141.3280   69.9230  226.2200 C   0  0  0  0  0  0  0  0  0  0  0  0
  141.4470   70.9910  225.3520 C   0  0  0  0  0  0  0  0  0  0  0  0
  140.4120   71.2220  224.4680 C   0  0  0  0  0  0  0  0  0  0  0  0
  140.5310   72.2640  223.6250 N   0  0  0  0  0  0  0  0  0  0  0  0
  140.4950   79.0430  222.7700 C   0  0  0  0  0  0  0  0  0  0  0  0
  141.5450   78.7100  223.6160 C   0  0  0  0  0  0  0  0  0  0  0  0
  142.5740   79.6340  223.8190 C   0  0  0  0  0  0  0  0  0  0  0  0
  142.5790   80.8680  223.2050 C   0  0  0  0  0  0  0  0  0  0  0  0
  141.5370   81.1990  222.3650 C   0  0  0  0  0  0  0  0  0  0  0  0
  140.5220   80.2860  222.1660 C   0  0  0  0  0  0  0  0  0  0  0  0
  137.6983   79.2574  221.8550 H   0  0  0  0  0  0  0  0  0  0  0  0
  139.1454   79.3442  220.7942 H   0  0  0  0  0  0  0  0  0  0  0  0
  138.1188   77.8701  220.7942 H   0  0  0  0  0  0  0  0  0  0  0  0
  138.7945   77.9652  223.4447 H   0  0  0  0  0  0  0  0  0  0  0  0
  139.3960   75.9620  222.5760 H   0  0  0  0  0  0  0  0  0  0  0  0
  140.9042   75.0952  219.6851 H   0  0  0  0  0  0  0  0  0  0  0  0
  142.4508   75.4132  220.6392 H   0  0  0  0  0  0  0  0  0  0  0  0
  141.8740   73.6480  221.9920 H   0  0  0  0  0  0  0  0  0  0  0  0
  137.6454   72.0642  221.9032 H   0  0  0  0  0  0  0  0  0  0  0  0
  137.4043   70.1481  223.4477 H   0  0  0  0  0  0  0  0  0  0  0  0
  138.2664   68.7155  225.2783 H   0  0  0  0  0  0  0  0  0  0  0  0
  142.1297   69.7041  226.9406 H   0  0  0  0  0  0  0  0  0  0  0  0
  142.3376   71.6365  225.3647 H   0  0  0  0  0  0  0  0  0  0  0  0
  141.5665   77.7322  224.1195 H   0  0  0  0  0  0  0  0  0  0  0  0
  143.4049   79.3683  224.4890 H   0  0  0  0  0  0  0  0  0  0  0  0
  143.4009   81.5772  223.3823 H   0  0  0  0  0  0  0  0  0  0  0  0
  141.5153   82.1765  221.8610 H   0  0  0  0  0  0  0  0  0  0  0  0
  139.6949   80.5603  221.4947 H   0  0  0  0  0  0  0  0  0  0  0  0
  1  2  1  0
  2  3  1  0
  3  4  1  0
  4  5  2  0
  4  6  1  0
  6  7  1  0
  7  8  1  0
  8  9  2  0
  8 10  1  0
 10 11  2  0
 11 12  1  0
 12 13  2  0
 13 14  1  0
 14 15  2  0
 15 16  1  0
 16 17  1  0
 16 18  1  0
 16 19  1  0
 15 20  1  0
 20 21  2  0
 21 22  1  0
 22 23  2  0
  2 24  1  0
 24 25  2  0
 25 26  1  0
 26 27  2  0
 27 28  1  0
 28 29  2  0
 23 10  1  0
 29 24  1  0
 22 13  1  0
  1 30  1  0
  1 31  1  0
  1 32  1  0
  2 33  1  1
  3 34  1  0
  6 35  1  0
  6 36  1  0
  7 37  1  0
 11 38  1  0
 12 39  1  0
 14 40  1  0
 20 41  1  0
 21 42  1  0
 25 43  1  0
 26 44  1  0
 27 45  1  0
 28 46  1  0
 29 47  1  0
M  END
>  <smiles>  (32) 
C[C@@H](NC(=O)CNC(=O)c1ccc2cc(C(F)(F)F)ccc2n1)c1ccccc1

>  <score_type>  (32) 
oracle

>  <origin>  (32) 
autodockgpu

>  <m_score__min__energy>  (32) 
-7.9900000000000002

>  <m_primary>  (32) 
energy

>  <rmsd>  (32) 
3.732123157938483

>  <m_score__min__rmsd>  (32) 
3.732123157938483

>  <meeko>  (32) 
{"free_energy": -7.25, "intermolecular_energy": -9.04, "internal_energy": -1.97, "cluster_size": 2, "cluster_id": 2, "rank_in_cluster": 2}

>  <energy>  (32) 
-7.85

>  <cluster_rmsd>  (32) 
0.94

>  <cluster>  (32) 
1

$$$$

     RDKit          3D

 47 49  0  0  0  0  0  0  0  0999 V2000
  139.0920   68.5010  224.9540 C   0  0  0  0  0  0  0  0  0  0  0  0
  140.0900   69.5930  224.6940 C   0  0  1  0  0  0  0  0  0  0  0  0
  139.5890   70.4520  223.6360 N   0  0  0  0  0  0  0  0  0  0  0  0
  138.2570   70.9350  223.6260 C   0  0  0  0  0  0  0  0  0  0  0  0
  137.4870   70.6020  224.5850 O   0  0  0  0  0  0  0  0  0  0  0  0
  137.6830   71.8070  222.5840 C   0  0  0  0  0  0  0  0  0  0  0  0
  138.3470   73.0540  222.3830 N   0  0  0  0  0  0  0  0  0  0  0  0
  139.6090   73.1570  221.7080 C   0  0  0  0  0  0  0  0  0  0  0  0
  140.2100   72.1490  221.2440 O   0  0  0  0  0  0  0  0  0  0  0  0
  140.2270   74.4920  221.5530 C   0  0  0  0  0  0  0  0  0  0  0  0
  141.3340   74.6410  220.7450 C   0  0  0  0  0  0  0  0  0  0  0  0
  141.8730   75.9050  220.6330 C   0  0  0  0  0  0  0  0  0  0  0  0
  141.3610   77.0080  221.2830 C   0  0  0  0  0  0  0  0  0  0  0  0
  141.9030   78.2720  221.1700 C   0  0  0  0  0  0  0  0  0  0  0  0
  141.2940   79.2960  221.8750 C   0  0  0  0  0  0  0  0  0  0  0  0
  141.8300   80.6970  221.7980 C   0  0  0  0  0  0  0  0  0  0  0  0
  141.0160   81.5300  222.5770 F   0  0  0  0  0  0  0  0  0  0  0  0
  143.0600   80.7110  222.4210 F   0  0  0  0  0  0  0  0  0  0  0  0
  141.8880   81.1550  220.4960 F   0  0  0  0  0  0  0  0  0  0  0  0
  140.1850   79.0950  222.6720 C   0  0  0  0  0  0  0  0  0  0  0  0
  139.6440   77.8290  222.7840 C   0  0  0  0  0  0  0  0  0  0  0  0
  140.2500   76.8050  222.0820 C   0  0  0  0  0  0  0  0  0  0  0  0
  139.7210   75.5730  222.1940 N   0  0  0  0  0  0  0  0  0  0  0  0
  140.2930   70.3330  225.9770 C   0  0  0  0  0  0  0  0  0  0  0  0
  139.7820   69.8580  227.1780 C   0  0  0  0  0  0  0  0  0  0  0  0
  140.0020   70.5910  228.3480 C   0  0  0  0  0  0  0  0  0  0  0  0
  140.7110   71.7730  228.3470 C   0  0  0  0  0  0  0  0  0  0  0  0
  141.2180   72.2450  227.1550 C   0  0  0  0  0  0  0  0  0  0  0  0
  141.0000   71.5210  226.0010 C   0  0  0  0  0  0  0  0  0  0  0  0
  138.9695   68.3669  226.0389 H   0  0  0  0  0  0  0  0  0  0  0  0
  138.1248   68.7741  224.5067 H   0  0  0  0  0  0  0  0  0  0  0  0
  139.4508   67.5623  224.5067 H   0  0  0  0  0  0  0  0  0  0  0  0
  141.0587   69.1943  224.3584 H   0  0  0  0  0  0  0  0  0  0  0  0
  140.2570   70.7090  222.8810 H   0  0  0  0  0  0  0  0  0  0  0  0
  137.7052   71.2555  221.6325 H   0  0  0  0  0  0  0  0  0  0  0  0
  136.6702   72.0602  222.9307 H   0  0  0  0  0  0  0  0  0  0  0  0
  137.9360   73.9750  222.7260 H   0  0  0  0  0  0  0  0  0  0  0  0
  141.7704   73.7845  220.2103 H   0  0  0  0  0  0  0  0  0  0  0  0
  142.7568   76.0405  219.9923 H   0  0  0  0  0  0  0  0  0  0  0  0
  142.7869   78.4591  220.5425 H   0  0  0  0  0  0  0  0  0  0  0  0
  139.7344   79.9387  223.2152 H   0  0  0  0  0  0  0  0  0  0  0  0
  138.7599   77.6423  223.4114 H   0  0  0  0  0  0  0  0  0  0  0  0
  139.2119   68.9178  227.2082 H   0  0  0  0  0  0  0  0  0  0  0  0
  139.5970   70.2129  229.2983 H   0  0  0  0  0  0  0  0  0  0  0  0
  140.8697   72.3305  229.2819 H   0  0  0  0  0  0  0  0  0  0  0  0
  141.7881   73.1852  227.1245 H   0  0  0  0  0  0  0  0  0  0  0  0
  141.4080   71.9072  225.0552 H   0  0  0  0  0  0  0  0  0  0  0  0
  1  2  1  0
  2  3  1  0
  3  4  1  0
  4  5  2  0
  4  6  1  0
  6  7  1  0
  7  8  1  0
  8  9  2  0
  8 10  1  0
 10 11  2  0
 11 12  1  0
 12 13  2  0
 13 14  1  0
 14 15  2  0
 15 16  1  0
 16 17  1  0
 16 18  1  0
 16 19  1  0
 15 20  1  0
 20 21  2  0
 21 22  1  0
 22 23  2  0
  2 24  1  0
 24 25  2  0
 25 26  1  0
 26 27  2  0
 27 28  1  0
 28 29  2  0
 23 10  1  0
 29 24  1  0
 22 13  1  0
  1 30  1  0
  1 31  1  0
  1 32  1  0
  2 33  1  6
  3 34  1  0
  6 35  1  0
  6 36  1  0
  7 37  1  0
 11 38  1  0
 12 39  1  0
 14 40  1  0
 20 41  1  0
 21 42  1  0
 25 43  1  0
 26 44  1  0
 27 45  1  0
 28 46  1  0
 29 47  1  0
M  END
>  <smiles>  (33) 
C[C@@H](NC(=O)CNC(=O)c1ccc2cc(C(F)(F)F)ccc2n1)c1ccccc1

>  <score_type>  (33) 
oracle

>  <origin>  (33) 
autodockgpu

>  <m_score__min__energy>  (33) 
-7.9900000000000002

>  <m_primary>  (33) 
energy

>  <rmsd>  (33) 
9.679890991598919

>  <m_score__min__rmsd>  (33) 
9.679890991598919

>  <meeko>  (33) 
{"free_energy": -7.94, "intermolecular_energy": -9.73, "internal_energy": -2.07, "cluster_size": 42, "cluster_id": 1, "rank_in_cluster": 9}

>  <energy>  (33) 
-7.85

>  <cluster_rmsd>  (33) 
0.74

>  <cluster>  (33) 
1

$$$$

     RDKit          3D

 47 49  0  0  0  0  0  0  0  0999 V2000
  139.0440   68.5630  224.9760 C   0  0  0  0  0  0  0  0  0  0  0  0
  140.0680   69.6170  224.6650 C   0  0  1  0  0  0  0  0  0  0  0  0
  139.5710   70.4620  223.5940 N   0  0  0  0  0  0  0  0  0  0  0  0
  138.2640   71.0080  223.6120 C   0  0  0  0  0  0  0  0  0  0  0  0
  137.5130   70.7460  224.6080 O   0  0  0  0  0  0  0  0  0  0  0  0
  137.6940   71.8690  222.5590 C   0  0  0  0  0  0  0  0  0  0  0  0
  138.3360   73.1310  222.3750 N   0  0  0  0  0  0  0  0  0  0  0  0
  139.6290   73.2580  221.7660 C   0  0  0  0  0  0  0  0  0  0  0  0
  140.2790   72.2600  221.3480 O   0  0  0  0  0  0  0  0  0  0  0  0
  140.2200   74.6070  221.6240 C   0  0  0  0  0  0  0  0  0  0  0  0
  141.3090   74.7900  220.7980 C   0  0  0  0  0  0  0  0  0  0  0  0
  141.8230   76.0650  220.7000 C   0  0  0  0  0  0  0  0  0  0  0  0
  141.3050   77.1470  221.3800 C   0  0  0  0  0  0  0  0  0  0  0  0
  141.8210   78.4220  221.2800 C   0  0  0  0  0  0  0  0  0  0  0  0
  141.2080   79.4230  222.0150 C   0  0  0  0  0  0  0  0  0  0  0  0
  141.7180   80.8340  221.9540 C   0  0  0  0  0  0  0  0  0  0  0  0
  140.8600   81.6510  222.7020 F   0  0  0  0  0  0  0  0  0  0  0  0
  142.9240   80.8730  222.6190 F   0  0  0  0  0  0  0  0  0  0  0  0
  141.8110   81.2910  220.6540 F   0  0  0  0  0  0  0  0  0  0  0  0
  140.1180   79.1870  222.8290 C   0  0  0  0  0  0  0  0  0  0  0  0
  139.6020   77.9090  222.9280 C   0  0  0  0  0  0  0  0  0  0  0  0
  140.2120   76.9100  222.1950 C   0  0  0  0  0  0  0  0  0  0  0  0
  139.7070   75.6660  222.2940 N   0  0  0  0  0  0  0  0  0  0  0  0
  140.3200   70.3850  225.9240 C   0  0  0  0  0  0  0  0  0  0  0  0
  141.0460   71.5690  225.9190 C   0  0  0  0  0  0  0  0  0  0  0  0
  141.2500   72.2460  227.1250 C   0  0  0  0  0  0  0  0  0  0  0  0
  140.7530   71.7740  228.3200 C   0  0  0  0  0  0  0  0  0  0  0  0
  140.0330   70.5980  228.3250 C   0  0  0  0  0  0  0  0  0  0  0  0
  139.8320   69.9310  227.1350 C   0  0  0  0  0  0  0  0  0  0  0  0
  138.9437   68.4597  226.0665 H   0  0  0  0  0  0  0  0  0  0  0  0
  138.0750   68.8546  224.5446 H   0  0  0  0  0  0  0  0  0  0  0  0
  139.3634   67.6029  224.5446 H   0  0  0  0  0  0  0  0  0  0  0  0
  141.0169   69.1804  224.3202 H   0  0  0  0  0  0  0  0  0  0  0  0
  140.2230   70.6600  222.8090 H   0  0  0  0  0  0  0  0  0  0  0  0
  137.7490   71.3201  221.6073 H   0  0  0  0  0  0  0  0  0  0  0  0
  136.6684   72.0993  222.8831 H   0  0  0  0  0  0  0  0  0  0  0  0
  137.8840   74.0450  222.6830 H   0  0  0  0  0  0  0  0  0  0  0  0
  141.7501   73.9513  220.2393 H   0  0  0  0  0  0  0  0  0  0  0  0
  142.6917   76.2280  220.0452 H   0  0  0  0  0  0  0  0  0  0  0  0
  142.6889   78.6364  220.6390 H   0  0  0  0  0  0  0  0  0  0  0  0
  139.6626   80.0123  223.3959 H   0  0  0  0  0  0  0  0  0  0  0  0
  138.7344   77.6945  223.5692 H   0  0  0  0  0  0  0  0  0  0  0  0
  141.4548   71.9685  224.9792 H   0  0  0  0  0  0  0  0  0  0  0  0
  141.8247   73.1839  227.1196 H   0  0  0  0  0  0  0  0  0  0  0  0
  140.9277   72.3263  229.2551 H   0  0  0  0  0  0  0  0  0  0  0  0
  139.6249   70.1977  229.2648 H   0  0  0  0  0  0  0  0  0  0  0  0
  139.2564   68.9938  227.1501 H   0  0  0  0  0  0  0  0  0  0  0  0
  1  2  1  0
  2  3  1  0
  3  4  1  0
  4  5  2  0
  4  6  1  0
  6  7  1  0
  7  8  1  0
  8  9  2  0
  8 10  1  0
 10 11  2  0
 11 12  1  0
 12 13  2  0
 13 14  1  0
 14 15  2  0
 15 16  1  0
 16 17  1  0
 16 18  1  0
 16 19  1  0
 15 20  1  0
 20 21  2  0
 21 22  1  0
 22 23  2  0
  2 24  1  0
 24 25  2  0
 25 26  1  0
 26 27  2  0
 27 28  1  0
 28 29  2  0
 23 10  1  0
 29 24  1  0
 22 13  1  0
  1 30  1  0
  1 31  1  0
  1 32  1  0
  2 33  1  6
  3 34  1  0
  6 35  1  0
  6 36  1  0
  7 37  1  0
 11 38  1  0
 12 39  1  0
 14 40  1  0
 20 41  1  0
 21 42  1  0
 25 43  1  0
 26 44  1  0
 27 45  1  0
 28 46  1  0
 29 47  1  0
M  END
>  <smiles>  (34) 
C[C@@H](NC(=O)CNC(=O)c1ccc2cc(C(F)(F)F)ccc2n1)c1ccccc1

>  <score_type>  (34) 
oracle

>  <origin>  (34) 
autodockgpu

>  <m_score__min__energy>  (34) 
-7.9900000000000002

>  <m_primary>  (34) 
energy

>  <rmsd>  (34) 
9.862480635178319

>  <m_score__min__rmsd>  (34) 
9.862480635178319

>  <meeko>  (34) 
{"free_energy": -7.93, "intermolecular_energy": -9.72, "internal_energy": -2.09, "cluster_size": 42, "cluster_id": 1, "rank_in_cluster": 11}

>  <energy>  (34) 
-7.78

>  <cluster_rmsd>  (34) 
0.7

>  <cluster>  (34) 
1

$$$$

     RDKit          3D

 47 49  0  0  0  0  0  0  0  0999 V2000
  143.2460   75.8960  218.2710 C   0  0  0  0  0  0  0  0  0  0  0  0
  143.2720   75.5160  219.7230 C   0  0  1  0  0  0  0  0  0  0  0  0
  141.9370   75.1200  220.1350 N   0  0  0  0  0  0  0  0  0  0  0  0
  141.0400   76.0260  220.7520 C   0  0  0  0  0  0  0  0  0  0  0  0
  141.4270   77.2240  220.9430 O   0  0  0  0  0  0  0  0  0  0  0  0
  139.6740   75.6900  221.1970 C   0  0  0  0  0  0  0  0  0  0  0  0
  139.5700   74.6020  222.1150 N   0  0  0  0  0  0  0  0  0  0  0  0
  139.9670   73.2650  221.7750 C   0  0  0  0  0  0  0  0  0  0  0  0
  140.4400   72.9690  220.6430 O   0  0  0  0  0  0  0  0  0  0  0  0
  139.8160   72.1980  222.7890 C   0  0  0  0  0  0  0  0  0  0  0  0
  139.0030   71.1170  222.5240 C   0  0  0  0  0  0  0  0  0  0  0  0
  138.8950   70.1500  223.5000 C   0  0  0  0  0  0  0  0  0  0  0  0
  139.5550   70.2150  224.7090 C   0  0  0  0  0  0  0  0  0  0  0  0
  139.4450   69.2450  225.6850 C   0  0  0  0  0  0  0  0  0  0  0  0
  140.1600   69.4300  226.8560 C   0  0  0  0  0  0  0  0  0  0  0  0
  140.0880   68.4150  227.9600 C   0  0  0  0  0  0  0  0  0  0  0  0
  139.4820   69.0100  229.0740 F   0  0  0  0  0  0  0  0  0  0  0  0
  139.2180   67.4230  227.5620 F   0  0  0  0  0  0  0  0  0  0  0  0
  141.3380   67.9260  228.2910 F   0  0  0  0  0  0  0  0  0  0  0  0
  140.9630   70.5330  227.0730 C   0  0  0  0  0  0  0  0  0  0  0  0
  141.0710   71.5020  226.0950 C   0  0  0  0  0  0  0  0  0  0  0  0
  140.3590   71.3200  224.9250 C   0  0  0  0  0  0  0  0  0  0  0  0
  140.4660   72.2670  223.9750 N   0  0  0  0  0  0  0  0  0  0  0  0
  144.2650   74.4090  219.8810 C   0  0  0  0  0  0  0  0  0  0  0  0
  144.1960   73.2560  219.1110 C   0  0  0  0  0  0  0  0  0  0  0  0
  145.1520   72.2530  219.3010 C   0  0  0  0  0  0  0  0  0  0  0  0
  146.1630   72.3740  220.2300 C   0  0  0  0  0  0  0  0  0  0  0  0
  146.2310   73.5200  220.9950 C   0  0  0  0  0  0  0  0  0  0  0  0
  145.2870   74.5080  220.8070 C   0  0  0  0  0  0  0  0  0  0  0  0
  143.1712   76.9896  218.1795 H   0  0  0  0  0  0  0  0  0  0  0  0
  144.1699   75.5497  217.7848 H   0  0  0  0  0  0  0  0  0  0  0  0
  142.3778   75.4271  217.7848 H   0  0  0  0  0  0  0  0  0  0  0  0
  143.5741   76.3578  220.3634 H   0  0  0  0  0  0  0  0  0  0  0  0
  141.6590   74.1350  219.9470 H   0  0  0  0  0  0  0  0  0  0  0  0
  139.2476   76.5814  221.6803 H   0  0  0  0  0  0  0  0  0  0  0  0
  139.1352   75.3706  220.2928 H   0  0  0  0  0  0  0  0  0  0  0  0
  139.1900   74.7290  223.1020 H   0  0  0  0  0  0  0  0  0  0  0  0
  138.4614   71.0295  221.5706 H   0  0  0  0  0  0  0  0  0  0  0  0
  138.2489   69.2815  223.3045 H   0  0  0  0  0  0  0  0  0  0  0  0
  138.8123   68.3573  225.5377 H   0  0  0  0  0  0  0  0  0  0  0  0
  141.5133   70.6388  228.0196 H   0  0  0  0  0  0  0  0  0  0  0  0
  141.7033   72.3899  226.2427 H   0  0  0  0  0  0  0  0  0  0  0  0
  143.4002   73.1329  218.3616 H   0  0  0  0  0  0  0  0  0  0  0  0
  145.0953   71.3398  218.6904 H   0  0  0  0  0  0  0  0  0  0  0  0
  146.9030   71.5705  220.3592 H   0  0  0  0  0  0  0  0  0  0  0  0
  147.0267   73.6441  221.7443 H   0  0  0  0  0  0  0  0  0  0  0  0
  145.3502   75.4174  221.4227 H   0  0  0  0  0  0  0  0  0  0  0  0
  1  2  1  0
  2  3  1  0
  3  4  1  0
  4  5  2  0
  4  6  1  0
  6  7  1  0
  7  8  1  0
  8  9  2  0
  8 10  1  0
 10 11  2  0
 11 12  1  0
 12 13  2  0
 13 14  1  0
 14 15  2  0
 15 16  1  0
 16 17  1  0
 16 18  1  0
 16 19  1  0
 15 20  1  0
 20 21  2  0
 21 22  1  0
 22 23  2  0
  2 24  1  0
 24 25  2  0
 25 26  1  0
 26 27  2  0
 27 28  1  0
 28 29  2  0
 23 10  1  0
 29 24  1  0
 22 13  1  0
  1 30  1  0
  1 31  1  0
  1 32  1  0
  2 33  1  1
  3 34  1  0
  6 35  1  0
  6 36  1  0
  7 37  1  0
 11 38  1  0
 12 39  1  0
 14 40  1  0
 20 41  1  0
 21 42  1  0
 25 43  1  0
 26 44  1  0
 27 45  1  0
 28 46  1  0
 29 47  1  0
M  END
>  <smiles>  (35) 
C[C@@H](NC(=O)CNC(=O)c1ccc2cc(C(F)(F)F)ccc2n1)c1ccccc1

>  <score_type>  (35) 
oracle

>  <origin>  (35) 
autodockgpu

>  <m_score__min__energy>  (35) 
-7.9900000000000002

>  <m_primary>  (35) 
energy

>  <rmsd>  (35) 
6.453272637270383

>  <m_score__min__rmsd>  (35) 
6.453272637270383

>  <meeko>  (35) 
{"free_energy": -7.63, "intermolecular_energy": -9.42, "internal_energy": -1.91, "cluster_size": 4, "cluster_id": 4, "rank_in_cluster": 1}

>  <energy>  (35) 
-7.74

>  <cluster_rmsd>  (35) 
0.99

>  <cluster>  (35) 
1

$$$$

     RDKit          3D

 47 49  0  0  0  0  0  0  0  0999 V2000
  139.0100   68.5370  224.7780 C   0  0  0  0  0  0  0  0  0  0  0  0
  140.0030   69.6380  224.5380 C   0  0  1  0  0  0  0  0  0  0  0  0
  139.4930   70.5210  223.5050 N   0  0  0  0  0  0  0  0  0  0  0  0
  138.1930   71.0810  223.5670 C   0  0  0  0  0  0  0  0  0  0  0  0
  137.4600   70.7970  224.5700 O   0  0  0  0  0  0  0  0  0  0  0  0
  137.6120   71.9800  222.5520 C   0  0  0  0  0  0  0  0  0  0  0  0
  138.2790   73.2290  222.3750 N   0  0  0  0  0  0  0  0  0  0  0  0
  139.5360   73.3420  221.6930 C   0  0  0  0  0  0  0  0  0  0  0  0
  140.1290   72.3420  221.2010 O   0  0  0  0  0  0  0  0  0  0  0  0
  140.1590   74.6780  221.5630 C   0  0  0  0  0  0  0  0  0  0  0  0
  141.2350   74.8490  220.7190 C   0  0  0  0  0  0  0  0  0  0  0  0
  141.7800   76.1130  220.6330 C   0  0  0  0  0  0  0  0  0  0  0  0
  141.3030   77.1940  221.3430 C   0  0  0  0  0  0  0  0  0  0  0  0
  141.8510   78.4580  221.2560 C   0  0  0  0  0  0  0  0  0  0  0  0
  141.2790   79.4590  222.0220 C   0  0  0  0  0  0  0  0  0  0  0  0
  141.8230   80.8580  221.9770 C   0  0  0  0  0  0  0  0  0  0  0  0
  143.1640   80.8280  222.3790 F   0  0  0  0  0  0  0  0  0  0  0  0
  141.8500   81.2550  220.6570 F   0  0  0  0  0  0  0  0  0  0  0  0
  141.0950   81.7180  222.7770 F   0  0  0  0  0  0  0  0  0  0  0  0
  140.1990   79.2360  222.8550 C   0  0  0  0  0  0  0  0  0  0  0  0
  139.6530   77.9700  222.9410 C   0  0  0  0  0  0  0  0  0  0  0  0
  140.2220   76.9690  222.1770 C   0  0  0  0  0  0  0  0  0  0  0  0
  139.6880   75.7370  222.2640 N   0  0  0  0  0  0  0  0  0  0  0  0
  140.2100   70.3480  225.8390 C   0  0  0  0  0  0  0  0  0  0  0  0
  140.9140   71.5430  225.9090 C   0  0  0  0  0  0  0  0  0  0  0  0
  141.0770   72.1630  227.1520 C   0  0  0  0  0  0  0  0  0  0  0  0
  140.5600   71.6250  228.3100 C   0  0  0  0  0  0  0  0  0  0  0  0
  139.8620   70.4380  228.2400 C   0  0  0  0  0  0  0  0  0  0  0  0
  139.7020   69.8270  227.0140 C   0  0  0  0  0  0  0  0  0  0  0  0
  138.8786   68.3913  225.8604 H   0  0  0  0  0  0  0  0  0  0  0  0
  138.0451   68.8082  224.3247 H   0  0  0  0  0  0  0  0  0  0  0  0
  139.3790   67.6052  224.3247 H   0  0  0  0  0  0  0  0  0  0  0  0
  140.9708   69.2508  224.1865 H   0  0  0  0  0  0  0  0  0  0  0  0
  140.1300   70.7360  222.7110 H   0  0  0  0  0  0  0  0  0  0  0  0
  137.6228   71.4517  221.5872 H   0  0  0  0  0  0  0  0  0  0  0  0
  136.6035   72.2282  222.9144 H   0  0  0  0  0  0  0  0  0  0  0  0
  137.8740   74.1440  222.7420 H   0  0  0  0  0  0  0  0  0  0  0  0
  141.6433   74.0099  220.1365 H   0  0  0  0  0  0  0  0  0  0  0  0
  142.6393   76.2664  219.9636 H   0  0  0  0  0  0  0  0  0  0  0  0
  142.7112   78.6624  220.6015 H   0  0  0  0  0  0  0  0  0  0  0  0
  139.7766   80.0619  223.4461 H   0  0  0  0  0  0  0  0  0  0  0  0
  138.7934   77.7654  223.5962 H   0  0  0  0  0  0  0  0  0  0  0  0
  141.3373   71.9953  225.0000 H   0  0  0  0  0  0  0  0  0  0  0  0
  141.6352   73.1093  227.2066 H   0  0  0  0  0  0  0  0  0  0  0  0
  140.7017   72.1341  229.2748 H   0  0  0  0  0  0  0  0  0  0  0  0
  139.4389   69.9850  229.1487 H   0  0  0  0  0  0  0  0  0  0  0  0
  139.1437   68.8803  226.9692 H   0  0  0  0  0  0  0  0  0  0  0  0
  1  2  1  0
  2  3  1  0
  3  4  1  0
  4  5  2  0
  4  6  1  0
  6  7  1  0
  7  8  1  0
  8  9  2  0
  8 10  1  0
 10 11  2  0
 11 12  1  0
 12 13  2  0
 13 14  1  0
 14 15  2  0
 15 16  1  0
 16 17  1  0
 16 18  1  0
 16 19  1  0
 15 20  1  0
 20 21  2  0
 21 22  1  0
 22 23  2  0
  2 24  1  0
 24 25  2  0
 25 26  1  0
 26 27  2  0
 27 28  1  0
 28 29  2  0
 23 10  1  0
 29 24  1  0
 22 13  1  0
  1 30  1  0
  1 31  1  0
  1 32  1  0
  2 33  1  6
  3 34  1  0
  6 35  1  0
  6 36  1  0
  7 37  1  0
 11 38  1  0
 12 39  1  0
 14 40  1  0
 20 41  1  0
 21 42  1  0
 25 43  1  0
 26 44  1  0
 27 45  1  0
 28 46  1  0
 29 47  1  0
M  END
>  <smiles>  (36) 
C[C@@H](NC(=O)CNC(=O)c1ccc2cc(C(F)(F)F)ccc2n1)c1ccccc1

>  <score_type>  (36) 
oracle

>  <origin>  (36) 
autodockgpu

>  <m_score__min__energy>  (36) 
-7.9900000000000002

>  <m_primary>  (36) 
energy

>  <rmsd>  (36) 
9.887498478287998

>  <m_score__min__rmsd>  (36) 
9.887498478287998

>  <meeko>  (36) 
{"free_energy": -7.78, "intermolecular_energy": -9.57, "internal_energy": -2.12, "cluster_size": 42, "cluster_id": 1, "rank_in_cluster": 34}

>  <energy>  (36) 
-7.67

>  <cluster_rmsd>  (36) 
0.94

>  <cluster>  (36) 
1

$$$$

     RDKit          3D

 47 49  0  0  0  0  0  0  0  0999 V2000
  139.0670   68.5530  224.9350 C   0  0  0  0  0  0  0  0  0  0  0  0
  140.0820   69.6200  224.6420 C   0  0  1  0  0  0  0  0  0  0  0  0
  139.5870   70.4650  223.5710 N   0  0  0  0  0  0  0  0  0  0  0  0
  138.2770   71.0040  223.5810 C   0  0  0  0  0  0  0  0  0  0  0  0
  137.5210   70.7350  224.5700 O   0  0  0  0  0  0  0  0  0  0  0  0
  137.7110   71.8650  222.5250 C   0  0  0  0  0  0  0  0  0  0  0  0
  138.3460   73.1310  222.3500 N   0  0  0  0  0  0  0  0  0  0  0  0
  139.6430   73.2670  221.7520 C   0  0  0  0  0  0  0  0  0  0  0  0
  140.3020   72.2740  221.3370 O   0  0  0  0  0  0  0  0  0  0  0  0
  140.2270   74.6200  221.6180 C   0  0  0  0  0  0  0  0  0  0  0  0
  141.3050   74.8170  220.7820 C   0  0  0  0  0  0  0  0  0  0  0  0
  141.8130   76.0960  220.6920 C   0  0  0  0  0  0  0  0  0  0  0  0
  141.2980   77.1670  221.3900 C   0  0  0  0  0  0  0  0  0  0  0  0
  141.8090   78.4460  221.2980 C   0  0  0  0  0  0  0  0  0  0  0  0
  141.2000   79.4360  222.0510 C   0  0  0  0  0  0  0  0  0  0  0  0
  141.7030   80.8490  222.0010 C   0  0  0  0  0  0  0  0  0  0  0  0
  140.8490   81.6550  222.7660 F   0  0  0  0  0  0  0  0  0  0  0  0
  142.9160   80.8870  222.6540 F   0  0  0  0  0  0  0  0  0  0  0  0
  141.7820   81.3200  220.7040 F   0  0  0  0  0  0  0  0  0  0  0  0
  140.1200   79.1860  222.8760 C   0  0  0  0  0  0  0  0  0  0  0  0
  139.6110   77.9050  222.9660 C   0  0  0  0  0  0  0  0  0  0  0  0
  140.2160   76.9170  222.2150 C   0  0  0  0  0  0  0  0  0  0  0  0
  139.7180   75.6700  222.3060 N   0  0  0  0  0  0  0  0  0  0  0  0
  140.3100   70.3840  225.9080 C   0  0  0  0  0  0  0  0  0  0  0  0
  141.0230   71.5750  225.9190 C   0  0  0  0  0  0  0  0  0  0  0  0
  141.2060   72.2480  227.1310 C   0  0  0  0  0  0  0  0  0  0  0  0
  140.6980   71.7640  228.3170 C   0  0  0  0  0  0  0  0  0  0  0  0
  139.9890   70.5810  228.3070 C   0  0  0  0  0  0  0  0  0  0  0  0
  139.8110   69.9190  227.1110 C   0  0  0  0  0  0  0  0  0  0  0  0
  138.9586   68.4391  226.0237 H   0  0  0  0  0  0  0  0  0  0  0  0
  138.0987   68.8382  224.4980 H   0  0  0  0  0  0  0  0  0  0  0  0
  139.4001   67.6001  224.4980 H   0  0  0  0  0  0  0  0  0  0  0  0
  141.0400   69.1965  224.3060 H   0  0  0  0  0  0  0  0  0  0  0  0
  140.2440   70.6690  222.7900 H   0  0  0  0  0  0  0  0  0  0  0  0
  137.7780   71.3191  221.5723 H   0  0  0  0  0  0  0  0  0  0  0  0
  136.6812   72.0881  222.8410 H   0  0  0  0  0  0  0  0  0  0  0  0
  137.8860   74.0420  222.6570 H   0  0  0  0  0  0  0  0  0  0  0  0
  141.7430   73.9865  220.2089 H   0  0  0  0  0  0  0  0  0  0  0  0
  142.6734   76.2703  220.0291 H   0  0  0  0  0  0  0  0  0  0  0  0
  142.6690   78.6708  220.6500 H   0  0  0  0  0  0  0  0  0  0  0  0
  139.6680   80.0027  223.4580 H   0  0  0  0  0  0  0  0  0  0  0  0
  138.7518   77.6795  223.6148 H   0  0  0  0  0  0  0  0  0  0  0  0
  141.4387   71.9841  224.9863 H   0  0  0  0  0  0  0  0  0  0  0  0
  141.7719   73.1912  227.1379 H   0  0  0  0  0  0  0  0  0  0  0  0
  140.8555   72.3127  229.2573 H   0  0  0  0  0  0  0  0  0  0  0  0
  139.5720   70.1720  229.2391 H   0  0  0  0  0  0  0  0  0  0  0  0
  139.2450   68.9758  227.1137 H   0  0  0  0  0  0  0  0  0  0  0  0
  1  2  1  0
  2  3  1  0
  3  4  1  0
  4  5  2  0
  4  6  1  0
  6  7  1  0
  7  8  1  0
  8  9  2  0
  8 10  1  0
 10 11  2  0
 11 12  1  0
 12 13  2  0
 13 14  1  0
 14 15  2  0
 15 16  1  0
 16 17  1  0
 16 18  1  0
 16 19  1  0
 15 20  1  0
 20 21  2  0
 21 22  1  0
 22 23  2  0
  2 24  1  0
 24 25  2  0
 25 26  1  0
 26 27  2  0
 27 28  1  0
 28 29  2  0
 23 10  1  0
 29 24  1  0
 22 13  1  0
  1 30  1  0
  1 31  1  0
  1 32  1  0
  2 33  1  6
  3 34  1  0
  6 35  1  0
  6 36  1  0
  7 37  1  0
 11 38  1  0
 12 39  1  0
 14 40  1  0
 20 41  1  0
 21 42  1  0
 25 43  1  0
 26 44  1  0
 27 45  1  0
 28 46  1  0
 29 47  1  0
M  END
>  <smiles>  (37) 
C[C@@H](NC(=O)CNC(=O)c1ccc2cc(C(F)(F)F)ccc2n1)c1ccccc1

>  <score_type>  (37) 
oracle

>  <origin>  (37) 
autodockgpu

>  <m_score__min__energy>  (37) 
-7.9900000000000002

>  <m_primary>  (37) 
energy

>  <rmsd>  (37) 
9.861618195527152

>  <m_score__min__rmsd>  (37) 
9.861618195527152

>  <meeko>  (37) 
{"free_energy": -7.95, "intermolecular_energy": -9.74, "internal_energy": -2.09, "cluster_size": 42, "cluster_id": 1, "rank_in_cluster": 4}

>  <energy>  (37) 
-7.62

>  <cluster_rmsd>  (37) 
0.97

>  <cluster>  (37) 
1

$$$$

     RDKit          3D

 47 49  0  0  0  0  0  0  0  0999 V2000
  139.0350   68.5150  225.0070 C   0  0  0  0  0  0  0  0  0  0  0  0
  140.0420   69.5930  224.7260 C   0  0  1  0  0  0  0  0  0  0  0  0
  139.5470   70.4370  223.6530 N   0  0  0  0  0  0  0  0  0  0  0  0
  138.2220   70.9390  223.6400 C   0  0  0  0  0  0  0  0  0  0  0  0
  137.4520   70.6370  224.6090 O   0  0  0  0  0  0  0  0  0  0  0  0
  137.6550   71.7960  222.5830 C   0  0  0  0  0  0  0  0  0  0  0  0
  138.3060   73.0500  222.3840 N   0  0  0  0  0  0  0  0  0  0  0  0
  139.5850   73.1630  221.7440 C   0  0  0  0  0  0  0  0  0  0  0  0
  140.2130   72.1580  221.3090 O   0  0  0  0  0  0  0  0  0  0  0  0
  140.1890   74.5050  221.5890 C   0  0  0  0  0  0  0  0  0  0  0  0
  141.2960   74.6650  220.7840 C   0  0  0  0  0  0  0  0  0  0  0  0
  141.8220   75.9350  220.6720 C   0  0  0  0  0  0  0  0  0  0  0  0
  141.2950   77.0330  221.3190 C   0  0  0  0  0  0  0  0  0  0  0  0
  141.8230   78.3030  221.2060 C   0  0  0  0  0  0  0  0  0  0  0  0
  141.2010   79.3210  221.9080 C   0  0  0  0  0  0  0  0  0  0  0  0
  141.7210   80.7280  221.8310 C   0  0  0  0  0  0  0  0  0  0  0  0
  142.9550   80.7840  222.4920 F   0  0  0  0  0  0  0  0  0  0  0  0
  142.0070   80.9980  220.5100 F   0  0  0  0  0  0  0  0  0  0  0  0
  140.8340   81.6340  222.3800 F   0  0  0  0  0  0  0  0  0  0  0  0
  140.0910   79.1080  222.7030 C   0  0  0  0  0  0  0  0  0  0  0  0
  139.5650   77.8360  222.8150 C   0  0  0  0  0  0  0  0  0  0  0  0
  140.1840   76.8190  222.1150 C   0  0  0  0  0  0  0  0  0  0  0  0
  139.6690   75.5810  222.2270 N   0  0  0  0  0  0  0  0  0  0  0  0
  140.2520   70.3550  225.9960 C   0  0  0  0  0  0  0  0  0  0  0  0
  139.7230   69.9160  227.2030 C   0  0  0  0  0  0  0  0  0  0  0  0
  139.9500   70.6670  228.3590 C   0  0  0  0  0  0  0  0  0  0  0  0
  140.6840   71.8340  228.3390 C   0  0  0  0  0  0  0  0  0  0  0  0
  141.2090   72.2710  227.1410 C   0  0  0  0  0  0  0  0  0  0  0  0
  140.9840   71.5280  226.0010 C   0  0  0  0  0  0  0  0  0  0  0  0
  138.9216   68.3936  226.0944 H   0  0  0  0  0  0  0  0  0  0  0  0
  138.0666   68.7940  224.5662 H   0  0  0  0  0  0  0  0  0  0  0  0
  139.3792   67.5678  224.5662 H   0  0  0  0  0  0  0  0  0  0  0  0
  141.0069   69.1801  224.3968 H   0  0  0  0  0  0  0  0  0  0  0  0
  140.2150   70.6690  222.8900 H   0  0  0  0  0  0  0  0  0  0  0  0
  137.7003   71.2383  221.6359 H   0  0  0  0  0  0  0  0  0  0  0  0
  136.6335   72.0386  222.9112 H   0  0  0  0  0  0  0  0  0  0  0  0
  137.8730   73.9700  222.7040 H   0  0  0  0  0  0  0  0  0  0  0  0
  141.7429   73.8126  220.2513 H   0  0  0  0  0  0  0  0  0  0  0  0
  142.7066   76.0794  220.0344 H   0  0  0  0  0  0  0  0  0  0  0  0
  142.7064   78.4993  220.5806 H   0  0  0  0  0  0  0  0  0  0  0  0
  139.6289   79.9471  223.2437 H   0  0  0  0  0  0  0  0  0  0  0  0
  138.6822   77.6393  223.4411 H   0  0  0  0  0  0  0  0  0  0  0  0
  139.1329   68.9888  227.2481 H   0  0  0  0  0  0  0  0  0  0  0  0
  139.5306   70.3168  229.3137 H   0  0  0  0  0  0  0  0  0  0  0  0
  140.8481   72.4071  229.2635 H   0  0  0  0  0  0  0  0  0  0  0  0
  141.7986   73.1985  227.0953 H   0  0  0  0  0  0  0  0  0  0  0  0
  141.4070   71.8856  225.0506 H   0  0  0  0  0  0  0  0  0  0  0  0
  1  2  1  0
  2  3  1  0
  3  4  1  0
  4  5  2  0
  4  6  1  0
  6  7  1  0
  7  8  1  0
  8  9  2  0
  8 10  1  0
 10 11  2  0
 11 12  1  0
 12 13  2  0
 13 14  1  0
 14 15  2  0
 15 16  1  0
 16 17  1  0
 16 18  1  0
 16 19  1  0
 15 20  1  0
 20 21  2  0
 21 22  1  0
 22 23  2  0
  2 24  1  0
 24 25  2  0
 25 26  1  0
 26 27  2  0
 27 28  1  0
 28 29  2  0
 23 10  1  0
 29 24  1  0
 22 13  1  0
  1 30  1  0
  1 31  1  0
  1 32  1  0
  2 33  1  6
  3 34  1  0
  6 35  1  0
  6 36  1  0
  7 37  1  0
 11 38  1  0
 12 39  1  0
 14 40  1  0
 20 41  1  0
 21 42  1  0
 25 43  1  0
 26 44  1  0
 27 45  1  0
 28 46  1  0
 29 47  1  0
M  END
>  <smiles>  (38) 
C[C@@H](NC(=O)CNC(=O)c1ccc2cc(C(F)(F)F)ccc2n1)c1ccccc1

>  <score_type>  (38) 
oracle

>  <origin>  (38) 
autodockgpu

>  <m_score__min__energy>  (38) 
-7.9900000000000002

>  <m_primary>  (38) 
energy

>  <rmsd>  (38) 
9.669930351169047

>  <m_score__min__rmsd>  (38) 
9.669930351169047

>  <meeko>  (38) 
{"free_energy": -7.94, "intermolecular_energy": -9.73, "internal_energy": -2.08, "cluster_size": 42, "cluster_id": 1, "rank_in_cluster": 8}

>  <energy>  (38) 
-7.56

>  <cluster_rmsd>  (38) 
1.11

>  <cluster>  (38) 
1

$$$$

     RDKit          3D

 47 49  0  0  0  0  0  0  0  0999 V2000
  138.8920   68.1550  225.5680 C   0  0  0  0  0  0  0  0  0  0  0  0
  140.0050   69.0290  225.0630 C   0  0  1  0  0  0  0  0  0  0  0  0
  139.6010   69.6330  223.8060 N   0  0  0  0  0  0  0  0  0  0  0  0
  138.3880   70.3510  223.6710 C   0  0  0  0  0  0  0  0  0  0  0  0
  137.6370   70.4670  224.6940 O   0  0  0  0  0  0  0  0  0  0  0  0
  137.9160   70.9850  222.4250 C   0  0  0  0  0  0  0  0  0  0  0  0
  138.5070   72.2450  222.1090 N   0  0  0  0  0  0  0  0  0  0  0  0
  139.9280   72.4470  222.0860 C   0  0  0  0  0  0  0  0  0  0  0  0
  140.7450   71.5200  222.3410 O   0  0  0  0  0  0  0  0  0  0  0  0
  140.4510   73.7910  221.7540 C   0  0  0  0  0  0  0  0  0  0  0  0
  141.4940   73.9140  220.8620 C   0  0  0  0  0  0  0  0  0  0  0  0
  141.9460   75.1870  220.5860 C   0  0  0  0  0  0  0  0  0  0  0  0
  141.4080   76.3230  221.1540 C   0  0  0  0  0  0  0  0  0  0  0  0
  141.8620   77.5960  220.8760 C   0  0  0  0  0  0  0  0  0  0  0  0
  141.2360   78.6540  221.5140 C   0  0  0  0  0  0  0  0  0  0  0  0
  141.6770   80.0660  221.2590 C   0  0  0  0  0  0  0  0  0  0  0  0
  142.7530   80.3570  222.1080 F   0  0  0  0  0  0  0  0  0  0  0  0
  142.1990   80.1190  219.9840 F   0  0  0  0  0  0  0  0  0  0  0  0
  140.6490   80.9690  221.4520 F   0  0  0  0  0  0  0  0  0  0  0  0
  140.1920   78.4760  222.4010 C   0  0  0  0  0  0  0  0  0  0  0  0
  139.7390   77.2010  222.6770 C   0  0  0  0  0  0  0  0  0  0  0  0
  140.3620   76.1440  222.0430 C   0  0  0  0  0  0  0  0  0  0  0  0
  139.9190   74.9030  222.3150 N   0  0  0  0  0  0  0  0  0  0  0  0
  140.2880   70.0510  226.1180 C   0  0  0  0  0  0  0  0  0  0  0  0
  139.7600   69.9390  227.3980 C   0  0  0  0  0  0  0  0  0  0  0  0
  140.0580   70.9240  228.3440 C   0  0  0  0  0  0  0  0  0  0  0  0
  140.8620   72.0040  228.0460 C   0  0  0  0  0  0  0  0  0  0  0  0
  141.3860   72.1140  226.7760 C   0  0  0  0  0  0  0  0  0  0  0  0
  141.0910   71.1420  225.8430 C   0  0  0  0  0  0  0  0  0  0  0  0
  138.8945   68.1570  226.6680 H   0  0  0  0  0  0  0  0  0  0  0  0
  137.9286   68.5405  225.2028 H   0  0  0  0  0  0  0  0  0  0  0  0
  139.0380   67.1277  225.2028 H   0  0  0  0  0  0  0  0  0  0  0  0
  140.9237   68.4560  224.8686 H   0  0  0  0  0  0  0  0  0  0  0  0
  140.2510   69.5230  223.0010 H   0  0  0  0  0  0  0  0  0  0  0  0
  138.1263   70.2953  221.5943 H   0  0  0  0  0  0  0  0  0  0  0  0
  136.8454   71.1861  222.5780 H   0  0  0  0  0  0  0  0  0  0  0  0
  137.9200   73.1010  221.8720 H   0  0  0  0  0  0  0  0  0  0  0  0
  141.9483   73.0311  220.3886 H   0  0  0  0  0  0  0  0  0  0  0  0
  142.7785   75.3026  219.8763 H   0  0  0  0  0  0  0  0  0  0  0  0
  142.6912   77.7645  220.1731 H   0  0  0  0  0  0  0  0  0  0  0  0
  139.7238   79.3457  222.8851 H   0  0  0  0  0  0  0  0  0  0  0  0
  138.9090   77.0328  223.3790 H   0  0  0  0  0  0  0  0  0  0  0  0
  139.1165   69.0872  227.6634 H   0  0  0  0  0  0  0  0  0  0  0  0
  139.6384   70.8349  229.3569 H   0  0  0  0  0  0  0  0  0  0  0  0
  141.0815   72.7651  228.8093 H   0  0  0  0  0  0  0  0  0  0  0  0
  142.0304   72.9650  226.5103 H   0  0  0  0  0  0  0  0  0  0  0  0
  141.5147   71.2396  224.8326 H   0  0  0  0  0  0  0  0  0  0  0  0
  1  2  1  0
  2  3  1  0
  3  4  1  0
  4  5  2  0
  4  6  1  0
  6  7  1  0
  7  8  1  0
  8  9  2  0
  8 10  1  0
 10 11  2  0
 11 12  1  0
 12 13  2  0
 13 14  1  0
 14 15  2  0
 15 16  1  0
 16 17  1  0
 16 18  1  0
 16 19  1  0
 15 20  1  0
 20 21  2  0
 21 22  1  0
 22 23  2  0
  2 24  1  0
 24 25  2  0
 25 26  1  0
 26 27  2  0
 27 28  1  0
 28 29  2  0
 23 10  1  0
 29 24  1  0
 22 13  1  0
  1 30  1  0
  1 31  1  0
  1 32  1  0
  2 33  1  6
  3 34  1  0
  6 35  1  0
  6 36  1  0
  7 37  1  0
 11 38  1  0
 12 39  1  0
 14 40  1  0
 20 41  1  0
 21 42  1  0
 25 43  1  0
 26 44  1  0
 27 45  1  0
 28 46  1  0
 29 47  1  0
M  END
>  <smiles>  (39) 
C[C@@H](NC(=O)CNC(=O)c1ccc2cc(C(F)(F)F)ccc2n1)c1ccccc1

>  <score_type>  (39) 
oracle

>  <origin>  (39) 
autodockgpu

>  <m_score__min__energy>  (39) 
-7.9900000000000002

>  <m_primary>  (39) 
energy

>  <rmsd>  (39) 
9.733456821554554

>  <m_score__min__rmsd>  (39) 
9.733456821554554

>  <meeko>  (39) 
{"free_energy": -7.54, "intermolecular_energy": -9.33, "internal_energy": -2.02, "cluster_size": 42, "cluster_id": 1, "rank_in_cluster": 39}

>  <energy>  (39) 
-7.54

>  <cluster_rmsd>  (39) 
1.12

>  <cluster>  (39) 
1

$$$$

     RDKit          3D

 47 49  0  0  0  0  0  0  0  0999 V2000
  139.4280   68.2370  225.4050 C   0  0  0  0  0  0  0  0  0  0  0  0
  140.3180   69.4140  225.1250 C   0  0  1  0  0  0  0  0  0  0  0  0
  139.8190   70.1200  223.9590 N   0  0  0  0  0  0  0  0  0  0  0  0
  138.4860   70.5930  223.8790 C   0  0  0  0  0  0  0  0  0  0  0  0
  137.7120   70.3910  224.8700 O   0  0  0  0  0  0  0  0  0  0  0  0
  137.9140   71.3130  222.7250 C   0  0  0  0  0  0  0  0  0  0  0  0
  138.5000   72.5810  222.4330 N   0  0  0  0  0  0  0  0  0  0  0  0
  139.8380   72.7160  221.9310 C   0  0  0  0  0  0  0  0  0  0  0  0
  140.5790   71.7190  221.7120 O   0  0  0  0  0  0  0  0  0  0  0  0
  140.3650   74.0720  221.6640 C   0  0  0  0  0  0  0  0  0  0  0  0
  141.4450   74.2290  220.8210 C   0  0  0  0  0  0  0  0  0  0  0  0
  141.8990   75.5130  220.6040 C   0  0  0  0  0  0  0  0  0  0  0  0
  141.3300   76.6270  221.1830 C   0  0  0  0  0  0  0  0  0  0  0  0
  141.7860   77.9110  220.9640 C   0  0  0  0  0  0  0  0  0  0  0  0
  141.1260   78.9450  221.6060 C   0  0  0  0  0  0  0  0  0  0  0  0
  141.5690   80.3660  221.4140 C   0  0  0  0  0  0  0  0  0  0  0  0
  142.5720   80.6520  222.3500 F   0  0  0  0  0  0  0  0  0  0  0  0
  142.1870   80.4510  220.1850 F   0  0  0  0  0  0  0  0  0  0  0  0
  140.5170   81.2540  221.5440 F   0  0  0  0  0  0  0  0  0  0  0  0
  140.0470   78.7340  222.4430 C   0  0  0  0  0  0  0  0  0  0  0  0
  139.5920   77.4480  222.6600 C   0  0  0  0  0  0  0  0  0  0  0  0
  140.2490   76.4150  222.0210 C   0  0  0  0  0  0  0  0  0  0  0  0
  139.8030   75.1640  222.2360 N   0  0  0  0  0  0  0  0  0  0  0  0
  140.3250   70.2740  226.3490 C   0  0  0  0  0  0  0  0  0  0  0  0
  141.0620   71.4500  226.4060 C   0  0  0  0  0  0  0  0  0  0  0  0
  141.0320   72.2150  227.5760 C   0  0  0  0  0  0  0  0  0  0  0  0
  140.2910   71.8380  228.6760 C   0  0  0  0  0  0  0  0  0  0  0  0
  139.5600   70.6710  228.6190 C   0  0  0  0  0  0  0  0  0  0  0  0
  139.5910   69.9170  227.4640 C   0  0  0  0  0  0  0  0  0  0  0  0
  139.3273   68.1039  226.4923 H   0  0  0  0  0  0  0  0  0  0  0  0
  138.4360   68.4143  224.9639 H   0  0  0  0  0  0  0  0  0  0  0  0
  139.8688   67.3308  224.9639 H   0  0  0  0  0  0  0  0  0  0  0  0
  141.3503   69.1064  224.9019 H   0  0  0  0  0  0  0  0  0  0  0  0
  140.4900   70.2750  223.1790 H   0  0  0  0  0  0  0  0  0  0  0  0
  138.0307   70.6745  221.8369 H   0  0  0  0  0  0  0  0  0  0  0  0
  136.8672   71.5212  222.9911 H   0  0  0  0  0  0  0  0  0  0  0  0
  137.9700   73.4950  222.5730 H   0  0  0  0  0  0  0  0  0  0  0  0
  141.9255   73.3640  220.3405 H   0  0  0  0  0  0  0  0  0  0  0  0
  142.7598   75.6556  219.9342 H   0  0  0  0  0  0  0  0  0  0  0  0
  142.6433   78.1060  220.3029 H   0  0  0  0  0  0  0  0  0  0  0  0
  139.5531   79.5855  222.9338 H   0  0  0  0  0  0  0  0  0  0  0  0
  138.7342   77.2530  223.3204 H   0  0  0  0  0  0  0  0  0  0  0  0
  141.6610   71.7750  225.5426 H   0  0  0  0  0  0  0  0  0  0  0  0
  141.6171   73.1454  227.6202 H   0  0  0  0  0  0  0  0  0  0  0  0
  140.2834   72.4585  229.5842 H   0  0  0  0  0  0  0  0  0  0  0  0
  138.9605   70.3454  229.4819 H   0  0  0  0  0  0  0  0  0  0  0  0
  139.0036   68.9876  227.4291 H   0  0  0  0  0  0  0  0  0  0  0  0
  1  2  1  0
  2  3  1  0
  3  4  1  0
  4  5  2  0
  4  6  1  0
  6  7  1  0
  7  8  1  0
  8  9  2  0
  8 10  1  0
 10 11  2  0
 11 12  1  0
 12 13  2  0
 13 14  1  0
 14 15  2  0
 15 16  1  0
 16 17  1  0
 16 18  1  0
 16 19  1  0
 15 20  1  0
 20 21  2  0
 21 22  1  0
 22 23  2  0
  2 24  1  0
 24 25  2  0
 25 26  1  0
 26 27  2  0
 27 28  1  0
 28 29  2  0
 23 10  1  0
 29 24  1  0
 22 13  1  0
  1 30  1  0
  1 31  1  0
  1 32  1  0
  2 33  1  6
  3 34  1  0
  6 35  1  0
  6 36  1  0
  7 37  1  0
 11 38  1  0
 12 39  1  0
 14 40  1  0
 20 41  1  0
 21 42  1  0
 25 43  1  0
 26 44  1  0
 27 45  1  0
 28 46  1  0
 29 47  1  0
M  END
>  <smiles>  (40) 
C[C@@H](NC(=O)CNC(=O)c1ccc2cc(C(F)(F)F)ccc2n1)c1ccccc1

>  <score_type>  (40) 
oracle

>  <origin>  (40) 
autodockgpu

>  <m_score__min__energy>  (40) 
-7.9900000000000002

>  <m_primary>  (40) 
energy

>  <rmsd>  (40) 
9.935113610589545

>  <m_score__min__rmsd>  (40) 
9.935113610589545

>  <meeko>  (40) 
{"free_energy": -7.74, "intermolecular_energy": -9.53, "internal_energy": -2.13, "cluster_size": 42, "cluster_id": 1, "rank_in_cluster": 35}

>  <energy>  (40) 
-7.49

>  <cluster_rmsd>  (40) 
1.57

>  <cluster>  (40) 
1

$$$$

     RDKit          3D

 47 49  0  0  0  0  0  0  0  0999 V2000
  138.8700   68.5530  225.2490 C   0  0  0  0  0  0  0  0  0  0  0  0
  139.6810   69.7440  224.8230 C   0  0  1  0  0  0  0  0  0  0  0  0
  138.8170   70.6820  224.1290 N   0  0  0  0  0  0  0  0  0  0  0  0
  139.1740   71.2520  222.8820 C   0  0  0  0  0  0  0  0  0  0  0  0
  140.2870   70.9170  222.3610 O   0  0  0  0  0  0  0  0  0  0  0  0
  138.3470   72.2120  222.1260 C   0  0  0  0  0  0  0  0  0  0  0  0
  138.8350   73.5520  222.0840 N   0  0  0  0  0  0  0  0  0  0  0  0
  140.0310   73.9170  221.3800 C   0  0  0  0  0  0  0  0  0  0  0  0
  140.7240   73.0740  220.7460 O   0  0  0  0  0  0  0  0  0  0  0  0
  140.4650   75.3310  221.3990 C   0  0  0  0  0  0  0  0  0  0  0  0
  141.5140   75.7330  220.5990 C   0  0  0  0  0  0  0  0  0  0  0  0
  141.8810   77.0610  220.6520 C   0  0  0  0  0  0  0  0  0  0  0  0
  141.2550   77.9890  221.4580 C   0  0  0  0  0  0  0  0  0  0  0  0
  141.6240   79.3170  221.5090 C   0  0  0  0  0  0  0  0  0  0  0  0
  140.9150   80.1480  222.3600 C   0  0  0  0  0  0  0  0  0  0  0  0
  141.2620   81.6050  222.4670 C   0  0  0  0  0  0  0  0  0  0  0  0
  141.8930   81.8240  223.6990 F   0  0  0  0  0  0  0  0  0  0  0  0
  142.2220   81.8780  221.5160 F   0  0  0  0  0  0  0  0  0  0  0  0
  140.1450   82.4090  222.3430 F   0  0  0  0  0  0  0  0  0  0  0  0
  139.8700   79.6960  223.1420 C   0  0  0  0  0  0  0  0  0  0  0  0
  139.5020   78.3650  223.0890 C   0  0  0  0  0  0  0  0  0  0  0  0
  140.2090   77.5350  222.2410 C   0  0  0  0  0  0  0  0  0  0  0  0
  139.8480   76.2390  222.1920 N   0  0  0  0  0  0  0  0  0  0  0  0
  140.2900   70.3370  226.0540 C   0  0  0  0  0  0  0  0  0  0  0  0
  140.4510   69.5930  227.2150 C   0  0  0  0  0  0  0  0  0  0  0  0
  141.0270   70.1990  228.3360 C   0  0  0  0  0  0  0  0  0  0  0  0
  141.4410   71.5130  228.3240 C   0  0  0  0  0  0  0  0  0  0  0  0
  141.2810   72.2520  227.1710 C   0  0  0  0  0  0  0  0  0  0  0  0
  140.7120   71.6530  226.0660 C   0  0  0  0  0  0  0  0  0  0  0  0
  138.8376   68.5054  226.3475 H   0  0  0  0  0  0  0  0  0  0  0  0
  137.8470   68.6464  224.8557 H   0  0  0  0  0  0  0  0  0  0  0  0
  139.3317   67.6353  224.8557 H   0  0  0  0  0  0  0  0  0  0  0  0
  140.4868   69.4674  224.1272 H   0  0  0  0  0  0  0  0  0  0  0  0
  137.9120   70.9160  224.5860 H   0  0  0  0  0  0  0  0  0  0  0  0
  138.2688   71.8485  221.0908 H   0  0  0  0  0  0  0  0  0  0  0  0
  137.3845   72.2605  222.6564 H   0  0  0  0  0  0  0  0  0  0  0  0
  138.3330   74.3520  222.5780 H   0  0  0  0  0  0  0  0  0  0  0  0
  142.0378   75.0215  219.9438 H   0  0  0  0  0  0  0  0  0  0  0  0
  142.7155   77.3976  220.0193 H   0  0  0  0  0  0  0  0  0  0  0  0
  142.4519   79.7022  220.8956 H   0  0  0  0  0  0  0  0  0  0  0  0
  139.3334   80.3920  223.8036 H   0  0  0  0  0  0  0  0  0  0  0  0
  138.6737   77.9794  223.7017 H   0  0  0  0  0  0  0  0  0  0  0  0
  140.1300   68.5416  227.2526 H   0  0  0  0  0  0  0  0  0  0  0  0
  141.1534   69.6085  229.2554 H   0  0  0  0  0  0  0  0  0  0  0  0
  141.8918   71.9652  229.2197 H   0  0  0  0  0  0  0  0  0  0  0  0
  141.6022   73.3034  227.1327 H   0  0  0  0  0  0  0  0  0  0  0  0
  140.5884   72.2512  225.1512 H   0  0  0  0  0  0  0  0  0  0  0  0
  1  2  1  0
  2  3  1  0
  3  4  1  0
  4  5  2  0
  4  6  1  0
  6  7  1  0
  7  8  1  0
  8  9  2  0
  8 10  1  0
 10 11  2  0
 11 12  1  0
 12 13  2  0
 13 14  1  0
 14 15  2  0
 15 16  1  0
 16 17  1  0
 16 18  1  0
 16 19  1  0
 15 20  1  0
 20 21  2  0
 21 22  1  0
 22 23  2  0
  2 24  1  0
 24 25  2  0
 25 26  1  0
 26 27  2  0
 27 28  1  0
 28 29  2  0
 23 10  1  0
 29 24  1  0
 22 13  1  0
  1 30  1  0
  1 31  1  0
  1 32  1  0
  2 33  1  6
  3 34  1  0
  6 35  1  0
  6 36  1  0
  7 37  1  0
 11 38  1  0
 12 39  1  0
 14 40  1  0
 20 41  1  0
 21 42  1  0
 25 43  1  0
 26 44  1  0
 27 45  1  0
 28 46  1  0
 29 47  1  0
M  END
>  <smiles>  (41) 
C[C@@H](NC(=O)CNC(=O)c1ccc2cc(C(F)(F)F)ccc2n1)c1ccccc1

>  <score_type>  (41) 
oracle

>  <origin>  (41) 
autodockgpu

>  <m_score__min__energy>  (41) 
-7.9900000000000002

>  <m_primary>  (41) 
energy

>  <rmsd>  (41) 
9.88617892991007

>  <m_score__min__rmsd>  (41) 
9.88617892991007

>  <meeko>  (41) 
{"free_energy": -7.89, "intermolecular_energy": -9.68, "internal_energy": -1.39, "cluster_size": 42, "cluster_id": 1, "rank_in_cluster": 29}

>  <energy>  (41) 
-7.48

>  <cluster_rmsd>  (41) 
1.59

>  <cluster>  (41) 
1

$$$$

     RDKit          3D

 47 49  0  0  0  0  0  0  0  0999 V2000
  139.1270   68.5140  224.9580 C   0  0  0  0  0  0  0  0  0  0  0  0
  140.1150   69.6150  224.7000 C   0  0  1  0  0  0  0  0  0  0  0  0
  139.6130   70.4630  223.6340 N   0  0  0  0  0  0  0  0  0  0  0  0
  138.2860   70.9590  223.6290 C   0  0  0  0  0  0  0  0  0  0  0  0
  137.5200   70.6480  224.5980 O   0  0  0  0  0  0  0  0  0  0  0  0
  137.7110   71.8210  222.5780 C   0  0  0  0  0  0  0  0  0  0  0  0
  138.3590   73.0770  222.3830 N   0  0  0  0  0  0  0  0  0  0  0  0
  139.6350   73.1960  221.7370 C   0  0  0  0  0  0  0  0  0  0  0  0
  140.2630   72.1940  221.2950 O   0  0  0  0  0  0  0  0  0  0  0  0
  140.2350   74.5400  221.5850 C   0  0  0  0  0  0  0  0  0  0  0  0
  141.3270   74.7090  220.7620 C   0  0  0  0  0  0  0  0  0  0  0  0
  141.8500   75.9810  220.6550 C   0  0  0  0  0  0  0  0  0  0  0  0
  141.3350   77.0710  221.3240 C   0  0  0  0  0  0  0  0  0  0  0  0
  141.8600   78.3430  221.2140 C   0  0  0  0  0  0  0  0  0  0  0  0
  141.2510   79.3530  221.9390 C   0  0  0  0  0  0  0  0  0  0  0  0
  141.7690   80.7600  221.8680 C   0  0  0  0  0  0  0  0  0  0  0  0
  140.9240   81.5850  222.6220 F   0  0  0  0  0  0  0  0  0  0  0  0
  142.9820   80.7940  222.5200 F   0  0  0  0  0  0  0  0  0  0  0  0
  141.8520   81.2120  220.5640 F   0  0  0  0  0  0  0  0  0  0  0  0
  140.1560   79.1310  222.7510 C   0  0  0  0  0  0  0  0  0  0  0  0
  139.6320   77.8570  222.8590 C   0  0  0  0  0  0  0  0  0  0  0  0
  140.2390   76.8480  222.1370 C   0  0  0  0  0  0  0  0  0  0  0  0
  139.7260   75.6080  222.2450 N   0  0  0  0  0  0  0  0  0  0  0  0
  140.3000   70.3640  225.9810 C   0  0  0  0  0  0  0  0  0  0  0  0
  139.7400   69.9170  227.1710 C   0  0  0  0  0  0  0  0  0  0  0  0
  139.9450   70.6570  228.3390 C   0  0  0  0  0  0  0  0  0  0  0  0
  140.6870   71.8180  228.3470 C   0  0  0  0  0  0  0  0  0  0  0  0
  141.2430   72.2630  227.1660 C   0  0  0  0  0  0  0  0  0  0  0  0
  141.0390   71.5320  226.0140 C   0  0  0  0  0  0  0  0  0  0  0  0
  139.0048   68.3778  226.0427 H   0  0  0  0  0  0  0  0  0  0  0  0
  138.1578   68.7787  224.5102 H   0  0  0  0  0  0  0  0  0  0  0  0
  139.4947   67.5790  224.5102 H   0  0  0  0  0  0  0  0  0  0  0  0
  141.0905   69.2250  224.3739 H   0  0  0  0  0  0  0  0  0  0  0  0
  140.2770   70.7020  222.8700 H   0  0  0  0  0  0  0  0  0  0  0  0
  137.7526   71.2684  221.6278 H   0  0  0  0  0  0  0  0  0  0  0  0
  136.6904   72.0595  222.9119 H   0  0  0  0  0  0  0  0  0  0  0  0
  137.9250   73.9940  222.7090 H   0  0  0  0  0  0  0  0  0  0  0  0
  141.7646   73.8629  220.2119 H   0  0  0  0  0  0  0  0  0  0  0  0
  142.7225   76.1334  220.0026 H   0  0  0  0  0  0  0  0  0  0  0  0
  142.7307   78.5467  220.5735 H   0  0  0  0  0  0  0  0  0  0  0  0
  139.7034   79.9641  223.3088 H   0  0  0  0  0  0  0  0  0  0  0  0
  138.7606   77.6532  223.4986 H   0  0  0  0  0  0  0  0  0  0  0  0
  139.1433   68.9932  227.1939 H   0  0  0  0  0  0  0  0  0  0  0  0
  139.5005   70.3017  229.2804 H   0  0  0  0  0  0  0  0  0  0  0  0
  140.8335   72.3810  229.2806 H   0  0  0  0  0  0  0  0  0  0  0  0
  141.8400   73.1866  227.1429 H   0  0  0  0  0  0  0  0  0  0  0  0
  141.4857   71.8958  225.0769 H   0  0  0  0  0  0  0  0  0  0  0  0
  1  2  1  0
  2  3  1  0
  3  4  1  0
  4  5  2  0
  4  6  1  0
  6  7  1  0
  7  8  1  0
  8  9  2  0
  8 10  1  0
 10 11  2  0
 11 12  1  0
 12 13  2  0
 13 14  1  0
 14 15  2  0
 15 16  1  0
 16 17  1  0
 16 18  1  0
 16 19  1  0
 15 20  1  0
 20 21  2  0
 21 22  1  0
 22 23  2  0
  2 24  1  0
 24 25  2  0
 25 26  1  0
 26 27  2  0
 27 28  1  0
 28 29  2  0
 23 10  1  0
 29 24  1  0
 22 13  1  0
  1 30  1  0
  1 31  1  0
  1 32  1  0
  2 33  1  6
  3 34  1  0
  6 35  1  0
  6 36  1  0
  7 37  1  0
 11 38  1  0
 12 39  1  0
 14 40  1  0
 20 41  1  0
 21 42  1  0
 25 43  1  0
 26 44  1  0
 27 45  1  0
 28 46  1  0
 29 47  1  0
M  END
>  <smiles>  (42) 
C[C@@H](NC(=O)CNC(=O)c1ccc2cc(C(F)(F)F)ccc2n1)c1ccccc1

>  <score_type>  (42) 
oracle

>  <origin>  (42) 
autodockgpu

>  <m_score__min__energy>  (42) 
-7.9900000000000002

>  <m_primary>  (42) 
energy

>  <rmsd>  (42) 
9.669628975722546

>  <m_score__min__rmsd>  (42) 
9.669628975722546

>  <meeko>  (42) 
{"free_energy": -7.97, "intermolecular_energy": -9.76, "internal_energy": -2.1, "cluster_size": 42, "cluster_id": 1, "rank_in_cluster": 2}

>  <energy>  (42) 
-6.95

>  <cluster_rmsd>  (42) 
1.48

>  <cluster>  (42) 
1

$$$$

     RDKit          3D

 47 49  0  0  0  0  0  0  0  0999 V2000
  138.9950   68.4990  224.9900 C   0  0  0  0  0  0  0  0  0  0  0  0
  140.0030   69.5790  224.7200 C   0  0  1  0  0  0  0  0  0  0  0  0
  139.5130   70.4300  223.6500 N   0  0  0  0  0  0  0  0  0  0  0  0
  138.1870   70.9270  223.6320 C   0  0  0  0  0  0  0  0  0  0  0  0
  137.4110   70.6160  224.5940 O   0  0  0  0  0  0  0  0  0  0  0  0
  137.6230   71.7910  222.5770 C   0  0  0  0  0  0  0  0  0  0  0  0
  138.2810   73.0420  222.3830 N   0  0  0  0  0  0  0  0  0  0  0  0
  139.5590   73.1510  221.7390 C   0  0  0  0  0  0  0  0  0  0  0  0
  140.1800   72.1440  221.2980 O   0  0  0  0  0  0  0  0  0  0  0  0
  140.1690   74.4900  221.5880 C   0  0  0  0  0  0  0  0  0  0  0  0
  141.2860   74.6440  220.7950 C   0  0  0  0  0  0  0  0  0  0  0  0
  141.8180   75.9120  220.6870 C   0  0  0  0  0  0  0  0  0  0  0  0
  141.2890   77.0130  221.3270 C   0  0  0  0  0  0  0  0  0  0  0  0
  141.8220   78.2810  221.2170 C   0  0  0  0  0  0  0  0  0  0  0  0
  141.1960   79.3030  221.9100 C   0  0  0  0  0  0  0  0  0  0  0  0
  141.7230   80.7070  221.8360 C   0  0  0  0  0  0  0  0  0  0  0  0
  141.8450   81.0680  220.4880 F   0  0  0  0  0  0  0  0  0  0  0  0
  140.7550   81.5450  222.3480 F   0  0  0  0  0  0  0  0  0  0  0  0
  142.9360   80.8360  222.4850 F   0  0  0  0  0  0  0  0  0  0  0  0
  140.0770   79.0960  222.6920 C   0  0  0  0  0  0  0  0  0  0  0  0
  139.5440   77.8260  222.8010 C   0  0  0  0  0  0  0  0  0  0  0  0
  140.1670   76.8050  222.1100 C   0  0  0  0  0  0  0  0  0  0  0  0
  139.6460   75.5690  222.2190 N   0  0  0  0  0  0  0  0  0  0  0  0
  140.2080   70.3340  225.9950 C   0  0  0  0  0  0  0  0  0  0  0  0
  139.6820   69.8830  227.1980 C   0  0  0  0  0  0  0  0  0  0  0  0
  139.9040   70.6280  228.3600 C   0  0  0  0  0  0  0  0  0  0  0  0
  140.6310   71.7990  228.3480 C   0  0  0  0  0  0  0  0  0  0  0  0
  141.1540   72.2470  227.1530 C   0  0  0  0  0  0  0  0  0  0  0  0
  140.9330   71.5110  226.0080 C   0  0  0  0  0  0  0  0  0  0  0  0
  138.8761   68.3716  226.0761 H   0  0  0  0  0  0  0  0  0  0  0  0
  138.0287   68.7800  224.5458 H   0  0  0  0  0  0  0  0  0  0  0  0
  139.3419   67.5543  224.5458 H   0  0  0  0  0  0  0  0  0  0  0  0
  140.9690   69.1672  224.3926 H   0  0  0  0  0  0  0  0  0  0  0  0
  140.1840   70.6680  222.8920 H   0  0  0  0  0  0  0  0  0  0  0  0
  137.6651   71.2365  221.6279 H   0  0  0  0  0  0  0  0  0  0  0  0
  136.6025   72.0373  222.9055 H   0  0  0  0  0  0  0  0  0  0  0  0
  137.8530   73.9620  222.7080 H   0  0  0  0  0  0  0  0  0  0  0  0
  141.7355   73.7890  220.2688 H   0  0  0  0  0  0  0  0  0  0  0  0
  142.7097   76.0521  220.0583 H   0  0  0  0  0  0  0  0  0  0  0  0
  142.7126   78.4730  220.6006 H   0  0  0  0  0  0  0  0  0  0  0  0
  139.6121   79.9381  223.2256 H   0  0  0  0  0  0  0  0  0  0  0  0
  138.6533   77.6343  223.4174 H   0  0  0  0  0  0  0  0  0  0  0  0
  139.0981   68.9515  227.2364 H   0  0  0  0  0  0  0  0  0  0  0  0
  139.4861   70.2690  229.3121 H   0  0  0  0  0  0  0  0  0  0  0  0
  140.7914   72.3669  229.2763 H   0  0  0  0  0  0  0  0  0  0  0  0
  141.7389   73.1778  227.1139 H   0  0  0  0  0  0  0  0  0  0  0  0
  141.3535   71.8778  225.0600 H   0  0  0  0  0  0  0  0  0  0  0  0
  1  2  1  0
  2  3  1  0
  3  4  1  0
  4  5  2  0
  4  6  1  0
  6  7  1  0
  7  8  1  0
  8  9  2  0
  8 10  1  0
 10 11  2  0
 11 12  1  0
 12 13  2  0
 13 14  1  0
 14 15  2  0
 15 16  1  0
 16 17  1  0
 16 18  1  0
 16 19  1  0
 15 20  1  0
 20 21  2  0
 21 22  1  0
 22 23  2  0
  2 24  1  0
 24 25  2  0
 25 26  1  0
 26 27  2  0
 27 28  1  0
 28 29  2  0
 23 10  1  0
 29 24  1  0
 22 13  1  0
  1 30  1  0
  1 31  1  0
  1 32  1  0
  2 33  1  6
  3 34  1  0
  6 35  1  0
  6 36  1  0
  7 37  1  0
 11 38  1  0
 12 39  1  0
 14 40  1  0
 20 41  1  0
 21 42  1  0
 25 43  1  0
 26 44  1  0
 27 45  1  0
 28 46  1  0
 29 47  1  0
M  END
>  <smiles>  (43) 
C[C@@H](NC(=O)CNC(=O)c1ccc2cc(C(F)(F)F)ccc2n1)c1ccccc1

>  <score_type>  (43) 
oracle

>  <origin>  (43) 
autodockgpu

>  <m_score__min__energy>  (43) 
-7.9900000000000002

>  <m_primary>  (43) 
energy

>  <rmsd>  (43) 
9.678483890432604

>  <m_score__min__rmsd>  (43) 
9.678483890432604

>  <meeko>  (43) 
{"free_energy": -7.93, "intermolecular_energy": -9.72, "internal_energy": -2.07, "cluster_size": 42, "cluster_id": 1, "rank_in_cluster": 13}

>  <energy>  (43) 
-7.83

>  <cluster_rmsd>  (43) 
0.0

>  <cluster>  (43) 
2

$$$$

     RDKit          3D

 47 49  0  0  0  0  0  0  0  0999 V2000
  139.1630   68.4510  224.9550 C   0  0  0  0  0  0  0  0  0  0  0  0
  140.1470   69.5510  224.6750 C   0  0  1  0  0  0  0  0  0  0  0  0
  139.6310   70.3890  223.6070 N   0  0  0  0  0  0  0  0  0  0  0  0
  138.2920   70.8510  223.5940 C   0  0  0  0  0  0  0  0  0  0  0  0
  137.5270   70.5170  224.5570 O   0  0  0  0  0  0  0  0  0  0  0  0
  137.7020   71.7000  222.5420 C   0  0  0  0  0  0  0  0  0  0  0  0
  138.3290   72.9670  222.3440 N   0  0  0  0  0  0  0  0  0  0  0  0
  139.6430   73.0990  221.7840 C   0  0  0  0  0  0  0  0  0  0  0  0
  140.3270   72.1010  221.4250 O   0  0  0  0  0  0  0  0  0  0  0  0
  140.2170   74.4540  221.6230 C   0  0  0  0  0  0  0  0  0  0  0  0
  141.3320   74.6320  220.8330 C   0  0  0  0  0  0  0  0  0  0  0  0
  141.8280   75.9130  220.7150 C   0  0  0  0  0  0  0  0  0  0  0  0
  141.2660   77.0050  221.3430 C   0  0  0  0  0  0  0  0  0  0  0  0
  141.7650   78.2860  221.2230 C   0  0  0  0  0  0  0  0  0  0  0  0
  141.1080   79.2960  221.9060 C   0  0  0  0  0  0  0  0  0  0  0  0
  141.5950   80.7140  221.8210 C   0  0  0  0  0  0  0  0  0  0  0  0
  140.5070   81.5730  222.0240 F   0  0  0  0  0  0  0  0  0  0  0  0
  142.4330   80.9340  222.8930 F   0  0  0  0  0  0  0  0  0  0  0  0
  142.2020   80.9770  220.6080 F   0  0  0  0  0  0  0  0  0  0  0  0
  139.9920   79.0650  222.6870 C   0  0  0  0  0  0  0  0  0  0  0  0
  139.4950   77.7810  222.8050 C   0  0  0  0  0  0  0  0  0  0  0  0
  140.1490   76.7720  222.1250 C   0  0  0  0  0  0  0  0  0  0  0  0
  139.6620   75.5230  222.2430 N   0  0  0  0  0  0  0  0  0  0  0  0
  140.3460   70.3110  225.9470 C   0  0  0  0  0  0  0  0  0  0  0  0
  141.0700   71.4950  225.9800 C   0  0  0  0  0  0  0  0  0  0  0  0
  141.2250   72.1650  227.1970 C   0  0  0  0  0  0  0  0  0  0  0  0
  140.6790   71.6850  228.3680 C   0  0  0  0  0  0  0  0  0  0  0  0
  139.9600   70.5090  228.3360 C   0  0  0  0  0  0  0  0  0  0  0  0
  139.8090   69.8500  227.1340 C   0  0  0  0  0  0  0  0  0  0  0  0
  139.0517   68.3266  226.0423 H   0  0  0  0  0  0  0  0  0  0  0  0
  138.1890   68.7093  224.5139 H   0  0  0  0  0  0  0  0  0  0  0  0
  139.5278   67.5117  224.5139 H   0  0  0  0  0  0  0  0  0  0  0  0
  141.1191   69.1597  224.3406 H   0  0  0  0  0  0  0  0  0  0  0  0
  140.2940   70.6470  222.8480 H   0  0  0  0  0  0  0  0  0  0  0  0
  137.7525   71.1461  221.5930 H   0  0  0  0  0  0  0  0  0  0  0  0
  136.6775   71.9217  222.8756 H   0  0  0  0  0  0  0  0  0  0  0  0
  137.8490   73.8820  222.6040 H   0  0  0  0  0  0  0  0  0  0  0  0
  141.8077   73.7852  220.3167 H   0  0  0  0  0  0  0  0  0  0  0  0
  142.7176   76.0724  220.0879 H   0  0  0  0  0  0  0  0  0  0  0  0
  142.6519   78.4972  220.6076 H   0  0  0  0  0  0  0  0  0  0  0  0
  139.5019   79.8983  223.2118 H   0  0  0  0  0  0  0  0  0  0  0  0
  138.6079   77.5694  223.4201 H   0  0  0  0  0  0  0  0  0  0  0  0
  141.5161   71.9008  225.0601 H   0  0  0  0  0  0  0  0  0  0  0  0
  141.7995   73.1027  227.2208 H   0  0  0  0  0  0  0  0  0  0  0  0
  140.8147   72.2314  229.3130 H   0  0  0  0  0  0  0  0  0  0  0  0
  139.5135   70.1025  229.2554 H   0  0  0  0  0  0  0  0  0  0  0  0
  139.2336   68.9126  227.1194 H   0  0  0  0  0  0  0  0  0  0  0  0
  1  2  1  0
  2  3  1  0
  3  4  1  0
  4  5  2  0
  4  6  1  0
  6  7  1  0
  7  8  1  0
  8  9  2  0
  8 10  1  0
 10 11  2  0
 11 12  1  0
 12 13  2  0
 13 14  1  0
 14 15  2  0
 15 16  1  0
 16 17  1  0
 16 18  1  0
 16 19  1  0
 15 20  1  0
 20 21  2  0
 21 22  1  0
 22 23  2  0
  2 24  1  0
 24 25  2  0
 25 26  1  0
 26 27  2  0
 27 28  1  0
 28 29  2  0
 23 10  1  0
 29 24  1  0
 22 13  1  0
  1 30  1  0
  1 31  1  0
  1 32  1  0
  2 33  1  6
  3 34  1  0
  6 35  1  0
  6 36  1  0
  7 37  1  0
 11 38  1  0
 12 39  1  0
 14 40  1  0
 20 41  1  0
 21 42  1  0
 25 43  1  0
 26 44  1  0
 27 45  1  0
 28 46  1  0
 29 47  1  0
M  END
>  <smiles>  (44) 
C[C@@H](NC(=O)CNC(=O)c1ccc2cc(C(F)(F)F)ccc2n1)c1ccccc1

>  <score_type>  (44) 
oracle

>  <origin>  (44) 
autodockgpu

>  <m_score__min__energy>  (44) 
-7.9900000000000002

>  <m_primary>  (44) 
energy

>  <rmsd>  (44) 
9.881747934005773

>  <m_score__min__rmsd>  (44) 
9.881747934005773

>  <meeko>  (44) 
{"free_energy": -7.85, "intermolecular_energy": -9.64, "internal_energy": -2.08, "cluster_size": 42, "cluster_id": 1, "rank_in_cluster": 33}

>  <energy>  (44) 
-7.25

>  <cluster_rmsd>  (44) 
1.36

>  <cluster>  (44) 
2

$$$$

     RDKit          3D

 47 49  0  0  0  0  0  0  0  0999 V2000
  139.2760   68.2380  225.3020 C   0  0  0  0  0  0  0  0  0  0  0  0
  140.2300   69.3390  224.9370 C   0  0  1  0  0  0  0  0  0  0  0  0
  139.7080   70.0590  223.7890 N   0  0  0  0  0  0  0  0  0  0  0  0
  138.4130   70.6340  223.7860 C   0  0  0  0  0  0  0  0  0  0  0  0
  137.6960   70.5140  224.8320 O   0  0  0  0  0  0  0  0  0  0  0  0
  137.8210   71.3730  222.6550 C   0  0  0  0  0  0  0  0  0  0  0  0
  138.4230   72.6310  222.3530 N   0  0  0  0  0  0  0  0  0  0  0  0
  139.7730   72.7470  221.8800 C   0  0  0  0  0  0  0  0  0  0  0  0
  140.5120   71.7400  221.6960 O   0  0  0  0  0  0  0  0  0  0  0  0
  140.3170   74.0940  221.5990 C   0  0  0  0  0  0  0  0  0  0  0  0
  141.3680   74.2340  220.7190 C   0  0  0  0  0  0  0  0  0  0  0  0
  141.8390   75.5100  220.4910 C   0  0  0  0  0  0  0  0  0  0  0  0
  141.3130   76.6320  221.0960 C   0  0  0  0  0  0  0  0  0  0  0  0
  141.7860   77.9080  220.8660 C   0  0  0  0  0  0  0  0  0  0  0  0
  141.1700   78.9510  221.5360 C   0  0  0  0  0  0  0  0  0  0  0  0
  141.6330   80.3650  221.3350 C   0  0  0  0  0  0  0  0  0  0  0  0
  140.5070   81.1930  221.2320 F   0  0  0  0  0  0  0  0  0  0  0  0
  142.2720   80.7660  222.4880 F   0  0  0  0  0  0  0  0  0  0  0  0
  142.4300   80.4890  220.2130 F   0  0  0  0  0  0  0  0  0  0  0  0
  140.1180   78.7570  222.4100 C   0  0  0  0  0  0  0  0  0  0  0  0
  139.6460   77.4790  222.6380 C   0  0  0  0  0  0  0  0  0  0  0  0
  140.2590   76.4370  221.9710 C   0  0  0  0  0  0  0  0  0  0  0  0
  139.7970   75.1930  222.1960 N   0  0  0  0  0  0  0  0  0  0  0  0
  140.3810   70.2200  226.1370 C   0  0  0  0  0  0  0  0  0  0  0  0
  139.7540   69.9220  227.3400 C   0  0  0  0  0  0  0  0  0  0  0  0
  139.9300   70.7800  228.4290 C   0  0  0  0  0  0  0  0  0  0  0  0
  140.7090   71.9140  228.3460 C   0  0  0  0  0  0  0  0  0  0  0  0
  141.3320   72.2100  227.1520 C   0  0  0  0  0  0  0  0  0  0  0  0
  141.1560   71.3630  226.0780 C   0  0  0  0  0  0  0  0  0  0  0  0
  139.2081   68.1597  226.3971 H   0  0  0  0  0  0  0  0  0  0  0  0
  138.2818   68.4621  224.8881 H   0  0  0  0  0  0  0  0  0  0  0  0
  139.6393   67.2858  224.8881 H   0  0  0  0  0  0  0  0  0  0  0  0
  141.2195   68.9498  224.6553 H   0  0  0  0  0  0  0  0  0  0  0  0
  140.3330   70.1430  222.9620 H   0  0  0  0  0  0  0  0  0  0  0  0
  137.8977   70.7384  221.7598 H   0  0  0  0  0  0  0  0  0  0  0  0
  136.7872   71.6003  222.9545 H   0  0  0  0  0  0  0  0  0  0  0  0
  137.8980   73.5510  222.4640 H   0  0  0  0  0  0  0  0  0  0  0  0
  141.8139   73.3622  220.2179 H   0  0  0  0  0  0  0  0  0  0  0  0
  142.6773   75.6394  219.7906 H   0  0  0  0  0  0  0  0  0  0  0  0
  142.6224   78.0897  220.1751 H   0  0  0  0  0  0  0  0  0  0  0  0
  139.6586   79.6156  222.9217 H   0  0  0  0  0  0  0  0  0  0  0  0
  138.8091   77.2973  223.3284 H   0  0  0  0  0  0  0  0  0  0  0  0
  139.1274   69.0228  227.4343 H   0  0  0  0  0  0  0  0  0  0  0  0
  139.4320   70.5432  229.3808 H   0  0  0  0  0  0  0  0  0  0  0  0
  140.8318   72.5725  229.2185 H   0  0  0  0  0  0  0  0  0  0  0  0
  141.9599   73.1082  227.0576 H   0  0  0  0  0  0  0  0  0  0  0  0
  141.6561   71.6086  225.1295 H   0  0  0  0  0  0  0  0  0  0  0  0
  1  2  1  0
  2  3  1  0
  3  4  1  0
  4  5  2  0
  4  6  1  0
  6  7  1  0
  7  8  1  0
  8  9  2  0
  8 10  1  0
 10 11  2  0
 11 12  1  0
 12 13  2  0
 13 14  1  0
 14 15  2  0
 15 16  1  0
 16 17  1  0
 16 18  1  0
 16 19  1  0
 15 20  1  0
 20 21  2  0
 21 22  1  0
 22 23  2  0
  2 24  1  0
 24 25  2  0
 25 26  1  0
 26 27  2  0
 27 28  1  0
 28 29  2  0
 23 10  1  0
 29 24  1  0
 22 13  1  0
  1 30  1  0
  1 31  1  0
  1 32  1  0
  2 33  1  6
  3 34  1  0
  6 35  1  0
  6 36  1  0
  7 37  1  0
 11 38  1  0
 12 39  1  0
 14 40  1  0
 20 41  1  0
 21 42  1  0
 25 43  1  0
 26 44  1  0
 27 45  1  0
 28 46  1  0
 29 47  1  0
M  END
>  <smiles>  (45) 
C[C@@H](NC(=O)CNC(=O)c1ccc2cc(C(F)(F)F)ccc2n1)c1ccccc1

>  <score_type>  (45) 
oracle

>  <origin>  (45) 
autodockgpu

>  <m_score__min__energy>  (45) 
-7.9900000000000002

>  <m_primary>  (45) 
energy

>  <rmsd>  (45) 
9.720095922100699

>  <m_score__min__rmsd>  (45) 
9.720095922100699

>  <meeko>  (45) 
{"free_energy": -7.67, "intermolecular_energy": -9.46, "internal_energy": -2.14, "cluster_size": 42, "cluster_id": 1, "rank_in_cluster": 36}

>  <energy>  (45) 
-7.82

>  <cluster_rmsd>  (45) 
0.0

>  <cluster>  (45) 
3

$$$$

     RDKit          3D

 47 49  0  0  0  0  0  0  0  0999 V2000
  138.1710   69.2760  224.9810 C   0  0  0  0  0  0  0  0  0  0  0  0
  139.5510   69.7730  224.6580 C   0  0  1  0  0  0  0  0  0  0  0  0
  139.4810   70.6550  223.5070 N   0  0  0  0  0  0  0  0  0  0  0  0
  139.2040   70.1730  222.2050 C   0  0  0  0  0  0  0  0  0  0  0  0
  139.0080   68.9230  222.0520 O   0  0  0  0  0  0  0  0  0  0  0  0
  139.1220   71.0120  220.9940 C   0  0  0  0  0  0  0  0  0  0  0  0
  138.8450   72.3940  221.2140 N   0  0  0  0  0  0  0  0  0  0  0  0
  139.7550   73.2620  221.9070 C   0  0  0  0  0  0  0  0  0  0  0  0
  140.8610   72.8570  222.3590 O   0  0  0  0  0  0  0  0  0  0  0  0
  139.3810   74.6810  222.0960 C   0  0  0  0  0  0  0  0  0  0  0  0
  138.0550   75.0510  222.0270 C   0  0  0  0  0  0  0  0  0  0  0  0
  137.7580   76.3850  222.2100 C   0  0  0  0  0  0  0  0  0  0  0  0
  138.7140   77.3480  222.4560 C   0  0  0  0  0  0  0  0  0  0  0  0
  138.4140   78.6820  222.6390 C   0  0  0  0  0  0  0  0  0  0  0  0
  139.4660   79.5490  222.8790 C   0  0  0  0  0  0  0  0  0  0  0  0
  139.2140   81.0150  223.0870 C   0  0  0  0  0  0  0  0  0  0  0  0
  140.4440   81.6850  223.0850 F   0  0  0  0  0  0  0  0  0  0  0  0
  138.5440   81.4870  221.9790 F   0  0  0  0  0  0  0  0  0  0  0  0
  138.5320   81.2560  224.2650 F   0  0  0  0  0  0  0  0  0  0  0  0
  140.7800   79.1270  222.9390 C   0  0  0  0  0  0  0  0  0  0  0  0
  141.0780   77.7910  222.7560 C   0  0  0  0  0  0  0  0  0  0  0  0
  140.0290   76.9240  222.5160 C   0  0  0  0  0  0  0  0  0  0  0  0
  140.3230   75.6230  222.3370 N   0  0  0  0  0  0  0  0  0  0  0  0
  140.0760   70.4670  225.8740 C   0  0  0  0  0  0  0  0  0  0  0  0
  139.7630   70.0270  227.1540 C   0  0  0  0  0  0  0  0  0  0  0  0
  140.2810   70.7140  228.2550 C   0  0  0  0  0  0  0  0  0  0  0  0
  141.0950   71.8170  228.1100 C   0  0  0  0  0  0  0  0  0  0  0  0
  141.4050   72.2550  226.8400 C   0  0  0  0  0  0  0  0  0  0  0  0
  140.8930   71.5760  225.7540 C   0  0  0  0  0  0  0  0  0  0  0  0
  138.0439   69.2302  226.0727 H   0  0  0  0  0  0  0  0  0  0  0  0
  137.4248   69.9619  224.5534 H   0  0  0  0  0  0  0  0  0  0  0  0
  138.0335   68.2719  224.5534 H   0  0  0  0  0  0  0  0  0  0  0  0
  140.2342   68.9514  224.3969 H   0  0  0  0  0  0  0  0  0  0  0  0
  139.6340   71.6690  223.6810 H   0  0  0  0  0  0  0  0  0  0  0  0
  140.0854   70.9404  220.4679 H   0  0  0  0  0  0  0  0  0  0  0  0
  138.2684   70.6240  220.4189 H   0  0  0  0  0  0  0  0  0  0  0  0
  137.9450   72.8520  220.8750 H   0  0  0  0  0  0  0  0  0  0  0  0
  137.2645   74.3109  221.8335 H   0  0  0  0  0  0  0  0  0  0  0  0
  136.7045   76.6971  222.1571 H   0  0  0  0  0  0  0  0  0  0  0  0
  137.3761   79.0437  222.5958 H   0  0  0  0  0  0  0  0  0  0  0  0
  141.5850   79.8515  223.1316 H   0  0  0  0  0  0  0  0  0  0  0  0
  142.1158   77.4290  222.7998 H   0  0  0  0  0  0  0  0  0  0  0  0
  139.1159   69.1493  227.2989 H   0  0  0  0  0  0  0  0  0  0  0  0
  140.0318   70.3642  229.2677 H   0  0  0  0  0  0  0  0  0  0  0  0
  141.4909   72.3394  228.9934 H   0  0  0  0  0  0  0  0  0  0  0  0
  142.0513   73.1332  226.6949 H   0  0  0  0  0  0  0  0  0  0  0  0
  141.1466   71.9336  224.7451 H   0  0  0  0  0  0  0  0  0  0  0  0
  1  2  1  0
  2  3  1  0
  3  4  1  0
  4  5  2  0
  4  6  1  0
  6  7  1  0
  7  8  1  0
  8  9  2  0
  8 10  1  0
 10 11  2  0
 11 12  1  0
 12 13  2  0
 13 14  1  0
 14 15  2  0
 15 16  1  0
 16 17  1  0
 16 18  1  0
 16 19  1  0
 15 20  1  0
 20 21  2  0
 21 22  1  0
 22 23  2  0
  2 24  1  0
 24 25  2  0
 25 26  1  0
 26 27  2  0
 27 28  1  0
 28 29  2  0
 23 10  1  0
 29 24  1  0
 22 13  1  0
  1 30  1  0
  1 31  1  0
  1 32  1  0
  2 33  1  6
  3 34  1  0
  6 35  1  0
  6 36  1  0
  7 37  1  0
 11 38  1  0
 12 39  1  0
 14 40  1  0
 20 41  1  0
 21 42  1  0
 25 43  1  0
 26 44  1  0
 27 45  1  0
 28 46  1  0
 29 47  1  0
M  END
>  <smiles>  (46) 
C[C@@H](NC(=O)CNC(=O)c1ccc2cc(C(F)(F)F)ccc2n1)c1ccccc1

>  <score_type>  (46) 
oracle

>  <origin>  (46) 
autodockgpu

>  <m_score__min__energy>  (46) 
-7.9900000000000002

>  <m_primary>  (46) 
energy

>  <rmsd>  (46) 
9.521865459665905

>  <m_score__min__rmsd>  (46) 
9.521865459665905

>  <meeko>  (46) 
{"free_energy": -7.48, "intermolecular_energy": -9.27, "internal_energy": -1.82, "cluster_size": 42, "cluster_id": 1, "rank_in_cluster": 41}

>  <energy>  (46) 
-7.21

>  <cluster_rmsd>  (46) 
1.04

>  <cluster>  (46) 
3

$$$$

     RDKit          3D

 47 49  0  0  0  0  0  0  0  0999 V2000
  139.0250   68.4740  224.9340 C   0  0  0  0  0  0  0  0  0  0  0  0
  140.0360   69.5510  224.6670 C   0  0  1  0  0  0  0  0  0  0  0  0
  139.5450   70.4110  223.6050 N   0  0  0  0  0  0  0  0  0  0  0  0
  138.2150   70.8990  223.5870 C   0  0  0  0  0  0  0  0  0  0  0  0
  137.4380   70.5700  224.5410 O   0  0  0  0  0  0  0  0  0  0  0  0
  137.6510   71.7710  222.5390 C   0  0  0  0  0  0  0  0  0  0  0  0
  138.3050   73.0270  222.3580 N   0  0  0  0  0  0  0  0  0  0  0  0
  139.5830   73.1460  221.7170 C   0  0  0  0  0  0  0  0  0  0  0  0
  140.2070   72.1460  221.2660 O   0  0  0  0  0  0  0  0  0  0  0  0
  140.1890   74.4890  221.5800 C   0  0  0  0  0  0  0  0  0  0  0  0
  141.3210   74.6500  220.8100 C   0  0  0  0  0  0  0  0  0  0  0  0
  141.8490   75.9200  220.7150 C   0  0  0  0  0  0  0  0  0  0  0  0
  141.3010   77.0180  221.3450 C   0  0  0  0  0  0  0  0  0  0  0  0
  141.8310   78.2880  221.2480 C   0  0  0  0  0  0  0  0  0  0  0  0
  141.1860   79.3060  221.9300 C   0  0  0  0  0  0  0  0  0  0  0  0
  141.7060   80.7130  221.8700 C   0  0  0  0  0  0  0  0  0  0  0  0
  141.6430   81.1560  220.5420 F   0  0  0  0  0  0  0  0  0  0  0  0
  140.8250   81.5170  222.5600 F   0  0  0  0  0  0  0  0  0  0  0  0
  142.9990   80.8040  222.3500 F   0  0  0  0  0  0  0  0  0  0  0  0
  140.0520   79.0920  222.6900 C   0  0  0  0  0  0  0  0  0  0  0  0
  139.5240   77.8190  222.7860 C   0  0  0  0  0  0  0  0  0  0  0  0
  140.1650   76.8020  222.1060 C   0  0  0  0  0  0  0  0  0  0  0  0
  139.6480   75.5640  222.2020 N   0  0  0  0  0  0  0  0  0  0  0  0
  140.2490   70.2960  225.9470 C   0  0  0  0  0  0  0  0  0  0  0  0
  139.7440   69.8270  227.1520 C   0  0  0  0  0  0  0  0  0  0  0  0
  139.9740   70.5640  228.3180 C   0  0  0  0  0  0  0  0  0  0  0  0
  140.6870   71.7430  228.3080 C   0  0  0  0  0  0  0  0  0  0  0  0
  141.1890   72.2090  227.1110 C   0  0  0  0  0  0  0  0  0  0  0  0
  140.9610   71.4810  225.9610 C   0  0  0  0  0  0  0  0  0  0  0  0
  138.9043   68.3454  226.0198 H   0  0  0  0  0  0  0  0  0  0  0  0
  138.0601   68.7584  224.4889 H   0  0  0  0  0  0  0  0  0  0  0  0
  139.3698   67.5290  224.4889 H   0  0  0  0  0  0  0  0  0  0  0  0
  140.9991   69.1381  224.3325 H   0  0  0  0  0  0  0  0  0  0  0  0
  140.2190   70.6640  222.8540 H   0  0  0  0  0  0  0  0  0  0  0  0
  137.6975   71.2256  221.5849 H   0  0  0  0  0  0  0  0  0  0  0  0
  136.6290   72.0108  222.8676 H   0  0  0  0  0  0  0  0  0  0  0  0
  137.8740   73.9420  222.6930 H   0  0  0  0  0  0  0  0  0  0  0  0
  141.7851   73.7981  220.2914 H   0  0  0  0  0  0  0  0  0  0  0  0
  142.7533   76.0651  220.1058 H   0  0  0  0  0  0  0  0  0  0  0  0
  142.7333   78.4848  220.6505 H   0  0  0  0  0  0  0  0  0  0  0  0
  139.5723   79.9307  223.2157 H   0  0  0  0  0  0  0  0  0  0  0  0
  138.6224   77.6218  223.3845 H   0  0  0  0  0  0  0  0  0  0  0  0
  139.1710   68.8888  227.1892 H   0  0  0  0  0  0  0  0  0  0  0  0
  139.5735   70.1911  229.2722 H   0  0  0  0  0  0  0  0  0  0  0  0
  140.8531   72.3035  229.2398 H   0  0  0  0  0  0  0  0  0  0  0  0
  141.7625   73.1469  227.0735 H   0  0  0  0  0  0  0  0  0  0  0  0
  141.3646   71.8614  225.0111 H   0  0  0  0  0  0  0  0  0  0  0  0
  1  2  1  0
  2  3  1  0
  3  4  1  0
  4  5  2  0
  4  6  1  0
  6  7  1  0
  7  8  1  0
  8  9  2  0
  8 10  1  0
 10 11  2  0
 11 12  1  0
 12 13  2  0
 13 14  1  0
 14 15  2  0
 15 16  1  0
 16 17  1  0
 16 18  1  0
 16 19  1  0
 15 20  1  0
 20 21  2  0
 21 22  1  0
 22 23  2  0
  2 24  1  0
 24 25  2  0
 25 26  1  0
 26 27  2  0
 27 28  1  0
 28 29  2  0
 23 10  1  0
 29 24  1  0
 22 13  1  0
  1 30  1  0
  1 31  1  0
  1 32  1  0
  2 33  1  6
  3 34  1  0
  6 35  1  0
  6 36  1  0
  7 37  1  0
 11 38  1  0
 12 39  1  0
 14 40  1  0
 20 41  1  0
 21 42  1  0
 25 43  1  0
 26 44  1  0
 27 45  1  0
 28 46  1  0
 29 47  1  0
M  END
>  <smiles>  (47) 
C[C@@H](NC(=O)CNC(=O)c1ccc2cc(C(F)(F)F)ccc2n1)c1ccccc1

>  <score_type>  (47) 
oracle

>  <origin>  (47) 
autodockgpu

>  <m_score__min__energy>  (47) 
-7.9900000000000002

>  <m_primary>  (47) 
energy

>  <rmsd>  (47) 
9.683872685977468

>  <m_score__min__rmsd>  (47) 
9.683872685977468

>  <meeko>  (47) 
{"free_energy": -7.91, "intermolecular_energy": -9.7, "internal_energy": -2.07, "cluster_size": 42, "cluster_id": 1, "rank_in_cluster": 26}

>  <energy>  (47) 
-7.63

>  <cluster_rmsd>  (47) 
0.0

>  <cluster>  (47) 
4

$$$$

     RDKit          3D

 47 49  0  0  0  0  0  0  0  0999 V2000
  139.0070   68.5620  224.9720 C   0  0  0  0  0  0  0  0  0  0  0  0
  140.0310   69.6210  224.6790 C   0  0  1  0  0  0  0  0  0  0  0  0
  139.5470   70.4640  223.6000 N   0  0  0  0  0  0  0  0  0  0  0  0
  138.2400   71.0100  223.6000 C   0  0  0  0  0  0  0  0  0  0  0  0
  137.4770   70.7500  224.5860 O   0  0  0  0  0  0  0  0  0  0  0  0
  137.6840   71.8690  222.5370 C   0  0  0  0  0  0  0  0  0  0  0  0
  138.3250   73.1320  222.3610 N   0  0  0  0  0  0  0  0  0  0  0  0
  139.6260   73.2610  221.7700 C   0  0  0  0  0  0  0  0  0  0  0  0
  140.2840   72.2640  221.3620 O   0  0  0  0  0  0  0  0  0  0  0  0
  140.2160   74.6110  221.6350 C   0  0  0  0  0  0  0  0  0  0  0  0
  141.3050   74.8000  220.8110 C   0  0  0  0  0  0  0  0  0  0  0  0
  141.8190   76.0760  220.7200 C   0  0  0  0  0  0  0  0  0  0  0  0
  141.2980   77.1540  221.4050 C   0  0  0  0  0  0  0  0  0  0  0  0
  141.8140   78.4300  221.3110 C   0  0  0  0  0  0  0  0  0  0  0  0
  141.2000   79.4260  222.0510 C   0  0  0  0  0  0  0  0  0  0  0  0
  141.7070   80.8380  221.9980 C   0  0  0  0  0  0  0  0  0  0  0  0
  142.9860   80.8740  222.5700 F   0  0  0  0  0  0  0  0  0  0  0  0
  141.8950   81.1670  220.6730 F   0  0  0  0  0  0  0  0  0  0  0  0
  140.8600   81.7140  222.6500 F   0  0  0  0  0  0  0  0  0  0  0  0
  140.1090   79.1850  222.8640 C   0  0  0  0  0  0  0  0  0  0  0  0
  139.5940   77.9060  222.9560 C   0  0  0  0  0  0  0  0  0  0  0  0
  140.2060   76.9110  222.2180 C   0  0  0  0  0  0  0  0  0  0  0  0
  139.7020   75.6670  222.3110 N   0  0  0  0  0  0  0  0  0  0  0  0
  140.2570   70.3910  225.9420 C   0  0  0  0  0  0  0  0  0  0  0  0
  140.9760   71.5790  225.9500 C   0  0  0  0  0  0  0  0  0  0  0  0
  141.1560   72.2560  227.1590 C   0  0  0  0  0  0  0  0  0  0  0  0
  140.6410   71.7820  228.3460 C   0  0  0  0  0  0  0  0  0  0  0  0
  139.9260   70.6020  228.3380 C   0  0  0  0  0  0  0  0  0  0  0  0
  139.7500   69.9350  227.1440 C   0  0  0  0  0  0  0  0  0  0  0  0
  138.8977   68.4489  226.0607 H   0  0  0  0  0  0  0  0  0  0  0  0
  138.0410   68.8551  224.5349 H   0  0  0  0  0  0  0  0  0  0  0  0
  139.3324   67.6064  224.5349 H   0  0  0  0  0  0  0  0  0  0  0  0
  140.9880   69.1891  224.3510 H   0  0  0  0  0  0  0  0  0  0  0  0
  140.2100   70.6600  222.8220 H   0  0  0  0  0  0  0  0  0  0  0  0
  137.7549   71.3191  221.5870 H   0  0  0  0  0  0  0  0  0  0  0  0
  136.6532   72.0973  222.8456 H   0  0  0  0  0  0  0  0  0  0  0  0
  137.8670   74.0450  222.6620 H   0  0  0  0  0  0  0  0  0  0  0  0
  141.7468   73.9648  220.2478 H   0  0  0  0  0  0  0  0  0  0  0  0
  142.6890   76.2430  220.0679 H   0  0  0  0  0  0  0  0  0  0  0  0
  142.6818   78.6481  220.6713 H   0  0  0  0  0  0  0  0  0  0  0  0
  139.6528   80.0070  223.4350 H   0  0  0  0  0  0  0  0  0  0  0  0
  138.7260   77.6873  223.5953 H   0  0  0  0  0  0  0  0  0  0  0  0
  141.3980   71.9816  225.0174 H   0  0  0  0  0  0  0  0  0  0  0  0
  141.7265   73.1965  227.1634 H   0  0  0  0  0  0  0  0  0  0  0  0
  140.7973   72.3350  229.2840 H   0  0  0  0  0  0  0  0  0  0  0  0
  139.5027   70.1994  229.2701 H   0  0  0  0  0  0  0  0  0  0  0  0
  139.1787   68.9950  227.1485 H   0  0  0  0  0  0  0  0  0  0  0  0
  1  2  1  0
  2  3  1  0
  3  4  1  0
  4  5  2  0
  4  6  1  0
  6  7  1  0
  7  8  1  0
  8  9  2  0
  8 10  1  0
 10 11  2  0
 11 12  1  0
 12 13  2  0
 13 14  1  0
 14 15  2  0
 15 16  1  0
 16 17  1  0
 16 18  1  0
 16 19  1  0
 15 20  1  0
 20 21  2  0
 21 22  1  0
 22 23  2  0
  2 24  1  0
 24 25  2  0
 25 26  1  0
 26 27  2  0
 27 28  1  0
 28 29  2  0
 23 10  1  0
 29 24  1  0
 22 13  1  0
  1 30  1  0
  1 31  1  0
  1 32  1  0
  2 33  1  6
  3 34  1  0
  6 35  1  0
  6 36  1  0
  7 37  1  0
 11 38  1  0
 12 39  1  0
 14 40  1  0
 20 41  1  0
 21 42  1  0
 25 43  1  0
 26 44  1  0
 27 45  1  0
 28 46  1  0
 29 47  1  0
M  END
>  <smiles>  (48) 
C[C@@H](NC(=O)CNC(=O)c1ccc2cc(C(F)(F)F)ccc2n1)c1ccccc1

>  <score_type>  (48) 
oracle

>  <origin>  (48) 
autodockgpu

>  <m_score__min__energy>  (48) 
-7.9900000000000002

>  <m_primary>  (48) 
energy

>  <rmsd>  (48) 
9.862052966471476

>  <m_score__min__rmsd>  (48) 
9.862052966471476

>  <meeko>  (48) 
{"free_energy": -7.92, "intermolecular_energy": -9.71, "internal_energy": -2.1, "cluster_size": 42, "cluster_id": 1, "rank_in_cluster": 19}

>  <energy>  (48) 
-7.51

>  <cluster_rmsd>  (48) 
0.33

>  <cluster>  (48) 
4

$$$$

     RDKit          3D

 47 49  0  0  0  0  0  0  0  0999 V2000
  139.0600   68.5180  224.9880 C   0  0  0  0  0  0  0  0  0  0  0  0
  140.0650   69.6000  224.7190 C   0  0  1  0  0  0  0  0  0  0  0  0
  139.5800   70.4420  223.6400 N   0  0  0  0  0  0  0  0  0  0  0  0
  138.2630   70.9630  223.6260 C   0  0  0  0  0  0  0  0  0  0  0  0
  137.4910   70.6810  224.5990 O   0  0  0  0  0  0  0  0  0  0  0  0
  137.7050   71.8190  222.5620 C   0  0  0  0  0  0  0  0  0  0  0  0
  138.3420   73.0840  222.3860 N   0  0  0  0  0  0  0  0  0  0  0  0
  139.6420   73.2180  221.7950 C   0  0  0  0  0  0  0  0  0  0  0  0
  140.3030   72.2240  221.3870 O   0  0  0  0  0  0  0  0  0  0  0  0
  140.2270   74.5700  221.6600 C   0  0  0  0  0  0  0  0  0  0  0  0
  141.3320   74.7570  220.8570 C   0  0  0  0  0  0  0  0  0  0  0  0
  141.8400   76.0360  220.7640 C   0  0  0  0  0  0  0  0  0  0  0  0
  141.3000   77.1160  221.4290 C   0  0  0  0  0  0  0  0  0  0  0  0
  141.8110   78.3950  221.3350 C   0  0  0  0  0  0  0  0  0  0  0  0
  141.1760   79.3940  222.0530 C   0  0  0  0  0  0  0  0  0  0  0  0
  141.6770   80.8080  221.9980 C   0  0  0  0  0  0  0  0  0  0  0  0
  140.7820   81.6270  222.6990 F   0  0  0  0  0  0  0  0  0  0  0  0
  142.8540   80.8650  222.7140 F   0  0  0  0  0  0  0  0  0  0  0  0
  141.8230   81.2510  220.6970 F   0  0  0  0  0  0  0  0  0  0  0  0
  140.0700   79.1540  222.8450 C   0  0  0  0  0  0  0  0  0  0  0  0
  139.5610   77.8730  222.9380 C   0  0  0  0  0  0  0  0  0  0  0  0
  140.1920   76.8750  222.2220 C   0  0  0  0  0  0  0  0  0  0  0  0
  139.6940   75.6290  222.3150 N   0  0  0  0  0  0  0  0  0  0  0  0
  140.2560   70.3640  225.9910 C   0  0  0  0  0  0  0  0  0  0  0  0
  139.7000   69.9320  227.1880 C   0  0  0  0  0  0  0  0  0  0  0  0
  139.9110   70.6850  228.3470 C   0  0  0  0  0  0  0  0  0  0  0  0
  140.6550   71.8440  228.3390 C   0  0  0  0  0  0  0  0  0  0  0  0
  141.2080   72.2740  227.1500 C   0  0  0  0  0  0  0  0  0  0  0  0
  140.9980   71.5300  226.0080 C   0  0  0  0  0  0  0  0  0  0  0  0
  138.9410   68.3899  226.0740 H   0  0  0  0  0  0  0  0  0  0  0  0
  138.0932   68.7968  224.5436 H   0  0  0  0  0  0  0  0  0  0  0  0
  139.4093   67.5744  224.5436 H   0  0  0  0  0  0  0  0  0  0  0  0
  141.0354   69.1904  224.4017 H   0  0  0  0  0  0  0  0  0  0  0  0
  140.2490   70.6560  222.8730 H   0  0  0  0  0  0  0  0  0  0  0  0
  137.7787   71.2687  221.6124 H   0  0  0  0  0  0  0  0  0  0  0  0
  136.6729   72.0438  222.8691 H   0  0  0  0  0  0  0  0  0  0  0  0
  137.8800   73.9960  222.6870 H   0  0  0  0  0  0  0  0  0  0  0  0
  141.7906   73.9189  220.3117 H   0  0  0  0  0  0  0  0  0  0  0  0
  142.7209   76.2027  220.1267 H   0  0  0  0  0  0  0  0  0  0  0  0
  142.6911   78.6126  220.7120 H   0  0  0  0  0  0  0  0  0  0  0  0
  139.5971   79.9784  223.3987 H   0  0  0  0  0  0  0  0  0  0  0  0
  138.6818   77.6552  223.5621 H   0  0  0  0  0  0  0  0  0  0  0  0
  139.1016   69.0097  227.2238 H   0  0  0  0  0  0  0  0  0  0  0  0
  139.4694   70.3413  229.2940 H   0  0  0  0  0  0  0  0  0  0  0  0
  140.8060   72.4176  229.2654 H   0  0  0  0  0  0  0  0  0  0  0  0
  141.8070   73.1959  227.1137 H   0  0  0  0  0  0  0  0  0  0  0  0
  141.4425   71.8814  225.0652 H   0  0  0  0  0  0  0  0  0  0  0  0
  1  2  1  0
  2  3  1  0
  3  4  1  0
  4  5  2  0
  4  6  1  0
  6  7  1  0
  7  8  1  0
  8  9  2  0
  8 10  1  0
 10 11  2  0
 11 12  1  0
 12 13  2  0
 13 14  1  0
 14 15  2  0
 15 16  1  0
 16 17  1  0
 16 18  1  0
 16 19  1  0
 15 20  1  0
 20 21  2  0
 21 22  1  0
 22 23  2  0
  2 24  1  0
 24 25  2  0
 25 26  1  0
 26 27  2  0
 27 28  1  0
 28 29  2  0
 23 10  1  0
 29 24  1  0
 22 13  1  0
  1 30  1  0
  1 31  1  0
  1 32  1  0
  2 33  1  6
  3 34  1  0
  6 35  1  0
  6 36  1  0
  7 37  1  0
 11 38  1  0
 12 39  1  0
 14 40  1  0
 20 41  1  0
 21 42  1  0
 25 43  1  0
 26 44  1  0
 27 45  1  0
 28 46  1  0
 29 47  1  0
M  END
>  <smiles>  (49) 
C[C@@H](NC(=O)CNC(=O)c1ccc2cc(C(F)(F)F)ccc2n1)c1ccccc1

>  <score_type>  (49) 
oracle

>  <origin>  (49) 
autodockgpu

>  <m_score__min__energy>  (49) 
-7.9900000000000002

>  <m_primary>  (49) 
energy

>  <rmsd>  (49) 
9.664519024506475

>  <m_score__min__rmsd>  (49) 
9.664519024506475

>  <meeko>  (49) 
{"free_energy": -7.94, "intermolecular_energy": -9.73, "internal_energy": -2.1, "cluster_size": 42, "cluster_id": 1, "rank_in_cluster": 10}

>  <energy>  (49) 
-7.44

>  <cluster_rmsd>  (49) 
0.35

>  <cluster>  (49) 
4

$$$$

     RDKit          3D

 47 49  0  0  0  0  0  0  0  0999 V2000
  139.0690   80.6670  220.7610 C   0  0  0  0  0  0  0  0  0  0  0  0
  139.3850   79.5950  221.7650 C   0  0  1  0  0  0  0  0  0  0  0  0
  139.4990   78.3210  221.0780 N   0  0  0  0  0  0  0  0  0  0  0  0
  139.2860   77.0870  221.7410 C   0  0  0  0  0  0  0  0  0  0  0  0
  138.9790   77.1110  222.9770 O   0  0  0  0  0  0  0  0  0  0  0  0
  139.3880   75.7590  221.1060 C   0  0  0  0  0  0  0  0  0  0  0  0
  139.3300   74.6420  221.9930 N   0  0  0  0  0  0  0  0  0  0  0  0
  139.7790   73.3330  221.6140 C   0  0  0  0  0  0  0  0  0  0  0  0
  140.2600   73.0880  220.4730 O   0  0  0  0  0  0  0  0  0  0  0  0
  139.6730   72.2320  222.5970 C   0  0  0  0  0  0  0  0  0  0  0  0
  138.8610   71.1520  222.3250 C   0  0  0  0  0  0  0  0  0  0  0  0
  138.7960   70.1520  223.2730 C   0  0  0  0  0  0  0  0  0  0  0  0
  139.4970   70.1860  224.4600 C   0  0  0  0  0  0  0  0  0  0  0  0
  139.4310   69.1830  225.4060 C   0  0  0  0  0  0  0  0  0  0  0  0
  140.1840   69.3380  226.5570 C   0  0  0  0  0  0  0  0  0  0  0  0
  140.1600   68.2870  227.6300 C   0  0  0  0  0  0  0  0  0  0  0  0
  139.6210   68.8500  228.7940 F   0  0  0  0  0  0  0  0  0  0  0  0
  139.2590   67.3170  227.2470 F   0  0  0  0  0  0  0  0  0  0  0  0
  141.4200   67.7760  227.8770 F   0  0  0  0  0  0  0  0  0  0  0  0
  140.9840   70.4410  226.7830 C   0  0  0  0  0  0  0  0  0  0  0  0
  141.0490   71.4430  225.8330 C   0  0  0  0  0  0  0  0  0  0  0  0
  140.2980   71.2910  224.6840 C   0  0  0  0  0  0  0  0  0  0  0  0
  140.3630   72.2690  223.7620 N   0  0  0  0  0  0  0  0  0  0  0  0
  140.6550   79.9840  222.4530 C   0  0  0  0  0  0  0  0  0  0  0  0
  141.8060   79.2140  222.3430 C   0  0  0  0  0  0  0  0  0  0  0  0
  142.9650   79.6250  223.0080 C   0  0  0  0  0  0  0  0  0  0  0  0
  143.0010   80.7730  223.7700 C   0  0  0  0  0  0  0  0  0  0  0  0
  141.8590   81.5380  223.8790 C   0  0  0  0  0  0  0  0  0  0  0  0
  140.7160   81.1310  223.2230 C   0  0  0  0  0  0  0  0  0  0  0  0
  138.7959   81.5934  221.2875 H   0  0  0  0  0  0  0  0  0  0  0  0
  139.9514   80.8502  220.1302 H   0  0  0  0  0  0  0  0  0  0  0  0
  138.2284   80.3423  220.1302 H   0  0  0  0  0  0  0  0  0  0  0  0
  138.5913   79.4886  222.5192 H   0  0  0  0  0  0  0  0  0  0  0  0
  139.7390   78.3510  220.0660 H   0  0  0  0  0  0  0  0  0  0  0  0
  138.5603   75.6635  220.3878 H   0  0  0  0  0  0  0  0  0  0  0  0
  140.3859   75.7235  220.6444 H   0  0  0  0  0  0  0  0  0  0  0  0
  138.9490   74.7260  222.9840 H   0  0  0  0  0  0  0  0  0  0  0  0
  138.2872   71.0899  221.3886 H   0  0  0  0  0  0  0  0  0  0  0  0
  138.1521   69.2831  223.0718 H   0  0  0  0  0  0  0  0  0  0  0  0
  138.8031   68.2932  225.2509 H   0  0  0  0  0  0  0  0  0  0  0  0
  141.5657   70.5216  227.7131 H   0  0  0  0  0  0  0  0  0  0  0  0
  141.6781   72.3321  225.9871 H   0  0  0  0  0  0  0  0  0  0  0  0
  141.8055   78.2934  221.7409 H   0  0  0  0  0  0  0  0  0  0  0  0
  143.8755   79.0139  222.9205 H   0  0  0  0  0  0  0  0  0  0  0  0
  143.9262   81.0742  224.2831 H   0  0  0  0  0  0  0  0  0  0  0  0
  141.8595   82.4592  224.4802 H   0  0  0  0  0  0  0  0  0  0  0  0
  139.8102   81.7480  223.3168 H   0  0  0  0  0  0  0  0  0  0  0  0
  1  2  1  0
  2  3  1  0
  3  4  1  0
  4  5  2  0
  4  6  1  0
  6  7  1  0
  7  8  1  0
  8  9  2  0
  8 10  1  0
 10 11  2  0
 11 12  1  0
 12 13  2  0
 13 14  1  0
 14 15  2  0
 15 16  1  0
 16 17  1  0
 16 18  1  0
 16 19  1  0
 15 20  1  0
 20 21  2  0
 21 22  1  0
 22 23  2  0
  2 24  1  0
 24 25  2  0
 25 26  1  0
 26 27  2  0
 27 28  1  0
 28 29  2  0
 23 10  1  0
 29 24  1  0
 22 13  1  0
  1 30  1  0
  1 31  1  0
  1 32  1  0
  2 33  1  1
  3 34  1  0
  6 35  1  0
  6 36  1  0
  7 37  1  0
 11 38  1  0
 12 39  1  0
 14 40  1  0
 20 41  1  0
 21 42  1  0
 25 43  1  0
 26 44  1  0
 27 45  1  0
 28 46  1  0
 29 47  1  0
M  END
>  <smiles>  (50) 
C[C@@H](NC(=O)CNC(=O)c1ccc2cc(C(F)(F)F)ccc2n1)c1ccccc1

>  <score_type>  (50) 
oracle

>  <origin>  (50) 
autodockgpu

>  <m_score__min__energy>  (50) 
-7.9900000000000002

>  <m_primary>  (50) 
energy

>  <rmsd>  (50) 
3.9304537275603373

>  <m_score__min__rmsd>  (50) 
3.9304537275603373

>  <meeko>  (50) 
{"free_energy": -7.83, "intermolecular_energy": -9.62, "internal_energy": -1.44, "cluster_size": 2, "cluster_id": 2, "rank_in_cluster": 1}

>  <energy>  (50) 
-7.42

>  <cluster_rmsd>  (50) 
0.31

>  <cluster>  (50) 
4

$$$$
