
     RDKit          3D

 57 60  0  0  0  0  0  0  0  0999 V2000
  140.6580   73.3920  222.7110 O   0  0  0  0  0  0  0  0  0  0  0  0
  140.0800   72.2800  222.6250 C   0  0  0  0  0  0  0  0  0  0  0  0
  139.4830   72.0000  221.3340 N   0  0  0  0  0  0  0  0  0  0  0  0
  139.5450   72.8880  220.2540 C   0  0  0  0  0  0  0  0  0  0  0  0
  140.7490   73.5840  219.8330 C   0  0  0  0  0  0  0  0  0  0  0  0
  141.2790   73.0800  218.7530 O   0  0  0  0  0  0  0  0  0  0  0  0
  141.4520   74.6780  220.3550 N   0  0  0  0  0  0  0  0  0  0  0  0
  140.7050   75.8850  220.8660 C   0  0  0  0  0  0  0  0  0  0  0  0
  141.0700   77.0460  220.0490 C   0  0  0  0  0  0  0  0  0  0  0  0
  142.1930   76.8130  219.0720 C   0  0  0  0  0  0  0  0  0  0  0  0
  143.3250   76.0360  219.6220 C   0  0  0  0  0  0  0  0  0  0  0  0
  142.8610   74.8400  220.4770 C   0  0  2  0  0  0  0  0  0  0  0  0
  143.8620   73.7980  220.3930 C   0  0  0  0  0  0  0  0  0  0  0  0
  143.6200   72.4120  220.8470 C   0  0  0  0  0  0  0  0  0  0  0  0
  144.1800   71.4940  219.7170 C   0  0  0  0  0  0  0  0  0  0  0  0
  145.5590   72.0530  219.4540 C   0  0  0  0  0  0  0  0  0  0  0  0
  146.1060   72.9040  220.5730 C   0  0  0  0  0  0  0  0  0  0  0  0
  145.2780   74.1580  220.8100 C   0  0  0  0  0  0  0  0  0  0  0  0
  139.9980   71.3250  223.7240 C   0  0  0  0  0  0  0  0  0  0  0  0
  139.3360   70.1400  223.4680 C   0  0  0  0  0  0  0  0  0  0  0  0
  139.2550   69.2270  224.5130 C   0  0  0  0  0  0  0  0  0  0  0  0
  139.8220   69.5190  225.7420 C   0  0  0  0  0  0  0  0  0  0  0  0
  139.7700   68.6460  226.8110 C   0  0  0  0  0  0  0  0  0  0  0  0
  140.3470   68.9550  228.0450 C   0  0  0  0  0  0  0  0  0  0  0  0
  140.9920   70.1890  228.1830 C   0  0  0  0  0  0  0  0  0  0  0  0
  141.0520   71.0790  227.1120 C   0  0  0  0  0  0  0  0  0  0  0  0
  140.4690   70.7330  225.9120 C   0  0  0  0  0  0  0  0  0  0  0  0
  140.5420   71.6120  224.8950 N   0  0  0  0  0  0  0  0  0  0  0  0
  138.9980   71.0490  221.3080 H   0  0  0  0  0  0  0  0  0  0  0  0
  139.2136   72.3122  219.3773 H   0  0  0  0  0  0  0  0  0  0  0  0
  138.9486   73.7264  220.6430 H   0  0  0  0  0  0  0  0  0  0  0  0
  139.6218   75.7076  220.7936 H   0  0  0  0  0  0  0  0  0  0  0  0
  140.9681   76.0701  221.9179 H   0  0  0  0  0  0  0  0  0  0  0  0
  140.1812   77.3545  219.4791 H   0  0  0  0  0  0  0  0  0  0  0  0
  141.4290   77.8133  220.7506 H   0  0  0  0  0  0  0  0  0  0  0  0
  141.7891   76.2680  218.2061 H   0  0  0  0  0  0  0  0  0  0  0  0
  142.5900   77.8036  218.8054 H   0  0  0  0  0  0  0  0  0  0  0  0
  143.9320   75.6576  218.7863 H   0  0  0  0  0  0  0  0  0  0  0  0
  143.9053   76.7065  220.2728 H   0  0  0  0  0  0  0  0  0  0  0  0
  142.8566   74.9310  221.5732 H   0  0  0  0  0  0  0  0  0  0  0  0
  143.7312   73.7649  219.3013 H   0  0  0  0  0  0  0  0  0  0  0  0
  144.1474   72.2207  221.7932 H   0  0  0  0  0  0  0  0  0  0  0  0
  142.5515   72.2253  221.0297 H   0  0  0  0  0  0  0  0  0  0  0  0
  144.2379   70.4483  220.0534 H   0  0  0  0  0  0  0  0  0  0  0  0
  143.5443   71.4858  218.8193 H   0  0  0  0  0  0  0  0  0  0  0  0
  146.2477   71.2105  219.2933 H   0  0  0  0  0  0  0  0  0  0  0  0
  145.4720   72.7069  218.5737 H   0  0  0  0  0  0  0  0  0  0  0  0
  146.1155   72.3077  221.4973 H   0  0  0  0  0  0  0  0  0  0  0  0
  147.1192   73.2220  220.2862 H   0  0  0  0  0  0  0  0  0  0  0  0
  145.3051   74.4408  221.8727 H   0  0  0  0  0  0  0  0  0  0  0  0
  145.6649   75.0149  220.2390 H   0  0  0  0  0  0  0  0  0  0  0  0
  138.8936   69.9287  222.4833 H   0  0  0  0  0  0  0  0  0  0  0  0
  138.7379   68.2678  224.3629 H   0  0  0  0  0  0  0  0  0  0  0  0
  139.2595   67.6796  226.6871 H   0  0  0  0  0  0  0  0  0  0  0  0
  140.2957   68.2473  228.8856 H   0  0  0  0  0  0  0  0  0  0  0  0
  141.4551   70.4587  229.1437 H   0  0  0  0  0  0  0  0  0  0  0  0
  141.5599   72.0484  227.2234 H   0  0  0  0  0  0  0  0  0  0  0  0
  1  2  2  0
  2  3  1  0
  3  4  1  0
  4  5  1  0
  5  6  2  0
  5  7  1  0
  7  8  1  0
  8  9  1  0
  9 10  1  0
 10 11  1  0
 11 12  1  0
 12 13  1  0
 13 14  1  0
 14 15  1  0
 15 16  1  0
 16 17  1  0
 17 18  1  0
  2 19  1  0
 19 20  2  0
 20 21  1  0
 21 22  2  0
 22 23  1  0
 23 24  2  0
 24 25  1  0
 25 26  2  0
 26 27  1  0
 27 28  2  0
 12  7  1  0
 18 13  1  0
 28 19  1  0
 27 22  1  0
  3 29  1  0
  4 30  1  0
  4 31  1  0
  8 32  1  0
  8 33  1  0
  9 34  1  0
  9 35  1  0
 10 36  1  0
 10 37  1  0
 11 38  1  0
 11 39  1  0
 12 40  1  1
 13 41  1  0
 14 42  1  0
 14 43  1  0
 15 44  1  0
 15 45  1  0
 16 46  1  0
 16 47  1  0
 17 48  1  0
 17 49  1  0
 18 50  1  0
 18 51  1  0
 20 52  1  0
 21 53  1  0
 23 54  1  0
 24 55  1  0
 25 56  1  0
 26 57  1  0
M  END
>  <smiles>  (1) 
O=C(NCC(=O)N1CCCCC1C1CCCCC1)c1ccc2ccccc2n1

>  <score_type>  (1) 
oracle

>  <origin>  (1) 
autodockgpu

>  <m_score__min__energy>  (1) 
-9.3100000000000005

>  <m_primary>  (1) 
energy

>  <rmsd>  (1) 
2.3374919878518505

>  <m_score__min__rmsd>  (1) 
2.3374919878518505

>  <meeko>  (1) 
{"free_energy": -8.22, "intermolecular_energy": -9.71, "internal_energy": -1.7, "cluster_size": 2, "cluster_id": 4, "rank_in_cluster": 2}

>  <energy>  (1) 
-9.31

>  <cluster_rmsd>  (1) 
0.0

>  <cluster>  (1) 
1

$$$$

     RDKit          3D

 57 60  0  0  0  0  0  0  0  0999 V2000
  139.8680   71.2280  221.2250 O   0  0  0  0  0  0  0  0  0  0  0  0
  139.7930   71.8350  222.3230 C   0  0  0  0  0  0  0  0  0  0  0  0
  139.5770   73.2650  222.2180 N   0  0  0  0  0  0  0  0  0  0  0  0
  139.4520   73.9310  220.9930 C   0  0  0  0  0  0  0  0  0  0  0  0
  140.5700   74.4560  220.2280 C   0  0  0  0  0  0  0  0  0  0  0  0
  140.6690   73.9280  219.0400 O   0  0  0  0  0  0  0  0  0  0  0  0
  141.5580   75.4090  220.5120 N   0  0  0  0  0  0  0  0  0  0  0  0
  141.1690   76.7910  220.9720 C   0  0  0  0  0  0  0  0  0  0  0  0
  141.6300   77.7650  219.9780 C   0  0  0  0  0  0  0  0  0  0  0  0
  142.5080   77.2030  218.8910 C   0  0  0  0  0  0  0  0  0  0  0  0
  143.5290   76.2460  219.3680 C   0  0  0  0  0  0  0  0  0  0  0  0
  142.9710   75.2630  220.4170 C   0  0  2  0  0  0  0  0  0  0  0  0
  143.7090   74.0200  220.3230 C   0  0  0  0  0  0  0  0  0  0  0  0
  143.1890   72.7360  220.8370 C   0  0  0  0  0  0  0  0  0  0  0  0
  143.4670   71.6890  219.7150 C   0  0  0  0  0  0  0  0  0  0  0  0
  144.9190   71.9170  219.3660 C   0  0  0  0  0  0  0  0  0  0  0  0
  145.7030   72.6510  220.4250 C   0  0  0  0  0  0  0  0  0  0  0  0
  145.1900   74.0640  220.6570 C   0  0  0  0  0  0  0  0  0  0  0  0
  139.9110   71.1770  223.6190 C   0  0  0  0  0  0  0  0  0  0  0  0
  139.5120   69.8570  223.6830 C   0  0  0  0  0  0  0  0  0  0  0  0
  139.6220   69.2270  224.9170 C   0  0  0  0  0  0  0  0  0  0  0  0
  140.1140   69.9160  226.0130 C   0  0  0  0  0  0  0  0  0  0  0  0
  140.2430   69.3350  227.2600 C   0  0  0  0  0  0  0  0  0  0  0  0
  140.7410   70.0440  228.3560 C   0  0  0  0  0  0  0  0  0  0  0  0
  141.1130   71.3790  228.1670 C   0  0  0  0  0  0  0  0  0  0  0  0
  140.9870   71.9770  226.9140 C   0  0  0  0  0  0  0  0  0  0  0  0
  140.4920   71.2410  225.8600 C   0  0  0  0  0  0  0  0  0  0  0  0
  140.3810   71.8430  224.6610 N   0  0  0  0  0  0  0  0  0  0  0  0
  139.5250   73.7400  223.1720 H   0  0  0  0  0  0  0  0  0  0  0  0
  138.9394   73.2253  220.3227 H   0  0  0  0  0  0  0  0  0  0  0  0
  138.9670   74.8643  221.3150 H   0  0  0  0  0  0  0  0  0  0  0  0
  140.0753   76.8536  221.0719 H   0  0  0  0  0  0  0  0  0  0  0  0
  141.6301   77.0046  221.9476 H   0  0  0  0  0  0  0  0  0  0  0  0
  140.7443   78.2123  219.5032 H   0  0  0  0  0  0  0  0  0  0  0  0
  142.2482   78.4917  220.5255 H   0  0  0  0  0  0  0  0  0  0  0  0
  141.8660   76.6870  218.1619 H   0  0  0  0  0  0  0  0  0  0  0  0
  143.0525   78.0533  218.4545 H   0  0  0  0  0  0  0  0  0  0  0  0
  143.9022   75.6703  218.5082 H   0  0  0  0  0  0  0  0  0  0  0  0
  144.3330   76.8249  219.8460 H   0  0  0  0  0  0  0  0  0  0  0  0
  143.1616   75.4487  221.4843 H   0  0  0  0  0  0  0  0  0  0  0  0
  143.5145   73.9891  219.2408 H   0  0  0  0  0  0  0  0  0  0  0  0
  143.7113   72.4537  221.7630 H   0  0  0  0  0  0  0  0  0  0  0  0
  142.1174   72.7988  221.0774 H   0  0  0  0  0  0  0  0  0  0  0  0
  143.3084   70.6654  220.0853 H   0  0  0  0  0  0  0  0  0  0  0  0
  142.7972   71.8026  218.8498 H   0  0  0  0  0  0  0  0  0  0  0  0
  145.3924   70.9374  219.2036 H   0  0  0  0  0  0  0  0  0  0  0  0
  144.9316   72.5516  218.4676 H   0  0  0  0  0  0  0  0  0  0  0  0
  145.6311   72.0905  221.3688 H   0  0  0  0  0  0  0  0  0  0  0  0
  146.7438   72.7269  220.0771 H   0  0  0  0  0  0  0  0  0  0  0  0
  145.3385   74.3591  221.7062 H   0  0  0  0  0  0  0  0  0  0  0  0
  145.7256   74.7986  220.0377 H   0  0  0  0  0  0  0  0  0  0  0  0
  139.1252   69.3287  222.7991 H   0  0  0  0  0  0  0  0  0  0  0  0
  139.3167   68.1756  225.0237 H   0  0  0  0  0  0  0  0  0  0  0  0
  139.9452   68.2845  227.3936 H   0  0  0  0  0  0  0  0  0  0  0  0
  140.8380   69.5650  229.3415 H   0  0  0  0  0  0  0  0  0  0  0  0
  141.5077   71.9610  229.0128 H   0  0  0  0  0  0  0  0  0  0  0  0
  141.2802   73.0271  226.7683 H   0  0  0  0  0  0  0  0  0  0  0  0
  1  2  2  0
  2  3  1  0
  3  4  1  0
  4  5  1  0
  5  6  2  0
  5  7  1  0
  7  8  1  0
  8  9  1  0
  9 10  1  0
 10 11  1  0
 11 12  1  0
 12 13  1  0
 13 14  1  0
 14 15  1  0
 15 16  1  0
 16 17  1  0
 17 18  1  0
  2 19  1  0
 19 20  2  0
 20 21  1  0
 21 22  2  0
 22 23  1  0
 23 24  2  0
 24 25  1  0
 25 26  2  0
 26 27  1  0
 27 28  2  0
 12  7  1  0
 18 13  1  0
 28 19  1  0
 27 22  1  0
  3 29  1  0
  4 30  1  0
  4 31  1  0
  8 32  1  0
  8 33  1  0
  9 34  1  0
  9 35  1  0
 10 36  1  0
 10 37  1  0
 11 38  1  0
 11 39  1  0
 12 40  1  1
 13 41  1  0
 14 42  1  0
 14 43  1  0
 15 44  1  0
 15 45  1  0
 16 46  1  0
 16 47  1  0
 17 48  1  0
 17 49  1  0
 18 50  1  0
 18 51  1  0
 20 52  1  0
 21 53  1  0
 23 54  1  0
 24 55  1  0
 25 56  1  0
 26 57  1  0
M  END
>  <smiles>  (2) 
O=C(NCC(=O)N1CCCCC1C1CCCCC1)c1ccc2ccccc2n1

>  <score_type>  (2) 
oracle

>  <origin>  (2) 
autodockgpu

>  <m_score__min__energy>  (2) 
-9.3100000000000005

>  <m_primary>  (2) 
energy

>  <rmsd>  (2) 
2.32458735864299

>  <m_score__min__rmsd>  (2) 
2.32458735864299

>  <meeko>  (2) 
{"free_energy": -8.38, "intermolecular_energy": -9.87, "internal_energy": -1.93, "cluster_size": 31, "cluster_id": 2, "rank_in_cluster": 24}

>  <energy>  (2) 
-9.26

>  <cluster_rmsd>  (2) 
0.22

>  <cluster>  (2) 
1

$$$$

     RDKit          3D

 57 60  0  0  0  0  0  0  0  0999 V2000
  133.5230   69.9400  226.5340 O   0  0  0  0  0  0  0  0  0  0  0  0
  133.9130   71.0890  226.2070 C   0  0  0  0  0  0  0  0  0  0  0  0
  135.0850   71.1170  225.3540 N   0  0  0  0  0  0  0  0  0  0  0  0
  135.7370   69.9600  224.9130 C   0  0  0  0  0  0  0  0  0  0  0  0
  137.1180   69.9190  224.4640 C   0  0  0  0  0  0  0  0  0  0  0  0
  137.6110   68.7110  224.4400 O   0  0  0  0  0  0  0  0  0  0  0  0
  138.0210   70.9100  224.0580 N   0  0  0  0  0  0  0  0  0  0  0  0
  137.6440   71.8780  222.9650 C   0  0  0  0  0  0  0  0  0  0  0  0
  138.5580   71.6930  221.8350 C   0  0  0  0  0  0  0  0  0  0  0  0
  139.7180   70.7670  222.0960 C   0  0  0  0  0  0  0  0  0  0  0  0
  140.3610   70.9560  223.4140 C   0  0  0  0  0  0  0  0  0  0  0  0
  139.3360   71.1550  224.5480 C   0  0  2  0  0  0  0  0  0  0  0  0
  139.9080   70.6530  225.7800 C   0  0  0  0  0  0  0  0  0  0  0  0
  141.0200   71.3270  226.4820 C   0  0  0  0  0  0  0  0  0  0  0  0
  140.6150   71.3500  227.9890 C   0  0  0  0  0  0  0  0  0  0  0  0
  140.1970   69.9250  228.2680 C   0  0  0  0  0  0  0  0  0  0  0  0
  140.7130   68.9210  227.2680 C   0  0  0  0  0  0  0  0  0  0  0  0
  140.1690   69.1590  225.8680 C   0  0  0  0  0  0  0  0  0  0  0  0
  133.2570   72.3180  226.6400 C   0  0  0  0  0  0  0  0  0  0  0  0
  132.0320   72.1810  227.2620 C   0  0  0  0  0  0  0  0  0  0  0  0
  131.4040   73.3500  227.6750 C   0  0  0  0  0  0  0  0  0  0  0  0
  132.0030   74.5800  227.4600 C   0  0  0  0  0  0  0  0  0  0  0  0
  131.4200   75.7690  227.8510 C   0  0  0  0  0  0  0  0  0  0  0  0
  132.0370   77.0020  227.6270 C   0  0  0  0  0  0  0  0  0  0  0  0
  133.2810   77.0130  226.9860 C   0  0  0  0  0  0  0  0  0  0  0  0
  133.8790   75.8190  226.5860 C   0  0  0  0  0  0  0  0  0  0  0  0
  133.2360   74.6250  226.8270 C   0  0  0  0  0  0  0  0  0  0  0  0
  133.8370   73.4880  226.4300 N   0  0  0  0  0  0  0  0  0  0  0  0
  135.3840   72.1120  225.1070 H   0  0  0  0  0  0  0  0  0  0  0  0
  135.6757   69.2479  225.7492 H   0  0  0  0  0  0  0  0  0  0  0  0
  135.2075   69.7733  223.9671 H   0  0  0  0  0  0  0  0  0  0  0  0
  136.6109   71.6851  222.6403 H   0  0  0  0  0  0  0  0  0  0  0  0
  137.7155   72.9101  223.3386 H   0  0  0  0  0  0  0  0  0  0  0  0
  137.9800   71.2860  220.9923 H   0  0  0  0  0  0  0  0  0  0  0  0
  138.9952   72.6813  221.6296 H   0  0  0  0  0  0  0  0  0  0  0  0
  139.3526   69.7312  222.0360 H   0  0  0  0  0  0  0  0  0  0  0  0
  140.4809   70.9950  221.3370 H   0  0  0  0  0  0  0  0  0  0  0  0
  140.9694   70.0679  223.6403 H   0  0  0  0  0  0  0  0  0  0  0  0
  140.9776   71.8652  223.3576 H   0  0  0  0  0  0  0  0  0  0  0  0
  139.1211   72.1722  224.9074 H   0  0  0  0  0  0  0  0  0  0  0  0
  139.0029   70.9619  226.3234 H   0  0  0  0  0  0  0  0  0  0  0  0
  141.9563   70.7662  226.3449 H   0  0  0  0  0  0  0  0  0  0  0  0
  141.1915   72.3411  226.0919 H   0  0  0  0  0  0  0  0  0  0  0  0
  141.4680   71.6395  228.6203 H   0  0  0  0  0  0  0  0  0  0  0  0
  139.8198   72.0783  228.2062 H   0  0  0  0  0  0  0  0  0  0  0  0
  140.5721   69.6443  229.2632 H   0  0  0  0  0  0  0  0  0  0  0  0
  139.0992   69.8997  228.2028 H   0  0  0  0  0  0  0  0  0  0  0  0
  141.8105   68.9877  227.2358 H   0  0  0  0  0  0  0  0  0  0  0  0
  140.3769   67.9248  227.5916 H   0  0  0  0  0  0  0  0  0  0  0  0
  140.9071   68.8529  225.1120 H   0  0  0  0  0  0  0  0  0  0  0  0
  139.2561   68.5745  225.6811 H   0  0  0  0  0  0  0  0  0  0  0  0
  131.5748   71.1935  227.4230 H   0  0  0  0  0  0  0  0  0  0  0  0
  130.4258   73.2980  228.1754 H   0  0  0  0  0  0  0  0  0  0  0  0
  130.4417   75.7446  228.3533 H   0  0  0  0  0  0  0  0  0  0  0  0
  131.5578   77.9394  227.9459 H   0  0  0  0  0  0  0  0  0  0  0  0
  133.7900   77.9696  226.7967 H   0  0  0  0  0  0  0  0  0  0  0  0
  134.8566   75.8303  226.0819 H   0  0  0  0  0  0  0  0  0  0  0  0
  1  2  2  0
  2  3  1  0
  3  4  1  0
  4  5  1  0
  5  6  2  0
  5  7  1  0
  7  8  1  0
  8  9  1  0
  9 10  1  0
 10 11  1  0
 11 12  1  0
 12 13  1  0
 13 14  1  0
 14 15  1  0
 15 16  1  0
 16 17  1  0
 17 18  1  0
  2 19  1  0
 19 20  2  0
 20 21  1  0
 21 22  2  0
 22 23  1  0
 23 24  2  0
 24 25  1  0
 25 26  2  0
 26 27  1  0
 27 28  2  0
 12  7  1  0
 18 13  1  0
 28 19  1  0
 27 22  1  0
  3 29  1  0
  4 30  1  0
  4 31  1  0
  8 32  1  0
  8 33  1  0
  9 34  1  0
  9 35  1  0
 10 36  1  0
 10 37  1  0
 11 38  1  0
 11 39  1  0
 12 40  1  1
 13 41  1  0
 14 42  1  0
 14 43  1  0
 15 44  1  0
 15 45  1  0
 16 46  1  0
 16 47  1  0
 17 48  1  0
 17 49  1  0
 18 50  1  0
 18 51  1  0
 20 52  1  0
 21 53  1  0
 23 54  1  0
 24 55  1  0
 25 56  1  0
 26 57  1  0
M  END
>  <smiles>  (3) 
O=C(NCC(=O)N1CCCCC1C1CCCCC1)c1ccc2ccccc2n1

>  <score_type>  (3) 
oracle

>  <origin>  (3) 
autodockgpu

>  <m_score__min__energy>  (3) 
-9.3100000000000005

>  <m_primary>  (3) 
energy

>  <rmsd>  (3) 
8.005603575612865

>  <m_score__min__rmsd>  (3) 
8.005603575612865

>  <meeko>  (3) 
{"free_energy": -8.63, "intermolecular_energy": -10.12, "internal_energy": -1.69, "cluster_size": 3, "cluster_id": 3, "rank_in_cluster": 2}

>  <energy>  (3) 
-9.13

>  <cluster_rmsd>  (3) 
0.23

>  <cluster>  (3) 
1

$$$$

     RDKit          3D

 57 60  0  0  0  0  0  0  0  0999 V2000
  141.3120   73.8440  220.3250 O   0  0  0  0  0  0  0  0  0  0  0  0
  140.8470   74.6050  221.2110 C   0  0  0  0  0  0  0  0  0  0  0  0
  139.9770   73.9600  222.1750 N   0  0  0  0  0  0  0  0  0  0  0  0
  139.6750   72.5940  222.1380 C   0  0  0  0  0  0  0  0  0  0  0  0
  139.7980   71.6970  223.2740 C   0  0  0  0  0  0  0  0  0  0  0  0
  140.3300   72.2670  224.3200 O   0  0  0  0  0  0  0  0  0  0  0  0
  139.4660   70.3490  223.4680 N   0  0  0  0  0  0  0  0  0  0  0  0
  139.0800   69.4870  222.2920 C   0  0  0  0  0  0  0  0  0  0  0  0
  137.6970   69.0360  222.4710 C   0  0  0  0  0  0  0  0  0  0  0  0
  137.0870   69.3610  223.8100 C   0  0  0  0  0  0  0  0  0  0  0  0
  137.9890   69.1320  224.9600 C   0  0  0  0  0  0  0  0  0  0  0  0
  139.4250   69.6210  224.6910 C   0  0  2  0  0  0  0  0  0  0  0  0
  140.0230   70.0120  225.9500 C   0  0  0  0  0  0  0  0  0  0  0  0
  141.4400   70.4110  226.0770 C   0  0  0  0  0  0  0  0  0  0  0  0
  141.4380   71.6980  226.9600 C   0  0  0  0  0  0  0  0  0  0  0  0
  140.5720   71.3200  228.1400 C   0  0  0  0  0  0  0  0  0  0  0  0
  140.4060   69.8330  228.3350 C   0  0  0  0  0  0  0  0  0  0  0  0
  139.6910   69.1680  227.1690 C   0  0  0  0  0  0  0  0  0  0  0  0
  141.1420   76.0310  221.2870 C   0  0  0  0  0  0  0  0  0  0  0  0
  141.5400   76.6450  220.1160 C   0  0  0  0  0  0  0  0  0  0  0  0
  141.8230   78.0040  220.1850 C   0  0  0  0  0  0  0  0  0  0  0  0
  141.7020   78.6840  221.3860 C   0  0  0  0  0  0  0  0  0  0  0  0
  141.9700   80.0340  221.5060 C   0  0  0  0  0  0  0  0  0  0  0  0
  141.8430   80.7060  222.7240 C   0  0  0  0  0  0  0  0  0  0  0  0
  141.4310   79.9740  223.8430 C   0  0  0  0  0  0  0  0  0  0  0  0
  141.1570   78.6120  223.7350 C   0  0  0  0  0  0  0  0  0  0  0  0
  141.2950   77.9890  222.5140 C   0  0  0  0  0  0  0  0  0  0  0  0
  141.0240   76.6720  222.4380 N   0  0  0  0  0  0  0  0  0  0  0  0
  139.6010   74.6430  222.9040 H   0  0  0  0  0  0  0  0  0  0  0  0
  138.6229   72.5313  221.8231 H   0  0  0  0  0  0  0  0  0  0  0  0
  140.4848   72.2217  221.4934 H   0  0  0  0  0  0  0  0  0  0  0  0
  139.1613   70.0707  221.3632 H   0  0  0  0  0  0  0  0  0  0  0  0
  139.7514   68.6180  222.2292 H   0  0  0  0  0  0  0  0  0  0  0  0
  137.0809   69.5088  221.6920 H   0  0  0  0  0  0  0  0  0  0  0  0
  137.7216   67.9383  222.4038 H   0  0  0  0  0  0  0  0  0  0  0  0
  136.7942   70.4213  223.8073 H   0  0  0  0  0  0  0  0  0  0  0  0
  136.2312   68.6823  223.9401 H   0  0  0  0  0  0  0  0  0  0  0  0
  137.5910   69.6701  225.8330 H   0  0  0  0  0  0  0  0  0  0  0  0
  138.0335   68.0475  225.1387 H   0  0  0  0  0  0  0  0  0  0  0  0
  140.1953   68.8918  224.3996 H   0  0  0  0  0  0  0  0  0  0  0  0
  139.4647   70.9593  225.9184 H   0  0  0  0  0  0  0  0  0  0  0  0
  142.0211   69.6133  226.5628 H   0  0  0  0  0  0  0  0  0  0  0  0
  141.9005   70.5929  225.0947 H   0  0  0  0  0  0  0  0  0  0  0  0
  142.4574   71.9515  227.2865 H   0  0  0  0  0  0  0  0  0  0  0  0
  141.0656   72.5831  226.4235 H   0  0  0  0  0  0  0  0  0  0  0  0
  141.0271   71.7384  229.0498 H   0  0  0  0  0  0  0  0  0  0  0  0
  139.5696   71.7260  227.9390 H   0  0  0  0  0  0  0  0  0  0  0  0
  141.4017   69.3783  228.4436 H   0  0  0  0  0  0  0  0  0  0  0  0
  139.7911   69.6808  229.2343 H   0  0  0  0  0  0  0  0  0  0  0  0
  140.0535   68.1384  227.0333 H   0  0  0  0  0  0  0  0  0  0  0  0
  138.6058   69.1076  227.3385 H   0  0  0  0  0  0  0  0  0  0  0  0
  141.6288   76.0851  219.1733 H   0  0  0  0  0  0  0  0  0  0  0  0
  142.1447   78.5425  219.2814 H   0  0  0  0  0  0  0  0  0  0  0  0
  142.2926   80.5957  220.6170 H   0  0  0  0  0  0  0  0  0  0  0  0
  142.0610   81.7814  222.8013 H   0  0  0  0  0  0  0  0  0  0  0  0
  141.3226   80.4773  224.8151 H   0  0  0  0  0  0  0  0  0  0  0  0
  140.8334   78.0394  224.6167 H   0  0  0  0  0  0  0  0  0  0  0  0
  1  2  2  0
  2  3  1  0
  3  4  1  0
  4  5  1  0
  5  6  2  0
  5  7  1  0
  7  8  1  0
  8  9  1  0
  9 10  1  0
 10 11  1  0
 11 12  1  0
 12 13  1  0
 13 14  1  0
 14 15  1  0
 15 16  1  0
 16 17  1  0
 17 18  1  0
  2 19  1  0
 19 20  2  0
 20 21  1  0
 21 22  2  0
 22 23  1  0
 23 24  2  0
 24 25  1  0
 25 26  2  0
 26 27  1  0
 27 28  2  0
 12  7  1  0
 18 13  1  0
 28 19  1  0
 27 22  1  0
  3 29  1  0
  4 30  1  0
  4 31  1  0
  8 32  1  0
  8 33  1  0
  9 34  1  0
  9 35  1  0
 10 36  1  0
 10 37  1  0
 11 38  1  0
 11 39  1  0
 12 40  1  6
 13 41  1  0
 14 42  1  0
 14 43  1  0
 15 44  1  0
 15 45  1  0
 16 46  1  0
 16 47  1  0
 17 48  1  0
 17 49  1  0
 18 50  1  0
 18 51  1  0
 20 52  1  0
 21 53  1  0
 23 54  1  0
 24 55  1  0
 25 56  1  0
 26 57  1  0
M  END
>  <smiles>  (4) 
O=C(NCC(=O)N1CCCCC1C1CCCCC1)c1ccc2ccccc2n1

>  <score_type>  (4) 
oracle

>  <origin>  (4) 
autodockgpu

>  <m_score__min__energy>  (4) 
-9.3100000000000005

>  <m_primary>  (4) 
energy

>  <rmsd>  (4) 
8.444297769102091

>  <m_score__min__rmsd>  (4) 
8.444297769102091

>  <meeko>  (4) 
{"free_energy": -8.8, "intermolecular_energy": -10.29, "internal_energy": -1.5, "cluster_size": 10, "cluster_id": 1, "rank_in_cluster": 8}

>  <energy>  (4) 
-8.98

>  <cluster_rmsd>  (4) 
1.04

>  <cluster>  (4) 
1

$$$$

     RDKit          3D

 57 60  0  0  0  0  0  0  0  0999 V2000
  139.8640   71.1780  221.2040 O   0  0  0  0  0  0  0  0  0  0  0  0
  139.8010   71.7990  222.2940 C   0  0  0  0  0  0  0  0  0  0  0  0
  139.5850   73.2270  222.1740 N   0  0  0  0  0  0  0  0  0  0  0  0
  139.4480   73.8780  220.9420 C   0  0  0  0  0  0  0  0  0  0  0  0
  140.5520   74.4420  220.1850 C   0  0  0  0  0  0  0  0  0  0  0  0
  140.6380   73.9640  218.9740 O   0  0  0  0  0  0  0  0  0  0  0  0
  141.5390   75.3880  220.4950 N   0  0  0  0  0  0  0  0  0  0  0  0
  141.1470   76.7660  220.9670 C   0  0  0  0  0  0  0  0  0  0  0  0
  141.6240   77.7510  219.9920 C   0  0  0  0  0  0  0  0  0  0  0  0
  142.5160   77.2000  218.9100 C   0  0  0  0  0  0  0  0  0  0  0  0
  143.5280   76.2340  219.3910 C   0  0  0  0  0  0  0  0  0  0  0  0
  142.9530   75.2400  220.4190 C   0  0  2  0  0  0  0  0  0  0  0  0
  143.6880   73.9960  220.3200 C   0  0  0  0  0  0  0  0  0  0  0  0
  143.1670   72.7120  220.8310 C   0  0  0  0  0  0  0  0  0  0  0  0
  143.4420   71.6670  219.7050 C   0  0  0  0  0  0  0  0  0  0  0  0
  144.8950   71.8940  219.3540 C   0  0  0  0  0  0  0  0  0  0  0  0
  145.6810   72.6240  220.4150 C   0  0  0  0  0  0  0  0  0  0  0  0
  145.1700   74.0370  220.6520 C   0  0  0  0  0  0  0  0  0  0  0  0
  139.9330   71.1580  223.5980 C   0  0  0  0  0  0  0  0  0  0  0  0
  139.5480   69.8340  223.6790 C   0  0  0  0  0  0  0  0  0  0  0  0
  139.6710   69.2190  224.9200 C   0  0  0  0  0  0  0  0  0  0  0  0
  140.1610   69.9260  226.0050 C   0  0  0  0  0  0  0  0  0  0  0  0
  140.3030   69.3610  227.2570 C   0  0  0  0  0  0  0  0  0  0  0  0
  140.7990   70.0880  228.3420 C   0  0  0  0  0  0  0  0  0  0  0  0
  141.1560   71.4240  228.1360 C   0  0  0  0  0  0  0  0  0  0  0  0
  141.0180   72.0060  226.8770 C   0  0  0  0  0  0  0  0  0  0  0  0
  140.5250   71.2530  225.8340 C   0  0  0  0  0  0  0  0  0  0  0  0
  140.4010   71.8410  224.6290 N   0  0  0  0  0  0  0  0  0  0  0  0
  139.5440   73.7140  223.1230 H   0  0  0  0  0  0  0  0  0  0  0  0
  138.9722   73.1469  220.2719 H   0  0  0  0  0  0  0  0  0  0  0  0
  138.9227   74.7936  221.2513 H   0  0  0  0  0  0  0  0  0  0  0  0
  140.0522   76.8303  221.0525 H   0  0  0  0  0  0  0  0  0  0  0  0
  141.5952   76.9662  221.9514 H   0  0  0  0  0  0  0  0  0  0  0  0
  140.7461   78.2065  219.5106 H   0  0  0  0  0  0  0  0  0  0  0  0
  142.2362   78.4693  220.5571 H   0  0  0  0  0  0  0  0  0  0  0  0
  141.8833   76.6946  218.1656 H   0  0  0  0  0  0  0  0  0  0  0  0
  143.0685   78.0539  218.4909 H   0  0  0  0  0  0  0  0  0  0  0  0
  143.9127   75.6679  218.5299 H   0  0  0  0  0  0  0  0  0  0  0  0
  144.3257   76.8053  219.8883 H   0  0  0  0  0  0  0  0  0  0  0  0
  143.1299   75.4130  221.4908 H   0  0  0  0  0  0  0  0  0  0  0  0
  143.4911   73.9677  219.2381 H   0  0  0  0  0  0  0  0  0  0  0  0
  143.6902   72.4264  221.7555 H   0  0  0  0  0  0  0  0  0  0  0  0
  142.0959   72.7758  221.0731 H   0  0  0  0  0  0  0  0  0  0  0  0
  143.2825   70.6427  220.0728 H   0  0  0  0  0  0  0  0  0  0  0  0
  142.7710   71.7839  218.8412 H   0  0  0  0  0  0  0  0  0  0  0  0
  145.3669   70.9143  219.1880 H   0  0  0  0  0  0  0  0  0  0  0  0
  144.9077   72.5307  218.4571 H   0  0  0  0  0  0  0  0  0  0  0  0
  145.6092   72.0606  221.3570 H   0  0  0  0  0  0  0  0  0  0  0  0
  146.7215   72.6997  220.0663 H   0  0  0  0  0  0  0  0  0  0  0  0
  145.3205   74.3288  221.7019 H   0  0  0  0  0  0  0  0  0  0  0  0
  145.7056   74.7727  220.0340 H   0  0  0  0  0  0  0  0  0  0  0  0
  139.1623   69.2917  222.8031 H   0  0  0  0  0  0  0  0  0  0  0  0
  139.3776   68.1657  225.0404 H   0  0  0  0  0  0  0  0  0  0  0  0
  140.0175   68.3089  227.4042 H   0  0  0  0  0  0  0  0  0  0  0  0
  140.9059   69.6215  229.3324 H   0  0  0  0  0  0  0  0  0  0  0  0
  141.5485   72.0199  228.9732 H   0  0  0  0  0  0  0  0  0  0  0  0
  141.3002   73.0572  226.7176 H   0  0  0  0  0  0  0  0  0  0  0  0
  1  2  2  0
  2  3  1  0
  3  4  1  0
  4  5  1  0
  5  6  2  0
  5  7  1  0
  7  8  1  0
  8  9  1  0
  9 10  1  0
 10 11  1  0
 11 12  1  0
 12 13  1  0
 13 14  1  0
 14 15  1  0
 15 16  1  0
 16 17  1  0
 17 18  1  0
  2 19  1  0
 19 20  2  0
 20 21  1  0
 21 22  2  0
 22 23  1  0
 23 24  2  0
 24 25  1  0
 25 26  2  0
 26 27  1  0
 27 28  2  0
 12  7  1  0
 18 13  1  0
 28 19  1  0
 27 22  1  0
  3 29  1  0
  4 30  1  0
  4 31  1  0
  8 32  1  0
  8 33  1  0
  9 34  1  0
  9 35  1  0
 10 36  1  0
 10 37  1  0
 11 38  1  0
 11 39  1  0
 12 40  1  1
 13 41  1  0
 14 42  1  0
 14 43  1  0
 15 44  1  0
 15 45  1  0
 16 46  1  0
 16 47  1  0
 17 48  1  0
 17 49  1  0
 18 50  1  0
 18 51  1  0
 20 52  1  0
 21 53  1  0
 23 54  1  0
 24 55  1  0
 25 56  1  0
 26 57  1  0
M  END
>  <smiles>  (5) 
O=C(NCC(=O)N1CCCCC1C1CCCCC1)c1ccc2ccccc2n1

>  <score_type>  (5) 
oracle

>  <origin>  (5) 
autodockgpu

>  <m_score__min__energy>  (5) 
-9.3100000000000005

>  <m_primary>  (5) 
energy

>  <rmsd>  (5) 
2.325888995818255

>  <m_score__min__rmsd>  (5) 
2.325888995818255

>  <meeko>  (5) 
{"free_energy": -8.36, "intermolecular_energy": -9.85, "internal_energy": -1.95, "cluster_size": 31, "cluster_id": 2, "rank_in_cluster": 25}

>  <energy>  (5) 
-8.97

>  <cluster_rmsd>  (5) 
1.4

>  <cluster>  (5) 
1

$$$$

     RDKit          3D

 57 60  0  0  0  0  0  0  0  0999 V2000
  139.5350   71.1060  221.2780 O   0  0  0  0  0  0  0  0  0  0  0  0
  139.6340   71.7590  222.3470 C   0  0  0  0  0  0  0  0  0  0  0  0
  139.4940   73.1950  222.2020 N   0  0  0  0  0  0  0  0  0  0  0  0
  139.2580   73.8190  220.9720 C   0  0  0  0  0  0  0  0  0  0  0  0
  140.2490   74.5880  220.2400 C   0  0  0  0  0  0  0  0  0  0  0  0
  140.1040   74.5090  218.9450 O   0  0  0  0  0  0  0  0  0  0  0  0
  141.3260   75.3900  220.6430 N   0  0  0  0  0  0  0  0  0  0  0  0
  141.0750   76.7430  221.2600 C   0  0  0  0  0  0  0  0  0  0  0  0
  141.6560   77.7720  220.3940 C   0  0  0  0  0  0  0  0  0  0  0  0
  142.4930   77.2510  219.2550 C   0  0  0  0  0  0  0  0  0  0  0  0
  143.3970   76.1400  219.6240 C   0  0  0  0  0  0  0  0  0  0  0  0
  142.7180   75.1070  220.5440 C   0  0  2  0  0  0  0  0  0  0  0  0
  143.3230   73.8120  220.3090 C   0  0  0  0  0  0  0  0  0  0  0  0
  142.7860   72.5590  220.8790 C   0  0  0  0  0  0  0  0  0  0  0  0
  142.7900   71.5270  219.7080 C   0  0  0  0  0  0  0  0  0  0  0  0
  144.1820   71.6480  219.1310 C   0  0  0  0  0  0  0  0  0  0  0  0
  145.1850   72.2840  220.0610 C   0  0  0  0  0  0  0  0  0  0  0  0
  144.8370   73.7250  220.3980 C   0  0  0  0  0  0  0  0  0  0  0  0
  139.8720   71.1470  223.6490 C   0  0  0  0  0  0  0  0  0  0  0  0
  139.5670   69.8050  223.7680 C   0  0  0  0  0  0  0  0  0  0  0  0
  139.7920   69.2170  225.0080 C   0  0  0  0  0  0  0  0  0  0  0  0
  140.3010   69.9670  226.0550 C   0  0  0  0  0  0  0  0  0  0  0  0
  140.5430   69.4310  227.3050 C   0  0  0  0  0  0  0  0  0  0  0  0
  141.0560   70.2000  228.3510 C   0  0  0  0  0  0  0  0  0  0  0  0
  141.3260   71.5510  228.1080 C   0  0  0  0  0  0  0  0  0  0  0  0
  141.0870   72.1040  226.8520 C   0  0  0  0  0  0  0  0  0  0  0  0
  140.5800   71.3090  225.8480 C   0  0  0  0  0  0  0  0  0  0  0  0
  140.3580   71.8700  224.6440 N   0  0  0  0  0  0  0  0  0  0  0  0
  139.5900   73.7090  223.1330 H   0  0  0  0  0  0  0  0  0  0  0  0
  138.9409   73.0173  220.2888 H   0  0  0  0  0  0  0  0  0  0  0  0
  138.5631   74.6157  221.2758 H   0  0  0  0  0  0  0  0  0  0  0  0
  139.9921   76.9099  221.3571 H   0  0  0  0  0  0  0  0  0  0  0  0
  141.5361   76.7902  222.2576 H   0  0  0  0  0  0  0  0  0  0  0  0
  140.8324   78.3641  219.9685 H   0  0  0  0  0  0  0  0  0  0  0  0
  142.3352   78.3593  221.0295 H   0  0  0  0  0  0  0  0  0  0  0  0
  141.8160   76.8963  218.4638 H   0  0  0  0  0  0  0  0  0  0  0  0
  143.1333   78.0833  218.9275 H   0  0  0  0  0  0  0  0  0  0  0  0
  143.7250   75.6321  218.7050 H   0  0  0  0  0  0  0  0  0  0  0  0
  144.2471   76.5697  220.1742 H   0  0  0  0  0  0  0  0  0  0  0  0
  142.9053   75.1461  221.6272 H   0  0  0  0  0  0  0  0  0  0  0  0
  142.9547   73.8312  219.2727 H   0  0  0  0  0  0  0  0  0  0  0  0
  143.4250   72.2073  221.7024 H   0  0  0  0  0  0  0  0  0  0  0  0
  141.7764   72.7006  221.2921 H   0  0  0  0  0  0  0  0  0  0  0  0
  142.6070   70.5087  220.0815 H   0  0  0  0  0  0  0  0  0  0  0  0
  142.0017   71.7205  218.9656 H   0  0  0  0  0  0  0  0  0  0  0  0
  144.5388   70.6390  218.8771 H   0  0  0  0  0  0  0  0  0  0  0  0
  144.1037   72.3065  218.2533 H   0  0  0  0  0  0  0  0  0  0  0  0
  145.2189   71.7022  220.9939 H   0  0  0  0  0  0  0  0  0  0  0  0
  146.1589   72.2870  219.5495 H   0  0  0  0  0  0  0  0  0  0  0  0
  145.1767   73.9744  221.4141 H   0  0  0  0  0  0  0  0  0  0  0  0
  145.3260   74.4325  219.7123 H   0  0  0  0  0  0  0  0  0  0  0  0
  139.1651   69.2286  222.9218 H   0  0  0  0  0  0  0  0  0  0  0  0
  139.5646   68.1512  225.1579 H   0  0  0  0  0  0  0  0  0  0  0  0
  140.3251   68.3673  227.4812 H   0  0  0  0  0  0  0  0  0  0  0  0
  141.2429   69.7556  229.3397 H   0  0  0  0  0  0  0  0  0  0  0  0
  141.7298   72.1809  228.9143 H   0  0  0  0  0  0  0  0  0  0  0  0
  141.3013   73.1663  226.6637 H   0  0  0  0  0  0  0  0  0  0  0  0
  1  2  2  0
  2  3  1  0
  3  4  1  0
  4  5  1  0
  5  6  2  0
  5  7  1  0
  7  8  1  0
  8  9  1  0
  9 10  1  0
 10 11  1  0
 11 12  1  0
 12 13  1  0
 13 14  1  0
 14 15  1  0
 15 16  1  0
 16 17  1  0
 17 18  1  0
  2 19  1  0
 19 20  2  0
 20 21  1  0
 21 22  2  0
 22 23  1  0
 23 24  2  0
 24 25  1  0
 25 26  2  0
 26 27  1  0
 27 28  2  0
 12  7  1  0
 18 13  1  0
 28 19  1  0
 27 22  1  0
  3 29  1  0
  4 30  1  0
  4 31  1  0
  8 32  1  0
  8 33  1  0
  9 34  1  0
  9 35  1  0
 10 36  1  0
 10 37  1  0
 11 38  1  0
 11 39  1  0
 12 40  1  1
 13 41  1  0
 14 42  1  0
 14 43  1  0
 15 44  1  0
 15 45  1  0
 16 46  1  0
 16 47  1  0
 17 48  1  0
 17 49  1  0
 18 50  1  0
 18 51  1  0
 20 52  1  0
 21 53  1  0
 23 54  1  0
 24 55  1  0
 25 56  1  0
 26 57  1  0
M  END
>  <smiles>  (6) 
O=C(NCC(=O)N1CCCCC1C1CCCCC1)c1ccc2ccccc2n1

>  <score_type>  (6) 
oracle

>  <origin>  (6) 
autodockgpu

>  <m_score__min__energy>  (6) 
-9.3100000000000005

>  <m_primary>  (6) 
energy

>  <rmsd>  (6) 
2.386332404704193

>  <m_score__min__rmsd>  (6) 
2.386332404704193

>  <meeko>  (6) 
{"free_energy": -8.03, "intermolecular_energy": -9.52, "internal_energy": -2.09, "cluster_size": 31, "cluster_id": 2, "rank_in_cluster": 29}

>  <energy>  (6) 
-8.94

>  <cluster_rmsd>  (6) 
1.38

>  <cluster>  (6) 
1

$$$$

     RDKit          3D

 57 60  0  0  0  0  0  0  0  0999 V2000
  141.3400   72.6550  221.9920 O   0  0  0  0  0  0  0  0  0  0  0  0
  140.3080   72.5450  222.7010 C   0  0  0  0  0  0  0  0  0  0  0  0
  139.2270   73.4450  222.3500 N   0  0  0  0  0  0  0  0  0  0  0  0
  139.3090   74.3650  221.2980 C   0  0  0  0  0  0  0  0  0  0  0  0
  140.4070   75.2980  221.1090 C   0  0  0  0  0  0  0  0  0  0  0  0
  141.0870   75.5150  222.2010 O   0  0  0  0  0  0  0  0  0  0  0  0
  140.8760   76.0090  219.9960 N   0  0  0  0  0  0  0  0  0  0  0  0
  140.7160   75.4380  218.6090 C   0  0  0  0  0  0  0  0  0  0  0  0
  142.0460   75.2130  218.0360 C   0  0  0  0  0  0  0  0  0  0  0  0
  143.1920   75.7590  218.8460 C   0  0  0  0  0  0  0  0  0  0  0  0
  142.9550   77.1100  219.4000 C   0  0  0  0  0  0  0  0  0  0  0  0
  141.5340   77.2720  219.9730 C   0  0  2  0  0  0  0  0  0  0  0  0
  141.5760   78.2440  221.0450 C   0  0  0  0  0  0  0  0  0  0  0  0
  140.6030   78.2570  222.1580 C   0  0  0  0  0  0  0  0  0  0  0  0
  141.4490   78.4490  223.4550 C   0  0  0  0  0  0  0  0  0  0  0  0
  142.3490   79.6170  223.1250 C   0  0  0  0  0  0  0  0  0  0  0  0
  141.8680   80.4620  221.9720 C   0  0  0  0  0  0  0  0  0  0  0  0
  141.8270   79.6920  220.6610 C   0  0  0  0  0  0  0  0  0  0  0  0
  140.1810   71.5960  223.8000 C   0  0  0  0  0  0  0  0  0  0  0  0
  139.5300   70.4100  223.5230 C   0  0  0  0  0  0  0  0  0  0  0  0
  139.4060   69.5020  224.5690 C   0  0  0  0  0  0  0  0  0  0  0  0
  139.9210   69.8010  225.8190 C   0  0  0  0  0  0  0  0  0  0  0  0
  139.8230   68.9340  226.8900 C   0  0  0  0  0  0  0  0  0  0  0  0
  140.3480   69.2500  228.1450 C   0  0  0  0  0  0  0  0  0  0  0  0
  140.9860   70.4850  228.3040 C   0  0  0  0  0  0  0  0  0  0  0  0
  141.0910   71.3690  227.2320 C   0  0  0  0  0  0  0  0  0  0  0  0
  140.5600   71.0170  226.0100 C   0  0  0  0  0  0  0  0  0  0  0  0
  140.6750   71.8900  224.9920 N   0  0  0  0  0  0  0  0  0  0  0  0
  138.3750   73.3220  222.9800 H   0  0  0  0  0  0  0  0  0  0  0  0
  139.2668   73.7661  220.3763 H   0  0  0  0  0  0  0  0  0  0  0  0
  138.4959   75.0559  221.5653 H   0  0  0  0  0  0  0  0  0  0  0  0
  140.1700   74.4846  218.6621 H   0  0  0  0  0  0  0  0  0  0  0  0
  140.1505   76.1397  217.9783 H   0  0  0  0  0  0  0  0  0  0  0  0
  142.1914   74.1280  217.9284 H   0  0  0  0  0  0  0  0  0  0  0  0
  142.0624   75.7547  217.0787 H   0  0  0  0  0  0  0  0  0  0  0  0
  143.3808   75.0712  219.6834 H   0  0  0  0  0  0  0  0  0  0  0  0
  144.0494   75.8443  218.1622 H   0  0  0  0  0  0  0  0  0  0  0  0
  143.6827   77.2941  220.2041 H   0  0  0  0  0  0  0  0  0  0  0  0
  143.0684   77.8327  218.5785 H   0  0  0  0  0  0  0  0  0  0  0  0
  140.7652   77.7755  219.3685 H   0  0  0  0  0  0  0  0  0  0  0  0
  142.4675   77.7475  221.4558 H   0  0  0  0  0  0  0  0  0  0  0  0
  139.8925   79.0880  222.0368 H   0  0  0  0  0  0  0  0  0  0  0  0
  140.0120   77.3299  222.1919 H   0  0  0  0  0  0  0  0  0  0  0  0
  140.8028   78.6821  224.3141 H   0  0  0  0  0  0  0  0  0  0  0  0
  142.0091   77.5451  223.7367 H   0  0  0  0  0  0  0  0  0  0  0  0
  142.4223   80.2584  224.0157 H   0  0  0  0  0  0  0  0  0  0  0  0
  143.3185   79.1936  222.8236 H   0  0  0  0  0  0  0  0  0  0  0  0
  140.8548   80.8248  222.1995 H   0  0  0  0  0  0  0  0  0  0  0  0
  142.5779   81.2932  221.8486 H   0  0  0  0  0  0  0  0  0  0  0  0
  141.0140   80.0660  220.0214 H   0  0  0  0  0  0  0  0  0  0  0  0
  142.7619   79.8061  220.0927 H   0  0  0  0  0  0  0  0  0  0  0  0
  139.1284   70.1937  222.5220 H   0  0  0  0  0  0  0  0  0  0  0  0
  138.8963   68.5415  224.4025 H   0  0  0  0  0  0  0  0  0  0  0  0
  139.3171   67.9673  226.7504 H   0  0  0  0  0  0  0  0  0  0  0  0
  140.2622   68.5465  228.9863 H   0  0  0  0  0  0  0  0  0  0  0  0
  141.4076   70.7600  229.2821 H   0  0  0  0  0  0  0  0  0  0  0  0
  141.5933   72.3392  227.3600 H   0  0  0  0  0  0  0  0  0  0  0  0
  1  2  2  0
  2  3  1  0
  3  4  1  0
  4  5  1  0
  5  6  2  0
  5  7  1  0
  7  8  1  0
  8  9  1  0
  9 10  1  0
 10 11  1  0
 11 12  1  0
 12 13  1  0
 13 14  1  0
 14 15  1  0
 15 16  1  0
 16 17  1  0
 17 18  1  0
  2 19  1  0
 19 20  2  0
 20 21  1  0
 21 22  2  0
 22 23  1  0
 23 24  2  0
 24 25  1  0
 25 26  2  0
 26 27  1  0
 27 28  2  0
 12  7  1  0
 18 13  1  0
 28 19  1  0
 27 22  1  0
  3 29  1  0
  4 30  1  0
  4 31  1  0
  8 32  1  0
  8 33  1  0
  9 34  1  0
  9 35  1  0
 10 36  1  0
 10 37  1  0
 11 38  1  0
 11 39  1  0
 12 40  1  6
 13 41  1  0
 14 42  1  0
 14 43  1  0
 15 44  1  0
 15 45  1  0
 16 46  1  0
 16 47  1  0
 17 48  1  0
 17 49  1  0
 18 50  1  0
 18 51  1  0
 20 52  1  0
 21 53  1  0
 23 54  1  0
 24 55  1  0
 25 56  1  0
 26 57  1  0
M  END
>  <smiles>  (7) 
O=C(NCC(=O)N1CCCCC1C1CCCCC1)c1ccc2ccccc2n1

>  <score_type>  (7) 
oracle

>  <origin>  (7) 
autodockgpu

>  <m_score__min__energy>  (7) 
-9.3100000000000005

>  <m_primary>  (7) 
energy

>  <rmsd>  (7) 
1.6402382073219337

>  <m_score__min__rmsd>  (7) 
1.6402382073219337

>  <meeko>  (7) 
{"free_energy": -9.02, "intermolecular_energy": -10.52, "internal_energy": -1.3, "cluster_size": 31, "cluster_id": 2, "rank_in_cluster": 1}

>  <energy>  (7) 
-8.83

>  <cluster_rmsd>  (7) 
1.03

>  <cluster>  (7) 
1

$$$$

     RDKit          3D

 57 60  0  0  0  0  0  0  0  0999 V2000
  139.2270   74.4720  222.3130 O   0  0  0  0  0  0  0  0  0  0  0  0
  140.3570   74.7900  221.8650 C   0  0  0  0  0  0  0  0  0  0  0  0
  141.1890   73.6750  221.4580 N   0  0  0  0  0  0  0  0  0  0  0  0
  140.7750   72.3410  221.5440 C   0  0  0  0  0  0  0  0  0  0  0  0
  140.2810   71.7130  222.7570 C   0  0  0  0  0  0  0  0  0  0  0  0
  140.4270   72.4620  223.8150 O   0  0  0  0  0  0  0  0  0  0  0  0
  139.6860   70.4700  223.0160 N   0  0  0  0  0  0  0  0  0  0  0  0
  139.2200   69.6010  221.8750 C   0  0  0  0  0  0  0  0  0  0  0  0
  137.7670   69.4300  221.9750 C   0  0  0  0  0  0  0  0  0  0  0  0
  137.1460   69.9720  223.2360 C   0  0  0  0  0  0  0  0  0  0  0  0
  137.9110   69.6750  224.4670 C   0  0  0  0  0  0  0  0  0  0  0  0
  139.4280   69.8660  224.2790 C   0  0  2  0  0  0  0  0  0  0  0  0
  140.0070   70.2420  225.5520 C   0  0  0  0  0  0  0  0  0  0  0  0
  141.4340   70.5910  225.7140 C   0  0  0  0  0  0  0  0  0  0  0  0
  141.4550   71.8810  226.5910 C   0  0  0  0  0  0  0  0  0  0  0  0
  140.5450   71.5410  227.7490 C   0  0  0  0  0  0  0  0  0  0  0  0
  140.3210   70.0620  227.9460 C   0  0  0  0  0  0  0  0  0  0  0  0
  139.6130   69.4170  226.7650 C   0  0  0  0  0  0  0  0  0  0  0  0
  140.8230   76.1670  221.7530 C   0  0  0  0  0  0  0  0  0  0  0  0
  141.1350   76.6150  220.4840 C   0  0  0  0  0  0  0  0  0  0  0  0
  141.5810   77.9270  220.3740 C   0  0  0  0  0  0  0  0  0  0  0  0
  141.6960   78.7250  221.5000 C   0  0  0  0  0  0  0  0  0  0  0  0
  142.1330   80.0340  221.4430 C   0  0  0  0  0  0  0  0  0  0  0  0
  142.2430   80.8250  222.5890 C   0  0  0  0  0  0  0  0  0  0  0  0
  141.8970   80.2590  223.8200 C   0  0  0  0  0  0  0  0  0  0  0  0
  141.4550   78.9390  223.8910 C   0  0  0  0  0  0  0  0  0  0  0  0
  141.3600   78.1940  222.7360 C   0  0  0  0  0  0  0  0  0  0  0  0
  140.9310   76.9220  222.8340 N   0  0  0  0  0  0  0  0  0  0  0  0
  142.1400   73.9910  221.0900 H   0  0  0  0  0  0  0  0  0  0  0  0
  139.9681   72.2327  220.8043 H   0  0  0  0  0  0  0  0  0  0  0  0
  141.7354   71.8194  221.4191 H   0  0  0  0  0  0  0  0  0  0  0  0
  139.4708   70.0815  220.9178 H   0  0  0  0  0  0  0  0  0  0  0  0
  139.7163   68.6206  221.9246 H   0  0  0  0  0  0  0  0  0  0  0  0
  137.3037   69.9427  221.1191 H   0  0  0  0  0  0  0  0  0  0  0  0
  137.5858   68.3451  221.9856 H   0  0  0  0  0  0  0  0  0  0  0  0
  137.0627   71.0644  223.1371 H   0  0  0  0  0  0  0  0  0  0  0  0
  136.1696   69.4772  223.3445 H   0  0  0  0  0  0  0  0  0  0  0  0
  137.5672   70.3473  225.2669 H   0  0  0  0  0  0  0  0  0  0  0  0
  137.7361   68.6196  224.7229 H   0  0  0  0  0  0  0  0  0  0  0  0
  140.0627   68.9856  224.1000 H   0  0  0  0  0  0  0  0  0  0  0  0
  139.4845   71.2087  225.5023 H   0  0  0  0  0  0  0  0  0  0  0  0
  141.9736   69.7756  226.2179 H   0  0  0  0  0  0  0  0  0  0  0  0
  141.9259   70.7514  224.7433 H   0  0  0  0  0  0  0  0  0  0  0  0
  142.4739   72.0992  226.9436 H   0  0  0  0  0  0  0  0  0  0  0  0
  141.1291   72.7761  226.0409 H   0  0  0  0  0  0  0  0  0  0  0  0
  140.9904   71.9480  228.6688 H   0  0  0  0  0  0  0  0  0  0  0  0
  139.5635   71.9816  227.5196 H   0  0  0  0  0  0  0  0  0  0  0  0
  141.2967   69.5727  228.0823 H   0  0  0  0  0  0  0  0  0  0  0  0
  139.6781   69.9365  228.8297 H   0  0  0  0  0  0  0  0  0  0  0  0
  139.9415   68.3743  226.6433 H   0  0  0  0  0  0  0  0  0  0  0  0
  138.5223   69.3963  226.9062 H   0  0  0  0  0  0  0  0  0  0  0  0
  141.0353   75.9645  219.6026 H   0  0  0  0  0  0  0  0  0  0  0  0
  141.8442   78.3339  219.3865 H   0  0  0  0  0  0  0  0  0  0  0  0
  142.4020   80.4657  220.4677 H   0  0  0  0  0  0  0  0  0  0  0  0
  142.5927   81.8660  222.5248 H   0  0  0  0  0  0  0  0  0  0  0  0
  141.9742   80.8595  224.7384 H   0  0  0  0  0  0  0  0  0  0  0  0
  141.1844   78.4960  224.8608 H   0  0  0  0  0  0  0  0  0  0  0  0
  1  2  2  0
  2  3  1  0
  3  4  1  0
  4  5  1  0
  5  6  2  0
  5  7  1  0
  7  8  1  0
  8  9  1  0
  9 10  1  0
 10 11  1  0
 11 12  1  0
 12 13  1  0
 13 14  1  0
 14 15  1  0
 15 16  1  0
 16 17  1  0
 17 18  1  0
  2 19  1  0
 19 20  2  0
 20 21  1  0
 21 22  2  0
 22 23  1  0
 23 24  2  0
 24 25  1  0
 25 26  2  0
 26 27  1  0
 27 28  2  0
 12  7  1  0
 18 13  1  0
 28 19  1  0
 27 22  1  0
  3 29  1  0
  4 30  1  0
  4 31  1  0
  8 32  1  0
  8 33  1  0
  9 34  1  0
  9 35  1  0
 10 36  1  0
 10 37  1  0
 11 38  1  0
 11 39  1  0
 12 40  1  6
 13 41  1  0
 14 42  1  0
 14 43  1  0
 15 44  1  0
 15 45  1  0
 16 46  1  0
 16 47  1  0
 17 48  1  0
 17 49  1  0
 18 50  1  0
 18 51  1  0
 20 52  1  0
 21 53  1  0
 23 54  1  0
 24 55  1  0
 25 56  1  0
 26 57  1  0
M  END
>  <smiles>  (8) 
O=C(NCC(=O)N1CCCCC1C1CCCCC1)c1ccc2ccccc2n1

>  <score_type>  (8) 
oracle

>  <origin>  (8) 
autodockgpu

>  <m_score__min__energy>  (8) 
-9.3100000000000005

>  <m_primary>  (8) 
energy

>  <rmsd>  (8) 
8.318378780716856

>  <m_score__min__rmsd>  (8) 
8.318378780716856

>  <meeko>  (8) 
{"free_energy": -8.94, "intermolecular_energy": -10.43, "internal_energy": -1.3, "cluster_size": 10, "cluster_id": 1, "rank_in_cluster": 6}

>  <energy>  (8) 
-8.8

>  <cluster_rmsd>  (8) 
1.12

>  <cluster>  (8) 
1

$$$$

     RDKit          3D

 57 60  0  0  0  0  0  0  0  0999 V2000
  141.0170   74.4950  221.3870 O   0  0  0  0  0  0  0  0  0  0  0  0
  140.0380   75.0330  221.9640 C   0  0  0  0  0  0  0  0  0  0  0  0
  138.9570   74.1290  222.3040 N   0  0  0  0  0  0  0  0  0  0  0  0
  138.9910   72.7580  222.0250 C   0  0  0  0  0  0  0  0  0  0  0  0
  139.6430   71.7660  222.8630 C   0  0  0  0  0  0  0  0  0  0  0  0
  140.6730   72.2410  223.5080 O   0  0  0  0  0  0  0  0  0  0  0  0
  139.3910   70.4100  223.1110 N   0  0  0  0  0  0  0  0  0  0  0  0
  139.0380   69.4840  221.9740 C   0  0  0  0  0  0  0  0  0  0  0  0
  137.6860   68.9630  222.1930 C   0  0  0  0  0  0  0  0  0  0  0  0
  137.0780   69.3040  223.5290 C   0  0  0  0  0  0  0  0  0  0  0  0
  138.0070   69.1680  224.6710 C   0  0  0  0  0  0  0  0  0  0  0  0
  139.4090   69.7280  224.3610 C   0  0  2  0  0  0  0  0  0  0  0  0
  140.0020   70.1990  225.5950 C   0  0  0  0  0  0  0  0  0  0  0  0
  141.4270   70.5740  225.7100 C   0  0  0  0  0  0  0  0  0  0  0  0
  141.4450   71.9240  226.4940 C   0  0  0  0  0  0  0  0  0  0  0  0
  140.5560   71.6550  227.6870 C   0  0  0  0  0  0  0  0  0  0  0  0
  140.3540   70.1920  227.9910 C   0  0  0  0  0  0  0  0  0  0  0  0
  139.6360   69.4570  226.8690 C   0  0  0  0  0  0  0  0  0  0  0  0
  139.9670   76.4550  222.2780 C   0  0  0  0  0  0  0  0  0  0  0  0
  138.7090   77.0250  222.2940 C   0  0  0  0  0  0  0  0  0  0  0  0
  138.6380   78.3810  222.5920 C   0  0  0  0  0  0  0  0  0  0  0  0
  139.7910   79.1010  222.8570 C   0  0  0  0  0  0  0  0  0  0  0  0
  139.7720   80.4480  223.1580 C   0  0  0  0  0  0  0  0  0  0  0  0
  140.9440   81.1610  223.4230 C   0  0  0  0  0  0  0  0  0  0  0  0
  142.1620   80.4730  223.3770 C   0  0  0  0  0  0  0  0  0  0  0  0
  142.1930   79.1130  223.0740 C   0  0  0  0  0  0  0  0  0  0  0  0
  141.0130   78.4490  222.8200 C   0  0  0  0  0  0  0  0  0  0  0  0
  141.0740   77.1360  222.5290 N   0  0  0  0  0  0  0  0  0  0  0  0
  138.1460   74.6280  222.7860 H   0  0  0  0  0  0  0  0  0  0  0  0
  137.9392   72.4433  221.9571 H   0  0  0  0  0  0  0  0  0  0  0  0
  139.6478   72.7446  221.1427 H   0  0  0  0  0  0  0  0  0  0  0  0
  139.0722   70.0360  221.0231 H   0  0  0  0  0  0  0  0  0  0  0  0
  139.7570   68.6526  221.9315 H   0  0  0  0  0  0  0  0  0  0  0  0
  137.0325   69.3701  221.4074 H   0  0  0  0  0  0  0  0  0  0  0  0
  137.7722   67.8667  222.1666 H   0  0  0  0  0  0  0  0  0  0  0  0
  136.7270   70.3458  223.4923 H   0  0  0  0  0  0  0  0  0  0  0  0
  136.2629   68.5849  223.6977 H   0  0  0  0  0  0  0  0  0  0  0  0
  137.5913   69.7137  225.5309 H   0  0  0  0  0  0  0  0  0  0  0  0
  138.1159   68.0950  224.8874 H   0  0  0  0  0  0  0  0  0  0  0  0
  140.2163   69.0339  224.0844 H   0  0  0  0  0  0  0  0  0  0  0  0
  139.4672   71.1540  225.4856 H   0  0  0  0  0  0  0  0  0  0  0  0
  141.9836   69.8022  226.2619 H   0  0  0  0  0  0  0  0  0  0  0  0
  141.9030   70.6706  224.7230 H   0  0  0  0  0  0  0  0  0  0  0  0
  142.4661   72.1782  226.8146 H   0  0  0  0  0  0  0  0  0  0  0  0
  141.1004   72.7747  225.8877 H   0  0  0  0  0  0  0  0  0  0  0  0
  141.0092   72.1311  228.5690 H   0  0  0  0  0  0  0  0  0  0  0  0
  139.5656   72.0662  227.4418 H   0  0  0  0  0  0  0  0  0  0  0  0
  141.3378   69.7248  228.1457 H   0  0  0  0  0  0  0  0  0  0  0  0
  139.7264   70.1216  228.8917 H   0  0  0  0  0  0  0  0  0  0  0  0
  139.9753   68.4120  226.8157 H   0  0  0  0  0  0  0  0  0  0  0  0
  138.5479   69.4340  227.0284 H   0  0  0  0  0  0  0  0  0  0  0  0
  137.8060   76.4340  222.0810 H   0  0  0  0  0  0  0  0  0  0  0  0
  137.6605   78.8849  222.6174 H   0  0  0  0  0  0  0  0  0  0  0  0
  138.8070   80.9749  223.1902 H   0  0  0  0  0  0  0  0  0  0  0  0
  140.9104   82.2343  223.6614 H   0  0  0  0  0  0  0  0  0  0  0  0
  143.1006   81.0090  223.5813 H   0  0  0  0  0  0  0  0  0  0  0  0
  143.1514   78.5744  223.0380 H   0  0  0  0  0  0  0  0  0  0  0  0
  1  2  2  0
  2  3  1  0
  3  4  1  0
  4  5  1  0
  5  6  2  0
  5  7  1  0
  7  8  1  0
  8  9  1  0
  9 10  1  0
 10 11  1  0
 11 12  1  0
 12 13  1  0
 13 14  1  0
 14 15  1  0
 15 16  1  0
 16 17  1  0
 17 18  1  0
  2 19  1  0
 19 20  2  0
 20 21  1  0
 21 22  2  0
 22 23  1  0
 23 24  2  0
 24 25  1  0
 25 26  2  0
 26 27  1  0
 27 28  2  0
 12  7  1  0
 18 13  1  0
 28 19  1  0
 27 22  1  0
  3 29  1  0
  4 30  1  0
  4 31  1  0
  8 32  1  0
  8 33  1  0
  9 34  1  0
  9 35  1  0
 10 36  1  0
 10 37  1  0
 11 38  1  0
 11 39  1  0
 12 40  1  6
 13 41  1  0
 14 42  1  0
 14 43  1  0
 15 44  1  0
 15 45  1  0
 16 46  1  0
 16 47  1  0
 17 48  1  0
 17 49  1  0
 18 50  1  0
 18 51  1  0
 20 52  1  0
 21 53  1  0
 23 54  1  0
 24 55  1  0
 25 56  1  0
 26 57  1  0
M  END
>  <smiles>  (9) 
O=C(NCC(=O)N1CCCCC1C1CCCCC1)c1ccc2ccccc2n1

>  <score_type>  (9) 
oracle

>  <origin>  (9) 
autodockgpu

>  <m_score__min__energy>  (9) 
-9.3100000000000005

>  <m_primary>  (9) 
energy

>  <rmsd>  (9) 
8.332515755562405

>  <m_score__min__rmsd>  (9) 
8.332515755562405

>  <meeko>  (9) 
{"free_energy": -9.31, "intermolecular_energy": -10.8, "internal_energy": -1.3, "cluster_size": 10, "cluster_id": 1, "rank_in_cluster": 1}

>  <energy>  (9) 
-8.79

>  <cluster_rmsd>  (9) 
1.05

>  <cluster>  (9) 
1

$$$$

     RDKit          3D

 57 60  0  0  0  0  0  0  0  0999 V2000
  141.2300   71.4530  221.4410 O   0  0  0  0  0  0  0  0  0  0  0  0
  140.6680   71.9780  222.4340 C   0  0  0  0  0  0  0  0  0  0  0  0
  140.3750   73.3910  222.2950 N   0  0  0  0  0  0  0  0  0  0  0  0
  140.6830   74.1250  221.1440 C   0  0  0  0  0  0  0  0  0  0  0  0
  141.3600   75.4100  221.1470 C   0  0  0  0  0  0  0  0  0  0  0  0
  141.0990   76.1220  222.2100 O   0  0  0  0  0  0  0  0  0  0  0  0
  142.2290   76.0350  220.2430 N   0  0  0  0  0  0  0  0  0  0  0  0
  141.9750   77.4550  219.8050 C   0  0  0  0  0  0  0  0  0  0  0  0
  141.7290   77.4660  218.3600 C   0  0  0  0  0  0  0  0  0  0  0  0
  141.9710   76.1550  217.6600 C   0  0  0  0  0  0  0  0  0  0  0  0
  143.1970   75.4510  218.0950 C   0  0  0  0  0  0  0  0  0  0  0  0
  143.3910   75.4930  219.6230 C   0  0  2  0  0  0  0  0  0  0  0  0
  144.1140   74.3050  220.0290 C   0  0  0  0  0  0  0  0  0  0  0  0
  143.4450   73.1000  220.5620 C   0  0  0  0  0  0  0  0  0  0  0  0
  144.1040   71.8920  219.8270 C   0  0  0  0  0  0  0  0  0  0  0  0
  145.5860   72.1520  219.9710 C   0  0  0  0  0  0  0  0  0  0  0  0
  145.9410   73.1120  221.0790 C   0  0  0  0  0  0  0  0  0  0  0  0
  145.3790   74.5060  220.8450 C   0  0  0  0  0  0  0  0  0  0  0  0
  140.3250   71.2470  223.6490 C   0  0  0  0  0  0  0  0  0  0  0  0
  139.6210   70.0700  223.4860 C   0  0  0  0  0  0  0  0  0  0  0  0
  139.2920   69.3700  224.6410 C   0  0  0  0  0  0  0  0  0  0  0  0
  139.6660   69.8550  225.8840 C   0  0  0  0  0  0  0  0  0  0  0  0
  139.3640   69.1980  227.0600 C   0  0  0  0  0  0  0  0  0  0  0  0
  139.7490   69.7000  228.3050 C   0  0  0  0  0  0  0  0  0  0  0  0
  140.4600   70.9040  228.3420 C   0  0  0  0  0  0  0  0  0  0  0  0
  140.7710   71.5770  227.1620 C   0  0  0  0  0  0  0  0  0  0  0  0
  140.3720   71.0460  225.9550 C   0  0  0  0  0  0  0  0  0  0  0  0
  140.6860   71.7170  224.8310 N   0  0  0  0  0  0  0  0  0  0  0  0
  139.9040   73.7960  223.1630 H   0  0  0  0  0  0  0  0  0  0  0  0
  141.3087   73.4620  220.5285 H   0  0  0  0  0  0  0  0  0  0  0  0
  139.6765   74.4246  220.8167 H   0  0  0  0  0  0  0  0  0  0  0  0
  141.0959   77.8532  220.3329 H   0  0  0  0  0  0  0  0  0  0  0  0
  142.8483   78.0810  220.0405 H   0  0  0  0  0  0  0  0  0  0  0  0
  140.6795   77.7514  218.1953 H   0  0  0  0  0  0  0  0  0  0  0  0
  142.4496   78.1787  217.9324 H   0  0  0  0  0  0  0  0  0  0  0  0
  141.1099   75.4979  217.8515 H   0  0  0  0  0  0  0  0  0  0  0  0
  142.1022   76.3868  216.5927 H   0  0  0  0  0  0  0  0  0  0  0  0
  143.1322   74.4001  217.7764 H   0  0  0  0  0  0  0  0  0  0  0  0
  144.0562   75.9609  217.6349 H   0  0  0  0  0  0  0  0  0  0  0  0
  144.0867   76.2263  220.0568 H   0  0  0  0  0  0  0  0  0  0  0  0
  144.3170   74.0711  218.9735 H   0  0  0  0  0  0  0  0  0  0  0  0
  143.6039   73.0215  221.6476 H   0  0  0  0  0  0  0  0  0  0  0  0
  142.3580   73.1322  220.3966 H   0  0  0  0  0  0  0  0  0  0  0  0
  143.8240   70.9416  220.3049 H   0  0  0  0  0  0  0  0  0  0  0  0
  143.7858   71.8056  218.7776 H   0  0  0  0  0  0  0  0  0  0  0  0
  146.0864   71.1932  220.1718 H   0  0  0  0  0  0  0  0  0  0  0  0
  145.9178   72.6176  219.0312 H   0  0  0  0  0  0  0  0  0  0  0  0
  145.5371   72.7232  222.0254 H   0  0  0  0  0  0  0  0  0  0  0  0
  147.0374   73.1949  221.1106 H   0  0  0  0  0  0  0  0  0  0  0  0
  145.1443   74.9913  221.8039 H   0  0  0  0  0  0  0  0  0  0  0  0
  146.1002   75.1534  220.3248 H   0  0  0  0  0  0  0  0  0  0  0  0
  139.3342   69.7038  222.4892 H   0  0  0  0  0  0  0  0  0  0  0  0
  138.7319   68.4261  224.5679 H   0  0  0  0  0  0  0  0  0  0  0  0
  138.8042   68.2522  227.0151 H   0  0  0  0  0  0  0  0  0  0  0  0
  139.4997   69.1628  229.2320 H   0  0  0  0  0  0  0  0  0  0  0  0
  140.7758   71.3224  229.3090 H   0  0  0  0  0  0  0  0  0  0  0  0
  141.3301   72.5238  227.1940 H   0  0  0  0  0  0  0  0  0  0  0  0
  1  2  2  0
  2  3  1  0
  3  4  1  0
  4  5  1  0
  5  6  2  0
  5  7  1  0
  7  8  1  0
  8  9  1  0
  9 10  1  0
 10 11  1  0
 11 12  1  0
 12 13  1  0
 13 14  1  0
 14 15  1  0
 15 16  1  0
 16 17  1  0
 17 18  1  0
  2 19  1  0
 19 20  2  0
 20 21  1  0
 21 22  2  0
 22 23  1  0
 23 24  2  0
 24 25  1  0
 25 26  2  0
 26 27  1  0
 27 28  2  0
 12  7  1  0
 18 13  1  0
 28 19  1  0
 27 22  1  0
  3 29  1  0
  4 30  1  0
  4 31  1  0
  8 32  1  0
  8 33  1  0
  9 34  1  0
  9 35  1  0
 10 36  1  0
 10 37  1  0
 11 38  1  0
 11 39  1  0
 12 40  1  6
 13 41  1  0
 14 42  1  0
 14 43  1  0
 15 44  1  0
 15 45  1  0
 16 46  1  0
 16 47  1  0
 17 48  1  0
 17 49  1  0
 18 50  1  0
 18 51  1  0
 20 52  1  0
 21 53  1  0
 23 54  1  0
 24 55  1  0
 25 56  1  0
 26 57  1  0
M  END
>  <smiles>  (10) 
O=C(NCC(=O)N1CCCCC1C1CCCCC1)c1ccc2ccccc2n1

>  <score_type>  (10) 
oracle

>  <origin>  (10) 
autodockgpu

>  <m_score__min__energy>  (10) 
-9.3100000000000005

>  <m_primary>  (10) 
energy

>  <rmsd>  (10) 
2.420036017368941

>  <m_score__min__rmsd>  (10) 
2.420036017368941

>  <meeko>  (10) 
{"free_energy": -8.5, "intermolecular_energy": -9.99, "internal_energy": -1.63, "cluster_size": 31, "cluster_id": 2, "rank_in_cluster": 18}

>  <energy>  (10) 
-8.74

>  <cluster_rmsd>  (10) 
1.07

>  <cluster>  (10) 
1

$$$$

     RDKit          3D

 57 60  0  0  0  0  0  0  0  0999 V2000
  141.2390   73.4780  220.9160 O   0  0  0  0  0  0  0  0  0  0  0  0
  140.6320   74.3900  221.5310 C   0  0  0  0  0  0  0  0  0  0  0  0
  139.4790   73.9520  222.2920 N   0  0  0  0  0  0  0  0  0  0  0  0
  139.0660   72.6160  222.3530 C   0  0  0  0  0  0  0  0  0  0  0  0
  139.7590   71.5760  223.0930 C   0  0  0  0  0  0  0  0  0  0  0  0
  140.9160   71.9640  223.5560 O   0  0  0  0  0  0  0  0  0  0  0  0
  139.4380   70.2470  223.4030 N   0  0  0  0  0  0  0  0  0  0  0  0
  139.0390   69.2890  222.3090 C   0  0  0  0  0  0  0  0  0  0  0  0
  137.6610   68.8490  222.5470 C   0  0  0  0  0  0  0  0  0  0  0  0
  137.0710   69.2810  223.8640 C   0  0  0  0  0  0  0  0  0  0  0  0
  137.9910   69.1510  225.0140 C   0  0  0  0  0  0  0  0  0  0  0  0
  139.4210   69.6230  224.6820 C   0  0  2  0  0  0  0  0  0  0  0  0
  140.0360   70.1200  225.8960 C   0  0  0  0  0  0  0  0  0  0  0  0
  141.4510   70.5400  225.9650 C   0  0  0  0  0  0  0  0  0  0  0  0
  141.4510   71.8940  226.7410 C   0  0  0  0  0  0  0  0  0  0  0  0
  140.6080   71.6060  227.9620 C   0  0  0  0  0  0  0  0  0  0  0  0
  140.4600   70.1380  228.2800 C   0  0  0  0  0  0  0  0  0  0  0  0
  139.7320   69.3750  227.1840 C   0  0  0  0  0  0  0  0  0  0  0  0
  141.0340   75.7920  221.4990 C   0  0  0  0  0  0  0  0  0  0  0  0
  141.7770   76.1990  220.4080 C   0  0  0  0  0  0  0  0  0  0  0  0
  142.1630   77.5340  220.3740 C   0  0  0  0  0  0  0  0  0  0  0  0
  141.8040   78.3920  221.4000 C   0  0  0  0  0  0  0  0  0  0  0  0
  142.1620   79.7260  221.4130 C   0  0  0  0  0  0  0  0  0  0  0  0
  141.7930   80.5790  222.4550 C   0  0  0  0  0  0  0  0  0  0  0  0
  141.0390   80.0490  223.5080 C   0  0  0  0  0  0  0  0  0  0  0  0
  140.6720   78.7050  223.5070 C   0  0  0  0  0  0  0  0  0  0  0  0
  141.0570   77.8990  222.4590 C   0  0  0  0  0  0  0  0  0  0  0  0
  140.6880   76.6040  222.4840 N   0  0  0  0  0  0  0  0  0  0  0  0
  138.9920   74.7590  222.7930 H   0  0  0  0  0  0  0  0  0  0  0  0
  138.0449   72.6399  222.7615 H   0  0  0  0  0  0  0  0  0  0  0  0
  139.2587   72.2946  221.3188 H   0  0  0  0  0  0  0  0  0  0  0  0
  139.1029   69.7939  221.3338 H   0  0  0  0  0  0  0  0  0  0  0  0
  139.7141   68.4205  222.3076 H   0  0  0  0  0  0  0  0  0  0  0  0
  137.0302   69.2536  221.7418 H   0  0  0  0  0  0  0  0  0  0  0  0
  137.6900   67.7496  222.5701 H   0  0  0  0  0  0  0  0  0  0  0  0
  136.7732   70.3365  223.7785 H   0  0  0  0  0  0  0  0  0  0  0  0
  136.2208   68.6120  224.0632 H   0  0  0  0  0  0  0  0  0  0  0  0
  137.6036   69.7573  225.8461 H   0  0  0  0  0  0  0  0  0  0  0  0
  138.0441   68.0852  225.2809 H   0  0  0  0  0  0  0  0  0  0  0  0
  140.1917   68.8766  224.4394 H   0  0  0  0  0  0  0  0  0  0  0  0
  139.4681   71.0570  225.7990 H   0  0  0  0  0  0  0  0  0  0  0  0
  142.0483   69.7893  226.5032 H   0  0  0  0  0  0  0  0  0  0  0  0
  141.8930   70.6456  224.9632 H   0  0  0  0  0  0  0  0  0  0  0  0
  142.4731   72.1814  227.0287 H   0  0  0  0  0  0  0  0  0  0  0  0
  141.0615   72.7297  226.1410 H   0  0  0  0  0  0  0  0  0  0  0  0
  141.0735   72.1010  228.8270 H   0  0  0  0  0  0  0  0  0  0  0  0
  139.5985   71.9857  227.7456 H   0  0  0  0  0  0  0  0  0  0  0  0
  141.4618   69.7020  228.4076 H   0  0  0  0  0  0  0  0  0  0  0  0
  139.8621   70.0539  229.1995 H   0  0  0  0  0  0  0  0  0  0  0  0
  140.1018   68.3407  227.1257 H   0  0  0  0  0  0  0  0  0  0  0  0
  138.6504   69.3197  227.3764 H   0  0  0  0  0  0  0  0  0  0  0  0
  142.0503   75.4997  219.6041 H   0  0  0  0  0  0  0  0  0  0  0  0
  142.7565   77.9107  219.5279 H   0  0  0  0  0  0  0  0  0  0  0  0
  142.7550   80.1280  220.5783 H   0  0  0  0  0  0  0  0  0  0  0  0
  142.0870   81.6390  222.4484 H   0  0  0  0  0  0  0  0  0  0  0  0
  140.7340   80.6979  224.3422 H   0  0  0  0  0  0  0  0  0  0  0  0
  140.0797   78.2912  224.3364 H   0  0  0  0  0  0  0  0  0  0  0  0
  1  2  2  0
  2  3  1  0
  3  4  1  0
  4  5  1  0
  5  6  2  0
  5  7  1  0
  7  8  1  0
  8  9  1  0
  9 10  1  0
 10 11  1  0
 11 12  1  0
 12 13  1  0
 13 14  1  0
 14 15  1  0
 15 16  1  0
 16 17  1  0
 17 18  1  0
  2 19  1  0
 19 20  2  0
 20 21  1  0
 21 22  2  0
 22 23  1  0
 23 24  2  0
 24 25  1  0
 25 26  2  0
 26 27  1  0
 27 28  2  0
 12  7  1  0
 18 13  1  0
 28 19  1  0
 27 22  1  0
  3 29  1  0
  4 30  1  0
  4 31  1  0
  8 32  1  0
  8 33  1  0
  9 34  1  0
  9 35  1  0
 10 36  1  0
 10 37  1  0
 11 38  1  0
 11 39  1  0
 12 40  1  6
 13 41  1  0
 14 42  1  0
 14 43  1  0
 15 44  1  0
 15 45  1  0
 16 46  1  0
 16 47  1  0
 17 48  1  0
 17 49  1  0
 18 50  1  0
 18 51  1  0
 20 52  1  0
 21 53  1  0
 23 54  1  0
 24 55  1  0
 25 56  1  0
 26 57  1  0
M  END
>  <smiles>  (11) 
O=C(NCC(=O)N1CCCCC1C1CCCCC1)c1ccc2ccccc2n1

>  <score_type>  (11) 
oracle

>  <origin>  (11) 
autodockgpu

>  <m_score__min__energy>  (11) 
-9.3100000000000005

>  <m_primary>  (11) 
energy

>  <rmsd>  (11) 
8.386674848304542

>  <m_score__min__rmsd>  (11) 
8.386674848304542

>  <meeko>  (11) 
{"free_energy": -8.98, "intermolecular_energy": -10.47, "internal_energy": -1.62, "cluster_size": 10, "cluster_id": 1, "rank_in_cluster": 4}

>  <energy>  (11) 
-9.02

>  <cluster_rmsd>  (11) 
0.0

>  <cluster>  (11) 
2

$$$$

     RDKit          3D

 57 60  0  0  0  0  0  0  0  0999 V2000
  133.7530   70.0520  226.8450 O   0  0  0  0  0  0  0  0  0  0  0  0
  133.9500   71.1670  226.3000 C   0  0  0  0  0  0  0  0  0  0  0  0
  134.9340   71.1630  225.2360 N   0  0  0  0  0  0  0  0  0  0  0  0
  135.6160   70.0090  224.8300 C   0  0  0  0  0  0  0  0  0  0  0  0
  137.0370   69.9580  224.5340 C   0  0  0  0  0  0  0  0  0  0  0  0
  137.5590   68.7800  224.7380 O   0  0  0  0  0  0  0  0  0  0  0  0
  137.9530   70.9160  224.0790 N   0  0  0  0  0  0  0  0  0  0  0  0
  137.5760   71.8570  222.9630 C   0  0  0  0  0  0  0  0  0  0  0  0
  138.4640   71.6150  221.8220 C   0  0  0  0  0  0  0  0  0  0  0  0
  139.6080   70.6730  222.0910 C   0  0  0  0  0  0  0  0  0  0  0  0
  140.2810   70.8890  223.3900 C   0  0  0  0  0  0  0  0  0  0  0  0
  139.2820   71.1470  224.5360 C   0  0  2  0  0  0  0  0  0  0  0  0
  139.8670   70.6710  225.7730 C   0  0  0  0  0  0  0  0  0  0  0  0
  140.9260   71.4060  226.4950 C   0  0  0  0  0  0  0  0  0  0  0  0
  140.4990   71.3930  227.9960 C   0  0  0  0  0  0  0  0  0  0  0  0
  140.1660   69.9430  228.2600 C   0  0  0  0  0  0  0  0  0  0  0  0
  140.7570   68.9800  227.2600 C   0  0  0  0  0  0  0  0  0  0  0  0
  140.2180   69.1960  225.8540 C   0  0  0  0  0  0  0  0  0  0  0  0
  133.2560   72.3900  226.6880 C   0  0  0  0  0  0  0  0  0  0  0  0
  132.0170   72.2400  227.2770 C   0  0  0  0  0  0  0  0  0  0  0  0
  131.3520   73.4030  227.6480 C   0  0  0  0  0  0  0  0  0  0  0  0
  131.9320   74.6410  227.4260 C   0  0  0  0  0  0  0  0  0  0  0  0
  131.3130   75.8250  227.7770 C   0  0  0  0  0  0  0  0  0  0  0  0
  131.9110   77.0660  227.5460 C   0  0  0  0  0  0  0  0  0  0  0  0
  133.1720   77.0910  226.9410 C   0  0  0  0  0  0  0  0  0  0  0  0
  133.8070   75.9030  226.5830 C   0  0  0  0  0  0  0  0  0  0  0  0
  133.1810   74.7000  226.8290 C   0  0  0  0  0  0  0  0  0  0  0  0
  133.8170   73.5690  226.4720 N   0  0  0  0  0  0  0  0  0  0  0  0
  135.0740   72.1300  224.8060 H   0  0  0  0  0  0  0  0  0  0  0  0
  135.4532   69.2717  225.6299 H   0  0  0  0  0  0  0  0  0  0  0  0
  135.1918   69.8626  223.8257 H   0  0  0  0  0  0  0  0  0  0  0  0
  136.5327   71.6774  222.6643 H   0  0  0  0  0  0  0  0  0  0  0  0
  137.6773   72.8987  223.3016 H   0  0  0  0  0  0  0  0  0  0  0  0
  137.8609   71.1938  221.0042 H   0  0  0  0  0  0  0  0  0  0  0  0
  138.9183   72.5862  221.5762 H   0  0  0  0  0  0  0  0  0  0  0  0
  139.2192   69.6442  222.0712 H   0  0  0  0  0  0  0  0  0  0  0  0
  140.3607   70.8603  221.3110 H   0  0  0  0  0  0  0  0  0  0  0  0
  140.8739   69.9950  223.6333 H   0  0  0  0  0  0  0  0  0  0  0  0
  140.9168   71.7814  223.2931 H   0  0  0  0  0  0  0  0  0  0  0  0
  139.0960   72.1797  224.8659 H   0  0  0  0  0  0  0  0  0  0  0  0
  138.9373   70.9195  226.3058 H   0  0  0  0  0  0  0  0  0  0  0  0
  141.8965   70.9041  226.3677 H   0  0  0  0  0  0  0  0  0  0  0  0
  141.0412   72.4315  226.1140 H   0  0  0  0  0  0  0  0  0  0  0  0
  141.3234   71.7301  228.6415 H   0  0  0  0  0  0  0  0  0  0  0  0
  139.6572   72.0692  228.2060 H   0  0  0  0  0  0  0  0  0  0  0  0
  140.5443   69.6786  229.2585 H   0  0  0  0  0  0  0  0  0  0  0  0
  139.0729   69.8503  228.1797 H   0  0  0  0  0  0  0  0  0  0  0  0
  141.8487   69.1142  227.2437 H   0  0  0  0  0  0  0  0  0  0  0  0
  140.4791   67.9623  227.5717 H   0  0  0  0  0  0  0  0  0  0  0  0
  140.9836   68.9419  225.1061 H   0  0  0  0  0  0  0  0  0  0  0  0
  139.3451   68.5583  225.6504 H   0  0  0  0  0  0  0  0  0  0  0  0
  131.5761   71.2463  227.4451 H   0  0  0  0  0  0  0  0  0  0  0  0
  130.3605   73.3398  228.1201 H   0  0  0  0  0  0  0  0  0  0  0  0
  130.3213   75.7895  228.2517 H   0  0  0  0  0  0  0  0  0  0  0  0
  131.4037   77.9991  227.8323 H   0  0  0  0  0  0  0  0  0  0  0  0
  133.6657   78.0546  226.7465 H   0  0  0  0  0  0  0  0  0  0  0  0
  134.7991   75.9254  226.1083 H   0  0  0  0  0  0  0  0  0  0  0  0
  1  2  2  0
  2  3  1  0
  3  4  1  0
  4  5  1  0
  5  6  2  0
  5  7  1  0
  7  8  1  0
  8  9  1  0
  9 10  1  0
 10 11  1  0
 11 12  1  0
 12 13  1  0
 13 14  1  0
 14 15  1  0
 15 16  1  0
 16 17  1  0
 17 18  1  0
  2 19  1  0
 19 20  2  0
 20 21  1  0
 21 22  2  0
 22 23  1  0
 23 24  2  0
 24 25  1  0
 25 26  2  0
 26 27  1  0
 27 28  2  0
 12  7  1  0
 18 13  1  0
 28 19  1  0
 27 22  1  0
  3 29  1  0
  4 30  1  0
  4 31  1  0
  8 32  1  0
  8 33  1  0
  9 34  1  0
  9 35  1  0
 10 36  1  0
 10 37  1  0
 11 38  1  0
 11 39  1  0
 12 40  1  1
 13 41  1  0
 14 42  1  0
 14 43  1  0
 15 44  1  0
 15 45  1  0
 16 46  1  0
 16 47  1  0
 17 48  1  0
 17 49  1  0
 18 50  1  0
 18 51  1  0
 20 52  1  0
 21 53  1  0
 23 54  1  0
 24 55  1  0
 25 56  1  0
 26 57  1  0
M  END
>  <smiles>  (12) 
O=C(NCC(=O)N1CCCCC1C1CCCCC1)c1ccc2ccccc2n1

>  <score_type>  (12) 
oracle

>  <origin>  (12) 
autodockgpu

>  <m_score__min__energy>  (12) 
-9.3100000000000005

>  <m_primary>  (12) 
energy

>  <rmsd>  (12) 
8.061454423781493

>  <m_score__min__rmsd>  (12) 
8.061454423781493

>  <meeko>  (12) 
{"free_energy": -8.67, "intermolecular_energy": -10.16, "internal_energy": -1.62, "cluster_size": 3, "cluster_id": 3, "rank_in_cluster": 1}

>  <energy>  (12) 
-8.92

>  <cluster_rmsd>  (12) 
0.79

>  <cluster>  (12) 
2

$$$$

     RDKit          3D

 57 60  0  0  0  0  0  0  0  0999 V2000
  139.7900   71.2510  221.2380 O   0  0  0  0  0  0  0  0  0  0  0  0
  139.7170   71.8560  222.3370 C   0  0  0  0  0  0  0  0  0  0  0  0
  139.4430   73.2760  222.2360 N   0  0  0  0  0  0  0  0  0  0  0  0
  139.2630   73.9350  221.0140 C   0  0  0  0  0  0  0  0  0  0  0  0
  140.3290   74.5770  220.2640 C   0  0  0  0  0  0  0  0  0  0  0  0
  140.3130   74.2750  218.9950 O   0  0  0  0  0  0  0  0  0  0  0  0
  141.3650   75.4460  220.6300 N   0  0  0  0  0  0  0  0  0  0  0  0
  141.0510   76.7640  221.2940 C   0  0  0  0  0  0  0  0  0  0  0  0
  141.5090   77.8510  220.4240 C   0  0  0  0  0  0  0  0  0  0  0  0
  142.3170   77.4160  219.2290 C   0  0  0  0  0  0  0  0  0  0  0  0
  143.3180   76.3680  219.5220 C   0  0  0  0  0  0  0  0  0  0  0  0
  142.7670   75.2680  220.4500 C   0  0  2  0  0  0  0  0  0  0  0  0
  143.4490   74.0260  220.1510 C   0  0  0  0  0  0  0  0  0  0  0  0
  143.8590   73.6440  218.7830 C   0  0  0  0  0  0  0  0  0  0  0  0
  145.3220   73.1180  218.9140 C   0  0  0  0  0  0  0  0  0  0  0  0
  145.2490   72.1390  220.0630 C   0  0  0  0  0  0  0  0  0  0  0  0
  143.8550   71.6490  220.3700 C   0  0  0  0  0  0  0  0  0  0  0  0
  142.9300   72.7680  220.8250 C   0  0  0  0  0  0  0  0  0  0  0  0
  139.8920   71.2060  223.6300 C   0  0  0  0  0  0  0  0  0  0  0  0
  139.5390   69.8730  223.7070 C   0  0  0  0  0  0  0  0  0  0  0  0
  139.7030   69.2490  224.9380 C   0  0  0  0  0  0  0  0  0  0  0  0
  140.2010   69.9570  226.0200 C   0  0  0  0  0  0  0  0  0  0  0  0
  140.3840   69.3830  227.2630 C   0  0  0  0  0  0  0  0  0  0  0  0
  140.8870   70.1100  228.3440 C   0  0  0  0  0  0  0  0  0  0  0  0
  141.2100   71.4570  228.1430 C   0  0  0  0  0  0  0  0  0  0  0  0
  141.0310   72.0470  226.8930 C   0  0  0  0  0  0  0  0  0  0  0  0
  140.5320   71.2930  225.8540 C   0  0  0  0  0  0  0  0  0  0  0  0
  140.3680   71.8890  224.6580 N   0  0  0  0  0  0  0  0  0  0  0  0
  139.3960   73.7500  223.1910 H   0  0  0  0  0  0  0  0  0  0  0  0
  138.8317   73.1858  220.3339 H   0  0  0  0  0  0  0  0  0  0  0  0
  138.6825   74.8117  221.3371 H   0  0  0  0  0  0  0  0  0  0  0  0
  139.9658   76.8492  221.4523 H   0  0  0  0  0  0  0  0  0  0  0  0
  141.5606   76.8236  222.2670 H   0  0  0  0  0  0  0  0  0  0  0  0
  140.6232   78.3909  220.0581 H   0  0  0  0  0  0  0  0  0  0  0  0
  142.1787   78.4723  221.0368 H   0  0  0  0  0  0  0  0  0  0  0  0
  141.6246   77.0282  218.4673 H   0  0  0  0  0  0  0  0  0  0  0  0
  142.8759   78.2996  218.8872 H   0  0  0  0  0  0  0  0  0  0  0  0
  143.6321   75.9055  218.5746 H   0  0  0  0  0  0  0  0  0  0  0  0
  144.1629   76.8478  220.0377 H   0  0  0  0  0  0  0  0  0  0  0  0
  143.0115   75.2977  221.5221 H   0  0  0  0  0  0  0  0  0  0  0  0
  144.3634   74.4173  220.6208 H   0  0  0  0  0  0  0  0  0  0  0  0
  143.2008   72.8544  218.3915 H   0  0  0  0  0  0  0  0  0  0  0  0
  143.7929   74.4929  218.0867 H   0  0  0  0  0  0  0  0  0  0  0  0
  145.6422   72.6149  217.9897 H   0  0  0  0  0  0  0  0  0  0  0  0
  146.0509   73.9236  219.0860 H   0  0  0  0  0  0  0  0  0  0  0  0
  145.8739   71.2684  219.8148 H   0  0  0  0  0  0  0  0  0  0  0  0
  145.6002   72.6743  220.9575 H   0  0  0  0  0  0  0  0  0  0  0  0
  143.4345   71.1910  219.4626 H   0  0  0  0  0  0  0  0  0  0  0  0
  143.9301   70.9227  221.1927 H   0  0  0  0  0  0  0  0  0  0  0  0
  141.8959   72.5629  220.5111 H   0  0  0  0  0  0  0  0  0  0  0  0
  142.9197   72.8677  221.9204 H   0  0  0  0  0  0  0  0  0  0  0  0
  139.1463   69.3303  222.8345 H   0  0  0  0  0  0  0  0  0  0  0  0
  139.4362   68.1882  225.0539 H   0  0  0  0  0  0  0  0  0  0  0  0
  140.1262   68.3232  227.4054 H   0  0  0  0  0  0  0  0  0  0  0  0
  141.0257   69.6367  229.3272 H   0  0  0  0  0  0  0  0  0  0  0  0
  141.6077   72.0539  228.9770 H   0  0  0  0  0  0  0  0  0  0  0  0
  141.2861   73.1057  226.7376 H   0  0  0  0  0  0  0  0  0  0  0  0
  1  2  2  0
  2  3  1  0
  3  4  1  0
  4  5  1  0
  5  6  2  0
  5  7  1  0
  7  8  1  0
  8  9  1  0
  9 10  1  0
 10 11  1  0
 11 12  1  0
 12 13  1  0
 13 14  1  0
 14 15  1  0
 15 16  1  0
 16 17  1  0
 17 18  1  0
  2 19  1  0
 19 20  2  0
 20 21  1  0
 21 22  2  0
 22 23  1  0
 23 24  2  0
 24 25  1  0
 25 26  2  0
 26 27  1  0
 27 28  2  0
 12  7  1  0
 18 13  1  0
 28 19  1  0
 27 22  1  0
  3 29  1  0
  4 30  1  0
  4 31  1  0
  8 32  1  0
  8 33  1  0
  9 34  1  0
  9 35  1  0
 10 36  1  0
 10 37  1  0
 11 38  1  0
 11 39  1  0
 12 40  1  1
 13 41  1  0
 14 42  1  0
 14 43  1  0
 15 44  1  0
 15 45  1  0
 16 46  1  0
 16 47  1  0
 17 48  1  0
 17 49  1  0
 18 50  1  0
 18 51  1  0
 20 52  1  0
 21 53  1  0
 23 54  1  0
 24 55  1  0
 25 56  1  0
 26 57  1  0
M  END
>  <smiles>  (13) 
O=C(NCC(=O)N1CCCCC1C1CCCCC1)c1ccc2ccccc2n1

>  <score_type>  (13) 
oracle

>  <origin>  (13) 
autodockgpu

>  <m_score__min__energy>  (13) 
-9.3100000000000005

>  <m_primary>  (13) 
energy

>  <rmsd>  (13) 
2.353164970626061

>  <m_score__min__rmsd>  (13) 
2.353164970626061

>  <meeko>  (13) 
{"free_energy": -7.99, "intermolecular_energy": -9.48, "internal_energy": -1.95, "cluster_size": 31, "cluster_id": 2, "rank_in_cluster": 30}

>  <energy>  (13) 
-8.9

>  <cluster_rmsd>  (13) 
0.81

>  <cluster>  (13) 
2

$$$$

     RDKit          3D

 57 60  0  0  0  0  0  0  0  0999 V2000
  138.6400   75.4940  222.2010 O   0  0  0  0  0  0  0  0  0  0  0  0
  139.8040   75.9640  222.2660 C   0  0  0  0  0  0  0  0  0  0  0  0
  140.8590   75.0360  221.9080 N   0  0  0  0  0  0  0  0  0  0  0  0
  140.6140   73.7170  221.5110 C   0  0  0  0  0  0  0  0  0  0  0  0
  141.6180   72.8290  220.9520 C   0  0  0  0  0  0  0  0  0  0  0  0
  141.4260   71.5770  221.2670 O   0  0  0  0  0  0  0  0  0  0  0  0
  142.7470   73.0480  220.1510 N   0  0  0  0  0  0  0  0  0  0  0  0
  143.7190   71.9250  219.8880 C   0  0  0  0  0  0  0  0  0  0  0  0
  145.0230   72.2890  220.4500 C   0  0  0  0  0  0  0  0  0  0  0  0
  145.1290   73.7040  220.9560 C   0  0  0  0  0  0  0  0  0  0  0  0
  144.5110   74.7140  220.0690 C   0  0  0  0  0  0  0  0  0  0  0  0
  143.1500   74.2540  219.5100 C   0  0  2  0  0  0  0  0  0  0  0  0
  142.3300   75.4230  219.2730 C   0  0  0  0  0  0  0  0  0  0  0  0
  141.5760   75.6360  218.0200 C   0  0  0  0  0  0  0  0  0  0  0  0
  140.1540   76.1060  218.4580 C   0  0  0  0  0  0  0  0  0  0  0  0
  140.4330   77.2060  219.4570 C   0  0  0  0  0  0  0  0  0  0  0  0
  141.8210   77.7890  219.3630 C   0  0  0  0  0  0  0  0  0  0  0  0
  142.9050   76.7700  219.6770 C   0  0  0  0  0  0  0  0  0  0  0  0
  140.1010   77.3340  222.6680 C   0  0  0  0  0  0  0  0  0  0  0  0
  139.0220   78.1320  222.9950 C   0  0  0  0  0  0  0  0  0  0  0  0
  139.3000   79.4390  223.3780 C   0  0  0  0  0  0  0  0  0  0  0  0
  140.6090   79.8910  223.4220 C   0  0  0  0  0  0  0  0  0  0  0  0
  140.9370   81.1790  223.7960 C   0  0  0  0  0  0  0  0  0  0  0  0
  142.2620   81.6210  223.8350 C   0  0  0  0  0  0  0  0  0  0  0  0
  143.2710   80.7180  223.4820 C   0  0  0  0  0  0  0  0  0  0  0  0
  142.9520   79.4160  223.1020 C   0  0  0  0  0  0  0  0  0  0  0  0
  141.6320   79.0220  223.0780 C   0  0  0  0  0  0  0  0  0  0  0  0
  141.3530   77.7580  222.7060 N   0  0  0  0  0  0  0  0  0  0  0  0
  141.8290   75.4750  221.9830 H   0  0  0  0  0  0  0  0  0  0  0  0
  140.2304   73.2047  222.4056 H   0  0  0  0  0  0  0  0  0  0  0  0
  139.9746   73.8830  220.6315 H   0  0  0  0  0  0  0  0  0  0  0  0
  143.3557   71.0022  220.3639 H   0  0  0  0  0  0  0  0  0  0  0  0
  143.8121   71.7566  218.8050 H   0  0  0  0  0  0  0  0  0  0  0  0
  145.2335   71.6103  221.2897 H   0  0  0  0  0  0  0  0  0  0  0  0
  145.7462   72.2038  219.6255 H   0  0  0  0  0  0  0  0  0  0  0  0
  144.6340   73.7574  221.9369 H   0  0  0  0  0  0  0  0  0  0  0  0
  146.2018   73.9419  221.0060 H   0  0  0  0  0  0  0  0  0  0  0  0
  144.3623   75.6419  220.6407 H   0  0  0  0  0  0  0  0  0  0  0  0
  145.1879   74.8690  219.2159 H   0  0  0  0  0  0  0  0  0  0  0  0
  143.0975   73.8466  218.4896 H   0  0  0  0  0  0  0  0  0  0  0  0
  141.5865   75.0414  219.9883 H   0  0  0  0  0  0  0  0  0  0  0  0
  142.0629   76.4079  217.4058 H   0  0  0  0  0  0  0  0  0  0  0  0
  141.5317   74.7204  217.4120 H   0  0  0  0  0  0  0  0  0  0  0  0
  139.5860   76.4914  217.5984 H   0  0  0  0  0  0  0  0  0  0  0  0
  139.5463   75.2915  218.8789 H   0  0  0  0  0  0  0  0  0  0  0  0
  139.7069   78.0154  219.2907 H   0  0  0  0  0  0  0  0  0  0  0  0
  140.3467   76.7547  220.4565 H   0  0  0  0  0  0  0  0  0  0  0  0
  141.9766   78.1656  218.3413 H   0  0  0  0  0  0  0  0  0  0  0  0
  141.8952   78.5951  220.1078 H   0  0  0  0  0  0  0  0  0  0  0  0
  143.8154   76.9876  219.0992 H   0  0  0  0  0  0  0  0  0  0  0  0
  143.1861   76.7898  220.7403 H   0  0  0  0  0  0  0  0  0  0  0  0
  137.9909   77.7510  222.9542 H   0  0  0  0  0  0  0  0  0  0  0  0
  138.4771   80.1174  223.6474 H   0  0  0  0  0  0  0  0  0  0  0  0
  140.1325   81.8769  224.0711 H   0  0  0  0  0  0  0  0  0  0  0  0
  142.5053   82.6509  224.1351 H   0  0  0  0  0  0  0  0  0  0  0  0
  144.3231   81.0382  223.5046 H   0  0  0  0  0  0  0  0  0  0  0  0
  143.7472   78.7088  222.8236 H   0  0  0  0  0  0  0  0  0  0  0  0
  1  2  2  0
  2  3  1  0
  3  4  1  0
  4  5  1  0
  5  6  2  0
  5  7  1  0
  7  8  1  0
  8  9  1  0
  9 10  1  0
 10 11  1  0
 11 12  1  0
 12 13  1  0
 13 14  1  0
 14 15  1  0
 15 16  1  0
 16 17  1  0
 17 18  1  0
  2 19  1  0
 19 20  2  0
 20 21  1  0
 21 22  2  0
 22 23  1  0
 23 24  2  0
 24 25  1  0
 25 26  2  0
 26 27  1  0
 27 28  2  0
 12  7  1  0
 18 13  1  0
 28 19  1  0
 27 22  1  0
  3 29  1  0
  4 30  1  0
  4 31  1  0
  8 32  1  0
  8 33  1  0
  9 34  1  0
  9 35  1  0
 10 36  1  0
 10 37  1  0
 11 38  1  0
 11 39  1  0
 12 40  1  6
 13 41  1  0
 14 42  1  0
 14 43  1  0
 15 44  1  0
 15 45  1  0
 16 46  1  0
 16 47  1  0
 17 48  1  0
 17 49  1  0
 18 50  1  0
 18 51  1  0
 20 52  1  0
 21 53  1  0
 23 54  1  0
 24 55  1  0
 25 56  1  0
 26 57  1  0
M  END
>  <smiles>  (14) 
O=C(NCC(=O)N1CCCCC1C1CCCCC1)c1ccc2ccccc2n1

>  <score_type>  (14) 
oracle

>  <origin>  (14) 
autodockgpu

>  <m_score__min__energy>  (14) 
-9.3100000000000005

>  <m_primary>  (14) 
energy

>  <rmsd>  (14) 
7.6745576039822

>  <m_score__min__rmsd>  (14) 
7.6745576039822

>  <meeko>  (14) 
{"free_energy": -7.12, "intermolecular_energy": -8.61, "internal_energy": -2.77, "cluster_size": 3, "cluster_id": 5, "rank_in_cluster": 1}

>  <energy>  (14) 
-8.86

>  <cluster_rmsd>  (14) 
0.89

>  <cluster>  (14) 
2

$$$$

     RDKit          3D

 57 60  0  0  0  0  0  0  0  0999 V2000
  141.2940   72.3170  221.7900 O   0  0  0  0  0  0  0  0  0  0  0  0
  140.3550   72.4010  222.6210 C   0  0  0  0  0  0  0  0  0  0  0  0
  139.4000   73.4600  222.3580 N   0  0  0  0  0  0  0  0  0  0  0  0
  139.5000   74.3250  221.2620 C   0  0  0  0  0  0  0  0  0  0  0  0
  140.2980   75.5380  221.2450 C   0  0  0  0  0  0  0  0  0  0  0  0
  140.9710   75.7220  222.3490 O   0  0  0  0  0  0  0  0  0  0  0  0
  140.4860   76.5460  220.2890 N   0  0  0  0  0  0  0  0  0  0  0  0
  140.3460   76.2330  218.8210 C   0  0  0  0  0  0  0  0  0  0  0  0
  141.6360   76.4620  218.1650 C   0  0  0  0  0  0  0  0  0  0  0  0
  142.6870   77.1100  219.0290 C   0  0  0  0  0  0  0  0  0  0  0  0
  142.1860   78.2250  219.8610 C   0  0  0  0  0  0  0  0  0  0  0  0
  140.8220   77.9120  220.5070 C   0  0  2  0  0  0  0  0  0  0  0  0
  140.7260   78.6380  221.7570 C   0  0  0  0  0  0  0  0  0  0  0  0
  141.8000   78.6340  222.7720 C   0  0  0  0  0  0  0  0  0  0  0  0
  141.9690   80.1220  223.2130 C   0  0  0  0  0  0  0  0  0  0  0  0
  140.5550   80.5720  223.4990 C   0  0  0  0  0  0  0  0  0  0  0  0
  139.5810   79.4430  223.7330 C   0  0  0  0  0  0  0  0  0  0  0  0
  139.4080   78.5600  222.5070 C   0  0  0  0  0  0  0  0  0  0  0  0
  140.2110   71.5170  223.7710 C   0  0  0  0  0  0  0  0  0  0  0  0
  139.5710   70.3130  223.5520 C   0  0  0  0  0  0  0  0  0  0  0  0
  139.4310   69.4670  224.6460 C   0  0  0  0  0  0  0  0  0  0  0  0
  139.9230   69.8410  225.8860 C   0  0  0  0  0  0  0  0  0  0  0  0
  139.8100   69.0370  227.0030 C   0  0  0  0  0  0  0  0  0  0  0  0
  140.3110   69.4270  228.2470 C   0  0  0  0  0  0  0  0  0  0  0  0
  140.9410   70.6730  228.3450 C   0  0  0  0  0  0  0  0  0  0  0  0
  141.0610   71.4930  227.2250 C   0  0  0  0  0  0  0  0  0  0  0  0
  140.5530   71.0680  226.0170 C   0  0  0  0  0  0  0  0  0  0  0  0
  140.6830   71.8820  224.9520 N   0  0  0  0  0  0  0  0  0  0  0  0
  138.6240   73.4990  223.0900 H   0  0  0  0  0  0  0  0  0  0  0  0
  139.8785   73.7097  220.4325 H   0  0  0  0  0  0  0  0  0  0  0  0
  138.4845   74.7473  221.2408 H   0  0  0  0  0  0  0  0  0  0  0  0
  140.0478   75.1819  218.6938 H   0  0  0  0  0  0  0  0  0  0  0  0
  139.5780   76.8801  218.3721 H   0  0  0  0  0  0  0  0  0  0  0  0
  142.0242   75.4895  217.8280 H   0  0  0  0  0  0  0  0  0  0  0  0
  141.4403   77.1650  217.3419 H   0  0  0  0  0  0  0  0  0  0  0  0
  143.1056   76.3426  219.6967 H   0  0  0  0  0  0  0  0  0  0  0  0
  143.4369   77.5372  218.3470 H   0  0  0  0  0  0  0  0  0  0  0  0
  142.9164   78.4260  220.6586 H   0  0  0  0  0  0  0  0  0  0  0  0
  142.0531   79.0982  219.2053 H   0  0  0  0  0  0  0  0  0  0  0  0
  139.9056   78.3137  220.0500 H   0  0  0  0  0  0  0  0  0  0  0  0
  140.8539   79.5861  221.2141 H   0  0  0  0  0  0  0  0  0  0  0  0
  141.5137   78.0094  223.6310 H   0  0  0  0  0  0  0  0  0  0  0  0
  142.7369   78.2203  222.3706 H   0  0  0  0  0  0  0  0  0  0  0  0
  142.5943   80.1955  224.1150 H   0  0  0  0  0  0  0  0  0  0  0  0
  142.4675   80.7391  222.4510 H   0  0  0  0  0  0  0  0  0  0  0  0
  140.5701   81.2062  224.3976 H   0  0  0  0  0  0  0  0  0  0  0  0
  140.2073   81.1086  222.6039 H   0  0  0  0  0  0  0  0  0  0  0  0
  139.9509   78.8244  224.5640 H   0  0  0  0  0  0  0  0  0  0  0  0
  138.6023   79.8884  223.9651 H   0  0  0  0  0  0  0  0  0  0  0  0
  139.1982   77.5228  222.8075 H   0  0  0  0  0  0  0  0  0  0  0  0
  138.5649   78.8913  221.8830 H   0  0  0  0  0  0  0  0  0  0  0  0
  139.1897   70.0363  222.5580 H   0  0  0  0  0  0  0  0  0  0  0  0
  138.9274   68.4964  224.5267 H   0  0  0  0  0  0  0  0  0  0  0  0
  139.3109   68.0611  226.9103 H   0  0  0  0  0  0  0  0  0  0  0  0
  140.2131   68.7727  229.1258 H   0  0  0  0  0  0  0  0  0  0  0  0
  141.3440   71.0070  229.3125 H   0  0  0  0  0  0  0  0  0  0  0  0
  141.5572   72.4715  227.3046 H   0  0  0  0  0  0  0  0  0  0  0  0
  1  2  2  0
  2  3  1  0
  3  4  1  0
  4  5  1  0
  5  6  2  0
  5  7  1  0
  7  8  1  0
  8  9  1  0
  9 10  1  0
 10 11  1  0
 11 12  1  0
 12 13  1  0
 13 14  1  0
 14 15  1  0
 15 16  1  0
 16 17  1  0
 17 18  1  0
  2 19  1  0
 19 20  2  0
 20 21  1  0
 21 22  2  0
 22 23  1  0
 23 24  2  0
 24 25  1  0
 25 26  2  0
 26 27  1  0
 27 28  2  0
 12  7  1  0
 18 13  1  0
 28 19  1  0
 27 22  1  0
  3 29  1  0
  4 30  1  0
  4 31  1  0
  8 32  1  0
  8 33  1  0
  9 34  1  0
  9 35  1  0
 10 36  1  0
 10 37  1  0
 11 38  1  0
 11 39  1  0
 12 40  1  6
 13 41  1  0
 14 42  1  0
 14 43  1  0
 15 44  1  0
 15 45  1  0
 16 46  1  0
 16 47  1  0
 17 48  1  0
 17 49  1  0
 18 50  1  0
 18 51  1  0
 20 52  1  0
 21 53  1  0
 23 54  1  0
 24 55  1  0
 25 56  1  0
 26 57  1  0
M  END
>  <smiles>  (15) 
O=C(NCC(=O)N1CCCCC1C1CCCCC1)c1ccc2ccccc2n1

>  <score_type>  (15) 
oracle

>  <origin>  (15) 
autodockgpu

>  <m_score__min__energy>  (15) 
-9.3100000000000005

>  <m_primary>  (15) 
energy

>  <rmsd>  (15) 
1.6697336702207912

>  <m_score__min__rmsd>  (15) 
1.6697336702207912

>  <meeko>  (15) 
{"free_energy": -8.92, "intermolecular_energy": -10.42, "internal_energy": -1.39, "cluster_size": 31, "cluster_id": 2, "rank_in_cluster": 2}

>  <energy>  (15) 
-8.86

>  <cluster_rmsd>  (15) 
0.52

>  <cluster>  (15) 
2

$$$$

     RDKit          3D

 57 60  0  0  0  0  0  0  0  0999 V2000
  140.7170   71.5470  221.3080 O   0  0  0  0  0  0  0  0  0  0  0  0
  140.1850   72.0110  222.3480 C   0  0  0  0  0  0  0  0  0  0  0  0
  139.6030   73.3310  222.2010 N   0  0  0  0  0  0  0  0  0  0  0  0
  139.6180   74.0420  220.9960 C   0  0  0  0  0  0  0  0  0  0  0  0
  140.8200   74.3600  220.2460 C   0  0  0  0  0  0  0  0  0  0  0  0
  141.0270   73.5490  219.2450 O   0  0  0  0  0  0  0  0  0  0  0  0
  141.7990   75.3540  220.3840 N   0  0  0  0  0  0  0  0  0  0  0  0
  141.3990   76.7700  220.7150 C   0  0  0  0  0  0  0  0  0  0  0  0
  141.7950   77.6430  219.6050 C   0  0  0  0  0  0  0  0  0  0  0  0
  142.6380   76.9850  218.5440 C   0  0  0  0  0  0  0  0  0  0  0  0
  143.6990   76.1010  219.0720 C   0  0  0  0  0  0  0  0  0  0  0  0
  143.2090   75.2240  220.2420 C   0  0  2  0  0  0  0  0  0  0  0  0
  143.9700   73.9920  220.2440 C   0  0  0  0  0  0  0  0  0  0  0  0
  143.4650   72.7380  220.8400 C   0  0  0  0  0  0  0  0  0  0  0  0
  143.7770   71.6190  219.7980 C   0  0  0  0  0  0  0  0  0  0  0  0
  145.2300   71.8490  219.4520 C   0  0  0  0  0  0  0  0  0  0  0  0
  145.9860   72.6700  220.4680 C   0  0  0  0  0  0  0  0  0  0  0  0
  145.4450   74.0860  220.5940 C   0  0  0  0  0  0  0  0  0  0  0  0
  140.1440   71.3000  223.6210 C   0  0  0  0  0  0  0  0  0  0  0  0
  139.5870   70.0360  223.6070 C   0  0  0  0  0  0  0  0  0  0  0  0
  139.5450   69.3550  224.8180 C   0  0  0  0  0  0  0  0  0  0  0  0
  140.0470   69.9410  225.9680 C   0  0  0  0  0  0  0  0  0  0  0  0
  140.0290   69.3060  227.1940 C   0  0  0  0  0  0  0  0  0  0  0  0
  140.5380   69.9110  228.3460 C   0  0  0  0  0  0  0  0  0  0  0  0
  141.0780   71.1970  228.2340 C   0  0  0  0  0  0  0  0  0  0  0  0
  141.1020   71.8480  227.0020 C   0  0  0  0  0  0  0  0  0  0  0  0
  140.5890   71.2150  225.8920 C   0  0  0  0  0  0  0  0  0  0  0  0
  140.6240   71.8670  224.7150 N   0  0  0  0  0  0  0  0  0  0  0  0
  139.1690   73.6880  223.1090 H   0  0  0  0  0  0  0  0  0  0  0  0
  138.9813   73.4689  220.3060 H   0  0  0  0  0  0  0  0  0  0  0  0
  139.3237   75.0428  221.3451 H   0  0  0  0  0  0  0  0  0  0  0  0
  140.3095   76.8231  220.8570 H   0  0  0  0  0  0  0  0  0  0  0  0
  141.8967   77.0929  221.6413 H   0  0  0  0  0  0  0  0  0  0  0  0
  140.8800   78.0223  219.1266 H   0  0  0  0  0  0  0  0  0  0  0  0
  142.4194   78.4343  220.0453 H   0  0  0  0  0  0  0  0  0  0  0  0
  141.9769   76.3844  217.9020 H   0  0  0  0  0  0  0  0  0  0  0  0
  143.1448   77.7940  217.9974 H   0  0  0  0  0  0  0  0  0  0  0  0
  144.0473   75.4446  218.2609 H   0  0  0  0  0  0  0  0  0  0  0  0
  144.5096   76.7410  219.4507 H   0  0  0  0  0  0  0  0  0  0  0  0
  143.4407   75.5236  221.2747 H   0  0  0  0  0  0  0  0  0  0  0  0
  143.7928   73.8829  219.1639 H   0  0  0  0  0  0  0  0  0  0  0  0
  143.9788   72.5310  221.7904 H   0  0  0  0  0  0  0  0  0  0  0  0
  142.3891   72.7982  221.0609 H   0  0  0  0  0  0  0  0  0  0  0  0
  143.6314   70.6214  220.2379 H   0  0  0  0  0  0  0  0  0  0  0  0
  143.1173   71.6585  218.9187 H   0  0  0  0  0  0  0  0  0  0  0  0
  145.7229   70.8695  219.3645 H   0  0  0  0  0  0  0  0  0  0  0  0
  145.2443   72.4192  218.5114 H   0  0  0  0  0  0  0  0  0  0  0  0
  145.9103   72.1753  221.4476 H   0  0  0  0  0  0  0  0  0  0  0  0
  147.0301   72.7408  220.1293 H   0  0  0  0  0  0  0  0  0  0  0  0
  145.5730   74.4559  221.6220 H   0  0  0  0  0  0  0  0  0  0  0  0
  145.9768   74.7854  219.9321 H   0  0  0  0  0  0  0  0  0  0  0  0
  139.1952   69.5895  222.6812 H   0  0  0  0  0  0  0  0  0  0  0  0
  139.1108   68.3454  224.8631 H   0  0  0  0  0  0  0  0  0  0  0  0
  139.6017   68.2949  227.2658 H   0  0  0  0  0  0  0  0  0  0  0  0
  140.5148   69.3905  229.3148 H   0  0  0  0  0  0  0  0  0  0  0  0
  141.4863   71.6975  229.1244 H   0  0  0  0  0  0  0  0  0  0  0  0
  141.5272   72.8590  226.9170 H   0  0  0  0  0  0  0  0  0  0  0  0
  1  2  2  0
  2  3  1  0
  3  4  1  0
  4  5  1  0
  5  6  2  0
  5  7  1  0
  7  8  1  0
  8  9  1  0
  9 10  1  0
 10 11  1  0
 11 12  1  0
 12 13  1  0
 13 14  1  0
 14 15  1  0
 15 16  1  0
 16 17  1  0
 17 18  1  0
  2 19  1  0
 19 20  2  0
 20 21  1  0
 21 22  2  0
 22 23  1  0
 23 24  2  0
 24 25  1  0
 25 26  2  0
 26 27  1  0
 27 28  2  0
 12  7  1  0
 18 13  1  0
 28 19  1  0
 27 22  1  0
  3 29  1  0
  4 30  1  0
  4 31  1  0
  8 32  1  0
  8 33  1  0
  9 34  1  0
  9 35  1  0
 10 36  1  0
 10 37  1  0
 11 38  1  0
 11 39  1  0
 12 40  1  1
 13 41  1  0
 14 42  1  0
 14 43  1  0
 15 44  1  0
 15 45  1  0
 16 46  1  0
 16 47  1  0
 17 48  1  0
 17 49  1  0
 18 50  1  0
 18 51  1  0
 20 52  1  0
 21 53  1  0
 23 54  1  0
 24 55  1  0
 25 56  1  0
 26 57  1  0
M  END
>  <smiles>  (16) 
O=C(NCC(=O)N1CCCCC1C1CCCCC1)c1ccc2ccccc2n1

>  <score_type>  (16) 
oracle

>  <origin>  (16) 
autodockgpu

>  <m_score__min__energy>  (16) 
-9.3100000000000005

>  <m_primary>  (16) 
energy

>  <rmsd>  (16) 
2.3576739645713958

>  <m_score__min__rmsd>  (16) 
2.3576739645713958

>  <meeko>  (16) 
{"free_energy": -8.6, "intermolecular_energy": -10.1, "internal_energy": -1.76, "cluster_size": 31, "cluster_id": 2, "rank_in_cluster": 14}

>  <energy>  (16) 
-8.81

>  <cluster_rmsd>  (16) 
1.61

>  <cluster>  (16) 
2

$$$$

     RDKit          3D

 57 60  0  0  0  0  0  0  0  0999 V2000
  140.6330   71.6370  221.3330 O   0  0  0  0  0  0  0  0  0  0  0  0
  140.1480   72.0860  222.4010 C   0  0  0  0  0  0  0  0  0  0  0  0
  139.6090   73.4290  222.3120 N   0  0  0  0  0  0  0  0  0  0  0  0
  139.6150   74.1770  221.1290 C   0  0  0  0  0  0  0  0  0  0  0  0
  140.8100   74.5010  220.3700 C   0  0  0  0  0  0  0  0  0  0  0  0
  141.0800   73.6220  219.4440 O   0  0  0  0  0  0  0  0  0  0  0  0
  141.7260   75.5600  220.4350 N   0  0  0  0  0  0  0  0  0  0  0  0
  141.2910   76.9090  220.9510 C   0  0  0  0  0  0  0  0  0  0  0  0
  141.4310   77.8930  219.8750 C   0  0  0  0  0  0  0  0  0  0  0  0
  142.1260   77.3910  218.6350 C   0  0  0  0  0  0  0  0  0  0  0  0
  143.3200   76.5610  218.9030 C   0  0  0  0  0  0  0  0  0  0  0  0
  143.0980   75.5590  220.0530 C   0  0  2  0  0  0  0  0  0  0  0  0
  143.9310   74.3980  219.8210 C   0  0  0  0  0  0  0  0  0  0  0  0
  145.2250   74.1890  220.5030 C   0  0  0  0  0  0  0  0  0  0  0  0
  145.2180   72.7010  220.9740 C   0  0  0  0  0  0  0  0  0  0  0  0
  144.7960   71.9380  219.7390 C   0  0  0  0  0  0  0  0  0  0  0  0
  144.9770   72.6990  218.4490 C   0  0  0  0  0  0  0  0  0  0  0  0
  144.1110   73.9480  218.3820 C   0  0  0  0  0  0  0  0  0  0  0  0
  140.1170   71.3360  223.6520 C   0  0  0  0  0  0  0  0  0  0  0  0
  139.5910   70.0610  223.5980 C   0  0  0  0  0  0  0  0  0  0  0  0
  139.5600   69.3430  224.7880 C   0  0  0  0  0  0  0  0  0  0  0  0
  140.0400   69.9070  225.9580 C   0  0  0  0  0  0  0  0  0  0  0  0
  140.0310   69.2360  227.1650 C   0  0  0  0  0  0  0  0  0  0  0  0
  140.5200   69.8190  228.3360 C   0  0  0  0  0  0  0  0  0  0  0  0
  141.0290   71.1200  228.2660 C   0  0  0  0  0  0  0  0  0  0  0  0
  141.0430   71.8080  227.0540 C   0  0  0  0  0  0  0  0  0  0  0  0
  140.5520   71.1950  225.9220 C   0  0  0  0  0  0  0  0  0  0  0  0
  140.5770   71.8830  224.7650 N   0  0  0  0  0  0  0  0  0  0  0  0
  139.2140   73.7720  223.2430 H   0  0  0  0  0  0  0  0  0  0  0  0
  138.9593   73.6346  220.4320 H   0  0  0  0  0  0  0  0  0  0  0  0
  139.3403   75.1705  221.5131 H   0  0  0  0  0  0  0  0  0  0  0  0
  140.2404   76.8604  221.2733 H   0  0  0  0  0  0  0  0  0  0  0  0
  141.9157   77.2007  221.8081 H   0  0  0  0  0  0  0  0  0  0  0  0
  140.4239   78.2299  219.5883 H   0  0  0  0  0  0  0  0  0  0  0  0
  142.0646   78.6975  220.2765 H   0  0  0  0  0  0  0  0  0  0  0  0
  141.4093   76.7881  218.0580 H   0  0  0  0  0  0  0  0  0  0  0  0
  142.4748   78.2787  218.0870 H   0  0  0  0  0  0  0  0  0  0  0  0
  143.5716   76.0004  217.9906 H   0  0  0  0  0  0  0  0  0  0  0  0
  144.1355   77.2362  219.2015 H   0  0  0  0  0  0  0  0  0  0  0  0
  143.4815   75.7967  221.0562 H   0  0  0  0  0  0  0  0  0  0  0  0
  143.2151   73.7756  220.3779 H   0  0  0  0  0  0  0  0  0  0  0  0
  146.0584   74.3674  219.8076 H   0  0  0  0  0  0  0  0  0  0  0  0
  145.3557   74.8818  221.3474 H   0  0  0  0  0  0  0  0  0  0  0  0
  146.2197   72.3893  221.3048 H   0  0  0  0  0  0  0  0  0  0  0  0
  144.5512   72.5277  221.8315 H   0  0  0  0  0  0  0  0  0  0  0  0
  145.3935   71.0162  219.6823 H   0  0  0  0  0  0  0  0  0  0  0  0
  143.7184   71.7423  219.8416 H   0  0  0  0  0  0  0  0  0  0  0  0
  146.0323   72.9964  218.3602 H   0  0  0  0  0  0  0  0  0  0  0  0
  144.6723   72.0368  217.6252 H   0  0  0  0  0  0  0  0  0  0  0  0
  144.6120   74.7315  217.7945 H   0  0  0  0  0  0  0  0  0  0  0  0
  143.1455   73.7481  217.8944 H   0  0  0  0  0  0  0  0  0  0  0  0
  139.2140   69.6331  222.6574 H   0  0  0  0  0  0  0  0  0  0  0  0
  139.1520   68.3215  224.8002 H   0  0  0  0  0  0  0  0  0  0  0  0
  139.6273   68.2135  227.2052 H   0  0  0  0  0  0  0  0  0  0  0  0
  140.5053   69.2694  229.2887 H   0  0  0  0  0  0  0  0  0  0  0  0
  141.4207   71.6032  229.1733 H   0  0  0  0  0  0  0  0  0  0  0  0
  141.4426   72.8315  227.0017 H   0  0  0  0  0  0  0  0  0  0  0  0
  1  2  2  0
  2  3  1  0
  3  4  1  0
  4  5  1  0
  5  6  2  0
  5  7  1  0
  7  8  1  0
  8  9  1  0
  9 10  1  0
 10 11  1  0
 11 12  1  0
 12 13  1  0
 13 14  1  0
 14 15  1  0
 15 16  1  0
 16 17  1  0
 17 18  1  0
  2 19  1  0
 19 20  2  0
 20 21  1  0
 21 22  2  0
 22 23  1  0
 23 24  2  0
 24 25  1  0
 25 26  2  0
 26 27  1  0
 27 28  2  0
 12  7  1  0
 18 13  1  0
 28 19  1  0
 27 22  1  0
  3 29  1  0
  4 30  1  0
  4 31  1  0
  8 32  1  0
  8 33  1  0
  9 34  1  0
  9 35  1  0
 10 36  1  0
 10 37  1  0
 11 38  1  0
 11 39  1  0
 12 40  1  1
 13 41  1  0
 14 42  1  0
 14 43  1  0
 15 44  1  0
 15 45  1  0
 16 46  1  0
 16 47  1  0
 17 48  1  0
 17 49  1  0
 18 50  1  0
 18 51  1  0
 20 52  1  0
 21 53  1  0
 23 54  1  0
 24 55  1  0
 25 56  1  0
 26 57  1  0
M  END
>  <smiles>  (17) 
O=C(NCC(=O)N1CCCCC1C1CCCCC1)c1ccc2ccccc2n1

>  <score_type>  (17) 
oracle

>  <origin>  (17) 
autodockgpu

>  <m_score__min__energy>  (17) 
-9.3100000000000005

>  <m_primary>  (17) 
energy

>  <rmsd>  (17) 
2.312251134932879

>  <m_score__min__rmsd>  (17) 
2.312251134932879

>  <meeko>  (17) 
{"free_energy": -8.45, "intermolecular_energy": -9.95, "internal_energy": -1.65, "cluster_size": 31, "cluster_id": 2, "rank_in_cluster": 21}

>  <energy>  (17) 
-8.79

>  <cluster_rmsd>  (17) 
1.64

>  <cluster>  (17) 
2

$$$$

     RDKit          3D

 57 60  0  0  0  0  0  0  0  0999 V2000
  140.9760   74.5090  221.0770 O   0  0  0  0  0  0  0  0  0  0  0  0
  140.0970   74.9440  221.8630 C   0  0  0  0  0  0  0  0  0  0  0  0
  139.1610   73.9480  222.3440 N   0  0  0  0  0  0  0  0  0  0  0  0
  139.2240   72.5990  221.9770 C   0  0  0  0  0  0  0  0  0  0  0  0
  139.8590   71.5620  222.7720 C   0  0  0  0  0  0  0  0  0  0  0  0
  140.9910   71.9430  223.2970 O   0  0  0  0  0  0  0  0  0  0  0  0
  139.5040   70.2420  223.0810 N   0  0  0  0  0  0  0  0  0  0  0  0
  139.1560   69.2720  221.9790 C   0  0  0  0  0  0  0  0  0  0  0  0
  137.7620   68.8520  222.1440 C   0  0  0  0  0  0  0  0  0  0  0  0
  137.1020   69.3100  223.4180 C   0  0  0  0  0  0  0  0  0  0  0  0
  137.9530   69.1870  224.6210 C   0  0  0  0  0  0  0  0  0  0  0  0
  139.4050   69.6370  224.3660 C   0  0  2  0  0  0  0  0  0  0  0  0
  139.9560   70.1430  225.6060 C   0  0  0  0  0  0  0  0  0  0  0  0
  141.3820   70.4980  225.7660 C   0  0  0  0  0  0  0  0  0  0  0  0
  141.3940   71.8750  226.4990 C   0  0  0  0  0  0  0  0  0  0  0  0
  140.4520   71.6680  227.6630 C   0  0  0  0  0  0  0  0  0  0  0  0
  140.2090   70.2210  228.0130 C   0  0  0  0  0  0  0  0  0  0  0  0
  139.5240   69.4570  226.8900 C   0  0  0  0  0  0  0  0  0  0  0  0
  140.0010   76.3400  222.2740 C   0  0  0  0  0  0  0  0  0  0  0  0
  138.7310   76.8750  222.3590 C   0  0  0  0  0  0  0  0  0  0  0  0
  138.6350   78.2060  222.7500 C   0  0  0  0  0  0  0  0  0  0  0  0
  139.7770   78.9350  223.0360 C   0  0  0  0  0  0  0  0  0  0  0  0
  139.7350   80.2580  223.4280 C   0  0  0  0  0  0  0  0  0  0  0  0
  140.8960   80.9810  223.7130 C   0  0  0  0  0  0  0  0  0  0  0  0
  142.1280   80.3280  223.5900 C   0  0  0  0  0  0  0  0  0  0  0  0
  142.1840   78.9930  223.1950 C   0  0  0  0  0  0  0  0  0  0  0  0
  141.0140   78.3180  222.9240 C   0  0  0  0  0  0  0  0  0  0  0  0
  141.0970   77.0290  222.5440 N   0  0  0  0  0  0  0  0  0  0  0  0
  138.4290   74.3620  223.0020 H   0  0  0  0  0  0  0  0  0  0  0  0
  138.1798   72.2773  221.8497 H   0  0  0  0  0  0  0  0  0  0  0  0
  139.9120   72.6512  221.1203 H   0  0  0  0  0  0  0  0  0  0  0  0
  139.2817   69.7615  221.0020 H   0  0  0  0  0  0  0  0  0  0  0  0
  139.8192   68.3958  222.0284 H   0  0  0  0  0  0  0  0  0  0  0  0
  137.1835   69.2517  221.2981 H   0  0  0  0  0  0  0  0  0  0  0  0
  137.7766   67.7529  222.1852 H   0  0  0  0  0  0  0  0  0  0  0  0
  136.8220   70.3672  223.3004 H   0  0  0  0  0  0  0  0  0  0  0  0
  136.2337   68.6537  223.5772 H   0  0  0  0  0  0  0  0  0  0  0  0
  137.5258   69.8103  225.4204 H   0  0  0  0  0  0  0  0  0  0  0  0
  137.9776   68.1247  224.9056 H   0  0  0  0  0  0  0  0  0  0  0  0
  140.1790   68.8782  224.1786 H   0  0  0  0  0  0  0  0  0  0  0  0
  139.4436   71.1020  225.4392 H   0  0  0  0  0  0  0  0  0  0  0  0
  141.9012   69.7382  226.3685 H   0  0  0  0  0  0  0  0  0  0  0  0
  141.8991   70.5494  224.7965 H   0  0  0  0  0  0  0  0  0  0  0  0
  142.4058   72.1228  226.8522 H   0  0  0  0  0  0  0  0  0  0  0  0
  141.0909   72.7079  225.8476 H   0  0  0  0  0  0  0  0  0  0  0  0
  140.8780   72.1692  228.5447 H   0  0  0  0  0  0  0  0  0  0  0  0
  139.4808   72.0874  227.3616 H   0  0  0  0  0  0  0  0  0  0  0  0
  141.1762   69.7425  228.2264 H   0  0  0  0  0  0  0  0  0  0  0  0
  139.5435   70.1962  228.8885 H   0  0  0  0  0  0  0  0  0  0  0  0
  139.8451   68.4049  226.8899 H   0  0  0  0  0  0  0  0  0  0  0  0
  138.4300   69.4596  227.0045 H   0  0  0  0  0  0  0  0  0  0  0  0
  137.8373   76.2766  222.1283 H   0  0  0  0  0  0  0  0  0  0  0  0
  137.6468   78.6822  222.8325 H   0  0  0  0  0  0  0  0  0  0  0  0
  138.7591   80.7574  223.5186 H   0  0  0  0  0  0  0  0  0  0  0  0
  140.8434   82.0344  224.0254 H   0  0  0  0  0  0  0  0  0  0  0  0
  143.0587   80.8728  223.8067 H   0  0  0  0  0  0  0  0  0  0  0  0
  143.1538   78.4825  223.1004 H   0  0  0  0  0  0  0  0  0  0  0  0
  1  2  2  0
  2  3  1  0
  3  4  1  0
  4  5  1  0
  5  6  2  0
  5  7  1  0
  7  8  1  0
  8  9  1  0
  9 10  1  0
 10 11  1  0
 11 12  1  0
 12 13  1  0
 13 14  1  0
 14 15  1  0
 15 16  1  0
 16 17  1  0
 17 18  1  0
  2 19  1  0
 19 20  2  0
 20 21  1  0
 21 22  2  0
 22 23  1  0
 23 24  2  0
 24 25  1  0
 25 26  2  0
 26 27  1  0
 27 28  2  0
 12  7  1  0
 18 13  1  0
 28 19  1  0
 27 22  1  0
  3 29  1  0
  4 30  1  0
  4 31  1  0
  8 32  1  0
  8 33  1  0
  9 34  1  0
  9 35  1  0
 10 36  1  0
 10 37  1  0
 11 38  1  0
 11 39  1  0
 12 40  1  6
 13 41  1  0
 14 42  1  0
 14 43  1  0
 15 44  1  0
 15 45  1  0
 16 46  1  0
 16 47  1  0
 17 48  1  0
 17 49  1  0
 18 50  1  0
 18 51  1  0
 20 52  1  0
 21 53  1  0
 23 54  1  0
 24 55  1  0
 25 56  1  0
 26 57  1  0
M  END
>  <smiles>  (18) 
O=C(NCC(=O)N1CCCCC1C1CCCCC1)c1ccc2ccccc2n1

>  <score_type>  (18) 
oracle

>  <origin>  (18) 
autodockgpu

>  <m_score__min__energy>  (18) 
-9.3100000000000005

>  <m_primary>  (18) 
energy

>  <rmsd>  (18) 
8.2591160849338

>  <m_score__min__rmsd>  (18) 
8.2591160849338

>  <meeko>  (18) 
{"free_energy": -9.13, "intermolecular_energy": -10.62, "internal_energy": -1.32, "cluster_size": 10, "cluster_id": 1, "rank_in_cluster": 3}

>  <energy>  (18) 
-8.78

>  <cluster_rmsd>  (18) 
0.96

>  <cluster>  (18) 
2

$$$$

     RDKit          3D

 57 60  0  0  0  0  0  0  0  0999 V2000
  140.7660   71.6160  221.3550 O   0  0  0  0  0  0  0  0  0  0  0  0
  140.3270   72.0960  222.4300 C   0  0  0  0  0  0  0  0  0  0  0  0
  139.9340   73.4890  222.3630 N   0  0  0  0  0  0  0  0  0  0  0  0
  140.0230   74.2530  221.1940 C   0  0  0  0  0  0  0  0  0  0  0  0
  140.4950   75.6260  221.1450 C   0  0  0  0  0  0  0  0  0  0  0  0
  140.9420   76.0530  222.2940 O   0  0  0  0  0  0  0  0  0  0  0  0
  140.5630   76.5770  220.1180 N   0  0  0  0  0  0  0  0  0  0  0  0
  140.2310   76.1870  218.6990 C   0  0  0  0  0  0  0  0  0  0  0  0
  141.4270   76.3640  217.8700 C   0  0  0  0  0  0  0  0  0  0  0  0
  142.5840   77.0440  218.5530 C   0  0  0  0  0  0  0  0  0  0  0  0
  142.2020   78.2090  219.3810 C   0  0  0  0  0  0  0  0  0  0  0  0
  140.9320   77.9490  220.2140 C   0  0  2  0  0  0  0  0  0  0  0  0
  141.0030   78.7430  221.4230 C   0  0  0  0  0  0  0  0  0  0  0  0
  139.8250   79.4080  222.0180 C   0  0  0  0  0  0  0  0  0  0  0  0
  139.8970   79.1060  223.5470 C   0  0  0  0  0  0  0  0  0  0  0  0
  141.3220   79.4540  223.9130 C   0  0  0  0  0  0  0  0  0  0  0  0
  142.0130   80.3560  222.9210 C   0  0  0  0  0  0  0  0  0  0  0  0
  142.1690   79.7080  221.5530 C   0  0  0  0  0  0  0  0  0  0  0  0
  140.2130   71.3320  223.6680 C   0  0  0  0  0  0  0  0  0  0  0  0
  139.6070   70.0950  223.5800 C   0  0  0  0  0  0  0  0  0  0  0  0
  139.4960   69.3650  224.7570 C   0  0  0  0  0  0  0  0  0  0  0  0
  139.9800   69.8800  225.9480 C   0  0  0  0  0  0  0  0  0  0  0  0
  139.8940   69.1940  227.1440 C   0  0  0  0  0  0  0  0  0  0  0  0
  140.3880   69.7270  228.3370 C   0  0  0  0  0  0  0  0  0  0  0  0
  140.9830   70.9930  228.3000 C   0  0  0  0  0  0  0  0  0  0  0  0
  141.0750   71.6950  227.1000 C   0  0  0  0  0  0  0  0  0  0  0  0
  140.5760   71.1310  225.9460 C   0  0  0  0  0  0  0  0  0  0  0  0
  140.6780   71.8320  224.8010 N   0  0  0  0  0  0  0  0  0  0  0  0
  139.5750   73.8560  223.2990 H   0  0  0  0  0  0  0  0  0  0  0  0
  140.6844   73.6882  220.5206 H   0  0  0  0  0  0  0  0  0  0  0  0
  138.9575   74.3942  220.9600 H   0  0  0  0  0  0  0  0  0  0  0  0
  139.9127   75.1345  218.6694 H   0  0  0  0  0  0  0  0  0  0  0  0
  139.4147   76.8185  218.3183 H   0  0  0  0  0  0  0  0  0  0  0  0
  141.7628   75.3699  217.5400 H   0  0  0  0  0  0  0  0  0  0  0  0
  141.1300   77.0240  217.0416 H   0  0  0  0  0  0  0  0  0  0  0  0
  143.0818   76.3084  219.2019 H   0  0  0  0  0  0  0  0  0  0  0  0
  143.2406   77.4248  217.7568 H   0  0  0  0  0  0  0  0  0  0  0  0
  143.0310   78.4427  220.0651 H   0  0  0  0  0  0  0  0  0  0  0  0
  141.9904   79.0475  218.7012 H   0  0  0  0  0  0  0  0  0  0  0  0
  139.9663   78.3366  219.8573 H   0  0  0  0  0  0  0  0  0  0  0  0
  141.1373   77.8258  222.0152 H   0  0  0  0  0  0  0  0  0  0  0  0
  139.8657   80.4926  221.8390 H   0  0  0  0  0  0  0  0  0  0  0  0
  138.8863   79.0428  221.5759 H   0  0  0  0  0  0  0  0  0  0  0  0
  139.1846   79.7317  224.1046 H   0  0  0  0  0  0  0  0  0  0  0  0
  139.6362   78.0652  223.7892 H   0  0  0  0  0  0  0  0  0  0  0  0
  141.3136   79.9586  224.8904 H   0  0  0  0  0  0  0  0  0  0  0  0
  141.8846   78.5089  223.9258 H   0  0  0  0  0  0  0  0  0  0  0  0
  141.4212   81.2765  222.8097 H   0  0  0  0  0  0  0  0  0  0  0  0
  143.0211   80.5669  223.3074 H   0  0  0  0  0  0  0  0  0  0  0  0
  142.1274   80.4696  220.7603 H   0  0  0  0  0  0  0  0  0  0  0  0
  143.1362   79.1935  221.4541 H   0  0  0  0  0  0  0  0  0  0  0  0
  139.2296   69.7054  222.6230 H   0  0  0  0  0  0  0  0  0  0  0  0
  139.0212   68.3728  224.7428 H   0  0  0  0  0  0  0  0  0  0  0  0
  139.4232   68.1999  227.1573 H   0  0  0  0  0  0  0  0  0  0  0  0
  140.3113   69.1665  229.2804 H   0  0  0  0  0  0  0  0  0  0  0  0
  141.3808   71.4369  229.2245 H   0  0  0  0  0  0  0  0  0  0  0  0
  141.5418   72.6907  227.0741 H   0  0  0  0  0  0  0  0  0  0  0  0
  1  2  2  0
  2  3  1  0
  3  4  1  0
  4  5  1  0
  5  6  2  0
  5  7  1  0
  7  8  1  0
  8  9  1  0
  9 10  1  0
 10 11  1  0
 11 12  1  0
 12 13  1  0
 13 14  1  0
 14 15  1  0
 15 16  1  0
 16 17  1  0
 17 18  1  0
  2 19  1  0
 19 20  2  0
 20 21  1  0
 21 22  2  0
 22 23  1  0
 23 24  2  0
 24 25  1  0
 25 26  2  0
 26 27  1  0
 27 28  2  0
 12  7  1  0
 18 13  1  0
 28 19  1  0
 27 22  1  0
  3 29  1  0
  4 30  1  0
  4 31  1  0
  8 32  1  0
  8 33  1  0
  9 34  1  0
  9 35  1  0
 10 36  1  0
 10 37  1  0
 11 38  1  0
 11 39  1  0
 12 40  1  6
 13 41  1  0
 14 42  1  0
 14 43  1  0
 15 44  1  0
 15 45  1  0
 16 46  1  0
 16 47  1  0
 17 48  1  0
 17 49  1  0
 18 50  1  0
 18 51  1  0
 20 52  1  0
 21 53  1  0
 23 54  1  0
 24 55  1  0
 25 56  1  0
 26 57  1  0
M  END
>  <smiles>  (19) 
O=C(NCC(=O)N1CCCCC1C1CCCCC1)c1ccc2ccccc2n1

>  <score_type>  (19) 
oracle

>  <origin>  (19) 
autodockgpu

>  <m_score__min__energy>  (19) 
-9.3100000000000005

>  <m_primary>  (19) 
energy

>  <rmsd>  (19) 
1.6155243150481062

>  <m_score__min__rmsd>  (19) 
1.6155243150481062

>  <meeko>  (19) 
{"free_energy": -8.64, "intermolecular_energy": -10.13, "internal_energy": -1.52, "cluster_size": 31, "cluster_id": 2, "rank_in_cluster": 12}

>  <energy>  (19) 
-8.73

>  <cluster_rmsd>  (19) 
1.71

>  <cluster>  (19) 
2

$$$$

     RDKit          3D

 57 60  0  0  0  0  0  0  0  0999 V2000
  141.3350   72.2330  221.7590 O   0  0  0  0  0  0  0  0  0  0  0  0
  140.4040   72.3790  222.5890 C   0  0  0  0  0  0  0  0  0  0  0  0
  139.5060   73.4830  222.3130 N   0  0  0  0  0  0  0  0  0  0  0  0
  139.6480   74.3260  221.2050 C   0  0  0  0  0  0  0  0  0  0  0  0
  140.2870   75.6300  221.2440 C   0  0  0  0  0  0  0  0  0  0  0  0
  140.7920   75.9170  222.4120 O   0  0  0  0  0  0  0  0  0  0  0  0
  140.4630   76.6370  220.2850 N   0  0  0  0  0  0  0  0  0  0  0  0
  140.2830   76.3280  218.8190 C   0  0  0  0  0  0  0  0  0  0  0  0
  141.5600   76.5430  218.1320 C   0  0  0  0  0  0  0  0  0  0  0  0
  142.6390   77.1770  218.9710 C   0  0  0  0  0  0  0  0  0  0  0  0
  142.1710   78.2970  219.8170 C   0  0  0  0  0  0  0  0  0  0  0  0
  140.8190   77.9990  220.4960 C   0  0  2  0  0  0  0  0  0  0  0  0
  140.7620   78.7240  221.7480 C   0  0  0  0  0  0  0  0  0  0  0  0
  141.8320   78.6550  222.7660 C   0  0  0  0  0  0  0  0  0  0  0  0
  142.0840   80.1290  223.2130 C   0  0  0  0  0  0  0  0  0  0  0  0
  140.6970   80.6570  223.4980 C   0  0  0  0  0  0  0  0  0  0  0  0
  139.6600   79.5850  223.7250 C   0  0  0  0  0  0  0  0  0  0  0  0
  139.4400   78.7180  222.4950 C   0  0  0  0  0  0  0  0  0  0  0  0
  140.2170   71.5190  223.7520 C   0  0  0  0  0  0  0  0  0  0  0  0
  139.5070   70.3510  223.5530 C   0  0  0  0  0  0  0  0  0  0  0  0
  139.3260   69.5300  224.6590 C   0  0  0  0  0  0  0  0  0  0  0  0
  139.8450   69.8910  225.8920 C   0  0  0  0  0  0  0  0  0  0  0  0
  139.6930   69.1100  227.0200 C   0  0  0  0  0  0  0  0  0  0  0  0
  140.2230   69.4880  228.2560 C   0  0  0  0  0  0  0  0  0  0  0  0
  140.9240   70.6970  228.3340 C   0  0  0  0  0  0  0  0  0  0  0  0
  141.0840   71.4940  227.2020 C   0  0  0  0  0  0  0  0  0  0  0  0
  140.5460   71.0820  226.0030 C   0  0  0  0  0  0  0  0  0  0  0  0
  140.7150   71.8720  224.9260 N   0  0  0  0  0  0  0  0  0  0  0  0
  138.7350   73.5730  223.0460 H   0  0  0  0  0  0  0  0  0  0  0  0
  140.2085   73.7434  220.4591 H   0  0  0  0  0  0  0  0  0  0  0  0
  138.6010   74.6154  221.0316 H   0  0  0  0  0  0  0  0  0  0  0  0
  139.9693   75.2807  218.6975 H   0  0  0  0  0  0  0  0  0  0  0  0
  139.5119   76.9848  218.3900 H   0  0  0  0  0  0  0  0  0  0  0  0
  141.9284   75.5666  217.7843 H   0  0  0  0  0  0  0  0  0  0  0  0
  141.3528   77.2497  217.3149 H   0  0  0  0  0  0  0  0  0  0  0  0
  143.0647   76.4036  219.6273 H   0  0  0  0  0  0  0  0  0  0  0  0
  143.3772   77.5966  218.2717 H   0  0  0  0  0  0  0  0  0  0  0  0
  142.9229   78.4882  220.5968 H   0  0  0  0  0  0  0  0  0  0  0  0
  142.0322   79.1726  219.1658 H   0  0  0  0  0  0  0  0  0  0  0  0
  139.8963   78.4119  220.0622 H   0  0  0  0  0  0  0  0  0  0  0  0
  140.9456   79.6651  221.2090 H   0  0  0  0  0  0  0  0  0  0  0  0
  141.5085   78.0445  223.6219 H   0  0  0  0  0  0  0  0  0  0  0  0
  142.7449   78.1902  222.3652 H   0  0  0  0  0  0  0  0  0  0  0  0
  142.7105   80.1636  224.1165 H   0  0  0  0  0  0  0  0  0  0  0  0
  142.6183   80.7198  222.4545 H   0  0  0  0  0  0  0  0  0  0  0  0
  140.7460   81.2855  224.3994 H   0  0  0  0  0  0  0  0  0  0  0  0
  140.3825   81.2158  222.6043 H   0  0  0  0  0  0  0  0  0  0  0  0
  139.9919   78.9431  224.5543 H   0  0  0  0  0  0  0  0  0  0  0  0
  138.7078   80.0847  223.9565 H   0  0  0  0  0  0  0  0  0  0  0  0
  139.1710   77.6933  222.7909 H   0  0  0  0  0  0  0  0  0  0  0  0
  138.6185   79.0991  221.8706 H   0  0  0  0  0  0  0  0  0  0  0  0
  139.1038   70.0835  222.5651 H   0  0  0  0  0  0  0  0  0  0  0  0
  138.7675   68.5880  224.5553 H   0  0  0  0  0  0  0  0  0  0  0  0
  139.1387   68.1630  226.9434 H   0  0  0  0  0  0  0  0  0  0  0  0
  140.0929   68.8524  229.1443 H   0  0  0  0  0  0  0  0  0  0  0  0
  141.3513   71.0201  229.2948 H   0  0  0  0  0  0  0  0  0  0  0  0
  141.6352   72.4438  227.2656 H   0  0  0  0  0  0  0  0  0  0  0  0
  1  2  2  0
  2  3  1  0
  3  4  1  0
  4  5  1  0
  5  6  2  0
  5  7  1  0
  7  8  1  0
  8  9  1  0
  9 10  1  0
 10 11  1  0
 11 12  1  0
 12 13  1  0
 13 14  1  0
 14 15  1  0
 15 16  1  0
 16 17  1  0
 17 18  1  0
  2 19  1  0
 19 20  2  0
 20 21  1  0
 21 22  2  0
 22 23  1  0
 23 24  2  0
 24 25  1  0
 25 26  2  0
 26 27  1  0
 27 28  2  0
 12  7  1  0
 18 13  1  0
 28 19  1  0
 27 22  1  0
  3 29  1  0
  4 30  1  0
  4 31  1  0
  8 32  1  0
  8 33  1  0
  9 34  1  0
  9 35  1  0
 10 36  1  0
 10 37  1  0
 11 38  1  0
 11 39  1  0
 12 40  1  6
 13 41  1  0
 14 42  1  0
 14 43  1  0
 15 44  1  0
 15 45  1  0
 16 46  1  0
 16 47  1  0
 17 48  1  0
 17 49  1  0
 18 50  1  0
 18 51  1  0
 20 52  1  0
 21 53  1  0
 23 54  1  0
 24 55  1  0
 25 56  1  0
 26 57  1  0
M  END
>  <smiles>  (20) 
O=C(NCC(=O)N1CCCCC1C1CCCCC1)c1ccc2ccccc2n1

>  <score_type>  (20) 
oracle

>  <origin>  (20) 
autodockgpu

>  <m_score__min__energy>  (20) 
-9.3100000000000005

>  <m_primary>  (20) 
energy

>  <rmsd>  (20) 
1.701115239172223

>  <m_score__min__rmsd>  (20) 
1.701115239172223

>  <meeko>  (20) 
{"free_energy": -8.9, "intermolecular_energy": -10.4, "internal_energy": -1.33, "cluster_size": 31, "cluster_id": 2, "rank_in_cluster": 3}

>  <energy>  (20) 
-8.66

>  <cluster_rmsd>  (20) 
0.99

>  <cluster>  (20) 
2

$$$$

     RDKit          3D

 57 60  0  0  0  0  0  0  0  0999 V2000
  141.4200   72.6290  221.6940 O   0  0  0  0  0  0  0  0  0  0  0  0
  140.4650   72.7020  222.5070 C   0  0  0  0  0  0  0  0  0  0  0  0
  139.6170   73.8680  222.3500 N   0  0  0  0  0  0  0  0  0  0  0  0
  139.8310   74.8410  221.3670 C   0  0  0  0  0  0  0  0  0  0  0  0
  139.5400   76.2540  221.5360 C   0  0  0  0  0  0  0  0  0  0  0  0
  140.1220   77.0060  220.6420 O   0  0  0  0  0  0  0  0  0  0  0  0
  138.7670   76.9670  222.4630 N   0  0  0  0  0  0  0  0  0  0  0  0
  137.5320   76.3410  223.0620 C   0  0  0  0  0  0  0  0  0  0  0  0
  136.3640   77.1340  222.6670 C   0  0  0  0  0  0  0  0  0  0  0  0
  136.6770   78.4260  221.9590 C   0  0  0  0  0  0  0  0  0  0  0  0
  137.7950   79.1890  222.5550 C   0  0  0  0  0  0  0  0  0  0  0  0
  138.9800   78.2870  222.9540 C   0  0  2  0  0  0  0  0  0  0  0  0
  140.2010   79.0590  222.8580 C   0  0  0  0  0  0  0  0  0  0  0  0
  140.5210   79.9160  221.6970 C   0  0  0  0  0  0  0  0  0  0  0  0
  141.0380   81.2610  222.2950 C   0  0  0  0  0  0  0  0  0  0  0  0
  142.0650   80.8270  223.3160 C   0  0  0  0  0  0  0  0  0  0  0  0
  142.5810   79.4230  223.1160 C   0  0  0  0  0  0  0  0  0  0  0  0
  141.4920   78.3730  223.2710 C   0  0  0  0  0  0  0  0  0  0  0  0
  140.2050   71.7070  223.5410 C   0  0  0  0  0  0  0  0  0  0  0  0
  139.4620   70.6040  223.1670 C   0  0  0  0  0  0  0  0  0  0  0  0
  139.2110   69.6540  224.1500 C   0  0  0  0  0  0  0  0  0  0  0  0
  139.6970   69.8310  225.4350 C   0  0  0  0  0  0  0  0  0  0  0  0
  139.4760   68.9160  226.4460 C   0  0  0  0  0  0  0  0  0  0  0  0
  139.9730   69.1090  227.7370 C   0  0  0  0  0  0  0  0  0  0  0  0
  140.7130   70.2680  227.9950 C   0  0  0  0  0  0  0  0  0  0  0  0
  140.9430   71.1980  226.9830 C   0  0  0  0  0  0  0  0  0  0  0  0
  140.4350   70.9680  225.7240 C   0  0  0  0  0  0  0  0  0  0  0  0
  140.6720   71.8840  224.7660 N   0  0  0  0  0  0  0  0  0  0  0  0
  138.8240   73.8930  223.0640 H   0  0  0  0  0  0  0  0  0  0  0  0
  140.9023   74.7859  221.1235 H   0  0  0  0  0  0  0  0  0  0  0  0
  139.0647   74.5601  220.6295 H   0  0  0  0  0  0  0  0  0  0  0  0
  137.4224   75.3110  222.6917 H   0  0  0  0  0  0  0  0  0  0  0  0
  137.6170   76.3197  224.1585 H   0  0  0  0  0  0  0  0  0  0  0  0
  135.7461   76.5191  221.9961 H   0  0  0  0  0  0  0  0  0  0  0  0
  135.8539   77.4129  223.6008 H   0  0  0  0  0  0  0  0  0  0  0  0
  136.9358   78.1935  220.9155 H   0  0  0  0  0  0  0  0  0  0  0  0
  135.7813   79.0586  222.0455 H   0  0  0  0  0  0  0  0  0  0  0  0
  138.1469   79.9296  221.8217 H   0  0  0  0  0  0  0  0  0  0  0  0
  137.4199   79.6714  223.4696 H   0  0  0  0  0  0  0  0  0  0  0  0
  139.0974   77.9863  224.0056 H   0  0  0  0  0  0  0  0  0  0  0  0
  139.8198   79.7515  223.6229 H   0  0  0  0  0  0  0  0  0  0  0  0
  141.2997   79.4473  221.0773 H   0  0  0  0  0  0  0  0  0  0  0  0
  139.6437   80.0693  221.0514 H   0  0  0  0  0  0  0  0  0  0  0  0
  141.4991   81.8854  221.5156 H   0  0  0  0  0  0  0  0  0  0  0  0
  140.2335   81.8709  222.7318 H   0  0  0  0  0  0  0  0  0  0  0  0
  142.9184   81.5190  223.2626 H   0  0  0  0  0  0  0  0  0  0  0  0
  141.5639   80.8432  224.2951 H   0  0  0  0  0  0  0  0  0  0  0  0
  143.0051   79.3442  222.1041 H   0  0  0  0  0  0  0  0  0  0  0  0
  143.3398   79.2332  223.8894 H   0  0  0  0  0  0  0  0  0  0  0  0
  141.6944   77.5108  222.6186 H   0  0  0  0  0  0  0  0  0  0  0  0
  141.4384   77.9913  224.3013 H   0  0  0  0  0  0  0  0  0  0  0  0
  139.0869   70.4833  222.1400 H   0  0  0  0  0  0  0  0  0  0  0  0
  138.6232   68.7567  223.9062 H   0  0  0  0  0  0  0  0  0  0  0  0
  138.8920   68.0096  226.2282 H   0  0  0  0  0  0  0  0  0  0  0  0
  139.7875   68.3694  228.5298 H   0  0  0  0  0  0  0  0  0  0  0  0
  141.1158   70.4462  229.0030 H   0  0  0  0  0  0  0  0  0  0  0  0
  141.5255   72.1083  227.1882 H   0  0  0  0  0  0  0  0  0  0  0  0
  1  2  2  0
  2  3  1  0
  3  4  1  0
  4  5  1  0
  5  6  2  0
  5  7  1  0
  7  8  1  0
  8  9  1  0
  9 10  1  0
 10 11  1  0
 11 12  1  0
 12 13  1  0
 13 14  1  0
 14 15  1  0
 15 16  1  0
 16 17  1  0
 17 18  1  0
  2 19  1  0
 19 20  2  0
 20 21  1  0
 21 22  2  0
 22 23  1  0
 23 24  2  0
 24 25  1  0
 25 26  2  0
 26 27  1  0
 27 28  2  0
 12  7  1  0
 18 13  1  0
 28 19  1  0
 27 22  1  0
  3 29  1  0
  4 30  1  0
  4 31  1  0
  8 32  1  0
  8 33  1  0
  9 34  1  0
  9 35  1  0
 10 36  1  0
 10 37  1  0
 11 38  1  0
 11 39  1  0
 12 40  1  1
 13 41  1  0
 14 42  1  0
 14 43  1  0
 15 44  1  0
 15 45  1  0
 16 46  1  0
 16 47  1  0
 17 48  1  0
 17 49  1  0
 18 50  1  0
 18 51  1  0
 20 52  1  0
 21 53  1  0
 23 54  1  0
 24 55  1  0
 25 56  1  0
 26 57  1  0
M  END
>  <smiles>  (21) 
O=C(NCC(=O)N1CCCCC1C1CCCCC1)c1ccc2ccccc2n1

>  <score_type>  (21) 
oracle

>  <origin>  (21) 
autodockgpu

>  <m_score__min__energy>  (21) 
-9.3100000000000005

>  <m_primary>  (21) 
energy

>  <rmsd>  (21) 
3.4943159006161286

>  <m_score__min__rmsd>  (21) 
3.4943159006161286

>  <meeko>  (21) 
{"free_energy": -8.73, "intermolecular_energy": -10.23, "internal_energy": -1.36, "cluster_size": 31, "cluster_id": 2, "rank_in_cluster": 9}

>  <energy>  (21) 
-8.65

>  <cluster_rmsd>  (21) 
1.06

>  <cluster>  (21) 
2

$$$$

     RDKit          3D

 57 60  0  0  0  0  0  0  0  0999 V2000
  138.7470   75.3640  222.1150 O   0  0  0  0  0  0  0  0  0  0  0  0
  139.8940   75.8700  222.1950 C   0  0  0  0  0  0  0  0  0  0  0  0
  140.9860   74.9580  221.9120 N   0  0  0  0  0  0  0  0  0  0  0  0
  140.7900   73.6160  221.5670 C   0  0  0  0  0  0  0  0  0  0  0  0
  141.5620   72.9070  220.5610 C   0  0  0  0  0  0  0  0  0  0  0  0
  141.0380   71.7590  220.2310 O   0  0  0  0  0  0  0  0  0  0  0  0
  142.7510   73.2070  219.8820 N   0  0  0  0  0  0  0  0  0  0  0  0
  143.7630   72.1220  219.6110 C   0  0  0  0  0  0  0  0  0  0  0  0
  145.0070   72.4510  220.3130 C   0  0  0  0  0  0  0  0  0  0  0  0
  145.0420   73.8190  220.9440 C   0  0  0  0  0  0  0  0  0  0  0  0
  144.4830   74.8940  220.0950 C   0  0  0  0  0  0  0  0  0  0  0  0
  143.1840   74.4680  219.3830 C   0  0  2  0  0  0  0  0  0  0  0  0
  142.3650   75.6440  219.1760 C   0  0  0  0  0  0  0  0  0  0  0  0
  141.6530   75.9140  217.9100 C   0  0  0  0  0  0  0  0  0  0  0  0
  140.2140   76.3560  218.3210 C   0  0  0  0  0  0  0  0  0  0  0  0
  140.4530   77.4070  219.3820 C   0  0  0  0  0  0  0  0  0  0  0  0
  141.8390   78.0010  219.3640 C   0  0  0  0  0  0  0  0  0  0  0  0
  142.9180   76.9720  219.6650 C   0  0  0  0  0  0  0  0  0  0  0  0
  140.1400   77.2640  222.5450 C   0  0  0  0  0  0  0  0  0  0  0  0
  139.0280   78.0570  222.7490 C   0  0  0  0  0  0  0  0  0  0  0  0
  139.2580   79.3870  223.0820 C   0  0  0  0  0  0  0  0  0  0  0  0
  140.5520   79.8660  223.1970 C   0  0  0  0  0  0  0  0  0  0  0  0
  140.8330   81.1770  223.5250 C   0  0  0  0  0  0  0  0  0  0  0  0
  142.1440   81.6450  223.6370 C   0  0  0  0  0  0  0  0  0  0  0  0
  143.1900   80.7450  223.4060 C   0  0  0  0  0  0  0  0  0  0  0  0
  142.9200   79.4190  223.0740 C   0  0  0  0  0  0  0  0  0  0  0  0
  141.6110   79.0000  222.9740 C   0  0  0  0  0  0  0  0  0  0  0  0
  141.3800   77.7130  222.6510 N   0  0  0  0  0  0  0  0  0  0  0  0
  141.9410   75.4280  221.9980 H   0  0  0  0  0  0  0  0  0  0  0  0
  140.9247   73.0476  222.4991 H   0  0  0  0  0  0  0  0  0  0  0  0
  139.8096   73.6725  221.0713 H   0  0  0  0  0  0  0  0  0  0  0  0
  143.3775   71.1578  219.9738 H   0  0  0  0  0  0  0  0  0  0  0  0
  143.9519   72.0484  218.5298 H   0  0  0  0  0  0  0  0  0  0  0  0
  145.1575   71.7053  221.1075 H   0  0  0  0  0  0  0  0  0  0  0  0
  145.8000   72.4448  219.5507 H   0  0  0  0  0  0  0  0  0  0  0  0
  144.4638   73.7823  221.8791 H   0  0  0  0  0  0  0  0  0  0  0  0
  146.1018   74.0644  221.1070 H   0  0  0  0  0  0  0  0  0  0  0  0
  144.2683   75.7677  220.7278 H   0  0  0  0  0  0  0  0  0  0  0  0
  145.2274   75.1293  219.3201 H   0  0  0  0  0  0  0  0  0  0  0  0
  143.2265   74.1494  218.3310 H   0  0  0  0  0  0  0  0  0  0  0  0
  141.5997   75.2258  219.8464 H   0  0  0  0  0  0  0  0  0  0  0  0
  142.1558   76.7168  217.3508 H   0  0  0  0  0  0  0  0  0  0  0  0
  141.6350   75.0286  217.2575 H   0  0  0  0  0  0  0  0  0  0  0  0
  139.6736   76.7809  217.4623 H   0  0  0  0  0  0  0  0  0  0  0  0
  139.5966   75.5194  218.6801 H   0  0  0  0  0  0  0  0  0  0  0  0
  139.7275   78.2200  219.2316 H   0  0  0  0  0  0  0  0  0  0  0  0
  140.3369   76.9060  220.3544 H   0  0  0  0  0  0  0  0  0  0  0  0
  142.0268   78.4279  218.3678 H   0  0  0  0  0  0  0  0  0  0  0  0
  141.8829   78.7705  220.1488 H   0  0  0  0  0  0  0  0  0  0  0  0
  143.8463   77.2215  219.1302 H   0  0  0  0  0  0  0  0  0  0  0  0
  143.1625   76.9408  220.7370 H   0  0  0  0  0  0  0  0  0  0  0  0
  138.0085   77.6553  222.6526 H   0  0  0  0  0  0  0  0  0  0  0  0
  138.4073   80.0625  223.2551 H   0  0  0  0  0  0  0  0  0  0  0  0
  140.0003   81.8732  223.7033 H   0  0  0  0  0  0  0  0  0  0  0  0
  142.3488   82.6933  223.8998 H   0  0  0  0  0  0  0  0  0  0  0  0
  144.2325   81.0865  223.4870 H   0  0  0  0  0  0  0  0  0  0  0  0
  143.7441   78.7131  222.8934 H   0  0  0  0  0  0  0  0  0  0  0  0
  1  2  2  0
  2  3  1  0
  3  4  1  0
  4  5  1  0
  5  6  2  0
  5  7  1  0
  7  8  1  0
  8  9  1  0
  9 10  1  0
 10 11  1  0
 11 12  1  0
 12 13  1  0
 13 14  1  0
 14 15  1  0
 15 16  1  0
 16 17  1  0
 17 18  1  0
  2 19  1  0
 19 20  2  0
 20 21  1  0
 21 22  2  0
 22 23  1  0
 23 24  2  0
 24 25  1  0
 25 26  2  0
 26 27  1  0
 27 28  2  0
 12  7  1  0
 18 13  1  0
 28 19  1  0
 27 22  1  0
  3 29  1  0
  4 30  1  0
  4 31  1  0
  8 32  1  0
  8 33  1  0
  9 34  1  0
  9 35  1  0
 10 36  1  0
 10 37  1  0
 11 38  1  0
 11 39  1  0
 12 40  1  6
 13 41  1  0
 14 42  1  0
 14 43  1  0
 15 44  1  0
 15 45  1  0
 16 46  1  0
 16 47  1  0
 17 48  1  0
 17 49  1  0
 18 50  1  0
 18 51  1  0
 20 52  1  0
 21 53  1  0
 23 54  1  0
 24 55  1  0
 25 56  1  0
 26 57  1  0
M  END
>  <smiles>  (22) 
O=C(NCC(=O)N1CCCCC1C1CCCCC1)c1ccc2ccccc2n1

>  <score_type>  (22) 
oracle

>  <origin>  (22) 
autodockgpu

>  <m_score__min__energy>  (22) 
-9.3100000000000005

>  <m_primary>  (22) 
energy

>  <rmsd>  (22) 
7.654728949424989

>  <m_score__min__rmsd>  (22) 
7.654728949424989

>  <meeko>  (22) 
{"free_energy": -6.93, "intermolecular_energy": -8.42, "internal_energy": -2.96, "cluster_size": 3, "cluster_id": 5, "rank_in_cluster": 2}

>  <energy>  (22) 
-8.64

>  <cluster_rmsd>  (22) 
0.85

>  <cluster>  (22) 
2

$$$$

     RDKit          3D

 57 60  0  0  0  0  0  0  0  0999 V2000
  140.8580   73.5740  220.5080 O   0  0  0  0  0  0  0  0  0  0  0  0
  140.4610   74.4300  221.3380 C   0  0  0  0  0  0  0  0  0  0  0  0
  139.4980   73.9440  222.3060 N   0  0  0  0  0  0  0  0  0  0  0  0
  139.0410   72.6210  222.3310 C   0  0  0  0  0  0  0  0  0  0  0  0
  139.8420   71.4860  222.7540 C   0  0  0  0  0  0  0  0  0  0  0  0
  141.1140   71.7620  222.8390 O   0  0  0  0  0  0  0  0  0  0  0  0
  139.5230   70.1610  223.0820 N   0  0  0  0  0  0  0  0  0  0  0  0
  139.1540   69.1790  221.9980 C   0  0  0  0  0  0  0  0  0  0  0  0
  137.7750   68.7330  222.2150 C   0  0  0  0  0  0  0  0  0  0  0  0
  137.1530   69.1860  223.5100 C   0  0  0  0  0  0  0  0  0  0  0  0
  138.0500   69.0840  224.6820 C   0  0  0  0  0  0  0  0  0  0  0  0
  139.4820   69.5600  224.3720 C   0  0  2  0  0  0  0  0  0  0  0  0
  140.0680   70.0840  225.5890 C   0  0  0  0  0  0  0  0  0  0  0  0
  141.4720   70.5390  225.6740 C   0  0  0  0  0  0  0  0  0  0  0  0
  141.4280   71.9000  226.4350 C   0  0  0  0  0  0  0  0  0  0  0  0
  140.5750   71.6050  227.6470 C   0  0  0  0  0  0  0  0  0  0  0  0
  140.4570   70.1380  227.9780 C   0  0  0  0  0  0  0  0  0  0  0  0
  139.7630   69.3460  226.8810 C   0  0  0  0  0  0  0  0  0  0  0  0
  140.9170   75.8160  221.3490 C   0  0  0  0  0  0  0  0  0  0  0  0
  141.6540   76.2350  220.2590 C   0  0  0  0  0  0  0  0  0  0  0  0
  142.0910   77.5540  220.2660 C   0  0  0  0  0  0  0  0  0  0  0  0
  141.7860   78.3870  221.3300 C   0  0  0  0  0  0  0  0  0  0  0  0
  142.1960   79.7040  221.3840 C   0  0  0  0  0  0  0  0  0  0  0  0
  141.8800   80.5310  222.4650 C   0  0  0  0  0  0  0  0  0  0  0  0
  141.1260   79.9920  223.5130 C   0  0  0  0  0  0  0  0  0  0  0  0
  140.7070   78.6640  223.4700 C   0  0  0  0  0  0  0  0  0  0  0  0
  141.0400   77.8830  222.3850 C   0  0  0  0  0  0  0  0  0  0  0  0
  140.6220   76.6040  222.3700 N   0  0  0  0  0  0  0  0  0  0  0  0
  139.1840   74.7050  222.9850 H   0  0  0  0  0  0  0  0  0  0  0  0
  138.1598   72.6240  222.9894 H   0  0  0  0  0  0  0  0  0  0  0  0
  138.9460   72.4159  221.2545 H   0  0  0  0  0  0  0  0  0  0  0  0
  139.2349   69.6658  221.0149 H   0  0  0  0  0  0  0  0  0  0  0  0
  139.8353   68.3159  222.0276 H   0  0  0  0  0  0  0  0  0  0  0  0
  137.1588   69.1166  221.3885 H   0  0  0  0  0  0  0  0  0  0  0  0
  137.8120   67.6346  222.2608 H   0  0  0  0  0  0  0  0  0  0  0  0
  136.8501   70.2375  223.3979 H   0  0  0  0  0  0  0  0  0  0  0  0
  136.3026   68.5157  223.7036 H   0  0  0  0  0  0  0  0  0  0  0  0
  137.6407   69.7025  225.4944 H   0  0  0  0  0  0  0  0  0  0  0  0
  138.1051   68.0237  224.9695 H   0  0  0  0  0  0  0  0  0  0  0  0
  140.2618   68.8138  224.1596 H   0  0  0  0  0  0  0  0  0  0  0  0
  139.4796   71.0061  225.4726 H   0  0  0  0  0  0  0  0  0  0  0  0
  142.0792   69.8086  226.2288 H   0  0  0  0  0  0  0  0  0  0  0  0
  141.9260   70.6449  224.6777 H   0  0  0  0  0  0  0  0  0  0  0  0
  142.4386   72.2152  226.7338 H   0  0  0  0  0  0  0  0  0  0  0  0
  141.0268   72.7194  225.8204 H   0  0  0  0  0  0  0  0  0  0  0  0
  141.0166   72.1196  228.5131 H   0  0  0  0  0  0  0  0  0  0  0  0
  139.5601   71.9588  227.4129 H   0  0  0  0  0  0  0  0  0  0  0  0
  141.4669   69.7273  228.1242 H   0  0  0  0  0  0  0  0  0  0  0  0
  139.8478   70.0497  228.8896 H   0  0  0  0  0  0  0  0  0  0  0  0
  140.1578   68.3201  226.8396 H   0  0  0  0  0  0  0  0  0  0  0  0
  138.6803   69.2670  227.0588 H   0  0  0  0  0  0  0  0  0  0  0  0
  141.8843   75.5565  219.4244 H   0  0  0  0  0  0  0  0  0  0  0  0
  142.6824   77.9388  219.4221 H   0  0  0  0  0  0  0  0  0  0  0  0
  142.7882   80.1140  220.5526 H   0  0  0  0  0  0  0  0  0  0  0  0
  142.2153   81.5783  222.4913 H   0  0  0  0  0  0  0  0  0  0  0  0
  140.8624   80.6206  224.3763 H   0  0  0  0  0  0  0  0  0  0  0  0
  140.1150   78.2424  224.2957 H   0  0  0  0  0  0  0  0  0  0  0  0
  1  2  2  0
  2  3  1  0
  3  4  1  0
  4  5  1  0
  5  6  2  0
  5  7  1  0
  7  8  1  0
  8  9  1  0
  9 10  1  0
 10 11  1  0
 11 12  1  0
 12 13  1  0
 13 14  1  0
 14 15  1  0
 15 16  1  0
 16 17  1  0
 17 18  1  0
  2 19  1  0
 19 20  2  0
 20 21  1  0
 21 22  2  0
 22 23  1  0
 23 24  2  0
 24 25  1  0
 25 26  2  0
 26 27  1  0
 27 28  2  0
 12  7  1  0
 18 13  1  0
 28 19  1  0
 27 22  1  0
  3 29  1  0
  4 30  1  0
  4 31  1  0
  8 32  1  0
  8 33  1  0
  9 34  1  0
  9 35  1  0
 10 36  1  0
 10 37  1  0
 11 38  1  0
 11 39  1  0
 12 40  1  6
 13 41  1  0
 14 42  1  0
 14 43  1  0
 15 44  1  0
 15 45  1  0
 16 46  1  0
 16 47  1  0
 17 48  1  0
 17 49  1  0
 18 50  1  0
 18 51  1  0
 20 52  1  0
 21 53  1  0
 23 54  1  0
 24 55  1  0
 25 56  1  0
 26 57  1  0
M  END
>  <smiles>  (23) 
O=C(NCC(=O)N1CCCCC1C1CCCCC1)c1ccc2ccccc2n1

>  <score_type>  (23) 
oracle

>  <origin>  (23) 
autodockgpu

>  <m_score__min__energy>  (23) 
-9.3100000000000005

>  <m_primary>  (23) 
energy

>  <rmsd>  (23) 
8.334432525050104

>  <m_score__min__rmsd>  (23) 
8.334432525050104

>  <meeko>  (23) 
{"free_energy": -8.74, "intermolecular_energy": -10.24, "internal_energy": -1.74, "cluster_size": 10, "cluster_id": 1, "rank_in_cluster": 10}

>  <energy>  (23) 
-8.63

>  <cluster_rmsd>  (23) 
0.82

>  <cluster>  (23) 
2

$$$$

     RDKit          3D

 57 60  0  0  0  0  0  0  0  0999 V2000
  139.6620   71.0880  221.4450 O   0  0  0  0  0  0  0  0  0  0  0  0
  139.7520   71.5650  222.6040 C   0  0  0  0  0  0  0  0  0  0  0  0
  139.8080   73.0120  222.6670 N   0  0  0  0  0  0  0  0  0  0  0  0
  139.7590   73.8290  221.5320 C   0  0  0  0  0  0  0  0  0  0  0  0
  140.0190   75.2580  221.5390 C   0  0  0  0  0  0  0  0  0  0  0  0
  139.9000   75.7930  222.7230 O   0  0  0  0  0  0  0  0  0  0  0  0
  140.3650   76.1710  220.5330 N   0  0  0  0  0  0  0  0  0  0  0  0
  140.3460   75.7480  219.0860 C   0  0  0  0  0  0  0  0  0  0  0  0
  141.7060   75.8470  218.5480 C   0  0  0  0  0  0  0  0  0  0  0  0
  142.7090   76.4990  219.4620 C   0  0  0  0  0  0  0  0  0  0  0  0
  142.2060   77.7060  220.1540 C   0  0  0  0  0  0  0  0  0  0  0  0
  140.7680   77.5290  220.6800 C   0  0  2  0  0  0  0  0  0  0  0  0
  140.6020   78.3580  221.8550 C   0  0  0  0  0  0  0  0  0  0  0  0
  141.4440   78.2220  223.0620 C   0  0  0  0  0  0  0  0  0  0  0  0
  141.8430   79.6750  223.4650 C   0  0  0  0  0  0  0  0  0  0  0  0
  140.5290   80.4230  223.4480 C   0  0  0  0  0  0  0  0  0  0  0  0
  139.3110   79.5370  223.5320 C   0  0  0  0  0  0  0  0  0  0  0  0
  139.1820   78.6090  222.3340 C   0  0  0  0  0  0  0  0  0  0  0  0
  139.8000   70.7480  223.8120 C   0  0  0  0  0  0  0  0  0  0  0  0
  139.2540   69.4830  223.7270 C   0  0  0  0  0  0  0  0  0  0  0  0
  139.2970   68.7020  224.8770 C   0  0  0  0  0  0  0  0  0  0  0  0
  139.8670   69.1970  226.0380 C   0  0  0  0  0  0  0  0  0  0  0  0
  139.9350   68.4610  227.2050 C   0  0  0  0  0  0  0  0  0  0  0  0
  140.5140   68.9750  228.3680 C   0  0  0  0  0  0  0  0  0  0  0  0
  141.0350   70.2730  228.3300 C   0  0  0  0  0  0  0  0  0  0  0  0
  140.9720   71.0250  227.1590 C   0  0  0  0  0  0  0  0  0  0  0  0
  140.3930   70.4800  226.0340 C   0  0  0  0  0  0  0  0  0  0  0  0
  140.3460   71.2290  224.9170 N   0  0  0  0  0  0  0  0  0  0  0  0
  139.8900   73.3720  223.6690 H   0  0  0  0  0  0  0  0  0  0  0  0
  140.4846   73.3991  220.8258 H   0  0  0  0  0  0  0  0  0  0  0  0
  138.6802   73.8176  221.3173 H   0  0  0  0  0  0  0  0  0  0  0  0
  139.9924   74.7092  219.0089 H   0  0  0  0  0  0  0  0  0  0  0  0
  139.6691   76.4000  218.5144 H   0  0  0  0  0  0  0  0  0  0  0  0
  142.0592   74.8293  218.3253 H   0  0  0  0  0  0  0  0  0  0  0  0
  141.6374   76.4915  217.6593 H   0  0  0  0  0  0  0  0  0  0  0  0
  143.0093   75.7647  220.2240 H   0  0  0  0  0  0  0  0  0  0  0  0
  143.5476   76.8247  218.8291 H   0  0  0  0  0  0  0  0  0  0  0  0
  142.8679   77.9266  221.0044 H   0  0  0  0  0  0  0  0  0  0  0  0
  142.1960   78.5295  219.4248 H   0  0  0  0  0  0  0  0  0  0  0  0
  139.9287   77.9461  220.1042 H   0  0  0  0  0  0  0  0  0  0  0  0
  141.0293   79.2113  221.3080 H   0  0  0  0  0  0  0  0  0  0  0  0
  140.8771   77.7412  223.8728 H   0  0  0  0  0  0  0  0  0  0  0  0
  142.3285   77.5965  222.8713 H   0  0  0  0  0  0  0  0  0  0  0  0
  142.2930   79.6946  224.4686 H   0  0  0  0  0  0  0  0  0  0  0  0
  142.5933   80.1143  222.7912 H   0  0  0  0  0  0  0  0  0  0  0  0
  140.5136   81.1125  224.3050 H   0  0  0  0  0  0  0  0  0  0  0  0
  140.4746   80.9436  222.4805 H   0  0  0  0  0  0  0  0  0  0  0  0
  139.3807   78.9271  224.4448 H   0  0  0  0  0  0  0  0  0  0  0  0
  138.4245   80.1881  223.5473 H   0  0  0  0  0  0  0  0  0  0  0  0
  138.7043   77.6636  222.6306 H   0  0  0  0  0  0  0  0  0  0  0  0
  138.5583   79.0508  221.5429 H   0  0  0  0  0  0  0  0  0  0  0  0
  138.8061   69.1104  222.7940 H   0  0  0  0  0  0  0  0  0  0  0  0
  138.8760   67.6858  224.8643 H   0  0  0  0  0  0  0  0  0  0  0  0
  139.5217   67.4417  227.2190 H   0  0  0  0  0  0  0  0  0  0  0  0
  140.5591   68.3752  229.2890 H   0  0  0  0  0  0  0  0  0  0  0  0
  141.4975   70.7026  229.2309 H   0  0  0  0  0  0  0  0  0  0  0  0
  141.3813   72.0457  227.1329 H   0  0  0  0  0  0  0  0  0  0  0  0
  1  2  2  0
  2  3  1  0
  3  4  1  0
  4  5  1  0
  5  6  2  0
  5  7  1  0
  7  8  1  0
  8  9  1  0
  9 10  1  0
 10 11  1  0
 11 12  1  0
 12 13  1  0
 13 14  1  0
 14 15  1  0
 15 16  1  0
 16 17  1  0
 17 18  1  0
  2 19  1  0
 19 20  2  0
 20 21  1  0
 21 22  2  0
 22 23  1  0
 23 24  2  0
 24 25  1  0
 25 26  2  0
 26 27  1  0
 27 28  2  0
 12  7  1  0
 18 13  1  0
 28 19  1  0
 27 22  1  0
  3 29  1  0
  4 30  1  0
  4 31  1  0
  8 32  1  0
  8 33  1  0
  9 34  1  0
  9 35  1  0
 10 36  1  0
 10 37  1  0
 11 38  1  0
 11 39  1  0
 12 40  1  6
 13 41  1  0
 14 42  1  0
 14 43  1  0
 15 44  1  0
 15 45  1  0
 16 46  1  0
 16 47  1  0
 17 48  1  0
 17 49  1  0
 18 50  1  0
 18 51  1  0
 20 52  1  0
 21 53  1  0
 23 54  1  0
 24 55  1  0
 25 56  1  0
 26 57  1  0
M  END
>  <smiles>  (24) 
O=C(NCC(=O)N1CCCCC1C1CCCCC1)c1ccc2ccccc2n1

>  <score_type>  (24) 
oracle

>  <origin>  (24) 
autodockgpu

>  <m_score__min__energy>  (24) 
-9.3100000000000005

>  <m_primary>  (24) 
energy

>  <rmsd>  (24) 
1.5379767397969744

>  <m_score__min__rmsd>  (24) 
1.5379767397969744

>  <meeko>  (24) 
{"free_energy": -8.65, "intermolecular_energy": -10.15, "internal_energy": -1.63, "cluster_size": 31, "cluster_id": 2, "rank_in_cluster": 11}

>  <energy>  (24) 
-8.6

>  <cluster_rmsd>  (24) 
1.95

>  <cluster>  (24) 
2

$$$$

     RDKit          3D

 57 60  0  0  0  0  0  0  0  0999 V2000
  140.1820   71.6170  221.1620 O   0  0  0  0  0  0  0  0  0  0  0  0
  139.9920   72.1200  222.2980 C   0  0  0  0  0  0  0  0  0  0  0  0
  139.7170   73.5430  222.2980 N   0  0  0  0  0  0  0  0  0  0  0  0
  139.6550   74.3100  221.1280 C   0  0  0  0  0  0  0  0  0  0  0  0
  140.7860   74.5640  220.2540 C   0  0  0  0  0  0  0  0  0  0  0  0
  140.8700   73.7150  219.2670 O   0  0  0  0  0  0  0  0  0  0  0  0
  141.8020   75.5300  220.2620 N   0  0  0  0  0  0  0  0  0  0  0  0
  141.4620   76.9860  220.4660 C   0  0  0  0  0  0  0  0  0  0  0  0
  141.8450   77.7320  219.2640 C   0  0  0  0  0  0  0  0  0  0  0  0
  142.6250   76.9450  218.2430 C   0  0  0  0  0  0  0  0  0  0  0  0
  143.6760   76.0770  218.8190 C   0  0  0  0  0  0  0  0  0  0  0  0
  143.2010   75.3360  220.0840 C   0  0  2  0  0  0  0  0  0  0  0  0
  143.9190   74.0820  220.1810 C   0  0  0  0  0  0  0  0  0  0  0  0
  143.3450   72.8740  220.8080 C   0  0  0  0  0  0  0  0  0  0  0  0
  143.6710   71.6980  219.8350 C   0  0  0  0  0  0  0  0  0  0  0  0
  145.1460   71.8670  219.5520 C   0  0  0  0  0  0  0  0  0  0  0  0
  145.8780   72.7110  220.5650 C   0  0  0  0  0  0  0  0  0  0  0  0
  145.3780   74.1470  220.5990 C   0  0  0  0  0  0  0  0  0  0  0  0
  140.0420   71.3550  223.5380 C   0  0  0  0  0  0  0  0  0  0  0  0
  139.5990   70.0490  223.4790 C   0  0  0  0  0  0  0  0  0  0  0  0
  139.6440   69.3160  224.6600 C   0  0  0  0  0  0  0  0  0  0  0  0
  140.1170   69.8970  225.8260 C   0  0  0  0  0  0  0  0  0  0  0  0
  140.1820   69.2120  227.0230 C   0  0  0  0  0  0  0  0  0  0  0  0
  140.6610   69.8110  228.1910 C   0  0  0  0  0  0  0  0  0  0  0  0
  141.0820   71.1440  228.1250 C   0  0  0  0  0  0  0  0  0  0  0  0
  141.0210   71.8460  226.9230 C   0  0  0  0  0  0  0  0  0  0  0  0
  140.5420   71.2160  225.7950 C   0  0  0  0  0  0  0  0  0  0  0  0
  140.4940   71.9180  224.6470 N   0  0  0  0  0  0  0  0  0  0  0  0
  139.5680   73.9290  223.2820 H   0  0  0  0  0  0  0  0  0  0  0  0
  138.8951   73.8265  220.4965 H   0  0  0  0  0  0  0  0  0  0  0  0
  139.4913   75.3131  221.5486 H   0  0  0  0  0  0  0  0  0  0  0  0
  140.3809   77.0927  220.6389 H   0  0  0  0  0  0  0  0  0  0  0  0
  142.0045   77.3783  221.3388 H   0  0  0  0  0  0  0  0  0  0  0  0
  140.9258   78.0973  218.7827 H   0  0  0  0  0  0  0  0  0  0  0  0
  142.5124   78.5376  219.6040 H   0  0  0  0  0  0  0  0  0  0  0  0
  141.9207   76.3101  217.6854 H   0  0  0  0  0  0  0  0  0  0  0  0
  143.1369   77.6784  217.6027 H   0  0  0  0  0  0  0  0  0  0  0  0
  143.9720   75.3332  218.0646 H   0  0  0  0  0  0  0  0  0  0  0  0
  144.5210   76.7203  219.1057 H   0  0  0  0  0  0  0  0  0  0  0  0
  143.4821   75.7272  221.0729 H   0  0  0  0  0  0  0  0  0  0  0  0
  143.7890   73.9267  219.0998 H   0  0  0  0  0  0  0  0  0  0  0  0
  143.8049   72.6969  221.7914 H   0  0  0  0  0  0  0  0  0  0  0  0
  142.2622   72.9771  220.9720 H   0  0  0  0  0  0  0  0  0  0  0  0
  143.4717   70.7271  220.3122 H   0  0  0  0  0  0  0  0  0  0  0  0
  143.0566   71.7162  218.9227 H   0  0  0  0  0  0  0  0  0  0  0  0
  145.6101   70.8699  219.5341 H   0  0  0  0  0  0  0  0  0  0  0  0
  145.2245   72.3915  218.5883 H   0  0  0  0  0  0  0  0  0  0  0  0
  145.7391   72.2657  221.5612 H   0  0  0  0  0  0  0  0  0  0  0  0
  146.9391   72.7339  220.2759 H   0  0  0  0  0  0  0  0  0  0  0  0
  145.4685   74.5611  221.6141 H   0  0  0  0  0  0  0  0  0  0  0  0
  145.9635   74.7976  219.9327 H   0  0  0  0  0  0  0  0  0  0  0  0
  139.2278   69.6087  222.5418 H   0  0  0  0  0  0  0  0  0  0  0  0
  139.3026   68.2704  224.6687 H   0  0  0  0  0  0  0  0  0  0  0  0
  139.8472   68.1648  227.0582 H   0  0  0  0  0  0  0  0  0  0  0  0
  140.7059   69.2503  229.1363 H   0  0  0  0  0  0  0  0  0  0  0  0
  141.4639   71.6412  229.0288 H   0  0  0  0  0  0  0  0  0  0  0  0
  141.3523   72.8938  226.8750 H   0  0  0  0  0  0  0  0  0  0  0  0
  1  2  2  0
  2  3  1  0
  3  4  1  0
  4  5  1  0
  5  6  2  0
  5  7  1  0
  7  8  1  0
  8  9  1  0
  9 10  1  0
 10 11  1  0
 11 12  1  0
 12 13  1  0
 13 14  1  0
 14 15  1  0
 15 16  1  0
 16 17  1  0
 17 18  1  0
  2 19  1  0
 19 20  2  0
 20 21  1  0
 21 22  2  0
 22 23  1  0
 23 24  2  0
 24 25  1  0
 25 26  2  0
 26 27  1  0
 27 28  2  0
 12  7  1  0
 18 13  1  0
 28 19  1  0
 27 22  1  0
  3 29  1  0
  4 30  1  0
  4 31  1  0
  8 32  1  0
  8 33  1  0
  9 34  1  0
  9 35  1  0
 10 36  1  0
 10 37  1  0
 11 38  1  0
 11 39  1  0
 12 40  1  1
 13 41  1  0
 14 42  1  0
 14 43  1  0
 15 44  1  0
 15 45  1  0
 16 46  1  0
 16 47  1  0
 17 48  1  0
 17 49  1  0
 18 50  1  0
 18 51  1  0
 20 52  1  0
 21 53  1  0
 23 54  1  0
 24 55  1  0
 25 56  1  0
 26 57  1  0
M  END
>  <smiles>  (25) 
O=C(NCC(=O)N1CCCCC1C1CCCCC1)c1ccc2ccccc2n1

>  <score_type>  (25) 
oracle

>  <origin>  (25) 
autodockgpu

>  <m_score__min__energy>  (25) 
-9.3100000000000005

>  <m_primary>  (25) 
energy

>  <rmsd>  (25) 
2.3199946382119427

>  <m_score__min__rmsd>  (25) 
2.3199946382119427

>  <meeko>  (25) 
{"free_energy": -8.41, "intermolecular_energy": -9.9, "internal_energy": -1.85, "cluster_size": 31, "cluster_id": 2, "rank_in_cluster": 22}

>  <energy>  (25) 
-8.56

>  <cluster_rmsd>  (25) 
1.94

>  <cluster>  (25) 
2

$$$$

     RDKit          3D

 57 60  0  0  0  0  0  0  0  0999 V2000
  141.4490   72.6100  221.7600 O   0  0  0  0  0  0  0  0  0  0  0  0
  140.4690   72.6270  222.5470 C   0  0  0  0  0  0  0  0  0  0  0  0
  139.5540   73.7360  222.3590 N   0  0  0  0  0  0  0  0  0  0  0  0
  139.7320   74.7150  221.3750 C   0  0  0  0  0  0  0  0  0  0  0  0
  139.7030   76.1450  221.6270 C   0  0  0  0  0  0  0  0  0  0  0  0
  140.6680   76.7890  221.0280 O   0  0  0  0  0  0  0  0  0  0  0  0
  138.8550   76.9660  222.3830 N   0  0  0  0  0  0  0  0  0  0  0  0
  137.5470   76.4260  222.9060 C   0  0  0  0  0  0  0  0  0  0  0  0
  136.4490   77.1880  222.3040 C   0  0  0  0  0  0  0  0  0  0  0  0
  136.8700   78.3910  221.5020 C   0  0  0  0  0  0  0  0  0  0  0  0
  137.9370   79.1990  222.1320 C   0  0  0  0  0  0  0  0  0  0  0  0
  139.0480   78.3280  222.7510 C   0  0  2  0  0  0  0  0  0  0  0  0
  140.2920   79.0670  222.7080 C   0  0  0  0  0  0  0  0  0  0  0  0
  140.8250   79.6720  221.4690 C   0  0  0  0  0  0  0  0  0  0  0  0
  141.2790   81.1110  221.8640 C   0  0  0  0  0  0  0  0  0  0  0  0
  142.1110   80.8950  223.1070 C   0  0  0  0  0  0  0  0  0  0  0  0
  142.6080   79.4810  223.2810 C   0  0  0  0  0  0  0  0  0  0  0  0
  141.4760   78.4820  223.4590 C   0  0  0  0  0  0  0  0  0  0  0  0
  140.2450   71.6230  223.5800 C   0  0  0  0  0  0  0  0  0  0  0  0
  139.5690   70.4810  223.1990 C   0  0  0  0  0  0  0  0  0  0  0  0
  139.3520   69.5210  224.1810 C   0  0  0  0  0  0  0  0  0  0  0  0
  139.8050   69.7290  225.4740 C   0  0  0  0  0  0  0  0  0  0  0  0
  139.6150   68.8080  226.4850 C   0  0  0  0  0  0  0  0  0  0  0  0
  140.0780   69.0320  227.7840 C   0  0  0  0  0  0  0  0  0  0  0  0
  140.7500   70.2300  228.0490 C   0  0  0  0  0  0  0  0  0  0  0  0
  140.9470   71.1680  227.0370 C   0  0  0  0  0  0  0  0  0  0  0  0
  140.4750   70.9060  225.7700 C   0  0  0  0  0  0  0  0  0  0  0  0
  140.6800   71.8300  224.8120 N   0  0  0  0  0  0  0  0  0  0  0  0
  138.7420   73.7140  223.0510 H   0  0  0  0  0  0  0  0  0  0  0  0
  140.7173   74.5123  220.9300 H   0  0  0  0  0  0  0  0  0  0  0  0
  138.8076   74.5905  220.7920 H   0  0  0  0  0  0  0  0  0  0  0  0
  137.4512   75.3637  222.6371 H   0  0  0  0  0  0  0  0  0  0  0  0
  137.5132   76.5222  224.0013 H   0  0  0  0  0  0  0  0  0  0  0  0
  135.8909   76.5132  221.6384 H   0  0  0  0  0  0  0  0  0  0  0  0
  135.8487   77.5732  223.1414 H   0  0  0  0  0  0  0  0  0  0  0  0
  137.2333   78.0430  220.5238 H   0  0  0  0  0  0  0  0  0  0  0  0
  135.9868   79.0419  221.4229 H   0  0  0  0  0  0  0  0  0  0  0  0
  138.3844   79.8508  221.3671 H   0  0  0  0  0  0  0  0  0  0  0  0
  137.4791   79.7838  222.9434 H   0  0  0  0  0  0  0  0  0  0  0  0
  139.0432   78.1409  223.8350 H   0  0  0  0  0  0  0  0  0  0  0  0
  139.8123   79.8985  223.2451 H   0  0  0  0  0  0  0  0  0  0  0  0
  141.6796   79.0894  221.0944 H   0  0  0  0  0  0  0  0  0  0  0  0
  140.0708   79.6894  220.6684 H   0  0  0  0  0  0  0  0  0  0  0  0
  141.8806   81.5662  221.0634 H   0  0  0  0  0  0  0  0  0  0  0  0
  140.4333   81.7945  222.0303 H   0  0  0  0  0  0  0  0  0  0  0  0
  142.9831   81.5636  223.0588 H   0  0  0  0  0  0  0  0  0  0  0  0
  141.4573   81.1080  223.9657 H   0  0  0  0  0  0  0  0  0  0  0  0
  143.1895   79.1997  222.3907 H   0  0  0  0  0  0  0  0  0  0  0  0
  143.2234   79.4536  224.1924 H   0  0  0  0  0  0  0  0  0  0  0  0
  141.7551   77.5061  223.0352 H   0  0  0  0  0  0  0  0  0  0  0  0
  141.2425   78.3168  224.5212 H   0  0  0  0  0  0  0  0  0  0  0  0
  139.2183   70.3374  222.1663 H   0  0  0  0  0  0  0  0  0  0  0  0
  138.8184   68.5923  223.9305 H   0  0  0  0  0  0  0  0  0  0  0  0
  139.0839   67.8711  226.2613 H   0  0  0  0  0  0  0  0  0  0  0  0
  139.9184   68.2865  228.5769 H   0  0  0  0  0  0  0  0  0  0  0  0
  141.1254   70.4331  229.0628 H   0  0  0  0  0  0  0  0  0  0  0  0
  141.4750   72.1095  227.2485 H   0  0  0  0  0  0  0  0  0  0  0  0
  1  2  2  0
  2  3  1  0
  3  4  1  0
  4  5  1  0
  5  6  2  0
  5  7  1  0
  7  8  1  0
  8  9  1  0
  9 10  1  0
 10 11  1  0
 11 12  1  0
 12 13  1  0
 13 14  1  0
 14 15  1  0
 15 16  1  0
 16 17  1  0
 17 18  1  0
  2 19  1  0
 19 20  2  0
 20 21  1  0
 21 22  2  0
 22 23  1  0
 23 24  2  0
 24 25  1  0
 25 26  2  0
 26 27  1  0
 27 28  2  0
 12  7  1  0
 18 13  1  0
 28 19  1  0
 27 22  1  0
  3 29  1  0
  4 30  1  0
  4 31  1  0
  8 32  1  0
  8 33  1  0
  9 34  1  0
  9 35  1  0
 10 36  1  0
 10 37  1  0
 11 38  1  0
 11 39  1  0
 12 40  1  1
 13 41  1  0
 14 42  1  0
 14 43  1  0
 15 44  1  0
 15 45  1  0
 16 46  1  0
 16 47  1  0
 17 48  1  0
 17 49  1  0
 18 50  1  0
 18 51  1  0
 20 52  1  0
 21 53  1  0
 23 54  1  0
 24 55  1  0
 25 56  1  0
 26 57  1  0
M  END
>  <smiles>  (26) 
O=C(NCC(=O)N1CCCCC1C1CCCCC1)c1ccc2ccccc2n1

>  <score_type>  (26) 
oracle

>  <origin>  (26) 
autodockgpu

>  <m_score__min__energy>  (26) 
-9.3100000000000005

>  <m_primary>  (26) 
energy

>  <rmsd>  (26) 
3.3258632369944823

>  <m_score__min__rmsd>  (26) 
3.3258632369944823

>  <meeko>  (26) 
{"free_energy": -8.81, "intermolecular_energy": -10.3, "internal_energy": -1.28, "cluster_size": 31, "cluster_id": 2, "rank_in_cluster": 6}

>  <energy>  (26) 
-8.53

>  <cluster_rmsd>  (26) 
1.96

>  <cluster>  (26) 
2

$$$$

     RDKit          3D

 57 60  0  0  0  0  0  0  0  0999 V2000
  141.3850   72.0090  221.6270 O   0  0  0  0  0  0  0  0  0  0  0  0
  140.5740   72.3230  222.5340 C   0  0  0  0  0  0  0  0  0  0  0  0
  139.9110   73.5980  222.3470 N   0  0  0  0  0  0  0  0  0  0  0  0
  140.1410   74.4240  221.2410 C   0  0  0  0  0  0  0  0  0  0  0  0
  140.1320   75.8760  221.2860 C   0  0  0  0  0  0  0  0  0  0  0  0
  139.8990   76.3490  222.4790 O   0  0  0  0  0  0  0  0  0  0  0  0
  140.3190   76.8640  220.3090 N   0  0  0  0  0  0  0  0  0  0  0  0
  140.0430   76.5570  218.8580 C   0  0  0  0  0  0  0  0  0  0  0  0
  141.2920   76.6890  218.1030 C   0  0  0  0  0  0  0  0  0  0  0  0
  142.4510   77.2600  218.8780 C   0  0  0  0  0  0  0  0  0  0  0  0
  142.0980   78.4120  219.7360 C   0  0  0  0  0  0  0  0  0  0  0  0
  140.7690   78.2030  220.4880 C   0  0  2  0  0  0  0  0  0  0  0  0
  140.8230   78.9380  221.7340 C   0  0  0  0  0  0  0  0  0  0  0  0
  141.7820   78.6210  222.8130 C   0  0  0  0  0  0  0  0  0  0  0  0
  142.3670   79.9930  223.2730 C   0  0  0  0  0  0  0  0  0  0  0  0
  141.1410   80.8540  223.4760 C   0  0  0  0  0  0  0  0  0  0  0  0
  139.8590   80.0760  223.6420 C   0  0  0  0  0  0  0  0  0  0  0  0
  139.5000   79.2720  222.4020 C   0  0  0  0  0  0  0  0  0  0  0  0
  140.3010   71.4880  223.6990 C   0  0  0  0  0  0  0  0  0  0  0  0
  139.6210   70.3080  223.4700 C   0  0  0  0  0  0  0  0  0  0  0  0
  139.3590   69.5100  224.5780 C   0  0  0  0  0  0  0  0  0  0  0  0
  139.7730   69.9050  225.8390 C   0  0  0  0  0  0  0  0  0  0  0  0
  139.5370   69.1490  226.9700 C   0  0  0  0  0  0  0  0  0  0  0  0
  139.9610   69.5610  228.2350 C   0  0  0  0  0  0  0  0  0  0  0  0
  140.6420   70.7790  228.3410 C   0  0  0  0  0  0  0  0  0  0  0  0
  140.8860   71.5520  227.2070 C   0  0  0  0  0  0  0  0  0  0  0  0
  140.4510   71.1070  225.9780 C   0  0  0  0  0  0  0  0  0  0  0  0
  140.6990   71.8740  224.9000 N   0  0  0  0  0  0  0  0  0  0  0  0
  139.2370   73.8270  223.1430 H   0  0  0  0  0  0  0  0  0  0  0  0
  141.1364   74.1453  220.8649 H   0  0  0  0  0  0  0  0  0  0  0  0
  139.2341   74.2315  220.6490 H   0  0  0  0  0  0  0  0  0  0  0  0
  139.6603   75.5301  218.7634 H   0  0  0  0  0  0  0  0  0  0  0  0
  139.2914   77.2568  218.4637 H   0  0  0  0  0  0  0  0  0  0  0  0
  141.5809   75.6898  217.7451 H   0  0  0  0  0  0  0  0  0  0  0  0
  141.0852   77.4026  217.2918 H   0  0  0  0  0  0  0  0  0  0  0  0
  142.8622   76.4660  219.5186 H   0  0  0  0  0  0  0  0  0  0  0  0
  143.1759   77.6281  218.1371 H   0  0  0  0  0  0  0  0  0  0  0  0
  142.9006   78.5617  220.4732 H   0  0  0  0  0  0  0  0  0  0  0  0
  141.9785   79.2899  219.0840 H   0  0  0  0  0  0  0  0  0  0  0  0
  139.8518   78.6699  220.0997 H   0  0  0  0  0  0  0  0  0  0  0  0
  141.2657   79.7957  221.2064 H   0  0  0  0  0  0  0  0  0  0  0  0
  141.2685   78.1232  223.6488 H   0  0  0  0  0  0  0  0  0  0  0  0
  142.5717   77.9378  222.4672 H   0  0  0  0  0  0  0  0  0  0  0  0
  142.9303   79.8846  224.2116 H   0  0  0  0  0  0  0  0  0  0  0  0
  143.0735   80.4209  222.5465 H   0  0  0  0  0  0  0  0  0  0  0  0
  141.2936   81.4640  224.3785 H   0  0  0  0  0  0  0  0  0  0  0  0
  141.0267   81.4607  222.5656 H   0  0  0  0  0  0  0  0  0  0  0  0
  139.9735   79.3844  224.4897 H   0  0  0  0  0  0  0  0  0  0  0  0
  139.0494   80.7999  223.8165 H   0  0  0  0  0  0  0  0  0  0  0  0
  138.9682   78.3508  222.6824 H   0  0  0  0  0  0  0  0  0  0  0  0
  138.8357   79.8353  221.7301 H   0  0  0  0  0  0  0  0  0  0  0  0
  139.3019   70.0135  222.4593 H   0  0  0  0  0  0  0  0  0  0  0  0
  138.8198   68.5595  224.4522 H   0  0  0  0  0  0  0  0  0  0  0  0
  138.9993   68.1944  226.8717 H   0  0  0  0  0  0  0  0  0  0  0  0
  139.7649   68.9445  229.1247 H   0  0  0  0  0  0  0  0  0  0  0  0
  140.9869   71.1285  229.3253 H   0  0  0  0  0  0  0  0  0  0  0  0
  141.4213   72.5091  227.2928 H   0  0  0  0  0  0  0  0  0  0  0  0
  1  2  2  0
  2  3  1  0
  3  4  1  0
  4  5  1  0
  5  6  2  0
  5  7  1  0
  7  8  1  0
  8  9  1  0
  9 10  1  0
 10 11  1  0
 11 12  1  0
 12 13  1  0
 13 14  1  0
 14 15  1  0
 15 16  1  0
 16 17  1  0
 17 18  1  0
  2 19  1  0
 19 20  2  0
 20 21  1  0
 21 22  2  0
 22 23  1  0
 23 24  2  0
 24 25  1  0
 25 26  2  0
 26 27  1  0
 27 28  2  0
 12  7  1  0
 18 13  1  0
 28 19  1  0
 27 22  1  0
  3 29  1  0
  4 30  1  0
  4 31  1  0
  8 32  1  0
  8 33  1  0
  9 34  1  0
  9 35  1  0
 10 36  1  0
 10 37  1  0
 11 38  1  0
 11 39  1  0
 12 40  1  6
 13 41  1  0
 14 42  1  0
 14 43  1  0
 15 44  1  0
 15 45  1  0
 16 46  1  0
 16 47  1  0
 17 48  1  0
 17 49  1  0
 18 50  1  0
 18 51  1  0
 20 52  1  0
 21 53  1  0
 23 54  1  0
 24 55  1  0
 25 56  1  0
 26 57  1  0
M  END
>  <smiles>  (27) 
O=C(NCC(=O)N1CCCCC1C1CCCCC1)c1ccc2ccccc2n1

>  <score_type>  (27) 
oracle

>  <origin>  (27) 
autodockgpu

>  <m_score__min__energy>  (27) 
-9.3100000000000005

>  <m_primary>  (27) 
energy

>  <rmsd>  (27) 
1.808642900910184

>  <m_score__min__rmsd>  (27) 
1.808642900910184

>  <meeko>  (27) 
{"free_energy": -8.78, "intermolecular_energy": -10.27, "internal_energy": -1.4, "cluster_size": 31, "cluster_id": 2, "rank_in_cluster": 8}

>  <energy>  (27) 
-8.53

>  <cluster_rmsd>  (27) 
1.97

>  <cluster>  (27) 
2

$$$$

     RDKit          3D

 57 60  0  0  0  0  0  0  0  0999 V2000
  141.3770   72.0980  221.5570 O   0  0  0  0  0  0  0  0  0  0  0  0
  140.5670   72.3970  222.4700 C   0  0  0  0  0  0  0  0  0  0  0  0
  139.9280   73.6890  222.3220 N   0  0  0  0  0  0  0  0  0  0  0  0
  140.1790   74.5470  221.2440 C   0  0  0  0  0  0  0  0  0  0  0  0
  141.0700   75.6930  221.3000 C   0  0  0  0  0  0  0  0  0  0  0  0
  141.0530   76.2970  222.4560 O   0  0  0  0  0  0  0  0  0  0  0  0
  141.9330   76.2790  220.3640 N   0  0  0  0  0  0  0  0  0  0  0  0
  141.8520   77.7570  220.0770 C   0  0  0  0  0  0  0  0  0  0  0  0
  141.4770   77.9450  218.6730 C   0  0  0  0  0  0  0  0  0  0  0  0
  141.4560   76.6880  217.8430 C   0  0  0  0  0  0  0  0  0  0  0  0
  142.6000   75.7830  218.0830 C   0  0  0  0  0  0  0  0  0  0  0  0
  142.9400   75.6450  219.5800 C   0  0  2  0  0  0  0  0  0  0  0  0
  143.5130   74.3350  219.8050 C   0  0  0  0  0  0  0  0  0  0  0  0
  144.9620   74.1140  219.9970 C   0  0  0  0  0  0  0  0  0  0  0  0
  145.0830   73.1440  221.2130 C   0  0  0  0  0  0  0  0  0  0  0  0
  144.1100   72.0360  220.8840 C   0  0  0  0  0  0  0  0  0  0  0  0
  143.7360   71.9530  219.4250 C   0  0  0  0  0  0  0  0  0  0  0  0
  143.0030   73.1950  218.9400 C   0  0  0  0  0  0  0  0  0  0  0  0
  140.2730   71.5290  223.6050 C   0  0  0  0  0  0  0  0  0  0  0  0
  139.5720   70.3700  223.3340 C   0  0  0  0  0  0  0  0  0  0  0  0
  139.2890   69.5410  224.4140 C   0  0  0  0  0  0  0  0  0  0  0  0
  139.7040   69.8870  225.6890 C   0  0  0  0  0  0  0  0  0  0  0  0
  139.4480   69.0970  226.7930 C   0  0  0  0  0  0  0  0  0  0  0  0
  139.8730   69.4600  228.0730 C   0  0  0  0  0  0  0  0  0  0  0  0
  140.5760   70.6600  228.2220 C   0  0  0  0  0  0  0  0  0  0  0  0
  140.8400   71.4660  227.1160 C   0  0  0  0  0  0  0  0  0  0  0  0
  140.4030   71.0700  225.8710 C   0  0  0  0  0  0  0  0  0  0  0  0
  140.6720   71.8670  224.8200 N   0  0  0  0  0  0  0  0  0  0  0  0
  139.2530   73.9040  223.1210 H   0  0  0  0  0  0  0  0  0  0  0  0
  140.5698   73.9064  220.4397 H   0  0  0  0  0  0  0  0  0  0  0  0
  139.2046   75.0484  221.1488 H   0  0  0  0  0  0  0  0  0  0  0  0
  141.0945   78.2190  220.7271 H   0  0  0  0  0  0  0  0  0  0  0  0
  142.8264   78.2295  220.2703 H   0  0  0  0  0  0  0  0  0  0  0  0
  140.4706   78.3882  218.6456 H   0  0  0  0  0  0  0  0  0  0  0  0
  142.2520   78.5897  218.2328 H   0  0  0  0  0  0  0  0  0  0  0  0
  140.5295   76.1403  218.0702 H   0  0  0  0  0  0  0  0  0  0  0  0
  141.5183   77.0033  216.7910 H   0  0  0  0  0  0  0  0  0  0  0  0
  142.3523   74.7881  217.6844 H   0  0  0  0  0  0  0  0  0  0  0  0
  143.4780   76.2136  217.5793 H   0  0  0  0  0  0  0  0  0  0  0  0
  143.7748   76.2272  219.9973 H   0  0  0  0  0  0  0  0  0  0  0  0
  143.0889   74.3262  220.8199 H   0  0  0  0  0  0  0  0  0  0  0  0
  145.4031   73.6590  219.0979 H   0  0  0  0  0  0  0  0  0  0  0  0
  145.4968   75.0584  220.1759 H   0  0  0  0  0  0  0  0  0  0  0  0
  146.1072   72.7530  221.3027 H   0  0  0  0  0  0  0  0  0  0  0  0
  144.8632   73.6338  222.1731 H   0  0  0  0  0  0  0  0  0  0  0  0
  144.5652   71.0788  221.1782 H   0  0  0  0  0  0  0  0  0  0  0  0
  143.1837   72.2554  221.4353 H   0  0  0  0  0  0  0  0  0  0  0  0
  144.6543   71.8311  218.8318 H   0  0  0  0  0  0  0  0  0  0  0  0
  143.0582   71.0954  219.3019 H   0  0  0  0  0  0  0  0  0  0  0  0
  143.2301   73.3856  217.8807 H   0  0  0  0  0  0  0  0  0  0  0  0
  141.9119   73.0805  219.0198 H   0  0  0  0  0  0  0  0  0  0  0  0
  139.2529   70.1150  222.3127 H   0  0  0  0  0  0  0  0  0  0  0  0
  138.7326   68.6056  224.2547 H   0  0  0  0  0  0  0  0  0  0  0  0
  138.8941   68.1560  226.6603 H   0  0  0  0  0  0  0  0  0  0  0  0
  139.6604   68.8189  228.9412 H   0  0  0  0  0  0  0  0  0  0  0  0
  140.9229   70.9697  229.2189 H   0  0  0  0  0  0  0  0  0  0  0  0
  141.3922   72.4097  227.2361 H   0  0  0  0  0  0  0  0  0  0  0  0
  1  2  2  0
  2  3  1  0
  3  4  1  0
  4  5  1  0
  5  6  2  0
  5  7  1  0
  7  8  1  0
  8  9  1  0
  9 10  1  0
 10 11  1  0
 11 12  1  0
 12 13  1  0
 13 14  1  0
 14 15  1  0
 15 16  1  0
 16 17  1  0
 17 18  1  0
  2 19  1  0
 19 20  2  0
 20 21  1  0
 21 22  2  0
 22 23  1  0
 23 24  2  0
 24 25  1  0
 25 26  2  0
 26 27  1  0
 27 28  2  0
 12  7  1  0
 18 13  1  0
 28 19  1  0
 27 22  1  0
  3 29  1  0
  4 30  1  0
  4 31  1  0
  8 32  1  0
  8 33  1  0
  9 34  1  0
  9 35  1  0
 10 36  1  0
 10 37  1  0
 11 38  1  0
 11 39  1  0
 12 40  1  6
 13 41  1  0
 14 42  1  0
 14 43  1  0
 15 44  1  0
 15 45  1  0
 16 46  1  0
 16 47  1  0
 17 48  1  0
 17 49  1  0
 18 50  1  0
 18 51  1  0
 20 52  1  0
 21 53  1  0
 23 54  1  0
 24 55  1  0
 25 56  1  0
 26 57  1  0
M  END
>  <smiles>  (28) 
O=C(NCC(=O)N1CCCCC1C1CCCCC1)c1ccc2ccccc2n1

>  <score_type>  (28) 
oracle

>  <origin>  (28) 
autodockgpu

>  <m_score__min__energy>  (28) 
-9.3100000000000005

>  <m_primary>  (28) 
energy

>  <rmsd>  (28) 
2.3498930541682497

>  <m_score__min__rmsd>  (28) 
2.3498930541682497

>  <meeko>  (28) 
{"free_energy": -8.12, "intermolecular_energy": -9.61, "internal_energy": -1.84, "cluster_size": 31, "cluster_id": 2, "rank_in_cluster": 28}

>  <energy>  (28) 
-8.5

>  <cluster_rmsd>  (28) 
1.85

>  <cluster>  (28) 
2

$$$$

     RDKit          3D

 57 60  0  0  0  0  0  0  0  0999 V2000
  138.7690   75.1420  222.0960 O   0  0  0  0  0  0  0  0  0  0  0  0
  139.8940   75.6960  222.1810 C   0  0  0  0  0  0  0  0  0  0  0  0
  141.0250   74.8290  221.9170 N   0  0  0  0  0  0  0  0  0  0  0  0
  140.8890   73.4770  221.5830 C   0  0  0  0  0  0  0  0  0  0  0  0
  141.6400   72.8130  220.5310 C   0  0  0  0  0  0  0  0  0  0  0  0
  141.0810   71.7060  220.1260 O   0  0  0  0  0  0  0  0  0  0  0  0
  142.8380   73.1210  219.8720 N   0  0  0  0  0  0  0  0  0  0  0  0
  143.8610   72.0420  219.6160 C   0  0  0  0  0  0  0  0  0  0  0  0
  145.0910   72.3780  220.3390 C   0  0  0  0  0  0  0  0  0  0  0  0
  145.1080   73.7450  220.9720 C   0  0  0  0  0  0  0  0  0  0  0  0
  144.5560   74.8180  220.1160 C   0  0  0  0  0  0  0  0  0  0  0  0
  143.2720   74.3850  219.3820 C   0  0  2  0  0  0  0  0  0  0  0  0
  142.4490   75.5570  219.1630 C   0  0  0  0  0  0  0  0  0  0  0  0
  141.8070   75.8570  217.8660 C   0  0  0  0  0  0  0  0  0  0  0  0
  140.3410   76.2680  218.2070 C   0  0  0  0  0  0  0  0  0  0  0  0
  140.5040   77.2880  219.3100 C   0  0  0  0  0  0  0  0  0  0  0  0
  141.8800   77.9000  219.3900 C   0  0  0  0  0  0  0  0  0  0  0  0
  142.9550   76.8760  219.7220 C   0  0  0  0  0  0  0  0  0  0  0  0
  140.0770   77.1030  222.5210 C   0  0  0  0  0  0  0  0  0  0  0  0
  138.9310   77.8540  222.6900 C   0  0  0  0  0  0  0  0  0  0  0  0
  139.1010   79.1960  223.0130 C   0  0  0  0  0  0  0  0  0  0  0  0
  140.3730   79.7250  223.1520 C   0  0  0  0  0  0  0  0  0  0  0  0
  140.5960   81.0500  223.4720 C   0  0  0  0  0  0  0  0  0  0  0  0
  141.8850   81.5700  223.6090 C   0  0  0  0  0  0  0  0  0  0  0  0
  142.9700   80.7080  223.4130 C   0  0  0  0  0  0  0  0  0  0  0  0
  142.7590   79.3690  223.0900 C   0  0  0  0  0  0  0  0  0  0  0  0
  141.4700   78.8990  222.9650 C   0  0  0  0  0  0  0  0  0  0  0  0
  141.2950   77.6010  222.6510 N   0  0  0  0  0  0  0  0  0  0  0  0
  141.9580   75.3390  222.0070 H   0  0  0  0  0  0  0  0  0  0  0  0
  141.1136   72.9199  222.5045 H   0  0  0  0  0  0  0  0  0  0  0  0
  139.8788   73.4735  221.1478 H   0  0  0  0  0  0  0  0  0  0  0  0
  143.4755   71.0749  219.9712 H   0  0  0  0  0  0  0  0  0  0  0  0
  144.0680   71.9707  218.5380 H   0  0  0  0  0  0  0  0  0  0  0  0
  145.2327   71.6322  221.1351 H   0  0  0  0  0  0  0  0  0  0  0  0
  145.8962   72.3778  219.5896 H   0  0  0  0  0  0  0  0  0  0  0  0
  144.5155   73.7035  221.8979 H   0  0  0  0  0  0  0  0  0  0  0  0
  146.1637   73.9964  221.1516 H   0  0  0  0  0  0  0  0  0  0  0  0
  144.3251   75.6890  220.7469 H   0  0  0  0  0  0  0  0  0  0  0  0
  145.3115   75.0598  219.3539 H   0  0  0  0  0  0  0  0  0  0  0  0
  143.3345   74.0678  218.3306 H   0  0  0  0  0  0  0  0  0  0  0  0
  141.6521   75.1094  219.7750 H   0  0  0  0  0  0  0  0  0  0  0  0
  142.3295   76.6829  217.3611 H   0  0  0  0  0  0  0  0  0  0  0  0
  141.8392   74.9923  217.1869 H   0  0  0  0  0  0  0  0  0  0  0  0
  139.8442   76.7122  217.3319 H   0  0  0  0  0  0  0  0  0  0  0  0
  139.7163   75.4131  218.5050 H   0  0  0  0  0  0  0  0  0  0  0  0
  139.7766   78.0960  219.1424 H   0  0  0  0  0  0  0  0  0  0  0  0
  140.3400   76.7556  220.2585 H   0  0  0  0  0  0  0  0  0  0  0  0
  142.1185   78.3597  218.4196 H   0  0  0  0  0  0  0  0  0  0  0  0
  141.8676   78.6455  220.1987 H   0  0  0  0  0  0  0  0  0  0  0  0
  143.9086   77.1531  219.2488 H   0  0  0  0  0  0  0  0  0  0  0  0
  143.1391   76.8154  220.8048 H   0  0  0  0  0  0  0  0  0  0  0  0
  137.9305   77.4117  222.5746 H   0  0  0  0  0  0  0  0  0  0  0  0
  138.2212   79.8399  223.1587 H   0  0  0  0  0  0  0  0  0  0  0  0
  139.7331   81.7152  223.6234 H   0  0  0  0  0  0  0  0  0  0  0  0
  142.0431   82.6283  223.8640 H   0  0  0  0  0  0  0  0  0  0  0  0
  143.9965   81.0901  223.5146 H   0  0  0  0  0  0  0  0  0  0  0  0
  143.6136   78.6936  222.9363 H   0  0  0  0  0  0  0  0  0  0  0  0
  1  2  2  0
  2  3  1  0
  3  4  1  0
  4  5  1  0
  5  6  2  0
  5  7  1  0
  7  8  1  0
  8  9  1  0
  9 10  1  0
 10 11  1  0
 11 12  1  0
 12 13  1  0
 13 14  1  0
 14 15  1  0
 15 16  1  0
 16 17  1  0
 17 18  1  0
  2 19  1  0
 19 20  2  0
 20 21  1  0
 21 22  2  0
 22 23  1  0
 23 24  2  0
 24 25  1  0
 25 26  2  0
 26 27  1  0
 27 28  2  0
 12  7  1  0
 18 13  1  0
 28 19  1  0
 27 22  1  0
  3 29  1  0
  4 30  1  0
  4 31  1  0
  8 32  1  0
  8 33  1  0
  9 34  1  0
  9 35  1  0
 10 36  1  0
 10 37  1  0
 11 38  1  0
 11 39  1  0
 12 40  1  6
 13 41  1  0
 14 42  1  0
 14 43  1  0
 15 44  1  0
 15 45  1  0
 16 46  1  0
 16 47  1  0
 17 48  1  0
 17 49  1  0
 18 50  1  0
 18 51  1  0
 20 52  1  0
 21 53  1  0
 23 54  1  0
 24 55  1  0
 25 56  1  0
 26 57  1  0
M  END
>  <smiles>  (29) 
O=C(NCC(=O)N1CCCCC1C1CCCCC1)c1ccc2ccccc2n1

>  <score_type>  (29) 
oracle

>  <origin>  (29) 
autodockgpu

>  <m_score__min__energy>  (29) 
-9.3100000000000005

>  <m_primary>  (29) 
energy

>  <rmsd>  (29) 
7.605023717286768

>  <m_score__min__rmsd>  (29) 
7.605023717286768

>  <meeko>  (29) 
{"free_energy": -6.91, "intermolecular_energy": -8.4, "internal_energy": -2.98, "cluster_size": 3, "cluster_id": 5, "rank_in_cluster": 3}

>  <energy>  (29) 
-8.48

>  <cluster_rmsd>  (29) 
1.74

>  <cluster>  (29) 
2

$$$$

     RDKit          3D

 57 60  0  0  0  0  0  0  0  0999 V2000
  140.7450   71.6780  221.3650 O   0  0  0  0  0  0  0  0  0  0  0  0
  140.2330   72.1230  222.4230 C   0  0  0  0  0  0  0  0  0  0  0  0
  139.7020   73.4690  222.3250 N   0  0  0  0  0  0  0  0  0  0  0  0
  139.7440   74.2230  221.1470 C   0  0  0  0  0  0  0  0  0  0  0  0
  140.6250   75.3570  220.9300 C   0  0  0  0  0  0  0  0  0  0  0  0
  141.4010   75.6030  221.9490 O   0  0  0  0  0  0  0  0  0  0  0  0
  140.8030   76.2370  219.8530 N   0  0  0  0  0  0  0  0  0  0  0  0
  140.4400   75.8070  218.4540 C   0  0  0  0  0  0  0  0  0  0  0  0
  141.6530   75.8060  217.6320 C   0  0  0  0  0  0  0  0  0  0  0  0
  142.8730   76.3930  218.2910 C   0  0  0  0  0  0  0  0  0  0  0  0
  142.6150   77.6370  219.0490 C   0  0  0  0  0  0  0  0  0  0  0  0
  141.3190   77.5640  219.8790 C   0  0  2  0  0  0  0  0  0  0  0  0
  141.4690   78.4110  221.0440 C   0  0  0  0  0  0  0  0  0  0  0  0
  140.5460   78.3630  222.1970 C   0  0  0  0  0  0  0  0  0  0  0  0
  141.4550   78.3630  223.4650 C   0  0  0  0  0  0  0  0  0  0  0  0
  142.4150   79.5040  223.2160 C   0  0  0  0  0  0  0  0  0  0  0  0
  141.9430   80.4960  222.1820 C   0  0  0  0  0  0  0  0  0  0  0  0
  141.7970   79.8750  220.8010 C   0  0  0  0  0  0  0  0  0  0  0  0
  140.1650   71.3680  223.6680 C   0  0  0  0  0  0  0  0  0  0  0  0
  139.5930   70.1120  223.6010 C   0  0  0  0  0  0  0  0  0  0  0  0
  139.5260   69.3890  224.7870 C   0  0  0  0  0  0  0  0  0  0  0  0
  140.0170   69.9280  225.9640 C   0  0  0  0  0  0  0  0  0  0  0  0
  139.9740   69.2510  227.1670 C   0  0  0  0  0  0  0  0  0  0  0  0
  140.4740   69.8080  228.3460 C   0  0  0  0  0  0  0  0  0  0  0  0
  141.0300   71.0910  228.2880 C   0  0  0  0  0  0  0  0  0  0  0  0
  141.0790   71.7850  227.0800 C   0  0  0  0  0  0  0  0  0  0  0  0
  140.5750   71.1970  225.9410 C   0  0  0  0  0  0  0  0  0  0  0  0
  140.6360   71.8910  224.7880 N   0  0  0  0  0  0  0  0  0  0  0  0
  139.2830   73.8090  223.2460 H   0  0  0  0  0  0  0  0  0  0  0  0
  139.9793   73.5074  220.3454 H   0  0  0  0  0  0  0  0  0  0  0  0
  138.7676   74.7277  221.1918 H   0  0  0  0  0  0  0  0  0  0  0  0
  140.0086   74.7954  218.4781 H   0  0  0  0  0  0  0  0  0  0  0  0
  139.7004   76.5015  218.0290 H   0  0  0  0  0  0  0  0  0  0  0  0
  141.8801   74.7643  217.3614 H   0  0  0  0  0  0  0  0  0  0  0  0
  141.4354   76.4471  216.7650 H   0  0  0  0  0  0  0  0  0  0  0  0
  143.2833   75.6450  218.9854 H   0  0  0  0  0  0  0  0  0  0  0  0
  143.5726   76.6549  217.4835 H   0  0  0  0  0  0  0  0  0  0  0  0
  143.4602   77.8171  219.7296 H   0  0  0  0  0  0  0  0  0  0  0  0
  142.5005   78.4541  218.3215 H   0  0  0  0  0  0  0  0  0  0  0  0
  140.4040   78.0347  219.4901 H   0  0  0  0  0  0  0  0  0  0  0  0
  142.3428   77.8211  221.3580 H   0  0  0  0  0  0  0  0  0  0  0  0
  139.8867   79.2436  222.1976 H   0  0  0  0  0  0  0  0  0  0  0  0
  139.8979   77.4749  222.1618 H   0  0  0  0  0  0  0  0  0  0  0  0
  140.8611   78.5409  224.3737 H   0  0  0  0  0  0  0  0  0  0  0  0
  141.9662   77.4020  223.6237 H   0  0  0  0  0  0  0  0  0  0  0  0
  142.5666   80.0403  224.1644 H   0  0  0  0  0  0  0  0  0  0  0  0
  143.3414   79.0576  222.8255 H   0  0  0  0  0  0  0  0  0  0  0  0
  140.9662   80.8934  222.4949 H   0  0  0  0  0  0  0  0  0  0  0  0
  142.7002   81.2908  222.1121 H   0  0  0  0  0  0  0  0  0  0  0  0
  140.9837   80.3635  220.2443 H   0  0  0  0  0  0  0  0  0  0  0  0
  142.7124   79.9932  220.2026 H   0  0  0  0  0  0  0  0  0  0  0  0
  139.2089   69.7035  222.6546 H   0  0  0  0  0  0  0  0  0  0  0  0
  139.0804   68.3833  224.7900 H   0  0  0  0  0  0  0  0  0  0  0  0
  139.5331   68.2437  227.1974 H   0  0  0  0  0  0  0  0  0  0  0  0
  140.4319   69.2531  229.2949 H   0  0  0  0  0  0  0  0  0  0  0  0
  141.4309   71.5547  229.2014 H   0  0  0  0  0  0  0  0  0  0  0  0
  141.5163   72.7934  227.0368 H   0  0  0  0  0  0  0  0  0  0  0  0
  1  2  2  0
  2  3  1  0
  3  4  1  0
  4  5  1  0
  5  6  2  0
  5  7  1  0
  7  8  1  0
  8  9  1  0
  9 10  1  0
 10 11  1  0
 11 12  1  0
 12 13  1  0
 13 14  1  0
 14 15  1  0
 15 16  1  0
 16 17  1  0
 17 18  1  0
  2 19  1  0
 19 20  2  0
 20 21  1  0
 21 22  2  0
 22 23  1  0
 23 24  2  0
 24 25  1  0
 25 26  2  0
 26 27  1  0
 27 28  2  0
 12  7  1  0
 18 13  1  0
 28 19  1  0
 27 22  1  0
  3 29  1  0
  4 30  1  0
  4 31  1  0
  8 32  1  0
  8 33  1  0
  9 34  1  0
  9 35  1  0
 10 36  1  0
 10 37  1  0
 11 38  1  0
 11 39  1  0
 12 40  1  6
 13 41  1  0
 14 42  1  0
 14 43  1  0
 15 44  1  0
 15 45  1  0
 16 46  1  0
 16 47  1  0
 17 48  1  0
 17 49  1  0
 18 50  1  0
 18 51  1  0
 20 52  1  0
 21 53  1  0
 23 54  1  0
 24 55  1  0
 25 56  1  0
 26 57  1  0
M  END
>  <smiles>  (30) 
O=C(NCC(=O)N1CCCCC1C1CCCCC1)c1ccc2ccccc2n1

>  <score_type>  (30) 
oracle

>  <origin>  (30) 
autodockgpu

>  <m_score__min__energy>  (30) 
-9.3100000000000005

>  <m_primary>  (30) 
energy

>  <rmsd>  (30) 
1.5238886195175287

>  <m_score__min__rmsd>  (30) 
1.5238886195175287

>  <meeko>  (30) 
{"free_energy": -8.86, "intermolecular_energy": -10.35, "internal_energy": -1.43, "cluster_size": 31, "cluster_id": 2, "rank_in_cluster": 5}

>  <energy>  (30) 
-8.46

>  <cluster_rmsd>  (30) 
0.92

>  <cluster>  (30) 
2

$$$$

     RDKit          3D

 57 60  0  0  0  0  0  0  0  0999 V2000
  141.4540   72.5480  221.6150 O   0  0  0  0  0  0  0  0  0  0  0  0
  140.5290   72.6540  222.4600 C   0  0  0  0  0  0  0  0  0  0  0  0
  139.7210   73.8510  222.3340 N   0  0  0  0  0  0  0  0  0  0  0  0
  139.9370   74.8190  221.3470 C   0  0  0  0  0  0  0  0  0  0  0  0
  139.7590   76.2470  221.5460 C   0  0  0  0  0  0  0  0  0  0  0  0
  140.5860   76.9680  220.8390 O   0  0  0  0  0  0  0  0  0  0  0  0
  138.8860   77.0000  222.3430 N   0  0  0  0  0  0  0  0  0  0  0  0
  137.5900   76.3970  222.8250 C   0  0  0  0  0  0  0  0  0  0  0  0
  136.4750   77.1630  222.2610 C   0  0  0  0  0  0  0  0  0  0  0  0
  136.8680   78.4220  221.5330 C   0  0  0  0  0  0  0  0  0  0  0  0
  137.9110   79.2190  222.2160 C   0  0  0  0  0  0  0  0  0  0  0  0
  139.0410   78.3430  222.7900 C   0  0  2  0  0  0  0  0  0  0  0  0
  140.2660   79.1160  222.7980 C   0  0  0  0  0  0  0  0  0  0  0  0
  140.7670   79.8390  221.6100 C   0  0  0  0  0  0  0  0  0  0  0  0
  141.1900   81.2500  222.1230 C   0  0  0  0  0  0  0  0  0  0  0  0
  142.0430   80.9490  223.3350 C   0  0  0  0  0  0  0  0  0  0  0  0
  142.5780   79.5390  223.3800 C   0  0  0  0  0  0  0  0  0  0  0  0
  141.4730   78.4990  223.4820 C   0  0  0  0  0  0  0  0  0  0  0  0
  140.2670   71.6660  223.5000 C   0  0  0  0  0  0  0  0  0  0  0  0
  139.5780   70.5320  223.1180 C   0  0  0  0  0  0  0  0  0  0  0  0
  139.3260   69.5870  224.1060 C   0  0  0  0  0  0  0  0  0  0  0  0
  139.7580   69.8010  225.4040 C   0  0  0  0  0  0  0  0  0  0  0  0
  139.5330   68.8940  226.4210 C   0  0  0  0  0  0  0  0  0  0  0  0
  139.9760   69.1230  227.7260 C   0  0  0  0  0  0  0  0  0  0  0  0
  140.6650   70.3120  227.9910 C   0  0  0  0  0  0  0  0  0  0  0  0
  140.8980   71.2350  226.9740 C   0  0  0  0  0  0  0  0  0  0  0  0
  140.4440   70.9680  225.7010 C   0  0  0  0  0  0  0  0  0  0  0  0
  140.6830   71.8780  224.7370 N   0  0  0  0  0  0  0  0  0  0  0  0
  138.9530   73.9030  223.0740 H   0  0  0  0  0  0  0  0  0  0  0  0
  140.9830   74.6919  221.0311 H   0  0  0  0  0  0  0  0  0  0  0  0
  139.1046   74.6021  220.6613 H   0  0  0  0  0  0  0  0  0  0  0  0
  137.5239   75.3499  222.4947 H   0  0  0  0  0  0  0  0  0  0  0  0
  137.5482   76.4293  223.9237 H   0  0  0  0  0  0  0  0  0  0  0  0
  135.9388   76.5135  221.5534 H   0  0  0  0  0  0  0  0  0  0  0  0
  135.8598   77.4824  223.1151 H   0  0  0  0  0  0  0  0  0  0  0  0
  137.2447   78.1416  220.5383 H   0  0  0  0  0  0  0  0  0  0  0  0
  135.9684   79.0534  221.4867 H   0  0  0  0  0  0  0  0  0  0  0  0
  138.3449   79.9257  221.4932 H   0  0  0  0  0  0  0  0  0  0  0  0
  137.4340   79.7431  223.0573 H   0  0  0  0  0  0  0  0  0  0  0  0
  139.0357   78.0928  223.8612 H   0  0  0  0  0  0  0  0  0  0  0  0
  139.7740   79.8859  223.4105 H   0  0  0  0  0  0  0  0  0  0  0  0
  141.6308   79.3133  221.1770 H   0  0  0  0  0  0  0  0  0  0  0  0
  140.0021   79.9055  220.8223 H   0  0  0  0  0  0  0  0  0  0  0  0
  141.7701   81.7878  221.3586 H   0  0  0  0  0  0  0  0  0  0  0  0
  140.3298   81.8947  222.3562 H   0  0  0  0  0  0  0  0  0  0  0  0
  142.8971   81.6422  223.3365 H   0  0  0  0  0  0  0  0  0  0  0  0
  141.3948   81.0694  224.2155 H   0  0  0  0  0  0  0  0  0  0  0  0
  143.1552   79.3514  222.4626 H   0  0  0  0  0  0  0  0  0  0  0  0
  143.2057   79.4485  224.2788 H   0  0  0  0  0  0  0  0  0  0  0  0
  141.7708   77.5712  222.9716 H   0  0  0  0  0  0  0  0  0  0  0  0
  141.2573   78.2360  224.5281 H   0  0  0  0  0  0  0  0  0  0  0  0
  139.2441   70.3833  222.0805 H   0  0  0  0  0  0  0  0  0  0  0  0
  138.7809   68.6650  223.8554 H   0  0  0  0  0  0  0  0  0  0  0  0
  138.9893   67.9644  226.1970 H   0  0  0  0  0  0  0  0  0  0  0  0
  139.7884   68.3889  228.5234 H   0  0  0  0  0  0  0  0  0  0  0  0
  141.0251   70.5191  229.0095 H   0  0  0  0  0  0  0  0  0  0  0  0
  141.4397   72.1687  227.1855 H   0  0  0  0  0  0  0  0  0  0  0  0
  1  2  2  0
  2  3  1  0
  3  4  1  0
  4  5  1  0
  5  6  2  0
  5  7  1  0
  7  8  1  0
  8  9  1  0
  9 10  1  0
 10 11  1  0
 11 12  1  0
 12 13  1  0
 13 14  1  0
 14 15  1  0
 15 16  1  0
 16 17  1  0
 17 18  1  0
  2 19  1  0
 19 20  2  0
 20 21  1  0
 21 22  2  0
 22 23  1  0
 23 24  2  0
 24 25  1  0
 25 26  2  0
 26 27  1  0
 27 28  2  0
 12  7  1  0
 18 13  1  0
 28 19  1  0
 27 22  1  0
  3 29  1  0
  4 30  1  0
  4 31  1  0
  8 32  1  0
  8 33  1  0
  9 34  1  0
  9 35  1  0
 10 36  1  0
 10 37  1  0
 11 38  1  0
 11 39  1  0
 12 40  1  1
 13 41  1  0
 14 42  1  0
 14 43  1  0
 15 44  1  0
 15 45  1  0
 16 46  1  0
 16 47  1  0
 17 48  1  0
 17 49  1  0
 18 50  1  0
 18 51  1  0
 20 52  1  0
 21 53  1  0
 23 54  1  0
 24 55  1  0
 25 56  1  0
 26 57  1  0
M  END
>  <smiles>  (31) 
O=C(NCC(=O)N1CCCCC1C1CCCCC1)c1ccc2ccccc2n1

>  <score_type>  (31) 
oracle

>  <origin>  (31) 
autodockgpu

>  <m_score__min__energy>  (31) 
-9.3100000000000005

>  <m_primary>  (31) 
energy

>  <rmsd>  (31) 
3.350585262489197

>  <m_score__min__rmsd>  (31) 
3.350585262489197

>  <meeko>  (31) 
{"free_energy": -8.79, "intermolecular_energy": -10.28, "internal_energy": -1.33, "cluster_size": 31, "cluster_id": 2, "rank_in_cluster": 7}

>  <energy>  (31) 
-8.45

>  <cluster_rmsd>  (31) 
1.72

>  <cluster>  (31) 
2

$$$$

     RDKit          3D

 57 60  0  0  0  0  0  0  0  0999 V2000
  139.6450   71.1880  221.2420 O   0  0  0  0  0  0  0  0  0  0  0  0
  139.6880   71.8140  222.3310 C   0  0  0  0  0  0  0  0  0  0  0  0
  139.5260   73.2500  222.2170 N   0  0  0  0  0  0  0  0  0  0  0  0
  139.3260   73.9020  220.9950 C   0  0  0  0  0  0  0  0  0  0  0  0
  140.3820   74.5260  220.2170 C   0  0  0  0  0  0  0  0  0  0  0  0
  140.3360   74.2120  218.9510 O   0  0  0  0  0  0  0  0  0  0  0  0
  141.4350   75.3880  220.5520 N   0  0  0  0  0  0  0  0  0  0  0  0
  141.1440   76.7660  221.0910 C   0  0  0  0  0  0  0  0  0  0  0  0
  141.6740   77.7600  220.1530 C   0  0  0  0  0  0  0  0  0  0  0  0
  142.5120   77.2000  219.0340 C   0  0  0  0  0  0  0  0  0  0  0  0
  143.4620   76.1470  219.4540 C   0  0  0  0  0  0  0  0  0  0  0  0
  142.8340   75.1480  220.4460 C   0  0  2  0  0  0  0  0  0  0  0  0
  143.4820   73.8640  220.2800 C   0  0  0  0  0  0  0  0  0  0  0  0
  142.9300   72.6080  220.8300 C   0  0  0  0  0  0  0  0  0  0  0  0
  143.0430   71.5590  219.6820 C   0  0  0  0  0  0  0  0  0  0  0  0
  144.4710   71.7020  219.2070 C   0  0  0  0  0  0  0  0  0  0  0  0
  145.3890   72.3740  220.1980 C   0  0  0  0  0  0  0  0  0  0  0  0
  144.9860   73.8130  220.4830 C   0  0  0  0  0  0  0  0  0  0  0  0
  139.8880   71.1710  223.6250 C   0  0  0  0  0  0  0  0  0  0  0  0
  139.5580   69.8330  223.7100 C   0  0  0  0  0  0  0  0  0  0  0  0
  139.7460   69.2170  224.9420 C   0  0  0  0  0  0  0  0  0  0  0  0
  140.2440   69.9370  226.0150 C   0  0  0  0  0  0  0  0  0  0  0  0
  140.4490   69.3720  227.2580 C   0  0  0  0  0  0  0  0  0  0  0  0
  140.9530   70.1110  228.3310 C   0  0  0  0  0  0  0  0  0  0  0  0
  141.2510   71.4620  228.1220 C   0  0  0  0  0  0  0  0  0  0  0  0
  141.0480   72.0440  226.8720 C   0  0  0  0  0  0  0  0  0  0  0  0
  140.5500   71.2780  225.8410 C   0  0  0  0  0  0  0  0  0  0  0  0
  140.3640   71.8660  224.6450 N   0  0  0  0  0  0  0  0  0  0  0  0
  139.5750   73.7410  223.1640 H   0  0  0  0  0  0  0  0  0  0  0  0
  138.8710   73.1530  220.3302 H   0  0  0  0  0  0  0  0  0  0  0  0
  138.7627   74.7876  221.3243 H   0  0  0  0  0  0  0  0  0  0  0  0
  140.0574   76.8999  221.1972 H   0  0  0  0  0  0  0  0  0  0  0  0
  141.6178   76.8906  222.0759 H   0  0  0  0  0  0  0  0  0  0  0  0
  140.8228   78.2948  219.7064 H   0  0  0  0  0  0  0  0  0  0  0  0
  142.3408   78.4093  220.7394 H   0  0  0  0  0  0  0  0  0  0  0  0
  141.8365   76.7731  218.2780 H   0  0  0  0  0  0  0  0  0  0  0  0
  143.1162   78.0330  218.6454 H   0  0  0  0  0  0  0  0  0  0  0  0
  143.7954   75.5963  218.5620 H   0  0  0  0  0  0  0  0  0  0  0  0
  144.3038   76.6394  219.9629 H   0  0  0  0  0  0  0  0  0  0  0  0
  143.0353   75.2585  221.5218 H   0  0  0  0  0  0  0  0  0  0  0  0
  143.1922   73.8579  219.2189 H   0  0  0  0  0  0  0  0  0  0  0  0
  143.5128   72.2836  221.7047 H   0  0  0  0  0  0  0  0  0  0  0  0
  141.8895   72.7338  221.1640 H   0  0  0  0  0  0  0  0  0  0  0  0
  142.8546   70.5429  220.0589 H   0  0  0  0  0  0  0  0  0  0  0  0
  142.3080   71.7229  218.8802 H   0  0  0  0  0  0  0  0  0  0  0  0
  144.8667   70.6974  218.9968 H   0  0  0  0  0  0  0  0  0  0  0  0
  144.4441   72.3453  218.3151 H   0  0  0  0  0  0  0  0  0  0  0  0
  145.3654   71.8078  221.1408 H   0  0  0  0  0  0  0  0  0  0  0  0
  146.3983   72.3900  219.7608 H   0  0  0  0  0  0  0  0  0  0  0  0
  145.2433   74.0862  221.5170 H   0  0  0  0  0  0  0  0  0  0  0  0
  145.5098   74.5205  219.8234 H   0  0  0  0  0  0  0  0  0  0  0  0
  139.1649   69.2805  222.8438 H   0  0  0  0  0  0  0  0  0  0  0  0
  139.4980   68.1524  225.0651 H   0  0  0  0  0  0  0  0  0  0  0  0
  140.2085   68.3091  227.4077 H   0  0  0  0  0  0  0  0  0  0  0  0
  141.1113   69.6433  229.3139 H   0  0  0  0  0  0  0  0  0  0  0  0
  141.6480   72.0685  228.9494 H   0  0  0  0  0  0  0  0  0  0  0  0
  141.2835   73.1062  226.7100 H   0  0  0  0  0  0  0  0  0  0  0  0
  1  2  2  0
  2  3  1  0
  3  4  1  0
  4  5  1  0
  5  6  2  0
  5  7  1  0
  7  8  1  0
  8  9  1  0
  9 10  1  0
 10 11  1  0
 11 12  1  0
 12 13  1  0
 13 14  1  0
 14 15  1  0
 15 16  1  0
 16 17  1  0
 17 18  1  0
  2 19  1  0
 19 20  2  0
 20 21  1  0
 21 22  2  0
 22 23  1  0
 23 24  2  0
 24 25  1  0
 25 26  2  0
 26 27  1  0
 27 28  2  0
 12  7  1  0
 18 13  1  0
 28 19  1  0
 27 22  1  0
  3 29  1  0
  4 30  1  0
  4 31  1  0
  8 32  1  0
  8 33  1  0
  9 34  1  0
  9 35  1  0
 10 36  1  0
 10 37  1  0
 11 38  1  0
 11 39  1  0
 12 40  1  1
 13 41  1  0
 14 42  1  0
 14 43  1  0
 15 44  1  0
 15 45  1  0
 16 46  1  0
 16 47  1  0
 17 48  1  0
 17 49  1  0
 18 50  1  0
 18 51  1  0
 20 52  1  0
 21 53  1  0
 23 54  1  0
 24 55  1  0
 25 56  1  0
 26 57  1  0
M  END
>  <smiles>  (32) 
O=C(NCC(=O)N1CCCCC1C1CCCCC1)c1ccc2ccccc2n1

>  <score_type>  (32) 
oracle

>  <origin>  (32) 
autodockgpu

>  <m_score__min__energy>  (32) 
-9.3100000000000005

>  <m_primary>  (32) 
energy

>  <rmsd>  (32) 
2.3499930763148313

>  <m_score__min__rmsd>  (32) 
2.3499930763148313

>  <meeko>  (32) 
{"free_energy": -8.19, "intermolecular_energy": -9.68, "internal_energy": -2.03, "cluster_size": 31, "cluster_id": 2, "rank_in_cluster": 27}

>  <energy>  (32) 
-8.41

>  <cluster_rmsd>  (32) 
1.93

>  <cluster>  (32) 
2

$$$$

     RDKit          3D

 57 60  0  0  0  0  0  0  0  0999 V2000
  141.2410   72.2620  221.7550 O   0  0  0  0  0  0  0  0  0  0  0  0
  140.3200   72.3880  222.6000 C   0  0  0  0  0  0  0  0  0  0  0  0
  139.3940   73.4710  222.3390 N   0  0  0  0  0  0  0  0  0  0  0  0
  139.5000   74.3170  221.2280 C   0  0  0  0  0  0  0  0  0  0  0  0
  140.2540   75.5580  221.2120 C   0  0  0  0  0  0  0  0  0  0  0  0
  141.0030   75.7150  222.2700 O   0  0  0  0  0  0  0  0  0  0  0  0
  140.3350   76.6160  220.2960 N   0  0  0  0  0  0  0  0  0  0  0  0
  140.1700   76.3550  218.8200 C   0  0  0  0  0  0  0  0  0  0  0  0
  141.4180   76.7090  218.1370 C   0  0  0  0  0  0  0  0  0  0  0  0
  142.4440   77.3980  218.9970 C   0  0  0  0  0  0  0  0  0  0  0  0
  141.8890   78.4360  219.8920 C   0  0  0  0  0  0  0  0  0  0  0  0
  140.5740   77.9940  220.5640 C   0  0  2  0  0  0  0  0  0  0  0  0
  140.4650   78.6580  221.8460 C   0  0  0  0  0  0  0  0  0  0  0  0
  141.4550   78.4820  222.9290 C   0  0  0  0  0  0  0  0  0  0  0  0
  141.7480   79.9160  223.4690 C   0  0  0  0  0  0  0  0  0  0  0  0
  140.3730   80.5020  223.6890 C   0  0  0  0  0  0  0  0  0  0  0  0
  139.2710   79.4770  223.7870 C   0  0  0  0  0  0  0  0  0  0  0  0
  139.0940   78.6840  222.5010 C   0  0  0  0  0  0  0  0  0  0  0  0
  140.1710   71.5250  223.7670 C   0  0  0  0  0  0  0  0  0  0  0  0
  139.4930   70.3370  223.5760 C   0  0  0  0  0  0  0  0  0  0  0  0
  139.3470   69.5120  224.6850 C   0  0  0  0  0  0  0  0  0  0  0  0
  139.8690   69.8900  225.9110 C   0  0  0  0  0  0  0  0  0  0  0  0
  139.7520   69.1060  227.0420 C   0  0  0  0  0  0  0  0  0  0  0  0
  140.2840   69.5010  228.2720 C   0  0  0  0  0  0  0  0  0  0  0  0
  140.9510   70.7290  228.3410 C   0  0  0  0  0  0  0  0  0  0  0  0
  141.0760   71.5290  227.2060 C   0  0  0  0  0  0  0  0  0  0  0  0
  140.5360   71.1000  226.0130 C   0  0  0  0  0  0  0  0  0  0  0  0
  140.6720   71.8940  224.9340 N   0  0  0  0  0  0  0  0  0  0  0  0
  138.6330   73.5450  223.0840 H   0  0  0  0  0  0  0  0  0  0  0  0
  139.9286   73.6994  220.4249 H   0  0  0  0  0  0  0  0  0  0  0  0
  138.4712   74.7010  221.1635 H   0  0  0  0  0  0  0  0  0  0  0  0
  139.9470   75.2905  218.6551 H   0  0  0  0  0  0  0  0  0  0  0  0
  139.3413   76.9598  218.4231 H   0  0  0  0  0  0  0  0  0  0  0  0
  141.8668   75.7838  217.7463 H   0  0  0  0  0  0  0  0  0  0  0  0
  141.1437   77.4287  217.3517 H   0  0  0  0  0  0  0  0  0  0  0  0
  142.9403   76.6374  219.6176 H   0  0  0  0  0  0  0  0  0  0  0  0
  143.1368   77.9095  218.3126 H   0  0  0  0  0  0  0  0  0  0  0  0
  142.6283   78.6582  220.6756 H   0  0  0  0  0  0  0  0  0  0  0  0
  141.6698   79.3231  219.2796 H   0  0  0  0  0  0  0  0  0  0  0  0
  139.6153   78.3435  220.1533 H   0  0  0  0  0  0  0  0  0  0  0  0
  140.7326   79.6136  221.3714 H   0  0  0  0  0  0  0  0  0  0  0  0
  141.0416   77.8484  223.7275 H   0  0  0  0  0  0  0  0  0  0  0  0
  142.3696   77.9892  222.5674 H   0  0  0  0  0  0  0  0  0  0  0  0
  142.3117   79.8725  224.4126 H   0  0  0  0  0  0  0  0  0  0  0  0
  142.3619   80.5145  222.7798 H   0  0  0  0  0  0  0  0  0  0  0  0
  140.3903   81.0800  224.6247 H   0  0  0  0  0  0  0  0  0  0  0  0
  140.1497   81.1220  222.8082 H   0  0  0  0  0  0  0  0  0  0  0  0
  139.5113   78.7781  224.6017 H   0  0  0  0  0  0  0  0  0  0  0  0
  138.3311   80.0154  223.9786 H   0  0  0  0  0  0  0  0  0  0  0  0
  138.7553   77.6614  222.7238 H   0  0  0  0  0  0  0  0  0  0  0  0
  138.3371   79.1371  221.8439 H   0  0  0  0  0  0  0  0  0  0  0  0
  139.0876   70.0569  222.5925 H   0  0  0  0  0  0  0  0  0  0  0  0
  138.8144   68.5544  224.5886 H   0  0  0  0  0  0  0  0  0  0  0  0
  139.2249   68.1430  226.9724 H   0  0  0  0  0  0  0  0  0  0  0  0
  140.1812   68.8635  229.1625 H   0  0  0  0  0  0  0  0  0  0  0  0
  141.3794   71.0653  229.2967 H   0  0  0  0  0  0  0  0  0  0  0  0
  141.6010   72.4940  227.2623 H   0  0  0  0  0  0  0  0  0  0  0  0
  1  2  2  0
  2  3  1  0
  3  4  1  0
  4  5  1  0
  5  6  2  0
  5  7  1  0
  7  8  1  0
  8  9  1  0
  9 10  1  0
 10 11  1  0
 11 12  1  0
 12 13  1  0
 13 14  1  0
 14 15  1  0
 15 16  1  0
 16 17  1  0
 17 18  1  0
  2 19  1  0
 19 20  2  0
 20 21  1  0
 21 22  2  0
 22 23  1  0
 23 24  2  0
 24 25  1  0
 25 26  2  0
 26 27  1  0
 27 28  2  0
 12  7  1  0
 18 13  1  0
 28 19  1  0
 27 22  1  0
  3 29  1  0
  4 30  1  0
  4 31  1  0
  8 32  1  0
  8 33  1  0
  9 34  1  0
  9 35  1  0
 10 36  1  0
 10 37  1  0
 11 38  1  0
 11 39  1  0
 12 40  1  6
 13 41  1  0
 14 42  1  0
 14 43  1  0
 15 44  1  0
 15 45  1  0
 16 46  1  0
 16 47  1  0
 17 48  1  0
 17 49  1  0
 18 50  1  0
 18 51  1  0
 20 52  1  0
 21 53  1  0
 23 54  1  0
 24 55  1  0
 25 56  1  0
 26 57  1  0
M  END
>  <smiles>  (33) 
O=C(NCC(=O)N1CCCCC1C1CCCCC1)c1ccc2ccccc2n1

>  <score_type>  (33) 
oracle

>  <origin>  (33) 
autodockgpu

>  <m_score__min__energy>  (33) 
-9.3100000000000005

>  <m_primary>  (33) 
energy

>  <rmsd>  (33) 
1.675130478487535

>  <m_score__min__rmsd>  (33) 
1.675130478487535

>  <meeko>  (33) 
{"free_energy": -8.86, "intermolecular_energy": -10.35, "internal_energy": -1.36, "cluster_size": 31, "cluster_id": 2, "rank_in_cluster": 4}

>  <energy>  (33) 
-8.39

>  <cluster_rmsd>  (33) 
1.97

>  <cluster>  (33) 
2

$$$$

     RDKit          3D

 57 60  0  0  0  0  0  0  0  0999 V2000
  140.3280   71.5110  221.2810 O   0  0  0  0  0  0  0  0  0  0  0  0
  140.0430   72.0310  222.3890 C   0  0  0  0  0  0  0  0  0  0  0  0
  139.6900   73.4360  222.3310 N   0  0  0  0  0  0  0  0  0  0  0  0
  139.6570   74.1680  221.1380 C   0  0  0  0  0  0  0  0  0  0  0  0
  140.8150   74.4170  220.2970 C   0  0  0  0  0  0  0  0  0  0  0  0
  140.9580   73.5320  219.3500 O   0  0  0  0  0  0  0  0  0  0  0  0
  141.8040   75.4100  220.3030 N   0  0  0  0  0  0  0  0  0  0  0  0
  141.4300   76.8530  220.5300 C   0  0  0  0  0  0  0  0  0  0  0  0
  141.7760   77.6240  219.3330 C   0  0  0  0  0  0  0  0  0  0  0  0
  142.5620   76.8700  218.2920 C   0  0  0  0  0  0  0  0  0  0  0  0
  143.6430   76.0240  218.8420 C   0  0  0  0  0  0  0  0  0  0  0  0
  143.2060   75.2540  220.1040 C   0  0  2  0  0  0  0  0  0  0  0  0
  143.9580   74.0190  220.1750 C   0  0  0  0  0  0  0  0  0  0  0  0
  143.4420   72.8010  220.8330 C   0  0  0  0  0  0  0  0  0  0  0  0
  143.7520   71.6280  219.8520 C   0  0  0  0  0  0  0  0  0  0  0  0
  145.2090   71.8310  219.5040 C   0  0  0  0  0  0  0  0  0  0  0  0
  145.9640   72.6980  220.4800 C   0  0  0  0  0  0  0  0  0  0  0  0
  145.4320   74.1220  220.5280 C   0  0  0  0  0  0  0  0  0  0  0  0
  140.0590   71.3030  223.6520 C   0  0  0  0  0  0  0  0  0  0  0  0
  139.5690   70.0120  223.6290 C   0  0  0  0  0  0  0  0  0  0  0  0
  139.5830   69.3140  224.8320 C   0  0  0  0  0  0  0  0  0  0  0  0
  140.0710   69.9120  225.9820 C   0  0  0  0  0  0  0  0  0  0  0  0
  140.1060   69.2610  227.2000 C   0  0  0  0  0  0  0  0  0  0  0  0
  140.6020   69.8770  228.3510 C   0  0  0  0  0  0  0  0  0  0  0  0
  141.0720   71.1910  228.2480 C   0  0  0  0  0  0  0  0  0  0  0  0
  141.0420   71.8580  227.0250 C   0  0  0  0  0  0  0  0  0  0  0  0
  140.5450   71.2130  225.9140 C   0  0  0  0  0  0  0  0  0  0  0  0
  140.5270   71.8810  224.7460 N   0  0  0  0  0  0  0  0  0  0  0  0
  139.4620   73.8380  223.2940 H   0  0  0  0  0  0  0  0  0  0  0  0
  138.9283   73.6533  220.4944 H   0  0  0  0  0  0  0  0  0  0  0  0
  139.4615   75.1797  221.5231 H   0  0  0  0  0  0  0  0  0  0  0  0
  140.3491   76.9294  220.7194 H   0  0  0  0  0  0  0  0  0  0  0  0
  141.9752   77.2482  221.3998 H   0  0  0  0  0  0  0  0  0  0  0  0
  140.8409   77.9707  218.8689 H   0  0  0  0  0  0  0  0  0  0  0  0
  142.4261   78.4433  219.6737 H   0  0  0  0  0  0  0  0  0  0  0  0
  141.8668   76.2233  217.7366 H   0  0  0  0  0  0  0  0  0  0  0  0
  143.0454   77.6244  217.6539 H   0  0  0  0  0  0  0  0  0  0  0  0
  143.9483   75.2981  218.0739 H   0  0  0  0  0  0  0  0  0  0  0  0
  144.4742   76.6863  219.1257 H   0  0  0  0  0  0  0  0  0  0  0  0
  143.4910   75.6379  221.0947 H   0  0  0  0  0  0  0  0  0  0  0  0
  143.7846   73.8542  219.1013 H   0  0  0  0  0  0  0  0  0  0  0  0
  143.9498   72.6405  221.7955 H   0  0  0  0  0  0  0  0  0  0  0  0
  142.3655   72.8791  221.0453 H   0  0  0  0  0  0  0  0  0  0  0  0
  143.5970   70.6552  220.3416 H   0  0  0  0  0  0  0  0  0  0  0  0
  143.0977   71.6261  218.9678 H   0  0  0  0  0  0  0  0  0  0  0  0
  145.6960   70.8452  219.4703 H   0  0  0  0  0  0  0  0  0  0  0  0
  145.2324   72.3520  218.5355 H   0  0  0  0  0  0  0  0  0  0  0  0
  145.8788   72.2558  221.4836 H   0  0  0  0  0  0  0  0  0  0  0  0
  147.0108   72.7439  220.1453 H   0  0  0  0  0  0  0  0  0  0  0  0
  145.5570   74.5449  221.5357 H   0  0  0  0  0  0  0  0  0  0  0  0
  145.9720   74.7821  219.8332 H   0  0  0  0  0  0  0  0  0  0  0  0
  139.1859   69.5574  222.7035 H   0  0  0  0  0  0  0  0  0  0  0  0
  139.2046   68.2819  224.8702 H   0  0  0  0  0  0  0  0  0  0  0  0
  139.7327   68.2283  227.2650 H   0  0  0  0  0  0  0  0  0  0  0  0
  140.6227   69.3436  229.3128 H   0  0  0  0  0  0  0  0  0  0  0  0
  141.4679   71.7009  229.1387 H   0  0  0  0  0  0  0  0  0  0  0  0
  141.4121   72.8910  226.9474 H   0  0  0  0  0  0  0  0  0  0  0  0
  1  2  2  0
  2  3  1  0
  3  4  1  0
  4  5  1  0
  5  6  2  0
  5  7  1  0
  7  8  1  0
  8  9  1  0
  9 10  1  0
 10 11  1  0
 11 12  1  0
 12 13  1  0
 13 14  1  0
 14 15  1  0
 15 16  1  0
 16 17  1  0
 17 18  1  0
  2 19  1  0
 19 20  2  0
 20 21  1  0
 21 22  2  0
 22 23  1  0
 23 24  2  0
 24 25  1  0
 25 26  2  0
 26 27  1  0
 27 28  2  0
 12  7  1  0
 18 13  1  0
 28 19  1  0
 27 22  1  0
  3 29  1  0
  4 30  1  0
  4 31  1  0
  8 32  1  0
  8 33  1  0
  9 34  1  0
  9 35  1  0
 10 36  1  0
 10 37  1  0
 11 38  1  0
 11 39  1  0
 12 40  1  1
 13 41  1  0
 14 42  1  0
 14 43  1  0
 15 44  1  0
 15 45  1  0
 16 46  1  0
 16 47  1  0
 17 48  1  0
 17 49  1  0
 18 50  1  0
 18 51  1  0
 20 52  1  0
 21 53  1  0
 23 54  1  0
 24 55  1  0
 25 56  1  0
 26 57  1  0
M  END
>  <smiles>  (34) 
O=C(NCC(=O)N1CCCCC1C1CCCCC1)c1ccc2ccccc2n1

>  <score_type>  (34) 
oracle

>  <origin>  (34) 
autodockgpu

>  <m_score__min__energy>  (34) 
-9.3100000000000005

>  <m_primary>  (34) 
energy

>  <rmsd>  (34) 
2.3159858145406162

>  <m_score__min__rmsd>  (34) 
2.3159858145406162

>  <meeko>  (34) 
{"free_energy": -8.56, "intermolecular_energy": -10.05, "internal_energy": -1.78, "cluster_size": 31, "cluster_id": 2, "rank_in_cluster": 15}

>  <energy>  (34) 
-8.38

>  <cluster_rmsd>  (34) 
1.96

>  <cluster>  (34) 
2

$$$$

     RDKit          3D

 57 60  0  0  0  0  0  0  0  0999 V2000
  140.7570   71.6340  221.3440 O   0  0  0  0  0  0  0  0  0  0  0  0
  140.3090   72.1190  222.4130 C   0  0  0  0  0  0  0  0  0  0  0  0
  139.9180   73.5130  222.3350 N   0  0  0  0  0  0  0  0  0  0  0  0
  140.0180   74.2710  221.1620 C   0  0  0  0  0  0  0  0  0  0  0  0
  139.9450   75.7200  221.1140 C   0  0  0  0  0  0  0  0  0  0  0  0
  139.5320   76.2480  222.2340 O   0  0  0  0  0  0  0  0  0  0  0  0
  140.2230   76.6590  220.1110 N   0  0  0  0  0  0  0  0  0  0  0  0
  139.9040   76.3460  218.6700 C   0  0  0  0  0  0  0  0  0  0  0  0
  141.1530   76.3290  217.9030 C   0  0  0  0  0  0  0  0  0  0  0  0
  142.3710   76.7970  218.6560 C   0  0  0  0  0  0  0  0  0  0  0  0
  142.1470   78.0000  219.4860 C   0  0  0  0  0  0  0  0  0  0  0  0
  140.8100   77.9480  220.2520 C   0  0  2  0  0  0  0  0  0  0  0  0
  140.9510   78.7050  221.4780 C   0  0  0  0  0  0  0  0  0  0  0  0
  139.8300   79.4340  222.1060 C   0  0  0  0  0  0  0  0  0  0  0  0
  139.9000   79.0890  223.6260 C   0  0  0  0  0  0  0  0  0  0  0  0
  141.3500   79.3300  223.9800 C   0  0  0  0  0  0  0  0  0  0  0  0
  142.0890   80.2070  223.0000 C   0  0  0  0  0  0  0  0  0  0  0  0
  142.1820   79.5840  221.6150 C   0  0  0  0  0  0  0  0  0  0  0  0
  140.1830   71.3630  223.6530 C   0  0  0  0  0  0  0  0  0  0  0  0
  139.5870   70.1210  223.5640 C   0  0  0  0  0  0  0  0  0  0  0  0
  139.4640   69.3960  224.7440 C   0  0  0  0  0  0  0  0  0  0  0  0
  139.9280   69.9220  225.9380 C   0  0  0  0  0  0  0  0  0  0  0  0
  139.8300   69.2420  227.1370 C   0  0  0  0  0  0  0  0  0  0  0  0
  140.3030   69.7850  228.3340 C   0  0  0  0  0  0  0  0  0  0  0  0
  140.8900   71.0550  228.2980 C   0  0  0  0  0  0  0  0  0  0  0  0
  140.9940   71.7510  227.0950 C   0  0  0  0  0  0  0  0  0  0  0  0
  140.5150   71.1770  225.9370 C   0  0  0  0  0  0  0  0  0  0  0  0
  140.6290   71.8720  224.7900 N   0  0  0  0  0  0  0  0  0  0  0  0
  139.5500   73.8850  223.2650 H   0  0  0  0  0  0  0  0  0  0  0  0
  140.9912   74.0085  220.7216 H   0  0  0  0  0  0  0  0  0  0  0  0
  139.0757   74.0015  220.6627 H   0  0  0  0  0  0  0  0  0  0  0  0
  139.4164   75.3621  218.6045 H   0  0  0  0  0  0  0  0  0  0  0  0
  139.2255   77.1101  218.2628 H   0  0  0  0  0  0  0  0  0  0  0  0
  141.3342   75.2966  217.5695 H   0  0  0  0  0  0  0  0  0  0  0  0
  141.0135   77.0386  217.0741 H   0  0  0  0  0  0  0  0  0  0  0  0
  142.7038   75.9811  219.3144 H   0  0  0  0  0  0  0  0  0  0  0  0
  143.1230   77.0701  217.9011 H   0  0  0  0  0  0  0  0  0  0  0  0
  142.9675   78.0843  220.2138 H   0  0  0  0  0  0  0  0  0  0  0  0
  142.1129   78.8691  218.8126 H   0  0  0  0  0  0  0  0  0  0  0  0
  139.9420   78.4966  219.8576 H   0  0  0  0  0  0  0  0  0  0  0  0
  141.0292   77.7656  222.0449 H   0  0  0  0  0  0  0  0  0  0  0  0
  139.9436   80.5174  221.9531 H   0  0  0  0  0  0  0  0  0  0  0  0
  138.8628   79.1457  221.6686 H   0  0  0  0  0  0  0  0  0  0  0  0
  139.2390   79.7473  224.2088 H   0  0  0  0  0  0  0  0  0  0  0  0
  139.5716   78.0626  223.8464 H   0  0  0  0  0  0  0  0  0  0  0  0
  141.3883   79.8098  224.9691 H   0  0  0  0  0  0  0  0  0  0  0  0
  141.8467   78.3487  223.9624 H   0  0  0  0  0  0  0  0  0  0  0  0
  141.5609   81.1686  222.9194 H   0  0  0  0  0  0  0  0  0  0  0  0
  143.1141   80.3386  223.3766 H   0  0  0  0  0  0  0  0  0  0  0  0
  142.1831   80.3662  220.8416 H   0  0  0  0  0  0  0  0  0  0  0  0
  143.1099   79.0066  221.4903 H   0  0  0  0  0  0  0  0  0  0  0  0
  139.2261   69.7233  222.6040 H   0  0  0  0  0  0  0  0  0  0  0  0
  138.9962   68.4005  224.7290 H   0  0  0  0  0  0  0  0  0  0  0  0
  139.3663   68.2446  227.1492 H   0  0  0  0  0  0  0  0  0  0  0  0
  140.2164   69.2294  229.2794 H   0  0  0  0  0  0  0  0  0  0  0  0
  141.2718   71.5069  229.2254 H   0  0  0  0  0  0  0  0  0  0  0  0
  141.4544   72.7497  227.0699 H   0  0  0  0  0  0  0  0  0  0  0  0
  1  2  2  0
  2  3  1  0
  3  4  1  0
  4  5  1  0
  5  6  2  0
  5  7  1  0
  7  8  1  0
  8  9  1  0
  9 10  1  0
 10 11  1  0
 11 12  1  0
 12 13  1  0
 13 14  1  0
 14 15  1  0
 15 16  1  0
 16 17  1  0
 17 18  1  0
  2 19  1  0
 19 20  2  0
 20 21  1  0
 21 22  2  0
 22 23  1  0
 23 24  2  0
 24 25  1  0
 25 26  2  0
 26 27  1  0
 27 28  2  0
 12  7  1  0
 18 13  1  0
 28 19  1  0
 27 22  1  0
  3 29  1  0
  4 30  1  0
  4 31  1  0
  8 32  1  0
  8 33  1  0
  9 34  1  0
  9 35  1  0
 10 36  1  0
 10 37  1  0
 11 38  1  0
 11 39  1  0
 12 40  1  6
 13 41  1  0
 14 42  1  0
 14 43  1  0
 15 44  1  0
 15 45  1  0
 16 46  1  0
 16 47  1  0
 17 48  1  0
 17 49  1  0
 18 50  1  0
 18 51  1  0
 20 52  1  0
 21 53  1  0
 23 54  1  0
 24 55  1  0
 25 56  1  0
 26 57  1  0
M  END
>  <smiles>  (35) 
O=C(NCC(=O)N1CCCCC1C1CCCCC1)c1ccc2ccccc2n1

>  <score_type>  (35) 
oracle

>  <origin>  (35) 
autodockgpu

>  <m_score__min__energy>  (35) 
-9.3100000000000005

>  <m_primary>  (35) 
energy

>  <rmsd>  (35) 
1.6229931095664512

>  <m_score__min__rmsd>  (35) 
1.6229931095664512

>  <meeko>  (35) 
{"free_energy": -8.46, "intermolecular_energy": -9.95, "internal_energy": -1.63, "cluster_size": 31, "cluster_id": 2, "rank_in_cluster": 20}

>  <energy>  (35) 
-8.36

>  <cluster_rmsd>  (35) 
1.97

>  <cluster>  (35) 
2

$$$$

     RDKit          3D

 57 60  0  0  0  0  0  0  0  0999 V2000
  141.1570   74.6580  221.3350 O   0  0  0  0  0  0  0  0  0  0  0  0
  140.1860   75.1400  221.9700 C   0  0  0  0  0  0  0  0  0  0  0  0
  139.1550   74.1850  222.3280 N   0  0  0  0  0  0  0  0  0  0  0  0
  139.2270   72.8260  222.0040 C   0  0  0  0  0  0  0  0  0  0  0  0
  139.7240   71.7950  222.8990 C   0  0  0  0  0  0  0  0  0  0  0  0
  140.7840   72.1640  223.5650 O   0  0  0  0  0  0  0  0  0  0  0  0
  139.2970   70.4910  223.1860 N   0  0  0  0  0  0  0  0  0  0  0  0
  138.8010   69.5950  222.0790 C   0  0  0  0  0  0  0  0  0  0  0  0
  137.3950   69.2670  222.3320 C   0  0  0  0  0  0  0  0  0  0  0  0
  136.8640   69.7160  223.6680 C   0  0  0  0  0  0  0  0  0  0  0  0
  137.7890   69.4840  224.7990 C   0  0  0  0  0  0  0  0  0  0  0  0
  139.2470   69.8410  224.4520 C   0  0  2  0  0  0  0  0  0  0  0  0
  139.9210   70.2570  225.6650 C   0  0  0  0  0  0  0  0  0  0  0  0
  141.3690   70.5480  225.7200 C   0  0  0  0  0  0  0  0  0  0  0  0
  141.5010   71.8800  226.5210 C   0  0  0  0  0  0  0  0  0  0  0  0
  140.6530   71.6440  227.7500 C   0  0  0  0  0  0  0  0  0  0  0  0
  140.3790   70.1890  228.0420 C   0  0  0  0  0  0  0  0  0  0  0  0
  139.5700   69.5160  226.9440 C   0  0  0  0  0  0  0  0  0  0  0  0
  140.0760   76.5490  222.3320 C   0  0  0  0  0  0  0  0  0  0  0  0
  138.8020   77.0780  222.3820 C   0  0  0  0  0  0  0  0  0  0  0  0
  138.6930   78.4210  222.7260 C   0  0  0  0  0  0  0  0  0  0  0  0
  139.8280   79.1670  223.0000 C   0  0  0  0  0  0  0  0  0  0  0  0
  139.7730   80.5030  223.3460 C   0  0  0  0  0  0  0  0  0  0  0  0
  140.9260   81.2420  223.6200 C   0  0  0  0  0  0  0  0  0  0  0  0
  142.1630   80.5930  223.5360 C   0  0  0  0  0  0  0  0  0  0  0  0
  142.2320   79.2460  223.1870 C   0  0  0  0  0  0  0  0  0  0  0  0
  141.0690   78.5540  222.9260 C   0  0  0  0  0  0  0  0  0  0  0  0
  141.1650   77.2540  222.5910 N   0  0  0  0  0  0  0  0  0  0  0  0
  138.3480   74.6380  222.8600 H   0  0  0  0  0  0  0  0  0  0  0  0
  138.1995   72.5272  221.7491 H   0  0  0  0  0  0  0  0  0  0  0  0
  140.0216   72.8381  221.2434 H   0  0  0  0  0  0  0  0  0  0  0  0
  138.8916   70.1148  221.1138 H   0  0  0  0  0  0  0  0  0  0  0  0
  139.4003   68.6731  222.0470 H   0  0  0  0  0  0  0  0  0  0  0  0
  136.7879   69.7417  221.5471 H   0  0  0  0  0  0  0  0  0  0  0  0
  137.3319   68.1688  222.3310 H   0  0  0  0  0  0  0  0  0  0  0  0
  136.6534   70.7941  223.6105 H   0  0  0  0  0  0  0  0  0  0  0  0
  135.9645   69.1153  223.8679 H   0  0  0  0  0  0  0  0  0  0  0  0
  137.4675   70.1023  225.6501 H   0  0  0  0  0  0  0  0  0  0  0  0
  137.7565   68.4118  225.0426 H   0  0  0  0  0  0  0  0  0  0  0  0
  139.9471   69.0374  224.1797 H   0  0  0  0  0  0  0  0  0  0  0  0
  139.4377   71.2426  225.5938 H   0  0  0  0  0  0  0  0  0  0  0  0
  141.9042   69.7363  226.2345 H   0  0  0  0  0  0  0  0  0  0  0  0
  141.8046   70.6342  224.7136 H   0  0  0  0  0  0  0  0  0  0  0  0
  142.5487   72.0693  226.7976 H   0  0  0  0  0  0  0  0  0  0  0  0
  141.1792   72.7589  225.9431 H   0  0  0  0  0  0  0  0  0  0  0  0
  141.1733   72.0778  228.6167 H   0  0  0  0  0  0  0  0  0  0  0  0
  139.6787   72.1169  227.5575 H   0  0  0  0  0  0  0  0  0  0  0  0
  141.3396   69.6631  228.1450 H   0  0  0  0  0  0  0  0  0  0  0  0
  139.7891   70.1399  228.9691 H   0  0  0  0  0  0  0  0  0  0  0  0
  139.8450   68.4542  226.8604 H   0  0  0  0  0  0  0  0  0  0  0  0
  138.4906   69.5533  227.1528 H   0  0  0  0  0  0  0  0  0  0  0  0
  137.9151   76.4663  222.1603 H   0  0  0  0  0  0  0  0  0  0  0  0
  137.7011   78.8933  222.7808 H   0  0  0  0  0  0  0  0  0  0  0  0
  138.7932   80.9991  223.4075 H   0  0  0  0  0  0  0  0  0  0  0  0
  140.8635   82.3054  223.8944 H   0  0  0  0  0  0  0  0  0  0  0  0
  143.0875   81.1504  223.7470 H   0  0  0  0  0  0  0  0  0  0  0  0
  143.2060   78.7393  223.1203 H   0  0  0  0  0  0  0  0  0  0  0  0
  1  2  2  0
  2  3  1  0
  3  4  1  0
  4  5  1  0
  5  6  2  0
  5  7  1  0
  7  8  1  0
  8  9  1  0
  9 10  1  0
 10 11  1  0
 11 12  1  0
 12 13  1  0
 13 14  1  0
 14 15  1  0
 15 16  1  0
 16 17  1  0
 17 18  1  0
  2 19  1  0
 19 20  2  0
 20 21  1  0
 21 22  2  0
 22 23  1  0
 23 24  2  0
 24 25  1  0
 25 26  2  0
 26 27  1  0
 27 28  2  0
 12  7  1  0
 18 13  1  0
 28 19  1  0
 27 22  1  0
  3 29  1  0
  4 30  1  0
  4 31  1  0
  8 32  1  0
  8 33  1  0
  9 34  1  0
  9 35  1  0
 10 36  1  0
 10 37  1  0
 11 38  1  0
 11 39  1  0
 12 40  1  6
 13 41  1  0
 14 42  1  0
 14 43  1  0
 15 44  1  0
 15 45  1  0
 16 46  1  0
 16 47  1  0
 17 48  1  0
 17 49  1  0
 18 50  1  0
 18 51  1  0
 20 52  1  0
 21 53  1  0
 23 54  1  0
 24 55  1  0
 25 56  1  0
 26 57  1  0
M  END
>  <smiles>  (36) 
O=C(NCC(=O)N1CCCCC1C1CCCCC1)c1ccc2ccccc2n1

>  <score_type>  (36) 
oracle

>  <origin>  (36) 
autodockgpu

>  <m_score__min__energy>  (36) 
-9.3100000000000005

>  <m_primary>  (36) 
energy

>  <rmsd>  (36) 
8.339459360651231

>  <m_score__min__rmsd>  (36) 
8.339459360651231

>  <meeko>  (36) 
{"free_energy": -9.26, "intermolecular_energy": -10.76, "internal_energy": -1.23, "cluster_size": 10, "cluster_id": 1, "rank_in_cluster": 2}

>  <energy>  (36) 
-8.29

>  <cluster_rmsd>  (36) 
1.81

>  <cluster>  (36) 
2

$$$$

     RDKit          3D

 57 60  0  0  0  0  0  0  0  0999 V2000
  140.2030   71.4850  221.2660 O   0  0  0  0  0  0  0  0  0  0  0  0
  140.0030   72.0220  222.3850 C   0  0  0  0  0  0  0  0  0  0  0  0
  139.7250   73.4440  222.3400 N   0  0  0  0  0  0  0  0  0  0  0  0
  139.6710   74.1750  221.1480 C   0  0  0  0  0  0  0  0  0  0  0  0
  140.8160   74.4300  220.2900 C   0  0  0  0  0  0  0  0  0  0  0  0
  140.9300   73.5650  219.3200 O   0  0  0  0  0  0  0  0  0  0  0  0
  141.8170   75.4100  220.3000 N   0  0  0  0  0  0  0  0  0  0  0  0
  141.4580   76.8590  220.5130 C   0  0  0  0  0  0  0  0  0  0  0  0
  141.8260   77.6170  219.3130 C   0  0  0  0  0  0  0  0  0  0  0  0
  142.6140   76.8460  218.2870 C   0  0  0  0  0  0  0  0  0  0  0  0
  143.6790   75.9910  218.8540 C   0  0  0  0  0  0  0  0  0  0  0  0
  143.2190   75.2360  220.1170 C   0  0  2  0  0  0  0  0  0  0  0  0
  143.9550   73.9920  220.2050 C   0  0  0  0  0  0  0  0  0  0  0  0
  143.4040   72.7760  220.8380 C   0  0  0  0  0  0  0  0  0  0  0  0
  143.7350   71.6050  219.8600 C   0  0  0  0  0  0  0  0  0  0  0  0
  145.2040   71.7940  219.5610 C   0  0  0  0  0  0  0  0  0  0  0  0
  145.9360   72.6480  220.5670 C   0  0  0  0  0  0  0  0  0  0  0  0
  145.4170   74.0770  220.6070 C   0  0  0  0  0  0  0  0  0  0  0  0
  140.0440   71.2950  223.6480 C   0  0  0  0  0  0  0  0  0  0  0  0
  139.5870   69.9920  223.6290 C   0  0  0  0  0  0  0  0  0  0  0  0
  139.6230   69.2950  224.8320 C   0  0  0  0  0  0  0  0  0  0  0  0
  140.1020   69.9060  225.9790 C   0  0  0  0  0  0  0  0  0  0  0  0
  140.1590   69.2570  227.1970 C   0  0  0  0  0  0  0  0  0  0  0  0
  140.6440   69.8870  228.3460 C   0  0  0  0  0  0  0  0  0  0  0  0
  141.0800   71.2120  228.2400 C   0  0  0  0  0  0  0  0  0  0  0  0
  141.0270   71.8770  227.0170 C   0  0  0  0  0  0  0  0  0  0  0  0
  140.5410   71.2180  225.9090 C   0  0  0  0  0  0  0  0  0  0  0  0
  140.5010   71.8850  224.7400 N   0  0  0  0  0  0  0  0  0  0  0  0
  139.5680   73.8580  223.3110 H   0  0  0  0  0  0  0  0  0  0  0  0
  138.9360   73.6562  220.5151 H   0  0  0  0  0  0  0  0  0  0  0  0
  139.4757   75.1858  221.5356 H   0  0  0  0  0  0  0  0  0  0  0  0
  140.3762   76.9498  220.6907 H   0  0  0  0  0  0  0  0  0  0  0  0
  141.9985   77.2542  221.3857 H   0  0  0  0  0  0  0  0  0  0  0  0
  140.9000   77.9708  218.8361 H   0  0  0  0  0  0  0  0  0  0  0  0
  142.4819   78.4315  219.6543 H   0  0  0  0  0  0  0  0  0  0  0  0
  141.9170   76.2035  217.7289 H   0  0  0  0  0  0  0  0  0  0  0  0
  143.1136   77.5901  217.6493 H   0  0  0  0  0  0  0  0  0  0  0  0
  143.9831   75.2557  218.0945 H   0  0  0  0  0  0  0  0  0  0  0  0
  144.5157   76.6449  219.1412 H   0  0  0  0  0  0  0  0  0  0  0  0
  143.4981   75.6246  221.1075 H   0  0  0  0  0  0  0  0  0  0  0  0
  143.8158   73.8349  219.1252 H   0  0  0  0  0  0  0  0  0  0  0  0
  143.8772   72.6045  221.8161 H   0  0  0  0  0  0  0  0  0  0  0  0
  142.3219   72.8645  221.0147 H   0  0  0  0  0  0  0  0  0  0  0  0
  143.5540   70.6311  220.3383 H   0  0  0  0  0  0  0  0  0  0  0  0
  143.1104   71.6157  218.9546 H   0  0  0  0  0  0  0  0  0  0  0  0
  145.6813   70.8032  219.5375 H   0  0  0  0  0  0  0  0  0  0  0  0
  145.2648   72.3199  218.5968 H   0  0  0  0  0  0  0  0  0  0  0  0
  145.8140   72.2006  221.5645 H   0  0  0  0  0  0  0  0  0  0  0  0
  146.9935   72.6853  220.2664 H   0  0  0  0  0  0  0  0  0  0  0  0
  145.5129   74.4921  221.6212 H   0  0  0  0  0  0  0  0  0  0  0  0
  145.9863   74.7357  219.9347 H   0  0  0  0  0  0  0  0  0  0  0  0
  139.2120   69.5270  222.7054 H   0  0  0  0  0  0  0  0  0  0  0  0
  139.2696   68.2541  224.8727 H   0  0  0  0  0  0  0  0  0  0  0  0
  139.8129   68.2150  227.2643 H   0  0  0  0  0  0  0  0  0  0  0  0
  140.6820   69.3553  229.3082 H   0  0  0  0  0  0  0  0  0  0  0  0
  141.4673   71.7323  229.1284 H   0  0  0  0  0  0  0  0  0  0  0  0
  141.3701   72.9190  226.9367 H   0  0  0  0  0  0  0  0  0  0  0  0
  1  2  2  0
  2  3  1  0
  3  4  1  0
  4  5  1  0
  5  6  2  0
  5  7  1  0
  7  8  1  0
  8  9  1  0
  9 10  1  0
 10 11  1  0
 11 12  1  0
 12 13  1  0
 13 14  1  0
 14 15  1  0
 15 16  1  0
 16 17  1  0
 17 18  1  0
  2 19  1  0
 19 20  2  0
 20 21  1  0
 21 22  2  0
 22 23  1  0
 23 24  2  0
 24 25  1  0
 25 26  2  0
 26 27  1  0
 27 28  2  0
 12  7  1  0
 18 13  1  0
 28 19  1  0
 27 22  1  0
  3 29  1  0
  4 30  1  0
  4 31  1  0
  8 32  1  0
  8 33  1  0
  9 34  1  0
  9 35  1  0
 10 36  1  0
 10 37  1  0
 11 38  1  0
 11 39  1  0
 12 40  1  1
 13 41  1  0
 14 42  1  0
 14 43  1  0
 15 44  1  0
 15 45  1  0
 16 46  1  0
 16 47  1  0
 17 48  1  0
 17 49  1  0
 18 50  1  0
 18 51  1  0
 20 52  1  0
 21 53  1  0
 23 54  1  0
 24 55  1  0
 25 56  1  0
 26 57  1  0
M  END
>  <smiles>  (37) 
O=C(NCC(=O)N1CCCCC1C1CCCCC1)c1ccc2ccccc2n1

>  <score_type>  (37) 
oracle

>  <origin>  (37) 
autodockgpu

>  <m_score__min__energy>  (37) 
-9.3100000000000005

>  <m_primary>  (37) 
energy

>  <rmsd>  (37) 
2.3265744739638756

>  <m_score__min__rmsd>  (37) 
2.3265744739638756

>  <meeko>  (37) 
{"free_energy": -8.53, "intermolecular_energy": -10.02, "internal_energy": -1.82, "cluster_size": 31, "cluster_id": 2, "rank_in_cluster": 17}

>  <energy>  (37) 
-8.19

>  <cluster_rmsd>  (37) 
1.97

>  <cluster>  (37) 
2

$$$$

     RDKit          3D

 57 60  0  0  0  0  0  0  0  0999 V2000
  140.0560   71.0160  221.1440 O   0  0  0  0  0  0  0  0  0  0  0  0
  139.8030   71.6740  222.1840 C   0  0  0  0  0  0  0  0  0  0  0  0
  139.3470   73.0310  221.9530 N   0  0  0  0  0  0  0  0  0  0  0  0
  139.1880   73.5770  220.6740 C   0  0  0  0  0  0  0  0  0  0  0  0
  140.0550   74.5930  220.1040 C   0  0  0  0  0  0  0  0  0  0  0  0
  139.7950   74.8400  218.8490 O   0  0  0  0  0  0  0  0  0  0  0  0
  141.1090   75.3540  220.6270 N   0  0  0  0  0  0  0  0  0  0  0  0
  140.8210   76.5770  221.4620 C   0  0  0  0  0  0  0  0  0  0  0  0
  141.3570   77.7540  220.7730 C   0  0  0  0  0  0  0  0  0  0  0  0
  142.1960   77.4580  219.5580 C   0  0  0  0  0  0  0  0  0  0  0  0
  143.1420   76.3340  219.7320 C   0  0  0  0  0  0  0  0  0  0  0  0
  142.5090   75.1390  220.4720 C   0  0  2  0  0  0  0  0  0  0  0  0
  143.1530   73.9230  220.0220 C   0  0  0  0  0  0  0  0  0  0  0  0
  143.3410   73.5950  218.5930 C   0  0  0  0  0  0  0  0  0  0  0  0
  144.8140   73.0960  218.4660 C   0  0  0  0  0  0  0  0  0  0  0  0
  144.9430   72.0790  219.5760 C   0  0  0  0  0  0  0  0  0  0  0  0
  143.6260   71.5490  220.0870 C   0  0  0  0  0  0  0  0  0  0  0  0
  142.7700   72.6320  220.7250 C   0  0  0  0  0  0  0  0  0  0  0  0
  139.9490   71.1400  223.5330 C   0  0  0  0  0  0  0  0  0  0  0  0
  139.5270   69.8410  223.7350 C   0  0  0  0  0  0  0  0  0  0  0  0
  139.6640   69.3290  225.0200 C   0  0  0  0  0  0  0  0  0  0  0  0
  140.2030   70.1080  226.0300 C   0  0  0  0  0  0  0  0  0  0  0  0
  140.3600   69.6460  227.3220 C   0  0  0  0  0  0  0  0  0  0  0  0
  140.9060   70.4440  228.3300 C   0  0  0  0  0  0  0  0  0  0  0  0
  141.2970   71.7470  228.0030 C   0  0  0  0  0  0  0  0  0  0  0  0
  141.1430   72.2250  226.7030 C   0  0  0  0  0  0  0  0  0  0  0  0
  140.6010   71.4030  225.7390 C   0  0  0  0  0  0  0  0  0  0  0  0
  140.4640   71.8920  224.4920 N   0  0  0  0  0  0  0  0  0  0  0  0
  139.1500   73.5540  222.8630 H   0  0  0  0  0  0  0  0  0  0  0  0
  139.2335   72.7248  219.9799 H   0  0  0  0  0  0  0  0  0  0  0  0
  138.2596   74.1512  220.8095 H   0  0  0  0  0  0  0  0  0  0  0  0
  139.7345   76.6880  221.5933 H   0  0  0  0  0  0  0  0  0  0  0  0
  141.2923   76.4749  222.4507 H   0  0  0  0  0  0  0  0  0  0  0  0
  140.5088   78.3791  220.4570 H   0  0  0  0  0  0  0  0  0  0  0  0
  142.0249   78.2511  221.4919 H   0  0  0  0  0  0  0  0  0  0  0  0
  141.5212   77.2147  218.7240 H   0  0  0  0  0  0  0  0  0  0  0  0
  142.8035   78.3551  219.3678 H   0  0  0  0  0  0  0  0  0  0  0  0
  143.4763   75.9974  218.7396 H   0  0  0  0  0  0  0  0  0  0  0  0
  143.9835   76.6965  220.3407 H   0  0  0  0  0  0  0  0  0  0  0  0
  142.7089   75.0035  221.5452 H   0  0  0  0  0  0  0  0  0  0  0  0
  144.1251   74.3185  220.3515 H   0  0  0  0  0  0  0  0  0  0  0  0
  142.6403   72.8049  218.2852 H   0  0  0  0  0  0  0  0  0  0  0  0
  143.1494   74.4649  217.9476 H   0  0  0  0  0  0  0  0  0  0  0  0
  144.9874   72.6301  217.4847 H   0  0  0  0  0  0  0  0  0  0  0  0
  145.5490   73.9105  218.5457 H   0  0  0  0  0  0  0  0  0  0  0  0
  145.5332   71.2306  219.1994 H   0  0  0  0  0  0  0  0  0  0  0  0
  145.4253   72.5931  220.4205 H   0  0  0  0  0  0  0  0  0  0  0  0
  143.0709   71.1116  219.2441 H   0  0  0  0  0  0  0  0  0  0  0  0
  143.8456   70.7980  220.8602 H   0  0  0  0  0  0  0  0  0  0  0  0
  141.7020   72.4154  220.5749 H   0  0  0  0  0  0  0  0  0  0  0  0
  142.9361   72.6951  221.8106 H   0  0  0  0  0  0  0  0  0  0  0  0
  139.1024   69.2397  222.9176 H   0  0  0  0  0  0  0  0  0  0  0  0
  139.3425   68.2994  225.2358 H   0  0  0  0  0  0  0  0  0  0  0  0
  140.0460   68.6200  227.5642 H   0  0  0  0  0  0  0  0  0  0  0  0
  141.0254   70.0584  229.3533 H   0  0  0  0  0  0  0  0  0  0  0  0
  141.7288   72.3984  228.7771 H   0  0  0  0  0  0  0  0  0  0  0  0
  141.4515   73.2497  226.4486 H   0  0  0  0  0  0  0  0  0  0  0  0
  1  2  2  0
  2  3  1  0
  3  4  1  0
  4  5  1  0
  5  6  2  0
  5  7  1  0
  7  8  1  0
  8  9  1  0
  9 10  1  0
 10 11  1  0
 11 12  1  0
 12 13  1  0
 13 14  1  0
 14 15  1  0
 15 16  1  0
 16 17  1  0
 17 18  1  0
  2 19  1  0
 19 20  2  0
 20 21  1  0
 21 22  2  0
 22 23  1  0
 23 24  2  0
 24 25  1  0
 25 26  2  0
 26 27  1  0
 27 28  2  0
 12  7  1  0
 18 13  1  0
 28 19  1  0
 27 22  1  0
  3 29  1  0
  4 30  1  0
  4 31  1  0
  8 32  1  0
  8 33  1  0
  9 34  1  0
  9 35  1  0
 10 36  1  0
 10 37  1  0
 11 38  1  0
 11 39  1  0
 12 40  1  1
 13 41  1  0
 14 42  1  0
 14 43  1  0
 15 44  1  0
 15 45  1  0
 16 46  1  0
 16 47  1  0
 17 48  1  0
 17 49  1  0
 18 50  1  0
 18 51  1  0
 20 52  1  0
 21 53  1  0
 23 54  1  0
 24 55  1  0
 25 56  1  0
 26 57  1  0
M  END
>  <smiles>  (38) 
O=C(NCC(=O)N1CCCCC1C1CCCCC1)c1ccc2ccccc2n1

>  <score_type>  (38) 
oracle

>  <origin>  (38) 
autodockgpu

>  <m_score__min__energy>  (38) 
-9.3100000000000005

>  <m_primary>  (38) 
energy

>  <rmsd>  (38) 
2.3833978274497336

>  <m_score__min__rmsd>  (38) 
2.3833978274497336

>  <meeko>  (38) 
{"free_energy": -7.69, "intermolecular_energy": -9.18, "internal_energy": -1.97, "cluster_size": 31, "cluster_id": 2, "rank_in_cluster": 31}

>  <energy>  (38) 
-8.12

>  <cluster_rmsd>  (38) 
1.64

>  <cluster>  (38) 
2

$$$$

     RDKit          3D

 57 60  0  0  0  0  0  0  0  0999 V2000
  139.8020   73.4020  222.3420 O   0  0  0  0  0  0  0  0  0  0  0  0
  140.1100   72.1860  222.4180 C   0  0  0  0  0  0  0  0  0  0  0  0
  140.4690   71.5660  221.1580 N   0  0  0  0  0  0  0  0  0  0  0  0
  140.4830   72.2580  219.9420 C   0  0  0  0  0  0  0  0  0  0  0  0
  140.7260   73.6850  219.8140 C   0  0  0  0  0  0  0  0  0  0  0  0
  139.9440   74.2600  218.9420 O   0  0  0  0  0  0  0  0  0  0  0  0
  141.6300   74.5590  220.4310 N   0  0  0  0  0  0  0  0  0  0  0  0
  141.1280   75.7880  221.1470 C   0  0  0  0  0  0  0  0  0  0  0  0
  141.6570   76.9770  220.4720 C   0  0  0  0  0  0  0  0  0  0  0  0
  142.6810   76.7010  219.4020 C   0  0  0  0  0  0  0  0  0  0  0  0
  143.6810   75.6750  219.7670 C   0  0  0  0  0  0  0  0  0  0  0  0
  143.0500   74.4640  220.4820 C   0  0  2  0  0  0  0  0  0  0  0  0
  143.8490   73.2910  220.1940 C   0  0  0  0  0  0  0  0  0  0  0  0
  143.6150   71.9820  220.8380 C   0  0  0  0  0  0  0  0  0  0  0  0
  143.6750   70.9290  219.6880 C   0  0  0  0  0  0  0  0  0  0  0  0
  144.9480   71.2780  218.9510 C   0  0  0  0  0  0  0  0  0  0  0  0
  145.9180   72.1120  219.7510 C   0  0  0  0  0  0  0  0  0  0  0  0
  145.3540   73.4790  220.1080 C   0  0  0  0  0  0  0  0  0  0  0  0
  140.1150   71.4310  223.6660 C   0  0  0  0  0  0  0  0  0  0  0  0
  139.6100   70.1470  223.6150 C   0  0  0  0  0  0  0  0  0  0  0  0
  139.6110   69.4240  224.8030 C   0  0  0  0  0  0  0  0  0  0  0  0
  140.1030   69.9910  225.9660 C   0  0  0  0  0  0  0  0  0  0  0  0
  140.1260   69.3150  227.1700 C   0  0  0  0  0  0  0  0  0  0  0  0
  140.6260   69.9010  228.3360 C   0  0  0  0  0  0  0  0  0  0  0  0
  141.1110   71.2110  228.2620 C   0  0  0  0  0  0  0  0  0  0  0  0
  141.0930   71.9040  227.0530 C   0  0  0  0  0  0  0  0  0  0  0  0
  140.5910   71.2880  225.9280 C   0  0  0  0  0  0  0  0  0  0  0  0
  140.5850   71.9810  224.7730 N   0  0  0  0  0  0  0  0  0  0  0  0
  140.7180   70.5340  221.2690 H   0  0  0  0  0  0  0  0  0  0  0  0
  141.2568   71.7695  219.3317 H   0  0  0  0  0  0  0  0  0  0  0  0
  139.4204   72.2046  219.6628 H   0  0  0  0  0  0  0  0  0  0  0  0
  140.0285   75.8072  221.1221 H   0  0  0  0  0  0  0  0  0  0  0  0
  141.4627   75.7730  222.1948 H   0  0  0  0  0  0  0  0  0  0  0  0
  140.8136   77.5089  220.0076 H   0  0  0  0  0  0  0  0  0  0  0  0
  142.1726   77.5649  221.2456 H   0  0  0  0  0  0  0  0  0  0  0  0
  142.1527   76.3612  218.4990 H   0  0  0  0  0  0  0  0  0  0  0  0
  143.2344   77.6388  219.2462 H   0  0  0  0  0  0  0  0  0  0  0  0
  144.1773   75.3241  218.8501 H   0  0  0  0  0  0  0  0  0  0  0  0
  144.3966   76.1381  220.4623 H   0  0  0  0  0  0  0  0  0  0  0  0
  143.1066   74.3975  221.5785 H   0  0  0  0  0  0  0  0  0  0  0  0
  143.3700   73.2095  219.2071 H   0  0  0  0  0  0  0  0  0  0  0  0
  144.3951   71.7777  221.5862 H   0  0  0  0  0  0  0  0  0  0  0  0
  142.6490   71.9549  221.3634 H   0  0  0  0  0  0  0  0  0  0  0  0
  143.7235   69.9075  220.0932 H   0  0  0  0  0  0  0  0  0  0  0  0
  142.7863   70.9531  219.0402 H   0  0  0  0  0  0  0  0  0  0  0  0
  145.4505   70.3413  218.6680 H   0  0  0  0  0  0  0  0  0  0  0  0
  144.6534   71.8837  218.0813 H   0  0  0  0  0  0  0  0  0  0  0  0
  146.1603   71.5765  220.6808 H   0  0  0  0  0  0  0  0  0  0  0  0
  146.8127   72.2709  219.1311 H   0  0  0  0  0  0  0  0  0  0  0  0
  145.7542   73.8189  221.0746 H   0  0  0  0  0  0  0  0  0  0  0  0
  145.6269   74.2392  219.3613 H   0  0  0  0  0  0  0  0  0  0  0  0
  139.2251   69.7162  222.6789 H   0  0  0  0  0  0  0  0  0  0  0  0
  139.2188   68.3964  224.8185 H   0  0  0  0  0  0  0  0  0  0  0  0
  139.7397   68.2859  227.2124 H   0  0  0  0  0  0  0  0  0  0  0  0
  140.6379   69.3471  229.2863 H   0  0  0  0  0  0  0  0  0  0  0  0
  141.5094   71.6976  229.1645 H   0  0  0  0  0  0  0  0  0  0  0  0
  141.4762   72.9336  226.9977 H   0  0  0  0  0  0  0  0  0  0  0  0
  1  2  2  0
  2  3  1  0
  3  4  1  0
  4  5  1  0
  5  6  2  0
  5  7  1  0
  7  8  1  0
  8  9  1  0
  9 10  1  0
 10 11  1  0
 11 12  1  0
 12 13  1  0
 13 14  1  0
 14 15  1  0
 15 16  1  0
 16 17  1  0
 17 18  1  0
  2 19  1  0
 19 20  2  0
 20 21  1  0
 21 22  2  0
 22 23  1  0
 23 24  2  0
 24 25  1  0
 25 26  2  0
 26 27  1  0
 27 28  2  0
 12  7  1  0
 18 13  1  0
 28 19  1  0
 27 22  1  0
  3 29  1  0
  4 30  1  0
  4 31  1  0
  8 32  1  0
  8 33  1  0
  9 34  1  0
  9 35  1  0
 10 36  1  0
 10 37  1  0
 11 38  1  0
 11 39  1  0
 12 40  1  1
 13 41  1  0
 14 42  1  0
 14 43  1  0
 15 44  1  0
 15 45  1  0
 16 46  1  0
 16 47  1  0
 17 48  1  0
 17 49  1  0
 18 50  1  0
 18 51  1  0
 20 52  1  0
 21 53  1  0
 23 54  1  0
 24 55  1  0
 25 56  1  0
 26 57  1  0
M  END
>  <smiles>  (39) 
O=C(NCC(=O)N1CCCCC1C1CCCCC1)c1ccc2ccccc2n1

>  <score_type>  (39) 
oracle

>  <origin>  (39) 
autodockgpu

>  <m_score__min__energy>  (39) 
-9.3100000000000005

>  <m_primary>  (39) 
energy

>  <rmsd>  (39) 
2.7124860955595698

>  <m_score__min__rmsd>  (39) 
2.7124860955595698

>  <meeko>  (39) 
{"free_energy": -8.24, "intermolecular_energy": -9.73, "internal_energy": -1.68, "cluster_size": 2, "cluster_id": 4, "rank_in_cluster": 1}

>  <energy>  (39) 
-8.03

>  <cluster_rmsd>  (39) 
1.97

>  <cluster>  (39) 
2

$$$$

     RDKit          3D

 57 60  0  0  0  0  0  0  0  0999 V2000
  139.9320   71.7870  221.0690 O   0  0  0  0  0  0  0  0  0  0  0  0
  139.8310   72.2290  222.2410 C   0  0  0  0  0  0  0  0  0  0  0  0
  139.6250   73.6610  222.3380 N   0  0  0  0  0  0  0  0  0  0  0  0
  139.5360   74.4980  221.2190 C   0  0  0  0  0  0  0  0  0  0  0  0
  138.9080   75.8080  221.2230 C   0  0  0  0  0  0  0  0  0  0  0  0
  138.8400   76.3450  220.0360 O   0  0  0  0  0  0  0  0  0  0  0  0
  138.3680   76.6060  222.2410 N   0  0  0  0  0  0  0  0  0  0  0  0
  137.1220   76.1670  222.9690 C   0  0  0  0  0  0  0  0  0  0  0  0
  136.0610   77.1470  222.7190 C   0  0  0  0  0  0  0  0  0  0  0  0
  136.5000   78.3950  221.9970 C   0  0  0  0  0  0  0  0  0  0  0  0
  137.7860   78.9510  222.4720 C   0  0  0  0  0  0  0  0  0  0  0  0
  138.8450   77.8590  222.7210 C   0  0  2  0  0  0  0  0  0  0  0  0
  140.1570   78.4290  222.4970 C   0  0  0  0  0  0  0  0  0  0  0  0
  141.2060   77.7460  221.7120 C   0  0  0  0  0  0  0  0  0  0  0  0
  141.8010   78.8340  220.7660 C   0  0  0  0  0  0  0  0  0  0  0  0
  142.0780   79.9980  221.6890 C   0  0  0  0  0  0  0  0  0  0  0  0
  142.1590   79.6250  223.1490 C   0  0  0  0  0  0  0  0  0  0  0  0
  140.8450   79.0790  223.6850 C   0  0  0  0  0  0  0  0  0  0  0  0
  139.9120   71.3910  223.4310 C   0  0  0  0  0  0  0  0  0  0  0  0
  139.4880   70.0830  223.2980 C   0  0  0  0  0  0  0  0  0  0  0  0
  139.5630   69.2810  224.4310 C   0  0  0  0  0  0  0  0  0  0  0  0
  140.0460   69.7960  225.6230 C   0  0  0  0  0  0  0  0  0  0  0  0
  140.1400   69.0400  226.7750 C   0  0  0  0  0  0  0  0  0  0  0  0
  140.6290   69.5750  227.9690 C   0  0  0  0  0  0  0  0  0  0  0  0
  141.0290   70.9150  227.9800 C   0  0  0  0  0  0  0  0  0  0  0  0
  140.9380   71.6880  226.8240 C   0  0  0  0  0  0  0  0  0  0  0  0
  140.4500   71.1210  225.6670 C   0  0  0  0  0  0  0  0  0  0  0  0
  140.3730   71.8910  224.5650 N   0  0  0  0  0  0  0  0  0  0  0  0
  139.5510   73.9940  223.3490 H   0  0  0  0  0  0  0  0  0  0  0  0
  140.5726   74.6672  220.8922 H   0  0  0  0  0  0  0  0  0  0  0  0
  138.8276   73.9327  220.5956 H   0  0  0  0  0  0  0  0  0  0  0  0
  136.8073   75.1791  222.6015 H   0  0  0  0  0  0  0  0  0  0  0  0
  137.3229   76.0997  224.0484 H   0  0  0  0  0  0  0  0  0  0  0  0
  135.2825   76.6594  222.1139 H   0  0  0  0  0  0  0  0  0  0  0  0
  135.7070   77.4739  223.7078 H   0  0  0  0  0  0  0  0  0  0  0  0
  136.6011   78.1572  220.9278 H   0  0  0  0  0  0  0  0  0  0  0  0
  135.7338   79.1594  222.1936 H   0  0  0  0  0  0  0  0  0  0  0  0
  138.1703   79.6488  221.7134 H   0  0  0  0  0  0  0  0  0  0  0  0
  137.5975   79.4584  223.4296 H   0  0  0  0  0  0  0  0  0  0  0  0
  139.0271   77.5096  223.7480 H   0  0  0  0  0  0  0  0  0  0  0  0
  139.7178   79.1611  221.8033 H   0  0  0  0  0  0  0  0  0  0  0  0
  141.9861   77.3488  222.3781 H   0  0  0  0  0  0  0  0  0  0  0  0
  140.8001   76.8943  221.1465 H   0  0  0  0  0  0  0  0  0  0  0  0
  142.7286   78.4784  220.2937 H   0  0  0  0  0  0  0  0  0  0  0  0
  141.1243   79.0968  219.9395 H   0  0  0  0  0  0  0  0  0  0  0  0
  143.0365   80.4507  221.3950 H   0  0  0  0  0  0  0  0  0  0  0  0
  141.2298   80.6909  221.5867 H   0  0  0  0  0  0  0  0  0  0  0  0
  142.9370   78.8576  223.2742 H   0  0  0  0  0  0  0  0  0  0  0  0
  142.3965   80.5383  223.7143 H   0  0  0  0  0  0  0  0  0  0  0  0
  141.0316   78.3359  224.4743 H   0  0  0  0  0  0  0  0  0  0  0  0
  140.2260   79.8723  224.1295 H   0  0  0  0  0  0  0  0  0  0  0  0
  139.1091   69.6946  222.3412 H   0  0  0  0  0  0  0  0  0  0  0  0
  139.2370   68.2316  224.3808 H   0  0  0  0  0  0  0  0  0  0  0  0
  139.8210   67.9875  226.7516 H   0  0  0  0  0  0  0  0  0  0  0  0
  140.6977   68.9582  228.8772 H   0  0  0  0  0  0  0  0  0  0  0  0
  141.4179   71.3617  228.9069 H   0  0  0  0  0  0  0  0  0  0  0  0
  141.2531   72.7418  226.8352 H   0  0  0  0  0  0  0  0  0  0  0  0
  1  2  2  0
  2  3  1  0
  3  4  1  0
  4  5  1  0
  5  6  2  0
  5  7  1  0
  7  8  1  0
  8  9  1  0
  9 10  1  0
 10 11  1  0
 11 12  1  0
 12 13  1  0
 13 14  1  0
 14 15  1  0
 15 16  1  0
 16 17  1  0
 17 18  1  0
  2 19  1  0
 19 20  2  0
 20 21  1  0
 21 22  2  0
 22 23  1  0
 23 24  2  0
 24 25  1  0
 25 26  2  0
 26 27  1  0
 27 28  2  0
 12  7  1  0
 18 13  1  0
 28 19  1  0
 27 22  1  0
  3 29  1  0
  4 30  1  0
  4 31  1  0
  8 32  1  0
  8 33  1  0
  9 34  1  0
  9 35  1  0
 10 36  1  0
 10 37  1  0
 11 38  1  0
 11 39  1  0
 12 40  1  1
 13 41  1  0
 14 42  1  0
 14 43  1  0
 15 44  1  0
 15 45  1  0
 16 46  1  0
 16 47  1  0
 17 48  1  0
 17 49  1  0
 18 50  1  0
 18 51  1  0
 20 52  1  0
 21 53  1  0
 23 54  1  0
 24 55  1  0
 25 56  1  0
 26 57  1  0
M  END
>  <smiles>  (40) 
O=C(NCC(=O)N1CCCCC1C1CCCCC1)c1ccc2ccccc2n1

>  <score_type>  (40) 
oracle

>  <origin>  (40) 
autodockgpu

>  <m_score__min__energy>  (40) 
-9.3100000000000005

>  <m_primary>  (40) 
energy

>  <rmsd>  (40) 
3.39324112803229

>  <m_score__min__rmsd>  (40) 
3.39324112803229

>  <meeko>  (40) 
{"free_energy": -8.29, "intermolecular_energy": -9.78, "internal_energy": -1.54, "cluster_size": 31, "cluster_id": 2, "rank_in_cluster": 26}

>  <energy>  (40) 
-7.99

>  <cluster_rmsd>  (40) 
1.88

>  <cluster>  (40) 
2

$$$$

     RDKit          3D

 57 60  0  0  0  0  0  0  0  0999 V2000
  139.2860   74.5050  222.3120 O   0  0  0  0  0  0  0  0  0  0  0  0
  140.4250   74.8250  221.8880 C   0  0  0  0  0  0  0  0  0  0  0  0
  141.2730   73.7110  221.5140 N   0  0  0  0  0  0  0  0  0  0  0  0
  140.8650   72.3750  221.6050 C   0  0  0  0  0  0  0  0  0  0  0  0
  140.2860   71.7750  222.7940 C   0  0  0  0  0  0  0  0  0  0  0  0
  140.3460   72.5530  223.8400 O   0  0  0  0  0  0  0  0  0  0  0  0
  139.6860   70.5330  223.0420 N   0  0  0  0  0  0  0  0  0  0  0  0
  139.2210   69.6730  221.8940 C   0  0  0  0  0  0  0  0  0  0  0  0
  137.7670   69.5080  221.9870 C   0  0  0  0  0  0  0  0  0  0  0  0
  137.1420   70.0430  223.2480 C   0  0  0  0  0  0  0  0  0  0  0  0
  137.9000   69.7350  224.4800 C   0  0  0  0  0  0  0  0  0  0  0  0
  139.4200   69.9210  224.3000 C   0  0  2  0  0  0  0  0  0  0  0  0
  139.9940   70.2860  225.5790 C   0  0  0  0  0  0  0  0  0  0  0  0
  141.4160   70.6530  225.7450 C   0  0  0  0  0  0  0  0  0  0  0  0
  141.4190   71.9300  226.6410 C   0  0  0  0  0  0  0  0  0  0  0  0
  140.5160   71.5600  227.7950 C   0  0  0  0  0  0  0  0  0  0  0  0
  140.3130   70.0750  227.9700 C   0  0  0  0  0  0  0  0  0  0  0  0
  139.6130   69.4370  226.7800 C   0  0  0  0  0  0  0  0  0  0  0  0
  140.8860   76.2040  221.7710 C   0  0  0  0  0  0  0  0  0  0  0  0
  141.2040   76.6460  220.5030 C   0  0  0  0  0  0  0  0  0  0  0  0
  141.6450   77.9600  220.3880 C   0  0  0  0  0  0  0  0  0  0  0  0
  141.7480   78.7640  221.5110 C   0  0  0  0  0  0  0  0  0  0  0  0
  142.1800   80.0740  221.4490 C   0  0  0  0  0  0  0  0  0  0  0  0
  142.2790   80.8730  222.5910 C   0  0  0  0  0  0  0  0  0  0  0  0
  141.9270   80.3110  223.8240 C   0  0  0  0  0  0  0  0  0  0  0  0
  141.4900   78.9900  223.8990 C   0  0  0  0  0  0  0  0  0  0  0  0
  141.4070   78.2380  222.7470 C   0  0  0  0  0  0  0  0  0  0  0  0
  140.9820   76.9650  222.8490 N   0  0  0  0  0  0  0  0  0  0  0  0
  142.2310   74.0280  221.1650 H   0  0  0  0  0  0  0  0  0  0  0  0
  140.1175   72.2383  220.8097 H   0  0  0  0  0  0  0  0  0  0  0  0
  141.8364   71.8602  221.5670 H   0  0  0  0  0  0  0  0  0  0  0  0
  139.4780   70.1580  220.9407 H   0  0  0  0  0  0  0  0  0  0  0  0
  139.7127   68.6901  221.9398 H   0  0  0  0  0  0  0  0  0  0  0  0
  137.3098   70.0288  221.1328 H   0  0  0  0  0  0  0  0  0  0  0  0
  137.5817   68.4237  221.9899 H   0  0  0  0  0  0  0  0  0  0  0  0
  137.0627   71.1363  223.1564 H   0  0  0  0  0  0  0  0  0  0  0  0
  136.1634   69.5508  223.3484 H   0  0  0  0  0  0  0  0  0  0  0  0
  137.5554   70.4036  225.2827 H   0  0  0  0  0  0  0  0  0  0  0  0
  137.7196   68.6787  224.7282 H   0  0  0  0  0  0  0  0  0  0  0  0
  140.0526   69.0398  224.1175 H   0  0  0  0  0  0  0  0  0  0  0  0
  139.4566   71.2452  225.5451 H   0  0  0  0  0  0  0  0  0  0  0  0
  141.9678   69.8381  226.2363 H   0  0  0  0  0  0  0  0  0  0  0  0
  141.9047   70.8348  224.7764 H   0  0  0  0  0  0  0  0  0  0  0  0
  142.4350   72.1581  226.9955 H   0  0  0  0  0  0  0  0  0  0  0  0
  141.0789   72.8280  226.1045 H   0  0  0  0  0  0  0  0  0  0  0  0
  140.9573   71.9592  228.7201 H   0  0  0  0  0  0  0  0  0  0  0  0
  139.5281   71.9902  227.5739 H   0  0  0  0  0  0  0  0  0  0  0  0
  141.2957   69.5976  228.0984 H   0  0  0  0  0  0  0  0  0  0  0  0
  139.6725   69.9276  228.8521 H   0  0  0  0  0  0  0  0  0  0  0  0
  139.9565   68.4011  226.6425 H   0  0  0  0  0  0  0  0  0  0  0  0
  138.5229   69.3981  226.9217 H   0  0  0  0  0  0  0  0  0  0  0  0
  141.1130   75.9900  219.6247 H   0  0  0  0  0  0  0  0  0  0  0  0
  141.9133   78.3627  219.4002 H   0  0  0  0  0  0  0  0  0  0  0  0
  142.4540   80.5007  220.4729 H   0  0  0  0  0  0  0  0  0  0  0  0
  142.6241   81.9152  222.5231 H   0  0  0  0  0  0  0  0  0  0  0  0
  141.9959   80.9164  224.7398 H   0  0  0  0  0  0  0  0  0  0  0  0
  141.2137   78.5512  224.8691 H   0  0  0  0  0  0  0  0  0  0  0  0
  1  2  2  0
  2  3  1  0
  3  4  1  0
  4  5  1  0
  5  6  2  0
  5  7  1  0
  7  8  1  0
  8  9  1  0
  9 10  1  0
 10 11  1  0
 11 12  1  0
 12 13  1  0
 13 14  1  0
 14 15  1  0
 15 16  1  0
 16 17  1  0
 17 18  1  0
  2 19  1  0
 19 20  2  0
 20 21  1  0
 21 22  2  0
 22 23  1  0
 23 24  2  0
 24 25  1  0
 25 26  2  0
 26 27  1  0
 27 28  2  0
 12  7  1  0
 18 13  1  0
 28 19  1  0
 27 22  1  0
  3 29  1  0
  4 30  1  0
  4 31  1  0
  8 32  1  0
  8 33  1  0
  9 34  1  0
  9 35  1  0
 10 36  1  0
 10 37  1  0
 11 38  1  0
 11 39  1  0
 12 40  1  6
 13 41  1  0
 14 42  1  0
 14 43  1  0
 15 44  1  0
 15 45  1  0
 16 46  1  0
 16 47  1  0
 17 48  1  0
 17 49  1  0
 18 50  1  0
 18 51  1  0
 20 52  1  0
 21 53  1  0
 23 54  1  0
 24 55  1  0
 25 56  1  0
 26 57  1  0
M  END
>  <smiles>  (41) 
O=C(NCC(=O)N1CCCCC1C1CCCCC1)c1ccc2ccccc2n1

>  <score_type>  (41) 
oracle

>  <origin>  (41) 
autodockgpu

>  <m_score__min__energy>  (41) 
-9.3100000000000005

>  <m_primary>  (41) 
energy

>  <rmsd>  (41) 
8.330070424873117

>  <m_score__min__rmsd>  (41) 
8.330070424873117

>  <meeko>  (41) 
{"free_energy": -8.97, "intermolecular_energy": -10.46, "internal_energy": -1.31, "cluster_size": 10, "cluster_id": 1, "rank_in_cluster": 5}

>  <energy>  (41) 
-7.69

>  <cluster_rmsd>  (41) 
1.87

>  <cluster>  (41) 
2

$$$$

     RDKit          3D

 57 60  0  0  0  0  0  0  0  0999 V2000
  141.3240   71.9280  221.5700 O   0  0  0  0  0  0  0  0  0  0  0  0
  140.5690   72.2760  222.5130 C   0  0  0  0  0  0  0  0  0  0  0  0
  139.9500   73.5770  222.3520 N   0  0  0  0  0  0  0  0  0  0  0  0
  140.1620   74.3910  221.2330 C   0  0  0  0  0  0  0  0  0  0  0  0
  139.9280   75.8250  221.2070 C   0  0  0  0  0  0  0  0  0  0  0  0
  139.3680   76.2710  222.2970 O   0  0  0  0  0  0  0  0  0  0  0  0
  140.1790   76.8160  220.2480 N   0  0  0  0  0  0  0  0  0  0  0  0
  139.9220   76.5420  218.7880 C   0  0  0  0  0  0  0  0  0  0  0  0
  141.1910   76.6280  218.0610 C   0  0  0  0  0  0  0  0  0  0  0  0
  142.3570   77.1370  218.8680 C   0  0  0  0  0  0  0  0  0  0  0  0
  142.0370   78.2910  219.7360 C   0  0  0  0  0  0  0  0  0  0  0  0
  140.6840   78.1310  220.4560 C   0  0  2  0  0  0  0  0  0  0  0  0
  140.7440   78.8460  221.7140 C   0  0  0  0  0  0  0  0  0  0  0  0
  141.4660   78.3330  222.8970 C   0  0  0  0  0  0  0  0  0  0  0  0
  142.2790   79.5430  223.4530 C   0  0  0  0  0  0  0  0  0  0  0  0
  141.2600   80.6570  223.5200 C   0  0  0  0  0  0  0  0  0  0  0  0
  139.8270   80.1860  223.5110 C   0  0  0  0  0  0  0  0  0  0  0  0
  139.4560   79.4720  222.2200 C   0  0  0  0  0  0  0  0  0  0  0  0
  140.3180   71.4550  223.6910 C   0  0  0  0  0  0  0  0  0  0  0  0
  139.6700   70.2530  223.4830 C   0  0  0  0  0  0  0  0  0  0  0  0
  139.4280   69.4680  224.6050 C   0  0  0  0  0  0  0  0  0  0  0  0
  139.8300   69.8960  225.8590 C   0  0  0  0  0  0  0  0  0  0  0  0
  139.6130   69.1540  227.0030 C   0  0  0  0  0  0  0  0  0  0  0  0
  140.0250   69.5990  228.2610 C   0  0  0  0  0  0  0  0  0  0  0  0
  140.6730   70.8360  228.3450 C   0  0  0  0  0  0  0  0  0  0  0  0
  140.8980   71.5950  227.1980 C   0  0  0  0  0  0  0  0  0  0  0  0
  140.4750   71.1180  225.9770 C   0  0  0  0  0  0  0  0  0  0  0  0
  140.7050   71.8720  224.8860 N   0  0  0  0  0  0  0  0  0  0  0  0
  139.3240   73.8340  223.1770 H   0  0  0  0  0  0  0  0  0  0  0  0
  141.2208   74.2583  220.9660 H   0  0  0  0  0  0  0  0  0  0  0  0
  139.3594   74.0395  220.5679 H   0  0  0  0  0  0  0  0  0  0  0  0
  139.4960   75.5347  218.6703 H   0  0  0  0  0  0  0  0  0  0  0  0
  139.2116   77.2807  218.3885 H   0  0  0  0  0  0  0  0  0  0  0  0
  141.4431   75.6216  217.6954 H   0  0  0  0  0  0  0  0  0  0  0  0
  141.0333   77.3602  217.2554 H   0  0  0  0  0  0  0  0  0  0  0  0
  142.7199   76.3167  219.5048 H   0  0  0  0  0  0  0  0  0  0  0  0
  143.1122   77.4839  218.1474 H   0  0  0  0  0  0  0  0  0  0  0  0
  142.8291   78.3938  220.4924 H   0  0  0  0  0  0  0  0  0  0  0  0
  141.9711   79.1828  219.0954 H   0  0  0  0  0  0  0  0  0  0  0  0
  139.7969   78.6430  220.0549 H   0  0  0  0  0  0  0  0  0  0  0  0
  141.4288   79.5782  221.2613 H   0  0  0  0  0  0  0  0  0  0  0  0
  140.7543   77.9694  223.6528 H   0  0  0  0  0  0  0  0  0  0  0  0
  142.1213   77.4883  222.6379 H   0  0  0  0  0  0  0  0  0  0  0  0
  142.6822   79.3193  224.4517 H   0  0  0  0  0  0  0  0  0  0  0  0
  143.1481   79.7965  222.8282 H   0  0  0  0  0  0  0  0  0  0  0  0
  141.4305   81.2251  224.4464 H   0  0  0  0  0  0  0  0  0  0  0  0
  141.3980   81.2663  222.6146 H   0  0  0  0  0  0  0  0  0  0  0  0
  139.6782   79.4933  224.3524 H   0  0  0  0  0  0  0  0  0  0  0  0
  139.1831   81.0736  223.5987 H   0  0  0  0  0  0  0  0  0  0  0  0
  138.7020   78.6950  222.4141 H   0  0  0  0  0  0  0  0  0  0  0  0
  139.0229   80.1638  221.4826 H   0  0  0  0  0  0  0  0  0  0  0  0
  139.3601   69.9320  222.4776 H   0  0  0  0  0  0  0  0  0  0  0  0
  138.9143   68.5015  224.4957 H   0  0  0  0  0  0  0  0  0  0  0  0
  139.1007   68.1840  226.9212 H   0  0  0  0  0  0  0  0  0  0  0  0
  139.8449   68.9933  229.1614 H   0  0  0  0  0  0  0  0  0  0  0  0
  141.0073   71.2122  229.3231 H   0  0  0  0  0  0  0  0  0  0  0  0
  141.4090   72.5667  227.2672 H   0  0  0  0  0  0  0  0  0  0  0  0
  1  2  2  0
  2  3  1  0
  3  4  1  0
  4  5  1  0
  5  6  2  0
  5  7  1  0
  7  8  1  0
  8  9  1  0
  9 10  1  0
 10 11  1  0
 11 12  1  0
 12 13  1  0
 13 14  1  0
 14 15  1  0
 15 16  1  0
 16 17  1  0
 17 18  1  0
  2 19  1  0
 19 20  2  0
 20 21  1  0
 21 22  2  0
 22 23  1  0
 23 24  2  0
 24 25  1  0
 25 26  2  0
 26 27  1  0
 27 28  2  0
 12  7  1  0
 18 13  1  0
 28 19  1  0
 27 22  1  0
  3 29  1  0
  4 30  1  0
  4 31  1  0
  8 32  1  0
  8 33  1  0
  9 34  1  0
  9 35  1  0
 10 36  1  0
 10 37  1  0
 11 38  1  0
 11 39  1  0
 12 40  1  6
 13 41  1  0
 14 42  1  0
 14 43  1  0
 15 44  1  0
 15 45  1  0
 16 46  1  0
 16 47  1  0
 17 48  1  0
 17 49  1  0
 18 50  1  0
 18 51  1  0
 20 52  1  0
 21 53  1  0
 23 54  1  0
 24 55  1  0
 25 56  1  0
 26 57  1  0
M  END
>  <smiles>  (42) 
O=C(NCC(=O)N1CCCCC1C1CCCCC1)c1ccc2ccccc2n1

>  <score_type>  (42) 
oracle

>  <origin>  (42) 
autodockgpu

>  <m_score__min__energy>  (42) 
-9.3100000000000005

>  <m_primary>  (42) 
energy

>  <rmsd>  (42) 
1.7822842438196658

>  <m_score__min__rmsd>  (42) 
1.7822842438196658

>  <meeko>  (42) 
{"free_energy": -8.66, "intermolecular_energy": -10.15, "internal_energy": -1.53, "cluster_size": 31, "cluster_id": 2, "rank_in_cluster": 10}

>  <energy>  (42) 
-8.67

>  <cluster_rmsd>  (42) 
0.0

>  <cluster>  (42) 
3

$$$$

     RDKit          3D

 57 60  0  0  0  0  0  0  0  0999 V2000
  140.9470   73.5410  220.6170 O   0  0  0  0  0  0  0  0  0  0  0  0
  140.4930   74.4130  221.4000 C   0  0  0  0  0  0  0  0  0  0  0  0
  139.4800   73.9390  222.3220 N   0  0  0  0  0  0  0  0  0  0  0  0
  139.0380   72.6110  222.3550 C   0  0  0  0  0  0  0  0  0  0  0  0
  139.8360   71.4930  222.8260 C   0  0  0  0  0  0  0  0  0  0  0  0
  141.1000   71.7870  222.9560 O   0  0  0  0  0  0  0  0  0  0  0  0
  139.5210   70.1690  223.1620 N   0  0  0  0  0  0  0  0  0  0  0  0
  139.1520   69.1810  222.0840 C   0  0  0  0  0  0  0  0  0  0  0  0
  137.7740   68.7330  222.3080 C   0  0  0  0  0  0  0  0  0  0  0  0
  137.1550   69.1910  223.6020 C   0  0  0  0  0  0  0  0  0  0  0  0
  138.0550   69.0980  224.7720 C   0  0  0  0  0  0  0  0  0  0  0  0
  139.4860   69.5750  224.4560 C   0  0  2  0  0  0  0  0  0  0  0  0
  140.0730   70.1070  225.6680 C   0  0  0  0  0  0  0  0  0  0  0  0
  141.4820   70.5440  225.7530 C   0  0  0  0  0  0  0  0  0  0  0  0
  141.4540   71.9160  226.4960 C   0  0  0  0  0  0  0  0  0  0  0  0
  140.5930   71.6470  227.7090 C   0  0  0  0  0  0  0  0  0  0  0  0
  140.4550   70.1860  228.0580 C   0  0  0  0  0  0  0  0  0  0  0  0
  139.7540   69.3890  226.9680 C   0  0  0  0  0  0  0  0  0  0  0  0
  140.9320   75.8040  221.4020 C   0  0  0  0  0  0  0  0  0  0  0  0
  141.6700   76.2230  220.3130 C   0  0  0  0  0  0  0  0  0  0  0  0
  142.0910   77.5480  220.3120 C   0  0  0  0  0  0  0  0  0  0  0  0
  141.7690   78.3850  221.3670 C   0  0  0  0  0  0  0  0  0  0  0  0
  142.1630   79.7080  221.4130 C   0  0  0  0  0  0  0  0  0  0  0  0
  141.8300   80.5400  222.4840 C   0  0  0  0  0  0  0  0  0  0  0  0
  141.0760   80.0000  223.5320 C   0  0  0  0  0  0  0  0  0  0  0  0
  140.6730   78.6670  223.4980 C   0  0  0  0  0  0  0  0  0  0  0  0
  141.0230   77.8820  222.4210 C   0  0  0  0  0  0  0  0  0  0  0  0
  140.6210   76.5970  222.4150 N   0  0  0  0  0  0  0  0  0  0  0  0
  139.1190   74.7130  222.9630 H   0  0  0  0  0  0  0  0  0  0  0  0
  138.1342   72.6150  222.9820 H   0  0  0  0  0  0  0  0  0  0  0  0
  138.9841   72.3859  221.2796 H   0  0  0  0  0  0  0  0  0  0  0  0
  139.2288   69.6630  221.0982 H   0  0  0  0  0  0  0  0  0  0  0  0
  139.8356   68.3198  222.1152 H   0  0  0  0  0  0  0  0  0  0  0  0
  137.1543   69.1110  221.4814 H   0  0  0  0  0  0  0  0  0  0  0  0
  137.8138   67.6349  222.3596 H   0  0  0  0  0  0  0  0  0  0  0  0
  136.8489   70.2411  223.4851 H   0  0  0  0  0  0  0  0  0  0  0  0
  136.3073   68.5191  223.8016 H   0  0  0  0  0  0  0  0  0  0  0  0
  137.6464   69.7206  225.5816 H   0  0  0  0  0  0  0  0  0  0  0  0
  138.1130   68.0394  225.0654 H   0  0  0  0  0  0  0  0  0  0  0  0
  140.2678   68.8301  224.2466 H   0  0  0  0  0  0  0  0  0  0  0  0
  139.4967   71.0349  225.5379 H   0  0  0  0  0  0  0  0  0  0  0  0
  142.0769   69.8128  226.3200 H   0  0  0  0  0  0  0  0  0  0  0  0
  141.9412   70.6307  224.7572 H   0  0  0  0  0  0  0  0  0  0  0  0
  142.4677   72.2217  226.7941 H   0  0  0  0  0  0  0  0  0  0  0  0
  141.0662   72.7329  225.8697 H   0  0  0  0  0  0  0  0  0  0  0  0
  141.0383   72.1668  228.5701 H   0  0  0  0  0  0  0  0  0  0  0  0
  139.5835   72.0107  227.4668 H   0  0  0  0  0  0  0  0  0  0  0  0
  141.4590   69.7642  228.2128 H   0  0  0  0  0  0  0  0  0  0  0  0
  139.8418   70.1169  228.9686 H   0  0  0  0  0  0  0  0  0  0  0  0
  140.1356   68.3577  226.9407 H   0  0  0  0  0  0  0  0  0  0  0  0
  138.6698   69.3262  227.1430 H   0  0  0  0  0  0  0  0  0  0  0  0
  141.9134   75.5407  219.4852 H   0  0  0  0  0  0  0  0  0  0  0  0
  142.6830   77.9334  219.4688 H   0  0  0  0  0  0  0  0  0  0  0  0
  142.7560   80.1180  220.5822 H   0  0  0  0  0  0  0  0  0  0  0  0
  142.1518   81.5917  222.5033 H   0  0  0  0  0  0  0  0  0  0  0  0
  140.7997   80.6325  224.3885 H   0  0  0  0  0  0  0  0  0  0  0  0
  140.0808   78.2449  224.3233 H   0  0  0  0  0  0  0  0  0  0  0  0
  1  2  2  0
  2  3  1  0
  3  4  1  0
  4  5  1  0
  5  6  2  0
  5  7  1  0
  7  8  1  0
  8  9  1  0
  9 10  1  0
 10 11  1  0
 11 12  1  0
 12 13  1  0
 13 14  1  0
 14 15  1  0
 15 16  1  0
 16 17  1  0
 17 18  1  0
  2 19  1  0
 19 20  2  0
 20 21  1  0
 21 22  2  0
 22 23  1  0
 23 24  2  0
 24 25  1  0
 25 26  2  0
 26 27  1  0
 27 28  2  0
 12  7  1  0
 18 13  1  0
 28 19  1  0
 27 22  1  0
  3 29  1  0
  4 30  1  0
  4 31  1  0
  8 32  1  0
  8 33  1  0
  9 34  1  0
  9 35  1  0
 10 36  1  0
 10 37  1  0
 11 38  1  0
 11 39  1  0
 12 40  1  6
 13 41  1  0
 14 42  1  0
 14 43  1  0
 15 44  1  0
 15 45  1  0
 16 46  1  0
 16 47  1  0
 17 48  1  0
 17 49  1  0
 18 50  1  0
 18 51  1  0
 20 52  1  0
 21 53  1  0
 23 54  1  0
 24 55  1  0
 25 56  1  0
 26 57  1  0
M  END
>  <smiles>  (43) 
O=C(NCC(=O)N1CCCCC1C1CCCCC1)c1ccc2ccccc2n1

>  <score_type>  (43) 
oracle

>  <origin>  (43) 
autodockgpu

>  <m_score__min__energy>  (43) 
-9.3100000000000005

>  <m_primary>  (43) 
energy

>  <rmsd>  (43) 
8.343592199999838

>  <m_score__min__rmsd>  (43) 
8.343592199999838

>  <meeko>  (43) 
{"free_energy": -8.79, "intermolecular_energy": -10.28, "internal_energy": -1.73, "cluster_size": 10, "cluster_id": 1, "rank_in_cluster": 9}

>  <energy>  (43) 
-8.63

>  <cluster_rmsd>  (43) 
0.16

>  <cluster>  (43) 
3

$$$$

     RDKit          3D

 57 60  0  0  0  0  0  0  0  0999 V2000
  140.7950   71.7490  221.3840 O   0  0  0  0  0  0  0  0  0  0  0  0
  140.2650   72.1740  222.4410 C   0  0  0  0  0  0  0  0  0  0  0  0
  139.7340   73.5210  222.3600 N   0  0  0  0  0  0  0  0  0  0  0  0
  139.7930   74.2970  221.1970 C   0  0  0  0  0  0  0  0  0  0  0  0
  140.4510   75.5890  221.1050 C   0  0  0  0  0  0  0  0  0  0  0  0
  141.0710   75.9250  222.2040 O   0  0  0  0  0  0  0  0  0  0  0  0
  140.5490   76.5410  220.0820 N   0  0  0  0  0  0  0  0  0  0  0  0
  140.2420   76.1560  218.6560 C   0  0  0  0  0  0  0  0  0  0  0  0
  141.4560   76.3230  217.8520 C   0  0  0  0  0  0  0  0  0  0  0  0
  142.6060   76.9910  218.5600 C   0  0  0  0  0  0  0  0  0  0  0  0
  142.2180   78.1580  219.3810 C   0  0  0  0  0  0  0  0  0  0  0  0
  140.9290   77.9090  220.1880 C   0  0  2  0  0  0  0  0  0  0  0  0
  140.9830   78.7000  221.4000 C   0  0  0  0  0  0  0  0  0  0  0  0
  139.8170   79.4360  221.9330 C   0  0  0  0  0  0  0  0  0  0  0  0
  139.7910   79.1330  223.4630 C   0  0  0  0  0  0  0  0  0  0  0  0
  141.2120   79.3970  223.9040 C   0  0  0  0  0  0  0  0  0  0  0  0
  142.0070   80.2540  222.9500 C   0  0  0  0  0  0  0  0  0  0  0  0
  142.1960   79.5950  221.5920 C   0  0  0  0  0  0  0  0  0  0  0  0
  140.1780   71.3960  223.6720 C   0  0  0  0  0  0  0  0  0  0  0  0
  139.6050   70.1430  223.5740 C   0  0  0  0  0  0  0  0  0  0  0  0
  139.5200   69.3980  224.7440 C   0  0  0  0  0  0  0  0  0  0  0  0
  139.9970   69.9140  225.9380 C   0  0  0  0  0  0  0  0  0  0  0  0
  139.9360   69.2140  227.1270 C   0  0  0  0  0  0  0  0  0  0  0  0
  140.4210   69.7480  228.3230 C   0  0  0  0  0  0  0  0  0  0  0  0
  140.9810   71.0300  228.2960 C   0  0  0  0  0  0  0  0  0  0  0  0
  141.0480   71.7460  227.1030 C   0  0  0  0  0  0  0  0  0  0  0  0
  140.5580   71.1810  225.9460 C   0  0  0  0  0  0  0  0  0  0  0  0
  140.6350   71.8960  224.8080 N   0  0  0  0  0  0  0  0  0  0  0  0
  139.3000   73.8430  223.2810 H   0  0  0  0  0  0  0  0  0  0  0  0
  140.2796   73.6623  220.4418 H   0  0  0  0  0  0  0  0  0  0  0  0
  138.7392   74.5962  221.0967 H   0  0  0  0  0  0  0  0  0  0  0  0
  139.9146   75.1065  218.6183 H   0  0  0  0  0  0  0  0  0  0  0  0
  139.4394   76.7954  218.2598 H   0  0  0  0  0  0  0  0  0  0  0  0
  141.7889   75.3263  217.5269 H   0  0  0  0  0  0  0  0  0  0  0  0
  141.1822   76.9874  217.0191 H   0  0  0  0  0  0  0  0  0  0  0  0
  143.0831   76.2498  219.2180 H   0  0  0  0  0  0  0  0  0  0  0  0
  143.2830   77.3660  217.7783 H   0  0  0  0  0  0  0  0  0  0  0  0
  143.0351   78.3836  220.0820 H   0  0  0  0  0  0  0  0  0  0  0  0
  142.0277   78.9989  218.6979 H   0  0  0  0  0  0  0  0  0  0  0  0
  139.9747   78.3070  219.8126 H   0  0  0  0  0  0  0  0  0  0  0  0
  141.0305   77.7774  221.9971 H   0  0  0  0  0  0  0  0  0  0  0  0
  139.9320   80.5158  221.7576 H   0  0  0  0  0  0  0  0  0  0  0  0
  138.8825   79.1273  221.4417 H   0  0  0  0  0  0  0  0  0  0  0  0
  139.0883   79.8005  223.9833 H   0  0  0  0  0  0  0  0  0  0  0  0
  139.4572   78.1096  223.6895 H   0  0  0  0  0  0  0  0  0  0  0  0
  141.1818   79.9040  224.8797 H   0  0  0  0  0  0  0  0  0  0  0  0
  141.7162   78.4203  223.9464 H   0  0  0  0  0  0  0  0  0  0  0  0
  141.4778   81.2079  222.8083 H   0  0  0  0  0  0  0  0  0  0  0  0
  143.0041   80.4052  223.3891 H   0  0  0  0  0  0  0  0  0  0  0  0
  142.2412   80.3559  220.7989 H   0  0  0  0  0  0  0  0  0  0  0  0
  143.1350   79.0240  221.5437 H   0  0  0  0  0  0  0  0  0  0  0  0
  139.2334   69.7532  222.6149 H   0  0  0  0  0  0  0  0  0  0  0  0
  139.0718   68.3937  224.7220 H   0  0  0  0  0  0  0  0  0  0  0  0
  139.4928   68.2072  227.1322 H   0  0  0  0  0  0  0  0  0  0  0  0
  140.3643   69.1761  229.2609 H   0  0  0  0  0  0  0  0  0  0  0  0
  141.3710   71.4754  229.2231 H   0  0  0  0  0  0  0  0  0  0  0  0
  141.4884   72.7538  227.0849 H   0  0  0  0  0  0  0  0  0  0  0  0
  1  2  2  0
  2  3  1  0
  3  4  1  0
  4  5  1  0
  5  6  2  0
  5  7  1  0
  7  8  1  0
  8  9  1  0
  9 10  1  0
 10 11  1  0
 11 12  1  0
 12 13  1  0
 13 14  1  0
 14 15  1  0
 15 16  1  0
 16 17  1  0
 17 18  1  0
  2 19  1  0
 19 20  2  0
 20 21  1  0
 21 22  2  0
 22 23  1  0
 23 24  2  0
 24 25  1  0
 25 26  2  0
 26 27  1  0
 27 28  2  0
 12  7  1  0
 18 13  1  0
 28 19  1  0
 27 22  1  0
  3 29  1  0
  4 30  1  0
  4 31  1  0
  8 32  1  0
  8 33  1  0
  9 34  1  0
  9 35  1  0
 10 36  1  0
 10 37  1  0
 11 38  1  0
 11 39  1  0
 12 40  1  6
 13 41  1  0
 14 42  1  0
 14 43  1  0
 15 44  1  0
 15 45  1  0
 16 46  1  0
 16 47  1  0
 17 48  1  0
 17 49  1  0
 18 50  1  0
 18 51  1  0
 20 52  1  0
 21 53  1  0
 23 54  1  0
 24 55  1  0
 25 56  1  0
 26 57  1  0
M  END
>  <smiles>  (44) 
O=C(NCC(=O)N1CCCCC1C1CCCCC1)c1ccc2ccccc2n1

>  <score_type>  (44) 
oracle

>  <origin>  (44) 
autodockgpu

>  <m_score__min__energy>  (44) 
-9.3100000000000005

>  <m_primary>  (44) 
energy

>  <rmsd>  (44) 
1.5797490835754955

>  <m_score__min__rmsd>  (44) 
1.5797490835754955

>  <meeko>  (44) 
{"free_energy": -8.63, "intermolecular_energy": -10.12, "internal_energy": -1.49, "cluster_size": 31, "cluster_id": 2, "rank_in_cluster": 13}

>  <energy>  (44) 
-8.44

>  <cluster_rmsd>  (44) 
0.39

>  <cluster>  (44) 
3

$$$$

     RDKit          3D

 57 60  0  0  0  0  0  0  0  0999 V2000
  139.9140   71.2190  221.2100 O   0  0  0  0  0  0  0  0  0  0  0  0
  139.8230   71.8260  222.3070 C   0  0  0  0  0  0  0  0  0  0  0  0
  139.5990   73.2540  222.1980 N   0  0  0  0  0  0  0  0  0  0  0  0
  139.4830   73.9180  220.9720 C   0  0  0  0  0  0  0  0  0  0  0  0
  140.6060   74.4450  220.2160 C   0  0  0  0  0  0  0  0  0  0  0  0
  140.7120   73.9180  219.0270 O   0  0  0  0  0  0  0  0  0  0  0  0
  141.5930   75.3960  220.5070 N   0  0  0  0  0  0  0  0  0  0  0  0
  141.2010   76.7800  220.9630 C   0  0  0  0  0  0  0  0  0  0  0  0
  141.6710   77.7530  219.9730 C   0  0  0  0  0  0  0  0  0  0  0  0
  142.5580   77.1890  218.8930 C   0  0  0  0  0  0  0  0  0  0  0  0
  143.5740   76.2310  219.3800 C   0  0  0  0  0  0  0  0  0  0  0  0
  143.0060   75.2490  220.4240 C   0  0  2  0  0  0  0  0  0  0  0  0
  143.7430   74.0060  220.3370 C   0  0  0  0  0  0  0  0  0  0  0  0
  143.2170   72.7230  220.8470 C   0  0  0  0  0  0  0  0  0  0  0  0
  143.5040   71.6740  219.7280 C   0  0  0  0  0  0  0  0  0  0  0  0
  144.9600   71.9010  219.3910 C   0  0  0  0  0  0  0  0  0  0  0  0
  145.7350   72.6340  220.4580 C   0  0  0  0  0  0  0  0  0  0  0  0
  145.2210   74.0480  220.6850 C   0  0  0  0  0  0  0  0  0  0  0  0
  139.9320   71.1700  223.6050 C   0  0  0  0  0  0  0  0  0  0  0  0
  139.5290   69.8510  223.6690 C   0  0  0  0  0  0  0  0  0  0  0  0
  139.6300   69.2220  224.9040 C   0  0  0  0  0  0  0  0  0  0  0  0
  140.1170   69.9120  226.0020 C   0  0  0  0  0  0  0  0  0  0  0  0
  140.2370   69.3330  227.2500 C   0  0  0  0  0  0  0  0  0  0  0  0
  140.7300   70.0420  228.3480 C   0  0  0  0  0  0  0  0  0  0  0  0
  141.1070   71.3760  228.1590 C   0  0  0  0  0  0  0  0  0  0  0  0
  140.9900   71.9720  226.9050 C   0  0  0  0  0  0  0  0  0  0  0  0
  140.5000   71.2350  225.8490 C   0  0  0  0  0  0  0  0  0  0  0  0
  140.3970   71.8360  224.6490 N   0  0  0  0  0  0  0  0  0  0  0  0
  139.5340   73.7290  223.1520 H   0  0  0  0  0  0  0  0  0  0  0  0
  138.9779   73.2103  220.2981 H   0  0  0  0  0  0  0  0  0  0  0  0
  138.9931   74.8505  221.2890 H   0  0  0  0  0  0  0  0  0  0  0  0
  140.1066   76.8435  221.0534 H   0  0  0  0  0  0  0  0  0  0  0  0
  141.6542   76.9938  221.9422 H   0  0  0  0  0  0  0  0  0  0  0  0
  140.7898   78.2011  219.4907 H   0  0  0  0  0  0  0  0  0  0  0  0
  142.2852   78.4795  220.5253 H   0  0  0  0  0  0  0  0  0  0  0  0
  141.9217   76.6731  218.1588 H   0  0  0  0  0  0  0  0  0  0  0  0
  143.1070   78.0383  218.4601 H   0  0  0  0  0  0  0  0  0  0  0  0
  143.9546   75.6547  218.5239 H   0  0  0  0  0  0  0  0  0  0  0  0
  144.3738   76.8095  219.8653 H   0  0  0  0  0  0  0  0  0  0  0  0
  143.1877   75.4353  221.4928 H   0  0  0  0  0  0  0  0  0  0  0  0
  143.5586   73.9754  219.2530 H   0  0  0  0  0  0  0  0  0  0  0  0
  143.7306   72.4409  221.7779 H   0  0  0  0  0  0  0  0  0  0  0  0
  142.1433   72.7873  221.0773 H   0  0  0  0  0  0  0  0  0  0  0  0
  143.3417   70.6509  220.0981 H   0  0  0  0  0  0  0  0  0  0  0  0
  142.8416   71.7869  218.8570 H   0  0  0  0  0  0  0  0  0  0  0  0
  145.4341   70.9212  219.2320 H   0  0  0  0  0  0  0  0  0  0  0  0
  144.9812   72.5356  218.4928 H   0  0  0  0  0  0  0  0  0  0  0  0
  145.6534   72.0735  221.4010 H   0  0  0  0  0  0  0  0  0  0  0  0
  146.7793   72.7085  220.1204 H   0  0  0  0  0  0  0  0  0  0  0  0
  145.3599   74.3430  221.7355 H   0  0  0  0  0  0  0  0  0  0  0  0
  145.7632   74.7818  220.0705 H   0  0  0  0  0  0  0  0  0  0  0  0
  139.1458   69.3226  222.7836 H   0  0  0  0  0  0  0  0  0  0  0  0
  139.3218   68.1714  225.0102 H   0  0  0  0  0  0  0  0  0  0  0  0
  139.9357   68.2835  227.3832 H   0  0  0  0  0  0  0  0  0  0  0  0
  140.8194   69.5643  229.3348 H   0  0  0  0  0  0  0  0  0  0  0  0
  141.4984   71.9583  229.0062 H   0  0  0  0  0  0  0  0  0  0  0  0
  141.2861   73.0213  226.7594 H   0  0  0  0  0  0  0  0  0  0  0  0
  1  2  2  0
  2  3  1  0
  3  4  1  0
  4  5  1  0
  5  6  2  0
  5  7  1  0
  7  8  1  0
  8  9  1  0
  9 10  1  0
 10 11  1  0
 11 12  1  0
 12 13  1  0
 13 14  1  0
 14 15  1  0
 15 16  1  0
 16 17  1  0
 17 18  1  0
  2 19  1  0
 19 20  2  0
 20 21  1  0
 21 22  2  0
 22 23  1  0
 23 24  2  0
 24 25  1  0
 25 26  2  0
 26 27  1  0
 27 28  2  0
 12  7  1  0
 18 13  1  0
 28 19  1  0
 27 22  1  0
  3 29  1  0
  4 30  1  0
  4 31  1  0
  8 32  1  0
  8 33  1  0
  9 34  1  0
  9 35  1  0
 10 36  1  0
 10 37  1  0
 11 38  1  0
 11 39  1  0
 12 40  1  1
 13 41  1  0
 14 42  1  0
 14 43  1  0
 15 44  1  0
 15 45  1  0
 16 46  1  0
 16 47  1  0
 17 48  1  0
 17 49  1  0
 18 50  1  0
 18 51  1  0
 20 52  1  0
 21 53  1  0
 23 54  1  0
 24 55  1  0
 25 56  1  0
 26 57  1  0
M  END
>  <smiles>  (45) 
O=C(NCC(=O)N1CCCCC1C1CCCCC1)c1ccc2ccccc2n1

>  <score_type>  (45) 
oracle

>  <origin>  (45) 
autodockgpu

>  <m_score__min__energy>  (45) 
-9.3100000000000005

>  <m_primary>  (45) 
energy

>  <rmsd>  (45) 
2.3374753778437722

>  <m_score__min__rmsd>  (45) 
2.3374753778437722

>  <meeko>  (45) 
{"free_energy": -8.39, "intermolecular_energy": -9.88, "internal_energy": -1.94, "cluster_size": 31, "cluster_id": 2, "rank_in_cluster": 23}

>  <energy>  (45) 
-8.24

>  <cluster_rmsd>  (45) 
0.0

>  <cluster>  (45) 
4

$$$$

     RDKit          3D

 57 60  0  0  0  0  0  0  0  0999 V2000
  133.7160   69.9200  226.7880 O   0  0  0  0  0  0  0  0  0  0  0  0
  133.9970   71.0470  226.3070 C   0  0  0  0  0  0  0  0  0  0  0  0
  135.0850   71.0480  225.3490 N   0  0  0  0  0  0  0  0  0  0  0  0
  135.7740   69.8890  224.9730 C   0  0  0  0  0  0  0  0  0  0  0  0
  136.9620   69.8760  224.1370 C   0  0  0  0  0  0  0  0  0  0  0  0
  137.1470   68.7350  223.5310 O   0  0  0  0  0  0  0  0  0  0  0  0
  137.9440   70.8360  223.8560 N   0  0  0  0  0  0  0  0  0  0  0  0
  137.6990   71.8840  222.8000 C   0  0  0  0  0  0  0  0  0  0  0  0
  138.6840   71.7110  221.7270 C   0  0  0  0  0  0  0  0  0  0  0  0
  139.7700   70.7070  222.0130 C   0  0  0  0  0  0  0  0  0  0  0  0
  140.3240   70.7840  223.3820 C   0  0  0  0  0  0  0  0  0  0  0  0
  139.2300   70.9770  224.4510 C   0  0  2  0  0  0  0  0  0  0  0  0
  139.6820   70.3750  225.6880 C   0  0  0  0  0  0  0  0  0  0  0  0
  140.8700   70.8510  226.4260 C   0  0  0  0  0  0  0  0  0  0  0  0
  140.4360   70.9210  227.9230 C   0  0  0  0  0  0  0  0  0  0  0  0
  139.7870   69.5790  228.1700 C   0  0  0  0  0  0  0  0  0  0  0  0
  140.1600   68.5170  227.1660 C   0  0  0  0  0  0  0  0  0  0  0  0
  139.6960   68.8570  225.7570 C   0  0  0  0  0  0  0  0  0  0  0  0
  133.3010   72.2760  226.6680 C   0  0  0  0  0  0  0  0  0  0  0  0
  132.0430   72.1370  227.2200 C   0  0  0  0  0  0  0  0  0  0  0  0
  131.3750   73.3060  227.5640 C   0  0  0  0  0  0  0  0  0  0  0  0
  131.9690   74.5390  227.3530 C   0  0  0  0  0  0  0  0  0  0  0  0
  131.3480   75.7290  227.6790 C   0  0  0  0  0  0  0  0  0  0  0  0
  131.9610   76.9650  227.4600 C   0  0  0  0  0  0  0  0  0  0  0  0
  133.2400   76.9780  226.8930 C   0  0  0  0  0  0  0  0  0  0  0  0
  133.8770   75.7850  226.5600 C   0  0  0  0  0  0  0  0  0  0  0  0
  133.2370   74.5880  226.7940 C   0  0  0  0  0  0  0  0  0  0  0  0
  133.8750   73.4500  226.4620 N   0  0  0  0  0  0  0  0  0  0  0  0
  135.2940   72.0250  224.9720 H   0  0  0  0  0  0  0  0  0  0  0  0
  136.0683   69.4008  225.9138 H   0  0  0  0  0  0  0  0  0  0  0  0
  135.0415   69.4256  224.2957 H   0  0  0  0  0  0  0  0  0  0  0  0
  136.6838   71.7684  222.3925 H   0  0  0  0  0  0  0  0  0  0  0  0
  137.7962   72.8879  223.2391 H   0  0  0  0  0  0  0  0  0  0  0  0
  138.1491   71.3861  220.8224 H   0  0  0  0  0  0  0  0  0  0  0  0
  139.1870   72.6826  221.6130 H   0  0  0  0  0  0  0  0  0  0  0  0
  139.3550   69.6990  221.8654 H   0  0  0  0  0  0  0  0  0  0  0  0
  140.5977   70.9332  221.3248 H   0  0  0  0  0  0  0  0  0  0  0  0
  140.8661   69.8511  223.5963 H   0  0  0  0  0  0  0  0  0  0  0  0
  140.9909   71.6578  223.4243 H   0  0  0  0  0  0  0  0  0  0  0  0
  139.0435   71.9830  224.8550 H   0  0  0  0  0  0  0  0  0  0  0  0
  138.8262   70.8207  226.2161 H   0  0  0  0  0  0  0  0  0  0  0  0
  141.7064   70.1474  226.3015 H   0  0  0  0  0  0  0  0  0  0  0  0
  141.2132   71.8285  226.0563 H   0  0  0  0  0  0  0  0  0  0  0  0
  141.3083   71.0616  228.5783 H   0  0  0  0  0  0  0  0  0  0  0  0
  139.7631   71.7654  228.1331 H   0  0  0  0  0  0  0  0  0  0  0  0
  140.0868   69.2296  229.1690 H   0  0  0  0  0  0  0  0  0  0  0  0
  138.7014   69.7318  228.0796 H   0  0  0  0  0  0  0  0  0  0  0  0
  141.2544   68.4065  227.1598 H   0  0  0  0  0  0  0  0  0  0  0  0
  139.6605   67.5839  227.4659 H   0  0  0  0  0  0  0  0  0  0  0  0
  140.3935   68.4450  225.0129 H   0  0  0  0  0  0  0  0  0  0  0  0
  138.7058   68.4300  225.5398 H   0  0  0  0  0  0  0  0  0  0  0  0
  131.5907   71.1471  227.3800 H   0  0  0  0  0  0  0  0  0  0  0  0
  130.3692   73.2516  228.0062 H   0  0  0  0  0  0  0  0  0  0  0  0
  130.3422   75.7026  228.1237 H   0  0  0  0  0  0  0  0  0  0  0  0
  131.4517   77.9030  227.7262 H   0  0  0  0  0  0  0  0  0  0  0  0
  133.7461   77.9372  226.7089 H   0  0  0  0  0  0  0  0  0  0  0  0
  134.8824   75.7986  226.1140 H   0  0  0  0  0  0  0  0  0  0  0  0
  1  2  2  0
  2  3  1  0
  3  4  1  0
  4  5  1  0
  5  6  2  0
  5  7  1  0
  7  8  1  0
  8  9  1  0
  9 10  1  0
 10 11  1  0
 11 12  1  0
 12 13  1  0
 13 14  1  0
 14 15  1  0
 15 16  1  0
 16 17  1  0
 17 18  1  0
  2 19  1  0
 19 20  2  0
 20 21  1  0
 21 22  2  0
 22 23  1  0
 23 24  2  0
 24 25  1  0
 25 26  2  0
 26 27  1  0
 27 28  2  0
 12  7  1  0
 18 13  1  0
 28 19  1  0
 27 22  1  0
  3 29  1  0
  4 30  1  0
  4 31  1  0
  8 32  1  0
  8 33  1  0
  9 34  1  0
  9 35  1  0
 10 36  1  0
 10 37  1  0
 11 38  1  0
 11 39  1  0
 12 40  1  1
 13 41  1  0
 14 42  1  0
 14 43  1  0
 15 44  1  0
 15 45  1  0
 16 46  1  0
 16 47  1  0
 17 48  1  0
 17 49  1  0
 18 50  1  0
 18 51  1  0
 20 52  1  0
 21 53  1  0
 23 54  1  0
 24 55  1  0
 25 56  1  0
 26 57  1  0
M  END
>  <smiles>  (46) 
O=C(NCC(=O)N1CCCCC1C1CCCCC1)c1ccc2ccccc2n1

>  <score_type>  (46) 
oracle

>  <origin>  (46) 
autodockgpu

>  <m_score__min__energy>  (46) 
-9.3100000000000005

>  <m_primary>  (46) 
energy

>  <rmsd>  (46) 
8.013057041912099

>  <m_score__min__rmsd>  (46) 
8.013057041912099

>  <meeko>  (46) 
{"free_energy": -8.44, "intermolecular_energy": -9.93, "internal_energy": -1.67, "cluster_size": 3, "cluster_id": 3, "rank_in_cluster": 3}

>  <energy>  (46) 
-8.22

>  <cluster_rmsd>  (46) 
0.8

>  <cluster>  (46) 
4

$$$$

     RDKit          3D

 57 60  0  0  0  0  0  0  0  0999 V2000
  140.8150   71.6510  221.3270 O   0  0  0  0  0  0  0  0  0  0  0  0
  140.2040   72.0620  222.3460 C   0  0  0  0  0  0  0  0  0  0  0  0
  139.5320   73.3360  222.1830 N   0  0  0  0  0  0  0  0  0  0  0  0
  139.5460   74.0600  220.9860 C   0  0  0  0  0  0  0  0  0  0  0  0
  140.7520   74.4380  220.2710 C   0  0  0  0  0  0  0  0  0  0  0  0
  141.0750   73.5930  219.3300 O   0  0  0  0  0  0  0  0  0  0  0  0
  141.6350   75.5200  220.3910 N   0  0  0  0  0  0  0  0  0  0  0  0
  141.1330   76.8600  220.8680 C   0  0  0  0  0  0  0  0  0  0  0  0
  141.3220   77.8420  219.7970 C   0  0  0  0  0  0  0  0  0  0  0  0
  142.1110   77.3520  218.6110 C   0  0  0  0  0  0  0  0  0  0  0  0
  143.3050   76.5530  218.9640 C   0  0  0  0  0  0  0  0  0  0  0  0
  143.0290   75.5520  220.1030 C   0  0  2  0  0  0  0  0  0  0  0  0
  143.9050   74.4110  219.9360 C   0  0  0  0  0  0  0  0  0  0  0  0
  145.2650   74.3510  220.5100 C   0  0  0  0  0  0  0  0  0  0  0  0
  145.3880   72.9370  221.1570 C   0  0  0  0  0  0  0  0  0  0  0  0
  144.9020   72.0040  220.0710 C   0  0  0  0  0  0  0  0  0  0  0  0
  144.9220   72.6030  218.6870 C   0  0  0  0  0  0  0  0  0  0  0  0
  143.9820   73.7910  218.5510 C   0  0  0  0  0  0  0  0  0  0  0  0
  140.1610   71.3350  223.6090 C   0  0  0  0  0  0  0  0  0  0  0  0
  139.6050   70.0710  223.5790 C   0  0  0  0  0  0  0  0  0  0  0  0
  139.5600   69.3750  224.7810 C   0  0  0  0  0  0  0  0  0  0  0  0
  140.0580   69.9480  225.9400 C   0  0  0  0  0  0  0  0  0  0  0  0
  140.0380   69.2980  227.1580 C   0  0  0  0  0  0  0  0  0  0  0  0
  140.5440   69.8890  228.3180 C   0  0  0  0  0  0  0  0  0  0  0  0
  141.0840   71.1760  228.2230 C   0  0  0  0  0  0  0  0  0  0  0  0
  141.1100   71.8430  227.0000 C   0  0  0  0  0  0  0  0  0  0  0  0
  140.6000   71.2220  225.8800 C   0  0  0  0  0  0  0  0  0  0  0  0
  140.6380   71.8900  224.7110 N   0  0  0  0  0  0  0  0  0  0  0  0
  139.0320   73.6490  223.0730 H   0  0  0  0  0  0  0  0  0  0  0  0
  138.9528   73.4672  220.2741 H   0  0  0  0  0  0  0  0  0  0  0  0
  139.1987   75.0430  221.3366 H   0  0  0  0  0  0  0  0  0  0  0  0
  140.0644   76.7869  221.1186 H   0  0  0  0  0  0  0  0  0  0  0  0
  141.6902   77.1712  221.7639 H   0  0  0  0  0  0  0  0  0  0  0  0
  140.3288   78.1525  219.4405 H   0  0  0  0  0  0  0  0  0  0  0  0
  141.9074   78.6637  220.2354 H   0  0  0  0  0  0  0  0  0  0  0  0
  141.4500   76.7287  217.9909 H   0  0  0  0  0  0  0  0  0  0  0  0
  142.4742   78.2457  218.0824 H   0  0  0  0  0  0  0  0  0  0  0  0
  143.6313   75.9942  218.0745 H   0  0  0  0  0  0  0  0  0  0  0  0
  144.0825   77.2492  219.3116 H   0  0  0  0  0  0  0  0  0  0  0  0
  143.3359   75.8051  221.1286 H   0  0  0  0  0  0  0  0  0  0  0  0
  143.2799   73.8321  220.6318 H   0  0  0  0  0  0  0  0  0  0  0  0
  146.0204   74.4786  219.7207 H   0  0  0  0  0  0  0  0  0  0  0  0
  145.4302   75.1506  221.2471 H   0  0  0  0  0  0  0  0  0  0  0  0
  146.4320   72.7174  221.4249 H   0  0  0  0  0  0  0  0  0  0  0  0
  144.8125   72.8428  222.0897 H   0  0  0  0  0  0  0  0  0  0  0  0
  145.5448   71.1113  220.0699 H   0  0  0  0  0  0  0  0  0  0  0  0
  143.8514   71.7722  220.3001 H   0  0  0  0  0  0  0  0  0  0  0  0
  145.9459   72.9361  218.4619 H   0  0  0  0  0  0  0  0  0  0  0  0
  144.5840   71.8280  217.9833 H   0  0  0  0  0  0  0  0  0  0  0  0
  144.3820   74.5163  217.8272 H   0  0  0  0  0  0  0  0  0  0  0  0
  142.9903   73.4859  218.1857 H   0  0  0  0  0  0  0  0  0  0  0  0
  139.2158   69.6354  222.6469 H   0  0  0  0  0  0  0  0  0  0  0  0
  139.1269   68.3643  224.8124 H   0  0  0  0  0  0  0  0  0  0  0  0
  139.6114   68.2858  227.2165 H   0  0  0  0  0  0  0  0  0  0  0  0
  140.5186   69.3568  229.2803 H   0  0  0  0  0  0  0  0  0  0  0  0
  141.4910   71.6650  229.1204 H   0  0  0  0  0  0  0  0  0  0  0  0
  141.5335   72.8557  226.9289 H   0  0  0  0  0  0  0  0  0  0  0  0
  1  2  2  0
  2  3  1  0
  3  4  1  0
  4  5  1  0
  5  6  2  0
  5  7  1  0
  7  8  1  0
  8  9  1  0
  9 10  1  0
 10 11  1  0
 11 12  1  0
 12 13  1  0
 13 14  1  0
 14 15  1  0
 15 16  1  0
 16 17  1  0
 17 18  1  0
  2 19  1  0
 19 20  2  0
 20 21  1  0
 21 22  2  0
 22 23  1  0
 23 24  2  0
 24 25  1  0
 25 26  2  0
 26 27  1  0
 27 28  2  0
 12  7  1  0
 18 13  1  0
 28 19  1  0
 27 22  1  0
  3 29  1  0
  4 30  1  0
  4 31  1  0
  8 32  1  0
  8 33  1  0
  9 34  1  0
  9 35  1  0
 10 36  1  0
 10 37  1  0
 11 38  1  0
 11 39  1  0
 12 40  1  1
 13 41  1  0
 14 42  1  0
 14 43  1  0
 15 44  1  0
 15 45  1  0
 16 46  1  0
 16 47  1  0
 17 48  1  0
 17 49  1  0
 18 50  1  0
 18 51  1  0
 20 52  1  0
 21 53  1  0
 23 54  1  0
 24 55  1  0
 25 56  1  0
 26 57  1  0
M  END
>  <smiles>  (47) 
O=C(NCC(=O)N1CCCCC1C1CCCCC1)c1ccc2ccccc2n1

>  <score_type>  (47) 
oracle

>  <origin>  (47) 
autodockgpu

>  <m_score__min__energy>  (47) 
-9.3100000000000005

>  <m_primary>  (47) 
energy

>  <rmsd>  (47) 
2.266481891941542

>  <m_score__min__rmsd>  (47) 
2.266481891941542

>  <meeko>  (47) 
{"free_energy": -8.48, "intermolecular_energy": -9.98, "internal_energy": -1.64, "cluster_size": 31, "cluster_id": 2, "rank_in_cluster": 19}

>  <energy>  (47) 
-7.12

>  <cluster_rmsd>  (47) 
0.0

>  <cluster>  (47) 
5

$$$$

     RDKit          3D

 57 60  0  0  0  0  0  0  0  0999 V2000
  140.7110   71.4200  221.2520 O   0  0  0  0  0  0  0  0  0  0  0  0
  140.1560   71.9090  222.2680 C   0  0  0  0  0  0  0  0  0  0  0  0
  139.5350   73.2030  222.0630 N   0  0  0  0  0  0  0  0  0  0  0  0
  139.5370   73.8640  220.8290 C   0  0  0  0  0  0  0  0  0  0  0  0
  140.7340   74.3260  220.1480 C   0  0  0  0  0  0  0  0  0  0  0  0
  140.9610   73.6930  219.0300 O   0  0  0  0  0  0  0  0  0  0  0  0
  141.6890   75.3050  220.4530 N   0  0  0  0  0  0  0  0  0  0  0  0
  141.2520   76.6720  220.9170 C   0  0  0  0  0  0  0  0  0  0  0  0
  141.6980   77.6670  219.9370 C   0  0  0  0  0  0  0  0  0  0  0  0
  142.6070   77.1390  218.8580 C   0  0  0  0  0  0  0  0  0  0  0  0
  143.6490   76.2090  219.3430 C   0  0  0  0  0  0  0  0  0  0  0  0
  143.1070   75.2020  220.3770 C   0  0  2  0  0  0  0  0  0  0  0  0
  143.8830   73.9830  220.2840 C   0  0  0  0  0  0  0  0  0  0  0  0
  143.4100   72.6880  220.8160 C   0  0  0  0  0  0  0  0  0  0  0  0
  143.7090   71.6390  219.6990 C   0  0  0  0  0  0  0  0  0  0  0  0
  145.1490   71.9110  219.3300 C   0  0  0  0  0  0  0  0  0  0  0  0
  145.9210   72.6790  220.3750 C   0  0  0  0  0  0  0  0  0  0  0  0
  145.3660   74.0770  220.6000 C   0  0  0  0  0  0  0  0  0  0  0  0
  140.1270   71.2500  223.5690 C   0  0  0  0  0  0  0  0  0  0  0  0
  139.5670   69.9890  223.6120 C   0  0  0  0  0  0  0  0  0  0  0  0
  139.5370   69.3570  224.8500 C   0  0  0  0  0  0  0  0  0  0  0  0
  140.0520   69.9880  225.9700 C   0  0  0  0  0  0  0  0  0  0  0  0
  140.0450   69.4030  227.2210 C   0  0  0  0  0  0  0  0  0  0  0  0
  140.5690   70.0530  228.3420 C   0  0  0  0  0  0  0  0  0  0  0  0
  141.1100   71.3320  228.1720 C   0  0  0  0  0  0  0  0  0  0  0  0
  141.1220   71.9320  226.9150 C   0  0  0  0  0  0  0  0  0  0  0  0
  140.5960   71.2560  225.8370 C   0  0  0  0  0  0  0  0  0  0  0  0
  140.6200   71.8600  224.6340 N   0  0  0  0  0  0  0  0  0  0  0  0
  139.0820   73.5830  222.9520 H   0  0  0  0  0  0  0  0  0  0  0  0
  139.0413   73.1792  220.1252 H   0  0  0  0  0  0  0  0  0  0  0  0
  139.0775   74.8233  221.1095 H   0  0  0  0  0  0  0  0  0  0  0  0
  140.1556   76.7012  221.0011 H   0  0  0  0  0  0  0  0  0  0  0  0
  141.6924   76.8919  221.9007 H   0  0  0  0  0  0  0  0  0  0  0  0
  140.8063   78.0923  219.4533 H   0  0  0  0  0  0  0  0  0  0  0  0
  142.2871   78.4071  220.4985 H   0  0  0  0  0  0  0  0  0  0  0  0
  141.9906   76.6097  218.1165 H   0  0  0  0  0  0  0  0  0  0  0  0
  143.1320   78.0080  218.4346 H   0  0  0  0  0  0  0  0  0  0  0  0
  144.0511   75.6511  218.4845 H   0  0  0  0  0  0  0  0  0  0  0  0
  144.4281   76.8083  219.8368 H   0  0  0  0  0  0  0  0  0  0  0  0
  143.2775   75.3849  221.4482 H   0  0  0  0  0  0  0  0  0  0  0  0
  143.6777   73.9362  219.2043 H   0  0  0  0  0  0  0  0  0  0  0  0
  143.9516   72.4313  221.7384 H   0  0  0  0  0  0  0  0  0  0  0  0
  142.3398   72.7189  221.0686 H   0  0  0  0  0  0  0  0  0  0  0  0
  143.5884   70.6143  220.0805 H   0  0  0  0  0  0  0  0  0  0  0  0
  143.0255   71.7225  218.8412 H   0  0  0  0  0  0  0  0  0  0  0  0
  145.6521   70.9461  219.1693 H   0  0  0  0  0  0  0  0  0  0  0  0
  145.1307   72.5379  218.4263 H   0  0  0  0  0  0  0  0  0  0  0  0
  145.8765   72.1250  221.3243 H   0  0  0  0  0  0  0  0  0  0  0  0
  146.9553   72.7843  220.0157 H   0  0  0  0  0  0  0  0  0  0  0  0
  145.5172   74.3867  221.6446 H   0  0  0  0  0  0  0  0  0  0  0  0
  145.8707   74.8222  219.9676 H   0  0  0  0  0  0  0  0  0  0  0  0
  139.1635   69.5069  222.7093 H   0  0  0  0  0  0  0  0  0  0  0  0
  139.1020   68.3507  224.9403 H   0  0  0  0  0  0  0  0  0  0  0  0
  139.6150   68.3974  227.3385 H   0  0  0  0  0  0  0  0  0  0  0  0
  140.5564   69.5719  229.3311 H   0  0  0  0  0  0  0  0  0  0  0  0
  141.5287   71.8674  229.0369 H   0  0  0  0  0  0  0  0  0  0  0  0
  141.5482   72.9377  226.7846 H   0  0  0  0  0  0  0  0  0  0  0  0
  1  2  2  0
  2  3  1  0
  3  4  1  0
  4  5  1  0
  5  6  2  0
  5  7  1  0
  7  8  1  0
  8  9  1  0
  9 10  1  0
 10 11  1  0
 11 12  1  0
 12 13  1  0
 13 14  1  0
 14 15  1  0
 15 16  1  0
 16 17  1  0
 17 18  1  0
  2 19  1  0
 19 20  2  0
 20 21  1  0
 21 22  2  0
 22 23  1  0
 23 24  2  0
 24 25  1  0
 25 26  2  0
 26 27  1  0
 27 28  2  0
 12  7  1  0
 18 13  1  0
 28 19  1  0
 27 22  1  0
  3 29  1  0
  4 30  1  0
  4 31  1  0
  8 32  1  0
  8 33  1  0
  9 34  1  0
  9 35  1  0
 10 36  1  0
 10 37  1  0
 11 38  1  0
 11 39  1  0
 12 40  1  1
 13 41  1  0
 14 42  1  0
 14 43  1  0
 15 44  1  0
 15 45  1  0
 16 46  1  0
 16 47  1  0
 17 48  1  0
 17 49  1  0
 18 50  1  0
 18 51  1  0
 20 52  1  0
 21 53  1  0
 23 54  1  0
 24 55  1  0
 25 56  1  0
 26 57  1  0
M  END
>  <smiles>  (48) 
O=C(NCC(=O)N1CCCCC1C1CCCCC1)c1ccc2ccccc2n1

>  <score_type>  (48) 
oracle

>  <origin>  (48) 
autodockgpu

>  <m_score__min__energy>  (48) 
-9.3100000000000005

>  <m_primary>  (48) 
energy

>  <rmsd>  (48) 
2.3688303054068722

>  <m_score__min__rmsd>  (48) 
2.3688303054068722

>  <meeko>  (48) 
{"free_energy": -8.53, "intermolecular_energy": -10.02, "internal_energy": -1.82, "cluster_size": 31, "cluster_id": 2, "rank_in_cluster": 16}

>  <energy>  (48) 
-6.93

>  <cluster_rmsd>  (48) 
0.31

>  <cluster>  (48) 
5

$$$$

     RDKit          3D

 57 60  0  0  0  0  0  0  0  0999 V2000
  140.8200   73.6320  220.5100 O   0  0  0  0  0  0  0  0  0  0  0  0
  140.4420   74.4650  221.3720 C   0  0  0  0  0  0  0  0  0  0  0  0
  139.5030   73.9490  222.3490 N   0  0  0  0  0  0  0  0  0  0  0  0
  139.0500   72.6250  222.3490 C   0  0  0  0  0  0  0  0  0  0  0  0
  139.7940   71.5040  222.8960 C   0  0  0  0  0  0  0  0  0  0  0  0
  141.0610   71.7660  223.0640 O   0  0  0  0  0  0  0  0  0  0  0  0
  139.4260   70.2050  223.2740 N   0  0  0  0  0  0  0  0  0  0  0  0
  138.9930   69.2070  222.2300 C   0  0  0  0  0  0  0  0  0  0  0  0
  137.6010   68.8280  222.4880 C   0  0  0  0  0  0  0  0  0  0  0  0
  137.0260   69.3480  223.7790 C   0  0  0  0  0  0  0  0  0  0  0  0
  137.9410   69.2460  224.9370 C   0  0  0  0  0  0  0  0  0  0  0  0
  139.3860   69.6490  224.5840 C   0  0  2  0  0  0  0  0  0  0  0  0
  140.0180   70.1850  225.7710 C   0  0  0  0  0  0  0  0  0  0  0  0
  141.4380   70.5950  225.8100 C   0  0  0  0  0  0  0  0  0  0  0  0
  141.4580   71.9770  226.5340 C   0  0  0  0  0  0  0  0  0  0  0  0
  140.6260   71.7420  227.7740 C   0  0  0  0  0  0  0  0  0  0  0  0
  140.4680   70.2900  228.1480 C   0  0  0  0  0  0  0  0  0  0  0  0
  139.7220   69.4920  227.0900 C   0  0  0  0  0  0  0  0  0  0  0  0
  140.8950   75.8500  221.4100 C   0  0  0  0  0  0  0  0  0  0  0  0
  141.7230   76.2600  220.3840 C   0  0  0  0  0  0  0  0  0  0  0  0
  142.1580   77.5800  220.4170 C   0  0  0  0  0  0  0  0  0  0  0  0
  141.7620   78.4220  221.4440 C   0  0  0  0  0  0  0  0  0  0  0  0
  142.1650   79.7400  221.5220 C   0  0  0  0  0  0  0  0  0  0  0  0
  141.7570   80.5770  222.5630 C   0  0  0  0  0  0  0  0  0  0  0  0
  140.9150   80.0450  223.5470 C   0  0  0  0  0  0  0  0  0  0  0  0
  140.5010   78.7170  223.4800 C   0  0  0  0  0  0  0  0  0  0  0  0
  140.9280   77.9270  222.4340 C   0  0  0  0  0  0  0  0  0  0  0  0
  140.5120   76.6470  222.3950 N   0  0  0  0  0  0  0  0  0  0  0  0
  139.2040   74.6910  223.0570 H   0  0  0  0  0  0  0  0  0  0  0  0
  138.0934   72.6390  222.8919 H   0  0  0  0  0  0  0  0  0  0  0  0
  139.0915   72.3940  221.2743 H   0  0  0  0  0  0  0  0  0  0  0  0
  139.0740   69.6589  221.2304 H   0  0  0  0  0  0  0  0  0  0  0  0
  139.6373   68.3165  222.2741 H   0  0  0  0  0  0  0  0  0  0  0  0
  136.9846   69.2115  221.6616 H   0  0  0  0  0  0  0  0  0  0  0  0
  137.5922   67.7310  222.5687 H   0  0  0  0  0  0  0  0  0  0  0  0
  136.7652   70.4073  223.6381 H   0  0  0  0  0  0  0  0  0  0  0  0
  136.1529   68.7203  224.0108 H   0  0  0  0  0  0  0  0  0  0  0  0
  137.5750   69.9083  225.7353 H   0  0  0  0  0  0  0  0  0  0  0  0
  137.9563   68.1945  225.2595 H   0  0  0  0  0  0  0  0  0  0  0  0
  140.1295   68.8641  224.3814 H   0  0  0  0  0  0  0  0  0  0  0  0
  139.4565   71.1223  225.6435 H   0  0  0  0  0  0  0  0  0  0  0  0
  142.0344   69.8598  226.3702 H   0  0  0  0  0  0  0  0  0  0  0  0
  141.8703   70.6589  224.8005 H   0  0  0  0  0  0  0  0  0  0  0  0
  142.4855   72.2661  226.7997 H   0  0  0  0  0  0  0  0  0  0  0  0
  141.0691   72.7930  225.9072 H   0  0  0  0  0  0  0  0  0  0  0  0
  141.1056   72.2643  228.6149 H   0  0  0  0  0  0  0  0  0  0  0  0
  139.6177   72.1226  227.5541 H   0  0  0  0  0  0  0  0  0  0  0  0
  141.4672   69.8499  228.2820 H   0  0  0  0  0  0  0  0  0  0  0  0
  139.8783   70.2469  229.0756 H   0  0  0  0  0  0  0  0  0  0  0  0
  140.0828   68.4531  227.0673 H   0  0  0  0  0  0  0  0  0  0  0  0
  138.6421   69.4531  227.2959 H   0  0  0  0  0  0  0  0  0  0  0  0
  142.0243   75.5744  219.5783 H   0  0  0  0  0  0  0  0  0  0  0  0
  142.8199   77.9580  219.6239 H   0  0  0  0  0  0  0  0  0  0  0  0
  142.8269   80.1429  220.7413 H   0  0  0  0  0  0  0  0  0  0  0  0
  142.0880   81.6250  222.6085 H   0  0  0  0  0  0  0  0  0  0  0  0
  140.5780   80.6806  224.3791 H   0  0  0  0  0  0  0  0  0  0  0  0
  139.8393   78.3022  224.2547 H   0  0  0  0  0  0  0  0  0  0  0  0
  1  2  2  0
  2  3  1  0
  3  4  1  0
  4  5  1  0
  5  6  2  0
  5  7  1  0
  7  8  1  0
  8  9  1  0
  9 10  1  0
 10 11  1  0
 11 12  1  0
 12 13  1  0
 13 14  1  0
 14 15  1  0
 15 16  1  0
 16 17  1  0
 17 18  1  0
  2 19  1  0
 19 20  2  0
 20 21  1  0
 21 22  2  0
 22 23  1  0
 23 24  2  0
 24 25  1  0
 25 26  2  0
 26 27  1  0
 27 28  2  0
 12  7  1  0
 18 13  1  0
 28 19  1  0
 27 22  1  0
  3 29  1  0
  4 30  1  0
  4 31  1  0
  8 32  1  0
  8 33  1  0
  9 34  1  0
  9 35  1  0
 10 36  1  0
 10 37  1  0
 11 38  1  0
 11 39  1  0
 12 40  1  6
 13 41  1  0
 14 42  1  0
 14 43  1  0
 15 44  1  0
 15 45  1  0
 16 46  1  0
 16 47  1  0
 17 48  1  0
 17 49  1  0
 18 50  1  0
 18 51  1  0
 20 52  1  0
 21 53  1  0
 23 54  1  0
 24 55  1  0
 25 56  1  0
 26 57  1  0
M  END
>  <smiles>  (49) 
O=C(NCC(=O)N1CCCCC1C1CCCCC1)c1ccc2ccccc2n1

>  <score_type>  (49) 
oracle

>  <origin>  (49) 
autodockgpu

>  <m_score__min__energy>  (49) 
-9.3100000000000005

>  <m_primary>  (49) 
energy

>  <rmsd>  (49) 
8.36851553185329

>  <m_score__min__rmsd>  (49) 
8.36851553185329

>  <meeko>  (49) 
{"free_energy": -8.83, "intermolecular_energy": -10.33, "internal_energy": -1.75, "cluster_size": 10, "cluster_id": 1, "rank_in_cluster": 7}

>  <energy>  (49) 
-6.91

>  <cluster_rmsd>  (49) 
0.37

>  <cluster>  (49) 
5

$$$$

     RDKit          3D

 57 60  0  0  0  0  0  0  0  0999 V2000
  140.5790   77.2900  218.4180 O   0  0  0  0  0  0  0  0  0  0  0  0
  141.6870   77.1730  219.0010 C   0  0  0  0  0  0  0  0  0  0  0  0
  142.2140   78.4010  219.5640 N   0  0  0  0  0  0  0  0  0  0  0  0
  141.5460   79.6280  219.4800 C   0  0  0  0  0  0  0  0  0  0  0  0
  140.6540   80.1480  220.5020 C   0  0  0  0  0  0  0  0  0  0  0  0
  139.6630   80.8390  220.0110 O   0  0  0  0  0  0  0  0  0  0  0  0
  140.6490   80.0600  221.9010 N   0  0  0  0  0  0  0  0  0  0  0  0
  140.7930   81.3050  222.7400 C   0  0  0  0  0  0  0  0  0  0  0  0
  142.0270   81.2040  223.5250 C   0  0  0  0  0  0  0  0  0  0  0  0
  142.7190   79.8680  223.4600 C   0  0  0  0  0  0  0  0  0  0  0  0
  141.8070   78.7070  223.5500 C   0  0  0  0  0  0  0  0  0  0  0  0
  140.5300   78.8920  222.7070 C   0  0  2  0  0  0  0  0  0  0  0  0
  140.0660   77.5890  222.2790 C   0  0  0  0  0  0  0  0  0  0  0  0
  138.7630   77.0250  222.6890 C   0  0  0  0  0  0  0  0  0  0  0  0
  138.1290   76.4400  221.3890 C   0  0  0  0  0  0  0  0  0  0  0  0
  139.2420   75.6110  220.7910 C   0  0  0  0  0  0  0  0  0  0  0  0
  140.3290   75.2360  221.7680 C   0  0  0  0  0  0  0  0  0  0  0  0
  141.0700   76.4490  222.3090 C   0  0  0  0  0  0  0  0  0  0  0  0
  142.4100   75.9120  219.1160 C   0  0  0  0  0  0  0  0  0  0  0  0
  141.9260   74.8500  218.3780 C   0  0  0  0  0  0  0  0  0  0  0  0
  142.6120   73.6460  218.4850 C   0  0  0  0  0  0  0  0  0  0  0  0
  143.7270   73.5470  219.3010 C   0  0  0  0  0  0  0  0  0  0  0  0
  144.4440   72.3740  219.4410 C   0  0  0  0  0  0  0  0  0  0  0  0
  145.5660   72.2900  220.2670 C   0  0  0  0  0  0  0  0  0  0  0  0
  145.9610   73.4360  220.9660 C   0  0  0  0  0  0  0  0  0  0  0  0
  145.2470   74.6250  220.8330 C   0  0  0  0  0  0  0  0  0  0  0  0
  144.1460   74.6640  220.0060 C   0  0  0  0  0  0  0  0  0  0  0  0
  143.4740   75.8260  219.8980 N   0  0  0  0  0  0  0  0  0  0  0  0
  143.1570   78.2560  220.0430 H   0  0  0  0  0  0  0  0  0  0  0  0
  142.3336   80.3865  219.3602 H   0  0  0  0  0  0  0  0  0  0  0  0
  140.8306   79.4170  218.6715 H   0  0  0  0  0  0  0  0  0  0  0  0
  140.8418   82.1882  222.0861 H   0  0  0  0  0  0  0  0  0  0  0  0
  139.9285   81.4050  223.4128 H   0  0  0  0  0  0  0  0  0  0  0  0
  142.7276   81.9686  223.1582 H   0  0  0  0  0  0  0  0  0  0  0  0
  141.7337   81.3458  224.5756 H   0  0  0  0  0  0  0  0  0  0  0  0
  143.2618   79.8069  222.5052 H   0  0  0  0  0  0  0  0  0  0  0  0
  143.3852   79.8146  224.3337 H   0  0  0  0  0  0  0  0  0  0  0  0
  142.3386   77.8125  223.1932 H   0  0  0  0  0  0  0  0  0  0  0  0
  141.5010   78.6035  224.6015 H   0  0  0  0  0  0  0  0  0  0  0  0
  139.5993   79.2063  223.2020 H   0  0  0  0  0  0  0  0  0  0  0  0
  139.8960   77.9851  221.2670 H   0  0  0  0  0  0  0  0  0  0  0  0
  138.9068   76.2310  223.4366 H   0  0  0  0  0  0  0  0  0  0  0  0
  138.1169   77.7874  223.1485 H   0  0  0  0  0  0  0  0  0  0  0  0
  137.2564   75.8134  221.6255 H   0  0  0  0  0  0  0  0  0  0  0  0
  137.7624   77.2194  220.7048 H   0  0  0  0  0  0  0  0  0  0  0  0
  138.8047   74.6849  220.3897 H   0  0  0  0  0  0  0  0  0  0  0  0
  139.7152   76.2307  220.0151 H   0  0  0  0  0  0  0  0  0  0  0  0
  139.8742   74.6955  222.6112 H   0  0  0  0  0  0  0  0  0  0  0  0
  141.0583   74.6104  221.2325 H   0  0  0  0  0  0  0  0  0  0  0  0
  141.4096   76.2636  223.3387 H   0  0  0  0  0  0  0  0  0  0  0  0
  141.9645   76.6790  221.7115 H   0  0  0  0  0  0  0  0  0  0  0  0
  141.0390   74.9521  217.7355 H   0  0  0  0  0  0  0  0  0  0  0  0
  142.2680   72.7677  217.9191 H   0  0  0  0  0  0  0  0  0  0  0  0
  144.1213   71.4810  218.8856 H   0  0  0  0  0  0  0  0  0  0  0  0
  146.1249   71.3478  220.3658 H   0  0  0  0  0  0  0  0  0  0  0  0
  146.8410   73.3979  221.6249 H   0  0  0  0  0  0  0  0  0  0  0  0
  145.5597   75.5246  221.3835 H   0  0  0  0  0  0  0  0  0  0  0  0
  1  2  2  0
  2  3  1  0
  3  4  1  0
  4  5  1  0
  5  6  2  0
  5  7  1  0
  7  8  1  0
  8  9  1  0
  9 10  1  0
 10 11  1  0
 11 12  1  0
 12 13  1  0
 13 14  1  0
 14 15  1  0
 15 16  1  0
 16 17  1  0
 17 18  1  0
  2 19  1  0
 19 20  2  0
 20 21  1  0
 21 22  2  0
 22 23  1  0
 23 24  2  0
 24 25  1  0
 25 26  2  0
 26 27  1  0
 27 28  2  0
 12  7  1  0
 18 13  1  0
 28 19  1  0
 27 22  1  0
  3 29  1  0
  4 30  1  0
  4 31  1  0
  8 32  1  0
  8 33  1  0
  9 34  1  0
  9 35  1  0
 10 36  1  0
 10 37  1  0
 11 38  1  0
 11 39  1  0
 12 40  1  1
 13 41  1  0
 14 42  1  0
 14 43  1  0
 15 44  1  0
 15 45  1  0
 16 46  1  0
 16 47  1  0
 17 48  1  0
 17 49  1  0
 18 50  1  0
 18 51  1  0
 20 52  1  0
 21 53  1  0
 23 54  1  0
 24 55  1  0
 25 56  1  0
 26 57  1  0
M  END
>  <smiles>  (50) 
O=C(NCC(=O)N1CCCCC1C1CCCCC1)c1ccc2ccccc2n1

>  <score_type>  (50) 
oracle

>  <origin>  (50) 
autodockgpu

>  <m_score__min__energy>  (50) 
-9.3100000000000005

>  <m_primary>  (50) 
energy

>  <rmsd>  (50) 
7.590760243903112

>  <m_score__min__rmsd>  (50) 
7.590760243903112

>  <meeko>  (50) 
{"free_energy": -6.83, "intermolecular_energy": -8.32, "internal_energy": -2.96, "cluster_size": 1, "cluster_id": 6, "rank_in_cluster": 1}

>  <energy>  (50) 
-6.83

>  <cluster_rmsd>  (50) 
0.0

>  <cluster>  (50) 
6

$$$$

     RDKit          3D

 57 60  0  0  0  0  0  0  0  0999 V2000
  138.9790   75.2770  221.6040 O   0  0  0  0  0  0  0  0  0  0  0  0
  140.1080   75.7850  221.8540 C   0  0  0  0  0  0  0  0  0  0  0  0
  141.2860   74.9400  221.6450 N   0  0  0  0  0  0  0  0  0  0  0  0
  141.0020   73.6320  221.1760 C   0  0  0  0  0  0  0  0  0  0  0  0
  142.0180   72.7250  220.7270 C   0  0  0  0  0  0  0  0  0  0  0  0
  141.5850   71.4910  220.5880 O   0  0  0  0  0  0  0  0  0  0  0  0
  143.3880   72.8680  220.4010 N   0  0  0  0  0  0  0  0  0  0  0  0
  144.2770   71.7970  220.0800 C   0  0  0  0  0  0  0  0  0  0  0  0
  145.6350   72.1400  219.5880 C   0  0  0  0  0  0  0  0  0  0  0  0
  146.2670   73.3630  220.1560 C   0  0  0  0  0  0  0  0  0  0  0  0
  145.3220   74.2630  220.8580 C   0  0  0  0  0  0  0  0  0  0  0  0
  143.9210   74.2250  220.4160 C   0  0  1  0  0  0  0  0  0  0  0  0
  143.5190   74.9640  219.2060 C   0  0  0  0  0  0  0  0  0  0  0  0
  142.4750   74.2270  218.3670 C   0  0  0  0  0  0  0  0  0  0  0  0
  141.9850   75.2370  217.3500 C   0  0  0  0  0  0  0  0  0  0  0  0
  141.0450   76.1690  218.0940 C   0  0  0  0  0  0  0  0  0  0  0  0
  141.7550   76.7600  219.2730 C   0  0  0  0  0  0  0  0  0  0  0  0
  143.2230   76.4120  219.3110 C   0  0  0  0  0  0  0  0  0  0  0  0
  140.2780   77.1450  222.3330 C   0  0  0  0  0  0  0  0  0  0  0  0
  139.1390   77.8480  222.6590 C   0  0  0  0  0  0  0  0  0  0  0  0
  139.2920   79.1320  223.1100 C   0  0  0  0  0  0  0  0  0  0  0  0
  140.5310   79.7390  223.2500 C   0  0  0  0  0  0  0  0  0  0  0  0
  140.6600   81.0340  223.7070 C   0  0  0  0  0  0  0  0  0  0  0  0
  141.9180   81.5970  223.8290 C   0  0  0  0  0  0  0  0  0  0  0  0
  143.0350   80.8360  223.4840 C   0  0  0  0  0  0  0  0  0  0  0  0
  142.9000   79.5320  223.0230 C   0  0  0  0  0  0  0  0  0  0  0  0
  141.6350   78.9800  222.9070 C   0  0  0  0  0  0  0  0  0  0  0  0
  141.4660   77.7220  222.4640 N   0  0  0  0  0  0  0  0  0  0  0  0
  142.1610   75.4090  221.8600 H   0  0  0  0  0  0  0  0  0  0  0  0
  140.4823   73.1210  221.9999 H   0  0  0  0  0  0  0  0  0  0  0  0
  140.4683   73.8459  220.2382 H   0  0  0  0  0  0  0  0  0  0  0  0
  144.4023   71.1924  220.9903 H   0  0  0  0  0  0  0  0  0  0  0  0
  143.7980   71.2887  219.2302 H   0  0  0  0  0  0  0  0  0  0  0  0
  146.2950   71.2893  219.8132 H   0  0  0  0  0  0  0  0  0  0  0  0
  145.5070   72.3538  218.5166 H   0  0  0  0  0  0  0  0  0  0  0  0
  147.0422   73.0507  220.8712 H   0  0  0  0  0  0  0  0  0  0  0  0
  146.6753   73.9318  219.3076 H   0  0  0  0  0  0  0  0  0  0  0  0
  145.3417   73.9993  221.9257 H   0  0  0  0  0  0  0  0  0  0  0  0
  145.6693   75.2813  220.6292 H   0  0  0  0  0  0  0  0  0  0  0  0
  143.4510   74.8269  221.2077 H   0  0  0  0  0  0  0  0  0  0  0  0
  144.4777   74.9739  218.6667 H   0  0  0  0  0  0  0  0  0  0  0  0
  142.9292   73.3621  217.8615 H   0  0  0  0  0  0  0  0  0  0  0  0
  141.6525   73.8409  218.9870 H   0  0  0  0  0  0  0  0  0  0  0  0
  142.8328   75.8023  216.9356 H   0  0  0  0  0  0  0  0  0  0  0  0
  141.4759   74.7431  216.5093 H   0  0  0  0  0  0  0  0  0  0  0  0
  140.7195   76.9754  217.4203 H   0  0  0  0  0  0  0  0  0  0  0  0
  140.1676   75.6034  218.4409 H   0  0  0  0  0  0  0  0  0  0  0  0
  141.6550   77.8546  219.2301 H   0  0  0  0  0  0  0  0  0  0  0  0
  141.2935   76.3413  220.1795 H   0  0  0  0  0  0  0  0  0  0  0  0
  143.7185   76.9246  218.4733 H   0  0  0  0  0  0  0  0  0  0  0  0
  143.5933   76.7342  220.2954 H   0  0  0  0  0  0  0  0  0  0  0  0
  138.1419   77.3940  222.5605 H   0  0  0  0  0  0  0  0  0  0  0  0
  138.3921   79.7074  223.3729 H   0  0  0  0  0  0  0  0  0  0  0  0
  139.7661   81.6170  223.9735 H   0  0  0  0  0  0  0  0  0  0  0  0
  142.0355   82.6286  224.1924 H   0  0  0  0  0  0  0  0  0  0  0  0
  144.0391   81.2753  223.5784 H   0  0  0  0  0  0  0  0  0  0  0  0
  143.7894   78.9438  222.7528 H   0  0  0  0  0  0  0  0  0  0  0  0
  1  2  2  0
  2  3  1  0
  3  4  1  0
  4  5  1  0
  5  6  2  0
  5  7  1  0
  7  8  1  0
  8  9  1  0
  9 10  1  0
 10 11  1  0
 11 12  1  0
 12 13  1  0
 13 14  1  0
 14 15  1  0
 15 16  1  0
 16 17  1  0
 17 18  1  0
  2 19  1  0
 19 20  2  0
 20 21  1  0
 21 22  2  0
 22 23  1  0
 23 24  2  0
 24 25  1  0
 25 26  2  0
 26 27  1  0
 27 28  2  0
 12  7  1  0
 18 13  1  0
 28 19  1  0
 27 22  1  0
  3 29  1  0
  4 30  1  0
  4 31  1  0
  8 32  1  0
  8 33  1  0
  9 34  1  0
  9 35  1  0
 10 36  1  0
 10 37  1  0
 11 38  1  0
 11 39  1  0
 12 40  1  1
 13 41  1  0
 14 42  1  0
 14 43  1  0
 15 44  1  0
 15 45  1  0
 16 46  1  0
 16 47  1  0
 17 48  1  0
 17 49  1  0
 18 50  1  0
 18 51  1  0
 20 52  1  0
 21 53  1  0
 23 54  1  0
 24 55  1  0
 25 56  1  0
 26 57  1  0
M  END
>  <smiles>  (51) 
O=C(NCC(=O)N1CCCCC1C1CCCCC1)c1ccc2ccccc2n1

>  <score_type>  (51) 
oracle

>  <origin>  (51) 
autodockgpu

>  <m_score__min__energy>  (51) 
-9.0199999999999996

>  <m_primary>  (51) 
energy

>  <rmsd>  (51) 
7.796301779073666

>  <m_score__min__rmsd>  (51) 
7.796301779073666

>  <meeko>  (51) 
{"free_energy": -7.54, "intermolecular_energy": -9.03, "internal_energy": -2.11, "cluster_size": 7, "cluster_id": 4, "rank_in_cluster": 6}

>  <energy>  (51) 
-9.02

>  <cluster_rmsd>  (51) 
0.0

>  <cluster>  (51) 
1

$$$$

     RDKit          3D

 57 60  0  0  0  0  0  0  0  0999 V2000
  141.4380   72.7780  221.6510 O   0  0  0  0  0  0  0  0  0  0  0  0
  140.4610   72.7750  222.4520 C   0  0  0  0  0  0  0  0  0  0  0  0
  139.4950   73.8700  222.3370 N   0  0  0  0  0  0  0  0  0  0  0  0
  139.7850   74.8140  221.3180 C   0  0  0  0  0  0  0  0  0  0  0  0
  139.4270   76.1990  221.4110 C   0  0  0  0  0  0  0  0  0  0  0  0
  138.4640   76.4270  222.2790 O   0  0  0  0  0  0  0  0  0  0  0  0
  139.8830   77.3770  220.7720 N   0  0  0  0  0  0  0  0  0  0  0  0
  139.1090   78.1900  219.8890 C   0  0  0  0  0  0  0  0  0  0  0  0
  139.6840   79.4860  219.4480 C   0  0  0  0  0  0  0  0  0  0  0  0
  141.1590   79.5360  219.2550 C   0  0  0  0  0  0  0  0  0  0  0  0
  141.8890   78.4020  219.8690 C   0  0  0  0  0  0  0  0  0  0  0  0
  141.2620   77.7670  221.0360 C   0  0  1  0  0  0  0  0  0  0  0  0
  141.3890   78.3950  222.3640 C   0  0  0  0  0  0  0  0  0  0  0  0
  142.5400   79.3980  222.4500 C   0  0  0  0  0  0  0  0  0  0  0  0
  142.3410   80.1310  223.7600 C   0  0  0  0  0  0  0  0  0  0  0  0
  141.2100   81.1180  223.5290 C   0  0  0  0  0  0  0  0  0  0  0  0
  140.0010   80.3870  223.0290 C   0  0  0  0  0  0  0  0  0  0  0  0
  140.1710   78.8880  223.0470 C   0  0  0  0  0  0  0  0  0  0  0  0
  140.2650   71.7510  223.4600 C   0  0  0  0  0  0  0  0  0  0  0  0
  139.6120   70.6000  223.0750 C   0  0  0  0  0  0  0  0  0  0  0  0
  139.4230   69.6280  224.0220 C   0  0  0  0  0  0  0  0  0  0  0  0
  139.8590   69.7580  225.3330 C   0  0  0  0  0  0  0  0  0  0  0  0
  139.6580   68.7660  226.2690 C   0  0  0  0  0  0  0  0  0  0  0  0
  140.1100   68.9420  227.5640 C   0  0  0  0  0  0  0  0  0  0  0  0
  140.7650   70.1280  227.8950 C   0  0  0  0  0  0  0  0  0  0  0  0
  140.9650   71.1250  226.9490 C   0  0  0  0  0  0  0  0  0  0  0  0
  140.5080   70.9360  225.6550 C   0  0  0  0  0  0  0  0  0  0  0  0
  140.6830   71.8790  224.7140 N   0  0  0  0  0  0  0  0  0  0  0  0
  138.7330   73.8070  223.0050 H   0  0  0  0  0  0  0  0  0  0  0  0
  140.8768   74.7916  221.1862 H   0  0  0  0  0  0  0  0  0  0  0  0
  139.1262   74.4708  220.5067 H   0  0  0  0  0  0  0  0  0  0  0  0
  138.9127   77.5951  218.9848 H   0  0  0  0  0  0  0  0  0  0  0  0
  138.2240   78.4697  220.4793 H   0  0  0  0  0  0  0  0  0  0  0  0
  139.2140   79.7492  218.4889 H   0  0  0  0  0  0  0  0  0  0  0  0
  139.4780   80.1866  220.2707 H   0  0  0  0  0  0  0  0  0  0  0  0
  141.3661   79.5356  218.1747 H   0  0  0  0  0  0  0  0  0  0  0  0
  141.5133   80.4492  219.7556 H   0  0  0  0  0  0  0  0  0  0  0  0
  142.0144   77.6291  219.0964 H   0  0  0  0  0  0  0  0  0  0  0  0
  142.8285   78.8332  220.2450 H   0  0  0  0  0  0  0  0  0  0  0  0
  141.9095   76.8848  221.1478 H   0  0  0  0  0  0  0  0  0  0  0  0
  141.6345   77.5086  222.9674 H   0  0  0  0  0  0  0  0  0  0  0  0
  143.5073   78.8744  222.4456 H   0  0  0  0  0  0  0  0  0  0  0  0
  142.5450   80.0878  221.5931 H   0  0  0  0  0  0  0  0  0  0  0  0
  142.0707   79.4216  224.5561 H   0  0  0  0  0  0  0  0  0  0  0  0
  143.2616   80.6444  224.0745 H   0  0  0  0  0  0  0  0  0  0  0  0
  140.9668   81.6244  224.4747 H   0  0  0  0  0  0  0  0  0  0  0  0
  141.5216   81.8634  222.7825 H   0  0  0  0  0  0  0  0  0  0  0  0
  139.1435   80.6505  223.6657 H   0  0  0  0  0  0  0  0  0  0  0  0
  139.8427   80.6883  221.9830 H   0  0  0  0  0  0  0  0  0  0  0  0
  140.2102   78.5602  224.0963 H   0  0  0  0  0  0  0  0  0  0  0  0
  139.3154   78.4717  222.4951 H   0  0  0  0  0  0  0  0  0  0  0  0
  139.2549   70.4663  222.0432 H   0  0  0  0  0  0  0  0  0  0  0  0
  138.9027   68.7038  223.7302 H   0  0  0  0  0  0  0  0  0  0  0  0
  139.1399   67.8376  225.9867 H   0  0  0  0  0  0  0  0  0  0  0  0
  139.9554   68.1590  228.3210 H   0  0  0  0  0  0  0  0  0  0  0  0
  141.1292   70.2762  228.9223 H   0  0  0  0  0  0  0  0  0  0  0  0
  141.4816   72.0562  227.2247 H   0  0  0  0  0  0  0  0  0  0  0  0
  1  2  2  0
  2  3  1  0
  3  4  1  0
  4  5  1  0
  5  6  2  0
  5  7  1  0
  7  8  1  0
  8  9  1  0
  9 10  1  0
 10 11  1  0
 11 12  1  0
 12 13  1  0
 13 14  1  0
 14 15  1  0
 15 16  1  0
 16 17  1  0
 17 18  1  0
  2 19  1  0
 19 20  2  0
 20 21  1  0
 21 22  2  0
 22 23  1  0
 23 24  2  0
 24 25  1  0
 25 26  2  0
 26 27  1  0
 27 28  2  0
 12  7  1  0
 18 13  1  0
 28 19  1  0
 27 22  1  0
  3 29  1  0
  4 30  1  0
  4 31  1  0
  8 32  1  0
  8 33  1  0
  9 34  1  0
  9 35  1  0
 10 36  1  0
 10 37  1  0
 11 38  1  0
 11 39  1  0
 12 40  1  1
 13 41  1  0
 14 42  1  0
 14 43  1  0
 15 44  1  0
 15 45  1  0
 16 46  1  0
 16 47  1  0
 17 48  1  0
 17 49  1  0
 18 50  1  0
 18 51  1  0
 20 52  1  0
 21 53  1  0
 23 54  1  0
 24 55  1  0
 25 56  1  0
 26 57  1  0
M  END
>  <smiles>  (52) 
O=C(NCC(=O)N1CCCCC1C1CCCCC1)c1ccc2ccccc2n1

>  <score_type>  (52) 
oracle

>  <origin>  (52) 
autodockgpu

>  <m_score__min__energy>  (52) 
-9.0199999999999996

>  <m_primary>  (52) 
energy

>  <rmsd>  (52) 
2.2693063667688262

>  <m_score__min__rmsd>  (52) 
2.2693063667688262

>  <meeko>  (52) 
{"free_energy": -8.69, "intermolecular_energy": -10.18, "internal_energy": -1.55, "cluster_size": 34, "cluster_id": 1, "rank_in_cluster": 25}

>  <energy>  (52) 
-9.01

>  <cluster_rmsd>  (52) 
0.65

>  <cluster>  (52) 
1

$$$$

     RDKit          3D

 57 60  0  0  0  0  0  0  0  0999 V2000
  141.2850   72.0200  221.7300 O   0  0  0  0  0  0  0  0  0  0  0  0
  140.3390   72.1850  222.5520 C   0  0  0  0  0  0  0  0  0  0  0  0
  139.3880   73.2630  222.2730 N   0  0  0  0  0  0  0  0  0  0  0  0
  139.6540   73.9990  221.0900 C   0  0  0  0  0  0  0  0  0  0  0  0
  140.6630   75.0160  221.0130 C   0  0  0  0  0  0  0  0  0  0  0  0
  140.7040   75.7850  222.0800 O   0  0  0  0  0  0  0  0  0  0  0  0
  141.6250   75.3730  220.0390 N   0  0  0  0  0  0  0  0  0  0  0  0
  142.2030   76.6700  219.8840 C   0  0  0  0  0  0  0  0  0  0  0  0
  143.3270   76.8250  218.9270 C   0  0  0  0  0  0  0  0  0  0  0  0
  143.2900   75.9790  217.7030 C   0  0  0  0  0  0  0  0  0  0  0  0
  142.3340   74.8490  217.7770 C   0  0  0  0  0  0  0  0  0  0  0  0
  142.0360   74.3220  219.1160 C   0  0  1  0  0  0  0  0  0  0  0  0
  142.9810   73.3910  219.7600 C   0  0  0  0  0  0  0  0  0  0  0  0
  143.7640   72.5370  218.7620 C   0  0  0  0  0  0  0  0  0  0  0  0
  144.8570   71.8700  219.5700 C   0  0  0  0  0  0  0  0  0  0  0  0
  145.9120   72.9330  219.8190 C   0  0  0  0  0  0  0  0  0  0  0  0
  145.2810   74.1210  220.4790 C   0  0  0  0  0  0  0  0  0  0  0  0
  143.8410   73.8860  220.8610 C   0  0  0  0  0  0  0  0  0  0  0  0
  140.1660   71.3650  223.7360 C   0  0  0  0  0  0  0  0  0  0  0  0
  139.4420   70.2000  223.5980 C   0  0  0  0  0  0  0  0  0  0  0  0
  139.2740   69.4210  224.7130 C   0  0  0  0  0  0  0  0  0  0  0  0
  139.7980   69.7550  225.9530 C   0  0  0  0  0  0  0  0  0  0  0  0
  139.6150   68.9540  227.0600 C   0  0  0  0  0  0  0  0  0  0  0  0
  140.1570   69.3310  228.2760 C   0  0  0  0  0  0  0  0  0  0  0  0
  140.8800   70.5210  228.3540 C   0  0  0  0  0  0  0  0  0  0  0  0
  141.0610   71.3260  227.2360 C   0  0  0  0  0  0  0  0  0  0  0  0
  140.5140   70.9360  226.0230 C   0  0  0  0  0  0  0  0  0  0  0  0
  140.6680   71.6890  224.9210 N   0  0  0  0  0  0  0  0  0  0  0  0
  138.6510   73.3390  222.9680 H   0  0  0  0  0  0  0  0  0  0  0  0
  139.9141   73.2553  220.3224 H   0  0  0  0  0  0  0  0  0  0  0  0
  138.7340   74.5935  220.9891 H   0  0  0  0  0  0  0  0  0  0  0  0
  141.4007   77.3482  219.5580 H   0  0  0  0  0  0  0  0  0  0  0  0
  142.6473   76.8905  220.8658 H   0  0  0  0  0  0  0  0  0  0  0  0
  143.3460   77.8763  218.6040 H   0  0  0  0  0  0  0  0  0  0  0  0
  144.2202   76.4946  219.4774 H   0  0  0  0  0  0  0  0  0  0  0  0
  143.0072   76.6155  216.8516 H   0  0  0  0  0  0  0  0  0  0  0  0
  144.2922   75.5397  217.5907 H   0  0  0  0  0  0  0  0  0  0  0  0
  141.3856   75.1854  217.3327 H   0  0  0  0  0  0  0  0  0  0  0  0
  142.8238   74.0211  217.2434 H   0  0  0  0  0  0  0  0  0  0  0  0
  141.1964   73.6521  218.8789 H   0  0  0  0  0  0  0  0  0  0  0  0
  142.2712   72.7513  220.3049 H   0  0  0  0  0  0  0  0  0  0  0  0
  143.1081   71.7813  218.3051 H   0  0  0  0  0  0  0  0  0  0  0  0
  144.1754   73.1429  217.9412 H   0  0  0  0  0  0  0  0  0  0  0  0
  144.4540   71.5022  220.5252 H   0  0  0  0  0  0  0  0  0  0  0  0
  145.2785   71.0059  219.0356 H   0  0  0  0  0  0  0  0  0  0  0  0
  146.6965   72.5244  220.4729 H   0  0  0  0  0  0  0  0  0  0  0  0
  146.3555   73.2398  218.8603 H   0  0  0  0  0  0  0  0  0  0  0  0
  145.8507   74.3603  221.3891 H   0  0  0  0  0  0  0  0  0  0  0  0
  145.2988   74.9485  219.7545 H   0  0  0  0  0  0  0  0  0  0  0  0
  143.8186   73.1444  221.6731 H   0  0  0  0  0  0  0  0  0  0  0  0
  143.4345   74.8643  221.1569 H   0  0  0  0  0  0  0  0  0  0  0  0
  139.0146   69.9062  222.6280 H   0  0  0  0  0  0  0  0  0  0  0  0
  138.6975   68.4887  224.6203 H   0  0  0  0  0  0  0  0  0  0  0  0
  139.0408   68.0195  226.9770 H   0  0  0  0  0  0  0  0  0  0  0  0
  140.0197   68.7016  229.1677 H   0  0  0  0  0  0  0  0  0  0  0  0
  141.3144   70.8276  229.3170 H   0  0  0  0  0  0  0  0  0  0  0  0
  141.6323   72.2629  227.3124 H   0  0  0  0  0  0  0  0  0  0  0  0
  1  2  2  0
  2  3  1  0
  3  4  1  0
  4  5  1  0
  5  6  2  0
  5  7  1  0
  7  8  1  0
  8  9  1  0
  9 10  1  0
 10 11  1  0
 11 12  1  0
 12 13  1  0
 13 14  1  0
 14 15  1  0
 15 16  1  0
 16 17  1  0
 17 18  1  0
  2 19  1  0
 19 20  2  0
 20 21  1  0
 21 22  2  0
 22 23  1  0
 23 24  2  0
 24 25  1  0
 25 26  2  0
 26 27  1  0
 27 28  2  0
 12  7  1  0
 18 13  1  0
 28 19  1  0
 27 22  1  0
  3 29  1  0
  4 30  1  0
  4 31  1  0
  8 32  1  0
  8 33  1  0
  9 34  1  0
  9 35  1  0
 10 36  1  0
 10 37  1  0
 11 38  1  0
 11 39  1  0
 12 40  1  6
 13 41  1  0
 14 42  1  0
 14 43  1  0
 15 44  1  0
 15 45  1  0
 16 46  1  0
 16 47  1  0
 17 48  1  0
 17 49  1  0
 18 50  1  0
 18 51  1  0
 20 52  1  0
 21 53  1  0
 23 54  1  0
 24 55  1  0
 25 56  1  0
 26 57  1  0
M  END
>  <smiles>  (53) 
O=C(NCC(=O)N1CCCCC1C1CCCCC1)c1ccc2ccccc2n1

>  <score_type>  (53) 
oracle

>  <origin>  (53) 
autodockgpu

>  <m_score__min__energy>  (53) 
-9.0199999999999996

>  <m_primary>  (53) 
energy

>  <rmsd>  (53) 
2.321640068169923

>  <m_score__min__rmsd>  (53) 
2.321640068169923

>  <meeko>  (53) 
{"free_energy": -8.39, "intermolecular_energy": -9.88, "internal_energy": -1.86, "cluster_size": 6, "cluster_id": 3, "rank_in_cluster": 1}

>  <energy>  (53) 
-9.0

>  <cluster_rmsd>  (53) 
0.21

>  <cluster>  (53) 
1

$$$$

     RDKit          3D

 57 60  0  0  0  0  0  0  0  0999 V2000
  141.3050   72.0430  221.6120 O   0  0  0  0  0  0  0  0  0  0  0  0
  140.4350   72.3060  222.4890 C   0  0  0  0  0  0  0  0  0  0  0  0
  139.5890   73.4800  222.2640 N   0  0  0  0  0  0  0  0  0  0  0  0
  139.8590   74.1850  221.0630 C   0  0  0  0  0  0  0  0  0  0  0  0
  140.9290   75.1310  220.9370 C   0  0  0  0  0  0  0  0  0  0  0  0
  142.0380   74.5980  220.4710 O   0  0  0  0  0  0  0  0  0  0  0  0
  141.0530   76.5160  221.2040 N   0  0  0  0  0  0  0  0  0  0  0  0
  141.8980   77.4220  220.4930 C   0  0  0  0  0  0  0  0  0  0  0  0
  141.7720   78.8720  220.7870 C   0  0  0  0  0  0  0  0  0  0  0  0
  141.4510   79.2470  222.1910 C   0  0  0  0  0  0  0  0  0  0  0  0
  140.9480   78.1250  223.0180 C   0  0  0  0  0  0  0  0  0  0  0  0
  140.2600   77.0380  222.3090 C   0  0  1  0  0  0  0  0  0  0  0  0
  138.8490   77.2040  221.9150 C   0  0  0  0  0  0  0  0  0  0  0  0
  137.8770   76.4360  222.8120 C   0  0  0  0  0  0  0  0  0  0  0  0
  136.4980   76.9430  222.4420 C   0  0  0  0  0  0  0  0  0  0  0  0
  136.3580   78.3090  223.0900 C   0  0  0  0  0  0  0  0  0  0  0  0
  137.4880   79.1890  222.6530 C   0  0  0  0  0  0  0  0  0  0  0  0
  138.3470   78.5580  221.5850 C   0  0  0  0  0  0  0  0  0  0  0  0
  140.2480   71.5080  223.6860 C   0  0  0  0  0  0  0  0  0  0  0  0
  139.5320   70.3380  223.5610 C   0  0  0  0  0  0  0  0  0  0  0  0
  139.3510   69.5790  224.6870 C   0  0  0  0  0  0  0  0  0  0  0  0
  139.8560   69.9390  225.9280 C   0  0  0  0  0  0  0  0  0  0  0  0
  139.6610   69.1580  227.0480 C   0  0  0  0  0  0  0  0  0  0  0  0
  140.1840   69.5600  228.2640 C   0  0  0  0  0  0  0  0  0  0  0  0
  140.9010   70.7550  228.3290 C   0  0  0  0  0  0  0  0  0  0  0  0
  141.0950   71.5380  227.1980 C   0  0  0  0  0  0  0  0  0  0  0  0
  140.5660   71.1240  225.9860 C   0  0  0  0  0  0  0  0  0  0  0  0
  140.7330   71.8570  224.8720 N   0  0  0  0  0  0  0  0  0  0  0  0
  138.9080   73.6330  223.0020 H   0  0  0  0  0  0  0  0  0  0  0  0
  140.0404   73.4181  220.2956 H   0  0  0  0  0  0  0  0  0  0  0  0
  138.9773   74.8385  220.9883 H   0  0  0  0  0  0  0  0  0  0  0  0
  142.9381   77.1345  220.7064 H   0  0  0  0  0  0  0  0  0  0  0  0
  141.5807   77.3266  219.4441 H   0  0  0  0  0  0  0  0  0  0  0  0
  142.7282   79.3488  220.5256 H   0  0  0  0  0  0  0  0  0  0  0  0
  140.9099   79.2118  220.1942 H   0  0  0  0  0  0  0  0  0  0  0  0
  142.3647   79.6398  222.6610 H   0  0  0  0  0  0  0  0  0  0  0  0
  140.6432   79.9921  222.1431 H   0  0  0  0  0  0  0  0  0  0  0  0
  141.8090   77.6869  223.5442 H   0  0  0  0  0  0  0  0  0  0  0  0
  140.1853   78.5696  223.6742 H   0  0  0  0  0  0  0  0  0  0  0  0
  140.1768   76.2997  223.1202 H   0  0  0  0  0  0  0  0  0  0  0  0
  138.8764   76.7327  220.9215 H   0  0  0  0  0  0  0  0  0  0  0  0
  137.9524   75.3549  222.6236 H   0  0  0  0  0  0  0  0  0  0  0  0
  138.0963   76.5915  223.8786 H   0  0  0  0  0  0  0  0  0  0  0  0
  136.4041   77.0284  221.3493 H   0  0  0  0  0  0  0  0  0  0  0  0
  135.7129   76.2543  222.7875 H   0  0  0  0  0  0  0  0  0  0  0  0
  135.4025   78.7620  222.7869 H   0  0  0  0  0  0  0  0  0  0  0  0
  136.3820   78.1991  224.1842 H   0  0  0  0  0  0  0  0  0  0  0  0
  137.0697   80.1266  222.2580 H   0  0  0  0  0  0  0  0  0  0  0  0
  138.1283   79.3628  223.5304 H   0  0  0  0  0  0  0  0  0  0  0  0
  137.7510   78.4873  220.6632 H   0  0  0  0  0  0  0  0  0  0  0  0
  139.2333   79.2008  221.4788 H   0  0  0  0  0  0  0  0  0  0  0  0
  139.1198   70.0240  222.5907 H   0  0  0  0  0  0  0  0  0  0  0  0
  138.7799   68.6426  224.6035 H   0  0  0  0  0  0  0  0  0  0  0  0
  139.0920   68.2194  226.9746 H   0  0  0  0  0  0  0  0  0  0  0  0
  140.0369   68.9471  229.1655 H   0  0  0  0  0  0  0  0  0  0  0  0
  141.3197   71.0827  229.2919 H   0  0  0  0  0  0  0  0  0  0  0  0
  141.6631   72.4776  227.2639 H   0  0  0  0  0  0  0  0  0  0  0  0
  1  2  2  0
  2  3  1  0
  3  4  1  0
  4  5  1  0
  5  6  2  0
  5  7  1  0
  7  8  1  0
  8  9  1  0
  9 10  1  0
 10 11  1  0
 11 12  1  0
 12 13  1  0
 13 14  1  0
 14 15  1  0
 15 16  1  0
 16 17  1  0
 17 18  1  0
  2 19  1  0
 19 20  2  0
 20 21  1  0
 21 22  2  0
 22 23  1  0
 23 24  2  0
 24 25  1  0
 25 26  2  0
 26 27  1  0
 27 28  2  0
 12  7  1  0
 18 13  1  0
 28 19  1  0
 27 22  1  0
  3 29  1  0
  4 30  1  0
  4 31  1  0
  8 32  1  0
  8 33  1  0
  9 34  1  0
  9 35  1  0
 10 36  1  0
 10 37  1  0
 11 38  1  0
 11 39  1  0
 12 40  1  1
 13 41  1  0
 14 42  1  0
 14 43  1  0
 15 44  1  0
 15 45  1  0
 16 46  1  0
 16 47  1  0
 17 48  1  0
 17 49  1  0
 18 50  1  0
 18 51  1  0
 20 52  1  0
 21 53  1  0
 23 54  1  0
 24 55  1  0
 25 56  1  0
 26 57  1  0
M  END
>  <smiles>  (54) 
O=C(NCC(=O)N1CCCCC1C1CCCCC1)c1ccc2ccccc2n1

>  <score_type>  (54) 
oracle

>  <origin>  (54) 
autodockgpu

>  <m_score__min__energy>  (54) 
-9.0199999999999996

>  <m_primary>  (54) 
energy

>  <rmsd>  (54) 
2.9309576759933407

>  <m_score__min__rmsd>  (54) 
2.9309576759933407

>  <meeko>  (54) 
{"free_energy": -8.21, "intermolecular_energy": -9.7, "internal_energy": -1.47, "cluster_size": 34, "cluster_id": 1, "rank_in_cluster": 32}

>  <energy>  (54) 
-9.0

>  <cluster_rmsd>  (54) 
0.55

>  <cluster>  (54) 
1

$$$$

     RDKit          3D

 57 60  0  0  0  0  0  0  0  0999 V2000
  141.4280   72.6100  221.9850 O   0  0  0  0  0  0  0  0  0  0  0  0
  140.3600   72.4970  222.6510 C   0  0  0  0  0  0  0  0  0  0  0  0
  139.2830   73.4450  222.3600 N   0  0  0  0  0  0  0  0  0  0  0  0
  139.5820   74.3890  221.3440 C   0  0  0  0  0  0  0  0  0  0  0  0
  140.1140   75.6920  221.6200 C   0  0  0  0  0  0  0  0  0  0  0  0
  141.4230   75.7000  221.7500 O   0  0  0  0  0  0  0  0  0  0  0  0
  139.5370   76.9740  221.7850 N   0  0  0  0  0  0  0  0  0  0  0  0
  138.3510   77.2570  222.5300 C   0  0  0  0  0  0  0  0  0  0  0  0
  137.9860   78.6790  222.7480 C   0  0  0  0  0  0  0  0  0  0  0  0
  138.3080   79.6330  221.6520 C   0  0  0  0  0  0  0  0  0  0  0  0
  139.2660   79.1040  220.6520 C   0  0  0  0  0  0  0  0  0  0  0  0
  140.2120   78.0810  221.1190 C   0  0  1  0  0  0  0  0  0  0  0  0
  141.4180   78.4890  221.8630 C   0  0  0  0  0  0  0  0  0  0  0  0
  141.8930   79.9010  221.5160 C   0  0  0  0  0  0  0  0  0  0  0  0
  142.9390   80.2430  222.5570 C   0  0  0  0  0  0  0  0  0  0  0  0
  142.1810   80.5760  223.8300 C   0  0  0  0  0  0  0  0  0  0  0  0
  141.2860   79.4310  224.1940 C   0  0  0  0  0  0  0  0  0  0  0  0
  141.4920   78.2200  223.3180 C   0  0  0  0  0  0  0  0  0  0  0  0
  140.1660   71.4850  223.6730 C   0  0  0  0  0  0  0  0  0  0  0  0
  139.4430   70.3650  223.3250 C   0  0  0  0  0  0  0  0  0  0  0  0
  139.2550   69.4050  224.2850 C   0  0  0  0  0  0  0  0  0  0  0  0
  139.7590   69.5180  225.5720 C   0  0  0  0  0  0  0  0  0  0  0  0
  139.5580   68.5380  226.5210 C   0  0  0  0  0  0  0  0  0  0  0  0
  140.0800   68.6970  227.7920 C   0  0  0  0  0  0  0  0  0  0  0  0
  140.8030   69.8530  228.0870 C   0  0  0  0  0  0  0  0  0  0  0  0
  141.0030   70.8370  227.1270 C   0  0  0  0  0  0  0  0  0  0  0  0
  140.4760   70.6660  225.8570 C   0  0  0  0  0  0  0  0  0  0  0  0
  140.6490   71.5980  224.9040 N   0  0  0  0  0  0  0  0  0  0  0  0
  138.4520   73.2970  222.9250 H   0  0  0  0  0  0  0  0  0  0  0  0
  140.3094   73.8992  220.6799 H   0  0  0  0  0  0  0  0  0  0  0  0
  138.5771   74.6363  220.9710 H   0  0  0  0  0  0  0  0  0  0  0  0
  137.5117   76.7815  222.0013 H   0  0  0  0  0  0  0  0  0  0  0  0
  138.5619   76.8706  223.5381 H   0  0  0  0  0  0  0  0  0  0  0  0
  136.8998   78.7211  222.9166 H   0  0  0  0  0  0  0  0  0  0  0  0
  138.5995   79.0048  223.6009 H   0  0  0  0  0  0  0  0  0  0  0  0
  137.3733   79.8908  221.1325 H   0  0  0  0  0  0  0  0  0  0  0  0
  138.7875   80.5050  222.1207 H   0  0  0  0  0  0  0  0  0  0  0  0
  138.6812   78.6662  219.8296 H   0  0  0  0  0  0  0  0  0  0  0  0
  139.8892   79.9642  220.3664 H   0  0  0  0  0  0  0  0  0  0  0  0
  140.6433   77.7626  220.1585 H   0  0  0  0  0  0  0  0  0  0  0  0
  142.1381   77.7571  221.4683 H   0  0  0  0  0  0  0  0  0  0  0  0
  142.3326   79.9219  220.5079 H   0  0  0  0  0  0  0  0  0  0  0  0
  141.0632   80.6230  221.5186 H   0  0  0  0  0  0  0  0  0  0  0  0
  143.6051   79.3837  222.7242 H   0  0  0  0  0  0  0  0  0  0  0  0
  143.5650   81.0872  222.2322 H   0  0  0  0  0  0  0  0  0  0  0  0
  142.8964   80.7557  224.6461 H   0  0  0  0  0  0  0  0  0  0  0  0
  141.5734   81.4787  223.6687 H   0  0  0  0  0  0  0  0  0  0  0  0
  141.4870   79.1470  225.2375 H   0  0  0  0  0  0  0  0  0  0  0  0
  140.2481   79.7668  224.0524 H   0  0  0  0  0  0  0  0  0  0  0  0
  142.4852   77.8020  223.5391 H   0  0  0  0  0  0  0  0  0  0  0  0
  140.6698   77.5265  223.5481 H   0  0  0  0  0  0  0  0  0  0  0  0
  139.0310   70.2454  222.3121 H   0  0  0  0  0  0  0  0  0  0  0  0
  138.6790   68.5052  224.0231 H   0  0  0  0  0  0  0  0  0  0  0  0
  138.9850   67.6337  226.2683 H   0  0  0  0  0  0  0  0  0  0  0  0
  139.9273   67.9233  228.5589 H   0  0  0  0  0  0  0  0  0  0  0  0
  141.2212   69.9875  229.0955 H   0  0  0  0  0  0  0  0  0  0  0  0
  141.5748   71.7440  227.3729 H   0  0  0  0  0  0  0  0  0  0  0  0
  1  2  2  0
  2  3  1  0
  3  4  1  0
  4  5  1  0
  5  6  2  0
  5  7  1  0
  7  8  1  0
  8  9  1  0
  9 10  1  0
 10 11  1  0
 11 12  1  0
 12 13  1  0
 13 14  1  0
 14 15  1  0
 15 16  1  0
 16 17  1  0
 17 18  1  0
  2 19  1  0
 19 20  2  0
 20 21  1  0
 21 22  2  0
 22 23  1  0
 23 24  2  0
 24 25  1  0
 25 26  2  0
 26 27  1  0
 27 28  2  0
 12  7  1  0
 18 13  1  0
 28 19  1  0
 27 22  1  0
  3 29  1  0
  4 30  1  0
  4 31  1  0
  8 32  1  0
  8 33  1  0
  9 34  1  0
  9 35  1  0
 10 36  1  0
 10 37  1  0
 11 38  1  0
 11 39  1  0
 12 40  1  6
 13 41  1  0
 14 42  1  0
 14 43  1  0
 15 44  1  0
 15 45  1  0
 16 46  1  0
 16 47  1  0
 17 48  1  0
 17 49  1  0
 18 50  1  0
 18 51  1  0
 20 52  1  0
 21 53  1  0
 23 54  1  0
 24 55  1  0
 25 56  1  0
 26 57  1  0
M  END
>  <smiles>  (55) 
O=C(NCC(=O)N1CCCCC1C1CCCCC1)c1ccc2ccccc2n1

>  <score_type>  (55) 
oracle

>  <origin>  (55) 
autodockgpu

>  <m_score__min__energy>  (55) 
-9.0199999999999996

>  <m_primary>  (55) 
energy

>  <rmsd>  (55) 
2.900421234802988

>  <m_score__min__rmsd>  (55) 
2.900421234802988

>  <meeko>  (55) 
{"free_energy": -8.98, "intermolecular_energy": -10.48, "internal_energy": -1.34, "cluster_size": 34, "cluster_id": 1, "rank_in_cluster": 5}

>  <energy>  (55) 
-8.98

>  <cluster_rmsd>  (55) 
0.45

>  <cluster>  (55) 
1

$$$$

     RDKit          3D

 57 60  0  0  0  0  0  0  0  0999 V2000
  141.4550   72.6070  221.9360 O   0  0  0  0  0  0  0  0  0  0  0  0
  140.3970   72.5180  222.6200 C   0  0  0  0  0  0  0  0  0  0  0  0
  139.3460   73.5050  222.3630 N   0  0  0  0  0  0  0  0  0  0  0  0
  139.6570   74.4540  221.3550 C   0  0  0  0  0  0  0  0  0  0  0  0
  140.0130   75.8130  221.6450 C   0  0  0  0  0  0  0  0  0  0  0  0
  141.3120   76.0000  221.7310 O   0  0  0  0  0  0  0  0  0  0  0  0
  139.2700   76.9990  221.8580 N   0  0  0  0  0  0  0  0  0  0  0  0
  137.9410   77.0590  222.3770 C   0  0  0  0  0  0  0  0  0  0  0  0
  137.3790   78.3940  222.7050 C   0  0  0  0  0  0  0  0  0  0  0  0
  137.7890   79.5290  221.8330 C   0  0  0  0  0  0  0  0  0  0  0  0
  138.9730   79.2460  220.9870 C   0  0  0  0  0  0  0  0  0  0  0  0
  139.9260   78.2500  221.4960 C   0  0  1  0  0  0  0  0  0  0  0  0
  140.9150   78.6430  222.5170 C   0  0  0  0  0  0  0  0  0  0  0  0
  142.1940   79.2340  221.9220 C   0  0  0  0  0  0  0  0  0  0  0  0
  142.9490   79.8270  223.0940 C   0  0  0  0  0  0  0  0  0  0  0  0
  142.2480   81.1290  223.4370 C   0  0  0  0  0  0  0  0  0  0  0  0
  140.7960   80.8640  223.6960 C   0  0  0  0  0  0  0  0  0  0  0  0
  140.4600   79.3930  223.7100 C   0  0  0  0  0  0  0  0  0  0  0  0
  140.1890   71.4980  223.6310 C   0  0  0  0  0  0  0  0  0  0  0  0
  139.5020   70.3640  223.2540 C   0  0  0  0  0  0  0  0  0  0  0  0
  139.3020   69.3970  224.2030 C   0  0  0  0  0  0  0  0  0  0  0  0
  139.7580   69.5150  225.5080 C   0  0  0  0  0  0  0  0  0  0  0  0
  139.5450   68.5280  226.4460 C   0  0  0  0  0  0  0  0  0  0  0  0
  140.0190   68.6910  227.7350 C   0  0  0  0  0  0  0  0  0  0  0  0
  140.7070   69.8610  228.0580 C   0  0  0  0  0  0  0  0  0  0  0  0
  140.9190   70.8540  227.1100 C   0  0  0  0  0  0  0  0  0  0  0  0
  140.4400   70.6770  225.8220 C   0  0  0  0  0  0  0  0  0  0  0  0
  140.6270   71.6160  224.8780 N   0  0  0  0  0  0  0  0  0  0  0  0
  138.5220   73.3760  222.9420 H   0  0  0  0  0  0  0  0  0  0  0  0
  140.5031   74.0325  220.7925 H   0  0  0  0  0  0  0  0  0  0  0  0
  138.6808   74.5820  220.8644 H   0  0  0  0  0  0  0  0  0  0  0  0
  137.2772   76.5995  221.6298 H   0  0  0  0  0  0  0  0  0  0  0  0
  138.0013   76.5413  223.3457 H   0  0  0  0  0  0  0  0  0  0  0  0
  136.2830   78.3149  222.6545 H   0  0  0  0  0  0  0  0  0  0  0  0
  137.7790   78.6374  223.7004 H   0  0  0  0  0  0  0  0  0  0  0  0
  136.9453   79.7800  221.1733 H   0  0  0  0  0  0  0  0  0  0  0  0
  138.0675   80.3574  222.5010 H   0  0  0  0  0  0  0  0  0  0  0  0
  138.6085   78.8904  220.0120 H   0  0  0  0  0  0  0  0  0  0  0  0
  139.5347   80.1911  220.9512 H   0  0  0  0  0  0  0  0  0  0  0  0
  140.5643   78.1211  220.6095 H   0  0  0  0  0  0  0  0  0  0  0  0
  141.1379   77.6571  222.9509 H   0  0  0  0  0  0  0  0  0  0  0  0
  142.7918   78.4478  221.4377 H   0  0  0  0  0  0  0  0  0  0  0  0
  141.9752   79.9895  221.1530 H   0  0  0  0  0  0  0  0  0  0  0  0
  142.9192   79.1405  223.9530 H   0  0  0  0  0  0  0  0  0  0  0  0
  144.0068   79.9961  222.8441 H   0  0  0  0  0  0  0  0  0  0  0  0
  142.7066   81.5660  224.3362 H   0  0  0  0  0  0  0  0  0  0  0  0
  142.3473   81.8305  222.5955 H   0  0  0  0  0  0  0  0  0  0  0  0
  140.5297   81.2940  224.6728 H   0  0  0  0  0  0  0  0  0  0  0  0
  140.2254   81.3247  222.8761 H   0  0  0  0  0  0  0  0  0  0  0  0
  140.9292   78.9428  224.5973 H   0  0  0  0  0  0  0  0  0  0  0  0
  139.3621   79.3252  223.7196 H   0  0  0  0  0  0  0  0  0  0  0  0
  139.1276   70.2401  222.2271 H   0  0  0  0  0  0  0  0  0  0  0  0
  138.7554   68.4860  223.9178 H   0  0  0  0  0  0  0  0  0  0  0  0
  138.9996   67.6134  226.1703 H   0  0  0  0  0  0  0  0  0  0  0  0
  139.8562   67.9109  228.4932 H   0  0  0  0  0  0  0  0  0  0  0  0
  141.0880   69.9995  229.0806 H   0  0  0  0  0  0  0  0  0  0  0  0
  141.4619   71.7720  227.3793 H   0  0  0  0  0  0  0  0  0  0  0  0
  1  2  2  0
  2  3  1  0
  3  4  1  0
  4  5  1  0
  5  6  2  0
  5  7  1  0
  7  8  1  0
  8  9  1  0
  9 10  1  0
 10 11  1  0
 11 12  1  0
 12 13  1  0
 13 14  1  0
 14 15  1  0
 15 16  1  0
 16 17  1  0
 17 18  1  0
  2 19  1  0
 19 20  2  0
 20 21  1  0
 21 22  2  0
 22 23  1  0
 23 24  2  0
 24 25  1  0
 25 26  2  0
 26 27  1  0
 27 28  2  0
 12  7  1  0
 18 13  1  0
 28 19  1  0
 27 22  1  0
  3 29  1  0
  4 30  1  0
  4 31  1  0
  8 32  1  0
  8 33  1  0
  9 34  1  0
  9 35  1  0
 10 36  1  0
 10 37  1  0
 11 38  1  0
 11 39  1  0
 12 40  1  6
 13 41  1  0
 14 42  1  0
 14 43  1  0
 15 44  1  0
 15 45  1  0
 16 46  1  0
 16 47  1  0
 17 48  1  0
 17 49  1  0
 18 50  1  0
 18 51  1  0
 20 52  1  0
 21 53  1  0
 23 54  1  0
 24 55  1  0
 25 56  1  0
 26 57  1  0
M  END
>  <smiles>  (56) 
O=C(NCC(=O)N1CCCCC1C1CCCCC1)c1ccc2ccccc2n1

>  <score_type>  (56) 
oracle

>  <origin>  (56) 
autodockgpu

>  <m_score__min__energy>  (56) 
-9.0199999999999996

>  <m_primary>  (56) 
energy

>  <rmsd>  (56) 
2.9754984792204398

>  <m_score__min__rmsd>  (56) 
2.9754984792204398

>  <meeko>  (56) 
{"free_energy": -9.01, "intermolecular_energy": -10.5, "internal_energy": -1.25, "cluster_size": 34, "cluster_id": 1, "rank_in_cluster": 2}

>  <energy>  (56) 
-8.98

>  <cluster_rmsd>  (56) 
0.06

>  <cluster>  (56) 
1

$$$$

     RDKit          3D

 57 60  0  0  0  0  0  0  0  0999 V2000
  141.4340   72.4780  221.8240 O   0  0  0  0  0  0  0  0  0  0  0  0
  140.4410   72.5060  222.6050 C   0  0  0  0  0  0  0  0  0  0  0  0
  139.4150   73.5200  222.3500 N   0  0  0  0  0  0  0  0  0  0  0  0
  139.6720   74.3570  221.2340 C   0  0  0  0  0  0  0  0  0  0  0  0
  140.1730   75.6950  221.3600 C   0  0  0  0  0  0  0  0  0  0  0  0
  141.4780   75.7740  221.2150 O   0  0  0  0  0  0  0  0  0  0  0  0
  139.5680   76.9510  221.6060 N   0  0  0  0  0  0  0  0  0  0  0  0
  138.3830   77.1610  222.3760 C   0  0  0  0  0  0  0  0  0  0  0  0
  137.9880   78.5590  222.6830 C   0  0  0  0  0  0  0  0  0  0  0  0
  138.2790   79.5840  221.6440 C   0  0  0  0  0  0  0  0  0  0  0  0
  139.2400   79.1390  220.6060 C   0  0  0  0  0  0  0  0  0  0  0  0
  140.2120   78.1120  221.0040 C   0  0  1  0  0  0  0  0  0  0  0  0
  141.4160   78.5010  221.7610 C   0  0  0  0  0  0  0  0  0  0  0  0
  141.8930   79.9200  221.4490 C   0  0  0  0  0  0  0  0  0  0  0  0
  142.9350   80.2370  222.5010 C   0  0  0  0  0  0  0  0  0  0  0  0
  142.1720   80.5420  223.7780 C   0  0  0  0  0  0  0  0  0  0  0  0
  141.2740   79.3910  224.1120 C   0  0  0  0  0  0  0  0  0  0  0  0
  141.4840   78.2000  223.2100 C   0  0  0  0  0  0  0  0  0  0  0  0
  140.2840   71.5930  223.7210 C   0  0  0  0  0  0  0  0  0  0  0  0
  139.6620   70.3890  223.4710 C   0  0  0  0  0  0  0  0  0  0  0  0
  139.5090   69.5210  224.5200 C   0  0  0  0  0  0  0  0  0  0  0  0
  139.9520   69.8070  225.8040 C   0  0  0  0  0  0  0  0  0  0  0  0
  139.7870   68.9170  226.8450 C   0  0  0  0  0  0  0  0  0  0  0  0
  140.2440   69.2470  228.1080 C   0  0  0  0  0  0  0  0  0  0  0  0
  140.8660   70.4800  228.3010 C   0  0  0  0  0  0  0  0  0  0  0  0
  141.0290   71.3740  227.2490 C   0  0  0  0  0  0  0  0  0  0  0  0
  140.5670   71.0310  225.9880 C   0  0  0  0  0  0  0  0  0  0  0  0
  140.7080   71.8700  224.9480 N   0  0  0  0  0  0  0  0  0  0  0  0
  138.6430   73.4860  223.0090 H   0  0  0  0  0  0  0  0  0  0  0  0
  140.4016   73.8175  220.6122 H   0  0  0  0  0  0  0  0  0  0  0  0
  138.6550   74.5376  220.8556 H   0  0  0  0  0  0  0  0  0  0  0  0
  137.5498   76.6993  221.8260 H   0  0  0  0  0  0  0  0  0  0  0  0
  138.6118   76.7192  223.3570 H   0  0  0  0  0  0  0  0  0  0  0  0
  136.9027   78.5661  222.8621 H   0  0  0  0  0  0  0  0  0  0  0  0
  138.6013   78.8467  223.5497 H   0  0  0  0  0  0  0  0  0  0  0  0
  137.3341   79.8509  221.1481 H   0  0  0  0  0  0  0  0  0  0  0  0
  138.7434   80.4365  222.1612 H   0  0  0  0  0  0  0  0  0  0  0  0
  138.6582   78.7384  219.7628 H   0  0  0  0  0  0  0  0  0  0  0  0
  139.8409   80.0290  220.3677 H   0  0  0  0  0  0  0  0  0  0  0  0
  140.6416   77.8626  220.0225 H   0  0  0  0  0  0  0  0  0  0  0  0
  142.1363   77.7773  221.3518 H   0  0  0  0  0  0  0  0  0  0  0  0
  142.3363   79.9641  220.4433 H   0  0  0  0  0  0  0  0  0  0  0  0
  141.0635   80.6423  221.4656 H   0  0  0  0  0  0  0  0  0  0  0  0
  143.5995   79.3734  222.6514 H   0  0  0  0  0  0  0  0  0  0  0  0
  143.5635   81.0874  222.1979 H   0  0  0  0  0  0  0  0  0  0  0  0
  142.8841   80.7019  224.6010 H   0  0  0  0  0  0  0  0  0  0  0  0
  141.5664   81.4490  223.6347 H   0  0  0  0  0  0  0  0  0  0  0  0
  141.4691   79.0836  225.1500 H   0  0  0  0  0  0  0  0  0  0  0  0
  140.2371   79.7309  223.9731 H   0  0  0  0  0  0  0  0  0  0  0  0
  142.4764   77.7774  223.4259 H   0  0  0  0  0  0  0  0  0  0  0  0
  140.6608   77.5015  223.4211 H   0  0  0  0  0  0  0  0  0  0  0  0
  139.3008   70.1336  222.4639 H   0  0  0  0  0  0  0  0  0  0  0  0
  139.0138   68.5560  224.3368 H   0  0  0  0  0  0  0  0  0  0  0  0
  139.2941   67.9491  226.6713 H   0  0  0  0  0  0  0  0  0  0  0  0
  140.1187   68.5474  228.9475 H   0  0  0  0  0  0  0  0  0  0  0  0
  141.2337   70.7497  229.3020 H   0  0  0  0  0  0  0  0  0  0  0  0
  141.5199   72.3442  227.4157 H   0  0  0  0  0  0  0  0  0  0  0  0
  1  2  2  0
  2  3  1  0
  3  4  1  0
  4  5  1  0
  5  6  2  0
  5  7  1  0
  7  8  1  0
  8  9  1  0
  9 10  1  0
 10 11  1  0
 11 12  1  0
 12 13  1  0
 13 14  1  0
 14 15  1  0
 15 16  1  0
 16 17  1  0
 17 18  1  0
  2 19  1  0
 19 20  2  0
 20 21  1  0
 21 22  2  0
 22 23  1  0
 23 24  2  0
 24 25  1  0
 25 26  2  0
 26 27  1  0
 27 28  2  0
 12  7  1  0
 18 13  1  0
 28 19  1  0
 27 22  1  0
  3 29  1  0
  4 30  1  0
  4 31  1  0
  8 32  1  0
  8 33  1  0
  9 34  1  0
  9 35  1  0
 10 36  1  0
 10 37  1  0
 11 38  1  0
 11 39  1  0
 12 40  1  6
 13 41  1  0
 14 42  1  0
 14 43  1  0
 15 44  1  0
 15 45  1  0
 16 46  1  0
 16 47  1  0
 17 48  1  0
 17 49  1  0
 18 50  1  0
 18 51  1  0
 20 52  1  0
 21 53  1  0
 23 54  1  0
 24 55  1  0
 25 56  1  0
 26 57  1  0
M  END
>  <smiles>  (57) 
O=C(NCC(=O)N1CCCCC1C1CCCCC1)c1ccc2ccccc2n1

>  <score_type>  (57) 
oracle

>  <origin>  (57) 
autodockgpu

>  <m_score__min__energy>  (57) 
-9.0199999999999996

>  <m_primary>  (57) 
energy

>  <rmsd>  (57) 
2.866738747378331

>  <m_score__min__rmsd>  (57) 
2.866738747378331

>  <meeko>  (57) 
{"free_energy": -9.0, "intermolecular_energy": -10.49, "internal_energy": -1.38, "cluster_size": 34, "cluster_id": 1, "rank_in_cluster": 3}

>  <energy>  (57) 
-8.98

>  <cluster_rmsd>  (57) 
1.35

>  <cluster>  (57) 
1

$$$$

     RDKit          3D

 57 60  0  0  0  0  0  0  0  0999 V2000
  141.4430   72.7410  221.5900 O   0  0  0  0  0  0  0  0  0  0  0  0
  140.4890   72.7610  222.4180 C   0  0  0  0  0  0  0  0  0  0  0  0
  139.5580   73.8890  222.3440 N   0  0  0  0  0  0  0  0  0  0  0  0
  139.8530   74.8360  221.3290 C   0  0  0  0  0  0  0  0  0  0  0  0
  139.4470   76.2090  221.4000 C   0  0  0  0  0  0  0  0  0  0  0  0
  138.4390   76.4090  222.2220 O   0  0  0  0  0  0  0  0  0  0  0  0
  139.8940   77.4000  220.7780 N   0  0  0  0  0  0  0  0  0  0  0  0
  139.1070   78.2310  219.9240 C   0  0  0  0  0  0  0  0  0  0  0  0
  139.6770   79.5360  219.5010 C   0  0  0  0  0  0  0  0  0  0  0  0
  141.1490   79.5880  219.2850 C   0  0  0  0  0  0  0  0  0  0  0  0
  141.8880   78.4410  219.8640 C   0  0  0  0  0  0  0  0  0  0  0  0
  141.2780   77.7830  221.0280 C   0  0  1  0  0  0  0  0  0  0  0  0
  141.4280   78.3830  222.3660 C   0  0  0  0  0  0  0  0  0  0  0  0
  142.5810   79.3830  222.4540 C   0  0  0  0  0  0  0  0  0  0  0  0
  142.4040   80.0900  223.7820 C   0  0  0  0  0  0  0  0  0  0  0  0
  141.2710   81.0830  223.5880 C   0  0  0  0  0  0  0  0  0  0  0  0
  140.0540   80.3630  223.0930 C   0  0  0  0  0  0  0  0  0  0  0  0
  140.2210   78.8640  223.0780 C   0  0  0  0  0  0  0  0  0  0  0  0
  140.2860   71.7300  223.4190 C   0  0  0  0  0  0  0  0  0  0  0  0
  139.6400   70.5800  223.0200 C   0  0  0  0  0  0  0  0  0  0  0  0
  139.4440   69.6020  223.9610 C   0  0  0  0  0  0  0  0  0  0  0  0
  139.8670   69.7260  225.2760 C   0  0  0  0  0  0  0  0  0  0  0  0
  139.6590   68.7280  226.2040 C   0  0  0  0  0  0  0  0  0  0  0  0
  140.0980   68.8980  227.5050 C   0  0  0  0  0  0  0  0  0  0  0  0
  140.7460   70.0840  227.8490 C   0  0  0  0  0  0  0  0  0  0  0  0
  140.9530   71.0880  226.9110 C   0  0  0  0  0  0  0  0  0  0  0  0
  140.5090   70.9040  225.6110 C   0  0  0  0  0  0  0  0  0  0  0  0
  140.6910   71.8530  224.6770 N   0  0  0  0  0  0  0  0  0  0  0  0
  138.8130   73.8430  223.0320 H   0  0  0  0  0  0  0  0  0  0  0  0
  140.9490   74.8486  221.2356 H   0  0  0  0  0  0  0  0  0  0  0  0
  139.2349   74.4667  220.4974 H   0  0  0  0  0  0  0  0  0  0  0  0
  138.8963   77.6549  219.0109 H   0  0  0  0  0  0  0  0  0  0  0  0
  138.2310   78.4987  220.5331 H   0  0  0  0  0  0  0  0  0  0  0  0
  139.1918   79.8201  218.5555 H   0  0  0  0  0  0  0  0  0  0  0  0
  139.4855   80.2193  220.3415 H   0  0  0  0  0  0  0  0  0  0  0  0
  141.3383   79.6091  218.2016 H   0  0  0  0  0  0  0  0  0  0  0  0
  141.5126   80.4904  219.7983 H   0  0  0  0  0  0  0  0  0  0  0  0
  142.0005   77.6839  219.0740 H   0  0  0  0  0  0  0  0  0  0  0  0
  142.8341   78.8633  220.2334 H   0  0  0  0  0  0  0  0  0  0  0  0
  141.9252   76.8975  221.1115 H   0  0  0  0  0  0  0  0  0  0  0  0
  141.6830   77.4844  222.9469 H   0  0  0  0  0  0  0  0  0  0  0  0
  143.5476   78.8588  222.4235 H   0  0  0  0  0  0  0  0  0  0  0  0
  142.5728   80.0900  221.6113 H   0  0  0  0  0  0  0  0  0  0  0  0
  142.1450   79.3652  224.5679 H   0  0  0  0  0  0  0  0  0  0  0  0
  143.3302   80.5956  224.0926 H   0  0  0  0  0  0  0  0  0  0  0  0
  141.0433   81.5712  224.5471 H   0  0  0  0  0  0  0  0  0  0  0  0
  141.5719   81.8428  222.8517 H   0  0  0  0  0  0  0  0  0  0  0  0
  139.2071   80.6147  223.7483 H   0  0  0  0  0  0  0  0  0  0  0  0
  139.8806   80.6850  222.0556 H   0  0  0  0  0  0  0  0  0  0  0  0
  140.2756   78.5148  224.1197 H   0  0  0  0  0  0  0  0  0  0  0  0
  139.3560   78.4603  222.5313 H   0  0  0  0  0  0  0  0  0  0  0  0
  139.2940   70.4512  221.9838 H   0  0  0  0  0  0  0  0  0  0  0  0
  138.9285   68.6782  223.6595 H   0  0  0  0  0  0  0  0  0  0  0  0
  139.1460   67.8001  225.9112 H   0  0  0  0  0  0  0  0  0  0  0  0
  139.9385   68.1103  228.2560 H   0  0  0  0  0  0  0  0  0  0  0  0
  141.0994   70.2272  228.8808 H   0  0  0  0  0  0  0  0  0  0  0  0
  141.4639   72.0191  227.1972 H   0  0  0  0  0  0  0  0  0  0  0  0
  1  2  2  0
  2  3  1  0
  3  4  1  0
  4  5  1  0
  5  6  2  0
  5  7  1  0
  7  8  1  0
  8  9  1  0
  9 10  1  0
 10 11  1  0
 11 12  1  0
 12 13  1  0
 13 14  1  0
 14 15  1  0
 15 16  1  0
 16 17  1  0
 17 18  1  0
  2 19  1  0
 19 20  2  0
 20 21  1  0
 21 22  2  0
 22 23  1  0
 23 24  2  0
 24 25  1  0
 25 26  2  0
 26 27  1  0
 27 28  2  0
 12  7  1  0
 18 13  1  0
 28 19  1  0
 27 22  1  0
  3 29  1  0
  4 30  1  0
  4 31  1  0
  8 32  1  0
  8 33  1  0
  9 34  1  0
  9 35  1  0
 10 36  1  0
 10 37  1  0
 11 38  1  0
 11 39  1  0
 12 40  1  1
 13 41  1  0
 14 42  1  0
 14 43  1  0
 15 44  1  0
 15 45  1  0
 16 46  1  0
 16 47  1  0
 17 48  1  0
 17 49  1  0
 18 50  1  0
 18 51  1  0
 20 52  1  0
 21 53  1  0
 23 54  1  0
 24 55  1  0
 25 56  1  0
 26 57  1  0
M  END
>  <smiles>  (58) 
O=C(NCC(=O)N1CCCCC1C1CCCCC1)c1ccc2ccccc2n1

>  <score_type>  (58) 
oracle

>  <origin>  (58) 
autodockgpu

>  <m_score__min__energy>  (58) 
-9.0199999999999996

>  <m_primary>  (58) 
energy

>  <rmsd>  (58) 
2.298596173888554

>  <m_score__min__rmsd>  (58) 
2.298596173888554

>  <meeko>  (58) 
{"free_energy": -8.67, "intermolecular_energy": -10.16, "internal_energy": -1.56, "cluster_size": 34, "cluster_id": 1, "rank_in_cluster": 26}

>  <energy>  (58) 
-8.97

>  <cluster_rmsd>  (58) 
1.0

>  <cluster>  (58) 
1

$$$$

     RDKit          3D

 57 60  0  0  0  0  0  0  0  0999 V2000
  140.8710   71.5170  221.4170 O   0  0  0  0  0  0  0  0  0  0  0  0
  140.2740   71.9340  222.4500 C   0  0  0  0  0  0  0  0  0  0  0  0
  139.7020   73.2810  222.3980 N   0  0  0  0  0  0  0  0  0  0  0  0
  139.8930   73.9600  221.1680 C   0  0  0  0  0  0  0  0  0  0  0  0
  140.8880   74.9770  220.9830 C   0  0  0  0  0  0  0  0  0  0  0  0
  141.0030   75.7810  222.0170 O   0  0  0  0  0  0  0  0  0  0  0  0
  141.7730   75.3040  219.9290 N   0  0  0  0  0  0  0  0  0  0  0  0
  142.3460   76.5930  219.7010 C   0  0  0  0  0  0  0  0  0  0  0  0
  143.3930   76.7180  218.6560 C   0  0  0  0  0  0  0  0  0  0  0  0
  143.2550   75.8460  217.4570 C   0  0  0  0  0  0  0  0  0  0  0  0
  142.3000   74.7260  217.6300 C   0  0  0  0  0  0  0  0  0  0  0  0
  142.1040   74.2310  219.0000 C   0  0  1  0  0  0  0  0  0  0  0  0
  143.0900   73.3060  219.5890 C   0  0  0  0  0  0  0  0  0  0  0  0
  144.0490   72.7090  218.5590 C   0  0  0  0  0  0  0  0  0  0  0  0
  145.1380   72.0310  219.3650 C   0  0  0  0  0  0  0  0  0  0  0  0
  146.0380   73.1400  219.8830 C   0  0  0  0  0  0  0  0  0  0  0  0
  145.2190   74.1340  220.6470 C   0  0  0  0  0  0  0  0  0  0  0  0
  143.7880   73.6970  220.8360 C   0  0  0  0  0  0  0  0  0  0  0  0
  140.1400   71.1440  223.6600 C   0  0  0  0  0  0  0  0  0  0  0  0
  139.5910   69.8870  223.5380 C   0  0  0  0  0  0  0  0  0  0  0  0
  139.4600   69.1360  224.6770 C   0  0  0  0  0  0  0  0  0  0  0  0
  139.8540   69.5890  225.9270 C   0  0  0  0  0  0  0  0  0  0  0  0
  139.7130   68.8150  227.0600 C   0  0  0  0  0  0  0  0  0  0  0  0
  140.1210   69.3100  228.2850 C   0  0  0  0  0  0  0  0  0  0  0  0
  140.6690   70.5910  228.3470 C   0  0  0  0  0  0  0  0  0  0  0  0
  140.8100   71.3680  227.2030 C   0  0  0  0  0  0  0  0  0  0  0  0
  140.3980   70.8590  225.9820 C   0  0  0  0  0  0  0  0  0  0  0  0
  140.5180   71.5820  224.8550 N   0  0  0  0  0  0  0  0  0  0  0  0
  139.2330   73.5520  223.2570 H   0  0  0  0  0  0  0  0  0  0  0  0
  140.1135   73.1813  220.4231 H   0  0  0  0  0  0  0  0  0  0  0  0
  138.9643   74.5447  221.0930 H   0  0  0  0  0  0  0  0  0  0  0  0
  141.5252   77.2709  219.4237 H   0  0  0  0  0  0  0  0  0  0  0  0
  142.8670   76.8308  220.6401 H   0  0  0  0  0  0  0  0  0  0  0  0
  143.3938   77.7620  218.3094 H   0  0  0  0  0  0  0  0  0  0  0  0
  144.3242   76.3919  219.1423 H   0  0  0  0  0  0  0  0  0  0  0  0
  142.9111   76.4665  216.6163 H   0  0  0  0  0  0  0  0  0  0  0  0
  144.2424   75.3959  217.2768 H   0  0  0  0  0  0  0  0  0  0  0  0
  141.3221   75.0607  217.2535 H   0  0  0  0  0  0  0  0  0  0  0  0
  142.7408   73.8826  217.0783 H   0  0  0  0  0  0  0  0  0  0  0  0
  141.2436   73.5638  218.8432 H   0  0  0  0  0  0  0  0  0  0  0  0
  142.4138   72.5185  219.9532 H   0  0  0  0  0  0  0  0  0  0  0  0
  143.5263   71.9764  217.9264 H   0  0  0  0  0  0  0  0  0  0  0  0
  144.4574   73.4787  217.8876 H   0  0  0  0  0  0  0  0  0  0  0  0
  144.6988   71.4732  220.2052 H   0  0  0  0  0  0  0  0  0  0  0  0
  145.7013   71.3127  218.7513 H   0  0  0  0  0  0  0  0  0  0  0  0
  146.8044   72.7107  220.5451 H   0  0  0  0  0  0  0  0  0  0  0  0
  146.5251   73.6424  219.0343 H   0  0  0  0  0  0  0  0  0  0  0  0
  145.6756   74.2771  221.6375 H   0  0  0  0  0  0  0  0  0  0  0  0
  145.2041   75.0663  220.0633 H   0  0  0  0  0  0  0  0  0  0  0  0
  143.7806   72.8338  221.5178 H   0  0  0  0  0  0  0  0  0  0  0  0
  143.2473   74.5681  221.2345 H   0  0  0  0  0  0  0  0  0  0  0  0
  139.2688   69.4991  222.5604 H   0  0  0  0  0  0  0  0  0  0  0  0
  139.0231   68.1297  224.5960 H   0  0  0  0  0  0  0  0  0  0  0  0
  139.2774   67.8074  226.9893 H   0  0  0  0  0  0  0  0  0  0  0  0
  140.0150   68.7030  229.1962 H   0  0  0  0  0  0  0  0  0  0  0  0
  140.9951   70.9933  229.3175 H   0  0  0  0  0  0  0  0  0  0  0  0
  141.2442   72.3767  227.2665 H   0  0  0  0  0  0  0  0  0  0  0  0
  1  2  2  0
  2  3  1  0
  3  4  1  0
  4  5  1  0
  5  6  2  0
  5  7  1  0
  7  8  1  0
  8  9  1  0
  9 10  1  0
 10 11  1  0
 11 12  1  0
 12 13  1  0
 13 14  1  0
 14 15  1  0
 15 16  1  0
 16 17  1  0
 17 18  1  0
  2 19  1  0
 19 20  2  0
 20 21  1  0
 21 22  2  0
 22 23  1  0
 23 24  2  0
 24 25  1  0
 25 26  2  0
 26 27  1  0
 27 28  2  0
 12  7  1  0
 18 13  1  0
 28 19  1  0
 27 22  1  0
  3 29  1  0
  4 30  1  0
  4 31  1  0
  8 32  1  0
  8 33  1  0
  9 34  1  0
  9 35  1  0
 10 36  1  0
 10 37  1  0
 11 38  1  0
 11 39  1  0
 12 40  1  6
 13 41  1  0
 14 42  1  0
 14 43  1  0
 15 44  1  0
 15 45  1  0
 16 46  1  0
 16 47  1  0
 17 48  1  0
 17 49  1  0
 18 50  1  0
 18 51  1  0
 20 52  1  0
 21 53  1  0
 23 54  1  0
 24 55  1  0
 25 56  1  0
 26 57  1  0
M  END
>  <smiles>  (59) 
O=C(NCC(=O)N1CCCCC1C1CCCCC1)c1ccc2ccccc2n1

>  <score_type>  (59) 
oracle

>  <origin>  (59) 
autodockgpu

>  <m_score__min__energy>  (59) 
-9.0199999999999996

>  <m_primary>  (59) 
energy

>  <rmsd>  (59) 
2.3246410072705785

>  <m_score__min__rmsd>  (59) 
2.3246410072705785

>  <meeko>  (59) 
{"free_energy": -8.2, "intermolecular_energy": -9.69, "internal_energy": -1.88, "cluster_size": 6, "cluster_id": 3, "rank_in_cluster": 5}

>  <energy>  (59) 
-8.97

>  <cluster_rmsd>  (59) 
0.29

>  <cluster>  (59) 
1

$$$$

     RDKit          3D

 57 60  0  0  0  0  0  0  0  0999 V2000
  138.5470   71.9550  222.0350 O   0  0  0  0  0  0  0  0  0  0  0  0
  139.5200   71.9560  222.8420 C   0  0  0  0  0  0  0  0  0  0  0  0
  140.5680   72.9550  222.6280 N   0  0  0  0  0  0  0  0  0  0  0  0
  140.3530   73.8140  221.5190 C   0  0  0  0  0  0  0  0  0  0  0  0
  139.9510   75.1840  221.6580 C   0  0  0  0  0  0  0  0  0  0  0  0
  139.2040   75.3980  222.7200 O   0  0  0  0  0  0  0  0  0  0  0  0
  140.1810   76.3570  220.9010 N   0  0  0  0  0  0  0  0  0  0  0  0
  139.3820   76.8030  219.8050 C   0  0  0  0  0  0  0  0  0  0  0  0
  139.6610   78.1470  219.2380 C   0  0  0  0  0  0  0  0  0  0  0  0
  141.0820   78.5920  219.2320 C   0  0  0  0  0  0  0  0  0  0  0  0
  141.9700   77.7950  220.1110 C   0  0  0  0  0  0  0  0  0  0  0  0
  141.3440   77.1530  221.2740 C   0  0  1  0  0  0  0  0  0  0  0  0
  141.0750   77.9450  222.4880 C   0  0  0  0  0  0  0  0  0  0  0  0
  142.1210   79.0310  222.7450 C   0  0  0  0  0  0  0  0  0  0  0  0
  141.5390   79.9030  223.8390 C   0  0  0  0  0  0  0  0  0  0  0  0
  140.4840   80.7710  223.1760 C   0  0  0  0  0  0  0  0  0  0  0  0
  139.4890   79.9000  222.4720 C   0  0  0  0  0  0  0  0  0  0  0  0
  139.6980   78.4310  222.7410 C   0  0  0  0  0  0  0  0  0  0  0  0
  139.6340   71.0240  223.9480 C   0  0  0  0  0  0  0  0  0  0  0  0
  139.0910   69.7690  223.7770 C   0  0  0  0  0  0  0  0  0  0  0  0
  139.1950   68.8830  224.8170 C   0  0  0  0  0  0  0  0  0  0  0  0
  139.8180   69.1990  226.0160 C   0  0  0  0  0  0  0  0  0  0  0  0
  139.9110   68.2910  227.0500 C   0  0  0  0  0  0  0  0  0  0  0  0
  140.5410   68.6520  228.2260 C   0  0  0  0  0  0  0  0  0  0  0  0
  141.0720   69.9370  228.3420 C   0  0  0  0  0  0  0  0  0  0  0  0
  140.9750   70.8490  227.2980 C   0  0  0  0  0  0  0  0  0  0  0  0
  140.3420   70.4740  226.1240 C   0  0  0  0  0  0  0  0  0  0  0  0
  140.2300   71.3300  225.0940 N   0  0  0  0  0  0  0  0  0  0  0  0
  141.3170   72.9060  223.3120 H   0  0  0  0  0  0  0  0  0  0  0  0
  141.3008   73.8315  220.9611 H   0  0  0  0  0  0  0  0  0  0  0  0
  139.4564   73.3667  221.0650 H   0  0  0  0  0  0  0  0  0  0  0  0
  139.5064   76.0730  218.9916 H   0  0  0  0  0  0  0  0  0  0  0  0
  138.3675   76.8868  220.2218 H   0  0  0  0  0  0  0  0  0  0  0  0
  139.3075   78.1485  218.1964 H   0  0  0  0  0  0  0  0  0  0  0  0
  139.1414   78.8530  219.9025 H   0  0  0  0  0  0  0  0  0  0  0  0
  141.4617   78.5212  218.2020 H   0  0  0  0  0  0  0  0  0  0  0  0
  141.0934   79.6214  219.6195 H   0  0  0  0  0  0  0  0  0  0  0  0
  142.4231   77.0028  219.4968 H   0  0  0  0  0  0  0  0  0  0  0  0
  142.6856   78.5176  220.5303 H   0  0  0  0  0  0  0  0  0  0  0  0
  142.1727   76.5122  221.6096 H   0  0  0  0  0  0  0  0  0  0  0  0
  141.1738   77.1579  223.2500 H   0  0  0  0  0  0  0  0  0  0  0  0
  143.0689   78.5812  223.0754 H   0  0  0  0  0  0  0  0  0  0  0  0
  142.3405   79.6095  221.8355 H   0  0  0  0  0  0  0  0  0  0  0  0
  141.0822   79.2788  224.6211 H   0  0  0  0  0  0  0  0  0  0  0  0
  142.3169   80.5153  224.3186 H   0  0  0  0  0  0  0  0  0  0  0  0
  139.9693   81.3708  223.9410 H   0  0  0  0  0  0  0  0  0  0  0  0
  140.9653   81.4398  222.4473 H   0  0  0  0  0  0  0  0  0  0  0  0
  138.4794   80.1780  222.8089 H   0  0  0  0  0  0  0  0  0  0  0  0
  139.6192   80.0586  221.3913 H   0  0  0  0  0  0  0  0  0  0  0  0
  139.4549   78.2379  223.7963 H   0  0  0  0  0  0  0  0  0  0  0  0
  139.0442   77.8907  222.0405 H   0  0  0  0  0  0  0  0  0  0  0  0
  138.5914   69.4882  222.8381 H   0  0  0  0  0  0  0  0  0  0  0  0
  138.7659   67.8774  224.6962 H   0  0  0  0  0  0  0  0  0  0  0  0
  139.4852   67.2829  226.9391 H   0  0  0  0  0  0  0  0  0  0  0  0
  140.6225   67.9370  229.0580 H   0  0  0  0  0  0  0  0  0  0  0  0
  141.5753   70.2328  229.2743 H   0  0  0  0  0  0  0  0  0  0  0  0
  141.3969   71.8594  227.4027 H   0  0  0  0  0  0  0  0  0  0  0  0
  1  2  2  0
  2  3  1  0
  3  4  1  0
  4  5  1  0
  5  6  2  0
  5  7  1  0
  7  8  1  0
  8  9  1  0
  9 10  1  0
 10 11  1  0
 11 12  1  0
 12 13  1  0
 13 14  1  0
 14 15  1  0
 15 16  1  0
 16 17  1  0
 17 18  1  0
  2 19  1  0
 19 20  2  0
 20 21  1  0
 21 22  2  0
 22 23  1  0
 23 24  2  0
 24 25  1  0
 25 26  2  0
 26 27  1  0
 27 28  2  0
 12  7  1  0
 18 13  1  0
 28 19  1  0
 27 22  1  0
  3 29  1  0
  4 30  1  0
  4 31  1  0
  8 32  1  0
  8 33  1  0
  9 34  1  0
  9 35  1  0
 10 36  1  0
 10 37  1  0
 11 38  1  0
 11 39  1  0
 12 40  1  1
 13 41  1  0
 14 42  1  0
 14 43  1  0
 15 44  1  0
 15 45  1  0
 16 46  1  0
 16 47  1  0
 17 48  1  0
 17 49  1  0
 18 50  1  0
 18 51  1  0
 20 52  1  0
 21 53  1  0
 23 54  1  0
 24 55  1  0
 25 56  1  0
 26 57  1  0
M  END
>  <smiles>  (60) 
O=C(NCC(=O)N1CCCCC1C1CCCCC1)c1ccc2ccccc2n1

>  <score_type>  (60) 
oracle

>  <origin>  (60) 
autodockgpu

>  <m_score__min__energy>  (60) 
-9.0199999999999996

>  <m_primary>  (60) 
energy

>  <rmsd>  (60) 
1.8429263060574415

>  <m_score__min__rmsd>  (60) 
1.8429263060574415

>  <meeko>  (60) 
{"free_energy": -8.15, "intermolecular_energy": -9.64, "internal_energy": -1.63, "cluster_size": 34, "cluster_id": 1, "rank_in_cluster": 33}

>  <energy>  (60) 
-8.97

>  <cluster_rmsd>  (60) 
0.93

>  <cluster>  (60) 
1

$$$$

     RDKit          3D

 57 60  0  0  0  0  0  0  0  0999 V2000
  141.3350   72.1400  221.6960 O   0  0  0  0  0  0  0  0  0  0  0  0
  140.4170   72.3210  222.5450 C   0  0  0  0  0  0  0  0  0  0  0  0
  139.4910   73.4300  222.3070 N   0  0  0  0  0  0  0  0  0  0  0  0
  139.7490   74.1750  221.1280 C   0  0  0  0  0  0  0  0  0  0  0  0
  140.9340   74.9610  220.9430 C   0  0  0  0  0  0  0  0  0  0  0  0
  141.3070   75.5970  222.0330 O   0  0  0  0  0  0  0  0  0  0  0  0
  141.7920   75.2030  219.8440 N   0  0  0  0  0  0  0  0  0  0  0  0
  142.3410   76.4730  219.4880 C   0  0  0  0  0  0  0  0  0  0  0  0
  143.3640   76.5140  218.4120 C   0  0  0  0  0  0  0  0  0  0  0  0
  143.2100   75.5370  217.3000 C   0  0  0  0  0  0  0  0  0  0  0  0
  142.2740   74.4260  217.5950 C   0  0  0  0  0  0  0  0  0  0  0  0
  142.1150   74.0540  219.0070 C   0  0  1  0  0  0  0  0  0  0  0  0
  143.1260   73.1970  219.6540 C   0  0  0  0  0  0  0  0  0  0  0  0
  144.0610   72.5090  218.6580 C   0  0  0  0  0  0  0  0  0  0  0  0
  145.1780   71.9190  219.4930 C   0  0  0  0  0  0  0  0  0  0  0  0
  146.0830   73.0780  219.8730 C   0  0  0  0  0  0  0  0  0  0  0  0
  145.2780   74.1370  220.5620 C   0  0  0  0  0  0  0  0  0  0  0  0
  143.8570   73.7120  220.8350 C   0  0  0  0  0  0  0  0  0  0  0  0
  140.2490   71.4880  223.7220 C   0  0  0  0  0  0  0  0  0  0  0  0
  139.5820   70.2930  223.5620 C   0  0  0  0  0  0  0  0  0  0  0  0
  139.4200   69.5030  224.6690 C   0  0  0  0  0  0  0  0  0  0  0  0
  139.8970   69.8550  225.9240 C   0  0  0  0  0  0  0  0  0  0  0  0
  139.7220   69.0420  227.0240 C   0  0  0  0  0  0  0  0  0  0  0  0
  140.2140   69.4380  228.2540 C   0  0  0  0  0  0  0  0  0  0  0  0
  140.8810   70.6580  228.3550 C   0  0  0  0  0  0  0  0  0  0  0  0
  141.0550   71.4750  227.2430 C   0  0  0  0  0  0  0  0  0  0  0  0
  140.5570   71.0670  226.0160 C   0  0  0  0  0  0  0  0  0  0  0  0
  140.7060   71.8300  224.9200 N   0  0  0  0  0  0  0  0  0  0  0  0
  138.7750   73.5180  223.0220 H   0  0  0  0  0  0  0  0  0  0  0  0
  139.7353   73.4488  220.3019 H   0  0  0  0  0  0  0  0  0  0  0  0
  138.9756   74.9549  221.1877 H   0  0  0  0  0  0  0  0  0  0  0  0
  141.5050   77.1128  219.1690 H   0  0  0  0  0  0  0  0  0  0  0  0
  142.8777   76.8026  220.3898 H   0  0  0  0  0  0  0  0  0  0  0  0
  143.3450   77.5226  217.9734 H   0  0  0  0  0  0  0  0  0  0  0  0
  144.3094   76.2421  218.9042 H   0  0  0  0  0  0  0  0  0  0  0  0
  142.8387   76.0758  216.4158 H   0  0  0  0  0  0  0  0  0  0  0  0
  144.1989   75.0836  217.1373 H   0  0  0  0  0  0  0  0  0  0  0  0
  141.2836   74.7143  217.2128 H   0  0  0  0  0  0  0  0  0  0  0  0
  142.7139   73.5415  217.1111 H   0  0  0  0  0  0  0  0  0  0  0  0
  141.2601   73.3661  218.9300 H   0  0  0  0  0  0  0  0  0  0  0  0
  142.4677   72.4450  220.1134 H   0  0  0  0  0  0  0  0  0  0  0  0
  143.5271   71.7156  218.1144 H   0  0  0  0  0  0  0  0  0  0  0  0
  144.4432   73.2127  217.9039 H   0  0  0  0  0  0  0  0  0  0  0  0
  144.7681   71.4436  220.3963 H   0  0  0  0  0  0  0  0  0  0  0  0
  145.7291   71.1470  218.9359 H   0  0  0  0  0  0  0  0  0  0  0  0
  146.8727   72.7196  220.5498 H   0  0  0  0  0  0  0  0  0  0  0  0
  146.5401   73.4984  218.9651 H   0  0  0  0  0  0  0  0  0  0  0  0
  145.7621   74.3778  221.5199 H   0  0  0  0  0  0  0  0  0  0  0  0
  145.2381   75.0084  219.8919 H   0  0  0  0  0  0  0  0  0  0  0  0
  143.8771   72.9195  221.5976 H   0  0  0  0  0  0  0  0  0  0  0  0
  143.3207   74.6149  221.1623 H   0  0  0  0  0  0  0  0  0  0  0  0
  139.1935   69.9845  222.5802 H   0  0  0  0  0  0  0  0  0  0  0  0
  138.8880   68.5466  224.5585 H   0  0  0  0  0  0  0  0  0  0  0  0
  139.1933   68.0826  226.9234 H   0  0  0  0  0  0  0  0  0  0  0  0
  140.0811   68.7997  229.1399 H   0  0  0  0  0  0  0  0  0  0  0  0
  141.2760   70.9796  229.3299 H   0  0  0  0  0  0  0  0  0  0  0  0
  141.5827   72.4356  227.3366 H   0  0  0  0  0  0  0  0  0  0  0  0
  1  2  2  0
  2  3  1  0
  3  4  1  0
  4  5  1  0
  5  6  2  0
  5  7  1  0
  7  8  1  0
  8  9  1  0
  9 10  1  0
 10 11  1  0
 11 12  1  0
 12 13  1  0
 13 14  1  0
 14 15  1  0
 15 16  1  0
 16 17  1  0
 17 18  1  0
  2 19  1  0
 19 20  2  0
 20 21  1  0
 21 22  2  0
 22 23  1  0
 23 24  2  0
 24 25  1  0
 25 26  2  0
 26 27  1  0
 27 28  2  0
 12  7  1  0
 18 13  1  0
 28 19  1  0
 27 22  1  0
  3 29  1  0
  4 30  1  0
  4 31  1  0
  8 32  1  0
  8 33  1  0
  9 34  1  0
  9 35  1  0
 10 36  1  0
 10 37  1  0
 11 38  1  0
 11 39  1  0
 12 40  1  6
 13 41  1  0
 14 42  1  0
 14 43  1  0
 15 44  1  0
 15 45  1  0
 16 46  1  0
 16 47  1  0
 17 48  1  0
 17 49  1  0
 18 50  1  0
 18 51  1  0
 20 52  1  0
 21 53  1  0
 23 54  1  0
 24 55  1  0
 25 56  1  0
 26 57  1  0
M  END
>  <smiles>  (61) 
O=C(NCC(=O)N1CCCCC1C1CCCCC1)c1ccc2ccccc2n1

>  <score_type>  (61) 
oracle

>  <origin>  (61) 
autodockgpu

>  <m_score__min__energy>  (61) 
-9.0199999999999996

>  <m_primary>  (61) 
energy

>  <rmsd>  (61) 
2.386047472834644

>  <m_score__min__rmsd>  (61) 
2.386047472834644

>  <meeko>  (61) 
{"free_energy": -8.29, "intermolecular_energy": -9.78, "internal_energy": -1.83, "cluster_size": 6, "cluster_id": 3, "rank_in_cluster": 4}

>  <energy>  (61) 
-8.96

>  <cluster_rmsd>  (61) 
1.01

>  <cluster>  (61) 
1

$$$$

     RDKit          3D

 57 60  0  0  0  0  0  0  0  0999 V2000
  141.3790   72.1550  221.6920 O   0  0  0  0  0  0  0  0  0  0  0  0
  140.4850   72.3920  222.5530 C   0  0  0  0  0  0  0  0  0  0  0  0
  139.6440   73.5720  222.3410 N   0  0  0  0  0  0  0  0  0  0  0  0
  139.9470   74.3140  221.1700 C   0  0  0  0  0  0  0  0  0  0  0  0
  140.3240   75.6980  221.1960 C   0  0  0  0  0  0  0  0  0  0  0  0
  141.5630   75.9030  220.8070 O   0  0  0  0  0  0  0  0  0  0  0  0
  139.6520   76.8920  221.5520 N   0  0  0  0  0  0  0  0  0  0  0  0
  138.4660   76.9690  222.3430 C   0  0  0  0  0  0  0  0  0  0  0  0
  137.9960   78.3110  222.7700 C   0  0  0  0  0  0  0  0  0  0  0  0
  138.2170   79.4340  221.8180 C   0  0  0  0  0  0  0  0  0  0  0  0
  139.1900   79.1330  220.7410 C   0  0  0  0  0  0  0  0  0  0  0  0
  140.2230   78.1340  221.0440 C   0  0  1  0  0  0  0  0  0  0  0  0
  141.4110   78.5270  221.8240 C   0  0  0  0  0  0  0  0  0  0  0  0
  141.8900   79.9470  221.5210 C   0  0  0  0  0  0  0  0  0  0  0  0
  142.9120   80.2670  222.5920 C   0  0  0  0  0  0  0  0  0  0  0  0
  142.1240   80.5700  223.8550 C   0  0  0  0  0  0  0  0  0  0  0  0
  141.2230   79.4160  224.1720 C   0  0  0  0  0  0  0  0  0  0  0  0
  141.4530   78.2260  223.2740 C   0  0  0  0  0  0  0  0  0  0  0  0
  140.2660   71.5570  223.7190 C   0  0  0  0  0  0  0  0  0  0  0  0
  139.5510   70.3930  223.5390 C   0  0  0  0  0  0  0  0  0  0  0  0
  139.3400   69.6000  224.6360 C   0  0  0  0  0  0  0  0  0  0  0  0
  139.8130   69.9210  225.9000 C   0  0  0  0  0  0  0  0  0  0  0  0
  139.5880   69.1060  226.9900 C   0  0  0  0  0  0  0  0  0  0  0  0
  140.0790   69.4690  228.2310 C   0  0  0  0  0  0  0  0  0  0  0  0
  140.7960   70.6590  228.3520 C   0  0  0  0  0  0  0  0  0  0  0  0
  141.0200   71.4780  227.2510 C   0  0  0  0  0  0  0  0  0  0  0  0
  140.5230   71.1020  226.0130 C   0  0  0  0  0  0  0  0  0  0  0  0
  140.7200   71.8690  224.9270 N   0  0  0  0  0  0  0  0  0  0  0  0
  138.9440   73.7030  223.0640 H   0  0  0  0  0  0  0  0  0  0  0  0
  140.7775   73.7831  220.6817 H   0  0  0  0  0  0  0  0  0  0  0  0
  138.9628   74.3639  220.6812 H   0  0  0  0  0  0  0  0  0  0  0  0
  137.6544   76.5088  221.7603 H   0  0  0  0  0  0  0  0  0  0  0  0
  138.7298   76.4600  223.2818 H   0  0  0  0  0  0  0  0  0  0  0  0
  136.9142   78.2409  222.9565 H   0  0  0  0  0  0  0  0  0  0  0  0
  138.6011   78.5600  223.6542 H   0  0  0  0  0  0  0  0  0  0  0  0
  137.2531   79.6862  221.3519 H   0  0  0  0  0  0  0  0  0  0  0  0
  138.6378   80.2660  222.4017 H   0  0  0  0  0  0  0  0  0  0  0  0
  138.6224   78.7718  219.8707 H   0  0  0  0  0  0  0  0  0  0  0  0
  139.7372   80.0728  220.5756 H   0  0  0  0  0  0  0  0  0  0  0  0
  140.6548   77.9921  220.0423 H   0  0  0  0  0  0  0  0  0  0  0  0
  142.1407   77.8052  221.4284 H   0  0  0  0  0  0  0  0  0  0  0  0
  142.3515   79.9923  220.5235 H   0  0  0  0  0  0  0  0  0  0  0  0
  141.0584   80.6670  221.5226 H   0  0  0  0  0  0  0  0  0  0  0  0
  143.5760   79.4053  222.7547 H   0  0  0  0  0  0  0  0  0  0  0  0
  143.5439   81.1189  222.3005 H   0  0  0  0  0  0  0  0  0  0  0  0
  142.8201   80.7319  224.6912 H   0  0  0  0  0  0  0  0  0  0  0  0
  141.5186   81.4754  223.7004 H   0  0  0  0  0  0  0  0  0  0  0  0
  141.3997   79.1089  225.2134 H   0  0  0  0  0  0  0  0  0  0  0  0
  140.1879   79.7530  224.0138 H   0  0  0  0  0  0  0  0  0  0  0  0
  142.4424   77.8062  223.5082 H   0  0  0  0  0  0  0  0  0  0  0  0
  140.6280   77.5252  223.4697 H   0  0  0  0  0  0  0  0  0  0  0  0
  139.1632   70.1104  222.5492 H   0  0  0  0  0  0  0  0  0  0  0  0
  138.7704   68.6676  224.5090 H   0  0  0  0  0  0  0  0  0  0  0  0
  139.0203   68.1711  226.8727 H   0  0  0  0  0  0  0  0  0  0  0  0
  139.9066   68.8290  229.1089 H   0  0  0  0  0  0  0  0  0  0  0  0
  141.1910   70.9547  229.3351 H   0  0  0  0  0  0  0  0  0  0  0  0
  141.5859   72.4148  227.3614 H   0  0  0  0  0  0  0  0  0  0  0  0
  1  2  2  0
  2  3  1  0
  3  4  1  0
  4  5  1  0
  5  6  2  0
  5  7  1  0
  7  8  1  0
  8  9  1  0
  9 10  1  0
 10 11  1  0
 11 12  1  0
 12 13  1  0
 13 14  1  0
 14 15  1  0
 15 16  1  0
 16 17  1  0
 17 18  1  0
  2 19  1  0
 19 20  2  0
 20 21  1  0
 21 22  2  0
 22 23  1  0
 23 24  2  0
 24 25  1  0
 25 26  2  0
 26 27  1  0
 27 28  2  0
 12  7  1  0
 18 13  1  0
 28 19  1  0
 27 22  1  0
  3 29  1  0
  4 30  1  0
  4 31  1  0
  8 32  1  0
  8 33  1  0
  9 34  1  0
  9 35  1  0
 10 36  1  0
 10 37  1  0
 11 38  1  0
 11 39  1  0
 12 40  1  6
 13 41  1  0
 14 42  1  0
 14 43  1  0
 15 44  1  0
 15 45  1  0
 16 46  1  0
 16 47  1  0
 17 48  1  0
 17 49  1  0
 18 50  1  0
 18 51  1  0
 20 52  1  0
 21 53  1  0
 23 54  1  0
 24 55  1  0
 25 56  1  0
 26 57  1  0
M  END
>  <smiles>  (62) 
O=C(NCC(=O)N1CCCCC1C1CCCCC1)c1ccc2ccccc2n1

>  <score_type>  (62) 
oracle

>  <origin>  (62) 
autodockgpu

>  <m_score__min__energy>  (62) 
-9.0199999999999996

>  <m_primary>  (62) 
energy

>  <rmsd>  (62) 
2.8864523968386213

>  <m_score__min__rmsd>  (62) 
2.8864523968386213

>  <meeko>  (62) 
{"free_energy": -9.02, "intermolecular_energy": -10.51, "internal_energy": -1.4, "cluster_size": 34, "cluster_id": 1, "rank_in_cluster": 1}

>  <energy>  (62) 
-8.96

>  <cluster_rmsd>  (62) 
1.27

>  <cluster>  (62) 
1

$$$$

     RDKit          3D

 57 60  0  0  0  0  0  0  0  0999 V2000
  140.3920   71.5050  221.2590 O   0  0  0  0  0  0  0  0  0  0  0  0
  140.0990   72.0450  222.3630 C   0  0  0  0  0  0  0  0  0  0  0  0
  139.7560   73.4680  222.3440 N   0  0  0  0  0  0  0  0  0  0  0  0
  139.7960   74.0710  221.0600 C   0  0  0  0  0  0  0  0  0  0  0  0
  141.0050   74.5610  220.4650 C   0  0  0  0  0  0  0  0  0  0  0  0
  142.0790   73.9180  220.8710 O   0  0  0  0  0  0  0  0  0  0  0  0
  141.2970   75.5870  219.5340 N   0  0  0  0  0  0  0  0  0  0  0  0
  140.9040   75.5930  218.1610 C   0  0  0  0  0  0  0  0  0  0  0  0
  141.1390   76.8290  217.3720 C   0  0  0  0  0  0  0  0  0  0  0  0
  142.3560   77.6180  217.7050 C   0  0  0  0  0  0  0  0  0  0  0  0
  142.9720   77.2620  219.0050 C   0  0  0  0  0  0  0  0  0  0  0  0
  142.0760   76.7140  220.0320 C   0  0  1  0  0  0  0  0  0  0  0  0
  141.2370   77.6260  220.8300 C   0  0  0  0  0  0  0  0  0  0  0  0
  141.0130   77.1420  222.2640 C   0  0  0  0  0  0  0  0  0  0  0  0
  140.3890   78.3140  222.9940 C   0  0  0  0  0  0  0  0  0  0  0  0
  141.5160   79.2940  223.2690 C   0  0  0  0  0  0  0  0  0  0  0  0
  142.1980   79.6470  221.9830 C   0  0  0  0  0  0  0  0  0  0  0  0
  141.4990   79.0830  220.7720 C   0  0  0  0  0  0  0  0  0  0  0  0
  140.0910   71.3230  223.6210 C   0  0  0  0  0  0  0  0  0  0  0  0
  139.5720   70.0470  223.6160 C   0  0  0  0  0  0  0  0  0  0  0  0
  139.5600   69.3600  224.8010 C   0  0  0  0  0  0  0  0  0  0  0  0
  140.0460   69.8930  225.9860 C   0  0  0  0  0  0  0  0  0  0  0  0
  140.0240   69.1810  227.1670 C   0  0  0  0  0  0  0  0  0  0  0  0
  140.5200   69.7560  228.3230 C   0  0  0  0  0  0  0  0  0  0  0  0
  141.0330   71.0520  228.2680 C   0  0  0  0  0  0  0  0  0  0  0  0
  141.0530   71.7650  227.0750 C   0  0  0  0  0  0  0  0  0  0  0  0
  140.5540   71.1770  225.9240 C   0  0  0  0  0  0  0  0  0  0  0  0
  140.5560   71.8370  224.7530 N   0  0  0  0  0  0  0  0  0  0  0  0
  139.5260   73.8390  223.2600 H   0  0  0  0  0  0  0  0  0  0  0  0
  139.3960   73.3219  220.3608 H   0  0  0  0  0  0  0  0  0  0  0  0
  139.2439   75.0056  221.2384 H   0  0  0  0  0  0  0  0  0  0  0  0
  141.4487   74.7782  217.6617 H   0  0  0  0  0  0  0  0  0  0  0  0
  139.8092   75.4901  218.1891 H   0  0  0  0  0  0  0  0  0  0  0  0
  141.2101   76.5391  216.3133 H   0  0  0  0  0  0  0  0  0  0  0  0
  140.2934   77.4895  217.6142 H   0  0  0  0  0  0  0  0  0  0  0  0
  143.1015   77.4535  216.9131 H   0  0  0  0  0  0  0  0  0  0  0  0
  142.0411   78.6692  217.7810 H   0  0  0  0  0  0  0  0  0  0  0  0
  143.7529   76.5123  218.8096 H   0  0  0  0  0  0  0  0  0  0  0  0
  143.3403   78.2119  219.4199 H   0  0  0  0  0  0  0  0  0  0  0  0
  142.8144   76.3869  220.7789 H   0  0  0  0  0  0  0  0  0  0  0  0
  140.2939   77.5499  220.2690 H   0  0  0  0  0  0  0  0  0  0  0  0
  140.3345   76.2763  222.2760 H   0  0  0  0  0  0  0  0  0  0  0  0
  141.9522   76.8196  222.7373 H   0  0  0  0  0  0  0  0  0  0  0  0
  139.6181   78.7862  222.3674 H   0  0  0  0  0  0  0  0  0  0  0  0
  139.9034   77.9913  223.9268 H   0  0  0  0  0  0  0  0  0  0  0  0
  141.1052   80.2053  223.7280 H   0  0  0  0  0  0  0  0  0  0  0  0
  142.2428   78.8330  223.9540 H   0  0  0  0  0  0  0  0  0  0  0  0
  142.2285   80.7428  221.8916 H   0  0  0  0  0  0  0  0  0  0  0  0
  143.2068   79.2096  222.0144 H   0  0  0  0  0  0  0  0  0  0  0  0
  140.5345   79.6003  220.6614 H   0  0  0  0  0  0  0  0  0  0  0  0
  142.1765   79.2428  219.9202 H   0  0  0  0  0  0  0  0  0  0  0  0
  139.1808   69.5954  222.6924 H   0  0  0  0  0  0  0  0  0  0  0  0
  139.1467   68.3407  224.8135 H   0  0  0  0  0  0  0  0  0  0  0  0
  139.6139   68.1606  227.1895 H   0  0  0  0  0  0  0  0  0  0  0  0
  140.5101   69.1995  229.2718 H   0  0  0  0  0  0  0  0  0  0  0  0
  141.4280   71.5171  229.1833 H   0  0  0  0  0  0  0  0  0  0  0  0
  141.4610   72.7861  227.0450 H   0  0  0  0  0  0  0  0  0  0  0  0
  1  2  2  0
  2  3  1  0
  3  4  1  0
  4  5  1  0
  5  6  2  0
  5  7  1  0
  7  8  1  0
  8  9  1  0
  9 10  1  0
 10 11  1  0
 11 12  1  0
 12 13  1  0
 13 14  1  0
 14 15  1  0
 15 16  1  0
 16 17  1  0
 17 18  1  0
  2 19  1  0
 19 20  2  0
 20 21  1  0
 21 22  2  0
 22 23  1  0
 23 24  2  0
 24 25  1  0
 25 26  2  0
 26 27  1  0
 27 28  2  0
 12  7  1  0
 18 13  1  0
 28 19  1  0
 27 22  1  0
  3 29  1  0
  4 30  1  0
  4 31  1  0
  8 32  1  0
  8 33  1  0
  9 34  1  0
  9 35  1  0
 10 36  1  0
 10 37  1  0
 11 38  1  0
 11 39  1  0
 12 40  1  1
 13 41  1  0
 14 42  1  0
 14 43  1  0
 15 44  1  0
 15 45  1  0
 16 46  1  0
 16 47  1  0
 17 48  1  0
 17 49  1  0
 18 50  1  0
 18 51  1  0
 20 52  1  0
 21 53  1  0
 23 54  1  0
 24 55  1  0
 25 56  1  0
 26 57  1  0
M  END
>  <smiles>  (63) 
O=C(NCC(=O)N1CCCCC1C1CCCCC1)c1ccc2ccccc2n1

>  <score_type>  (63) 
oracle

>  <origin>  (63) 
autodockgpu

>  <m_score__min__energy>  (63) 
-9.0199999999999996

>  <m_primary>  (63) 
energy

>  <rmsd>  (63) 
1.5669796080730207

>  <m_score__min__rmsd>  (63) 
1.5669796080730207

>  <meeko>  (63) 
{"free_energy": -8.4, "intermolecular_energy": -9.89, "internal_energy": -1.51, "cluster_size": 34, "cluster_id": 1, "rank_in_cluster": 31}

>  <energy>  (63) 
-8.94

>  <cluster_rmsd>  (63) 
1.26

>  <cluster>  (63) 
1

$$$$

     RDKit          3D

 57 60  0  0  0  0  0  0  0  0999 V2000
  141.1470   72.8020  221.9910 O   0  0  0  0  0  0  0  0  0  0  0  0
  140.1150   72.5600  222.6790 C   0  0  0  0  0  0  0  0  0  0  0  0
  138.8960   73.2970  222.3420 N   0  0  0  0  0  0  0  0  0  0  0  0
  139.0310   74.2060  221.2620 C   0  0  0  0  0  0  0  0  0  0  0  0
  139.6760   75.4810  221.3900 C   0  0  0  0  0  0  0  0  0  0  0  0
  139.6750   75.9390  222.6230 O   0  0  0  0  0  0  0  0  0  0  0  0
  140.3140   76.3560  220.4780 N   0  0  0  0  0  0  0  0  0  0  0  0
  139.9420   76.5390  219.1110 C   0  0  0  0  0  0  0  0  0  0  0  0
  140.6040   77.6270  218.3470 C   0  0  0  0  0  0  0  0  0  0  0  0
  142.0270   77.9120  218.6780 C   0  0  0  0  0  0  0  0  0  0  0  0
  142.4800   77.3230  219.9610 C   0  0  0  0  0  0  0  0  0  0  0  0
  141.4520   77.1100  220.9890 C   0  0  1  0  0  0  0  0  0  0  0  0
  141.0060   78.2430  221.8200 C   0  0  0  0  0  0  0  0  0  0  0  0
  141.5450   78.1930  223.2500 C   0  0  0  0  0  0  0  0  0  0  0  0
  141.2260   79.5460  223.8510 C   0  0  0  0  0  0  0  0  0  0  0  0
  142.2390   80.5180  223.2720 C   0  0  0  0  0  0  0  0  0  0  0  0
  142.1840   80.4670  221.7760 C   0  0  0  0  0  0  0  0  0  0  0  0
  141.0550   79.6120  221.2570 C   0  0  0  0  0  0  0  0  0  0  0  0
  140.0940   71.6010  223.7680 C   0  0  0  0  0  0  0  0  0  0  0  0
  139.5430   70.3650  223.5110 C   0  0  0  0  0  0  0  0  0  0  0  0
  139.5200   69.4540  224.5350 C   0  0  0  0  0  0  0  0  0  0  0  0
  140.0240   69.7270  225.7980 C   0  0  0  0  0  0  0  0  0  0  0  0
  139.9890   68.7940  226.8130 C   0  0  0  0  0  0  0  0  0  0  0  0
  140.5040   69.1130  228.0570 C   0  0  0  0  0  0  0  0  0  0  0  0
  141.0500   70.3810  228.2570 C   0  0  0  0  0  0  0  0  0  0  0  0
  141.0820   71.3180  227.2310 C   0  0  0  0  0  0  0  0  0  0  0  0
  140.5640   70.9860  225.9900 C   0  0  0  0  0  0  0  0  0  0  0  0
  140.5780   71.8670  224.9750 N   0  0  0  0  0  0  0  0  0  0  0  0
  138.1030   73.0530  222.9270 H   0  0  0  0  0  0  0  0  0  0  0  0
  139.5813   73.6654  220.4778 H   0  0  0  0  0  0  0  0  0  0  0  0
  137.9857   74.5041  221.0933 H   0  0  0  0  0  0  0  0  0  0  0  0
  140.1527   75.5957  218.5858 H   0  0  0  0  0  0  0  0  0  0  0  0
  138.8840   76.8372  219.1522 H   0  0  0  0  0  0  0  0  0  0  0  0
  140.5577   77.3603  217.2808 H   0  0  0  0  0  0  0  0  0  0  0  0
  140.0573   78.5421  218.6185 H   0  0  0  0  0  0  0  0  0  0  0  0
  142.6567   77.5086  217.8713 H   0  0  0  0  0  0  0  0  0  0  0  0
  142.1161   79.0035  218.7812 H   0  0  0  0  0  0  0  0  0  0  0  0
  142.9349   76.3468  219.7373 H   0  0  0  0  0  0  0  0  0  0  0  0
  143.1699   78.0638  220.3914 H   0  0  0  0  0  0  0  0  0  0  0  0
  142.0258   76.5173  221.7167 H   0  0  0  0  0  0  0  0  0  0  0  0
  139.9233   78.0493  221.8336 H   0  0  0  0  0  0  0  0  0  0  0  0
  141.0496   77.3930  223.8197 H   0  0  0  0  0  0  0  0  0  0  0  0
  142.6242   77.9813  223.2718 H   0  0  0  0  0  0  0  0  0  0  0  0
  140.2052   79.8526  223.5791 H   0  0  0  0  0  0  0  0  0  0  0  0
  141.2799   79.5188  224.9493 H   0  0  0  0  0  0  0  0  0  0  0  0
  142.0048   81.5374  223.6127 H   0  0  0  0  0  0  0  0  0  0  0  0
  143.2479   80.2400  223.6108 H   0  0  0  0  0  0  0  0  0  0  0  0
  142.0525   81.4905  221.3949 H   0  0  0  0  0  0  0  0  0  0  0  0
  143.1251   80.0169  221.4271 H   0  0  0  0  0  0  0  0  0  0  0  0
  140.1064   80.1150  221.4962 H   0  0  0  0  0  0  0  0  0  0  0  0
  141.2236   79.4975  220.1761 H   0  0  0  0  0  0  0  0  0  0  0  0
  139.1360   70.1178  222.5194 H   0  0  0  0  0  0  0  0  0  0  0  0
  139.0824   68.4625  224.3467 H   0  0  0  0  0  0  0  0  0  0  0  0
  139.5533   67.7999  226.6343 H   0  0  0  0  0  0  0  0  0  0  0  0
  140.4832   68.3783  228.8754 H   0  0  0  0  0  0  0  0  0  0  0  0
  141.4619   70.6435  229.2426 H   0  0  0  0  0  0  0  0  0  0  0  0
  141.5149   72.3145  227.4030 H   0  0  0  0  0  0  0  0  0  0  0  0
  1  2  2  0
  2  3  1  0
  3  4  1  0
  4  5  1  0
  5  6  2  0
  5  7  1  0
  7  8  1  0
  8  9  1  0
  9 10  1  0
 10 11  1  0
 11 12  1  0
 12 13  1  0
 13 14  1  0
 14 15  1  0
 15 16  1  0
 16 17  1  0
 17 18  1  0
  2 19  1  0
 19 20  2  0
 20 21  1  0
 21 22  2  0
 22 23  1  0
 23 24  2  0
 24 25  1  0
 25 26  2  0
 26 27  1  0
 27 28  2  0
 12  7  1  0
 18 13  1  0
 28 19  1  0
 27 22  1  0
  3 29  1  0
  4 30  1  0
  4 31  1  0
  8 32  1  0
  8 33  1  0
  9 34  1  0
  9 35  1  0
 10 36  1  0
 10 37  1  0
 11 38  1  0
 11 39  1  0
 12 40  1  1
 13 41  1  0
 14 42  1  0
 14 43  1  0
 15 44  1  0
 15 45  1  0
 16 46  1  0
 16 47  1  0
 17 48  1  0
 17 49  1  0
 18 50  1  0
 18 51  1  0
 20 52  1  0
 21 53  1  0
 23 54  1  0
 24 55  1  0
 25 56  1  0
 26 57  1  0
M  END
>  <smiles>  (64) 
O=C(NCC(=O)N1CCCCC1C1CCCCC1)c1ccc2ccccc2n1

>  <score_type>  (64) 
oracle

>  <origin>  (64) 
autodockgpu

>  <m_score__min__energy>  (64) 
-9.0199999999999996

>  <m_primary>  (64) 
energy

>  <rmsd>  (64) 
1.5925558336327703

>  <m_score__min__rmsd>  (64) 
1.5925558336327703

>  <meeko>  (64) 
{"free_energy": -8.94, "intermolecular_energy": -10.43, "internal_energy": -1.33, "cluster_size": 34, "cluster_id": 1, "rank_in_cluster": 13}

>  <energy>  (64) 
-8.93

>  <cluster_rmsd>  (64) 
0.2

>  <cluster>  (64) 
1

$$$$

     RDKit          3D

 57 60  0  0  0  0  0  0  0  0999 V2000
  141.4010   72.4820  221.8970 O   0  0  0  0  0  0  0  0  0  0  0  0
  140.3730   72.4690  222.6300 C   0  0  0  0  0  0  0  0  0  0  0  0
  139.3360   73.4640  222.3510 N   0  0  0  0  0  0  0  0  0  0  0  0
  139.6240   74.3340  221.2680 C   0  0  0  0  0  0  0  0  0  0  0  0
  140.1180   75.6690  221.4480 C   0  0  0  0  0  0  0  0  0  0  0  0
  141.4300   75.7470  221.3830 O   0  0  0  0  0  0  0  0  0  0  0  0
  139.5020   76.9210  221.6800 N   0  0  0  0  0  0  0  0  0  0  0  0
  138.3260   77.1310  222.4640 C   0  0  0  0  0  0  0  0  0  0  0  0
  137.9180   78.5300  222.7510 C   0  0  0  0  0  0  0  0  0  0  0  0
  138.1810   79.5380  221.6880 C   0  0  0  0  0  0  0  0  0  0  0  0
  139.1310   79.0850  220.6440 C   0  0  0  0  0  0  0  0  0  0  0  0
  140.1220   78.0780  221.0460 C   0  0  1  0  0  0  0  0  0  0  0  0
  141.3320   78.4970  221.7780 C   0  0  0  0  0  0  0  0  0  0  0  0
  141.7730   79.9230  221.4480 C   0  0  0  0  0  0  0  0  0  0  0  0
  142.8290   80.2680  222.4780 C   0  0  0  0  0  0  0  0  0  0  0  0
  142.0850   80.5650  223.7680 C   0  0  0  0  0  0  0  0  0  0  0  0
  141.2180   79.3970  224.1260 C   0  0  0  0  0  0  0  0  0  0  0  0
  141.4350   78.2050  223.2260 C   0  0  0  0  0  0  0  0  0  0  0  0
  140.1850   71.5250  223.7160 C   0  0  0  0  0  0  0  0  0  0  0  0
  139.5000   70.3640  223.4340 C   0  0  0  0  0  0  0  0  0  0  0  0
  139.3180   69.4680  224.4560 C   0  0  0  0  0  0  0  0  0  0  0  0
  139.7930   69.6850  225.7410 C   0  0  0  0  0  0  0  0  0  0  0  0
  139.5990   68.7680  226.7530 C   0  0  0  0  0  0  0  0  0  0  0  0
  140.0910   69.0290  228.0190 C   0  0  0  0  0  0  0  0  0  0  0  0
  140.7770   70.2220  228.2440 C   0  0  0  0  0  0  0  0  0  0  0  0
  140.9710   71.1430  227.2220 C   0  0  0  0  0  0  0  0  0  0  0  0
  140.4730   70.8690  225.9580 C   0  0  0  0  0  0  0  0  0  0  0  0
  140.6410   71.7370  224.9450 N   0  0  0  0  0  0  0  0  0  0  0  0
  138.5350   73.3970  222.9710 H   0  0  0  0  0  0  0  0  0  0  0  0
  140.3730   73.8141  220.6526 H   0  0  0  0  0  0  0  0  0  0  0  0
  138.6182   74.5241  220.8651 H   0  0  0  0  0  0  0  0  0  0  0  0
  137.4905   76.6488  221.9354 H   0  0  0  0  0  0  0  0  0  0  0  0
  138.5751   76.7106  223.4495 H   0  0  0  0  0  0  0  0  0  0  0  0
  136.8355   78.5274  222.9464 H   0  0  0  0  0  0  0  0  0  0  0  0
  138.5399   78.8418  223.6031 H   0  0  0  0  0  0  0  0  0  0  0  0
  137.2255   79.7842  221.2018 H   0  0  0  0  0  0  0  0  0  0  0  0
  138.6433   80.4055  222.1818 H   0  0  0  0  0  0  0  0  0  0  0  0
  138.5412   78.6610  219.8180 H   0  0  0  0  0  0  0  0  0  0  0  0
  139.7169   79.9776  220.3793 H   0  0  0  0  0  0  0  0  0  0  0  0
  140.5400   77.8150  220.0631 H   0  0  0  0  0  0  0  0  0  0  0  0
  142.0598   77.7862  221.3597 H   0  0  0  0  0  0  0  0  0  0  0  0
  142.1956   79.9698  220.4335 H   0  0  0  0  0  0  0  0  0  0  0  0
  140.9293   80.6282  221.4762 H   0  0  0  0  0  0  0  0  0  0  0  0
  143.5141   79.4192  222.6202 H   0  0  0  0  0  0  0  0  0  0  0  0
  143.4336   81.1293  222.1577 H   0  0  0  0  0  0  0  0  0  0  0  0
  142.8096   80.7448  224.5759 H   0  0  0  0  0  0  0  0  0  0  0  0
  141.4579   81.4584  223.6317 H   0  0  0  0  0  0  0  0  0  0  0  0
  141.4401   79.0997  225.1615 H   0  0  0  0  0  0  0  0  0  0  0  0
  140.1716   79.7143  224.0060 H   0  0  0  0  0  0  0  0  0  0  0  0
  142.4400   77.8043  223.4242 H   0  0  0  0  0  0  0  0  0  0  0  0
  140.6313   77.4904  223.4571 H   0  0  0  0  0  0  0  0  0  0  0  0
  139.1125   70.1625  222.4244 H   0  0  0  0  0  0  0  0  0  0  0  0
  138.7714   68.5364  224.2476 H   0  0  0  0  0  0  0  0  0  0  0  0
  139.0551   67.8328  226.5540 H   0  0  0  0  0  0  0  0  0  0  0  0
  139.9435   68.3068  228.8355 H   0  0  0  0  0  0  0  0  0  0  0  0
  141.1714   70.4376  229.2480 H   0  0  0  0  0  0  0  0  0  0  0  0
  141.5142   72.0800  227.4141 H   0  0  0  0  0  0  0  0  0  0  0  0
  1  2  2  0
  2  3  1  0
  3  4  1  0
  4  5  1  0
  5  6  2  0
  5  7  1  0
  7  8  1  0
  8  9  1  0
  9 10  1  0
 10 11  1  0
 11 12  1  0
 12 13  1  0
 13 14  1  0
 14 15  1  0
 15 16  1  0
 16 17  1  0
 17 18  1  0
  2 19  1  0
 19 20  2  0
 20 21  1  0
 21 22  2  0
 22 23  1  0
 23 24  2  0
 24 25  1  0
 25 26  2  0
 26 27  1  0
 27 28  2  0
 12  7  1  0
 18 13  1  0
 28 19  1  0
 27 22  1  0
  3 29  1  0
  4 30  1  0
  4 31  1  0
  8 32  1  0
  8 33  1  0
  9 34  1  0
  9 35  1  0
 10 36  1  0
 10 37  1  0
 11 38  1  0
 11 39  1  0
 12 40  1  6
 13 41  1  0
 14 42  1  0
 14 43  1  0
 15 44  1  0
 15 45  1  0
 16 46  1  0
 16 47  1  0
 17 48  1  0
 17 49  1  0
 18 50  1  0
 18 51  1  0
 20 52  1  0
 21 53  1  0
 23 54  1  0
 24 55  1  0
 25 56  1  0
 26 57  1  0
M  END
>  <smiles>  (65) 
O=C(NCC(=O)N1CCCCC1C1CCCCC1)c1ccc2ccccc2n1

>  <score_type>  (65) 
oracle

>  <origin>  (65) 
autodockgpu

>  <m_score__min__energy>  (65) 
-9.0199999999999996

>  <m_primary>  (65) 
energy

>  <rmsd>  (65) 
2.8827462860886195

>  <m_score__min__rmsd>  (65) 
2.8827462860886195

>  <meeko>  (65) 
{"free_energy": -8.97, "intermolecular_energy": -10.46, "internal_energy": -1.36, "cluster_size": 34, "cluster_id": 1, "rank_in_cluster": 9}

>  <energy>  (65) 
-8.92

>  <cluster_rmsd>  (65) 
0.19

>  <cluster>  (65) 
1

$$$$

     RDKit          3D

 57 60  0  0  0  0  0  0  0  0999 V2000
  141.3920   72.1530  221.6520 O   0  0  0  0  0  0  0  0  0  0  0  0
  140.4970   72.3990  222.5090 C   0  0  0  0  0  0  0  0  0  0  0  0
  139.6570   73.5770  222.2840 N   0  0  0  0  0  0  0  0  0  0  0  0
  139.9600   74.3060  221.1060 C   0  0  0  0  0  0  0  0  0  0  0  0
  140.3330   75.6910  221.1180 C   0  0  0  0  0  0  0  0  0  0  0  0
  141.5540   75.9010  220.6750 O   0  0  0  0  0  0  0  0  0  0  0  0
  139.6740   76.8830  221.5020 N   0  0  0  0  0  0  0  0  0  0  0  0
  138.4890   76.9520  222.2970 C   0  0  0  0  0  0  0  0  0  0  0  0
  138.0320   78.2880  222.7560 C   0  0  0  0  0  0  0  0  0  0  0  0
  138.2640   79.4320  221.8320 C   0  0  0  0  0  0  0  0  0  0  0  0
  139.2330   79.1480  220.7470 C   0  0  0  0  0  0  0  0  0  0  0  0
  140.2570   78.1310  221.0260 C   0  0  1  0  0  0  0  0  0  0  0  0
  141.4490   78.4930  221.8140 C   0  0  0  0  0  0  0  0  0  0  0  0
  141.9660   79.9010  221.5160 C   0  0  0  0  0  0  0  0  0  0  0  0
  142.9870   80.1940  222.5950 C   0  0  0  0  0  0  0  0  0  0  0  0
  142.1990   80.5150  223.8530 C   0  0  0  0  0  0  0  0  0  0  0  0
  141.2670   79.3830  224.1620 C   0  0  0  0  0  0  0  0  0  0  0  0
  141.4730   78.1890  223.2640 C   0  0  0  0  0  0  0  0  0  0  0  0
  140.2770   71.5770  223.6840 C   0  0  0  0  0  0  0  0  0  0  0  0
  139.5680   70.4080  223.5140 C   0  0  0  0  0  0  0  0  0  0  0  0
  139.3560   69.6260  224.6200 C   0  0  0  0  0  0  0  0  0  0  0  0
  139.8220   69.9630  225.8820 C   0  0  0  0  0  0  0  0  0  0  0  0
  139.5970   69.1600  226.9800 C   0  0  0  0  0  0  0  0  0  0  0  0
  140.0810   69.5400  228.2190 C   0  0  0  0  0  0  0  0  0  0  0  0
  140.7920   70.7340  228.3290 C   0  0  0  0  0  0  0  0  0  0  0  0
  141.0170   71.5410  227.2200 C   0  0  0  0  0  0  0  0  0  0  0  0
  140.5270   71.1490  225.9850 C   0  0  0  0  0  0  0  0  0  0  0  0
  140.7250   71.9040  224.8900 N   0  0  0  0  0  0  0  0  0  0  0  0
  138.9560   73.7160  223.0050 H   0  0  0  0  0  0  0  0  0  0  0  0
  140.7930   73.7721  220.6252 H   0  0  0  0  0  0  0  0  0  0  0  0
  138.9769   74.3474  220.6142 H   0  0  0  0  0  0  0  0  0  0  0  0
  137.6724   76.5130  221.7050 H   0  0  0  0  0  0  0  0  0  0  0  0
  138.7492   76.4186  223.2231 H   0  0  0  0  0  0  0  0  0  0  0  0
  136.9495   78.2239  222.9406 H   0  0  0  0  0  0  0  0  0  0  0  0
  138.6397   78.5095  223.6457 H   0  0  0  0  0  0  0  0  0  0  0  0
  137.3024   79.7057  221.3732 H   0  0  0  0  0  0  0  0  0  0  0  0
  138.6939   80.2447  222.4359 H   0  0  0  0  0  0  0  0  0  0  0  0
  138.6614   78.8133  219.8688 H   0  0  0  0  0  0  0  0  0  0  0  0
  139.7890   80.0862  220.6030 H   0  0  0  0  0  0  0  0  0  0  0  0
  140.6880   78.0096  220.0213 H   0  0  0  0  0  0  0  0  0  0  0  0
  142.1634   77.7540  221.4222 H   0  0  0  0  0  0  0  0  0  0  0  0
  142.4363   79.9355  220.5222 H   0  0  0  0  0  0  0  0  0  0  0  0
  141.1529   80.6418  221.5117 H   0  0  0  0  0  0  0  0  0  0  0  0
  143.6281   79.3157  222.7611 H   0  0  0  0  0  0  0  0  0  0  0  0
  143.6413   81.0308  222.3091 H   0  0  0  0  0  0  0  0  0  0  0  0
  142.8935   80.6580  224.6940 H   0  0  0  0  0  0  0  0  0  0  0  0
  141.6178   81.4357  223.6963 H   0  0  0  0  0  0  0  0  0  0  0  0
  141.4288   79.0701  225.2041 H   0  0  0  0  0  0  0  0  0  0  0  0
  140.2418   79.7461  223.9971 H   0  0  0  0  0  0  0  0  0  0  0  0
  142.4497   77.7439  223.5046 H   0  0  0  0  0  0  0  0  0  0  0  0
  140.6291   77.5092  223.4528 H   0  0  0  0  0  0  0  0  0  0  0  0
  139.1855   70.1125  222.5259 H   0  0  0  0  0  0  0  0  0  0  0  0
  138.7912   68.6896  224.5011 H   0  0  0  0  0  0  0  0  0  0  0  0
  139.0348   68.2208  226.8712 H   0  0  0  0  0  0  0  0  0  0  0  0
  139.9075   68.9097  229.1037 H   0  0  0  0  0  0  0  0  0  0  0  0
  141.1816   71.0427  229.3102 H   0  0  0  0  0  0  0  0  0  0  0  0
  141.5785   72.4814  227.3219 H   0  0  0  0  0  0  0  0  0  0  0  0
  1  2  2  0
  2  3  1  0
  3  4  1  0
  4  5  1  0
  5  6  2  0
  5  7  1  0
  7  8  1  0
  8  9  1  0
  9 10  1  0
 10 11  1  0
 11 12  1  0
 12 13  1  0
 13 14  1  0
 14 15  1  0
 15 16  1  0
 16 17  1  0
 17 18  1  0
  2 19  1  0
 19 20  2  0
 20 21  1  0
 21 22  2  0
 22 23  1  0
 23 24  2  0
 24 25  1  0
 25 26  2  0
 26 27  1  0
 27 28  2  0
 12  7  1  0
 18 13  1  0
 28 19  1  0
 27 22  1  0
  3 29  1  0
  4 30  1  0
  4 31  1  0
  8 32  1  0
  8 33  1  0
  9 34  1  0
  9 35  1  0
 10 36  1  0
 10 37  1  0
 11 38  1  0
 11 39  1  0
 12 40  1  6
 13 41  1  0
 14 42  1  0
 14 43  1  0
 15 44  1  0
 15 45  1  0
 16 46  1  0
 16 47  1  0
 17 48  1  0
 17 49  1  0
 18 50  1  0
 18 51  1  0
 20 52  1  0
 21 53  1  0
 23 54  1  0
 24 55  1  0
 25 56  1  0
 26 57  1  0
M  END
>  <smiles>  (66) 
O=C(NCC(=O)N1CCCCC1C1CCCCC1)c1ccc2ccccc2n1

>  <score_type>  (66) 
oracle

>  <origin>  (66) 
autodockgpu

>  <m_score__min__energy>  (66) 
-9.0199999999999996

>  <m_primary>  (66) 
energy

>  <rmsd>  (66) 
2.87636407605487

>  <m_score__min__rmsd>  (66) 
2.87636407605487

>  <meeko>  (66) 
{"free_energy": -8.98, "intermolecular_energy": -10.47, "internal_energy": -1.41, "cluster_size": 34, "cluster_id": 1, "rank_in_cluster": 6}

>  <energy>  (66) 
-8.92

>  <cluster_rmsd>  (66) 
0.85

>  <cluster>  (66) 
1

$$$$

     RDKit          3D

 57 60  0  0  0  0  0  0  0  0999 V2000
  141.1300   72.2720  221.6730 O   0  0  0  0  0  0  0  0  0  0  0  0
  140.2250   72.3760  222.5480 C   0  0  0  0  0  0  0  0  0  0  0  0
  139.2120   73.4140  222.3470 N   0  0  0  0  0  0  0  0  0  0  0  0
  139.3800   74.1870  221.1690 C   0  0  0  0  0  0  0  0  0  0  0  0
  140.4560   75.1190  220.9930 C   0  0  0  0  0  0  0  0  0  0  0  0
  141.3590   75.0520  221.9470 O   0  0  0  0  0  0  0  0  0  0  0  0
  140.7590   76.0970  220.0150 N   0  0  0  0  0  0  0  0  0  0  0  0
  140.2280   76.1320  218.6890 C   0  0  0  0  0  0  0  0  0  0  0  0
  140.5130   77.3260  217.8540 C   0  0  0  0  0  0  0  0  0  0  0  0
  141.8370   77.9780  218.0420 C   0  0  0  0  0  0  0  0  0  0  0  0
  142.5440   77.5690  219.2800 C   0  0  0  0  0  0  0  0  0  0  0  0
  141.7060   77.1340  220.4050 C   0  0  1  0  0  0  0  0  0  0  0  0
  141.0590   78.1430  221.2660 C   0  0  0  0  0  0  0  0  0  0  0  0
  141.0850   77.7750  222.7500 C   0  0  0  0  0  0  0  0  0  0  0  0
  140.6470   79.0260  223.4840 C   0  0  0  0  0  0  0  0  0  0  0  0
  141.8390   79.9660  223.4730 C   0  0  0  0  0  0  0  0  0  0  0  0
  142.2870   80.1920  222.0620 C   0  0  0  0  0  0  0  0  0  0  0  0
  141.3580   79.5770  221.0440 C   0  0  0  0  0  0  0  0  0  0  0  0
  140.1530   71.5230  223.7200 C   0  0  0  0  0  0  0  0  0  0  0  0
  139.5640   70.2870  223.5680 C   0  0  0  0  0  0  0  0  0  0  0  0
  139.4920   69.4770  224.6710 C   0  0  0  0  0  0  0  0  0  0  0  0
  139.9840   69.8500  225.9130 C   0  0  0  0  0  0  0  0  0  0  0  0
  139.9010   69.0170  227.0090 C   0  0  0  0  0  0  0  0  0  0  0  0
  140.4050   69.4330  228.2270 C   0  0  0  0  0  0  0  0  0  0  0  0
  140.9910   70.6960  228.3200 C   0  0  0  0  0  0  0  0  0  0  0  0
  141.0720   71.5320  227.2130 C   0  0  0  0  0  0  0  0  0  0  0  0
  140.5630   71.1020  225.9980 C   0  0  0  0  0  0  0  0  0  0  0  0
  140.6240   71.8850  224.9070 N   0  0  0  0  0  0  0  0  0  0  0  0
  138.5120   73.4420  223.0810 H   0  0  0  0  0  0  0  0  0  0  0  0
  139.4657   73.4657  220.3429 H   0  0  0  0  0  0  0  0  0  0  0  0
  138.5120   74.8606  221.2222 H   0  0  0  0  0  0  0  0  0  0  0  0
  140.6258   75.2568  218.1544 H   0  0  0  0  0  0  0  0  0  0  0  0
  139.1373   76.1507  218.8309 H   0  0  0  0  0  0  0  0  0  0  0  0
  140.4401   77.0196  216.8001 H   0  0  0  0  0  0  0  0  0  0  0  0
  139.7752   78.0788  218.1686 H   0  0  0  0  0  0  0  0  0  0  0  0
  142.4727   77.7233  217.1812 H   0  0  0  0  0  0  0  0  0  0  0  0
  141.6489   79.0585  218.1268 H   0  0  0  0  0  0  0  0  0  0  0  0
  143.2138   76.7356  219.0215 H   0  0  0  0  0  0  0  0  0  0  0  0
  143.0552   78.4763  219.6342 H   0  0  0  0  0  0  0  0  0  0  0  0
  142.4789   76.7332  221.0773 H   0  0  0  0  0  0  0  0  0  0  0  0
  140.0263   78.0746  220.8933 H   0  0  0  0  0  0  0  0  0  0  0  0
  140.3902   76.9468  222.9531 H   0  0  0  0  0  0  0  0  0  0  0  0
  142.0830   77.4415  223.0707 H   0  0  0  0  0  0  0  0  0  0  0  0
  139.7918   79.4893  222.9702 H   0  0  0  0  0  0  0  0  0  0  0  0
  140.3289   78.7959  224.5115 H   0  0  0  0  0  0  0  0  0  0  0  0
  141.5516   80.9271  223.9243 H   0  0  0  0  0  0  0  0  0  0  0  0
  142.6618   79.5196  224.0507 H   0  0  0  0  0  0  0  0  0  0  0  0
  142.3391   81.2756  221.8798 H   0  0  0  0  0  0  0  0  0  0  0  0
  143.2686   79.7092  221.9465 H   0  0  0  0  0  0  0  0  0  0  0  0
  140.4088   80.1325  221.0665 H   0  0  0  0  0  0  0  0  0  0  0  0
  141.8735   79.6406  220.0743 H   0  0  0  0  0  0  0  0  0  0  0  0
  139.1656   69.9618  222.5956 H   0  0  0  0  0  0  0  0  0  0  0  0
  139.0233   68.4873  224.5668 H   0  0  0  0  0  0  0  0  0  0  0  0
  139.4353   68.0250  226.9142 H   0  0  0  0  0  0  0  0  0  0  0  0
  140.3451   68.7787  229.1092 H   0  0  0  0  0  0  0  0  0  0  0  0
  141.3953   71.0353  229.2851 H   0  0  0  0  0  0  0  0  0  0  0  0
  141.5358   72.5256  227.3003 H   0  0  0  0  0  0  0  0  0  0  0  0
  1  2  2  0
  2  3  1  0
  3  4  1  0
  4  5  1  0
  5  6  2  0
  5  7  1  0
  7  8  1  0
  8  9  1  0
  9 10  1  0
 10 11  1  0
 11 12  1  0
 12 13  1  0
 13 14  1  0
 14 15  1  0
 15 16  1  0
 16 17  1  0
 17 18  1  0
  2 19  1  0
 19 20  2  0
 20 21  1  0
 21 22  2  0
 22 23  1  0
 23 24  2  0
 24 25  1  0
 25 26  2  0
 26 27  1  0
 27 28  2  0
 12  7  1  0
 18 13  1  0
 28 19  1  0
 27 22  1  0
  3 29  1  0
  4 30  1  0
  4 31  1  0
  8 32  1  0
  8 33  1  0
  9 34  1  0
  9 35  1  0
 10 36  1  0
 10 37  1  0
 11 38  1  0
 11 39  1  0
 12 40  1  1
 13 41  1  0
 14 42  1  0
 14 43  1  0
 15 44  1  0
 15 45  1  0
 16 46  1  0
 16 47  1  0
 17 48  1  0
 17 49  1  0
 18 50  1  0
 18 51  1  0
 20 52  1  0
 21 53  1  0
 23 54  1  0
 24 55  1  0
 25 56  1  0
 26 57  1  0
M  END
>  <smiles>  (67) 
O=C(NCC(=O)N1CCCCC1C1CCCCC1)c1ccc2ccccc2n1

>  <score_type>  (67) 
oracle

>  <origin>  (67) 
autodockgpu

>  <m_score__min__energy>  (67) 
-9.0199999999999996

>  <m_primary>  (67) 
energy

>  <rmsd>  (67) 
1.456860736053662

>  <m_score__min__rmsd>  (67) 
1.456860736053662

>  <meeko>  (67) 
{"free_energy": -8.98, "intermolecular_energy": -10.47, "internal_energy": -1.31, "cluster_size": 34, "cluster_id": 1, "rank_in_cluster": 7}

>  <energy>  (67) 
-8.89

>  <cluster_rmsd>  (67) 
1.16

>  <cluster>  (67) 
1

$$$$

     RDKit          3D

 57 60  0  0  0  0  0  0  0  0999 V2000
  141.3900   72.5220  221.9420 O   0  0  0  0  0  0  0  0  0  0  0  0
  140.3590   72.5450  222.6710 C   0  0  0  0  0  0  0  0  0  0  0  0
  139.3270   73.5320  222.3440 N   0  0  0  0  0  0  0  0  0  0  0  0
  139.6240   74.3520  221.2250 C   0  0  0  0  0  0  0  0  0  0  0  0
  139.7050   75.7820  221.3040 C   0  0  0  0  0  0  0  0  0  0  0  0
  139.2790   76.2610  222.4530 O   0  0  0  0  0  0  0  0  0  0  0  0
  140.1430   76.7920  220.4140 N   0  0  0  0  0  0  0  0  0  0  0  0
  139.5290   77.1170  219.1660 C   0  0  0  0  0  0  0  0  0  0  0  0
  140.0100   78.3210  218.4430 C   0  0  0  0  0  0  0  0  0  0  0  0
  141.4590   78.6400  218.5580 C   0  0  0  0  0  0  0  0  0  0  0  0
  142.1510   77.9280  219.6580 C   0  0  0  0  0  0  0  0  0  0  0  0
  141.3290   77.5390  220.8130 C   0  0  1  0  0  0  0  0  0  0  0  0
  141.0010   78.5400  221.8450 C   0  0  0  0  0  0  0  0  0  0  0  0
  141.4380   78.1240  223.2500 C   0  0  0  0  0  0  0  0  0  0  0  0
  141.2830   79.3640  224.1060 C   0  0  0  0  0  0  0  0  0  0  0  0
  142.4600   80.2630  223.7710 C   0  0  0  0  0  0  0  0  0  0  0  0
  142.4910   80.5200  222.2950 C   0  0  0  0  0  0  0  0  0  0  0  0
  141.2830   79.9700  221.5770 C   0  0  0  0  0  0  0  0  0  0  0  0
  140.1630   71.6510  223.7970 C   0  0  0  0  0  0  0  0  0  0  0  0
  139.4070   70.5190  223.5820 C   0  0  0  0  0  0  0  0  0  0  0  0
  139.2170   69.6710  224.6410 C   0  0  0  0  0  0  0  0  0  0  0  0
  139.7510   69.9050  225.9000 C   0  0  0  0  0  0  0  0  0  0  0  0
  139.5470   69.0360  226.9510 C   0  0  0  0  0  0  0  0  0  0  0  0
  140.0990   69.3130  228.1880 C   0  0  0  0  0  0  0  0  0  0  0  0
  140.8550   70.4750  228.3450 C   0  0  0  0  0  0  0  0  0  0  0  0
  141.0580   71.3480  227.2840 C   0  0  0  0  0  0  0  0  0  0  0  0
  140.5000   71.0580  226.0490 C   0  0  0  0  0  0  0  0  0  0  0  0
  140.6750   71.8800  225.0000 N   0  0  0  0  0  0  0  0  0  0  0  0
  138.5240   73.4960  222.9640 H   0  0  0  0  0  0  0  0  0  0  0  0
  140.6018   74.0132  220.8520 H   0  0  0  0  0  0  0  0  0  0  0  0
  138.7237   74.2164  220.6077 H   0  0  0  0  0  0  0  0  0  0  0  0
  139.6722   76.2554  218.4973 H   0  0  0  0  0  0  0  0  0  0  0  0
  138.4866   77.3525  219.4268 H   0  0  0  0  0  0  0  0  0  0  0  0
  139.7842   78.1803  217.3757 H   0  0  0  0  0  0  0  0  0  0  0  0
  139.4911   79.1672  218.9171 H   0  0  0  0  0  0  0  0  0  0  0  0
  141.9482   78.3700  217.6105 H   0  0  0  0  0  0  0  0  0  0  0  0
  141.5298   79.7145  218.7824 H   0  0  0  0  0  0  0  0  0  0  0  0
  142.5899   77.0112  219.2374 H   0  0  0  0  0  0  0  0  0  0  0  0
  142.8824   78.6482  220.0533 H   0  0  0  0  0  0  0  0  0  0  0  0
  142.0414   76.8956  221.3501 H   0  0  0  0  0  0  0  0  0  0  0  0
  139.9029   78.5179  221.7850 H   0  0  0  0  0  0  0  0  0  0  0  0
  140.7972   77.3136  223.6277 H   0  0  0  0  0  0  0  0  0  0  0  0
  142.4714   77.7472  223.2610 H   0  0  0  0  0  0  0  0  0  0  0  0
  140.3363   79.8728  223.8716 H   0  0  0  0  0  0  0  0  0  0  0  0
  141.2650   79.1112  225.1764 H   0  0  0  0  0  0  0  0  0  0  0  0
  142.3557   81.2179  224.3069 H   0  0  0  0  0  0  0  0  0  0  0  0
  143.3950   79.7703  224.0761 H   0  0  0  0  0  0  0  0  0  0  0  0
  142.5333   81.6066  222.1289 H   0  0  0  0  0  0  0  0  0  0  0  0
  143.3766   80.0087  221.8897 H   0  0  0  0  0  0  0  0  0  0  0  0
  140.4048   80.5561  221.8856 H   0  0  0  0  0  0  0  0  0  0  0  0
  141.4990   80.0477  220.5012 H   0  0  0  0  0  0  0  0  0  0  0  0
  138.9716   70.3040  222.5950 H   0  0  0  0  0  0  0  0  0  0  0  0
  138.6141   68.7640  224.4863 H   0  0  0  0  0  0  0  0  0  0  0  0
  138.9471   68.1255  226.8058 H   0  0  0  0  0  0  0  0  0  0  0  0
  139.9446   68.6282  229.0348 H   0  0  0  0  0  0  0  0  0  0  0  0
  141.2978   70.7036  229.3257 H   0  0  0  0  0  0  0  0  0  0  0  0
  141.6559   72.2608  227.4226 H   0  0  0  0  0  0  0  0  0  0  0  0
  1  2  2  0
  2  3  1  0
  3  4  1  0
  4  5  1  0
  5  6  2  0
  5  7  1  0
  7  8  1  0
  8  9  1  0
  9 10  1  0
 10 11  1  0
 11 12  1  0
 12 13  1  0
 13 14  1  0
 14 15  1  0
 15 16  1  0
 16 17  1  0
 17 18  1  0
  2 19  1  0
 19 20  2  0
 20 21  1  0
 21 22  2  0
 22 23  1  0
 23 24  2  0
 24 25  1  0
 25 26  2  0
 26 27  1  0
 27 28  2  0
 12  7  1  0
 18 13  1  0
 28 19  1  0
 27 22  1  0
  3 29  1  0
  4 30  1  0
  4 31  1  0
  8 32  1  0
  8 33  1  0
  9 34  1  0
  9 35  1  0
 10 36  1  0
 10 37  1  0
 11 38  1  0
 11 39  1  0
 12 40  1  1
 13 41  1  0
 14 42  1  0
 14 43  1  0
 15 44  1  0
 15 45  1  0
 16 46  1  0
 16 47  1  0
 17 48  1  0
 17 49  1  0
 18 50  1  0
 18 51  1  0
 20 52  1  0
 21 53  1  0
 23 54  1  0
 24 55  1  0
 25 56  1  0
 26 57  1  0
M  END
>  <smiles>  (68) 
O=C(NCC(=O)N1CCCCC1C1CCCCC1)c1ccc2ccccc2n1

>  <score_type>  (68) 
oracle

>  <origin>  (68) 
autodockgpu

>  <m_score__min__energy>  (68) 
-9.0199999999999996

>  <m_primary>  (68) 
energy

>  <rmsd>  (68) 
1.7883309044139766

>  <m_score__min__rmsd>  (68) 
1.7883309044139766

>  <meeko>  (68) 
{"free_energy": -8.89, "intermolecular_energy": -10.38, "internal_energy": -1.34, "cluster_size": 34, "cluster_id": 1, "rank_in_cluster": 17}

>  <energy>  (68) 
-8.88

>  <cluster_rmsd>  (68) 
1.22

>  <cluster>  (68) 
1

$$$$

     RDKit          3D

 57 60  0  0  0  0  0  0  0  0999 V2000
  141.3640   72.6770  221.8430 O   0  0  0  0  0  0  0  0  0  0  0  0
  140.3460   72.6280  222.5890 C   0  0  0  0  0  0  0  0  0  0  0  0
  139.2810   73.6010  222.3360 N   0  0  0  0  0  0  0  0  0  0  0  0
  139.5330   74.4910  221.2610 C   0  0  0  0  0  0  0  0  0  0  0  0
  140.3110   75.6880  221.4040 C   0  0  0  0  0  0  0  0  0  0  0  0
  141.2520   75.5860  222.3170 O   0  0  0  0  0  0  0  0  0  0  0  0
  140.2860   76.9560  220.7760 N   0  0  0  0  0  0  0  0  0  0  0  0
  139.2250   77.4530  219.9590 C   0  0  0  0  0  0  0  0  0  0  0  0
  139.2830   78.8730  219.5270 C   0  0  0  0  0  0  0  0  0  0  0  0
  140.6330   79.4380  219.2560 C   0  0  0  0  0  0  0  0  0  0  0  0
  141.7490   78.6270  219.7960 C   0  0  0  0  0  0  0  0  0  0  0  0
  141.4560   77.8030  220.9760 C   0  0  1  0  0  0  0  0  0  0  0  0
  141.4360   78.4240  222.3130 C   0  0  0  0  0  0  0  0  0  0  0  0
  142.5880   79.4030  222.5420 C   0  0  0  0  0  0  0  0  0  0  0  0
  142.2490   80.1360  223.8220 C   0  0  0  0  0  0  0  0  0  0  0  0
  141.1740   81.1470  223.4620 C   0  0  0  0  0  0  0  0  0  0  0  0
  140.0200   80.4430  222.8180 C   0  0  0  0  0  0  0  0  0  0  0  0
  140.1550   78.9410  222.8480 C   0  0  0  0  0  0  0  0  0  0  0  0
  140.1970   71.6660  223.6650 C   0  0  0  0  0  0  0  0  0  0  0  0
  139.5190   70.5010  223.3830 C   0  0  0  0  0  0  0  0  0  0  0  0
  139.3730   69.5880  224.3950 C   0  0  0  0  0  0  0  0  0  0  0  0
  139.8780   69.7920  225.6710 C   0  0  0  0  0  0  0  0  0  0  0  0
  139.7190   68.8580  226.6740 C   0  0  0  0  0  0  0  0  0  0  0  0
  140.2400   69.1060  227.9310 C   0  0  0  0  0  0  0  0  0  0  0  0
  140.9170   70.3040  228.1570 C   0  0  0  0  0  0  0  0  0  0  0  0
  141.0740   71.2420  227.1440 C   0  0  0  0  0  0  0  0  0  0  0  0
  140.5490   70.9810  225.8890 C   0  0  0  0  0  0  0  0  0  0  0  0
  140.6810   71.8650  224.8860 N   0  0  0  0  0  0  0  0  0  0  0  0
  138.4900   73.5050  222.9660 H   0  0  0  0  0  0  0  0  0  0  0  0
  140.0345   73.8944  220.4848 H   0  0  0  0  0  0  0  0  0  0  0  0
  138.5295   74.9015  221.0751 H   0  0  0  0  0  0  0  0  0  0  0  0
  139.1961   76.8354  219.0492 H   0  0  0  0  0  0  0  0  0  0  0  0
  138.3345   77.3981  220.6024 H   0  0  0  0  0  0  0  0  0  0  0  0
  138.6927   78.9641  218.6033 H   0  0  0  0  0  0  0  0  0  0  0  0
  138.8961   79.4492  220.3804 H   0  0  0  0  0  0  0  0  0  0  0  0
  140.7609   79.5192  218.1665 H   0  0  0  0  0  0  0  0  0  0  0  0
  140.6758   80.4131  219.7633 H   0  0  0  0  0  0  0  0  0  0  0  0
  142.0892   77.9535  218.9955 H   0  0  0  0  0  0  0  0  0  0  0  0
  142.4997   79.3570  220.1329 H   0  0  0  0  0  0  0  0  0  0  0  0
  142.3768   77.2034  221.0263 H   0  0  0  0  0  0  0  0  0  0  0  0
  141.5898   77.5304  222.9358 H   0  0  0  0  0  0  0  0  0  0  0  0
  143.5382   78.8596  222.6506 H   0  0  0  0  0  0  0  0  0  0  0  0
  142.7090   80.0952  221.6957 H   0  0  0  0  0  0  0  0  0  0  0  0
  141.8710   79.4303  224.5764 H   0  0  0  0  0  0  0  0  0  0  0  0
  143.1355   80.6292  224.2473 H   0  0  0  0  0  0  0  0  0  0  0  0
  140.8297   81.6562  224.3743 H   0  0  0  0  0  0  0  0  0  0  0  0
  141.5878   81.8876  222.7618 H   0  0  0  0  0  0  0  0  0  0  0  0
  139.0982   80.7228  223.3489 H   0  0  0  0  0  0  0  0  0  0  0  0
  139.9949   80.7501  221.7620 H   0  0  0  0  0  0  0  0  0  0  0  0
  140.0611   78.6093  223.8926 H   0  0  0  0  0  0  0  0  0  0  0  0
  139.3631   78.5447  222.1954 H   0  0  0  0  0  0  0  0  0  0  0  0
  139.1088   70.3097  222.3804 H   0  0  0  0  0  0  0  0  0  0  0  0
  138.8321   68.6532  224.1864 H   0  0  0  0  0  0  0  0  0  0  0  0
  139.1801   67.9200  226.4748 H   0  0  0  0  0  0  0  0  0  0  0  0
  140.1222   68.3698  228.7398 H   0  0  0  0  0  0  0  0  0  0  0  0
  141.3337   70.5099  229.1540 H   0  0  0  0  0  0  0  0  0  0  0  0
  141.6101   72.1829  227.3368 H   0  0  0  0  0  0  0  0  0  0  0  0
  1  2  2  0
  2  3  1  0
  3  4  1  0
  4  5  1  0
  5  6  2  0
  5  7  1  0
  7  8  1  0
  8  9  1  0
  9 10  1  0
 10 11  1  0
 11 12  1  0
 12 13  1  0
 13 14  1  0
 14 15  1  0
 15 16  1  0
 16 17  1  0
 17 18  1  0
  2 19  1  0
 19 20  2  0
 20 21  1  0
 21 22  2  0
 22 23  1  0
 23 24  2  0
 24 25  1  0
 25 26  2  0
 26 27  1  0
 27 28  2  0
 12  7  1  0
 18 13  1  0
 28 19  1  0
 27 22  1  0
  3 29  1  0
  4 30  1  0
  4 31  1  0
  8 32  1  0
  8 33  1  0
  9 34  1  0
  9 35  1  0
 10 36  1  0
 10 37  1  0
 11 38  1  0
 11 39  1  0
 12 40  1  1
 13 41  1  0
 14 42  1  0
 14 43  1  0
 15 44  1  0
 15 45  1  0
 16 46  1  0
 16 47  1  0
 17 48  1  0
 17 49  1  0
 18 50  1  0
 18 51  1  0
 20 52  1  0
 21 53  1  0
 23 54  1  0
 24 55  1  0
 25 56  1  0
 26 57  1  0
M  END
>  <smiles>  (69) 
O=C(NCC(=O)N1CCCCC1C1CCCCC1)c1ccc2ccccc2n1

>  <score_type>  (69) 
oracle

>  <origin>  (69) 
autodockgpu

>  <m_score__min__energy>  (69) 
-9.0199999999999996

>  <m_primary>  (69) 
energy

>  <rmsd>  (69) 
2.015605786583614

>  <m_score__min__rmsd>  (69) 
2.015605786583614

>  <meeko>  (69) 
{"free_energy": -8.97, "intermolecular_energy": -10.46, "internal_energy": -1.4, "cluster_size": 34, "cluster_id": 1, "rank_in_cluster": 8}

>  <energy>  (69) 
-8.88

>  <cluster_rmsd>  (69) 
1.21

>  <cluster>  (69) 
1

$$$$

     RDKit          3D

 57 60  0  0  0  0  0  0  0  0999 V2000
  141.4560   72.6390  221.8930 O   0  0  0  0  0  0  0  0  0  0  0  0
  140.4180   72.6070  222.6140 C   0  0  0  0  0  0  0  0  0  0  0  0
  139.3760   73.5970  222.3340 N   0  0  0  0  0  0  0  0  0  0  0  0
  139.6700   74.4840  221.2670 C   0  0  0  0  0  0  0  0  0  0  0  0
  140.0090   75.8630  221.4670 C   0  0  0  0  0  0  0  0  0  0  0  0
  141.2970   76.1010  221.3520 O   0  0  0  0  0  0  0  0  0  0  0  0
  139.2570   77.0260  221.7630 N   0  0  0  0  0  0  0  0  0  0  0  0
  137.9370   77.0400  222.3060 C   0  0  0  0  0  0  0  0  0  0  0  0
  137.3660   78.3470  222.7210 C   0  0  0  0  0  0  0  0  0  0  0  0
  137.7500   79.5360  221.9120 C   0  0  0  0  0  0  0  0  0  0  0  0
  138.9210   79.3160  221.0310 C   0  0  0  0  0  0  0  0  0  0  0  0
  139.8930   78.3030  221.4650 C   0  0  1  0  0  0  0  0  0  0  0  0
  140.8960   78.6460  222.4900 C   0  0  0  0  0  0  0  0  0  0  0  0
  142.1760   79.2460  221.9070 C   0  0  0  0  0  0  0  0  0  0  0  0
  142.9480   79.7860  223.0930 C   0  0  0  0  0  0  0  0  0  0  0  0
  142.2640   81.0820  223.4920 C   0  0  0  0  0  0  0  0  0  0  0  0
  140.8120   80.8220  223.7530 C   0  0  0  0  0  0  0  0  0  0  0  0
  140.4600   79.3560  223.7150 C   0  0  0  0  0  0  0  0  0  0  0  0
  140.2260   71.6470  223.6850 C   0  0  0  0  0  0  0  0  0  0  0  0
  139.5250   70.4990  223.3870 C   0  0  0  0  0  0  0  0  0  0  0  0
  139.3380   69.5890  224.3940 C   0  0  0  0  0  0  0  0  0  0  0  0
  139.8230   69.7770  225.6800 C   0  0  0  0  0  0  0  0  0  0  0  0
  139.6240   68.8460  226.6770 C   0  0  0  0  0  0  0  0  0  0  0  0
  140.1260   69.0790  227.9440 C   0  0  0  0  0  0  0  0  0  0  0  0
  140.8280   70.2600  228.1860 C   0  0  0  0  0  0  0  0  0  0  0  0
  141.0260   71.1960  227.1780 C   0  0  0  0  0  0  0  0  0  0  0  0
  140.5190   70.9500  225.9130 C   0  0  0  0  0  0  0  0  0  0  0  0
  140.6910   71.8320  224.9140 N   0  0  0  0  0  0  0  0  0  0  0  0
  138.5680   73.5140  222.9430 H   0  0  0  0  0  0  0  0  0  0  0  0
  140.5192   74.0385  220.7282 H   0  0  0  0  0  0  0  0  0  0  0  0
  138.6897   74.5682  220.7752 H   0  0  0  0  0  0  0  0  0  0  0  0
  137.2657   76.6172  221.5440 H   0  0  0  0  0  0  0  0  0  0  0  0
  138.0194   76.4674  223.2416 H   0  0  0  0  0  0  0  0  0  0  0  0
  136.2702   78.2584  222.6824 H   0  0  0  0  0  0  0  0  0  0  0  0
  137.7791   78.5357  223.7229 H   0  0  0  0  0  0  0  0  0  0  0  0
  136.8926   79.8174  221.2830 H   0  0  0  0  0  0  0  0  0  0  0  0
  138.0324   80.3259  222.6235 H   0  0  0  0  0  0  0  0  0  0  0  0
  138.5428   79.0133  220.0434 H   0  0  0  0  0  0  0  0  0  0  0  0
  139.4723   80.2679  221.0403 H   0  0  0  0  0  0  0  0  0  0  0  0
  140.5172   78.2346  220.5619 H   0  0  0  0  0  0  0  0  0  0  0  0
  141.1121   77.6413  222.8823 H   0  0  0  0  0  0  0  0  0  0  0  0
  142.7610   78.4726  221.3877 H   0  0  0  0  0  0  0  0  0  0  0  0
  141.9583   80.0329  221.1699 H   0  0  0  0  0  0  0  0  0  0  0  0
  142.9187   79.0678  223.9256 H   0  0  0  0  0  0  0  0  0  0  0  0
  144.0052   79.9533  222.8395 H   0  0  0  0  0  0  0  0  0  0  0  0
  142.7347   81.4793  224.4034 H   0  0  0  0  0  0  0  0  0  0  0  0
  142.3641   81.8146  222.6776 H   0  0  0  0  0  0  0  0  0  0  0  0
  140.5582   81.2178  224.7474 H   0  0  0  0  0  0  0  0  0  0  0  0
  140.2401   81.3186  222.9553 H   0  0  0  0  0  0  0  0  0  0  0  0
  140.9321   78.8678  224.5803 H   0  0  0  0  0  0  0  0  0  0  0  0
  139.3616   79.2998  223.7322 H   0  0  0  0  0  0  0  0  0  0  0  0
  139.1295   70.3194  222.3764 H   0  0  0  0  0  0  0  0  0  0  0  0
  138.7783   68.6682  224.1729 H   0  0  0  0  0  0  0  0  0  0  0  0
  139.0677   67.9209  226.4653 H   0  0  0  0  0  0  0  0  0  0  0  0
  139.9742   68.3446  228.7487 H   0  0  0  0  0  0  0  0  0  0  0  0
  141.2313   70.4535  229.1909 H   0  0  0  0  0  0  0  0  0  0  0  0
  141.5803   72.1237  227.3831 H   0  0  0  0  0  0  0  0  0  0  0  0
  1  2  2  0
  2  3  1  0
  3  4  1  0
  4  5  1  0
  5  6  2  0
  5  7  1  0
  7  8  1  0
  8  9  1  0
  9 10  1  0
 10 11  1  0
 11 12  1  0
 12 13  1  0
 13 14  1  0
 14 15  1  0
 15 16  1  0
 16 17  1  0
 17 18  1  0
  2 19  1  0
 19 20  2  0
 20 21  1  0
 21 22  2  0
 22 23  1  0
 23 24  2  0
 24 25  1  0
 25 26  2  0
 26 27  1  0
 27 28  2  0
 12  7  1  0
 18 13  1  0
 28 19  1  0
 27 22  1  0
  3 29  1  0
  4 30  1  0
  4 31  1  0
  8 32  1  0
  8 33  1  0
  9 34  1  0
  9 35  1  0
 10 36  1  0
 10 37  1  0
 11 38  1  0
 11 39  1  0
 12 40  1  6
 13 41  1  0
 14 42  1  0
 14 43  1  0
 15 44  1  0
 15 45  1  0
 16 46  1  0
 16 47  1  0
 17 48  1  0
 17 49  1  0
 18 50  1  0
 18 51  1  0
 20 52  1  0
 21 53  1  0
 23 54  1  0
 24 55  1  0
 25 56  1  0
 26 57  1  0
M  END
>  <smiles>  (70) 
O=C(NCC(=O)N1CCCCC1C1CCCCC1)c1ccc2ccccc2n1

>  <score_type>  (70) 
oracle

>  <origin>  (70) 
autodockgpu

>  <m_score__min__energy>  (70) 
-9.0199999999999996

>  <m_primary>  (70) 
energy

>  <rmsd>  (70) 
2.995432148709666

>  <m_score__min__rmsd>  (70) 
2.995432148709666

>  <meeko>  (70) 
{"free_energy": -9.0, "intermolecular_energy": -10.49, "internal_energy": -1.26, "cluster_size": 34, "cluster_id": 1, "rank_in_cluster": 4}

>  <energy>  (70) 
-8.86

>  <cluster_rmsd>  (70) 
0.18

>  <cluster>  (70) 
1

$$$$

     RDKit          3D

 57 60  0  0  0  0  0  0  0  0999 V2000
  139.0120   75.2030  221.7650 O   0  0  0  0  0  0  0  0  0  0  0  0
  140.1310   75.7510  221.9770 C   0  0  0  0  0  0  0  0  0  0  0  0
  141.3290   74.9380  221.7580 N   0  0  0  0  0  0  0  0  0  0  0  0
  141.0760   73.6120  221.3240 C   0  0  0  0  0  0  0  0  0  0  0  0
  141.9070   72.9270  220.3770 C   0  0  0  0  0  0  0  0  0  0  0  0
  141.2220   72.2280  219.4980 O   0  0  0  0  0  0  0  0  0  0  0  0
  143.3060   72.8380  220.1820 N   0  0  0  0  0  0  0  0  0  0  0  0
  144.0060   71.6750  219.7370 C   0  0  0  0  0  0  0  0  0  0  0  0
  145.4490   71.8090  219.4150 C   0  0  0  0  0  0  0  0  0  0  0  0
  146.2360   72.7680  220.2370 C   0  0  0  0  0  0  0  0  0  0  0  0
  145.4090   73.7150  221.0210 C   0  0  0  0  0  0  0  0  0  0  0  0
  144.0810   74.0360  220.4790 C   0  0  1  0  0  0  0  0  0  0  0  0
  143.9560   75.0290  219.3960 C   0  0  0  0  0  0  0  0  0  0  0  0
  143.3490   74.4540  218.1160 C   0  0  0  0  0  0  0  0  0  0  0  0
  143.0410   75.6510  217.2410 C   0  0  0  0  0  0  0  0  0  0  0  0
  141.7830   76.2830  217.8110 C   0  0  0  0  0  0  0  0  0  0  0  0
  141.9950   76.6030  219.2590 C   0  0  0  0  0  0  0  0  0  0  0  0
  143.4160   76.3730  219.7100 C   0  0  0  0  0  0  0  0  0  0  0  0
  140.2690   77.1250  222.4220 C   0  0  0  0  0  0  0  0  0  0  0  0
  139.1130   77.8170  222.7080 C   0  0  0  0  0  0  0  0  0  0  0  0
  139.2360   79.1160  223.1280 C   0  0  0  0  0  0  0  0  0  0  0  0
  140.4620   79.7470  223.2740 C   0  0  0  0  0  0  0  0  0  0  0  0
  140.5610   81.0560  223.6990 C   0  0  0  0  0  0  0  0  0  0  0  0
  141.8070   81.6420  223.8290 C   0  0  0  0  0  0  0  0  0  0  0  0
  142.9420   80.8920  223.5240 C   0  0  0  0  0  0  0  0  0  0  0  0
  142.8380   79.5740  223.0960 C   0  0  0  0  0  0  0  0  0  0  0  0
  141.5840   78.9980  222.9710 C   0  0  0  0  0  0  0  0  0  0  0  0
  141.4450   77.7260  222.5600 N   0  0  0  0  0  0  0  0  0  0  0  0
  142.1940   75.4380  221.9410 H   0  0  0  0  0  0  0  0  0  0  0  0
  141.0763   72.9910  222.2319 H   0  0  0  0  0  0  0  0  0  0  0  0
  140.1484   73.7430  220.7475 H   0  0  0  0  0  0  0  0  0  0  0  0
  143.9169   70.9169  220.5291 H   0  0  0  0  0  0  0  0  0  0  0  0
  143.5333   71.4213  218.7767 H   0  0  0  0  0  0  0  0  0  0  0  0
  145.9089   70.8165  219.5309 H   0  0  0  0  0  0  0  0  0  0  0  0
  145.4783   72.2156  218.3933 H   0  0  0  0  0  0  0  0  0  0  0  0
  146.8591   72.1923  220.9372 H   0  0  0  0  0  0  0  0  0  0  0  0
  146.8308   73.3721  219.5361 H   0  0  0  0  0  0  0  0  0  0  0  0
  145.2649   73.2822  222.0219 H   0  0  0  0  0  0  0  0  0  0  0  0
  145.9644   74.6644  221.0069 H   0  0  0  0  0  0  0  0  0  0  0  0
  143.6519   74.5847  221.3304 H   0  0  0  0  0  0  0  0  0  0  0  0
  145.0192   75.2531  219.2246 H   0  0  0  0  0  0  0  0  0  0  0  0
  144.0667   73.7869  217.6161 H   0  0  0  0  0  0  0  0  0  0  0  0
  142.4482   73.8577  218.3236 H   0  0  0  0  0  0  0  0  0  0  0  0
  143.8744   76.3684  217.2698 H   0  0  0  0  0  0  0  0  0  0  0  0
  142.8988   75.3533  216.1917 H   0  0  0  0  0  0  0  0  0  0  0  0
  141.5561   77.2081  217.2608 H   0  0  0  0  0  0  0  0  0  0  0  0
  140.9427   75.5803  217.7107 H   0  0  0  0  0  0  0  0  0  0  0  0
  141.7408   77.6602  219.4255 H   0  0  0  0  0  0  0  0  0  0  0  0
  141.3506   75.9296  219.8432 H   0  0  0  0  0  0  0  0  0  0  0  0
  144.0561   77.1222  219.2211 H   0  0  0  0  0  0  0  0  0  0  0  0
  143.4111   76.4572  220.8068 H   0  0  0  0  0  0  0  0  0  0  0  0
  138.1256   77.3438  222.6030 H   0  0  0  0  0  0  0  0  0  0  0  0
  138.3220   79.6827  223.3594 H   0  0  0  0  0  0  0  0  0  0  0  0
  139.6530   81.6309  223.9334 H   0  0  0  0  0  0  0  0  0  0  0  0
  141.9011   82.6842  224.1680 H   0  0  0  0  0  0  0  0  0  0  0  0
  143.9365   81.3513  223.6238 H   0  0  0  0  0  0  0  0  0  0  0  0
  143.7420   78.9939  222.8588 H   0  0  0  0  0  0  0  0  0  0  0  0
  1  2  2  0
  2  3  1  0
  3  4  1  0
  4  5  1  0
  5  6  2  0
  5  7  1  0
  7  8  1  0
  8  9  1  0
  9 10  1  0
 10 11  1  0
 11 12  1  0
 12 13  1  0
 13 14  1  0
 14 15  1  0
 15 16  1  0
 16 17  1  0
 17 18  1  0
  2 19  1  0
 19 20  2  0
 20 21  1  0
 21 22  2  0
 22 23  1  0
 23 24  2  0
 24 25  1  0
 25 26  2  0
 26 27  1  0
 27 28  2  0
 12  7  1  0
 18 13  1  0
 28 19  1  0
 27 22  1  0
  3 29  1  0
  4 30  1  0
  4 31  1  0
  8 32  1  0
  8 33  1  0
  9 34  1  0
  9 35  1  0
 10 36  1  0
 10 37  1  0
 11 38  1  0
 11 39  1  0
 12 40  1  1
 13 41  1  0
 14 42  1  0
 14 43  1  0
 15 44  1  0
 15 45  1  0
 16 46  1  0
 16 47  1  0
 17 48  1  0
 17 49  1  0
 18 50  1  0
 18 51  1  0
 20 52  1  0
 21 53  1  0
 23 54  1  0
 24 55  1  0
 25 56  1  0
 26 57  1  0
M  END
>  <smiles>  (71) 
O=C(NCC(=O)N1CCCCC1C1CCCCC1)c1ccc2ccccc2n1

>  <score_type>  (71) 
oracle

>  <origin>  (71) 
autodockgpu

>  <m_score__min__energy>  (71) 
-9.0199999999999996

>  <m_primary>  (71) 
energy

>  <rmsd>  (71) 
7.815604019387247

>  <m_score__min__rmsd>  (71) 
7.815604019387247

>  <meeko>  (71) 
{"free_energy": -7.59, "intermolecular_energy": -9.08, "internal_energy": -2.38, "cluster_size": 7, "cluster_id": 4, "rank_in_cluster": 5}

>  <energy>  (71) 
-8.86

>  <cluster_rmsd>  (71) 
0.22

>  <cluster>  (71) 
1

$$$$

     RDKit          3D

 57 60  0  0  0  0  0  0  0  0999 V2000
  141.1950   72.1830  221.6570 O   0  0  0  0  0  0  0  0  0  0  0  0
  140.3050   72.3450  222.5400 C   0  0  0  0  0  0  0  0  0  0  0  0
  139.3440   73.4310  222.3330 N   0  0  0  0  0  0  0  0  0  0  0  0
  139.5380   74.1770  221.1420 C   0  0  0  0  0  0  0  0  0  0  0  0
  139.7020   75.6020  221.1300 C   0  0  0  0  0  0  0  0  0  0  0  0
  139.1400   76.1950  222.1610 O   0  0  0  0  0  0  0  0  0  0  0  0
  140.3380   76.5100  220.2510 N   0  0  0  0  0  0  0  0  0  0  0  0
  139.9460   76.7650  218.9010 C   0  0  0  0  0  0  0  0  0  0  0  0
  140.6110   77.8790  218.1780 C   0  0  0  0  0  0  0  0  0  0  0  0
  142.0430   78.1270  218.4980 C   0  0  0  0  0  0  0  0  0  0  0  0
  142.5090   77.4700  219.7420 C   0  0  0  0  0  0  0  0  0  0  0  0
  141.4960   77.2220  220.7770 C   0  0  1  0  0  0  0  0  0  0  0  0
  141.0810   78.3200  221.6690 C   0  0  0  0  0  0  0  0  0  0  0  0
  141.4190   78.0650  223.1390 C   0  0  0  0  0  0  0  0  0  0  0  0
  141.1860   79.3850  223.8430 C   0  0  0  0  0  0  0  0  0  0  0  0
  142.3730   80.2680  223.4980 C   0  0  0  0  0  0  0  0  0  0  0  0
  142.5070   80.3660  222.0090 C   0  0  0  0  0  0  0  0  0  0  0  0
  141.3630   79.7190  221.2700 C   0  0  0  0  0  0  0  0  0  0  0  0
  140.2030   71.5150  223.7250 C   0  0  0  0  0  0  0  0  0  0  0  0
  139.5840   70.2910  223.5890 C   0  0  0  0  0  0  0  0  0  0  0  0
  139.4830   69.5020  224.7050 C   0  0  0  0  0  0  0  0  0  0  0  0
  139.9750   69.8830  225.9440 C   0  0  0  0  0  0  0  0  0  0  0  0
  139.8630   69.0710  227.0530 C   0  0  0  0  0  0  0  0  0  0  0  0
  140.3680   69.4960  228.2680 C   0  0  0  0  0  0  0  0  0  0  0  0
  140.9840   70.7440  228.3450 C   0  0  0  0  0  0  0  0  0  0  0  0
  141.0950   71.5600  227.2250 C   0  0  0  0  0  0  0  0  0  0  0  0
  140.5850   71.1220  226.0130 C   0  0  0  0  0  0  0  0  0  0  0  0
  140.6740   71.8840  224.9090 N   0  0  0  0  0  0  0  0  0  0  0  0
  138.6540   73.5050  223.0740 H   0  0  0  0  0  0  0  0  0  0  0  0
  140.4416   73.7641  220.6698 H   0  0  0  0  0  0  0  0  0  0  0  0
  138.5604   74.0642  220.6504 H   0  0  0  0  0  0  0  0  0  0  0  0
  140.1333   75.8454  218.3273 H   0  0  0  0  0  0  0  0  0  0  0  0
  138.8938   77.0768  218.9758 H   0  0  0  0  0  0  0  0  0  0  0  0
  140.5431   77.6643  217.1013 H   0  0  0  0  0  0  0  0  0  0  0  0
  140.0824   78.7879  218.5013 H   0  0  0  0  0  0  0  0  0  0  0  0
  142.6530   77.7548  217.6617 H   0  0  0  0  0  0  0  0  0  0  0  0
  142.1496   79.2108  218.6533 H   0  0  0  0  0  0  0  0  0  0  0  0
  142.9450   76.4994  219.4631 H   0  0  0  0  0  0  0  0  0  0  0  0
  143.2175   78.1789  220.1952 H   0  0  0  0  0  0  0  0  0  0  0  0
  142.0736   76.5868  221.4647 H   0  0  0  0  0  0  0  0  0  0  0  0
  139.9907   78.2687  221.5327 H   0  0  0  0  0  0  0  0  0  0  0  0
  140.7625   77.2865  223.5549 H   0  0  0  0  0  0  0  0  0  0  0  0
  142.4535   77.7128  223.2645 H   0  0  0  0  0  0  0  0  0  0  0  0
  140.2525   79.8462  223.4883 H   0  0  0  0  0  0  0  0  0  0  0  0
  141.0932   79.2471  224.9304 H   0  0  0  0  0  0  0  0  0  0  0  0
  142.2174   81.2723  223.9190 H   0  0  0  0  0  0  0  0  0  0  0  0
  143.2898   79.8311  223.9205 H   0  0  0  0  0  0  0  0  0  0  0  0
  142.5477   81.4293  221.7301 H   0  0  0  0  0  0  0  0  0  0  0  0
  143.4256   79.8314  221.7257 H   0  0  0  0  0  0  0  0  0  0  0  0
  140.4570   80.3161  221.4505 H   0  0  0  0  0  0  0  0  0  0  0  0
  141.6559   79.6870  220.2102 H   0  0  0  0  0  0  0  0  0  0  0  0
  139.1852   69.9592  222.6190 H   0  0  0  0  0  0  0  0  0  0  0  0
  138.9897   68.5230  224.6137 H   0  0  0  0  0  0  0  0  0  0  0  0
  139.3739   68.0891  226.9713 H   0  0  0  0  0  0  0  0  0  0  0  0
  140.2848   68.8586  229.1607 H   0  0  0  0  0  0  0  0  0  0  0  0
  141.3889   71.0889  229.3078 H   0  0  0  0  0  0  0  0  0  0  0  0
  141.5826   72.5432  227.2999 H   0  0  0  0  0  0  0  0  0  0  0  0
  1  2  2  0
  2  3  1  0
  3  4  1  0
  4  5  1  0
  5  6  2  0
  5  7  1  0
  7  8  1  0
  8  9  1  0
  9 10  1  0
 10 11  1  0
 11 12  1  0
 12 13  1  0
 13 14  1  0
 14 15  1  0
 15 16  1  0
 16 17  1  0
 17 18  1  0
  2 19  1  0
 19 20  2  0
 20 21  1  0
 21 22  2  0
 22 23  1  0
 23 24  2  0
 24 25  1  0
 25 26  2  0
 26 27  1  0
 27 28  2  0
 12  7  1  0
 18 13  1  0
 28 19  1  0
 27 22  1  0
  3 29  1  0
  4 30  1  0
  4 31  1  0
  8 32  1  0
  8 33  1  0
  9 34  1  0
  9 35  1  0
 10 36  1  0
 10 37  1  0
 11 38  1  0
 11 39  1  0
 12 40  1  1
 13 41  1  0
 14 42  1  0
 14 43  1  0
 15 44  1  0
 15 45  1  0
 16 46  1  0
 16 47  1  0
 17 48  1  0
 17 49  1  0
 18 50  1  0
 18 51  1  0
 20 52  1  0
 21 53  1  0
 23 54  1  0
 24 55  1  0
 25 56  1  0
 26 57  1  0
M  END
>  <smiles>  (72) 
O=C(NCC(=O)N1CCCCC1C1CCCCC1)c1ccc2ccccc2n1

>  <score_type>  (72) 
oracle

>  <origin>  (72) 
autodockgpu

>  <m_score__min__energy>  (72) 
-9.0199999999999996

>  <m_primary>  (72) 
energy

>  <rmsd>  (72) 
1.6550400925780668

>  <m_score__min__rmsd>  (72) 
1.6550400925780668

>  <meeko>  (72) 
{"free_energy": -8.96, "intermolecular_energy": -10.45, "internal_energy": -1.38, "cluster_size": 34, "cluster_id": 1, "rank_in_cluster": 12}

>  <energy>  (72) 
-8.81

>  <cluster_rmsd>  (72) 
1.2

>  <cluster>  (72) 
1

$$$$

     RDKit          3D

 57 60  0  0  0  0  0  0  0  0999 V2000
  141.4670   71.8820  221.5960 O   0  0  0  0  0  0  0  0  0  0  0  0
  140.5590   72.2110  222.4110 C   0  0  0  0  0  0  0  0  0  0  0  0
  139.7630   73.3960  222.0860 N   0  0  0  0  0  0  0  0  0  0  0  0
  140.1190   74.0360  220.8710 C   0  0  0  0  0  0  0  0  0  0  0  0
  141.0370   75.1360  220.8080 C   0  0  0  0  0  0  0  0  0  0  0  0
  141.4570   75.5280  221.9920 O   0  0  0  0  0  0  0  0  0  0  0  0
  141.5900   75.8950  219.7490 N   0  0  0  0  0  0  0  0  0  0  0  0
  141.6910   77.3190  219.7180 C   0  0  0  0  0  0  0  0  0  0  0  0
  142.4610   77.9410  218.6100 C   0  0  0  0  0  0  0  0  0  0  0  0
  142.4000   77.2630  217.2860 C   0  0  0  0  0  0  0  0  0  0  0  0
  141.8790   75.8770  217.3380 C   0  0  0  0  0  0  0  0  0  0  0  0
  142.0760   75.1450  218.5970 C   0  0  1  0  0  0  0  0  0  0  0  0
  143.3820   74.5240  218.8840 C   0  0  0  0  0  0  0  0  0  0  0  0
  143.9360   74.8910  220.2610 C   0  0  0  0  0  0  0  0  0  0  0  0
  145.1090   73.9590  220.4860 C   0  0  0  0  0  0  0  0  0  0  0  0
  144.5170   72.6070  220.8450 C   0  0  0  0  0  0  0  0  0  0  0  0
  143.5700   72.1740  219.7680 C   0  0  0  0  0  0  0  0  0  0  0  0
  143.5830   73.0900  218.5690 C   0  0  0  0  0  0  0  0  0  0  0  0
  140.2830   71.4740  223.6300 C   0  0  0  0  0  0  0  0  0  0  0  0
  139.5480   70.3150  223.5160 C   0  0  0  0  0  0  0  0  0  0  0  0
  139.2830   69.6150  224.6640 C   0  0  0  0  0  0  0  0  0  0  0  0
  139.7220   70.0230  225.9150 C   0  0  0  0  0  0  0  0  0  0  0  0
  139.4430   69.3020  227.0560 C   0  0  0  0  0  0  0  0  0  0  0  0
  139.9020   69.7500  228.2810 C   0  0  0  0  0  0  0  0  0  0  0  0
  140.6420   70.9310  228.3340 C   0  0  0  0  0  0  0  0  0  0  0  0
  140.9200   71.6560  227.1810 C   0  0  0  0  0  0  0  0  0  0  0  0
  140.4550   71.1950  225.9600 C   0  0  0  0  0  0  0  0  0  0  0  0
  140.7050   71.8700  224.8250 N   0  0  0  0  0  0  0  0  0  0  0  0
  139.0480   73.6030  222.7770 H   0  0  0  0  0  0  0  0  0  0  0  0
  140.5422   73.2507  220.2274 H   0  0  0  0  0  0  0  0  0  0  0  0
  139.1726   74.5227  220.5929 H   0  0  0  0  0  0  0  0  0  0  0  0
  140.6672   77.7183  219.6689 H   0  0  0  0  0  0  0  0  0  0  0  0
  142.2606   77.5732  220.6241 H   0  0  0  0  0  0  0  0  0  0  0  0
  142.0835   78.9656  218.4768 H   0  0  0  0  0  0  0  0  0  0  0  0
  143.5146   77.8740  218.9190 H   0  0  0  0  0  0  0  0  0  0  0  0
  141.7468   77.8527  216.6260 H   0  0  0  0  0  0  0  0  0  0  0  0
  143.4336   77.1989  216.9152 H   0  0  0  0  0  0  0  0  0  0  0  0
  140.7973   75.9199  217.1431 H   0  0  0  0  0  0  0  0  0  0  0  0
  142.4593   75.3215  216.5866 H   0  0  0  0  0  0  0  0  0  0  0  0
  141.4503   74.2608  218.4055 H   0  0  0  0  0  0  0  0  0  0  0  0
  143.9929   75.0067  218.1069 H   0  0  0  0  0  0  0  0  0  0  0  0
  144.2695   75.9391  220.2745 H   0  0  0  0  0  0  0  0  0  0  0  0
  143.1749   74.7871  221.0484 H   0  0  0  0  0  0  0  0  0  0  0  0
  145.7131   73.8792  219.5702 H   0  0  0  0  0  0  0  0  0  0  0  0
  145.7680   74.3314  221.2842 H   0  0  0  0  0  0  0  0  0  0  0  0
  145.3251   71.8670  220.9418 H   0  0  0  0  0  0  0  0  0  0  0  0
  143.9754   72.6858  221.7992 H   0  0  0  0  0  0  0  0  0  0  0  0
  143.8513   71.1626  219.4396 H   0  0  0  0  0  0  0  0  0  0  0  0
  142.5552   72.2005  220.1916 H   0  0  0  0  0  0  0  0  0  0  0  0
  144.5554   72.9825  218.0661 H   0  0  0  0  0  0  0  0  0  0  0  0
  142.7341   72.7883  217.9379 H   0  0  0  0  0  0  0  0  0  0  0  0
  139.1865   69.9636  222.5383 H   0  0  0  0  0  0  0  0  0  0  0  0
  138.6957   68.6878  224.5901 H   0  0  0  0  0  0  0  0  0  0  0  0
  138.8571   68.3732  226.9924 H   0  0  0  0  0  0  0  0  0  0  0  0
  139.6869   69.1838  229.1993 H   0  0  0  0  0  0  0  0  0  0  0  0
  141.0117   71.2947  229.3041 H   0  0  0  0  0  0  0  0  0  0  0  0
  141.5035   72.5867  227.2375 H   0  0  0  0  0  0  0  0  0  0  0  0
  1  2  2  0
  2  3  1  0
  3  4  1  0
  4  5  1  0
  5  6  2  0
  5  7  1  0
  7  8  1  0
  8  9  1  0
  9 10  1  0
 10 11  1  0
 11 12  1  0
 12 13  1  0
 13 14  1  0
 14 15  1  0
 15 16  1  0
 16 17  1  0
 17 18  1  0
  2 19  1  0
 19 20  2  0
 20 21  1  0
 21 22  2  0
 22 23  1  0
 23 24  2  0
 24 25  1  0
 25 26  2  0
 26 27  1  0
 27 28  2  0
 12  7  1  0
 18 13  1  0
 28 19  1  0
 27 22  1  0
  3 29  1  0
  4 30  1  0
  4 31  1  0
  8 32  1  0
  8 33  1  0
  9 34  1  0
  9 35  1  0
 10 36  1  0
 10 37  1  0
 11 38  1  0
 11 39  1  0
 12 40  1  6
 13 41  1  0
 14 42  1  0
 14 43  1  0
 15 44  1  0
 15 45  1  0
 16 46  1  0
 16 47  1  0
 17 48  1  0
 17 49  1  0
 18 50  1  0
 18 51  1  0
 20 52  1  0
 21 53  1  0
 23 54  1  0
 24 55  1  0
 25 56  1  0
 26 57  1  0
M  END
>  <smiles>  (73) 
O=C(NCC(=O)N1CCCCC1C1CCCCC1)c1ccc2ccccc2n1

>  <score_type>  (73) 
oracle

>  <origin>  (73) 
autodockgpu

>  <m_score__min__energy>  (73) 
-9.0199999999999996

>  <m_primary>  (73) 
energy

>  <rmsd>  (73) 
2.252937659994155

>  <m_score__min__rmsd>  (73) 
2.252937659994155

>  <meeko>  (73) 
{"free_energy": -8.14, "intermolecular_energy": -9.63, "internal_energy": -1.67, "cluster_size": 6, "cluster_id": 3, "rank_in_cluster": 6}

>  <energy>  (73) 
-8.8

>  <cluster_rmsd>  (73) 
1.06

>  <cluster>  (73) 
1

$$$$

     RDKit          3D

 57 60  0  0  0  0  0  0  0  0999 V2000
  139.0150   75.1450  221.8470 O   0  0  0  0  0  0  0  0  0  0  0  0
  140.1340   75.7150  221.9910 C   0  0  0  0  0  0  0  0  0  0  0  0
  141.3320   74.9240  221.7030 N   0  0  0  0  0  0  0  0  0  0  0  0
  141.0790   73.5910  221.2880 C   0  0  0  0  0  0  0  0  0  0  0  0
  141.9470   72.8700  220.4030 C   0  0  0  0  0  0  0  0  0  0  0  0
  141.2980   72.0880  219.5670 O   0  0  0  0  0  0  0  0  0  0  0  0
  143.3510   72.8150  220.2320 N   0  0  0  0  0  0  0  0  0  0  0  0
  144.0890   71.6640  219.8200 C   0  0  0  0  0  0  0  0  0  0  0  0
  145.5330   71.8300  219.5190 C   0  0  0  0  0  0  0  0  0  0  0  0
  146.2800   72.8240  220.3380 C   0  0  0  0  0  0  0  0  0  0  0  0
  145.4150   73.7630  221.0910 C   0  0  0  0  0  0  0  0  0  0  0  0
  144.0890   74.0390  220.5210 C   0  0  1  0  0  0  0  0  0  0  0  0
  143.9560   75.0090  219.4190 C   0  0  0  0  0  0  0  0  0  0  0  0
  143.3250   74.4110  218.1610 C   0  0  0  0  0  0  0  0  0  0  0  0
  143.0140   75.5910  217.2640 C   0  0  0  0  0  0  0  0  0  0  0  0
  141.7700   76.2460  217.8380 C   0  0  0  0  0  0  0  0  0  0  0  0
  142.0070   76.5960  219.2750 C   0  0  0  0  0  0  0  0  0  0  0  0
  143.4320   76.3640  219.7110 C   0  0  0  0  0  0  0  0  0  0  0  0
  140.2720   77.0930  222.4240 C   0  0  0  0  0  0  0  0  0  0  0  0
  139.1150   77.7930  222.6840 C   0  0  0  0  0  0  0  0  0  0  0  0
  139.2380   79.0960  223.0920 C   0  0  0  0  0  0  0  0  0  0  0  0
  140.4650   79.7230  223.2520 C   0  0  0  0  0  0  0  0  0  0  0  0
  140.5640   81.0350  223.6640 C   0  0  0  0  0  0  0  0  0  0  0  0
  141.8100   81.6170  223.8080 C   0  0  0  0  0  0  0  0  0  0  0  0
  142.9470   80.8580  223.5300 C   0  0  0  0  0  0  0  0  0  0  0  0
  142.8420   79.5360  223.1150 C   0  0  0  0  0  0  0  0  0  0  0  0
  141.5880   78.9640  222.9750 C   0  0  0  0  0  0  0  0  0  0  0  0
  141.4490   77.6890  222.5750 N   0  0  0  0  0  0  0  0  0  0  0  0
  142.1970   75.4410  221.8330 H   0  0  0  0  0  0  0  0  0  0  0  0
  141.0209   72.9928  222.2093 H   0  0  0  0  0  0  0  0  0  0  0  0
  140.1850   73.7221  220.6606 H   0  0  0  0  0  0  0  0  0  0  0  0
  144.0067   70.9182  220.6243 H   0  0  0  0  0  0  0  0  0  0  0  0
  143.6395   71.3812  218.8567 H   0  0  0  0  0  0  0  0  0  0  0  0
  146.0167   70.8522  219.6598 H   0  0  0  0  0  0  0  0  0  0  0  0
  145.5696   72.2189  218.4907 H   0  0  0  0  0  0  0  0  0  0  0  0
  146.9051   72.2769  221.0591 H   0  0  0  0  0  0  0  0  0  0  0  0
  146.8710   73.4315  219.6368 H   0  0  0  0  0  0  0  0  0  0  0  0
  145.2649   73.3444  222.0971 H   0  0  0  0  0  0  0  0  0  0  0  0
  145.9457   74.7263  221.0692 H   0  0  0  0  0  0  0  0  0  0  0  0
  143.6314   74.5911  221.3552 H   0  0  0  0  0  0  0  0  0  0  0  0
  145.0183   75.2207  219.2274 H   0  0  0  0  0  0  0  0  0  0  0  0
  144.0295   73.7267  217.6656 H   0  0  0  0  0  0  0  0  0  0  0  0
  142.4224   73.8274  218.3951 H   0  0  0  0  0  0  0  0  0  0  0  0
  143.8536   76.3017  217.2647 H   0  0  0  0  0  0  0  0  0  0  0  0
  142.8539   75.2714  216.2237 H   0  0  0  0  0  0  0  0  0  0  0  0
  141.5423   77.1605  217.2707 H   0  0  0  0  0  0  0  0  0  0  0  0
  140.9223   75.5487  217.7657 H   0  0  0  0  0  0  0  0  0  0  0  0
  141.7643   77.6588  219.4215 H   0  0  0  0  0  0  0  0  0  0  0  0
  141.3661   75.9407  219.8832 H   0  0  0  0  0  0  0  0  0  0  0  0
  144.0713   77.0967  219.1968 H   0  0  0  0  0  0  0  0  0  0  0  0
  143.4436   76.4724  220.8056 H   0  0  0  0  0  0  0  0  0  0  0  0
  138.1271   77.3233  222.5684 H   0  0  0  0  0  0  0  0  0  0  0  0
  138.3232   79.6697  223.3018 H   0  0  0  0  0  0  0  0  0  0  0  0
  139.6551   81.6167  223.8774 H   0  0  0  0  0  0  0  0  0  0  0  0
  141.9033   82.6626  224.1368 H   0  0  0  0  0  0  0  0  0  0  0  0
  143.9422   81.3132  223.6410 H   0  0  0  0  0  0  0  0  0  0  0  0
  143.7468   78.9487  222.8995 H   0  0  0  0  0  0  0  0  0  0  0  0
  1  2  2  0
  2  3  1  0
  3  4  1  0
  4  5  1  0
  5  6  2  0
  5  7  1  0
  7  8  1  0
  8  9  1  0
  9 10  1  0
 10 11  1  0
 11 12  1  0
 12 13  1  0
 13 14  1  0
 14 15  1  0
 15 16  1  0
 16 17  1  0
 17 18  1  0
  2 19  1  0
 19 20  2  0
 20 21  1  0
 21 22  2  0
 22 23  1  0
 23 24  2  0
 24 25  1  0
 25 26  2  0
 26 27  1  0
 27 28  2  0
 12  7  1  0
 18 13  1  0
 28 19  1  0
 27 22  1  0
  3 29  1  0
  4 30  1  0
  4 31  1  0
  8 32  1  0
  8 33  1  0
  9 34  1  0
  9 35  1  0
 10 36  1  0
 10 37  1  0
 11 38  1  0
 11 39  1  0
 12 40  1  1
 13 41  1  0
 14 42  1  0
 14 43  1  0
 15 44  1  0
 15 45  1  0
 16 46  1  0
 16 47  1  0
 17 48  1  0
 17 49  1  0
 18 50  1  0
 18 51  1  0
 20 52  1  0
 21 53  1  0
 23 54  1  0
 24 55  1  0
 25 56  1  0
 26 57  1  0
M  END
>  <smiles>  (74) 
O=C(NCC(=O)N1CCCCC1C1CCCCC1)c1ccc2ccccc2n1

>  <score_type>  (74) 
oracle

>  <origin>  (74) 
autodockgpu

>  <m_score__min__energy>  (74) 
-9.0199999999999996

>  <m_primary>  (74) 
energy

>  <rmsd>  (74) 
7.8173582047622086

>  <m_score__min__rmsd>  (74) 
7.8173582047622086

>  <meeko>  (74) 
{"free_energy": -7.62, "intermolecular_energy": -9.11, "internal_energy": -2.36, "cluster_size": 7, "cluster_id": 4, "rank_in_cluster": 3}

>  <energy>  (74) 
-8.78

>  <cluster_rmsd>  (74) 
0.28

>  <cluster>  (74) 
1

$$$$

     RDKit          3D

 57 60  0  0  0  0  0  0  0  0999 V2000
  141.3830   72.2600  221.7120 O   0  0  0  0  0  0  0  0  0  0  0  0
  140.4720   72.4580  222.5650 C   0  0  0  0  0  0  0  0  0  0  0  0
  139.5940   73.6100  222.3530 N   0  0  0  0  0  0  0  0  0  0  0  0
  139.8830   74.3720  221.1920 C   0  0  0  0  0  0  0  0  0  0  0  0
  139.7300   75.7970  221.1340 C   0  0  0  0  0  0  0  0  0  0  0  0
  139.0130   76.2810  222.1250 O   0  0  0  0  0  0  0  0  0  0  0  0
  140.1840   76.7990  220.2430 N   0  0  0  0  0  0  0  0  0  0  0  0
  139.5810   77.1220  218.9880 C   0  0  0  0  0  0  0  0  0  0  0  0
  140.0780   78.3190  218.2630 C   0  0  0  0  0  0  0  0  0  0  0  0
  141.5290   78.6260  218.3870 C   0  0  0  0  0  0  0  0  0  0  0  0
  142.2070   77.9140  219.4960 C   0  0  0  0  0  0  0  0  0  0  0  0
  141.3730   77.5380  220.6460 C   0  0  1  0  0  0  0  0  0  0  0  0
  141.0460   78.5470  221.6700 C   0  0  0  0  0  0  0  0  0  0  0  0
  141.4500   78.1260  223.0840 C   0  0  0  0  0  0  0  0  0  0  0  0
  141.3030   79.3700  223.9350 C   0  0  0  0  0  0  0  0  0  0  0  0
  142.5030   80.2460  223.6190 C   0  0  0  0  0  0  0  0  0  0  0  0
  142.5640   80.4990  222.1440 C   0  0  0  0  0  0  0  0  0  0  0  0
  141.3600   79.9710  221.4060 C   0  0  0  0  0  0  0  0  0  0  0  0
  140.2690   71.6060  223.7210 C   0  0  0  0  0  0  0  0  0  0  0  0
  139.5710   70.4340  223.5290 C   0  0  0  0  0  0  0  0  0  0  0  0
  139.3740   69.6240  224.6170 C   0  0  0  0  0  0  0  0  0  0  0  0
  139.8470   69.9360  225.8830 C   0  0  0  0  0  0  0  0  0  0  0  0
  139.6370   69.1050  226.9630 C   0  0  0  0  0  0  0  0  0  0  0  0
  140.1280   69.4590  228.2070 C   0  0  0  0  0  0  0  0  0  0  0  0
  140.8280   70.6580  228.3410 C   0  0  0  0  0  0  0  0  0  0  0  0
  141.0360   71.4930  227.2500 C   0  0  0  0  0  0  0  0  0  0  0  0
  140.5400   71.1260  226.0090 C   0  0  0  0  0  0  0  0  0  0  0  0
  140.7220   71.9080  224.9310 N   0  0  0  0  0  0  0  0  0  0  0  0
  138.8810   73.7110  223.0690 H   0  0  0  0  0  0  0  0  0  0  0  0
  140.9375   74.1706  220.9522 H   0  0  0  0  0  0  0  0  0  0  0  0
  139.0900   74.0378  220.5068 H   0  0  0  0  0  0  0  0  0  0  0  0
  139.7222   76.2559  218.3248 H   0  0  0  0  0  0  0  0  0  0  0  0
  138.5383   77.3663  219.2391 H   0  0  0  0  0  0  0  0  0  0  0  0
  139.8586   78.1755  217.1947 H   0  0  0  0  0  0  0  0  0  0  0  0
  139.5632   79.1717  218.7298 H   0  0  0  0  0  0  0  0  0  0  0  0
  142.0227   78.3466  217.4445 H   0  0  0  0  0  0  0  0  0  0  0  0
  141.6075   79.7011  218.6062 H   0  0  0  0  0  0  0  0  0  0  0  0
  142.6416   76.9915  219.0836 H   0  0  0  0  0  0  0  0  0  0  0  0
  142.9415   78.6301  219.8932 H   0  0  0  0  0  0  0  0  0  0  0  0
  142.0761   76.8909  221.1910 H   0  0  0  0  0  0  0  0  0  0  0  0
  139.9490   78.5449  221.5887 H   0  0  0  0  0  0  0  0  0  0  0  0
  140.7875   77.3285  223.4515 H   0  0  0  0  0  0  0  0  0  0  0  0
  142.4759   77.7302  223.1142 H   0  0  0  0  0  0  0  0  0  0  0  0
  140.3704   79.8960  223.6830 H   0  0  0  0  0  0  0  0  0  0  0  0
  141.2609   79.1199  225.0054 H   0  0  0  0  0  0  0  0  0  0  0  0
  142.4077   81.2039  224.1514 H   0  0  0  0  0  0  0  0  0  0  0  0
  143.4231   79.7364  223.9412 H   0  0  0  0  0  0  0  0  0  0  0  0
  142.6296   81.5842  221.9768 H   0  0  0  0  0  0  0  0  0  0  0  0
  143.4466   79.9698  221.7554 H   0  0  0  0  0  0  0  0  0  0  0  0
  140.4876   80.5739  221.6983 H   0  0  0  0  0  0  0  0  0  0  0  0
  141.5970   80.0429  220.3342 H   0  0  0  0  0  0  0  0  0  0  0  0
  139.1850   70.1577  222.5367 H   0  0  0  0  0  0  0  0  0  0  0  0
  138.8165   68.6857  224.4802 H   0  0  0  0  0  0  0  0  0  0  0  0
  139.0812   68.1643  226.8360 H   0  0  0  0  0  0  0  0  0  0  0  0
  139.9688   68.8050  229.0770 H   0  0  0  0  0  0  0  0  0  0  0  0
  141.2218   70.9473  229.3265 H   0  0  0  0  0  0  0  0  0  0  0  0
  141.5890   72.4363  227.3701 H   0  0  0  0  0  0  0  0  0  0  0  0
  1  2  2  0
  2  3  1  0
  3  4  1  0
  4  5  1  0
  5  6  2  0
  5  7  1  0
  7  8  1  0
  8  9  1  0
  9 10  1  0
 10 11  1  0
 11 12  1  0
 12 13  1  0
 13 14  1  0
 14 15  1  0
 15 16  1  0
 16 17  1  0
 17 18  1  0
  2 19  1  0
 19 20  2  0
 20 21  1  0
 21 22  2  0
 22 23  1  0
 23 24  2  0
 24 25  1  0
 25 26  2  0
 26 27  1  0
 27 28  2  0
 12  7  1  0
 18 13  1  0
 28 19  1  0
 27 22  1  0
  3 29  1  0
  4 30  1  0
  4 31  1  0
  8 32  1  0
  8 33  1  0
  9 34  1  0
  9 35  1  0
 10 36  1  0
 10 37  1  0
 11 38  1  0
 11 39  1  0
 12 40  1  1
 13 41  1  0
 14 42  1  0
 14 43  1  0
 15 44  1  0
 15 45  1  0
 16 46  1  0
 16 47  1  0
 17 48  1  0
 17 49  1  0
 18 50  1  0
 18 51  1  0
 20 52  1  0
 21 53  1  0
 23 54  1  0
 24 55  1  0
 25 56  1  0
 26 57  1  0
M  END
>  <smiles>  (75) 
O=C(NCC(=O)N1CCCCC1C1CCCCC1)c1ccc2ccccc2n1

>  <score_type>  (75) 
oracle

>  <origin>  (75) 
autodockgpu

>  <m_score__min__energy>  (75) 
-9.0199999999999996

>  <m_primary>  (75) 
energy

>  <rmsd>  (75) 
1.790358783812311

>  <m_score__min__rmsd>  (75) 
1.790358783812311

>  <meeko>  (75) 
{"free_energy": -8.88, "intermolecular_energy": -10.37, "internal_energy": -1.43, "cluster_size": 34, "cluster_id": 1, "rank_in_cluster": 19}

>  <energy>  (75) 
-8.69

>  <cluster_rmsd>  (75) 
1.2

>  <cluster>  (75) 
1

$$$$

     RDKit          3D

 57 60  0  0  0  0  0  0  0  0999 V2000
  141.3740   72.7010  221.9120 O   0  0  0  0  0  0  0  0  0  0  0  0
  140.3330   72.6380  222.6250 C   0  0  0  0  0  0  0  0  0  0  0  0
  139.2650   73.5980  222.3400 N   0  0  0  0  0  0  0  0  0  0  0  0
  139.5410   74.4950  221.2760 C   0  0  0  0  0  0  0  0  0  0  0  0
  140.2690   75.7170  221.4540 C   0  0  0  0  0  0  0  0  0  0  0  0
  141.2270   75.6230  222.3510 O   0  0  0  0  0  0  0  0  0  0  0  0
  140.1830   77.0060  220.8740 N   0  0  0  0  0  0  0  0  0  0  0  0
  139.0530   77.5190  220.1660 C   0  0  0  0  0  0  0  0  0  0  0  0
  139.0630   78.9520  219.7790 C   0  0  0  0  0  0  0  0  0  0  0  0
  140.3810   79.5410  219.4150 C   0  0  0  0  0  0  0  0  0  0  0  0
  141.5450   78.7240  219.8320 C   0  0  0  0  0  0  0  0  0  0  0  0
  141.3580   77.8580  221.0040 C   0  0  1  0  0  0  0  0  0  0  0  0
  141.4460   78.4340  222.3590 C   0  0  0  0  0  0  0  0  0  0  0  0
  142.5670   79.4630  222.5060 C   0  0  0  0  0  0  0  0  0  0  0  0
  142.3250   80.1360  223.8410 C   0  0  0  0  0  0  0  0  0  0  0  0
  141.1720   81.1010  223.6290 C   0  0  0  0  0  0  0  0  0  0  0  0
  139.9930   80.3600  223.0790 C   0  0  0  0  0  0  0  0  0  0  0  0
  140.2030   78.8660  223.0390 C   0  0  0  0  0  0  0  0  0  0  0  0
  140.1610   71.6710  223.6940 C   0  0  0  0  0  0  0  0  0  0  0  0
  139.4590   70.5230  223.4010 C   0  0  0  0  0  0  0  0  0  0  0  0
  139.2910   69.6060  224.4060 C   0  0  0  0  0  0  0  0  0  0  0  0
  139.7970   69.7880  225.6840 C   0  0  0  0  0  0  0  0  0  0  0  0
  139.6170   68.8510  226.6790 C   0  0  0  0  0  0  0  0  0  0  0  0
  140.1400   69.0780  227.9390 C   0  0  0  0  0  0  0  0  0  0  0  0
  140.8420   70.2590  228.1760 C   0  0  0  0  0  0  0  0  0  0  0  0
  141.0210   71.2010  227.1710 C   0  0  0  0  0  0  0  0  0  0  0  0
  140.4930   70.9610  225.9130 C   0  0  0  0  0  0  0  0  0  0  0  0
  140.6470   71.8500  224.9160 N   0  0  0  0  0  0  0  0  0  0  0  0
  138.4560   73.4920  222.9450 H   0  0  0  0  0  0  0  0  0  0  0  0
  140.1012   73.9147  220.5280 H   0  0  0  0  0  0  0  0  0  0  0  0
  138.5349   74.8709  221.0385 H   0  0  0  0  0  0  0  0  0  0  0  0
  138.9524   76.9315  219.2415 H   0  0  0  0  0  0  0  0  0  0  0  0
  138.2205   77.4338  220.8800 H   0  0  0  0  0  0  0  0  0  0  0  0
  138.3964   79.0669  218.9115 H   0  0  0  0  0  0  0  0  0  0  0  0
  138.7447   79.4954  220.6809 H   0  0  0  0  0  0  0  0  0  0  0  0
  140.4162   79.6598  218.3220 H   0  0  0  0  0  0  0  0  0  0  0  0
  140.4585   80.4994  219.9494 H   0  0  0  0  0  0  0  0  0  0  0  0
  141.8220   78.0811  218.9835 H   0  0  0  0  0  0  0  0  0  0  0  0
  142.3158   79.4502  220.1295 H   0  0  0  0  0  0  0  0  0  0  0  0
  142.2844   77.2668  220.9565 H   0  0  0  0  0  0  0  0  0  0  0  0
  141.7063   77.5309  222.9305 H   0  0  0  0  0  0  0  0  0  0  0  0
  143.5484   78.9663  222.4980 H   0  0  0  0  0  0  0  0  0  0  0  0
  142.5679   80.1870  221.6779 H   0  0  0  0  0  0  0  0  0  0  0  0
  142.0602   79.3876  224.6024 H   0  0  0  0  0  0  0  0  0  0  0  0
  143.2255   80.6603  224.1935 H   0  0  0  0  0  0  0  0  0  0  0  0
  140.8991   81.5623  224.5896 H   0  0  0  0  0  0  0  0  0  0  0  0
  141.4760   81.8837  222.9184 H   0  0  0  0  0  0  0  0  0  0  0  0
  139.1183   80.5744  223.7105 H   0  0  0  0  0  0  0  0  0  0  0  0
  139.8443   80.6996  222.0434 H   0  0  0  0  0  0  0  0  0  0  0  0
  140.2326   78.4963  224.0746 H   0  0  0  0  0  0  0  0  0  0  0  0
  139.3686   78.4504  222.4550 H   0  0  0  0  0  0  0  0  0  0  0  0
  139.0476   70.3480  222.3959 H   0  0  0  0  0  0  0  0  0  0  0  0
  138.7300   68.6851  224.1890 H   0  0  0  0  0  0  0  0  0  0  0  0
  139.0593   67.9259  226.4715 H   0  0  0  0  0  0  0  0  0  0  0  0
  140.0042   68.3383  228.7417 H   0  0  0  0  0  0  0  0  0  0  0  0
  141.2610   70.4479  229.1754 H   0  0  0  0  0  0  0  0  0  0  0  0
  141.5767   72.1287  227.3722 H   0  0  0  0  0  0  0  0  0  0  0  0
  1  2  2  0
  2  3  1  0
  3  4  1  0
  4  5  1  0
  5  6  2  0
  5  7  1  0
  7  8  1  0
  8  9  1  0
  9 10  1  0
 10 11  1  0
 11 12  1  0
 12 13  1  0
 13 14  1  0
 14 15  1  0
 15 16  1  0
 16 17  1  0
 17 18  1  0
  2 19  1  0
 19 20  2  0
 20 21  1  0
 21 22  2  0
 22 23  1  0
 23 24  2  0
 24 25  1  0
 25 26  2  0
 26 27  1  0
 27 28  2  0
 12  7  1  0
 18 13  1  0
 28 19  1  0
 27 22  1  0
  3 29  1  0
  4 30  1  0
  4 31  1  0
  8 32  1  0
  8 33  1  0
  9 34  1  0
  9 35  1  0
 10 36  1  0
 10 37  1  0
 11 38  1  0
 11 39  1  0
 12 40  1  1
 13 41  1  0
 14 42  1  0
 14 43  1  0
 15 44  1  0
 15 45  1  0
 16 46  1  0
 16 47  1  0
 17 48  1  0
 17 49  1  0
 18 50  1  0
 18 51  1  0
 20 52  1  0
 21 53  1  0
 23 54  1  0
 24 55  1  0
 25 56  1  0
 26 57  1  0
M  END
>  <smiles>  (76) 
O=C(NCC(=O)N1CCCCC1C1CCCCC1)c1ccc2ccccc2n1

>  <score_type>  (76) 
oracle

>  <origin>  (76) 
autodockgpu

>  <m_score__min__energy>  (76) 
-9.0199999999999996

>  <m_primary>  (76) 
energy

>  <rmsd>  (76) 
2.087785225170081

>  <m_score__min__rmsd>  (76) 
2.087785225170081

>  <meeko>  (76) 
{"free_energy": -8.97, "intermolecular_energy": -10.46, "internal_energy": -1.39, "cluster_size": 34, "cluster_id": 1, "rank_in_cluster": 10}

>  <energy>  (76) 
-8.67

>  <cluster_rmsd>  (76) 
1.19

>  <cluster>  (76) 
1

$$$$

     RDKit          3D

 57 60  0  0  0  0  0  0  0  0999 V2000
  141.3070   72.7230  221.8790 O   0  0  0  0  0  0  0  0  0  0  0  0
  140.2780   72.6190  222.6050 C   0  0  0  0  0  0  0  0  0  0  0  0
  139.1740   73.5440  222.3420 N   0  0  0  0  0  0  0  0  0  0  0  0
  139.4050   74.4580  221.2810 C   0  0  0  0  0  0  0  0  0  0  0  0
  140.2350   75.6200  221.4170 C   0  0  0  0  0  0  0  0  0  0  0  0
  141.1780   75.4780  222.3230 O   0  0  0  0  0  0  0  0  0  0  0  0
  140.2600   76.8880  220.7890 N   0  0  0  0  0  0  0  0  0  0  0  0
  139.2250   77.4200  219.9610 C   0  0  0  0  0  0  0  0  0  0  0  0
  139.3350   78.8370  219.5290 C   0  0  0  0  0  0  0  0  0  0  0  0
  140.7060   79.3570  219.2730 C   0  0  0  0  0  0  0  0  0  0  0  0
  141.7890   78.5090  219.8260 C   0  0  0  0  0  0  0  0  0  0  0  0
  141.4550   77.6950  221.0030 C   0  0  1  0  0  0  0  0  0  0  0  0
  141.4410   78.3170  222.3390 C   0  0  0  0  0  0  0  0  0  0  0  0
  142.5220   79.3840  222.5200 C   0  0  0  0  0  0  0  0  0  0  0  0
  142.1780   80.0920  223.8140 C   0  0  0  0  0  0  0  0  0  0  0  0
  141.0140   81.0150  223.4990 C   0  0  0  0  0  0  0  0  0  0  0  0
  139.8930   80.2200  222.9020 C   0  0  0  0  0  0  0  0  0  0  0  0
  140.1470   78.7340  222.9270 C   0  0  0  0  0  0  0  0  0  0  0  0
  140.1540   71.6390  223.6680 C   0  0  0  0  0  0  0  0  0  0  0  0
  139.5260   70.4520  223.3630 C   0  0  0  0  0  0  0  0  0  0  0  0
  139.4040   69.5220  224.3630 C   0  0  0  0  0  0  0  0  0  0  0  0
  139.8840   69.7290  225.6480 C   0  0  0  0  0  0  0  0  0  0  0  0
  139.7500   68.7780  226.6370 C   0  0  0  0  0  0  0  0  0  0  0  0
  140.2440   69.0320  227.9040 C   0  0  0  0  0  0  0  0  0  0  0  0
  140.8710   70.2520  228.1530 C   0  0  0  0  0  0  0  0  0  0  0  0
  141.0030   71.2080  227.1530 C   0  0  0  0  0  0  0  0  0  0  0  0
  140.5040   70.9420  225.8880 C   0  0  0  0  0  0  0  0  0  0  0  0
  140.6140   71.8430  224.8970 N   0  0  0  0  0  0  0  0  0  0  0  0
  138.3780   73.4060  222.9560 H   0  0  0  0  0  0  0  0  0  0  0  0
  139.8422   73.8676  220.4623 H   0  0  0  0  0  0  0  0  0  0  0  0
  138.4100   74.9114  221.1610 H   0  0  0  0  0  0  0  0  0  0  0  0
  139.1848   76.8031  219.0512 H   0  0  0  0  0  0  0  0  0  0  0  0
  138.3267   77.3957  220.5954 H   0  0  0  0  0  0  0  0  0  0  0  0
  138.7585   78.9468  218.5986 H   0  0  0  0  0  0  0  0  0  0  0  0
  138.9579   79.4263  220.3778 H   0  0  0  0  0  0  0  0  0  0  0  0
  140.8487   79.4334  218.1850 H   0  0  0  0  0  0  0  0  0  0  0  0
  140.7755   80.3305  219.7804 H   0  0  0  0  0  0  0  0  0  0  0  0
  142.1159   77.8245  219.0294 H   0  0  0  0  0  0  0  0  0  0  0  0
  142.5596   79.2138  220.1716 H   0  0  0  0  0  0  0  0  0  0  0  0
  142.3540   77.0642  221.0646 H   0  0  0  0  0  0  0  0  0  0  0  0
  141.6888   77.4400  222.9550 H   0  0  0  0  0  0  0  0  0  0  0  0
  143.5155   78.9170  222.5895 H   0  0  0  0  0  0  0  0  0  0  0  0
  142.5546   80.0807  221.6694 H   0  0  0  0  0  0  0  0  0  0  0  0
  141.8869   79.3607  224.5824 H   0  0  0  0  0  0  0  0  0  0  0  0
  143.0397   80.6541  224.2033 H   0  0  0  0  0  0  0  0  0  0  0  0
  140.6683   81.4981  224.4248 H   0  0  0  0  0  0  0  0  0  0  0  0
  141.3395   81.7842  222.7832 H   0  0  0  0  0  0  0  0  0  0  0  0
  138.9742   80.4283  223.4698 H   0  0  0  0  0  0  0  0  0  0  0  0
  139.8009   80.5207  221.8479 H   0  0  0  0  0  0  0  0  0  0  0  0
  140.1233   78.4000  223.9748 H   0  0  0  0  0  0  0  0  0  0  0  0
  139.3622   78.2744  222.3083 H   0  0  0  0  0  0  0  0  0  0  0  0
  139.1361   70.2569  222.3531 H   0  0  0  0  0  0  0  0  0  0  0  0
  138.9032   68.5692  224.1363 H   0  0  0  0  0  0  0  0  0  0  0  0
  139.2524   67.8213  226.4196 H   0  0  0  0  0  0  0  0  0  0  0  0
  140.1436   68.2826  228.7030 H   0  0  0  0  0  0  0  0  0  0  0  0
  141.2677   70.4614  229.1574 H   0  0  0  0  0  0  0  0  0  0  0  0
  141.4990   72.1669  227.3638 H   0  0  0  0  0  0  0  0  0  0  0  0
  1  2  2  0
  2  3  1  0
  3  4  1  0
  4  5  1  0
  5  6  2  0
  5  7  1  0
  7  8  1  0
  8  9  1  0
  9 10  1  0
 10 11  1  0
 11 12  1  0
 12 13  1  0
 13 14  1  0
 14 15  1  0
 15 16  1  0
 16 17  1  0
 17 18  1  0
  2 19  1  0
 19 20  2  0
 20 21  1  0
 21 22  2  0
 22 23  1  0
 23 24  2  0
 24 25  1  0
 25 26  2  0
 26 27  1  0
 27 28  2  0
 12  7  1  0
 18 13  1  0
 28 19  1  0
 27 22  1  0
  3 29  1  0
  4 30  1  0
  4 31  1  0
  8 32  1  0
  8 33  1  0
  9 34  1  0
  9 35  1  0
 10 36  1  0
 10 37  1  0
 11 38  1  0
 11 39  1  0
 12 40  1  1
 13 41  1  0
 14 42  1  0
 14 43  1  0
 15 44  1  0
 15 45  1  0
 16 46  1  0
 16 47  1  0
 17 48  1  0
 17 49  1  0
 18 50  1  0
 18 51  1  0
 20 52  1  0
 21 53  1  0
 23 54  1  0
 24 55  1  0
 25 56  1  0
 26 57  1  0
M  END
>  <smiles>  (77) 
O=C(NCC(=O)N1CCCCC1C1CCCCC1)c1ccc2ccccc2n1

>  <score_type>  (77) 
oracle

>  <origin>  (77) 
autodockgpu

>  <m_score__min__energy>  (77) 
-9.0199999999999996

>  <m_primary>  (77) 
energy

>  <rmsd>  (77) 
1.9740634276327094

>  <m_score__min__rmsd>  (77) 
1.9740634276327094

>  <meeko>  (77) 
{"free_energy": -8.96, "intermolecular_energy": -10.45, "internal_energy": -1.4, "cluster_size": 34, "cluster_id": 1, "rank_in_cluster": 11}

>  <energy>  (77) 
-8.66

>  <cluster_rmsd>  (77) 
1.2

>  <cluster>  (77) 
1

$$$$

     RDKit          3D

 57 60  0  0  0  0  0  0  0  0999 V2000
  141.5800   72.0010  221.6500 O   0  0  0  0  0  0  0  0  0  0  0  0
  140.6630   72.3350  222.4520 C   0  0  0  0  0  0  0  0  0  0  0  0
  139.9220   73.5620  222.1510 N   0  0  0  0  0  0  0  0  0  0  0  0
  140.3370   74.2320  220.9720 C   0  0  0  0  0  0  0  0  0  0  0  0
  140.4700   75.6580  220.8890 C   0  0  0  0  0  0  0  0  0  0  0  0
  141.4930   76.0390  220.1540 O   0  0  0  0  0  0  0  0  0  0  0  0
  139.7410   76.7460  221.4260 N   0  0  0  0  0  0  0  0  0  0  0  0
  138.6060   76.6360  222.2860 C   0  0  0  0  0  0  0  0  0  0  0  0
  138.0720   77.8770  222.9000 C   0  0  0  0  0  0  0  0  0  0  0  0
  138.1520   79.1200  222.0840 C   0  0  0  0  0  0  0  0  0  0  0  0
  139.0720   79.0250  220.9260 C   0  0  0  0  0  0  0  0  0  0  0  0
  140.1900   78.0790  221.0450 C   0  0  1  0  0  0  0  0  0  0  0  0
  141.3950   78.4670  221.8010 C   0  0  0  0  0  0  0  0  0  0  0  0
  141.8810   79.8810  221.4790 C   0  0  0  0  0  0  0  0  0  0  0  0
  142.9250   80.1990  222.5290 C   0  0  0  0  0  0  0  0  0  0  0  0
  142.1630   80.5180  223.8040 C   0  0  0  0  0  0  0  0  0  0  0  0
  141.2580   79.3740  224.1450 C   0  0  0  0  0  0  0  0  0  0  0  0
  141.4610   78.1760  223.2520 C   0  0  0  0  0  0  0  0  0  0  0  0
  140.3240   71.5660  223.6350 C   0  0  0  0  0  0  0  0  0  0  0  0
  139.5160   70.4640  223.4630 C   0  0  0  0  0  0  0  0  0  0  0  0
  139.1920   69.7330  224.5760 C   0  0  0  0  0  0  0  0  0  0  0  0
  139.6420   70.0570  225.8480 C   0  0  0  0  0  0  0  0  0  0  0  0
  139.3030   69.3060  226.9530 C   0  0  0  0  0  0  0  0  0  0  0  0
  139.7760   69.6690  228.2010 C   0  0  0  0  0  0  0  0  0  0  0  0
  140.5910   70.7950  228.3130 C   0  0  0  0  0  0  0  0  0  0  0  0
  140.9300   71.5500  227.1970 C   0  0  0  0  0  0  0  0  0  0  0  0
  140.4500   71.1740  225.9520 C   0  0  0  0  0  0  0  0  0  0  0  0
  140.7570   71.8800  224.8500 N   0  0  0  0  0  0  0  0  0  0  0  0
  139.1960   73.7710  222.8300 H   0  0  0  0  0  0  0  0  0  0  0  0
  141.3259   73.8204  220.7218 H   0  0  0  0  0  0  0  0  0  0  0  0
  139.4818   74.0517  220.3041 H   0  0  0  0  0  0  0  0  0  0  0  0
  137.7926   76.1864  221.6976 H   0  0  0  0  0  0  0  0  0  0  0  0
  138.9652   76.0411  223.1387 H   0  0  0  0  0  0  0  0  0  0  0  0
  137.0120   77.7017  223.1358 H   0  0  0  0  0  0  0  0  0  0  0  0
  138.7145   78.0648  223.7729 H   0  0  0  0  0  0  0  0  0  0  0  0
  137.1448   79.3513  221.7070 H   0  0  0  0  0  0  0  0  0  0  0  0
  138.5501   79.9065  222.7420 H   0  0  0  0  0  0  0  0  0  0  0  0
  138.4759   78.7275  220.0507 H   0  0  0  0  0  0  0  0  0  0  0  0
  139.5409   80.0170  220.8483 H   0  0  0  0  0  0  0  0  0  0  0  0
  140.5655   78.0906  220.0111 H   0  0  0  0  0  0  0  0  0  0  0  0
  142.1108   77.7355  221.3978 H   0  0  0  0  0  0  0  0  0  0  0  0
  142.3247   79.9152  220.4730 H   0  0  0  0  0  0  0  0  0  0  0  0
  141.0560   80.6085  221.4904 H   0  0  0  0  0  0  0  0  0  0  0  0
  143.5840   79.3323  222.6857 H   0  0  0  0  0  0  0  0  0  0  0  0
  143.5591   81.0431  222.2200 H   0  0  0  0  0  0  0  0  0  0  0  0
  142.8756   80.6794  224.6263 H   0  0  0  0  0  0  0  0  0  0  0  0
  141.5631   81.4278  223.6544 H   0  0  0  0  0  0  0  0  0  0  0  0
  141.4507   79.0726  225.1852 H   0  0  0  0  0  0  0  0  0  0  0  0
  140.2233   79.7191  224.0026 H   0  0  0  0  0  0  0  0  0  0  0  0
  142.4508   77.7492  223.4711 H   0  0  0  0  0  0  0  0  0  0  0  0
  140.6337   77.4839  223.4679 H   0  0  0  0  0  0  0  0  0  0  0  0
  139.1439   70.1806  222.4674 H   0  0  0  0  0  0  0  0  0  0  0  0
  138.5467   68.8504  224.4557 H   0  0  0  0  0  0  0  0  0  0  0  0
  138.6587   68.4213  226.8427 H   0  0  0  0  0  0  0  0  0  0  0  0
  139.5134   69.0787  229.0913 H   0  0  0  0  0  0  0  0  0  0  0  0
  140.9720   71.0905  229.3017 H   0  0  0  0  0  0  0  0  0  0  0  0
  141.5725   72.4368  227.3003 H   0  0  0  0  0  0  0  0  0  0  0  0
  1  2  2  0
  2  3  1  0
  3  4  1  0
  4  5  1  0
  5  6  2  0
  5  7  1  0
  7  8  1  0
  8  9  1  0
  9 10  1  0
 10 11  1  0
 11 12  1  0
 12 13  1  0
 13 14  1  0
 14 15  1  0
 15 16  1  0
 16 17  1  0
 17 18  1  0
  2 19  1  0
 19 20  2  0
 20 21  1  0
 21 22  2  0
 22 23  1  0
 23 24  2  0
 24 25  1  0
 25 26  2  0
 26 27  1  0
 27 28  2  0
 12  7  1  0
 18 13  1  0
 28 19  1  0
 27 22  1  0
  3 29  1  0
  4 30  1  0
  4 31  1  0
  8 32  1  0
  8 33  1  0
  9 34  1  0
  9 35  1  0
 10 36  1  0
 10 37  1  0
 11 38  1  0
 11 39  1  0
 12 40  1  6
 13 41  1  0
 14 42  1  0
 14 43  1  0
 15 44  1  0
 15 45  1  0
 16 46  1  0
 16 47  1  0
 17 48  1  0
 17 49  1  0
 18 50  1  0
 18 51  1  0
 20 52  1  0
 21 53  1  0
 23 54  1  0
 24 55  1  0
 25 56  1  0
 26 57  1  0
M  END
>  <smiles>  (78) 
O=C(NCC(=O)N1CCCCC1C1CCCCC1)c1ccc2ccccc2n1

>  <score_type>  (78) 
oracle

>  <origin>  (78) 
autodockgpu

>  <m_score__min__energy>  (78) 
-9.0199999999999996

>  <m_primary>  (78) 
energy

>  <rmsd>  (78) 
2.9334334640044406

>  <m_score__min__rmsd>  (78) 
2.9334334640044406

>  <meeko>  (78) 
{"free_energy": -8.78, "intermolecular_energy": -10.27, "internal_energy": -1.44, "cluster_size": 34, "cluster_id": 1, "rank_in_cluster": 24}

>  <energy>  (78) 
-8.57

>  <cluster_rmsd>  (78) 
1.43

>  <cluster>  (78) 
1

$$$$

     RDKit          3D

 57 60  0  0  0  0  0  0  0  0999 V2000
  139.7920   71.4970  221.2760 O   0  0  0  0  0  0  0  0  0  0  0  0
  139.7600   72.0510  222.4110 C   0  0  0  0  0  0  0  0  0  0  0  0
  139.5720   73.5030  222.4440 N   0  0  0  0  0  0  0  0  0  0  0  0
  139.4450   74.1140  221.1710 C   0  0  0  0  0  0  0  0  0  0  0  0
  139.5540   75.5300  220.9690 C   0  0  0  0  0  0  0  0  0  0  0  0
  138.7140   76.2230  221.7080 O   0  0  0  0  0  0  0  0  0  0  0  0
  140.3670   76.3470  220.1480 N   0  0  0  0  0  0  0  0  0  0  0  0
  140.1790   76.5580  218.7480 C   0  0  0  0  0  0  0  0  0  0  0  0
  141.0170   77.5850  218.0780 C   0  0  0  0  0  0  0  0  0  0  0  0
  142.4080   77.7500  218.5800 C   0  0  0  0  0  0  0  0  0  0  0  0
  142.6530   77.1280  219.9030 C   0  0  0  0  0  0  0  0  0  0  0  0
  141.4950   77.0040  220.7980 C   0  0  1  0  0  0  0  0  0  0  0  0
  141.0470   78.1720  221.5790 C   0  0  0  0  0  0  0  0  0  0  0  0
  141.1580   77.9670  223.0900 C   0  0  0  0  0  0  0  0  0  0  0  0
  140.9340   79.3340  223.7010 C   0  0  0  0  0  0  0  0  0  0  0  0
  142.2220   80.1100  223.4940 C   0  0  0  0  0  0  0  0  0  0  0  0
  142.5700   80.1240  222.0370 C   0  0  0  0  0  0  0  0  0  0  0  0
  141.4910   79.5250  221.1690 C   0  0  0  0  0  0  0  0  0  0  0  0
  139.9010   71.3190  223.6560 C   0  0  0  0  0  0  0  0  0  0  0  0
  139.5560   69.9850  223.6480 C   0  0  0  0  0  0  0  0  0  0  0  0
  139.6860   69.2870  224.8200 C   0  0  0  0  0  0  0  0  0  0  0  0
  140.1460   69.8650  225.9940 C   0  0  0  0  0  0  0  0  0  0  0  0
  140.2690   69.1430  227.1620 C   0  0  0  0  0  0  0  0  0  0  0  0
  140.7310   69.7640  228.3080 C   0  0  0  0  0  0  0  0  0  0  0  0
  141.0650   71.1170  228.2560 C   0  0  0  0  0  0  0  0  0  0  0  0
  140.9390   71.8420  227.0770 C   0  0  0  0  0  0  0  0  0  0  0  0
  140.4750   71.2070  225.9350 C   0  0  0  0  0  0  0  0  0  0  0  0
  140.3410   71.8760  224.7770 N   0  0  0  0  0  0  0  0  0  0  0  0
  139.5510   73.8850  223.3850 H   0  0  0  0  0  0  0  0  0  0  0  0
  140.2193   73.6571  220.5371 H   0  0  0  0  0  0  0  0  0  0  0  0
  138.3813   73.9417  220.9498 H   0  0  0  0  0  0  0  0  0  0  0  0
  140.3716   75.5993  218.2441 H   0  0  0  0  0  0  0  0  0  0  0  0
  139.1525   76.9443  218.6642 H   0  0  0  0  0  0  0  0  0  0  0  0
  141.0774   77.3209  217.0119 H   0  0  0  0  0  0  0  0  0  0  0  0
  140.5200   78.5434  218.2891 H   0  0  0  0  0  0  0  0  0  0  0  0
  143.0943   77.2936  217.8515 H   0  0  0  0  0  0  0  0  0  0  0  0
  142.5744   78.8304  218.7024 H   0  0  0  0  0  0  0  0  0  0  0  0
  143.0487   76.1167  219.7278 H   0  0  0  0  0  0  0  0  0  0  0  0
  143.3456   77.8092  220.4190 H   0  0  0  0  0  0  0  0  0  0  0  0
  141.9270   76.3671  221.5839 H   0  0  0  0  0  0  0  0  0  0  0  0
  139.9850   78.1925  221.2930 H   0  0  0  0  0  0  0  0  0  0  0  0
  140.3916   77.2595  223.4393 H   0  0  0  0  0  0  0  0  0  0  0  0
  142.1344   77.5478  223.3744 H   0  0  0  0  0  0  0  0  0  0  0  0
  140.0979   79.8430  223.1992 H   0  0  0  0  0  0  0  0  0  0  0  0
  140.6806   79.2578  224.7687 H   0  0  0  0  0  0  0  0  0  0  0  0
  142.0886   81.1427  223.8487 H   0  0  0  0  0  0  0  0  0  0  0  0
  143.0338   79.6291  224.0595 H   0  0  0  0  0  0  0  0  0  0  0  0
  142.7328   81.1662  221.7252 H   0  0  0  0  0  0  0  0  0  0  0  0
  143.4747   79.5116  221.9082 H   0  0  0  0  0  0  0  0  0  0  0  0
  140.6187   80.1946  221.1955 H   0  0  0  0  0  0  0  0  0  0  0  0
  141.9242   79.4186  220.1635 H   0  0  0  0  0  0  0  0  0  0  0  0
  139.1891   69.4974  222.7328 H   0  0  0  0  0  0  0  0  0  0  0  0
  139.4136   68.2213  224.8303 H   0  0  0  0  0  0  0  0  0  0  0  0
  140.0005   68.0765  227.1823 H   0  0  0  0  0  0  0  0  0  0  0  0
  140.8335   69.1993  229.2464 H   0  0  0  0  0  0  0  0  0  0  0  0
  141.4341   71.6185  229.1628 H   0  0  0  0  0  0  0  0  0  0  0  0
  141.2047   72.9091  227.0501 H   0  0  0  0  0  0  0  0  0  0  0  0
  1  2  2  0
  2  3  1  0
  3  4  1  0
  4  5  1  0
  5  6  2  0
  5  7  1  0
  7  8  1  0
  8  9  1  0
  9 10  1  0
 10 11  1  0
 11 12  1  0
 12 13  1  0
 13 14  1  0
 14 15  1  0
 15 16  1  0
 16 17  1  0
 17 18  1  0
  2 19  1  0
 19 20  2  0
 20 21  1  0
 21 22  2  0
 22 23  1  0
 23 24  2  0
 24 25  1  0
 25 26  2  0
 26 27  1  0
 27 28  2  0
 12  7  1  0
 18 13  1  0
 28 19  1  0
 27 22  1  0
  3 29  1  0
  4 30  1  0
  4 31  1  0
  8 32  1  0
  8 33  1  0
  9 34  1  0
  9 35  1  0
 10 36  1  0
 10 37  1  0
 11 38  1  0
 11 39  1  0
 12 40  1  1
 13 41  1  0
 14 42  1  0
 14 43  1  0
 15 44  1  0
 15 45  1  0
 16 46  1  0
 16 47  1  0
 17 48  1  0
 17 49  1  0
 18 50  1  0
 18 51  1  0
 20 52  1  0
 21 53  1  0
 23 54  1  0
 24 55  1  0
 25 56  1  0
 26 57  1  0
M  END
>  <smiles>  (79) 
O=C(NCC(=O)N1CCCCC1C1CCCCC1)c1ccc2ccccc2n1

>  <score_type>  (79) 
oracle

>  <origin>  (79) 
autodockgpu

>  <m_score__min__energy>  (79) 
-9.0199999999999996

>  <m_primary>  (79) 
energy

>  <rmsd>  (79) 
1.5850778431151176

>  <m_score__min__rmsd>  (79) 
1.5850778431151176

>  <meeko>  (79) 
{"free_energy": -8.57, "intermolecular_energy": -10.06, "internal_energy": -1.56, "cluster_size": 34, "cluster_id": 1, "rank_in_cluster": 28}

>  <energy>  (79) 
-8.49

>  <cluster_rmsd>  (79) 
0.77

>  <cluster>  (79) 
1

$$$$

     RDKit          3D

 57 60  0  0  0  0  0  0  0  0999 V2000
  141.2800   72.0840  221.6900 O   0  0  0  0  0  0  0  0  0  0  0  0
  140.3760   72.2730  222.5520 C   0  0  0  0  0  0  0  0  0  0  0  0
  139.4600   73.3940  222.3290 N   0  0  0  0  0  0  0  0  0  0  0  0
  139.7100   74.1390  221.1490 C   0  0  0  0  0  0  0  0  0  0  0  0
  140.8830   74.9440  220.9660 C   0  0  0  0  0  0  0  0  0  0  0  0
  141.2380   75.5930  222.0540 O   0  0  0  0  0  0  0  0  0  0  0  0
  141.7430   75.1920  219.8700 N   0  0  0  0  0  0  0  0  0  0  0  0
  142.3010   76.4620  219.5290 C   0  0  0  0  0  0  0  0  0  0  0  0
  143.3250   76.5100  218.4540 C   0  0  0  0  0  0  0  0  0  0  0  0
  143.1670   75.5460  217.3320 C   0  0  0  0  0  0  0  0  0  0  0  0
  142.2240   74.4370  217.6130 C   0  0  0  0  0  0  0  0  0  0  0  0
  142.0610   74.0500  219.0220 C   0  0  1  0  0  0  0  0  0  0  0  0
  143.0660   73.1810  219.6600 C   0  0  0  0  0  0  0  0  0  0  0  0
  143.9790   72.4750  218.6570 C   0  0  0  0  0  0  0  0  0  0  0  0
  145.0970   71.8710  219.4810 C   0  0  0  0  0  0  0  0  0  0  0  0
  146.0240   73.0170  219.8470 C   0  0  0  0  0  0  0  0  0  0  0  0
  145.2430   74.0910  220.5400 C   0  0  0  0  0  0  0  0  0  0  0  0
  143.8180   73.6890  220.8310 C   0  0  0  0  0  0  0  0  0  0  0  0
  140.2150   71.4400  223.7290 C   0  0  0  0  0  0  0  0  0  0  0  0
  139.5530   70.2420  223.5700 C   0  0  0  0  0  0  0  0  0  0  0  0
  139.3960   69.4500  224.6780 C   0  0  0  0  0  0  0  0  0  0  0  0
  139.8750   69.8040  225.9310 C   0  0  0  0  0  0  0  0  0  0  0  0
  139.7060   68.9900  227.0310 C   0  0  0  0  0  0  0  0  0  0  0  0
  140.2000   69.3870  228.2600 C   0  0  0  0  0  0  0  0  0  0  0  0
  140.8620   70.6100  228.3600 C   0  0  0  0  0  0  0  0  0  0  0  0
  141.0300   71.4280  227.2480 C   0  0  0  0  0  0  0  0  0  0  0  0
  140.5300   71.0180  226.0220 C   0  0  0  0  0  0  0  0  0  0  0  0
  140.6740   71.7830  224.9260 N   0  0  0  0  0  0  0  0  0  0  0  0
  138.7550   73.4880  223.0540 H   0  0  0  0  0  0  0  0  0  0  0  0
  139.7115   73.4100  220.3252 H   0  0  0  0  0  0  0  0  0  0  0  0
  138.9235   74.9062  221.2030 H   0  0  0  0  0  0  0  0  0  0  0  0
  141.4694   77.1111  219.2173 H   0  0  0  0  0  0  0  0  0  0  0  0
  142.8401   76.7763  220.4349 H   0  0  0  0  0  0  0  0  0  0  0  0
  143.3108   77.5233  218.0263 H   0  0  0  0  0  0  0  0  0  0  0  0
  144.2690   76.2287  218.9437 H   0  0  0  0  0  0  0  0  0  0  0  0
  142.8004   76.0965  216.4530 H   0  0  0  0  0  0  0  0  0  0  0  0
  144.1535   75.0884  217.1666 H   0  0  0  0  0  0  0  0  0  0  0  0
  141.2358   74.7353  217.2328 H   0  0  0  0  0  0  0  0  0  0  0  0
  142.6591   73.5554  217.1195 H   0  0  0  0  0  0  0  0  0  0  0  0
  141.2027   73.3672  218.9378 H   0  0  0  0  0  0  0  0  0  0  0  0
  142.4012   72.4408  220.1292 H   0  0  0  0  0  0  0  0  0  0  0  0
  143.4269   71.6877  218.1229 H   0  0  0  0  0  0  0  0  0  0  0  0
  144.3633   73.1702  217.8961 H   0  0  0  0  0  0  0  0  0  0  0  0
  144.6906   71.4046  220.3905 H   0  0  0  0  0  0  0  0  0  0  0  0
  145.6299   71.0894  218.9197 H   0  0  0  0  0  0  0  0  0  0  0  0
  146.8149   72.6488  220.5170 H   0  0  0  0  0  0  0  0  0  0  0  0
  146.4782   73.4267  218.9328 H   0  0  0  0  0  0  0  0  0  0  0  0
  145.7415   74.3286  221.4914 H   0  0  0  0  0  0  0  0  0  0  0  0
  145.2088   74.9599  219.8663 H   0  0  0  0  0  0  0  0  0  0  0  0
  143.8344   72.8992  221.5964 H   0  0  0  0  0  0  0  0  0  0  0  0
  143.2994   74.6012  221.1610 H   0  0  0  0  0  0  0  0  0  0  0  0
  139.1642   69.9321  222.5888 H   0  0  0  0  0  0  0  0  0  0  0  0
  138.8670   68.4918  224.5687 H   0  0  0  0  0  0  0  0  0  0  0  0
  139.1804   68.0288  226.9313 H   0  0  0  0  0  0  0  0  0  0  0  0
  140.0726   68.7473  229.1458 H   0  0  0  0  0  0  0  0  0  0  0  0
  141.2578   70.9330  229.3342 H   0  0  0  0  0  0  0  0  0  0  0  0
  141.5543   72.3906  227.3404 H   0  0  0  0  0  0  0  0  0  0  0  0
  1  2  2  0
  2  3  1  0
  3  4  1  0
  4  5  1  0
  5  6  2  0
  5  7  1  0
  7  8  1  0
  8  9  1  0
  9 10  1  0
 10 11  1  0
 11 12  1  0
 12 13  1  0
 13 14  1  0
 14 15  1  0
 15 16  1  0
 16 17  1  0
 17 18  1  0
  2 19  1  0
 19 20  2  0
 20 21  1  0
 21 22  2  0
 22 23  1  0
 23 24  2  0
 24 25  1  0
 25 26  2  0
 26 27  1  0
 27 28  2  0
 12  7  1  0
 18 13  1  0
 28 19  1  0
 27 22  1  0
  3 29  1  0
  4 30  1  0
  4 31  1  0
  8 32  1  0
  8 33  1  0
  9 34  1  0
  9 35  1  0
 10 36  1  0
 10 37  1  0
 11 38  1  0
 11 39  1  0
 12 40  1  6
 13 41  1  0
 14 42  1  0
 14 43  1  0
 15 44  1  0
 15 45  1  0
 16 46  1  0
 16 47  1  0
 17 48  1  0
 17 49  1  0
 18 50  1  0
 18 51  1  0
 20 52  1  0
 21 53  1  0
 23 54  1  0
 24 55  1  0
 25 56  1  0
 26 57  1  0
M  END
>  <smiles>  (80) 
O=C(NCC(=O)N1CCCCC1C1CCCCC1)c1ccc2ccccc2n1

>  <score_type>  (80) 
oracle

>  <origin>  (80) 
autodockgpu

>  <m_score__min__energy>  (80) 
-9.0199999999999996

>  <m_primary>  (80) 
energy

>  <rmsd>  (80) 
2.359455658691172

>  <m_score__min__rmsd>  (80) 
2.359455658691172

>  <meeko>  (80) 
{"free_energy": -8.3, "intermolecular_energy": -9.79, "internal_energy": -1.84, "cluster_size": 6, "cluster_id": 3, "rank_in_cluster": 3}

>  <energy>  (80) 
-8.43

>  <cluster_rmsd>  (80) 
1.68

>  <cluster>  (80) 
1

$$$$

     RDKit          3D

 57 60  0  0  0  0  0  0  0  0999 V2000
  141.1910   71.8530  221.4690 O   0  0  0  0  0  0  0  0  0  0  0  0
  140.5140   72.2790  222.4470 C   0  0  0  0  0  0  0  0  0  0  0  0
  139.9440   73.6230  222.3350 N   0  0  0  0  0  0  0  0  0  0  0  0
  140.2320   74.2900  221.1170 C   0  0  0  0  0  0  0  0  0  0  0  0
  140.4720   75.7020  221.0360 C   0  0  0  0  0  0  0  0  0  0  0  0
  141.6120   76.0000  220.4530 O   0  0  0  0  0  0  0  0  0  0  0  0
  139.7480   76.8470  221.4480 N   0  0  0  0  0  0  0  0  0  0  0  0
  138.5620   76.8320  222.2450 C   0  0  0  0  0  0  0  0  0  0  0  0
  138.0330   78.1300  222.7340 C   0  0  0  0  0  0  0  0  0  0  0  0
  138.2000   79.3060  221.8360 C   0  0  0  0  0  0  0  0  0  0  0  0
  139.1810   79.1000  220.7440 C   0  0  0  0  0  0  0  0  0  0  0  0
  140.2600   78.1350  220.9990 C   0  0  1  0  0  0  0  0  0  0  0  0
  141.4320   78.5450  221.7950 C   0  0  0  0  0  0  0  0  0  0  0  0
  141.8890   79.9750  221.5040 C   0  0  0  0  0  0  0  0  0  0  0  0
  142.8920   80.3080  222.5890 C   0  0  0  0  0  0  0  0  0  0  0  0
  142.0840   80.5890  223.8450 C   0  0  0  0  0  0  0  0  0  0  0  0
  141.2010   79.4180  224.1450 C   0  0  0  0  0  0  0  0  0  0  0  0
  141.4620   78.2370  223.2430 C   0  0  0  0  0  0  0  0  0  0  0  0
  140.2840   71.5020  223.6510 C   0  0  0  0  0  0  0  0  0  0  0  0
  139.6210   70.3020  223.5130 C   0  0  0  0  0  0  0  0  0  0  0  0
  139.4000   69.5640  224.6460 C   0  0  0  0  0  0  0  0  0  0  0  0
  139.8150   69.9730  225.9050 C   0  0  0  0  0  0  0  0  0  0  0  0
  139.5820   69.2120  227.0310 C   0  0  0  0  0  0  0  0  0  0  0  0
  140.0140   69.6620  228.2650 C   0  0  0  0  0  0  0  0  0  0  0  0
  140.6800   70.8850  228.3430 C   0  0  0  0  0  0  0  0  0  0  0  0
  140.9130   71.6490  227.2060 C   0  0  0  0  0  0  0  0  0  0  0  0
  140.4750   71.1860  225.9750 C   0  0  0  0  0  0  0  0  0  0  0  0
  140.6820   71.8980  224.8540 N   0  0  0  0  0  0  0  0  0  0  0  0
  139.4080   73.9030  223.1510 H   0  0  0  0  0  0  0  0  0  0  0  0
  141.1332   73.8060  220.7125 H   0  0  0  0  0  0  0  0  0  0  0  0
  139.2733   74.1995  220.5852 H   0  0  0  0  0  0  0  0  0  0  0  0
  137.7700   76.3620  221.6435 H   0  0  0  0  0  0  0  0  0  0  0  0
  138.8525   76.2926  223.1586 H   0  0  0  0  0  0  0  0  0  0  0  0
  136.9560   78.0021  222.9175 H   0  0  0  0  0  0  0  0  0  0  0  0
  138.6293   78.3645  223.6281 H   0  0  0  0  0  0  0  0  0  0  0  0
  137.2240   79.5369  221.3843 H   0  0  0  0  0  0  0  0  0  0  0  0
  138.5858   80.1273  222.4578 H   0  0  0  0  0  0  0  0  0  0  0  0
  138.6268   78.7541  219.8590 H   0  0  0  0  0  0  0  0  0  0  0  0
  139.6843   80.0703  220.6208 H   0  0  0  0  0  0  0  0  0  0  0  0
  140.6946   78.0596  219.9913 H   0  0  0  0  0  0  0  0  0  0  0  0
  142.1798   77.8387  221.4051 H   0  0  0  0  0  0  0  0  0  0  0  0
  142.3617   80.0332  220.5125 H   0  0  0  0  0  0  0  0  0  0  0  0
  141.0447   80.6801  221.4984 H   0  0  0  0  0  0  0  0  0  0  0  0
  143.5702   79.4580  222.7546 H   0  0  0  0  0  0  0  0  0  0  0  0
  143.5107   81.1735  222.3096 H   0  0  0  0  0  0  0  0  0  0  0  0
  142.7675   80.7584  224.6900 H   0  0  0  0  0  0  0  0  0  0  0  0
  141.4640   81.4841  223.6886 H   0  0  0  0  0  0  0  0  0  0  0  0
  141.3715   79.1081  225.1866 H   0  0  0  0  0  0  0  0  0  0  0  0
  140.1620   79.7375  223.9767 H   0  0  0  0  0  0  0  0  0  0  0  0
  142.4556   77.8329  223.4867 H   0  0  0  0  0  0  0  0  0  0  0  0
  140.6468   77.5213  223.4250 H   0  0  0  0  0  0  0  0  0  0  0  0
  139.2812   69.9491  222.5281 H   0  0  0  0  0  0  0  0  0  0  0  0
  138.8700   68.6046  224.5532 H   0  0  0  0  0  0  0  0  0  0  0  0
  139.0544   68.2504  226.9479 H   0  0  0  0  0  0  0  0  0  0  0  0
  139.8352   69.0647  229.1712 H   0  0  0  0  0  0  0  0  0  0  0  0
  141.0265   71.2508  229.3208 H   0  0  0  0  0  0  0  0  0  0  0  0
  141.4398   72.6117  227.2820 H   0  0  0  0  0  0  0  0  0  0  0  0
  1  2  2  0
  2  3  1  0
  3  4  1  0
  4  5  1  0
  5  6  2  0
  5  7  1  0
  7  8  1  0
  8  9  1  0
  9 10  1  0
 10 11  1  0
 11 12  1  0
 12 13  1  0
 13 14  1  0
 14 15  1  0
 15 16  1  0
 16 17  1  0
 17 18  1  0
  2 19  1  0
 19 20  2  0
 20 21  1  0
 21 22  2  0
 22 23  1  0
 23 24  2  0
 24 25  1  0
 25 26  2  0
 26 27  1  0
 27 28  2  0
 12  7  1  0
 18 13  1  0
 28 19  1  0
 27 22  1  0
  3 29  1  0
  4 30  1  0
  4 31  1  0
  8 32  1  0
  8 33  1  0
  9 34  1  0
  9 35  1  0
 10 36  1  0
 10 37  1  0
 11 38  1  0
 11 39  1  0
 12 40  1  6
 13 41  1  0
 14 42  1  0
 14 43  1  0
 15 44  1  0
 15 45  1  0
 16 46  1  0
 16 47  1  0
 17 48  1  0
 17 49  1  0
 18 50  1  0
 18 51  1  0
 20 52  1  0
 21 53  1  0
 23 54  1  0
 24 55  1  0
 25 56  1  0
 26 57  1  0
M  END
>  <smiles>  (81) 
O=C(NCC(=O)N1CCCCC1C1CCCCC1)c1ccc2ccccc2n1

>  <score_type>  (81) 
oracle

>  <origin>  (81) 
autodockgpu

>  <m_score__min__energy>  (81) 
-9.0199999999999996

>  <m_primary>  (81) 
energy

>  <rmsd>  (81) 
2.867874410944484

>  <m_score__min__rmsd>  (81) 
2.867874410944484

>  <meeko>  (81) 
{"free_energy": -8.93, "intermolecular_energy": -10.42, "internal_energy": -1.45, "cluster_size": 34, "cluster_id": 1, "rank_in_cluster": 14}

>  <energy>  (81) 
-8.4

>  <cluster_rmsd>  (81) 
1.71

>  <cluster>  (81) 
1

$$$$

     RDKit          3D

 57 60  0  0  0  0  0  0  0  0999 V2000
  139.2440   74.5550  222.3130 O   0  0  0  0  0  0  0  0  0  0  0  0
  140.3110   74.8900  221.7260 C   0  0  0  0  0  0  0  0  0  0  0  0
  141.0770   73.8300  221.0680 N   0  0  0  0  0  0  0  0  0  0  0  0
  140.5100   72.5340  221.1760 C   0  0  0  0  0  0  0  0  0  0  0  0
  140.2310   71.9050  222.4340 C   0  0  0  0  0  0  0  0  0  0  0  0
  140.7050   72.5750  223.4630 O   0  0  0  0  0  0  0  0  0  0  0  0
  139.5580   70.7190  222.8120 N   0  0  0  0  0  0  0  0  0  0  0  0
  139.3520   69.5820  221.9710 C   0  0  0  0  0  0  0  0  0  0  0  0
  138.7830   68.3550  222.5830 C   0  0  0  0  0  0  0  0  0  0  0  0
  137.7900   68.5460  223.6750 C   0  0  0  0  0  0  0  0  0  0  0  0
  137.7710   69.9140  224.2450 C   0  0  0  0  0  0  0  0  0  0  0  0
  139.0230   70.6790  224.1670 C   0  0  1  0  0  0  0  0  0  0  0  0
  140.0930   70.4280  225.1510 C   0  0  0  0  0  0  0  0  0  0  0  0
  140.1900   71.5090  226.2270 C   0  0  0  0  0  0  0  0  0  0  0  0
  141.1240   70.9500  227.2800 C   0  0  0  0  0  0  0  0  0  0  0  0
  140.3180   69.9320  228.0680 C   0  0  0  0  0  0  0  0  0  0  0  0
  139.7470   68.9120  227.1310 C   0  0  0  0  0  0  0  0  0  0  0  0
  140.2470   69.0670  225.7160 C   0  0  0  0  0  0  0  0  0  0  0  0
  140.7950   76.2570  221.6810 C   0  0  0  0  0  0  0  0  0  0  0  0
  141.1120   76.7760  220.4450 C   0  0  0  0  0  0  0  0  0  0  0  0
  141.5710   78.0660  220.3940 C   0  0  0  0  0  0  0  0  0  0  0  0
  141.7230   78.8560  221.5250 C   0  0  0  0  0  0  0  0  0  0  0  0
  142.1860   80.1530  221.4490 C   0  0  0  0  0  0  0  0  0  0  0  0
  142.3220   80.9010  222.6040 C   0  0  0  0  0  0  0  0  0  0  0  0
  141.9850   80.3220  223.8280 C   0  0  0  0  0  0  0  0  0  0  0  0
  141.5190   79.0150  223.8990 C   0  0  0  0  0  0  0  0  0  0  0  0
  141.3870   78.2760  222.7340 C   0  0  0  0  0  0  0  0  0  0  0  0
  140.9400   77.0090  222.7650 N   0  0  0  0  0  0  0  0  0  0  0  0
  141.9190   74.1660  220.6110 H   0  0  0  0  0  0  0  0  0  0  0  0
  139.5505   72.5776  220.6398 H   0  0  0  0  0  0  0  0  0  0  0  0
  141.3263   71.9045  220.7921 H   0  0  0  0  0  0  0  0  0  0  0  0
  138.6708   69.8911  221.1645 H   0  0  0  0  0  0  0  0  0  0  0  0
  140.3638   69.2873  221.6557 H   0  0  0  0  0  0  0  0  0  0  0  0
  138.2913   67.7819  221.7831 H   0  0  0  0  0  0  0  0  0  0  0  0
  139.6367   67.8483  223.0568 H   0  0  0  0  0  0  0  0  0  0  0  0
  136.7896   68.3250  223.2744 H   0  0  0  0  0  0  0  0  0  0  0  0
  138.0814   67.8674  224.4902 H   0  0  0  0  0  0  0  0  0  0  0  0
  136.9971   70.4862  223.7124 H   0  0  0  0  0  0  0  0  0  0  0  0
  137.5828   69.7766  225.3200 H   0  0  0  0  0  0  0  0  0  0  0  0
  138.6638   71.6704  224.4803 H   0  0  0  0  0  0  0  0  0  0  0  0
  140.9716   70.4927  224.4923 H   0  0  0  0  0  0  0  0  0  0  0  0
  140.6003   72.4374  225.8032 H   0  0  0  0  0  0  0  0  0  0  0  0
  139.2037   71.7565  226.6466 H   0  0  0  0  0  0  0  0  0  0  0  0
  141.9885   70.4648  226.8033 H   0  0  0  0  0  0  0  0  0  0  0  0
  141.5114   71.7455  227.9335 H   0  0  0  0  0  0  0  0  0  0  0  0
  140.9718   69.4331  228.7986 H   0  0  0  0  0  0  0  0  0  0  0  0
  139.4994   70.4427  228.5963 H   0  0  0  0  0  0  0  0  0  0  0  0
  140.0228   67.9104  227.4926 H   0  0  0  0  0  0  0  0  0  0  0  0
  138.6566   69.0557  227.1125 H   0  0  0  0  0  0  0  0  0  0  0  0
  141.3160   68.8082  225.7000 H   0  0  0  0  0  0  0  0  0  0  0  0
  139.6313   68.4007  225.0940 H   0  0  0  0  0  0  0  0  0  0  0  0
  141.0005   76.1754  219.5303 H   0  0  0  0  0  0  0  0  0  0  0  0
  141.8302   78.4940  219.4144 H   0  0  0  0  0  0  0  0  0  0  0  0
  142.4459   80.5905  220.4738 H   0  0  0  0  0  0  0  0  0  0  0  0
  142.6902   81.9366  222.5586 H   0  0  0  0  0  0  0  0  0  0  0  0
  142.0900   80.9099  224.7518 H   0  0  0  0  0  0  0  0  0  0  0  0
  141.2573   78.5709  224.8708 H   0  0  0  0  0  0  0  0  0  0  0  0
  1  2  2  0
  2  3  1  0
  3  4  1  0
  4  5  1  0
  5  6  2  0
  5  7  1  0
  7  8  1  0
  8  9  1  0
  9 10  1  0
 10 11  1  0
 11 12  1  0
 12 13  1  0
 13 14  1  0
 14 15  1  0
 15 16  1  0
 16 17  1  0
 17 18  1  0
  2 19  1  0
 19 20  2  0
 20 21  1  0
 21 22  2  0
 22 23  1  0
 23 24  2  0
 24 25  1  0
 25 26  2  0
 26 27  1  0
 27 28  2  0
 12  7  1  0
 18 13  1  0
 28 19  1  0
 27 22  1  0
  3 29  1  0
  4 30  1  0
  4 31  1  0
  8 32  1  0
  8 33  1  0
  9 34  1  0
  9 35  1  0
 10 36  1  0
 10 37  1  0
 11 38  1  0
 11 39  1  0
 12 40  1  1
 13 41  1  0
 14 42  1  0
 14 43  1  0
 15 44  1  0
 15 45  1  0
 16 46  1  0
 16 47  1  0
 17 48  1  0
 17 49  1  0
 18 50  1  0
 18 51  1  0
 20 52  1  0
 21 53  1  0
 23 54  1  0
 24 55  1  0
 25 56  1  0
 26 57  1  0
M  END
>  <smiles>  (82) 
O=C(NCC(=O)N1CCCCC1C1CCCCC1)c1ccc2ccccc2n1

>  <score_type>  (82) 
oracle

>  <origin>  (82) 
autodockgpu

>  <m_score__min__energy>  (82) 
-9.0199999999999996

>  <m_primary>  (82) 
energy

>  <rmsd>  (82) 
8.33842912210231

>  <m_score__min__rmsd>  (82) 
8.33842912210231

>  <meeko>  (82) 
{"free_energy": -8.83, "intermolecular_energy": -10.33, "internal_energy": -1.23, "cluster_size": 3, "cluster_id": 2, "rank_in_cluster": 1}

>  <energy>  (82) 
-8.21

>  <cluster_rmsd>  (82) 
0.9

>  <cluster>  (82) 
1

$$$$

     RDKit          3D

 57 60  0  0  0  0  0  0  0  0999 V2000
  141.1530   71.8690  221.4250 O   0  0  0  0  0  0  0  0  0  0  0  0
  140.4740   72.2800  222.4080 C   0  0  0  0  0  0  0  0  0  0  0  0
  139.8660   73.6080  222.2960 N   0  0  0  0  0  0  0  0  0  0  0  0
  140.1220   74.2760  221.0710 C   0  0  0  0  0  0  0  0  0  0  0  0
  140.3960   75.6820  220.9900 C   0  0  0  0  0  0  0  0  0  0  0  0
  141.5360   75.9530  220.3930 O   0  0  0  0  0  0  0  0  0  0  0  0
  139.7060   76.8430  221.4140 N   0  0  0  0  0  0  0  0  0  0  0  0
  138.5270   76.8550  222.2210 C   0  0  0  0  0  0  0  0  0  0  0  0
  138.0360   78.1640  222.7210 C   0  0  0  0  0  0  0  0  0  0  0  0
  138.2260   79.3400  221.8280 C   0  0  0  0  0  0  0  0  0  0  0  0
  139.1920   79.1140  220.7270 C   0  0  0  0  0  0  0  0  0  0  0  0
  140.2470   78.1200  220.9670 C   0  0  1  0  0  0  0  0  0  0  0  0
  141.4360   78.4950  221.7550 C   0  0  0  0  0  0  0  0  0  0  0  0
  141.9440   79.9040  221.4480 C   0  0  0  0  0  0  0  0  0  0  0  0
  142.9630   80.2110  222.5260 C   0  0  0  0  0  0  0  0  0  0  0  0
  142.1710   80.5350  223.7810 C   0  0  0  0  0  0  0  0  0  0  0  0
  141.2460   79.4000  224.0970 C   0  0  0  0  0  0  0  0  0  0  0  0
  141.4600   78.2010  223.2070 C   0  0  0  0  0  0  0  0  0  0  0  0
  140.2780   71.5030  223.6170 C   0  0  0  0  0  0  0  0  0  0  0  0
  139.5950   70.3120  223.5010 C   0  0  0  0  0  0  0  0  0  0  0  0
  139.4070   69.5730  224.6400 C   0  0  0  0  0  0  0  0  0  0  0  0
  139.8720   69.9740  225.8840 C   0  0  0  0  0  0  0  0  0  0  0  0
  139.6710   69.2130  227.0160 C   0  0  0  0  0  0  0  0  0  0  0  0
  140.1540   69.6540  228.2340 C   0  0  0  0  0  0  0  0  0  0  0  0
  140.8380   70.8680  228.2900 C   0  0  0  0  0  0  0  0  0  0  0  0
  141.0380   71.6320  227.1470 C   0  0  0  0  0  0  0  0  0  0  0  0
  140.5500   71.1780  225.9320 C   0  0  0  0  0  0  0  0  0  0  0  0
  140.7250   71.8900  224.8060 N   0  0  0  0  0  0  0  0  0  0  0  0
  139.3310   73.8760  223.1150 H   0  0  0  0  0  0  0  0  0  0  0  0
  140.9928   73.7715  220.6270 H   0  0  0  0  0  0  0  0  0  0  0  0
  139.1408   74.2143  220.5776 H   0  0  0  0  0  0  0  0  0  0  0  0
  137.7179   76.4088  221.6241 H   0  0  0  0  0  0  0  0  0  0  0  0
  138.8112   76.3038  223.1295 H   0  0  0  0  0  0  0  0  0  0  0  0
  136.9576   78.0632  222.9129 H   0  0  0  0  0  0  0  0  0  0  0  0
  138.6458   78.3782  223.6111 H   0  0  0  0  0  0  0  0  0  0  0  0
  137.2526   79.5988  221.3858 H   0  0  0  0  0  0  0  0  0  0  0  0
  138.6381   80.1478  222.4507 H   0  0  0  0  0  0  0  0  0  0  0  0
  138.6214   78.7878  219.8450 H   0  0  0  0  0  0  0  0  0  0  0  0
  139.7199   80.0714  220.6052 H   0  0  0  0  0  0  0  0  0  0  0  0
  140.6699   78.0387  219.9548 H   0  0  0  0  0  0  0  0  0  0  0  0
  142.1558   77.7577  221.3699 H   0  0  0  0  0  0  0  0  0  0  0  0
  142.4146   79.9349  220.4542 H   0  0  0  0  0  0  0  0  0  0  0  0
  141.1261   80.6395  221.4384 H   0  0  0  0  0  0  0  0  0  0  0  0
  143.6098   79.3381  222.6985 H   0  0  0  0  0  0  0  0  0  0  0  0
  143.6124   81.0499  222.2352 H   0  0  0  0  0  0  0  0  0  0  0  0
  142.8635   80.6881  224.6218 H   0  0  0  0  0  0  0  0  0  0  0  0
  141.5839   81.4506  223.6169 H   0  0  0  0  0  0  0  0  0  0  0  0
  141.4089   79.0951  225.1413 H   0  0  0  0  0  0  0  0  0  0  0  0
  140.2187   79.7557  223.9290 H   0  0  0  0  0  0  0  0  0  0  0  0
  142.4390   77.7631  223.4517 H   0  0  0  0  0  0  0  0  0  0  0  0
  140.6197   77.5177  223.3993 H   0  0  0  0  0  0  0  0  0  0  0  0
  139.2141   69.9664  222.5287 H   0  0  0  0  0  0  0  0  0  0  0  0
  138.8633   68.6197  224.5643 H   0  0  0  0  0  0  0  0  0  0  0  0
  139.1283   68.2584  226.9503 H   0  0  0  0  0  0  0  0  0  0  0  0
  140.0012   69.0565  229.1449 H   0  0  0  0  0  0  0  0  0  0  0  0
  141.2255   71.2266  229.2550 H   0  0  0  0  0  0  0  0  0  0  0  0
  141.5786   72.5882  227.2059 H   0  0  0  0  0  0  0  0  0  0  0  0
  1  2  2  0
  2  3  1  0
  3  4  1  0
  4  5  1  0
  5  6  2  0
  5  7  1  0
  7  8  1  0
  8  9  1  0
  9 10  1  0
 10 11  1  0
 11 12  1  0
 12 13  1  0
 13 14  1  0
 14 15  1  0
 15 16  1  0
 16 17  1  0
 17 18  1  0
  2 19  1  0
 19 20  2  0
 20 21  1  0
 21 22  2  0
 22 23  1  0
 23 24  2  0
 24 25  1  0
 25 26  2  0
 26 27  1  0
 27 28  2  0
 12  7  1  0
 18 13  1  0
 28 19  1  0
 27 22  1  0
  3 29  1  0
  4 30  1  0
  4 31  1  0
  8 32  1  0
  8 33  1  0
  9 34  1  0
  9 35  1  0
 10 36  1  0
 10 37  1  0
 11 38  1  0
 11 39  1  0
 12 40  1  6
 13 41  1  0
 14 42  1  0
 14 43  1  0
 15 44  1  0
 15 45  1  0
 16 46  1  0
 16 47  1  0
 17 48  1  0
 17 49  1  0
 18 50  1  0
 18 51  1  0
 20 52  1  0
 21 53  1  0
 23 54  1  0
 24 55  1  0
 25 56  1  0
 26 57  1  0
M  END
>  <smiles>  (83) 
O=C(NCC(=O)N1CCCCC1C1CCCCC1)c1ccc2ccccc2n1

>  <score_type>  (83) 
oracle

>  <origin>  (83) 
autodockgpu

>  <m_score__min__energy>  (83) 
-9.0199999999999996

>  <m_primary>  (83) 
energy

>  <rmsd>  (83) 
2.8499802591913515

>  <m_score__min__rmsd>  (83) 
2.8499802591913515

>  <meeko>  (83) 
{"free_energy": -8.92, "intermolecular_energy": -10.41, "internal_energy": -1.45, "cluster_size": 34, "cluster_id": 1, "rank_in_cluster": 15}

>  <energy>  (83) 
-8.15

>  <cluster_rmsd>  (83) 
1.48

>  <cluster>  (83) 
1

$$$$

     RDKit          3D

 57 60  0  0  0  0  0  0  0  0999 V2000
  141.1820   72.3400  221.7200 O   0  0  0  0  0  0  0  0  0  0  0  0
  140.2500   72.4060  222.5710 C   0  0  0  0  0  0  0  0  0  0  0  0
  139.2140   73.4180  222.3550 N   0  0  0  0  0  0  0  0  0  0  0  0
  139.3930   74.2120  221.1930 C   0  0  0  0  0  0  0  0  0  0  0  0
  140.3480   75.2790  221.1150 C   0  0  0  0  0  0  0  0  0  0  0  0
  141.4850   74.9990  221.7140 O   0  0  0  0  0  0  0  0  0  0  0  0
  140.3350   76.5690  220.5330 N   0  0  0  0  0  0  0  0  0  0  0  0
  139.3450   77.0570  219.6270 C   0  0  0  0  0  0  0  0  0  0  0  0
  139.3860   78.4930  219.2530 C   0  0  0  0  0  0  0  0  0  0  0  0
  140.7310   79.1220  219.1470 C   0  0  0  0  0  0  0  0  0  0  0  0
  141.8190   78.3340  219.7740 C   0  0  0  0  0  0  0  0  0  0  0  0
  141.4400   77.4520  220.8860 C   0  0  1  0  0  0  0  0  0  0  0  0
  141.2540   78.0190  222.2350 C   0  0  0  0  0  0  0  0  0  0  0  0
  142.2140   79.1680  222.5450 C   0  0  0  0  0  0  0  0  0  0  0  0
  141.6970   79.7930  223.8240 C   0  0  0  0  0  0  0  0  0  0  0  0
  140.4860   80.6230  223.4330 C   0  0  0  0  0  0  0  0  0  0  0  0
  139.4970   79.7570  222.7140 C   0  0  0  0  0  0  0  0  0  0  0  0
  139.8810   78.2980  222.7160 C   0  0  0  0  0  0  0  0  0  0  0  0
  140.1700   71.5350  223.7280 C   0  0  0  0  0  0  0  0  0  0  0  0
  139.5860   70.2990  223.5520 C   0  0  0  0  0  0  0  0  0  0  0  0
  139.5070   69.4720  224.6410 C   0  0  0  0  0  0  0  0  0  0  0  0
  139.9860   69.8270  225.8930 C   0  0  0  0  0  0  0  0  0  0  0  0
  139.8960   68.9760  226.9750 C   0  0  0  0  0  0  0  0  0  0  0  0
  140.3880   69.3750  228.2050 C   0  0  0  0  0  0  0  0  0  0  0  0
  140.9680   70.6380  228.3230 C   0  0  0  0  0  0  0  0  0  0  0  0
  141.0570   71.4920  227.2300 C   0  0  0  0  0  0  0  0  0  0  0  0
  140.5610   71.0790  226.0040 C   0  0  0  0  0  0  0  0  0  0  0  0
  140.6300   71.8790  224.9250 N   0  0  0  0  0  0  0  0  0  0  0  0
  138.4930   73.4150  223.0700 H   0  0  0  0  0  0  0  0  0  0  0  0
  139.6539   73.5123  220.3853 H   0  0  0  0  0  0  0  0  0  0  0  0
  138.4426   74.7646  221.1558 H   0  0  0  0  0  0  0  0  0  0  0  0
  139.4371   76.4749  218.6982 H   0  0  0  0  0  0  0  0  0  0  0  0
  138.3961   76.9433  220.1717 H   0  0  0  0  0  0  0  0  0  0  0  0
  138.8926   78.5962  218.2753 H   0  0  0  0  0  0  0  0  0  0  0  0
  138.8869   79.0196  220.0798 H   0  0  0  0  0  0  0  0  0  0  0  0
  140.9686   79.2516  218.0808 H   0  0  0  0  0  0  0  0  0  0  0  0
  140.6780   80.0773  219.6898 H   0  0  0  0  0  0  0  0  0  0  0  0
  142.2703   77.7073  218.9907 H   0  0  0  0  0  0  0  0  0  0  0  0
  142.4975   79.0790  220.2151 H   0  0  0  0  0  0  0  0  0  0  0  0
  142.3747   76.8860  221.0123 H   0  0  0  0  0  0  0  0  0  0  0  0
  141.5262   77.1446  222.8444 H   0  0  0  0  0  0  0  0  0  0  0  0
  143.2358   78.7870  222.6889 H   0  0  0  0  0  0  0  0  0  0  0  0
  142.2569   79.8973  221.7226 H   0  0  0  0  0  0  0  0  0  0  0  0
  141.4072   79.0103  224.5405 H   0  0  0  0  0  0  0  0  0  0  0  0
  142.4675   80.4122  224.3066 H   0  0  0  0  0  0  0  0  0  0  0  0
  140.0191   81.0390  224.3380 H   0  0  0  0  0  0  0  0  0  0  0  0
  140.8023   81.4439  222.7726 H   0  0  0  0  0  0  0  0  0  0  0  0
  138.5176   79.8625  223.2035 H   0  0  0  0  0  0  0  0  0  0  0  0
  139.4696   80.0889  221.6656 H   0  0  0  0  0  0  0  0  0  0  0  0
  139.7960   77.9227  223.7465 H   0  0  0  0  0  0  0  0  0  0  0  0
  139.1980   77.7959  222.0150 H   0  0  0  0  0  0  0  0  0  0  0  0
  139.1970   69.9876  222.5713 H   0  0  0  0  0  0  0  0  0  0  0  0
  139.0430   68.4824  224.5169 H   0  0  0  0  0  0  0  0  0  0  0  0
  139.4348   67.9840  226.8603 H   0  0  0  0  0  0  0  0  0  0  0  0
  140.3228   68.7066  229.0762 H   0  0  0  0  0  0  0  0  0  0  0  0
  141.3615   70.9636  229.2972 H   0  0  0  0  0  0  0  0  0  0  0  0
  141.5166   72.4856  227.3372 H   0  0  0  0  0  0  0  0  0  0  0  0
  1  2  2  0
  2  3  1  0
  3  4  1  0
  4  5  1  0
  5  6  2  0
  5  7  1  0
  7  8  1  0
  8  9  1  0
  9 10  1  0
 10 11  1  0
 11 12  1  0
 12 13  1  0
 13 14  1  0
 14 15  1  0
 15 16  1  0
 16 17  1  0
 17 18  1  0
  2 19  1  0
 19 20  2  0
 20 21  1  0
 21 22  2  0
 22 23  1  0
 23 24  2  0
 24 25  1  0
 25 26  2  0
 26 27  1  0
 27 28  2  0
 12  7  1  0
 18 13  1  0
 28 19  1  0
 27 22  1  0
  3 29  1  0
  4 30  1  0
  4 31  1  0
  8 32  1  0
  8 33  1  0
  9 34  1  0
  9 35  1  0
 10 36  1  0
 10 37  1  0
 11 38  1  0
 11 39  1  0
 12 40  1  1
 13 41  1  0
 14 42  1  0
 14 43  1  0
 15 44  1  0
 15 45  1  0
 16 46  1  0
 16 47  1  0
 17 48  1  0
 17 49  1  0
 18 50  1  0
 18 51  1  0
 20 52  1  0
 21 53  1  0
 23 54  1  0
 24 55  1  0
 25 56  1  0
 26 57  1  0
M  END
>  <smiles>  (84) 
O=C(NCC(=O)N1CCCCC1C1CCCCC1)c1ccc2ccccc2n1

>  <score_type>  (84) 
oracle

>  <origin>  (84) 
autodockgpu

>  <m_score__min__energy>  (84) 
-9.0199999999999996

>  <m_primary>  (84) 
energy

>  <rmsd>  (84) 
1.7962320696724325

>  <m_score__min__rmsd>  (84) 
1.7962320696724325

>  <meeko>  (84) 
{"free_energy": -8.8, "intermolecular_energy": -10.29, "internal_energy": -1.45, "cluster_size": 34, "cluster_id": 1, "rank_in_cluster": 23}

>  <energy>  (84) 
-8.13

>  <cluster_rmsd>  (84) 
1.48

>  <cluster>  (84) 
1

$$$$

     RDKit          3D

 57 60  0  0  0  0  0  0  0  0999 V2000
  140.9550   71.8230  221.3730 O   0  0  0  0  0  0  0  0  0  0  0  0
  140.3990   72.2620  222.4190 C   0  0  0  0  0  0  0  0  0  0  0  0
  139.8790   73.6300  222.3800 N   0  0  0  0  0  0  0  0  0  0  0  0
  140.0680   74.3020  221.1450 C   0  0  0  0  0  0  0  0  0  0  0  0
  140.3690   75.7010  221.0540 C   0  0  0  0  0  0  0  0  0  0  0  0
  141.5250   75.9450  220.4770 O   0  0  0  0  0  0  0  0  0  0  0  0
  139.6910   76.8790  221.4510 N   0  0  0  0  0  0  0  0  0  0  0  0
  138.5040   76.9220  222.2450 C   0  0  0  0  0  0  0  0  0  0  0  0
  138.0280   78.2470  222.7180 C   0  0  0  0  0  0  0  0  0  0  0  0
  138.2440   79.4040  221.8070 C   0  0  0  0  0  0  0  0  0  0  0  0
  139.2180   79.1450  220.7200 C   0  0  0  0  0  0  0  0  0  0  0  0
  140.2560   78.1410  220.9880 C   0  0  1  0  0  0  0  0  0  0  0  0
  141.4420   78.5110  221.7820 C   0  0  0  0  0  0  0  0  0  0  0  0
  141.9400   79.9290  221.4990 C   0  0  0  0  0  0  0  0  0  0  0  0
  142.9560   80.2260  222.5820 C   0  0  0  0  0  0  0  0  0  0  0  0
  142.1610   80.5240  223.8420 C   0  0  0  0  0  0  0  0  0  0  0  0
  141.2450   79.3760  224.1380 C   0  0  0  0  0  0  0  0  0  0  0  0
  141.4690   78.1940  223.2290 C   0  0  0  0  0  0  0  0  0  0  0  0
  140.2620   71.4780  223.6330 C   0  0  0  0  0  0  0  0  0  0  0  0
  139.6490   70.2490  223.5260 C   0  0  0  0  0  0  0  0  0  0  0  0
  139.5150   69.5030  224.6680 C   0  0  0  0  0  0  0  0  0  0  0  0
  139.9680   69.9340  225.9060 C   0  0  0  0  0  0  0  0  0  0  0  0
  139.8230   69.1660  227.0420 C   0  0  0  0  0  0  0  0  0  0  0  0
  140.2900   69.6390  228.2550 C   0  0  0  0  0  0  0  0  0  0  0  0
  140.9010   70.8910  228.3010 C   0  0  0  0  0  0  0  0  0  0  0  0
  141.0460   71.6620  227.1540 C   0  0  0  0  0  0  0  0  0  0  0  0
  140.5740   71.1770  225.9460 C   0  0  0  0  0  0  0  0  0  0  0  0
  140.6960   71.8950  224.8160 N   0  0  0  0  0  0  0  0  0  0  0  0
  139.4410   73.9200  223.2490 H   0  0  0  0  0  0  0  0  0  0  0  0
  140.8948   73.7809  220.6402 H   0  0  0  0  0  0  0  0  0  0  0  0
  139.0544   74.2674  220.7190 H   0  0  0  0  0  0  0  0  0  0  0  0
  137.6944   76.4782  221.6470 H   0  0  0  0  0  0  0  0  0  0  0  0
  138.7699   76.3815  223.1654 H   0  0  0  0  0  0  0  0  0  0  0  0
  136.9464   78.1656  222.9013 H   0  0  0  0  0  0  0  0  0  0  0  0
  138.6325   78.4674  223.6102 H   0  0  0  0  0  0  0  0  0  0  0  0
  137.2790   79.6689  221.3503 H   0  0  0  0  0  0  0  0  0  0  0  0
  138.6614   80.2166  222.4198 H   0  0  0  0  0  0  0  0  0  0  0  0
  138.6517   78.8113  219.8379 H   0  0  0  0  0  0  0  0  0  0  0  0
  139.7607   80.0925  220.5871 H   0  0  0  0  0  0  0  0  0  0  0  0
  140.6888   78.0379  219.9820 H   0  0  0  0  0  0  0  0  0  0  0  0
  142.1658   77.7844  221.3842 H   0  0  0  0  0  0  0  0  0  0  0  0
  142.4108   79.9799  220.5061 H   0  0  0  0  0  0  0  0  0  0  0  0
  141.1165   80.6583  221.5016 H   0  0  0  0  0  0  0  0  0  0  0  0
  143.6091   79.3552  222.7407 H   0  0  0  0  0  0  0  0  0  0  0  0
  143.5993   81.0742  222.3051 H   0  0  0  0  0  0  0  0  0  0  0  0
  142.8518   80.6688  224.6857 H   0  0  0  0  0  0  0  0  0  0  0  0
  141.5671   81.4379  223.6932 H   0  0  0  0  0  0  0  0  0  0  0  0
  141.4096   79.0552  225.1772 H   0  0  0  0  0  0  0  0  0  0  0  0
  140.2151   79.7262  223.9746 H   0  0  0  0  0  0  0  0  0  0  0  0
  142.4518   77.7608  223.4664 H   0  0  0  0  0  0  0  0  0  0  0  0
  140.6346   77.5005  223.4104 H   0  0  0  0  0  0  0  0  0  0  0  0
  139.2800   69.8793  222.5579 H   0  0  0  0  0  0  0  0  0  0  0  0
  139.0269   68.5196  224.5997 H   0  0  0  0  0  0  0  0  0  0  0  0
  139.3376   68.1806  226.9838 H   0  0  0  0  0  0  0  0  0  0  0  0
  140.1809   69.0367  229.1689 H   0  0  0  0  0  0  0  0  0  0  0  0
  141.2748   71.2752  229.2616 H   0  0  0  0  0  0  0  0  0  0  0  0
  141.5310   72.6480  227.2052 H   0  0  0  0  0  0  0  0  0  0  0  0
  1  2  2  0
  2  3  1  0
  3  4  1  0
  4  5  1  0
  5  6  2  0
  5  7  1  0
  7  8  1  0
  8  9  1  0
  9 10  1  0
 10 11  1  0
 11 12  1  0
 12 13  1  0
 13 14  1  0
 14 15  1  0
 15 16  1  0
 16 17  1  0
 17 18  1  0
  2 19  1  0
 19 20  2  0
 20 21  1  0
 21 22  2  0
 22 23  1  0
 23 24  2  0
 24 25  1  0
 25 26  2  0
 26 27  1  0
 27 28  2  0
 12  7  1  0
 18 13  1  0
 28 19  1  0
 27 22  1  0
  3 29  1  0
  4 30  1  0
  4 31  1  0
  8 32  1  0
  8 33  1  0
  9 34  1  0
  9 35  1  0
 10 36  1  0
 10 37  1  0
 11 38  1  0
 11 39  1  0
 12 40  1  6
 13 41  1  0
 14 42  1  0
 14 43  1  0
 15 44  1  0
 15 45  1  0
 16 46  1  0
 16 47  1  0
 17 48  1  0
 17 49  1  0
 18 50  1  0
 18 51  1  0
 20 52  1  0
 21 53  1  0
 23 54  1  0
 24 55  1  0
 25 56  1  0
 26 57  1  0
M  END
>  <smiles>  (85) 
O=C(NCC(=O)N1CCCCC1C1CCCCC1)c1ccc2ccccc2n1

>  <score_type>  (85) 
oracle

>  <origin>  (85) 
autodockgpu

>  <m_score__min__energy>  (85) 
-9.0199999999999996

>  <m_primary>  (85) 
energy

>  <rmsd>  (85) 
2.848359264945818

>  <m_score__min__rmsd>  (85) 
2.848359264945818

>  <meeko>  (85) 
{"free_energy": -8.86, "intermolecular_energy": -10.35, "internal_energy": -1.47, "cluster_size": 34, "cluster_id": 1, "rank_in_cluster": 21}

>  <energy>  (85) 
-8.83

>  <cluster_rmsd>  (85) 
0.0

>  <cluster>  (85) 
2

$$$$

     RDKit          3D

 57 60  0  0  0  0  0  0  0  0999 V2000
  141.4500   72.7480  221.5960 O   0  0  0  0  0  0  0  0  0  0  0  0
  140.4960   72.7750  222.4240 C   0  0  0  0  0  0  0  0  0  0  0  0
  139.5690   73.9060  222.3440 N   0  0  0  0  0  0  0  0  0  0  0  0
  139.8670   74.8460  221.3240 C   0  0  0  0  0  0  0  0  0  0  0  0
  139.4450   76.2160  221.3770 C   0  0  0  0  0  0  0  0  0  0  0  0
  138.4240   76.4110  222.1840 O   0  0  0  0  0  0  0  0  0  0  0  0
  139.8880   77.4050  220.7510 N   0  0  0  0  0  0  0  0  0  0  0  0
  139.0960   78.2350  219.9000 C   0  0  0  0  0  0  0  0  0  0  0  0
  139.6630   79.5390  219.4720 C   0  0  0  0  0  0  0  0  0  0  0  0
  141.1330   79.5920  219.2460 C   0  0  0  0  0  0  0  0  0  0  0  0
  141.8760   78.4450  219.8220 C   0  0  0  0  0  0  0  0  0  0  0  0
  141.2740   77.7890  220.9910 C   0  0  1  0  0  0  0  0  0  0  0  0
  141.4320   78.3910  222.3280 C   0  0  0  0  0  0  0  0  0  0  0  0
  142.5770   79.4020  222.4030 C   0  0  0  0  0  0  0  0  0  0  0  0
  142.4070   80.1070  223.7330 C   0  0  0  0  0  0  0  0  0  0  0  0
  141.2630   81.0900  223.5510 C   0  0  0  0  0  0  0  0  0  0  0  0
  140.0470   80.3590  223.0680 C   0  0  0  0  0  0  0  0  0  0  0  0
  140.2280   78.8610  223.0520 C   0  0  0  0  0  0  0  0  0  0  0  0
  140.2890   71.7490  223.4300 C   0  0  0  0  0  0  0  0  0  0  0  0
  139.6380   70.6000  223.0380 C   0  0  0  0  0  0  0  0  0  0  0  0
  139.4390   69.6280  223.9830 C   0  0  0  0  0  0  0  0  0  0  0  0
  139.8640   69.7570  225.2970 C   0  0  0  0  0  0  0  0  0  0  0  0
  139.6530   68.7640  226.2310 C   0  0  0  0  0  0  0  0  0  0  0  0
  140.0940   68.9390  227.5300 C   0  0  0  0  0  0  0  0  0  0  0  0
  140.7470   70.1240  227.8680 C   0  0  0  0  0  0  0  0  0  0  0  0
  140.9580   71.1210  226.9240 C   0  0  0  0  0  0  0  0  0  0  0  0
  140.5110   70.9340  225.6260 C   0  0  0  0  0  0  0  0  0  0  0  0
  140.6970   71.8770  224.6870 N   0  0  0  0  0  0  0  0  0  0  0  0
  138.8240   73.8650  223.0320 H   0  0  0  0  0  0  0  0  0  0  0  0
  140.9639   74.8696  221.2446 H   0  0  0  0  0  0  0  0  0  0  0  0
  139.2641   74.4621  220.4878 H   0  0  0  0  0  0  0  0  0  0  0  0
  138.8803   77.6576  218.9889 H   0  0  0  0  0  0  0  0  0  0  0  0
  138.2235   78.5036  220.5137 H   0  0  0  0  0  0  0  0  0  0  0  0
  139.1714   79.8219  218.5295 H   0  0  0  0  0  0  0  0  0  0  0  0
  139.4773   80.2227  220.3135 H   0  0  0  0  0  0  0  0  0  0  0  0
  141.3152   79.6120  218.1614 H   0  0  0  0  0  0  0  0  0  0  0  0
  141.4998   80.4954  219.7552 H   0  0  0  0  0  0  0  0  0  0  0  0
  141.9828   77.6866  219.0324 H   0  0  0  0  0  0  0  0  0  0  0  0
  142.8248   78.8676  220.1843 H   0  0  0  0  0  0  0  0  0  0  0  0
  141.9229   76.9044  221.0711 H   0  0  0  0  0  0  0  0  0  0  0  0
  141.7009   77.4954  222.9074 H   0  0  0  0  0  0  0  0  0  0  0  0
  143.5481   78.8869  222.3621 H   0  0  0  0  0  0  0  0  0  0  0  0
  142.5537   80.1086  221.5603 H   0  0  0  0  0  0  0  0  0  0  0  0
  142.1625   79.3797  224.5212 H   0  0  0  0  0  0  0  0  0  0  0  0
  143.3317   80.6209  224.0343 H   0  0  0  0  0  0  0  0  0  0  0  0
  141.0407   81.5758  224.5126 H   0  0  0  0  0  0  0  0  0  0  0  0
  141.5495   81.8527  222.8119 H   0  0  0  0  0  0  0  0  0  0  0  0
  139.2044   80.6033  223.7315 H   0  0  0  0  0  0  0  0  0  0  0  0
  139.8599   80.6792  222.0324 H   0  0  0  0  0  0  0  0  0  0  0  0
  140.2966   78.5129  224.0932 H   0  0  0  0  0  0  0  0  0  0  0  0
  139.3613   78.4489  222.5143 H   0  0  0  0  0  0  0  0  0  0  0  0
  139.2902   70.4675  222.0029 H   0  0  0  0  0  0  0  0  0  0  0  0
  138.9194   68.7049  223.6866 H   0  0  0  0  0  0  0  0  0  0  0  0
  139.1360   67.8366  225.9437 H   0  0  0  0  0  0  0  0  0  0  0  0
  139.9322   68.1556  228.2850 H   0  0  0  0  0  0  0  0  0  0  0  0
  141.1008   70.2716  228.8990 H   0  0  0  0  0  0  0  0  0  0  0  0
  141.4752   72.0504  227.2044 H   0  0  0  0  0  0  0  0  0  0  0  0
  1  2  2  0
  2  3  1  0
  3  4  1  0
  4  5  1  0
  5  6  2  0
  5  7  1  0
  7  8  1  0
  8  9  1  0
  9 10  1  0
 10 11  1  0
 11 12  1  0
 12 13  1  0
 13 14  1  0
 14 15  1  0
 15 16  1  0
 16 17  1  0
 17 18  1  0
  2 19  1  0
 19 20  2  0
 20 21  1  0
 21 22  2  0
 22 23  1  0
 23 24  2  0
 24 25  1  0
 25 26  2  0
 26 27  1  0
 27 28  2  0
 12  7  1  0
 18 13  1  0
 28 19  1  0
 27 22  1  0
  3 29  1  0
  4 30  1  0
  4 31  1  0
  8 32  1  0
  8 33  1  0
  9 34  1  0
  9 35  1  0
 10 36  1  0
 10 37  1  0
 11 38  1  0
 11 39  1  0
 12 40  1  1
 13 41  1  0
 14 42  1  0
 14 43  1  0
 15 44  1  0
 15 45  1  0
 16 46  1  0
 16 47  1  0
 17 48  1  0
 17 49  1  0
 18 50  1  0
 18 51  1  0
 20 52  1  0
 21 53  1  0
 23 54  1  0
 24 55  1  0
 25 56  1  0
 26 57  1  0
M  END
>  <smiles>  (86) 
O=C(NCC(=O)N1CCCCC1C1CCCCC1)c1ccc2ccccc2n1

>  <score_type>  (86) 
oracle

>  <origin>  (86) 
autodockgpu

>  <m_score__min__energy>  (86) 
-9.0199999999999996

>  <m_primary>  (86) 
energy

>  <rmsd>  (86) 
2.2972082057649974

>  <m_score__min__rmsd>  (86) 
2.2972082057649974

>  <meeko>  (86) 
{"free_energy": -8.66, "intermolecular_energy": -10.15, "internal_energy": -1.57, "cluster_size": 34, "cluster_id": 1, "rank_in_cluster": 27}

>  <energy>  (86) 
-8.63

>  <cluster_rmsd>  (86) 
1.09

>  <cluster>  (86) 
2

$$$$

     RDKit          3D

 57 60  0  0  0  0  0  0  0  0999 V2000
  138.3190   75.1400  222.3290 O   0  0  0  0  0  0  0  0  0  0  0  0
  139.4690   75.6450  222.1870 C   0  0  0  0  0  0  0  0  0  0  0  0
  140.5280   74.7700  221.6770 N   0  0  0  0  0  0  0  0  0  0  0  0
  140.1170   73.4410  221.4000 C   0  0  0  0  0  0  0  0  0  0  0  0
  139.9340   72.4510  222.4210 C   0  0  0  0  0  0  0  0  0  0  0  0
  140.7220   72.6280  223.4600 O   0  0  0  0  0  0  0  0  0  0  0  0
  139.0890   71.3230  222.5560 N   0  0  0  0  0  0  0  0  0  0  0  0
  138.6310   70.5010  221.4810 C   0  0  0  0  0  0  0  0  0  0  0  0
  137.8970   69.2550  221.8190 C   0  0  0  0  0  0  0  0  0  0  0  0
  137.0280   69.2920  223.0270 C   0  0  0  0  0  0  0  0  0  0  0  0
  137.2880   70.4430  223.9250 C   0  0  0  0  0  0  0  0  0  0  0  0
  138.6470   71.0000  223.9070 C   0  0  1  0  0  0  0  0  0  0  0  0
  139.7190   70.3340  224.6690 C   0  0  0  0  0  0  0  0  0  0  0  0
  140.1960   71.1440  225.8750 C   0  0  0  0  0  0  0  0  0  0  0  0
  141.0690   70.2000  226.6770 C   0  0  0  0  0  0  0  0  0  0  0  0
  140.1240   69.2620  227.4060 C   0  0  0  0  0  0  0  0  0  0  0  0
  139.2200   68.5920  226.4170 C   0  0  0  0  0  0  0  0  0  0  0  0
  139.5890   68.8920  224.9850 C   0  0  0  0  0  0  0  0  0  0  0  0
  139.7740   77.0270  222.5050 C   0  0  0  0  0  0  0  0  0  0  0  0
  138.7100   77.8870  222.6690 C   0  0  0  0  0  0  0  0  0  0  0  0
  138.9910   79.1950  222.9690 C   0  0  0  0  0  0  0  0  0  0  0  0
  140.2840   79.6750  223.1120 C   0  0  0  0  0  0  0  0  0  0  0  0
  140.5420   80.9950  223.4150 C   0  0  0  0  0  0  0  0  0  0  0  0
  141.8490   81.4270  223.5470 C   0  0  0  0  0  0  0  0  0  0  0  0
  142.8840   80.5100  223.3690 C   0  0  0  0  0  0  0  0  0  0  0  0
  142.6210   79.1800  223.0630 C   0  0  0  0  0  0  0  0  0  0  0  0
  141.3060   78.7600  222.9350 C   0  0  0  0  0  0  0  0  0  0  0  0
  141.0130   77.4820  222.6400 N   0  0  0  0  0  0  0  0  0  0  0  0
  141.4240   75.2370  221.5820 H   0  0  0  0  0  0  0  0  0  0  0  0
  139.1501   73.5246  220.8822 H   0  0  0  0  0  0  0  0  0  0  0  0
  140.9939   73.0465  220.8658 H   0  0  0  0  0  0  0  0  0  0  0  0
  137.9625   71.1163  220.8608 H   0  0  0  0  0  0  0  0  0  0  0  0
  139.5518   70.1525  220.9904 H   0  0  0  0  0  0  0  0  0  0  0  0
  137.2600   69.0009  220.9590 H   0  0  0  0  0  0  0  0  0  0  0  0
  138.6781   68.5158  222.0502 H   0  0  0  0  0  0  0  0  0  0  0  0
  135.9798   69.3412  222.6971 H   0  0  0  0  0  0  0  0  0  0  0  0
  137.2494   68.3826  223.6049 H   0  0  0  0  0  0  0  0  0  0  0  0
  136.5938   71.2486  223.6437 H   0  0  0  0  0  0  0  0  0  0  0  0
  137.1494   70.0519  224.9437 H   0  0  0  0  0  0  0  0  0  0  0  0
  138.4897   71.9117  224.5020 H   0  0  0  0  0  0  0  0  0  0  0  0
  140.5107   70.3207  223.9054 H   0  0  0  0  0  0  0  0  0  0  0  0
  140.7767   72.0183  225.5456 H   0  0  0  0  0  0  0  0  0  0  0  0
  139.3529   71.5250  226.4700 H   0  0  0  0  0  0  0  0  0  0  0  0
  141.7296   69.6302  226.0070 H   0  0  0  0  0  0  0  0  0  0  0  0
  141.7098   70.7497  227.3821 H   0  0  0  0  0  0  0  0  0  0  0  0
  140.7071   68.5000  227.9440 H   0  0  0  0  0  0  0  0  0  0  0  0
  139.5194   69.8367  228.1231 H   0  0  0  0  0  0  0  0  0  0  0  0
  139.2744   67.5044  226.5728 H   0  0  0  0  0  0  0  0  0  0  0  0
  138.2042   68.9798  226.5837 H   0  0  0  0  0  0  0  0  0  0  0  0
  140.5520   68.4058  224.7701 H   0  0  0  0  0  0  0  0  0  0  0  0
  138.7643   68.5108  224.3649 H   0  0  0  0  0  0  0  0  0  0  0  0
  137.6726   77.5368  222.5631 H   0  0  0  0  0  0  0  0  0  0  0  0
  138.1531   79.8951  223.1022 H   0  0  0  0  0  0  0  0  0  0  0  0
  139.7107   81.7024  223.5513 H   0  0  0  0  0  0  0  0  0  0  0  0
  142.0686   82.4774  223.7886 H   0  0  0  0  0  0  0  0  0  0  0  0
  143.9267   80.8449  223.4725 H   0  0  0  0  0  0  0  0  0  0  0  0
  143.4478   78.4679  222.9238 H   0  0  0  0  0  0  0  0  0  0  0  0
  1  2  2  0
  2  3  1  0
  3  4  1  0
  4  5  1  0
  5  6  2  0
  5  7  1  0
  7  8  1  0
  8  9  1  0
  9 10  1  0
 10 11  1  0
 11 12  1  0
 12 13  1  0
 13 14  1  0
 14 15  1  0
 15 16  1  0
 16 17  1  0
 17 18  1  0
  2 19  1  0
 19 20  2  0
 20 21  1  0
 21 22  2  0
 22 23  1  0
 23 24  2  0
 24 25  1  0
 25 26  2  0
 26 27  1  0
 27 28  2  0
 12  7  1  0
 18 13  1  0
 28 19  1  0
 27 22  1  0
  3 29  1  0
  4 30  1  0
  4 31  1  0
  8 32  1  0
  8 33  1  0
  9 34  1  0
  9 35  1  0
 10 36  1  0
 10 37  1  0
 11 38  1  0
 11 39  1  0
 12 40  1  1
 13 41  1  0
 14 42  1  0
 14 43  1  0
 15 44  1  0
 15 45  1  0
 16 46  1  0
 16 47  1  0
 17 48  1  0
 17 49  1  0
 18 50  1  0
 18 51  1  0
 20 52  1  0
 21 53  1  0
 23 54  1  0
 24 55  1  0
 25 56  1  0
 26 57  1  0
M  END
>  <smiles>  (87) 
O=C(NCC(=O)N1CCCCC1C1CCCCC1)c1ccc2ccccc2n1

>  <score_type>  (87) 
oracle

>  <origin>  (87) 
autodockgpu

>  <m_score__min__energy>  (87) 
-9.0199999999999996

>  <m_primary>  (87) 
energy

>  <rmsd>  (87) 
8.271292018203026

>  <m_score__min__rmsd>  (87) 
8.271292018203026

>  <meeko>  (87) 
{"free_energy": -8.17, "intermolecular_energy": -9.66, "internal_energy": -1.58, "cluster_size": 3, "cluster_id": 2, "rank_in_cluster": 3}

>  <energy>  (87) 
-8.17

>  <cluster_rmsd>  (87) 
1.25

>  <cluster>  (87) 
2

$$$$

     RDKit          3D

 57 60  0  0  0  0  0  0  0  0999 V2000
  141.0880   71.9640  221.4390 O   0  0  0  0  0  0  0  0  0  0  0  0
  140.4050   72.3350  222.4350 C   0  0  0  0  0  0  0  0  0  0  0  0
  139.7420   73.6380  222.3460 N   0  0  0  0  0  0  0  0  0  0  0  0
  139.9560   74.3310  221.1270 C   0  0  0  0  0  0  0  0  0  0  0  0
  140.3160   75.7190  221.0700 C   0  0  0  0  0  0  0  0  0  0  0  0
  141.5150   75.9210  220.5670 O   0  0  0  0  0  0  0  0  0  0  0  0
  139.6620   76.9190  221.4360 N   0  0  0  0  0  0  0  0  0  0  0  0
  138.4420   77.0030  222.1740 C   0  0  0  0  0  0  0  0  0  0  0  0
  137.9900   78.3440  222.6260 C   0  0  0  0  0  0  0  0  0  0  0  0
  138.2870   79.4920  221.7270 C   0  0  0  0  0  0  0  0  0  0  0  0
  139.3010   79.2000  220.6860 C   0  0  0  0  0  0  0  0  0  0  0  0
  140.2900   78.1600  221.0010 C   0  0  1  0  0  0  0  0  0  0  0  0
  141.4500   78.4910  221.8490 C   0  0  0  0  0  0  0  0  0  0  0  0
  142.0360   79.8740  221.5590 C   0  0  0  0  0  0  0  0  0  0  0  0
  143.0070   80.1470  222.6880 C   0  0  0  0  0  0  0  0  0  0  0  0
  142.1640   80.5170  223.8960 C   0  0  0  0  0  0  0  0  0  0  0  0
  141.1750   79.4260  224.1700 C   0  0  0  0  0  0  0  0  0  0  0  0
  141.3840   78.2100  223.3020 C   0  0  0  0  0  0  0  0  0  0  0  0
  140.2560   71.5360  223.6370 C   0  0  0  0  0  0  0  0  0  0  0  0
  139.6290   70.3160  223.5120 C   0  0  0  0  0  0  0  0  0  0  0  0
  139.4850   69.5570  224.6440 C   0  0  0  0  0  0  0  0  0  0  0  0
  139.9410   69.9650  225.8890 C   0  0  0  0  0  0  0  0  0  0  0  0
  139.7850   69.1830  227.0140 C   0  0  0  0  0  0  0  0  0  0  0  0
  140.2560   69.6330  228.2330 C   0  0  0  0  0  0  0  0  0  0  0  0
  140.8830   70.8780  228.2980 C   0  0  0  0  0  0  0  0  0  0  0  0
  141.0380   71.6630  227.1620 C   0  0  0  0  0  0  0  0  0  0  0  0
  140.5620   71.1990  225.9460 C   0  0  0  0  0  0  0  0  0  0  0  0
  140.6940   71.9310  224.8260 N   0  0  0  0  0  0  0  0  0  0  0  0
  139.2070   73.8750  223.1760 H   0  0  0  0  0  0  0  0  0  0  0  0
  140.7587   73.7881  220.6066 H   0  0  0  0  0  0  0  0  0  0  0  0
  138.9411   74.3493  220.7031 H   0  0  0  0  0  0  0  0  0  0  0  0
  137.6463   76.5869  221.5386 H   0  0  0  0  0  0  0  0  0  0  0  0
  138.6464   76.4543  223.1052 H   0  0  0  0  0  0  0  0  0  0  0  0
  136.8990   78.2997  222.7593 H   0  0  0  0  0  0  0  0  0  0  0  0
  138.5598   78.5443  223.5453 H   0  0  0  0  0  0  0  0  0  0  0  0
  137.3537   79.7889  221.2262 H   0  0  0  0  0  0  0  0  0  0  0  0
  138.7029   80.2902  222.3593 H   0  0  0  0  0  0  0  0  0  0  0  0
  138.7654   78.8864  219.7778 H   0  0  0  0  0  0  0  0  0  0  0  0
  139.8816   80.1282  220.5798 H   0  0  0  0  0  0  0  0  0  0  0  0
  140.7642   78.0394  220.0158 H   0  0  0  0  0  0  0  0  0  0  0  0
  142.1560   77.7193  221.5085 H   0  0  0  0  0  0  0  0  0  0  0  0
  142.5607   79.8741  220.5922 H   0  0  0  0  0  0  0  0  0  0  0  0
  141.2531   80.6444  221.4989 H   0  0  0  0  0  0  0  0  0  0  0  0
  143.6049   79.2487  222.9016 H   0  0  0  0  0  0  0  0  0  0  0  0
  143.7068   80.9545  222.4267 H   0  0  0  0  0  0  0  0  0  0  0  0
  142.8165   80.6483  224.7717 H   0  0  0  0  0  0  0  0  0  0  0  0
  141.6269   81.4554  223.6938 H   0  0  0  0  0  0  0  0  0  0  0  0
  141.2682   79.1248  225.2238 H   0  0  0  0  0  0  0  0  0  0  0  0
  140.1747   79.8239  223.9439 H   0  0  0  0  0  0  0  0  0  0  0  0
  142.3287   77.7330  223.6021 H   0  0  0  0  0  0  0  0  0  0  0  0
  140.5062   77.5648  223.4543 H   0  0  0  0  0  0  0  0  0  0  0  0
  139.2572   69.9635  222.5386 H   0  0  0  0  0  0  0  0  0  0  0  0
  138.9854   68.5805  224.5617 H   0  0  0  0  0  0  0  0  0  0  0  0
  139.2875   68.2046  226.9415 H   0  0  0  0  0  0  0  0  0  0  0  0
  140.1384   69.0191  229.1382 H   0  0  0  0  0  0  0  0  0  0  0  0
  141.2606   71.2439  229.2642 H   0  0  0  0  0  0  0  0  0  0  0  0
  141.5335   72.6429  227.2272 H   0  0  0  0  0  0  0  0  0  0  0  0
  1  2  2  0
  2  3  1  0
  3  4  1  0
  4  5  1  0
  5  6  2  0
  5  7  1  0
  7  8  1  0
  8  9  1  0
  9 10  1  0
 10 11  1  0
 11 12  1  0
 12 13  1  0
 13 14  1  0
 14 15  1  0
 15 16  1  0
 16 17  1  0
 17 18  1  0
  2 19  1  0
 19 20  2  0
 20 21  1  0
 21 22  2  0
 22 23  1  0
 23 24  2  0
 24 25  1  0
 25 26  2  0
 26 27  1  0
 27 28  2  0
 12  7  1  0
 18 13  1  0
 28 19  1  0
 27 22  1  0
  3 29  1  0
  4 30  1  0
  4 31  1  0
  8 32  1  0
  8 33  1  0
  9 34  1  0
  9 35  1  0
 10 36  1  0
 10 37  1  0
 11 38  1  0
 11 39  1  0
 12 40  1  6
 13 41  1  0
 14 42  1  0
 14 43  1  0
 15 44  1  0
 15 45  1  0
 16 46  1  0
 16 47  1  0
 17 48  1  0
 17 49  1  0
 18 50  1  0
 18 51  1  0
 20 52  1  0
 21 53  1  0
 23 54  1  0
 24 55  1  0
 25 56  1  0
 26 57  1  0
M  END
>  <smiles>  (88) 
O=C(NCC(=O)N1CCCCC1C1CCCCC1)c1ccc2ccccc2n1

>  <score_type>  (88) 
oracle

>  <origin>  (88) 
autodockgpu

>  <m_score__min__energy>  (88) 
-9.0199999999999996

>  <m_primary>  (88) 
energy

>  <rmsd>  (88) 
2.832137472093444

>  <m_score__min__rmsd>  (88) 
2.832137472093444

>  <meeko>  (88) 
{"free_energy": -8.86, "intermolecular_energy": -10.35, "internal_energy": -1.44, "cluster_size": 34, "cluster_id": 1, "rank_in_cluster": 20}

>  <energy>  (88) 
-8.39

>  <cluster_rmsd>  (88) 
0.0

>  <cluster>  (88) 
3

$$$$

     RDKit          3D

 57 60  0  0  0  0  0  0  0  0999 V2000
  141.4140   72.8150  221.9380 O   0  0  0  0  0  0  0  0  0  0  0  0
  140.3450   72.6570  222.5930 C   0  0  0  0  0  0  0  0  0  0  0  0
  139.2550   73.6010  222.3380 N   0  0  0  0  0  0  0  0  0  0  0  0
  139.5450   74.5920  221.3650 C   0  0  0  0  0  0  0  0  0  0  0  0
  139.4810   75.9990  221.6400 C   0  0  0  0  0  0  0  0  0  0  0  0
  138.9150   76.2740  222.7950 O   0  0  0  0  0  0  0  0  0  0  0  0
  139.8930   77.1570  220.9380 N   0  0  0  0  0  0  0  0  0  0  0  0
  139.1020   77.8750  219.9900 C   0  0  0  0  0  0  0  0  0  0  0  0
  139.6230   79.1680  219.4820 C   0  0  0  0  0  0  0  0  0  0  0  0
  141.0980   79.2800  219.3160 C   0  0  0  0  0  0  0  0  0  0  0  0
  141.8680   78.2230  220.0130 C   0  0  0  0  0  0  0  0  0  0  0  0
  141.2460   77.6300  221.2050 C   0  0  1  0  0  0  0  0  0  0  0  0
  141.3120   78.3430  222.4940 C   0  0  0  0  0  0  0  0  0  0  0  0
  142.5250   79.2670  222.6120 C   0  0  0  0  0  0  0  0  0  0  0  0
  142.2760   80.1060  223.8470 C   0  0  0  0  0  0  0  0  0  0  0  0
  141.2470   81.1510  223.4520 C   0  0  0  0  0  0  0  0  0  0  0  0
  140.0310   80.4730  222.9000 C   0  0  0  0  0  0  0  0  0  0  0  0
  140.0830   78.9710  223.0330 C   0  0  0  0  0  0  0  0  0  0  0  0
  140.1620   71.5990  223.5690 C   0  0  0  0  0  0  0  0  0  0  0  0
  139.4910   70.4680  223.1580 C   0  0  0  0  0  0  0  0  0  0  0  0
  139.3130   69.4650  224.0750 C   0  0  0  0  0  0  0  0  0  0  0  0
  139.7790   69.5450  225.3790 C   0  0  0  0  0  0  0  0  0  0  0  0
  139.5890   68.5220  226.2840 C   0  0  0  0  0  0  0  0  0  0  0  0
  140.0710   68.6490  227.5740 C   0  0  0  0  0  0  0  0  0  0  0  0
  140.7430   69.8170  227.9330 C   0  0  0  0  0  0  0  0  0  0  0  0
  140.9320   70.8460  227.0180 C   0  0  0  0  0  0  0  0  0  0  0  0
  140.4450   70.7060  225.7280 C   0  0  0  0  0  0  0  0  0  0  0  0
  140.6080   71.6800  224.8170 N   0  0  0  0  0  0  0  0  0  0  0  0
  138.4240   73.4170  222.8920 H   0  0  0  0  0  0  0  0  0  0  0  0
  140.5738   74.3952  221.0292 H   0  0  0  0  0  0  0  0  0  0  0  0
  138.7057   74.4659  220.6653 H   0  0  0  0  0  0  0  0  0  0  0  0
  138.9570   77.2170  219.1205 H   0  0  0  0  0  0  0  0  0  0  0  0
  138.1905   78.1455  220.5431 H   0  0  0  0  0  0  0  0  0  0  0  0
  139.1631   79.3488  218.4992 H   0  0  0  0  0  0  0  0  0  0  0  0
  139.3642   79.9059  220.2556 H   0  0  0  0  0  0  0  0  0  0  0  0
  141.3298   79.2248  218.2421 H   0  0  0  0  0  0  0  0  0  0  0  0
  141.3957   80.2383  219.7666 H   0  0  0  0  0  0  0  0  0  0  0  0
  142.0478   77.4116  219.2924 H   0  0  0  0  0  0  0  0  0  0  0  0
  142.7771   78.7221  220.3796 H   0  0  0  0  0  0  0  0  0  0  0  0
  141.9329   76.7898  221.3844 H   0  0  0  0  0  0  0  0  0  0  0  0
  141.4394   77.4880  223.1743 H   0  0  0  0  0  0  0  0  0  0  0  0
  143.4470   78.6782  222.7268 H   0  0  0  0  0  0  0  0  0  0  0  0
  142.6521   79.8900  221.7144 H   0  0  0  0  0  0  0  0  0  0  0  0
  141.8874   79.4779  224.6622 H   0  0  0  0  0  0  0  0  0  0  0  0
  143.2043   80.5746  224.2059 H   0  0  0  0  0  0  0  0  0  0  0  0
  140.9671   81.7422  224.3364 H   0  0  0  0  0  0  0  0  0  0  0  0
  141.6750   81.8150  222.6865 H   0  0  0  0  0  0  0  0  0  0  0  0
  139.1474   80.8426  223.4410 H   0  0  0  0  0  0  0  0  0  0  0  0
  139.9822   80.7071  221.8263 H   0  0  0  0  0  0  0  0  0  0  0  0
  140.0099   78.7191  224.1013 H   0  0  0  0  0  0  0  0  0  0  0  0
  139.2464   78.5776  222.4368 H   0  0  0  0  0  0  0  0  0  0  0  0
  139.1114   70.3733  222.1299 H   0  0  0  0  0  0  0  0  0  0  0  0
  138.7770   68.5565  223.7631 H   0  0  0  0  0  0  0  0  0  0  0  0
  139.0562   67.6086  225.9810 H   0  0  0  0  0  0  0  0  0  0  0  0
  139.9265   67.8407  228.3060 H   0  0  0  0  0  0  0  0  0  0  0  0
  141.1298   69.9257  228.9570 H   0  0  0  0  0  0  0  0  0  0  0  0
  141.4629   71.7625  227.3148 H   0  0  0  0  0  0  0  0  0  0  0  0
  1  2  2  0
  2  3  1  0
  3  4  1  0
  4  5  1  0
  5  6  2  0
  5  7  1  0
  7  8  1  0
  8  9  1  0
  9 10  1  0
 10 11  1  0
 11 12  1  0
 12 13  1  0
 13 14  1  0
 14 15  1  0
 15 16  1  0
 16 17  1  0
 17 18  1  0
  2 19  1  0
 19 20  2  0
 20 21  1  0
 21 22  2  0
 22 23  1  0
 23 24  2  0
 24 25  1  0
 25 26  2  0
 26 27  1  0
 27 28  2  0
 12  7  1  0
 18 13  1  0
 28 19  1  0
 27 22  1  0
  3 29  1  0
  4 30  1  0
  4 31  1  0
  8 32  1  0
  8 33  1  0
  9 34  1  0
  9 35  1  0
 10 36  1  0
 10 37  1  0
 11 38  1  0
 11 39  1  0
 12 40  1  1
 13 41  1  0
 14 42  1  0
 14 43  1  0
 15 44  1  0
 15 45  1  0
 16 46  1  0
 16 47  1  0
 17 48  1  0
 17 49  1  0
 18 50  1  0
 18 51  1  0
 20 52  1  0
 21 53  1  0
 23 54  1  0
 24 55  1  0
 25 56  1  0
 26 57  1  0
M  END
>  <smiles>  (89) 
O=C(NCC(=O)N1CCCCC1C1CCCCC1)c1ccc2ccccc2n1

>  <score_type>  (89) 
oracle

>  <origin>  (89) 
autodockgpu

>  <m_score__min__energy>  (89) 
-9.0199999999999996

>  <m_primary>  (89) 
energy

>  <rmsd>  (89) 
2.1393047912216683

>  <m_score__min__rmsd>  (89) 
2.1393047912216683

>  <meeko>  (89) 
{"free_energy": -8.81, "intermolecular_energy": -10.3, "internal_energy": -1.48, "cluster_size": 34, "cluster_id": 1, "rank_in_cluster": 22}

>  <energy>  (89) 
-8.3

>  <cluster_rmsd>  (89) 
0.14

>  <cluster>  (89) 
3

$$$$

     RDKit          3D

 57 60  0  0  0  0  0  0  0  0999 V2000
  138.9950   75.2110  221.5850 O   0  0  0  0  0  0  0  0  0  0  0  0
  140.1200   75.7110  221.8680 C   0  0  0  0  0  0  0  0  0  0  0  0
  141.2990   74.8660  221.6690 N   0  0  0  0  0  0  0  0  0  0  0  0
  141.0210   73.5670  221.1710 C   0  0  0  0  0  0  0  0  0  0  0  0
  142.0020   72.7580  220.5060 C   0  0  0  0  0  0  0  0  0  0  0  0
  141.4860   71.7010  219.9170 O   0  0  0  0  0  0  0  0  0  0  0  0
  143.4050   72.8500  220.3440 N   0  0  0  0  0  0  0  0  0  0  0  0
  144.2720   71.7610  220.0250 C   0  0  0  0  0  0  0  0  0  0  0  0
  145.6920   72.0670  219.7160 C   0  0  0  0  0  0  0  0  0  0  0  0
  146.3130   73.1980  220.4580 C   0  0  0  0  0  0  0  0  0  0  0  0
  145.3390   74.0870  221.1330 C   0  0  0  0  0  0  0  0  0  0  0  0
  143.9970   74.1670  220.5400 C   0  0  1  0  0  0  0  0  0  0  0  0
  143.7690   75.0300  219.3660 C   0  0  0  0  0  0  0  0  0  0  0  0
  142.9810   74.3380  218.2530 C   0  0  0  0  0  0  0  0  0  0  0  0
  142.6050   75.4370  217.2800 C   0  0  0  0  0  0  0  0  0  0  0  0
  141.4560   76.1970  217.9190 C   0  0  0  0  0  0  0  0  0  0  0  0
  141.8660   76.6760  219.2780 C   0  0  0  0  0  0  0  0  0  0  0  0
  143.3240   76.4270  219.5750 C   0  0  0  0  0  0  0  0  0  0  0  0
  140.2840   77.0610  222.3730 C   0  0  0  0  0  0  0  0  0  0  0  0
  139.1430   77.7480  222.7260 C   0  0  0  0  0  0  0  0  0  0  0  0
  139.2900   79.0240  223.2030 C   0  0  0  0  0  0  0  0  0  0  0  0
  140.5260   79.6380  223.3430 C   0  0  0  0  0  0  0  0  0  0  0  0
  140.6500   80.9240  223.8270 C   0  0  0  0  0  0  0  0  0  0  0  0
  141.9040   81.4930  223.9480 C   0  0  0  0  0  0  0  0  0  0  0  0
  143.0230   80.7490  223.5750 C   0  0  0  0  0  0  0  0  0  0  0  0
  142.8940   79.4540  223.0880 C   0  0  0  0  0  0  0  0  0  0  0  0
  141.6320   78.8950  222.9730 C   0  0  0  0  0  0  0  0  0  0  0  0
  141.4690   77.6450  222.5050 N   0  0  0  0  0  0  0  0  0  0  0  0
  142.1710   75.3270  221.9100 H   0  0  0  0  0  0  0  0  0  0  0  0
  140.6780   72.9784  222.0347 H   0  0  0  0  0  0  0  0  0  0  0  0
  140.3264   73.7911  220.3480 H   0  0  0  0  0  0  0  0  0  0  0  0
  144.2650   71.0748  220.8847 H   0  0  0  0  0  0  0  0  0  0  0  0
  143.8682   71.3547  219.0859 H   0  0  0  0  0  0  0  0  0  0  0  0
  146.2815   71.1638  219.9324 H   0  0  0  0  0  0  0  0  0  0  0  0
  145.6956   72.3791  218.6612 H   0  0  0  0  0  0  0  0  0  0  0  0
  146.9870   72.7817  221.2211 H   0  0  0  0  0  0  0  0  0  0  0  0
  146.8408   73.8130  219.7143 H   0  0  0  0  0  0  0  0  0  0  0  0
  145.2254   73.7321  222.1679 H   0  0  0  0  0  0  0  0  0  0  0  0
  145.7578   75.0997  221.0378 H   0  0  0  0  0  0  0  0  0  0  0  0
  143.4699   74.7249  221.3280 H   0  0  0  0  0  0  0  0  0  0  0  0
  144.8081   75.1783  219.0370 H   0  0  0  0  0  0  0  0  0  0  0  0
  143.6037   73.5801  217.7551 H   0  0  0  0  0  0  0  0  0  0  0  0
  142.0941   73.8176  218.6436 H   0  0  0  0  0  0  0  0  0  0  0  0
  143.4605   76.1084  217.1145 H   0  0  0  0  0  0  0  0  0  0  0  0
  142.3165   75.0239  216.3022 H   0  0  0  0  0  0  0  0  0  0  0  0
  141.1932   77.0604  217.2901 H   0  0  0  0  0  0  0  0  0  0  0  0
  140.5849   75.5319  218.0130 H   0  0  0  0  0  0  0  0  0  0  0  0
  141.6750   77.7575  219.3410 H   0  0  0  0  0  0  0  0  0  0  0  0
  141.2783   76.1119  220.0172 H   0  0  0  0  0  0  0  0  0  0  0  0
  143.9228   77.0786  218.9216 H   0  0  0  0  0  0  0  0  0  0  0  0
  143.4636   76.6404  220.6450 H   0  0  0  0  0  0  0  0  0  0  0  0
  138.1486   77.2880  222.6283 H   0  0  0  0  0  0  0  0  0  0  0  0
  138.3883   79.5862  223.4874 H   0  0  0  0  0  0  0  0  0  0  0  0
  139.7547   81.4942  224.1154 H   0  0  0  0  0  0  0  0  0  0  0  0
  142.0175   82.5172  224.3327 H   0  0  0  0  0  0  0  0  0  0  0  0
  144.0244   81.1947  223.6678 H   0  0  0  0  0  0  0  0  0  0  0  0
  143.7851   78.8786  222.7967 H   0  0  0  0  0  0  0  0  0  0  0  0
  1  2  2  0
  2  3  1  0
  3  4  1  0
  4  5  1  0
  5  6  2  0
  5  7  1  0
  7  8  1  0
  8  9  1  0
  9 10  1  0
 10 11  1  0
 11 12  1  0
 12 13  1  0
 13 14  1  0
 14 15  1  0
 15 16  1  0
 16 17  1  0
 17 18  1  0
  2 19  1  0
 19 20  2  0
 20 21  1  0
 21 22  2  0
 22 23  1  0
 23 24  2  0
 24 25  1  0
 25 26  2  0
 26 27  1  0
 27 28  2  0
 12  7  1  0
 18 13  1  0
 28 19  1  0
 27 22  1  0
  3 29  1  0
  4 30  1  0
  4 31  1  0
  8 32  1  0
  8 33  1  0
  9 34  1  0
  9 35  1  0
 10 36  1  0
 10 37  1  0
 11 38  1  0
 11 39  1  0
 12 40  1  1
 13 41  1  0
 14 42  1  0
 14 43  1  0
 15 44  1  0
 15 45  1  0
 16 46  1  0
 16 47  1  0
 17 48  1  0
 17 49  1  0
 18 50  1  0
 18 51  1  0
 20 52  1  0
 21 53  1  0
 23 54  1  0
 24 55  1  0
 25 56  1  0
 26 57  1  0
M  END
>  <smiles>  (90) 
O=C(NCC(=O)N1CCCCC1C1CCCCC1)c1ccc2ccccc2n1

>  <score_type>  (90) 
oracle

>  <origin>  (90) 
autodockgpu

>  <m_score__min__energy>  (90) 
-9.0199999999999996

>  <m_primary>  (90) 
energy

>  <rmsd>  (90) 
7.762732252224376

>  <m_score__min__rmsd>  (90) 
7.762732252224376

>  <meeko>  (90) 
{"free_energy": -7.47, "intermolecular_energy": -8.96, "internal_energy": -2.28, "cluster_size": 7, "cluster_id": 4, "rank_in_cluster": 7}

>  <energy>  (90) 
-8.3

>  <cluster_rmsd>  (90) 
0.27

>  <cluster>  (90) 
3

$$$$

     RDKit          3D

 57 60  0  0  0  0  0  0  0  0999 V2000
  140.6380   74.3530  220.3840 O   0  0  0  0  0  0  0  0  0  0  0  0
  140.3300   75.1150  221.3430 C   0  0  0  0  0  0  0  0  0  0  0  0
  139.3940   74.5920  222.3420 N   0  0  0  0  0  0  0  0  0  0  0  0
  138.9450   73.2690  222.0990 C   0  0  0  0  0  0  0  0  0  0  0  0
  139.6880   72.1070  222.4930 C   0  0  0  0  0  0  0  0  0  0  0  0
  140.9520   72.3650  222.7520 O   0  0  0  0  0  0  0  0  0  0  0  0
  139.3580   70.7410  222.6650 N   0  0  0  0  0  0  0  0  0  0  0  0
  139.4110   69.7440  221.6440 C   0  0  0  0  0  0  0  0  0  0  0  0
  139.2040   68.3270  222.0390 C   0  0  0  0  0  0  0  0  0  0  0  0
  138.2450   68.0730  223.1490 C   0  0  0  0  0  0  0  0  0  0  0  0
  137.9030   69.2770  223.9430 C   0  0  0  0  0  0  0  0  0  0  0  0
  138.9130   70.3420  223.9950 C   0  0  1  0  0  0  0  0  0  0  0  0
  140.0550   70.2200  224.9190 C   0  0  0  0  0  0  0  0  0  0  0  0
  140.3660   71.5160  225.6700 C   0  0  0  0  0  0  0  0  0  0  0  0
  141.3530   71.1300  226.7520 C   0  0  0  0  0  0  0  0  0  0  0  0
  140.5470   70.4390  227.8380 C   0  0  0  0  0  0  0  0  0  0  0  0
  139.7880   69.2920  227.2440 C   0  0  0  0  0  0  0  0  0  0  0  0
  140.1440   69.0330  225.8020 C   0  0  0  0  0  0  0  0  0  0  0  0
  140.8560   76.4590  221.4890 C   0  0  0  0  0  0  0  0  0  0  0  0
  141.2880   77.0970  220.3480 C   0  0  0  0  0  0  0  0  0  0  0  0
  141.7870   78.3670  220.4780 C   0  0  0  0  0  0  0  0  0  0  0  0
  141.8690   79.0220  221.6980 C   0  0  0  0  0  0  0  0  0  0  0  0
  142.3750   80.3000  221.8050 C   0  0  0  0  0  0  0  0  0  0  0  0
  142.4380   80.9120  223.0440 C   0  0  0  0  0  0  0  0  0  0  0  0
  141.9850   80.2160  224.1650 C   0  0  0  0  0  0  0  0  0  0  0  0
  141.4770   78.9280  224.0520 C   0  0  0  0  0  0  0  0  0  0  0  0
  141.4190   78.3270  222.8050 C   0  0  0  0  0  0  0  0  0  0  0  0
  140.9340   77.0820  222.6590 N   0  0  0  0  0  0  0  0  0  0  0  0
  139.1920   75.2510  223.0880 H   0  0  0  0  0  0  0  0  0  0  0  0
  137.9664   73.1853  222.5944 H   0  0  0  0  0  0  0  0  0  0  0  0
  139.0123   73.2118  221.0026 H   0  0  0  0  0  0  0  0  0  0  0  0
  138.6367   69.9932  220.9035 H   0  0  0  0  0  0  0  0  0  0  0  0
  140.4489   69.7784  221.2813 H   0  0  0  0  0  0  0  0  0  0  0  0
  138.8399   67.7846  221.1540 H   0  0  0  0  0  0  0  0  0  0  0  0
  140.1795   67.9884  222.4182 H   0  0  0  0  0  0  0  0  0  0  0  0
  137.3172   67.6690  222.7178 H   0  0  0  0  0  0  0  0  0  0  0  0
  138.7365   67.3694  223.8370 H   0  0  0  0  0  0  0  0  0  0  0  0
  136.9856   69.7083  223.5159 H   0  0  0  0  0  0  0  0  0  0  0  0
  137.8045   68.9214  224.9792 H   0  0  0  0  0  0  0  0  0  0  0  0
  138.3270   71.1402  224.4741 H   0  0  0  0  0  0  0  0  0  0  0  0
  140.8589   70.0172  224.1961 H   0  0  0  0  0  0  0  0  0  0  0  0
  140.8115   72.2570  224.9899 H   0  0  0  0  0  0  0  0  0  0  0  0
  139.4575   71.9721  226.0903 H   0  0  0  0  0  0  0  0  0  0  0  0
  142.1128   70.4451  226.3476 H   0  0  0  0  0  0  0  0  0  0  0  0
  141.8799   72.0118  227.1453 H   0  0  0  0  0  0  0  0  0  0  0  0
  141.2272   70.0643  228.6170 H   0  0  0  0  0  0  0  0  0  0  0  0
  139.8402   71.1556  228.2818 H   0  0  0  0  0  0  0  0  0  0  0  0
  140.0087   68.3861  227.8276 H   0  0  0  0  0  0  0  0  0  0  0  0
  138.7197   69.5522  227.2773 H   0  0  0  0  0  0  0  0  0  0  0  0
  141.1769   68.6563  225.7665 H   0  0  0  0  0  0  0  0  0  0  0  0
  139.4061   68.3095  225.4251 H   0  0  0  0  0  0  0  0  0  0  0  0
  141.2345   76.6045  219.3659 H   0  0  0  0  0  0  0  0  0  0  0  0
  142.1376   78.8894  219.5757 H   0  0  0  0  0  0  0  0  0  0  0  0
  142.7273   80.8311  220.9084 H   0  0  0  0  0  0  0  0  0  0  0  0
  142.8390   81.9314  223.1438 H   0  0  0  0  0  0  0  0  0  0  0  0
  142.0308   80.6948  225.1543 H   0  0  0  0  0  0  0  0  0  0  0  0
  141.1241   78.3902  224.9443 H   0  0  0  0  0  0  0  0  0  0  0  0
  1  2  2  0
  2  3  1  0
  3  4  1  0
  4  5  1  0
  5  6  2  0
  5  7  1  0
  7  8  1  0
  8  9  1  0
  9 10  1  0
 10 11  1  0
 11 12  1  0
 12 13  1  0
 13 14  1  0
 14 15  1  0
 15 16  1  0
 16 17  1  0
 17 18  1  0
  2 19  1  0
 19 20  2  0
 20 21  1  0
 21 22  2  0
 22 23  1  0
 23 24  2  0
 24 25  1  0
 25 26  2  0
 26 27  1  0
 27 28  2  0
 12  7  1  0
 18 13  1  0
 28 19  1  0
 27 22  1  0
  3 29  1  0
  4 30  1  0
  4 31  1  0
  8 32  1  0
  8 33  1  0
  9 34  1  0
  9 35  1  0
 10 36  1  0
 10 37  1  0
 11 38  1  0
 11 39  1  0
 12 40  1  1
 13 41  1  0
 14 42  1  0
 14 43  1  0
 15 44  1  0
 15 45  1  0
 16 46  1  0
 16 47  1  0
 17 48  1  0
 17 49  1  0
 18 50  1  0
 18 51  1  0
 20 52  1  0
 21 53  1  0
 23 54  1  0
 24 55  1  0
 25 56  1  0
 26 57  1  0
M  END
>  <smiles>  (91) 
O=C(NCC(=O)N1CCCCC1C1CCCCC1)c1ccc2ccccc2n1

>  <score_type>  (91) 
oracle

>  <origin>  (91) 
autodockgpu

>  <m_score__min__energy>  (91) 
-9.0199999999999996

>  <m_primary>  (91) 
energy

>  <rmsd>  (91) 
8.321839109859418

>  <m_score__min__rmsd>  (91) 
8.321839109859418

>  <meeko>  (91) 
{"free_energy": -8.63, "intermolecular_energy": -10.12, "internal_energy": -1.6, "cluster_size": 3, "cluster_id": 2, "rank_in_cluster": 2}

>  <energy>  (91) 
-8.29

>  <cluster_rmsd>  (91) 
0.3

>  <cluster>  (91) 
3

$$$$

     RDKit          3D

 57 60  0  0  0  0  0  0  0  0999 V2000
  141.3840   72.2220  221.6930 O   0  0  0  0  0  0  0  0  0  0  0  0
  140.4720   72.4250  222.5430 C   0  0  0  0  0  0  0  0  0  0  0  0
  139.6060   73.5880  222.3340 N   0  0  0  0  0  0  0  0  0  0  0  0
  139.9070   74.3520  221.1780 C   0  0  0  0  0  0  0  0  0  0  0  0
  139.7660   75.7780  221.1250 C   0  0  0  0  0  0  0  0  0  0  0  0
  139.0880   76.2680  222.1410 O   0  0  0  0  0  0  0  0  0  0  0  0
  140.1970   76.7760  220.2180 N   0  0  0  0  0  0  0  0  0  0  0  0
  139.5800   77.0750  218.9650 C   0  0  0  0  0  0  0  0  0  0  0  0
  140.0530   78.2710  218.2220 C   0  0  0  0  0  0  0  0  0  0  0  0
  141.5000   78.6010  218.3300 C   0  0  0  0  0  0  0  0  0  0  0  0
  142.1970   77.9120  219.4420 C   0  0  0  0  0  0  0  0  0  0  0  0
  141.3790   77.5370  220.6030 C   0  0  1  0  0  0  0  0  0  0  0  0
  141.0450   78.5530  221.6190 C   0  0  0  0  0  0  0  0  0  0  0  0
  141.4110   78.1280  223.0410 C   0  0  0  0  0  0  0  0  0  0  0  0
  141.2650   79.3760  223.8870 C   0  0  0  0  0  0  0  0  0  0  0  0
  142.4860   80.2320  223.5970 C   0  0  0  0  0  0  0  0  0  0  0  0
  142.5840   80.4810  222.1230 C   0  0  0  0  0  0  0  0  0  0  0  0
  141.3880   79.9710  221.3580 C   0  0  0  0  0  0  0  0  0  0  0  0
  140.2560   71.5700  223.6950 C   0  0  0  0  0  0  0  0  0  0  0  0
  139.5870   70.3840  223.4860 C   0  0  0  0  0  0  0  0  0  0  0  0
  139.3800   69.5710  224.5690 C   0  0  0  0  0  0  0  0  0  0  0  0
  139.8130   69.8930  225.8470 C   0  0  0  0  0  0  0  0  0  0  0  0
  139.5920   69.0580  226.9230 C   0  0  0  0  0  0  0  0  0  0  0  0
  140.0430   69.4230  228.1780 C   0  0  0  0  0  0  0  0  0  0  0  0
  140.7140   70.6360  228.3290 C   0  0  0  0  0  0  0  0  0  0  0  0
  140.9340   71.4750  227.2420 C   0  0  0  0  0  0  0  0  0  0  0  0
  140.4780   71.0970  225.9900 C   0  0  0  0  0  0  0  0  0  0  0  0
  140.6720   71.8820  224.9160 N   0  0  0  0  0  0  0  0  0  0  0  0
  138.8920   73.6920  223.0490 H   0  0  0  0  0  0  0  0  0  0  0  0
  140.9610   74.1429  220.9427 H   0  0  0  0  0  0  0  0  0  0  0  0
  139.1147   74.0271  220.4875 H   0  0  0  0  0  0  0  0  0  0  0  0
  139.7293   76.2034  218.3107 H   0  0  0  0  0  0  0  0  0  0  0  0
  138.5357   77.3065  219.2216 H   0  0  0  0  0  0  0  0  0  0  0  0
  139.8268   78.1119  217.1573 H   0  0  0  0  0  0  0  0  0  0  0  0
  139.5294   79.1213  218.6834 H   0  0  0  0  0  0  0  0  0  0  0  0
  141.9902   78.3177  217.3869 H   0  0  0  0  0  0  0  0  0  0  0  0
  141.5646   79.6797  218.5354 H   0  0  0  0  0  0  0  0  0  0  0  0
  142.6420   76.9913  219.0367 H   0  0  0  0  0  0  0  0  0  0  0  0
  142.9233   78.6440  219.8250 H   0  0  0  0  0  0  0  0  0  0  0  0
  142.0965   76.9070  221.1492 H   0  0  0  0  0  0  0  0  0  0  0  0
  139.9499   78.5687  221.5163 H   0  0  0  0  0  0  0  0  0  0  0  0
  140.7281   77.3416  223.3949 H   0  0  0  0  0  0  0  0  0  0  0  0
  142.4295   77.7159  223.0942 H   0  0  0  0  0  0  0  0  0  0  0  0
  140.3470   79.9166  223.6133 H   0  0  0  0  0  0  0  0  0  0  0  0
  141.1948   79.1284  224.9565 H   0  0  0  0  0  0  0  0  0  0  0  0
  142.3942   81.1923  224.1256 H   0  0  0  0  0  0  0  0  0  0  0  0
  143.3903   79.7085  223.9409 H   0  0  0  0  0  0  0  0  0  0  0  0
  142.6710   81.5647  221.9556 H   0  0  0  0  0  0  0  0  0  0  0  0
  143.4662   79.9365  221.7554 H   0  0  0  0  0  0  0  0  0  0  0  0
  140.5192   80.5891  221.6284 H   0  0  0  0  0  0  0  0  0  0  0  0
  141.6502   80.0362  220.2917 H   0  0  0  0  0  0  0  0  0  0  0  0
  139.2315   70.0998  222.4846 H   0  0  0  0  0  0  0  0  0  0  0  0
  138.8468   68.6207  224.4186 H   0  0  0  0  0  0  0  0  0  0  0  0
  139.0592   68.1059  226.7829 H   0  0  0  0  0  0  0  0  0  0  0  0
  139.8750   68.7663  229.0444 H   0  0  0  0  0  0  0  0  0  0  0  0
  141.0752   70.9341  229.3243 H   0  0  0  0  0  0  0  0  0  0  0  0
  141.4648   72.4292  227.3752 H   0  0  0  0  0  0  0  0  0  0  0  0
  1  2  2  0
  2  3  1  0
  3  4  1  0
  4  5  1  0
  5  6  2  0
  5  7  1  0
  7  8  1  0
  8  9  1  0
  9 10  1  0
 10 11  1  0
 11 12  1  0
 12 13  1  0
 13 14  1  0
 14 15  1  0
 15 16  1  0
 16 17  1  0
 17 18  1  0
  2 19  1  0
 19 20  2  0
 20 21  1  0
 21 22  2  0
 22 23  1  0
 23 24  2  0
 24 25  1  0
 25 26  2  0
 26 27  1  0
 27 28  2  0
 12  7  1  0
 18 13  1  0
 28 19  1  0
 27 22  1  0
  3 29  1  0
  4 30  1  0
  4 31  1  0
  8 32  1  0
  8 33  1  0
  9 34  1  0
  9 35  1  0
 10 36  1  0
 10 37  1  0
 11 38  1  0
 11 39  1  0
 12 40  1  1
 13 41  1  0
 14 42  1  0
 14 43  1  0
 15 44  1  0
 15 45  1  0
 16 46  1  0
 16 47  1  0
 17 48  1  0
 17 49  1  0
 18 50  1  0
 18 51  1  0
 20 52  1  0
 21 53  1  0
 23 54  1  0
 24 55  1  0
 25 56  1  0
 26 57  1  0
M  END
>  <smiles>  (92) 
O=C(NCC(=O)N1CCCCC1C1CCCCC1)c1ccc2ccccc2n1

>  <score_type>  (92) 
oracle

>  <origin>  (92) 
autodockgpu

>  <m_score__min__energy>  (92) 
-9.0199999999999996

>  <m_primary>  (92) 
energy

>  <rmsd>  (92) 
1.7602099374419222

>  <m_score__min__rmsd>  (92) 
1.7602099374419222

>  <meeko>  (92) 
{"free_energy": -8.88, "intermolecular_energy": -10.38, "internal_energy": -1.43, "cluster_size": 34, "cluster_id": 1, "rank_in_cluster": 18}

>  <energy>  (92) 
-8.2

>  <cluster_rmsd>  (92) 
0.31

>  <cluster>  (92) 
3

$$$$

     RDKit          3D

 57 60  0  0  0  0  0  0  0  0999 V2000
  141.4500   71.9930  221.5790 O   0  0  0  0  0  0  0  0  0  0  0  0
  140.6500   72.3690  222.4810 C   0  0  0  0  0  0  0  0  0  0  0  0
  140.0390   73.6910  222.3270 N   0  0  0  0  0  0  0  0  0  0  0  0
  140.4310   74.3940  221.1590 C   0  0  0  0  0  0  0  0  0  0  0  0
  139.9440   75.7040  220.8340 C   0  0  0  0  0  0  0  0  0  0  0  0
  140.4470   76.1800  219.7160 O   0  0  0  0  0  0  0  0  0  0  0  0
  139.0390   76.5970  221.4560 N   0  0  0  0  0  0  0  0  0  0  0  0
  137.8300   76.2210  222.1170 C   0  0  0  0  0  0  0  0  0  0  0  0
  137.0900   77.2670  222.8690 C   0  0  0  0  0  0  0  0  0  0  0  0
  137.1260   78.6470  222.3120 C   0  0  0  0  0  0  0  0  0  0  0  0
  138.1800   78.8620  221.2930 C   0  0  0  0  0  0  0  0  0  0  0  0
  139.3760   78.0140  221.3900 C   0  0  1  0  0  0  0  0  0  0  0  0
  140.4330   78.3510  222.3610 C   0  0  0  0  0  0  0  0  0  0  0  0
  141.7310   78.8190  221.7030 C   0  0  0  0  0  0  0  0  0  0  0  0
  142.5760   79.3790  222.8280 C   0  0  0  0  0  0  0  0  0  0  0  0
  141.9970   80.7440  223.1570 C   0  0  0  0  0  0  0  0  0  0  0  0
  140.5400   80.6060  223.4760 C   0  0  0  0  0  0  0  0  0  0  0  0
  140.0860   79.1690  223.5470 C   0  0  0  0  0  0  0  0  0  0  0  0
  140.3220   71.5590  223.6390 C   0  0  0  0  0  0  0  0  0  0  0  0
  139.6110   70.4000  223.4190 C   0  0  0  0  0  0  0  0  0  0  0  0
  139.2970   69.6300  224.5090 C   0  0  0  0  0  0  0  0  0  0  0  0
  139.6650   69.9700  225.8030 C   0  0  0  0  0  0  0  0  0  0  0  0
  139.3380   69.1790  226.8840 C   0  0  0  0  0  0  0  0  0  0  0  0
  139.7260   69.5600  228.1550 C   0  0  0  0  0  0  0  0  0  0  0  0
  140.4450   70.7440  228.3160 C   0  0  0  0  0  0  0  0  0  0  0  0
  140.7720   71.5380  227.2230 C   0  0  0  0  0  0  0  0  0  0  0  0
  140.3770   71.1450  225.9550 C   0  0  0  0  0  0  0  0  0  0  0  0
  140.6760   71.8880  224.8750 N   0  0  0  0  0  0  0  0  0  0  0  0
  139.4030   73.9310  223.0810 H   0  0  0  0  0  0  0  0  0  0  0  0
  141.5261   74.4825  221.2120 H   0  0  0  0  0  0  0  0  0  0  0  0
  139.9663   73.7849  220.3697 H   0  0  0  0  0  0  0  0  0  0  0  0
  137.1477   75.8255  221.3502 H   0  0  0  0  0  0  0  0  0  0  0  0
  138.1505   75.5045  222.8877 H   0  0  0  0  0  0  0  0  0  0  0  0
  136.0360   76.9566  222.9208 H   0  0  0  0  0  0  0  0  0  0  0  0
  137.5989   77.3361  223.8418 H   0  0  0  0  0  0  0  0  0  0  0  0
  136.1505   78.8582  221.8496 H   0  0  0  0  0  0  0  0  0  0  0  0
  137.3542   79.3212  223.1507 H   0  0  0  0  0  0  0  0  0  0  0  0
  137.7283   78.6891  220.3050 H   0  0  0  0  0  0  0  0  0  0  0  0
  138.5393   79.8879  221.4615 H   0  0  0  0  0  0  0  0  0  0  0  0
  139.8663   78.2622  220.4371 H   0  0  0  0  0  0  0  0  0  0  0  0
  140.5932   77.3618  222.8147 H   0  0  0  0  0  0  0  0  0  0  0  0
  142.2441   77.9738  221.2209 H   0  0  0  0  0  0  0  0  0  0  0  0
  141.5444   79.5692  220.9205 H   0  0  0  0  0  0  0  0  0  0  0  0
  142.5235   78.7208  223.7078 H   0  0  0  0  0  0  0  0  0  0  0  0
  143.6336   79.4533  222.5349 H   0  0  0  0  0  0  0  0  0  0  0  0
  142.5239   81.1659  224.0255 H   0  0  0  0  0  0  0  0  0  0  0  0
  142.1207   81.4123  222.2921 H   0  0  0  0  0  0  0  0  0  0  0  0
  140.3472   81.0830  224.4483 H   0  0  0  0  0  0  0  0  0  0  0  0
  139.9778   81.0891  222.6632 H   0  0  0  0  0  0  0  0  0  0  0  0
  140.5503   78.7062  224.4303 H   0  0  0  0  0  0  0  0  0  0  0  0
  138.9874   79.1923  223.5979 H   0  0  0  0  0  0  0  0  0  0  0  0
  139.3059   70.1028  222.4048 H   0  0  0  0  0  0  0  0  0  0  0  0
  138.7283   68.7018  224.3508 H   0  0  0  0  0  0  0  0  0  0  0  0
  138.7706   68.2484  226.7356 H   0  0  0  0  0  0  0  0  0  0  0  0
  139.4714   68.9386  229.0262 H   0  0  0  0  0  0  0  0  0  0  0  0
  140.7583   71.0544  229.3237 H   0  0  0  0  0  0  0  0  0  0  0  0
  141.3393   72.4699  227.3638 H   0  0  0  0  0  0  0  0  0  0  0  0
  1  2  2  0
  2  3  1  0
  3  4  1  0
  4  5  1  0
  5  6  2  0
  5  7  1  0
  7  8  1  0
  8  9  1  0
  9 10  1  0
 10 11  1  0
 11 12  1  0
 12 13  1  0
 13 14  1  0
 14 15  1  0
 15 16  1  0
 16 17  1  0
 17 18  1  0
  2 19  1  0
 19 20  2  0
 20 21  1  0
 21 22  2  0
 22 23  1  0
 23 24  2  0
 24 25  1  0
 25 26  2  0
 26 27  1  0
 27 28  2  0
 12  7  1  0
 18 13  1  0
 28 19  1  0
 27 22  1  0
  3 29  1  0
  4 30  1  0
  4 31  1  0
  8 32  1  0
  8 33  1  0
  9 34  1  0
  9 35  1  0
 10 36  1  0
 10 37  1  0
 11 38  1  0
 11 39  1  0
 12 40  1  6
 13 41  1  0
 14 42  1  0
 14 43  1  0
 15 44  1  0
 15 45  1  0
 16 46  1  0
 16 47  1  0
 17 48  1  0
 17 49  1  0
 18 50  1  0
 18 51  1  0
 20 52  1  0
 21 53  1  0
 23 54  1  0
 24 55  1  0
 25 56  1  0
 26 57  1  0
M  END
>  <smiles>  (93) 
O=C(NCC(=O)N1CCCCC1C1CCCCC1)c1ccc2ccccc2n1

>  <score_type>  (93) 
oracle

>  <origin>  (93) 
autodockgpu

>  <m_score__min__energy>  (93) 
-9.0199999999999996

>  <m_primary>  (93) 
energy

>  <rmsd>  (93) 
3.090231529503204

>  <m_score__min__rmsd>  (93) 
3.090231529503204

>  <meeko>  (93) 
{"free_energy": -8.49, "intermolecular_energy": -9.98, "internal_energy": -1.37, "cluster_size": 34, "cluster_id": 1, "rank_in_cluster": 29}

>  <energy>  (93) 
-8.14

>  <cluster_rmsd>  (93) 
0.78

>  <cluster>  (93) 
3

$$$$

     RDKit          3D

 57 60  0  0  0  0  0  0  0  0999 V2000
  141.4300   72.7830  221.9360 O   0  0  0  0  0  0  0  0  0  0  0  0
  140.3780   72.6800  222.6280 C   0  0  0  0  0  0  0  0  0  0  0  0
  139.2890   73.6160  222.3370 N   0  0  0  0  0  0  0  0  0  0  0  0
  139.5610   74.5370  221.2930 C   0  0  0  0  0  0  0  0  0  0  0  0
  140.1690   75.8160  221.5180 C   0  0  0  0  0  0  0  0  0  0  0  0
  141.1910   75.7640  222.3450 O   0  0  0  0  0  0  0  0  0  0  0  0
  139.9090   77.1250  221.0460 N   0  0  0  0  0  0  0  0  0  0  0  0
  138.6390   77.6050  220.6010 C   0  0  0  0  0  0  0  0  0  0  0  0
  138.5050   79.0550  220.3070 C   0  0  0  0  0  0  0  0  0  0  0  0
  139.6970   79.7380  219.7340 C   0  0  0  0  0  0  0  0  0  0  0  0
  140.9580   78.9710  219.8690 C   0  0  0  0  0  0  0  0  0  0  0  0
  141.0450   78.0370  221.0000 C   0  0  1  0  0  0  0  0  0  0  0  0
  141.3670   78.5480  222.3460 C   0  0  0  0  0  0  0  0  0  0  0  0
  142.5530   79.5120  222.3570 C   0  0  0  0  0  0  0  0  0  0  0  0
  142.5530   80.1380  223.7370 C   0  0  0  0  0  0  0  0  0  0  0  0
  141.4370   81.1680  223.7380 C   0  0  0  0  0  0  0  0  0  0  0  0
  140.1480   80.5100  223.3470 C   0  0  0  0  0  0  0  0  0  0  0  0
  140.2660   79.0110  223.2220 C   0  0  0  0  0  0  0  0  0  0  0  0
  140.2120   71.6920  223.6770 C   0  0  0  0  0  0  0  0  0  0  0  0
  139.5180   70.5440  223.3610 C   0  0  0  0  0  0  0  0  0  0  0  0
  139.3570   69.6070  224.3470 C   0  0  0  0  0  0  0  0  0  0  0  0
  139.8610   69.7680  225.6300 C   0  0  0  0  0  0  0  0  0  0  0  0
  139.6870   68.8090  226.6060 C   0  0  0  0  0  0  0  0  0  0  0  0
  140.2070   69.0150  227.8700 C   0  0  0  0  0  0  0  0  0  0  0  0
  140.9010   70.1970  228.1310 C   0  0  0  0  0  0  0  0  0  0  0  0
  141.0740   71.1600  227.1440 C   0  0  0  0  0  0  0  0  0  0  0  0
  140.5480   70.9410  225.8810 C   0  0  0  0  0  0  0  0  0  0  0  0
  140.6960   71.8500  224.9030 N   0  0  0  0  0  0  0  0  0  0  0  0
  138.4720   73.4770  222.9240 H   0  0  0  0  0  0  0  0  0  0  0  0
  140.2187   74.0089  220.5869 H   0  0  0  0  0  0  0  0  0  0  0  0
  138.5454   74.8274  220.9860 H   0  0  0  0  0  0  0  0  0  0  0  0
  138.3881   77.0599  219.6791 H   0  0  0  0  0  0  0  0  0  0  0  0
  137.9666   77.4347  221.4548 H   0  0  0  0  0  0  0  0  0  0  0  0
  137.6777   79.1742  219.5919 H   0  0  0  0  0  0  0  0  0  0  0  0
  138.3428   79.5324  221.2846 H   0  0  0  0  0  0  0  0  0  0  0  0
  139.5129   79.9141  218.6639 H   0  0  0  0  0  0  0  0  0  0  0  0
  139.8311   80.6707  220.3016 H   0  0  0  0  0  0  0  0  0  0  0  0
  141.0948   78.3895  218.9454 H   0  0  0  0  0  0  0  0  0  0  0  0
  141.7362   79.7254  220.0569 H   0  0  0  0  0  0  0  0  0  0  0  0
  141.9718   77.5047  220.7397 H   0  0  0  0  0  0  0  0  0  0  0  0
  141.6589   77.6092  222.8394 H   0  0  0  0  0  0  0  0  0  0  0  0
  143.4926   78.9675  222.1818 H   0  0  0  0  0  0  0  0  0  0  0  0
  142.4697   80.2706  221.5647 H   0  0  0  0  0  0  0  0  0  0  0  0
  142.3644   79.3714  224.5030 H   0  0  0  0  0  0  0  0  0  0  0  0
  143.5243   80.6008  223.9660 H   0  0  0  0  0  0  0  0  0  0  0  0
  141.3375   81.5996  224.7449 H   0  0  0  0  0  0  0  0  0  0  0  0
  141.6741   81.9656  223.0185 H   0  0  0  0  0  0  0  0  0  0  0  0
  139.3911   80.7396  224.1115 H   0  0  0  0  0  0  0  0  0  0  0  0
  139.8650   80.9015  222.3588 H   0  0  0  0  0  0  0  0  0  0  0  0
  140.4298   78.5952  224.2271 H   0  0  0  0  0  0  0  0  0  0  0  0
  139.3317   78.6634  222.7570 H   0  0  0  0  0  0  0  0  0  0  0  0
  139.1079   70.3858  222.3526 H   0  0  0  0  0  0  0  0  0  0  0  0
  138.8036   68.6860  224.1115 H   0  0  0  0  0  0  0  0  0  0  0  0
  139.1366   67.8840  226.3793 H   0  0  0  0  0  0  0  0  0  0  0  0
  140.0757   68.2588  228.6580 H   0  0  0  0  0  0  0  0  0  0  0  0
  141.3179   70.3694  229.1342 H   0  0  0  0  0  0  0  0  0  0  0  0
  141.6234   72.0874  227.3634 H   0  0  0  0  0  0  0  0  0  0  0  0
  1  2  2  0
  2  3  1  0
  3  4  1  0
  4  5  1  0
  5  6  2  0
  5  7  1  0
  7  8  1  0
  8  9  1  0
  9 10  1  0
 10 11  1  0
 11 12  1  0
 12 13  1  0
 13 14  1  0
 14 15  1  0
 15 16  1  0
 16 17  1  0
 17 18  1  0
  2 19  1  0
 19 20  2  0
 20 21  1  0
 21 22  2  0
 22 23  1  0
 23 24  2  0
 24 25  1  0
 25 26  2  0
 26 27  1  0
 27 28  2  0
 12  7  1  0
 18 13  1  0
 28 19  1  0
 27 22  1  0
  3 29  1  0
  4 30  1  0
  4 31  1  0
  8 32  1  0
  8 33  1  0
  9 34  1  0
  9 35  1  0
 10 36  1  0
 10 37  1  0
 11 38  1  0
 11 39  1  0
 12 40  1  6
 13 41  1  0
 14 42  1  0
 14 43  1  0
 15 44  1  0
 15 45  1  0
 16 46  1  0
 16 47  1  0
 17 48  1  0
 17 49  1  0
 18 50  1  0
 18 51  1  0
 20 52  1  0
 21 53  1  0
 23 54  1  0
 24 55  1  0
 25 56  1  0
 26 57  1  0
M  END
>  <smiles>  (94) 
O=C(NCC(=O)N1CCCCC1C1CCCCC1)c1ccc2ccccc2n1

>  <score_type>  (94) 
oracle

>  <origin>  (94) 
autodockgpu

>  <m_score__min__energy>  (94) 
-9.0199999999999996

>  <m_primary>  (94) 
energy

>  <rmsd>  (94) 
2.26025806397022

>  <m_score__min__rmsd>  (94) 
2.26025806397022

>  <meeko>  (94) 
{"free_energy": -8.92, "intermolecular_energy": -10.41, "internal_energy": -1.35, "cluster_size": 34, "cluster_id": 1, "rank_in_cluster": 16}

>  <energy>  (94) 
-7.65

>  <cluster_rmsd>  (94) 
0.0

>  <cluster>  (94) 
4

$$$$

     RDKit          3D

 57 60  0  0  0  0  0  0  0  0999 V2000
  139.0110   75.1560  221.7530 O   0  0  0  0  0  0  0  0  0  0  0  0
  140.1290   75.7060  221.9610 C   0  0  0  0  0  0  0  0  0  0  0  0
  141.3280   74.8960  221.7380 N   0  0  0  0  0  0  0  0  0  0  0  0
  141.0750   73.5680  221.3070 C   0  0  0  0  0  0  0  0  0  0  0  0
  141.9340   72.8650  220.3980 C   0  0  0  0  0  0  0  0  0  0  0  0
  141.2780   72.0910  219.5620 O   0  0  0  0  0  0  0  0  0  0  0  0
  143.3350   72.8220  220.2050 N   0  0  0  0  0  0  0  0  0  0  0  0
  144.0760   71.6770  219.7790 C   0  0  0  0  0  0  0  0  0  0  0  0
  145.5140   71.8560  219.4560 C   0  0  0  0  0  0  0  0  0  0  0  0
  146.2660   72.8540  220.2650 C   0  0  0  0  0  0  0  0  0  0  0  0
  145.4050   73.7840  221.0330 C   0  0  0  0  0  0  0  0  0  0  0  0
  144.0680   74.0510  220.4860 C   0  0  1  0  0  0  0  0  0  0  0  0
  143.9100   75.0230  219.3880 C   0  0  0  0  0  0  0  0  0  0  0  0
  143.2490   74.4270  218.1440 C   0  0  0  0  0  0  0  0  0  0  0  0
  142.9180   75.6080  217.2560 C   0  0  0  0  0  0  0  0  0  0  0  0
  141.6890   76.2640  217.8610 C   0  0  0  0  0  0  0  0  0  0  0  0
  141.9600   76.6120  219.2930 C   0  0  0  0  0  0  0  0  0  0  0  0
  143.3960   76.3780  219.6940 C   0  0  0  0  0  0  0  0  0  0  0  0
  140.2660   77.0810  222.4040 C   0  0  0  0  0  0  0  0  0  0  0  0
  139.1090   77.7750  222.6820 C   0  0  0  0  0  0  0  0  0  0  0  0
  139.2310   79.0740  223.1000 C   0  0  0  0  0  0  0  0  0  0  0  0
  140.4570   79.7050  223.2520 C   0  0  0  0  0  0  0  0  0  0  0  0
  140.5550   81.0140  223.6750 C   0  0  0  0  0  0  0  0  0  0  0  0
  141.8010   81.6000  223.8110 C   0  0  0  0  0  0  0  0  0  0  0  0
  142.9370   80.8480  223.5140 C   0  0  0  0  0  0  0  0  0  0  0  0
  142.8340   79.5290  223.0880 C   0  0  0  0  0  0  0  0  0  0  0  0
  141.5800   78.9540  222.9570 C   0  0  0  0  0  0  0  0  0  0  0  0
  141.4420   77.6810  222.5470 N   0  0  0  0  0  0  0  0  0  0  0  0
  142.1920   75.3970  221.9180 H   0  0  0  0  0  0  0  0  0  0  0  0
  141.0336   72.9557  222.2199 H   0  0  0  0  0  0  0  0  0  0  0  0
  140.1707   73.7034  220.6955 H   0  0  0  0  0  0  0  0  0  0  0  0
  144.0123   70.9289  220.5830 H   0  0  0  0  0  0  0  0  0  0  0  0
  143.6138   71.3919  218.8224 H   0  0  0  0  0  0  0  0  0  0  0  0
  146.0079   70.8819  219.5868 H   0  0  0  0  0  0  0  0  0  0  0  0
  145.5308   72.2481  218.4284 H   0  0  0  0  0  0  0  0  0  0  0  0
  146.9067   72.3106  220.9751 H   0  0  0  0  0  0  0  0  0  0  0  0
  146.8416   73.4674  219.5562 H   0  0  0  0  0  0  0  0  0  0  0  0
  145.2745   73.3620  222.0404 H   0  0  0  0  0  0  0  0  0  0  0  0
  145.9273   74.7516  221.0036 H   0  0  0  0  0  0  0  0  0  0  0  0
  143.6195   74.5967  221.3292 H   0  0  0  0  0  0  0  0  0  0  0  0
  144.9677   75.2337  219.1712 H   0  0  0  0  0  0  0  0  0  0  0  0
  143.9412   73.7428  217.6314 H   0  0  0  0  0  0  0  0  0  0  0  0
  142.3516   73.8440  218.3986 H   0  0  0  0  0  0  0  0  0  0  0  0
  143.7583   76.3177  217.2369 H   0  0  0  0  0  0  0  0  0  0  0  0
  142.7324   75.2897  216.2196 H   0  0  0  0  0  0  0  0  0  0  0  0
  141.4492   77.1796  217.3006 H   0  0  0  0  0  0  0  0  0  0  0  0
  140.8392   75.5675  217.8083 H   0  0  0  0  0  0  0  0  0  0  0  0
  141.7216   77.6748  219.4468 H   0  0  0  0  0  0  0  0  0  0  0  0
  141.3331   75.9568  219.9157 H   0  0  0  0  0  0  0  0  0  0  0  0
  144.0234   77.1103  219.1648 H   0  0  0  0  0  0  0  0  0  0  0  0
  143.4351   76.4859  220.7880 H   0  0  0  0  0  0  0  0  0  0  0  0
  138.1216   77.3027  222.5722 H   0  0  0  0  0  0  0  0  0  0  0  0
  138.3162   79.6418  223.3251 H   0  0  0  0  0  0  0  0  0  0  0  0
  139.6461   81.5900  223.9034 H   0  0  0  0  0  0  0  0  0  0  0  0
  141.8939   82.6429  224.1482 H   0  0  0  0  0  0  0  0  0  0  0  0
  143.9315   81.3064  223.6186 H   0  0  0  0  0  0  0  0  0  0  0  0
  143.7387   78.9475  222.8572 H   0  0  0  0  0  0  0  0  0  0  0  0
  1  2  2  0
  2  3  1  0
  3  4  1  0
  4  5  1  0
  5  6  2  0
  5  7  1  0
  7  8  1  0
  8  9  1  0
  9 10  1  0
 10 11  1  0
 11 12  1  0
 12 13  1  0
 13 14  1  0
 14 15  1  0
 15 16  1  0
 16 17  1  0
 17 18  1  0
  2 19  1  0
 19 20  2  0
 20 21  1  0
 21 22  2  0
 22 23  1  0
 23 24  2  0
 24 25  1  0
 25 26  2  0
 26 27  1  0
 27 28  2  0
 12  7  1  0
 18 13  1  0
 28 19  1  0
 27 22  1  0
  3 29  1  0
  4 30  1  0
  4 31  1  0
  8 32  1  0
  8 33  1  0
  9 34  1  0
  9 35  1  0
 10 36  1  0
 10 37  1  0
 11 38  1  0
 11 39  1  0
 12 40  1  1
 13 41  1  0
 14 42  1  0
 14 43  1  0
 15 44  1  0
 15 45  1  0
 16 46  1  0
 16 47  1  0
 17 48  1  0
 17 49  1  0
 18 50  1  0
 18 51  1  0
 20 52  1  0
 21 53  1  0
 23 54  1  0
 24 55  1  0
 25 56  1  0
 26 57  1  0
M  END
>  <smiles>  (95) 
O=C(NCC(=O)N1CCCCC1C1CCCCC1)c1ccc2ccccc2n1

>  <score_type>  (95) 
oracle

>  <origin>  (95) 
autodockgpu

>  <m_score__min__energy>  (95) 
-9.0199999999999996

>  <m_primary>  (95) 
energy

>  <rmsd>  (95) 
7.79863882801686

>  <m_score__min__rmsd>  (95) 
7.79863882801686

>  <meeko>  (95) 
{"free_energy": -7.6, "intermolecular_energy": -9.09, "internal_energy": -2.38, "cluster_size": 7, "cluster_id": 4, "rank_in_cluster": 4}

>  <energy>  (95) 
-7.63

>  <cluster_rmsd>  (95) 
0.04

>  <cluster>  (95) 
4

$$$$

     RDKit          3D

 57 60  0  0  0  0  0  0  0  0999 V2000
  141.3470   71.8550  221.7480 O   0  0  0  0  0  0  0  0  0  0  0  0
  140.4020   72.0320  222.5680 C   0  0  0  0  0  0  0  0  0  0  0  0
  139.4600   73.1160  222.2830 N   0  0  0  0  0  0  0  0  0  0  0  0
  139.7330   73.8430  221.0970 C   0  0  0  0  0  0  0  0  0  0  0  0
  140.6740   74.9240  221.0420 C   0  0  0  0  0  0  0  0  0  0  0  0
  140.6440   75.6900  222.1110 O   0  0  0  0  0  0  0  0  0  0  0  0
  141.6290   75.3480  220.0880 N   0  0  0  0  0  0  0  0  0  0  0  0
  142.2040   76.6550  220.0170 C   0  0  0  0  0  0  0  0  0  0  0  0
  143.3220   76.8760  219.0660 C   0  0  0  0  0  0  0  0  0  0  0  0
  143.2780   76.1140  217.7880 C   0  0  0  0  0  0  0  0  0  0  0  0
  142.3250   74.9790  217.7910 C   0  0  0  0  0  0  0  0  0  0  0  0
  142.0360   74.3630  219.0930 C   0  0  1  0  0  0  0  0  0  0  0  0
  142.9870   73.3930  219.6680 C   0  0  0  0  0  0  0  0  0  0  0  0
  143.8500   72.6980  218.6150 C   0  0  0  0  0  0  0  0  0  0  0  0
  144.9310   71.9740  219.3920 C   0  0  0  0  0  0  0  0  0  0  0  0
  145.9280   73.0340  219.8240 C   0  0  0  0  0  0  0  0  0  0  0  0
  145.2180   74.1080  220.5900 C   0  0  0  0  0  0  0  0  0  0  0  0
  143.7720   73.7760  220.8640 C   0  0  0  0  0  0  0  0  0  0  0  0
  140.2210   71.2190  223.7570 C   0  0  0  0  0  0  0  0  0  0  0  0
  139.5020   70.0520  223.6210 C   0  0  0  0  0  0  0  0  0  0  0  0
  139.3260   69.2800  224.7400 C   0  0  0  0  0  0  0  0  0  0  0  0
  139.8390   69.6250  225.9820 C   0  0  0  0  0  0  0  0  0  0  0  0
  139.6490   68.8310  227.0940 C   0  0  0  0  0  0  0  0  0  0  0  0
  140.1790   69.2180  228.3110 C   0  0  0  0  0  0  0  0  0  0  0  0
  140.8980   70.4110  228.3870 C   0  0  0  0  0  0  0  0  0  0  0  0
  141.0860   71.2080  227.2640 C   0  0  0  0  0  0  0  0  0  0  0  0
  140.5510   70.8080  226.0500 C   0  0  0  0  0  0  0  0  0  0  0  0
  140.7120   71.5540  224.9440 N   0  0  0  0  0  0  0  0  0  0  0  0
  138.7230   73.2020  222.9760 H   0  0  0  0  0  0  0  0  0  0  0  0
  140.0788   73.1026  220.3606 H   0  0  0  0  0  0  0  0  0  0  0  0
  138.7814   74.3718  220.9394 H   0  0  0  0  0  0  0  0  0  0  0  0
  141.3985   77.3517  219.7418 H   0  0  0  0  0  0  0  0  0  0  0  0
  142.6535   76.8105  221.0088 H   0  0  0  0  0  0  0  0  0  0  0  0
  143.3379   77.9467  218.8144 H   0  0  0  0  0  0  0  0  0  0  0  0
  144.2192   76.5110  219.5874 H   0  0  0  0  0  0  0  0  0  0  0  0
  142.9882   76.8059  216.9834 H   0  0  0  0  0  0  0  0  0  0  0  0
  144.2802   75.6854  217.6404 H   0  0  0  0  0  0  0  0  0  0  0  0
  141.3733   75.3419  217.3755 H   0  0  0  0  0  0  0  0  0  0  0  0
  142.8135   74.1901  217.2003 H   0  0  0  0  0  0  0  0  0  0  0  0
  141.1958   73.7096  218.8152 H   0  0  0  0  0  0  0  0  0  0  0  0
  142.2792   72.6669  220.0945 H   0  0  0  0  0  0  0  0  0  0  0  0
  143.2480   71.9824  218.0357 H   0  0  0  0  0  0  0  0  0  0  0  0
  144.2741   73.4150  217.8966 H   0  0  0  0  0  0  0  0  0  0  0  0
  144.4986   71.4764  220.2726 H   0  0  0  0  0  0  0  0  0  0  0  0
  145.4128   71.1984  218.7785 H   0  0  0  0  0  0  0  0  0  0  0  0
  146.6965   72.5751  220.4634 H   0  0  0  0  0  0  0  0  0  0  0  0
  146.4037   73.4728  218.9345 H   0  0  0  0  0  0  0  0  0  0  0  0
  145.7331   74.2525  221.5511 H   0  0  0  0  0  0  0  0  0  0  0  0
  145.2364   75.0194  219.9744 H   0  0  0  0  0  0  0  0  0  0  0  0
  143.7419   72.9382  221.5762 H   0  0  0  0  0  0  0  0  0  0  0  0
  143.3116   74.6947  221.2564 H   0  0  0  0  0  0  0  0  0  0  0  0
  139.0840   69.7503  222.6493 H   0  0  0  0  0  0  0  0  0  0  0  0
  138.7527   68.3456  224.6492 H   0  0  0  0  0  0  0  0  0  0  0  0
  139.0784   67.8941  227.0128 H   0  0  0  0  0  0  0  0  0  0  0  0
  140.0358   68.5945  229.2059 H   0  0  0  0  0  0  0  0  0  0  0  0
  141.3231   70.7261  229.3514 H   0  0  0  0  0  0  0  0  0  0  0  0
  141.6539   72.1471  227.3382 H   0  0  0  0  0  0  0  0  0  0  0  0
  1  2  2  0
  2  3  1  0
  3  4  1  0
  4  5  1  0
  5  6  2  0
  5  7  1  0
  7  8  1  0
  8  9  1  0
  9 10  1  0
 10 11  1  0
 11 12  1  0
 12 13  1  0
 13 14  1  0
 14 15  1  0
 15 16  1  0
 16 17  1  0
 17 18  1  0
  2 19  1  0
 19 20  2  0
 20 21  1  0
 21 22  2  0
 22 23  1  0
 23 24  2  0
 24 25  1  0
 25 26  2  0
 26 27  1  0
 27 28  2  0
 12  7  1  0
 18 13  1  0
 28 19  1  0
 27 22  1  0
  3 29  1  0
  4 30  1  0
  4 31  1  0
  8 32  1  0
  8 33  1  0
  9 34  1  0
  9 35  1  0
 10 36  1  0
 10 37  1  0
 11 38  1  0
 11 39  1  0
 12 40  1  6
 13 41  1  0
 14 42  1  0
 14 43  1  0
 15 44  1  0
 15 45  1  0
 16 46  1  0
 16 47  1  0
 17 48  1  0
 17 49  1  0
 18 50  1  0
 18 51  1  0
 20 52  1  0
 21 53  1  0
 23 54  1  0
 24 55  1  0
 25 56  1  0
 26 57  1  0
M  END
>  <smiles>  (96) 
O=C(NCC(=O)N1CCCCC1C1CCCCC1)c1ccc2ccccc2n1

>  <score_type>  (96) 
oracle

>  <origin>  (96) 
autodockgpu

>  <m_score__min__energy>  (96) 
-9.0199999999999996

>  <m_primary>  (96) 
energy

>  <rmsd>  (96) 
2.3203114070312996

>  <m_score__min__rmsd>  (96) 
2.3203114070312996

>  <meeko>  (96) 
{"free_energy": -8.3, "intermolecular_energy": -9.8, "internal_energy": -1.85, "cluster_size": 6, "cluster_id": 3, "rank_in_cluster": 2}

>  <energy>  (96) 
-7.62

>  <cluster_rmsd>  (96) 
0.06

>  <cluster>  (96) 
4

$$$$

     RDKit          3D

 57 60  0  0  0  0  0  0  0  0999 V2000
  138.6150   72.0060  222.0300 O   0  0  0  0  0  0  0  0  0  0  0  0
  139.5970   71.9860  222.8240 C   0  0  0  0  0  0  0  0  0  0  0  0
  140.6670   72.9590  222.5940 N   0  0  0  0  0  0  0  0  0  0  0  0
  140.4590   73.8190  221.4850 C   0  0  0  0  0  0  0  0  0  0  0  0
  139.9890   75.1680  221.6190 C   0  0  0  0  0  0  0  0  0  0  0  0
  139.1990   75.3390  222.6570 O   0  0  0  0  0  0  0  0  0  0  0  0
  140.1910   76.3560  220.8780 N   0  0  0  0  0  0  0  0  0  0  0  0
  139.3440   76.8300  219.8290 C   0  0  0  0  0  0  0  0  0  0  0  0
  139.6040   78.1840  219.2800 C   0  0  0  0  0  0  0  0  0  0  0  0
  141.0240   78.6250  219.2180 C   0  0  0  0  0  0  0  0  0  0  0  0
  141.9480   77.8060  220.0380 C   0  0  0  0  0  0  0  0  0  0  0  0
  141.3730   77.1400  221.2150 C   0  0  1  0  0  0  0  0  0  0  0  0
  141.1630   77.9070  222.4570 C   0  0  0  0  0  0  0  0  0  0  0  0
  142.1890   79.0220  222.6590 C   0  0  0  0  0  0  0  0  0  0  0  0
  141.6570   79.8590  223.8040 C   0  0  0  0  0  0  0  0  0  0  0  0
  140.5330   80.7020  223.2280 C   0  0  0  0  0  0  0  0  0  0  0  0
  139.5190   79.8100  222.5800 C   0  0  0  0  0  0  0  0  0  0  0  0
  139.7920   78.3440  222.8100 C   0  0  0  0  0  0  0  0  0  0  0  0
  139.7030   71.0550  223.9320 C   0  0  0  0  0  0  0  0  0  0  0  0
  139.1560   69.8020  223.7600 C   0  0  0  0  0  0  0  0  0  0  0  0
  139.2510   68.9180  224.8020 C   0  0  0  0  0  0  0  0  0  0  0  0
  139.8700   69.2320  226.0030 C   0  0  0  0  0  0  0  0  0  0  0  0
  139.9540   68.3250  227.0380 C   0  0  0  0  0  0  0  0  0  0  0  0
  140.5800   68.6850  228.2180 C   0  0  0  0  0  0  0  0  0  0  0  0
  141.1150   69.9680  228.3340 C   0  0  0  0  0  0  0  0  0  0  0  0
  141.0280   70.8790  227.2880 C   0  0  0  0  0  0  0  0  0  0  0  0
  140.3990   70.5050  226.1120 C   0  0  0  0  0  0  0  0  0  0  0  0
  140.2950   71.3610  225.0800 N   0  0  0  0  0  0  0  0  0  0  0  0
  141.4230   72.8940  223.2690 H   0  0  0  0  0  0  0  0  0  0  0  0
  141.4274   73.8856  220.9675 H   0  0  0  0  0  0  0  0  0  0  0  0
  139.6034   73.3363  220.9900 H   0  0  0  0  0  0  0  0  0  0  0  0
  139.4269   76.1177  218.9949 H   0  0  0  0  0  0  0  0  0  0  0  0
  138.3501   76.9088  220.2936 H   0  0  0  0  0  0  0  0  0  0  0  0
  139.2032   78.2098  218.2559 H   0  0  0  0  0  0  0  0  0  0  0  0
  139.1196   78.8764  219.9842 H   0  0  0  0  0  0  0  0  0  0  0  0
  141.3557   78.5756  218.1704 H   0  0  0  0  0  0  0  0  0  0  0  0
  141.0574   79.6459  219.6263 H   0  0  0  0  0  0  0  0  0  0  0  0
  142.3693   77.0262  219.3866 H   0  0  0  0  0  0  0  0  0  0  0  0
  142.6848   78.5171  220.4398 H   0  0  0  0  0  0  0  0  0  0  0  0
  142.2130   76.4890  221.4989 H   0  0  0  0  0  0  0  0  0  0  0  0
  141.3387   77.1140  223.1988 H   0  0  0  0  0  0  0  0  0  0  0  0
  143.1712   78.5987  222.9162 H   0  0  0  0  0  0  0  0  0  0  0  0
  142.3269   79.6200  221.7461 H   0  0  0  0  0  0  0  0  0  0  0  0
  141.2742   79.2095  224.6050 H   0  0  0  0  0  0  0  0  0  0  0  0
  142.4465   80.4887  224.2400 H   0  0  0  0  0  0  0  0  0  0  0  0
  140.0540   81.2750  224.0356 H   0  0  0  0  0  0  0  0  0  0  0  0
  140.9427   81.3952  222.4785 H   0  0  0  0  0  0  0  0  0  0  0  0
  138.5271   80.0506  222.9903 H   0  0  0  0  0  0  0  0  0  0  0  0
  139.5686   79.9882  221.4957 H   0  0  0  0  0  0  0  0  0  0  0  0
  139.6272   78.1278  223.8759 H   0  0  0  0  0  0  0  0  0  0  0  0
  139.1096   77.7929  222.1462 H   0  0  0  0  0  0  0  0  0  0  0  0
  138.6604   69.5215  222.8189 H   0  0  0  0  0  0  0  0  0  0  0  0
  138.8171   67.9144  224.6810 H   0  0  0  0  0  0  0  0  0  0  0  0
  139.5247   67.3185  226.9259 H   0  0  0  0  0  0  0  0  0  0  0  0
  140.6547   67.9709  229.0514 H   0  0  0  0  0  0  0  0  0  0  0  0
  141.6140   70.2636  229.2687 H   0  0  0  0  0  0  0  0  0  0  0  0
  141.4546   71.8874  227.3931 H   0  0  0  0  0  0  0  0  0  0  0  0
  1  2  2  0
  2  3  1  0
  3  4  1  0
  4  5  1  0
  5  6  2  0
  5  7  1  0
  7  8  1  0
  8  9  1  0
  9 10  1  0
 10 11  1  0
 11 12  1  0
 12 13  1  0
 13 14  1  0
 14 15  1  0
 15 16  1  0
 16 17  1  0
 17 18  1  0
  2 19  1  0
 19 20  2  0
 20 21  1  0
 21 22  2  0
 22 23  1  0
 23 24  2  0
 24 25  1  0
 25 26  2  0
 26 27  1  0
 27 28  2  0
 12  7  1  0
 18 13  1  0
 28 19  1  0
 27 22  1  0
  3 29  1  0
  4 30  1  0
  4 31  1  0
  8 32  1  0
  8 33  1  0
  9 34  1  0
  9 35  1  0
 10 36  1  0
 10 37  1  0
 11 38  1  0
 11 39  1  0
 12 40  1  1
 13 41  1  0
 14 42  1  0
 14 43  1  0
 15 44  1  0
 15 45  1  0
 16 46  1  0
 16 47  1  0
 17 48  1  0
 17 49  1  0
 18 50  1  0
 18 51  1  0
 20 52  1  0
 21 53  1  0
 23 54  1  0
 24 55  1  0
 25 56  1  0
 26 57  1  0
M  END
>  <smiles>  (97) 
O=C(NCC(=O)N1CCCCC1C1CCCCC1)c1ccc2ccccc2n1

>  <score_type>  (97) 
oracle

>  <origin>  (97) 
autodockgpu

>  <m_score__min__energy>  (97) 
-9.0199999999999996

>  <m_primary>  (97) 
energy

>  <rmsd>  (97) 
1.8650476392716708

>  <m_score__min__rmsd>  (97) 
1.8650476392716708

>  <meeko>  (97) 
{"free_energy": -8.13, "intermolecular_energy": -9.62, "internal_energy": -1.64, "cluster_size": 34, "cluster_id": 1, "rank_in_cluster": 34}

>  <energy>  (97) 
-7.6

>  <cluster_rmsd>  (97) 
0.09

>  <cluster>  (97) 
4

$$$$

     RDKit          3D

 57 60  0  0  0  0  0  0  0  0999 V2000
  140.4490   71.5840  221.2600 O   0  0  0  0  0  0  0  0  0  0  0  0
  140.1430   72.1190  222.3630 C   0  0  0  0  0  0  0  0  0  0  0  0
  139.7870   73.5400  222.3440 N   0  0  0  0  0  0  0  0  0  0  0  0
  139.8300   74.1450  221.0620 C   0  0  0  0  0  0  0  0  0  0  0  0
  141.0280   74.6950  220.4970 C   0  0  0  0  0  0  0  0  0  0  0  0
  142.1230   74.1260  220.9550 O   0  0  0  0  0  0  0  0  0  0  0  0
  141.2920   75.7170  219.5540 N   0  0  0  0  0  0  0  0  0  0  0  0
  140.8640   75.7130  218.1910 C   0  0  0  0  0  0  0  0  0  0  0  0
  141.0730   76.9460  217.3900 C   0  0  0  0  0  0  0  0  0  0  0  0
  142.2950   77.7420  217.6870 C   0  0  0  0  0  0  0  0  0  0  0  0
  142.9460   77.3960  218.9730 C   0  0  0  0  0  0  0  0  0  0  0  0
  142.0790   76.8490  220.0260 C   0  0  1  0  0  0  0  0  0  0  0  0
  141.2560   77.7620  220.8410 C   0  0  0  0  0  0  0  0  0  0  0  0
  141.0630   77.2800  222.2790 C   0  0  0  0  0  0  0  0  0  0  0  0
  140.4530   78.4530  223.0200 C   0  0  0  0  0  0  0  0  0  0  0  0
  141.5850   79.4330  223.2710 C   0  0  0  0  0  0  0  0  0  0  0  0
  142.2400   79.7860  221.9700 C   0  0  0  0  0  0  0  0  0  0  0  0
  141.5160   79.2190  220.7740 C   0  0  0  0  0  0  0  0  0  0  0  0
  140.1330   71.3950  223.6200 C   0  0  0  0  0  0  0  0  0  0  0  0
  139.6150   70.1190  223.6110 C   0  0  0  0  0  0  0  0  0  0  0  0
  139.6020   69.4290  224.7960 C   0  0  0  0  0  0  0  0  0  0  0  0
  140.0850   69.9610  225.9820 C   0  0  0  0  0  0  0  0  0  0  0  0
  140.0610   69.2470  227.1620 C   0  0  0  0  0  0  0  0  0  0  0  0
  140.5540   69.8200  228.3200 C   0  0  0  0  0  0  0  0  0  0  0  0
  141.0670   71.1160  228.2680 C   0  0  0  0  0  0  0  0  0  0  0  0
  141.0880   71.8320  227.0770 C   0  0  0  0  0  0  0  0  0  0  0  0
  140.5920   71.2460  225.9240 C   0  0  0  0  0  0  0  0  0  0  0  0
  140.5960   71.9080  224.7540 N   0  0  0  0  0  0  0  0  0  0  0  0
  139.5470   73.9070  223.2600 H   0  0  0  0  0  0  0  0  0  0  0  0
  139.4854   73.3776  220.3532 H   0  0  0  0  0  0  0  0  0  0  0  0
  139.2285   75.0512  221.2264 H   0  0  0  0  0  0  0  0  0  0  0  0
  141.3999   74.8980  217.6824 H   0  0  0  0  0  0  0  0  0  0  0  0
  139.7708   75.6044  218.2471 H   0  0  0  0  0  0  0  0  0  0  0  0
  141.1175   76.6511  216.3312 H   0  0  0  0  0  0  0  0  0  0  0  0
  140.2312   77.6041  217.6512 H   0  0  0  0  0  0  0  0  0  0  0  0
  143.0205   77.5759  216.8771 H   0  0  0  0  0  0  0  0  0  0  0  0
  141.9777   78.7923  217.7651 H   0  0  0  0  0  0  0  0  0  0  0  0
  143.7253   76.6491  218.7616 H   0  0  0  0  0  0  0  0  0  0  0  0
  143.3200   78.3499  219.3733 H   0  0  0  0  0  0  0  0  0  0  0  0
  142.8381   76.5286  220.7548 H   0  0  0  0  0  0  0  0  0  0  0  0
  140.3004   77.6847  220.3017 H   0  0  0  0  0  0  0  0  0  0  0  0
  140.3859   76.4136  222.3066 H   0  0  0  0  0  0  0  0  0  0  0  0
  142.0121   76.9591  222.7330 H   0  0  0  0  0  0  0  0  0  0  0  0
  139.6697   78.9243  222.4083 H   0  0  0  0  0  0  0  0  0  0  0  0
  139.9859   78.1315  223.9626 H   0  0  0  0  0  0  0  0  0  0  0  0
  141.1838   80.3444  223.7383 H   0  0  0  0  0  0  0  0  0  0  0  0
  142.3261   78.9724  223.9407 H   0  0  0  0  0  0  0  0  0  0  0  0
  142.2669   80.8817  221.8767 H   0  0  0  0  0  0  0  0  0  0  0  0
  143.2501   79.3506  221.9807 H   0  0  0  0  0  0  0  0  0  0  0  0
  140.5493   79.7357  220.6821 H   0  0  0  0  0  0  0  0  0  0  0  0
  142.1755   79.3773  219.9079 H   0  0  0  0  0  0  0  0  0  0  0  0
  139.2254   69.6691  222.6859 H   0  0  0  0  0  0  0  0  0  0  0  0
  139.1905   68.4089  224.8062 H   0  0  0  0  0  0  0  0  0  0  0  0
  139.6515   68.2263  227.1818 H   0  0  0  0  0  0  0  0  0  0  0  0
  140.5418   69.2621  229.2679 H   0  0  0  0  0  0  0  0  0  0  0  0
  141.4614   71.5789  229.1846 H   0  0  0  0  0  0  0  0  0  0  0  0
  141.4944   72.8538  227.0502 H   0  0  0  0  0  0  0  0  0  0  0  0
  1  2  2  0
  2  3  1  0
  3  4  1  0
  4  5  1  0
  5  6  2  0
  5  7  1  0
  7  8  1  0
  8  9  1  0
  9 10  1  0
 10 11  1  0
 11 12  1  0
 12 13  1  0
 13 14  1  0
 14 15  1  0
 15 16  1  0
 16 17  1  0
 17 18  1  0
  2 19  1  0
 19 20  2  0
 20 21  1  0
 21 22  2  0
 22 23  1  0
 23 24  2  0
 24 25  1  0
 25 26  2  0
 26 27  1  0
 27 28  2  0
 12  7  1  0
 18 13  1  0
 28 19  1  0
 27 22  1  0
  3 29  1  0
  4 30  1  0
  4 31  1  0
  8 32  1  0
  8 33  1  0
  9 34  1  0
  9 35  1  0
 10 36  1  0
 10 37  1  0
 11 38  1  0
 11 39  1  0
 12 40  1  1
 13 41  1  0
 14 42  1  0
 14 43  1  0
 15 44  1  0
 15 45  1  0
 16 46  1  0
 16 47  1  0
 17 48  1  0
 17 49  1  0
 18 50  1  0
 18 51  1  0
 20 52  1  0
 21 53  1  0
 23 54  1  0
 24 55  1  0
 25 56  1  0
 26 57  1  0
M  END
>  <smiles>  (98) 
O=C(NCC(=O)N1CCCCC1C1CCCCC1)c1ccc2ccccc2n1

>  <score_type>  (98) 
oracle

>  <origin>  (98) 
autodockgpu

>  <m_score__min__energy>  (98) 
-9.0199999999999996

>  <m_primary>  (98) 
energy

>  <rmsd>  (98) 
1.5912811062406824

>  <m_score__min__rmsd>  (98) 
1.5912811062406824

>  <meeko>  (98) 
{"free_energy": -8.43, "intermolecular_energy": -9.92, "internal_energy": -1.5, "cluster_size": 34, "cluster_id": 1, "rank_in_cluster": 30}

>  <energy>  (98) 
-7.59

>  <cluster_rmsd>  (98) 
0.12

>  <cluster>  (98) 
4

$$$$

     RDKit          3D

 57 60  0  0  0  0  0  0  0  0999 V2000
  139.0030   75.1180  221.8660 O   0  0  0  0  0  0  0  0  0  0  0  0
  140.1210   75.6990  221.9620 C   0  0  0  0  0  0  0  0  0  0  0  0
  141.3120   74.9250  221.6060 N   0  0  0  0  0  0  0  0  0  0  0  0
  141.0530   73.5940  221.1890 C   0  0  0  0  0  0  0  0  0  0  0  0
  141.9600   72.8400  220.3730 C   0  0  0  0  0  0  0  0  0  0  0  0
  141.3520   71.9920  219.5730 O   0  0  0  0  0  0  0  0  0  0  0  0
  143.3690   72.8100  220.2410 N   0  0  0  0  0  0  0  0  0  0  0  0
  144.1390   71.6680  219.8600 C   0  0  0  0  0  0  0  0  0  0  0  0
  145.5880   71.8590  219.5960 C   0  0  0  0  0  0  0  0  0  0  0  0
  146.2940   72.8730  220.4260 C   0  0  0  0  0  0  0  0  0  0  0  0
  145.3920   73.8020  221.1460 C   0  0  0  0  0  0  0  0  0  0  0  0
  144.0770   74.0490  220.5380 C   0  0  1  0  0  0  0  0  0  0  0  0
  143.9570   75.0070  219.4240 C   0  0  0  0  0  0  0  0  0  0  0  0
  143.2950   74.4090  218.1820 C   0  0  0  0  0  0  0  0  0  0  0  0
  143.0050   75.5840  217.2720 C   0  0  0  0  0  0  0  0  0  0  0  0
  141.7860   76.2810  217.8520 C   0  0  0  0  0  0  0  0  0  0  0  0
  142.0490   76.6440  219.2810 C   0  0  0  0  0  0  0  0  0  0  0  0
  143.4730   76.3790  219.7030 C   0  0  0  0  0  0  0  0  0  0  0  0
  140.2650   77.0740  222.4020 C   0  0  0  0  0  0  0  0  0  0  0  0
  139.1110   77.7750  222.6750 C   0  0  0  0  0  0  0  0  0  0  0  0
  139.2400   79.0750  223.0910 C   0  0  0  0  0  0  0  0  0  0  0  0
  140.4700   79.6980  223.2460 C   0  0  0  0  0  0  0  0  0  0  0  0
  140.5740   81.0070  223.6670 C   0  0  0  0  0  0  0  0  0  0  0  0
  141.8230   81.5850  223.8060 C   0  0  0  0  0  0  0  0  0  0  0  0
  142.9560   80.8250  223.5160 C   0  0  0  0  0  0  0  0  0  0  0  0
  142.8460   79.5070  223.0920 C   0  0  0  0  0  0  0  0  0  0  0  0
  141.5890   78.9390  222.9570 C   0  0  0  0  0  0  0  0  0  0  0  0
  141.4440   77.6660  222.5490 N   0  0  0  0  0  0  0  0  0  0  0  0
  142.1760   75.4500  221.7000 H   0  0  0  0  0  0  0  0  0  0  0  0
  140.9167   73.0090  222.1105 H   0  0  0  0  0  0  0  0  0  0  0  0
  140.2076   73.7400  220.5006 H   0  0  0  0  0  0  0  0  0  0  0  0
  144.0489   70.9283  220.6692 H   0  0  0  0  0  0  0  0  0  0  0  0
  143.7206   71.3671  218.8882 H   0  0  0  0  0  0  0  0  0  0  0  0
  146.0860   70.8916  219.7577 H   0  0  0  0  0  0  0  0  0  0  0  0
  145.6448   72.2406  218.5659 H   0  0  0  0  0  0  0  0  0  0  0  0
  146.9086   72.3436  221.1689 H   0  0  0  0  0  0  0  0  0  0  0  0
  146.8934   73.4851  219.7360 H   0  0  0  0  0  0  0  0  0  0  0  0
  145.2221   73.3894  222.1514 H   0  0  0  0  0  0  0  0  0  0  0  0
  145.9055   74.7746  221.1292 H   0  0  0  0  0  0  0  0  0  0  0  0
  143.5869   74.5998  221.3543 H   0  0  0  0  0  0  0  0  0  0  0  0
  145.0222   75.1872  219.2169 H   0  0  0  0  0  0  0  0  0  0  0  0
  143.9749   73.6991  217.6882 H   0  0  0  0  0  0  0  0  0  0  0  0
  142.3799   73.8535  218.4351 H   0  0  0  0  0  0  0  0  0  0  0  0
  143.8635   76.2715  217.2522 H   0  0  0  0  0  0  0  0  0  0  0  0
  142.8233   75.2543  216.2384 H   0  0  0  0  0  0  0  0  0  0  0  0
  141.5766   77.1937  217.2748 H   0  0  0  0  0  0  0  0  0  0  0  0
  140.9191   75.6059  217.7996 H   0  0  0  0  0  0  0  0  0  0  0  0
  141.8368   77.7149  219.4156 H   0  0  0  0  0  0  0  0  0  0  0  0
  141.3977   76.0152  219.9059 H   0  0  0  0  0  0  0  0  0  0  0  0
  144.1253   77.0871  219.1709 H   0  0  0  0  0  0  0  0  0  0  0  0
  143.5008   76.5016  220.7958 H   0  0  0  0  0  0  0  0  0  0  0  0
  138.1212   77.3083  222.5632 H   0  0  0  0  0  0  0  0  0  0  0  0
  138.3282   79.6494  223.3116 H   0  0  0  0  0  0  0  0  0  0  0  0
  139.6679   81.5889  223.8913 H   0  0  0  0  0  0  0  0  0  0  0  0
  141.9212   82.6284  224.1402 H   0  0  0  0  0  0  0  0  0  0  0  0
  143.9530   81.2769  223.6249 H   0  0  0  0  0  0  0  0  0  0  0  0
  143.7480   78.9195  222.8655 H   0  0  0  0  0  0  0  0  0  0  0  0
  1  2  2  0
  2  3  1  0
  3  4  1  0
  4  5  1  0
  5  6  2  0
  5  7  1  0
  7  8  1  0
  8  9  1  0
  9 10  1  0
 10 11  1  0
 11 12  1  0
 12 13  1  0
 13 14  1  0
 14 15  1  0
 15 16  1  0
 16 17  1  0
 17 18  1  0
  2 19  1  0
 19 20  2  0
 20 21  1  0
 21 22  2  0
 22 23  1  0
 23 24  2  0
 24 25  1  0
 25 26  2  0
 26 27  1  0
 27 28  2  0
 12  7  1  0
 18 13  1  0
 28 19  1  0
 27 22  1  0
  3 29  1  0
  4 30  1  0
  4 31  1  0
  8 32  1  0
  8 33  1  0
  9 34  1  0
  9 35  1  0
 10 36  1  0
 10 37  1  0
 11 38  1  0
 11 39  1  0
 12 40  1  1
 13 41  1  0
 14 42  1  0
 14 43  1  0
 15 44  1  0
 15 45  1  0
 16 46  1  0
 16 47  1  0
 17 48  1  0
 17 49  1  0
 18 50  1  0
 18 51  1  0
 20 52  1  0
 21 53  1  0
 23 54  1  0
 24 55  1  0
 25 56  1  0
 26 57  1  0
M  END
>  <smiles>  (99) 
O=C(NCC(=O)N1CCCCC1C1CCCCC1)c1ccc2ccccc2n1

>  <score_type>  (99) 
oracle

>  <origin>  (99) 
autodockgpu

>  <m_score__min__energy>  (99) 
-9.0199999999999996

>  <m_primary>  (99) 
energy

>  <rmsd>  (99) 
7.811369896796775

>  <m_score__min__rmsd>  (99) 
7.811369896796775

>  <meeko>  (99) 
{"free_energy": -7.65, "intermolecular_energy": -9.14, "internal_energy": -2.32, "cluster_size": 7, "cluster_id": 4, "rank_in_cluster": 1}

>  <energy>  (99) 
-7.54

>  <cluster_rmsd>  (99) 
0.44

>  <cluster>  (99) 
4

$$$$

     RDKit          3D

 57 60  0  0  0  0  0  0  0  0999 V2000
  139.0160   75.1330  221.9630 O   0  0  0  0  0  0  0  0  0  0  0  0
  140.1320   75.7220  222.0210 C   0  0  0  0  0  0  0  0  0  0  0  0
  141.3170   74.9540  221.6330 N   0  0  0  0  0  0  0  0  0  0  0  0
  141.0540   73.6190  221.2320 C   0  0  0  0  0  0  0  0  0  0  0  0
  141.9510   72.8590  220.4100 C   0  0  0  0  0  0  0  0  0  0  0  0
  141.3330   72.0070  219.6220 O   0  0  0  0  0  0  0  0  0  0  0  0
  143.3580   72.8260  220.2620 N   0  0  0  0  0  0  0  0  0  0  0  0
  144.1220   71.6830  219.8730 C   0  0  0  0  0  0  0  0  0  0  0  0
  145.5680   71.8700  219.5930 C   0  0  0  0  0  0  0  0  0  0  0  0
  146.2860   72.8840  220.4140 C   0  0  0  0  0  0  0  0  0  0  0  0
  145.3930   73.8150  221.1430 C   0  0  0  0  0  0  0  0  0  0  0  0
  144.0720   74.0640  220.5510 C   0  0  1  0  0  0  0  0  0  0  0  0
  143.9410   75.0220  219.4370 C   0  0  0  0  0  0  0  0  0  0  0  0
  143.2710   74.4210  218.2000 C   0  0  0  0  0  0  0  0  0  0  0  0
  142.9710   75.5960  217.2920 C   0  0  0  0  0  0  0  0  0  0  0  0
  141.7550   76.2900  217.8810 C   0  0  0  0  0  0  0  0  0  0  0  0
  142.0290   76.6550  219.3080 C   0  0  0  0  0  0  0  0  0  0  0  0
  143.4570   76.3930  219.7190 C   0  0  0  0  0  0  0  0  0  0  0  0
  140.2810   77.1000  222.4500 C   0  0  0  0  0  0  0  0  0  0  0  0
  139.1290   77.8060  222.7200 C   0  0  0  0  0  0  0  0  0  0  0  0
  139.2620   79.1090  223.1240 C   0  0  0  0  0  0  0  0  0  0  0  0
  140.4930   79.7310  223.2700 C   0  0  0  0  0  0  0  0  0  0  0  0
  140.6020   81.0430  223.6800 C   0  0  0  0  0  0  0  0  0  0  0  0
  141.8520   81.6200  223.8100 C   0  0  0  0  0  0  0  0  0  0  0  0
  142.9820   80.8550  223.5230 C   0  0  0  0  0  0  0  0  0  0  0  0
  142.8680   79.5330  223.1100 C   0  0  0  0  0  0  0  0  0  0  0  0
  141.6100   78.9670  222.9840 C   0  0  0  0  0  0  0  0  0  0  0  0
  141.4610   77.6910  222.5870 N   0  0  0  0  0  0  0  0  0  0  0  0
  142.1800   75.4850  221.6970 H   0  0  0  0  0  0  0  0  0  0  0  0
  140.9316   73.0422  222.1606 H   0  0  0  0  0  0  0  0  0  0  0  0
  140.1985   73.7573  220.5545 H   0  0  0  0  0  0  0  0  0  0  0  0
  144.0393   70.9438  220.6834 H   0  0  0  0  0  0  0  0  0  0  0  0
  143.6927   71.3836  218.9055 H   0  0  0  0  0  0  0  0  0  0  0  0
  146.0653   70.9016  219.7508 H   0  0  0  0  0  0  0  0  0  0  0  0
  145.6144   72.2499  218.5617 H   0  0  0  0  0  0  0  0  0  0  0  0
  146.9082   72.3544  221.1505 H   0  0  0  0  0  0  0  0  0  0  0  0
  146.8791   73.4941  219.7169 H   0  0  0  0  0  0  0  0  0  0  0  0
  145.2341   73.4035  222.1507 H   0  0  0  0  0  0  0  0  0  0  0  0
  145.9078   74.7868  221.1185 H   0  0  0  0  0  0  0  0  0  0  0  0
  143.5927   74.6155  221.3732 H   0  0  0  0  0  0  0  0  0  0  0  0
  145.0040   75.2054  219.2215 H   0  0  0  0  0  0  0  0  0  0  0  0
  143.9490   73.7129  217.7012 H   0  0  0  0  0  0  0  0  0  0  0  0
  142.3596   73.8626  218.4599 H   0  0  0  0  0  0  0  0  0  0  0  0
  143.8276   76.2855  217.2657 H   0  0  0  0  0  0  0  0  0  0  0  0
  142.7821   75.2658  216.2599 H   0  0  0  0  0  0  0  0  0  0  0  0
  141.5384   77.2016  217.3047 H   0  0  0  0  0  0  0  0  0  0  0  0
  140.8894   75.6127  217.8361 H   0  0  0  0  0  0  0  0  0  0  0  0
  141.8160   77.7257  219.4432 H   0  0  0  0  0  0  0  0  0  0  0  0
  141.3840   76.0256  219.9387 H   0  0  0  0  0  0  0  0  0  0  0  0
  144.1038   77.1019  219.1813 H   0  0  0  0  0  0  0  0  0  0  0  0
  143.4933   76.5165  220.8114 H   0  0  0  0  0  0  0  0  0  0  0  0
  138.1379   77.3405  222.6151 H   0  0  0  0  0  0  0  0  0  0  0  0
  138.3519   79.6871  223.3421 H   0  0  0  0  0  0  0  0  0  0  0  0
  139.6979   81.6286  223.9029 H   0  0  0  0  0  0  0  0  0  0  0  0
  141.9533   82.6661  224.1347 H   0  0  0  0  0  0  0  0  0  0  0  0
  143.9803   81.3055  223.6252 H   0  0  0  0  0  0  0  0  0  0  0  0
  143.7680   78.9418  222.8853 H   0  0  0  0  0  0  0  0  0  0  0  0
  1  2  2  0
  2  3  1  0
  3  4  1  0
  4  5  1  0
  5  6  2  0
  5  7  1  0
  7  8  1  0
  8  9  1  0
  9 10  1  0
 10 11  1  0
 11 12  1  0
 12 13  1  0
 13 14  1  0
 14 15  1  0
 15 16  1  0
 16 17  1  0
 17 18  1  0
  2 19  1  0
 19 20  2  0
 20 21  1  0
 21 22  2  0
 22 23  1  0
 23 24  2  0
 24 25  1  0
 25 26  2  0
 26 27  1  0
 27 28  2  0
 12  7  1  0
 18 13  1  0
 28 19  1  0
 27 22  1  0
  3 29  1  0
  4 30  1  0
  4 31  1  0
  8 32  1  0
  8 33  1  0
  9 34  1  0
  9 35  1  0
 10 36  1  0
 10 37  1  0
 11 38  1  0
 11 39  1  0
 12 40  1  1
 13 41  1  0
 14 42  1  0
 14 43  1  0
 15 44  1  0
 15 45  1  0
 16 46  1  0
 16 47  1  0
 17 48  1  0
 17 49  1  0
 18 50  1  0
 18 51  1  0
 20 52  1  0
 21 53  1  0
 23 54  1  0
 24 55  1  0
 25 56  1  0
 26 57  1  0
M  END
>  <smiles>  (100) 
O=C(NCC(=O)N1CCCCC1C1CCCCC1)c1ccc2ccccc2n1

>  <score_type>  (100) 
oracle

>  <origin>  (100) 
autodockgpu

>  <m_score__min__energy>  (100) 
-9.0199999999999996

>  <m_primary>  (100) 
energy

>  <rmsd>  (100) 
7.823800235971576

>  <m_score__min__rmsd>  (100) 
7.823800235971576

>  <meeko>  (100) 
{"free_energy": -7.63, "intermolecular_energy": -9.12, "internal_energy": -2.3, "cluster_size": 7, "cluster_id": 4, "rank_in_cluster": 2}

>  <energy>  (100) 
-7.47

>  <cluster_rmsd>  (100) 
0.22

>  <cluster>  (100) 
4

$$$$
