
     RDKit          3D

 63 66  0  0  0  0  0  0  0  0999 V2000
  137.9610   76.4290  222.3440 C   0  0  0  0  0  0  0  0  0  0  0  0
  138.7300   75.4280  221.6040 N   0  0  0  0  0  0  0  0  0  0  0  0
  138.0210   74.6530  220.6270 C   0  0  0  0  0  0  0  0  0  0  0  0
  137.3710   73.4240  221.2370 C   0  0  0  0  0  0  0  0  0  0  0  0
  138.1070   72.8830  222.3520 N   0  0  0  0  0  0  0  0  0  0  0  0
  138.2850   71.4930  222.5870 C   0  0  0  0  0  0  0  0  0  0  0  0
  137.8060   70.6350  221.8270 O   0  0  0  0  0  0  0  0  0  0  0  0
  139.0570   71.0400  223.7590 C   0  0  0  0  0  0  0  0  0  0  0  0
  140.0970   71.7940  224.2530 C   0  0  0  0  0  0  0  0  0  0  0  0
  140.8310   71.3820  225.3520 C   0  0  0  0  0  0  0  0  0  0  0  0
  140.4810   70.1890  225.9340 C   0  0  0  0  0  0  0  0  0  0  0  0
  141.1600   69.6900  227.0470 C   0  0  0  0  0  0  0  0  0  0  0  0
  140.7740   68.4820  227.6040 C   0  0  0  0  0  0  0  0  0  0  0  0
  141.4450   68.0110  228.6840 F   0  0  0  0  0  0  0  0  0  0  0  0
  139.7380   67.7330  227.1120 C   0  0  0  0  0  0  0  0  0  0  0  0
  139.0580   68.2240  226.0050 C   0  0  0  0  0  0  0  0  0  0  0  0
  139.4370   69.4260  225.4450 C   0  0  0  0  0  0  0  0  0  0  0  0
  138.7610   69.8740  224.3780 N   0  0  0  0  0  0  0  0  0  0  0  0
  140.0960   75.3060  221.9330 C   0  0  0  0  0  0  0  0  0  0  0  0
  140.4910   74.1740  222.3390 O   0  0  0  0  0  0  0  0  0  0  0  0
  141.0980   76.3950  221.8410 C   0  0  1  0  0  0  0  0  0  0  0  0
  141.8060   76.3450  220.5020 C   0  0  0  0  0  0  0  0  0  0  0  0
  140.8900   77.2260  219.6430 C   0  0  2  0  0  0  0  0  0  0  0  0
  141.5290   77.7330  218.5330 O   0  0  0  0  0  0  0  0  0  0  0  0
  140.6130   78.3380  220.6340 C   0  0  0  0  0  0  0  0  0  0  0  0
  140.4160   77.6750  221.8940 N   0  0  0  0  0  0  0  0  0  0  0  0
  140.9030   78.4670  223.0090 C   0  0  0  0  0  0  0  0  0  0  0  0
  142.2460   79.0730  222.7070 C   0  0  0  0  0  0  0  0  0  0  0  0
  142.5800   80.0560  223.8370 C   0  0  0  0  0  0  0  0  0  0  0  0
  141.7440   81.2900  223.5710 C   0  0  0  0  0  0  0  0  0  0  0  0
  140.3870   80.9180  223.0720 C   0  0  0  0  0  0  0  0  0  0  0  0
  139.9470   79.5260  223.4330 C   0  0  0  0  0  0  0  0  0  0  0  0
  138.0878   76.2639  223.4241 H   0  0  0  0  0  0  0  0  0  0  0  0
  138.3208   77.4350  222.0821 H   0  0  0  0  0  0  0  0  0  0  0  0
  136.8963   76.3406  222.0821 H   0  0  0  0  0  0  0  0  0  0  0  0
  137.2389   75.2809  220.1753 H   0  0  0  0  0  0  0  0  0  0  0  0
  138.7455   74.3142  219.8718 H   0  0  0  0  0  0  0  0  0  0  0  0
  136.3636   73.6977  221.5836 H   0  0  0  0  0  0  0  0  0  0  0  0
  137.3450   72.6486  220.4572 H   0  0  0  0  0  0  0  0  0  0  0  0
  138.5630   73.5250  223.0690 H   0  0  0  0  0  0  0  0  0  0  0  0
  140.3508   72.7458  223.7634 H   0  0  0  0  0  0  0  0  0  0  0  0
  141.6621   71.9869  225.7436 H   0  0  0  0  0  0  0  0  0  0  0  0
  141.9989   70.2544  227.4803 H   0  0  0  0  0  0  0  0  0  0  0  0
  139.4549   66.7771  227.5769 H   0  0  0  0  0  0  0  0  0  0  0  0
  138.2195   67.6558  225.5761 H   0  0  0  0  0  0  0  0  0  0  0  0
  141.8130   76.2743  222.6682 H   0  0  0  0  0  0  0  0  0  0  0  0
  142.8211   76.7637  220.5676 H   0  0  0  0  0  0  0  0  0  0  0  0
  141.9516   75.3285  220.1077 H   0  0  0  0  0  0  0  0  0  0  0  0
  140.0141   76.6997  219.2358 H   0  0  0  0  0  0  0  0  0  0  0  0
  142.4230   78.0670  218.8300 H   0  0  0  0  0  0  0  0  0  0  0  0
  141.4682   79.0276  220.6899 H   0  0  0  0  0  0  0  0  0  0  0  0
  139.7398   78.9409  220.3441 H   0  0  0  0  0  0  0  0  0  0  0  0
  141.0074   77.7667  223.8509 H   0  0  0  0  0  0  0  0  0  0  0  0
  143.0107   78.2838  222.6590 H   0  0  0  0  0  0  0  0  0  0  0  0
  142.2244   79.5933  221.7381 H   0  0  0  0  0  0  0  0  0  0  0  0
  142.3200   79.6203  224.8130 H   0  0  0  0  0  0  0  0  0  0  0  0
  143.6539   80.2926  223.8635 H   0  0  0  0  0  0  0  0  0  0  0  0
  141.6398   81.8623  224.5046 H   0  0  0  0  0  0  0  0  0  0  0  0
  142.2467   81.8956  222.8025 H   0  0  0  0  0  0  0  0  0  0  0  0
  139.6600   81.6278  223.4935 H   0  0  0  0  0  0  0  0  0  0  0  0
  140.4381   80.9538  221.9738 H   0  0  0  0  0  0  0  0  0  0  0  0
  139.8302   79.4711  224.5254 H   0  0  0  0  0  0  0  0  0  0  0  0
  139.0032   79.3390  222.8998 H   0  0  0  0  0  0  0  0  0  0  0  0
  1  2  1  0
  2  3  1  0
  3  4  1  0
  4  5  1  0
  5  6  1  0
  6  7  2  0
  6  8  1  0
  8  9  2  0
  9 10  1  0
 10 11  2  0
 11 12  1  0
 12 13  2  0
 13 14  1  0
 13 15  1  0
 15 16  2  0
 16 17  1  0
 17 18  2  0
  2 19  1  0
 19 20  2  0
 19 21  1  0
 21 22  1  0
 22 23  1  0
 23 24  1  0
 23 25  1  0
 25 26  1  0
 26 27  1  0
 27 28  1  0
 28 29  1  0
 29 30  1  0
 30 31  1  0
 31 32  1  0
 18  8  1  0
 26 21  1  0
 32 27  1  0
 17 11  1  0
  1 33  1  0
  1 34  1  0
  1 35  1  0
  3 36  1  0
  3 37  1  0
  4 38  1  0
  4 39  1  0
  5 40  1  0
  9 41  1  0
 10 42  1  0
 12 43  1  0
 15 44  1  0
 16 45  1  0
 21 46  1  1
 22 47  1  0
 22 48  1  0
 23 49  1  6
 24 50  1  0
 25 51  1  0
 25 52  1  0
 27 53  1  0
 28 54  1  0
 28 55  1  0
 29 56  1  0
 29 57  1  0
 30 58  1  0
 30 59  1  0
 31 60  1  0
 31 61  1  0
 32 62  1  0
 32 63  1  0
M  END
>  <smiles>  (1) 
CN(CCNC(=O)c1ccc2cc(F)ccc2n1)C(=O)[C@H]1C[C@H](O)CN1C1CCCCC1

>  <score_type>  (1) 
oracle

>  <origin>  (1) 
autodockgpu

>  <m_score__min__energy>  (1) 
-8.6799999999999997

>  <m_primary>  (1) 
energy

>  <rmsd>  (1) 
9.450248102566189

>  <m_score__min__rmsd>  (1) 
9.450248102566189

>  <meeko>  (1) 
{"free_energy": -8.59, "intermolecular_energy": -10.98, "internal_energy": -2.32, "cluster_size": 21, "cluster_id": 2, "rank_in_cluster": 1}

>  <energy>  (1) 
-8.68

>  <cluster_rmsd>  (1) 
0.0

>  <cluster>  (1) 
1

$$$$

     RDKit          3D

 63 66  0  0  0  0  0  0  0  0999 V2000
  141.7010   73.8330  220.7960 C   0  0  0  0  0  0  0  0  0  0  0  0
  140.4060   74.5160  220.8210 N   0  0  0  0  0  0  0  0  0  0  0  0
  139.3970   74.0300  219.9240 C   0  0  0  0  0  0  0  0  0  0  0  0
  138.4220   73.0950  220.6170 C   0  0  0  0  0  0  0  0  0  0  0  0
  138.8740   72.6560  221.9130 N   0  0  0  0  0  0  0  0  0  0  0  0
  139.2870   71.3280  222.2020 C   0  0  0  0  0  0  0  0  0  0  0  0
  139.2850   70.4390  221.3340 O   0  0  0  0  0  0  0  0  0  0  0  0
  139.7340   70.9790  223.5630 C   0  0  0  0  0  0  0  0  0  0  0  0
  140.4190   71.8880  224.3360 C   0  0  0  0  0  0  0  0  0  0  0  0
  140.8450   71.5760  225.6150 C   0  0  0  0  0  0  0  0  0  0  0  0
  140.5570   70.3180  226.0870 C   0  0  0  0  0  0  0  0  0  0  0  0
  140.9440   69.9100  227.3640 C   0  0  0  0  0  0  0  0  0  0  0  0
  140.6330   68.6330  227.8010 C   0  0  0  0  0  0  0  0  0  0  0  0
  141.0170   68.2500  229.0450 F   0  0  0  0  0  0  0  0  0  0  0  0
  139.9510   67.7290  227.0310 C   0  0  0  0  0  0  0  0  0  0  0  0
  139.5630   68.1290  225.7600 C   0  0  0  0  0  0  0  0  0  0  0  0
  139.8690   69.3990  225.3180 C   0  0  0  0  0  0  0  0  0  0  0  0
  139.4810   69.7570  224.0860 N   0  0  0  0  0  0  0  0  0  0  0  0
  140.2770   75.6000  221.7140 C   0  0  0  0  0  0  0  0  0  0  0  0
  139.5580   75.4170  222.7390 O   0  0  0  0  0  0  0  0  0  0  0  0
  140.9150   76.9270  221.5440 C   0  0  1  0  0  0  0  0  0  0  0  0
  141.1880   77.1960  220.0790 C   0  0  0  0  0  0  0  0  0  0  0  0
  139.8770   77.8630  219.6450 C   0  0  2  0  0  0  0  0  0  0  0  0
  140.0190   78.6250  218.5060 O   0  0  0  0  0  0  0  0  0  0  0  0
  139.6450   78.7600  220.8430 C   0  0  0  0  0  0  0  0  0  0  0  0
  139.9920   77.9570  221.9830 N   0  0  0  0  0  0  0  0  0  0  0  0
  140.5810   78.7500  223.0490 C   0  0  0  0  0  0  0  0  0  0  0  0
  142.0250   79.0630  222.7660 C   0  0  0  0  0  0  0  0  0  0  0  0
  142.4990   80.0720  223.8210 C   0  0  0  0  0  0  0  0  0  0  0  0
  141.9240   81.4090  223.4010 C   0  0  0  0  0  0  0  0  0  0  0  0
  140.5400   81.2480  222.8650 C   0  0  0  0  0  0  0  0  0  0  0  0
  139.8300   80.0050  223.3240 C   0  0  0  0  0  0  0  0  0  0  0  0
  142.0409   73.6537  221.8267 H   0  0  0  0  0  0  0  0  0  0  0  0
  141.5985   72.8717  220.2713 H   0  0  0  0  0  0  0  0  0  0  0  0
  142.4364   74.4605  220.2713 H   0  0  0  0  0  0  0  0  0  0  0  0
  138.8396   74.8873  219.5185 H   0  0  0  0  0  0  0  0  0  0  0  0
  139.8976   73.4659  219.1232 H   0  0  0  0  0  0  0  0  0  0  0  0
  137.4635   73.6202  220.7414 H   0  0  0  0  0  0  0  0  0  0  0  0
  138.3260   72.1993  219.9857 H   0  0  0  0  0  0  0  0  0  0  0  0
  138.9180   73.3330  222.7340 H   0  0  0  0  0  0  0  0  0  0  0  0
  140.6331   72.8866  223.9275 H   0  0  0  0  0  0  0  0  0  0  0  0
  141.3924   72.3059  226.2295 H   0  0  0  0  0  0  0  0  0  0  0  0
  141.4939   70.5998  228.0211 H   0  0  0  0  0  0  0  0  0  0  0  0
  139.7189   66.7215  227.4066 H   0  0  0  0  0  0  0  0  0  0  0  0
  139.0131   67.4352  225.1071 H   0  0  0  0  0  0  0  0  0  0  0  0
  141.8495   76.9353  222.1242 H   0  0  0  0  0  0  0  0  0  0  0  0
  142.0461   77.8714  219.9469 H   0  0  0  0  0  0  0  0  0  0  0  0
  141.4504   76.2994  219.4982 H   0  0  0  0  0  0  0  0  0  0  0  0
  139.0734   77.1536  219.3981 H   0  0  0  0  0  0  0  0  0  0  0  0
  139.2660   78.3880  217.8930 H   0  0  0  0  0  0  0  0  0  0  0  0
  140.2872   79.6514  220.7884 H   0  0  0  0  0  0  0  0  0  0  0  0
  138.6073   79.1214  220.8932 H   0  0  0  0  0  0  0  0  0  0  0  0
  140.5196   78.1285  223.9545 H   0  0  0  0  0  0  0  0  0  0  0  0
  142.6268   78.1444  222.8291 H   0  0  0  0  0  0  0  0  0  0  0  0
  142.1376   79.4812  221.7548 H   0  0  0  0  0  0  0  0  0  0  0  0
  142.1250   79.7898  224.8162 H   0  0  0  0  0  0  0  0  0  0  0  0
  143.5966   80.1054  223.8849 H   0  0  0  0  0  0  0  0  0  0  0  0
  141.8971   82.0795  224.2726 H   0  0  0  0  0  0  0  0  0  0  0  0
  142.5604   81.8329  222.6103 H   0  0  0  0  0  0  0  0  0  0  0  0
  139.9465   82.1184  223.1814 H   0  0  0  0  0  0  0  0  0  0  0  0
  140.6373   81.1651  221.7725 H   0  0  0  0  0  0  0  0  0  0  0  0
  139.6650   80.0801  224.4090 H   0  0  0  0  0  0  0  0  0  0  0  0
  138.8881   79.9460  222.7588 H   0  0  0  0  0  0  0  0  0  0  0  0
  1  2  1  0
  2  3  1  0
  3  4  1  0
  4  5  1  0
  5  6  1  0
  6  7  2  0
  6  8  1  0
  8  9  2  0
  9 10  1  0
 10 11  2  0
 11 12  1  0
 12 13  2  0
 13 14  1  0
 13 15  1  0
 15 16  2  0
 16 17  1  0
 17 18  2  0
  2 19  1  0
 19 20  2  0
 19 21  1  0
 21 22  1  0
 22 23  1  0
 23 24  1  0
 23 25  1  0
 25 26  1  0
 26 27  1  0
 27 28  1  0
 28 29  1  0
 29 30  1  0
 30 31  1  0
 31 32  1  0
 18  8  1  0
 26 21  1  0
 32 27  1  0
 17 11  1  0
  1 33  1  0
  1 34  1  0
  1 35  1  0
  3 36  1  0
  3 37  1  0
  4 38  1  0
  4 39  1  0
  5 40  1  0
  9 41  1  0
 10 42  1  0
 12 43  1  0
 15 44  1  0
 16 45  1  0
 21 46  1  1
 22 47  1  0
 22 48  1  0
 23 49  1  6
 24 50  1  0
 25 51  1  0
 25 52  1  0
 27 53  1  0
 28 54  1  0
 28 55  1  0
 29 56  1  0
 29 57  1  0
 30 58  1  0
 30 59  1  0
 31 60  1  0
 31 61  1  0
 32 62  1  0
 32 63  1  0
M  END
>  <smiles>  (2) 
CN(CCNC(=O)c1ccc2cc(F)ccc2n1)C(=O)[C@H]1C[C@H](O)CN1C1CCCCC1

>  <score_type>  (2) 
oracle

>  <origin>  (2) 
autodockgpu

>  <m_score__min__energy>  (2) 
-8.6799999999999997

>  <m_primary>  (2) 
energy

>  <rmsd>  (2) 
9.436513377557764

>  <m_score__min__rmsd>  (2) 
9.436513377557764

>  <meeko>  (2) 
{"free_energy": -8.13, "intermolecular_energy": -10.52, "internal_energy": -2.44, "cluster_size": 13, "cluster_id": 1, "rank_in_cluster": 10}

>  <energy>  (2) 
-8.61

>  <cluster_rmsd>  (2) 
1.88

>  <cluster>  (2) 
1

$$$$

     RDKit          3D

 63 66  0  0  0  0  0  0  0  0999 V2000
  138.3430   75.7310  219.6050 C   0  0  0  0  0  0  0  0  0  0  0  0
  138.2180   75.6650  221.0620 N   0  0  0  0  0  0  0  0  0  0  0  0
  137.5260   74.5330  221.6060 C   0  0  0  0  0  0  0  0  0  0  0  0
  138.0910   73.2200  221.0950 C   0  0  0  0  0  0  0  0  0  0  0  0
  138.3350   72.2580  222.1390 N   0  0  0  0  0  0  0  0  0  0  0  0
  139.5330   72.2000  222.9020 C   0  0  0  0  0  0  0  0  0  0  0  0
  140.4680   72.9960  222.7110 O   0  0  0  0  0  0  0  0  0  0  0  0
  139.6850   71.1760  223.9510 C   0  0  0  0  0  0  0  0  0  0  0  0
  139.2670   69.8820  223.7410 C   0  0  0  0  0  0  0  0  0  0  0  0
  139.4040   68.9090  224.7160 C   0  0  0  0  0  0  0  0  0  0  0  0
  139.9750   69.2850  225.9070 C   0  0  0  0  0  0  0  0  0  0  0  0
  140.1560   68.3760  226.9510 C   0  0  0  0  0  0  0  0  0  0  0  0
  140.7370   68.7970  228.1350 C   0  0  0  0  0  0  0  0  0  0  0  0
  140.9060   67.9020  229.1410 F   0  0  0  0  0  0  0  0  0  0  0  0
  141.1540   70.0850  228.3430 C   0  0  0  0  0  0  0  0  0  0  0  0
  140.9780   70.9940  227.3090 C   0  0  0  0  0  0  0  0  0  0  0  0
  140.3990   70.5820  226.1260 C   0  0  0  0  0  0  0  0  0  0  0  0
  140.2420   71.4830  225.1460 N   0  0  0  0  0  0  0  0  0  0  0  0
  138.7760   76.7330  221.7950 C   0  0  0  0  0  0  0  0  0  0  0  0
  138.0150   77.7090  222.0580 O   0  0  0  0  0  0  0  0  0  0  0  0
  140.1750   76.7980  222.2790 C   0  0  1  0  0  0  0  0  0  0  0  0
  141.0050   75.7040  221.6380 C   0  0  0  0  0  0  0  0  0  0  0  0
  141.5000   76.4070  220.3670 C   0  0  2  0  0  0  0  0  0  0  0  0
  142.6330   75.8240  219.8440 O   0  0  0  0  0  0  0  0  0  0  0  0
  141.8360   77.7650  220.9470 C   0  0  0  0  0  0  0  0  0  0  0  0
  140.7650   78.0560  221.8610 N   0  0  0  0  0  0  0  0  0  0  0  0
  141.2230   78.8130  223.0140 C   0  0  0  0  0  0  0  0  0  0  0  0
  142.5650   79.4410  222.7600 C   0  0  0  0  0  0  0  0  0  0  0  0
  142.8670   80.3870  223.9310 C   0  0  0  0  0  0  0  0  0  0  0  0
  142.0250   81.6230  223.6900 C   0  0  0  0  0  0  0  0  0  0  0  0
  140.6830   81.2560  223.1490 C   0  0  0  0  0  0  0  0  0  0  0  0
  140.2480   79.8490  223.4530 C   0  0  0  0  0  0  0  0  0  0  0  0
  139.2871   76.2295  219.3402 H   0  0  0  0  0  0  0  0  0  0  0  0
  138.3373   74.7123  219.1900 H   0  0  0  0  0  0  0  0  0  0  0  0
  137.4985   76.3008  219.1900 H   0  0  0  0  0  0  0  0  0  0  0  0
  137.6158   74.5553  222.7021 H   0  0  0  0  0  0  0  0  0  0  0  0
  136.4739   74.5950  221.2909 H   0  0  0  0  0  0  0  0  0  0  0  0
  137.3749   72.7863  220.3815 H   0  0  0  0  0  0  0  0  0  0  0  0
  139.0606   73.4439  220.6263 H   0  0  0  0  0  0  0  0  0  0  0  0
  137.6030   71.5260  222.3910 H   0  0  0  0  0  0  0  0  0  0  0  0
  138.8132   69.6144  222.7754 H   0  0  0  0  0  0  0  0  0  0  0  0
  139.0688   67.8756  224.5436 H   0  0  0  0  0  0  0  0  0  0  0  0
  139.8383   67.3295  226.8333 H   0  0  0  0  0  0  0  0  0  0  0  0
  141.6122   70.3883  229.2959 H   0  0  0  0  0  0  0  0  0  0  0  0
  141.2988   72.0390  227.4320 H   0  0  0  0  0  0  0  0  0  0  0  0
  140.1643   76.6912  223.3738 H   0  0  0  0  0  0  0  0  0  0  0  0
  141.8429   75.4034  222.2842 H   0  0  0  0  0  0  0  0  0  0  0  0
  140.4529   74.7712  221.4507 H   0  0  0  0  0  0  0  0  0  0  0  0
  140.7790   76.3917  219.5364 H   0  0  0  0  0  0  0  0  0  0  0  0
  143.3840   76.0110  220.4770 H   0  0  0  0  0  0  0  0  0  0  0  0
  142.7987   77.7309  221.4781 H   0  0  0  0  0  0  0  0  0  0  0  0
  141.9332   78.5343  220.1668 H   0  0  0  0  0  0  0  0  0  0  0  0
  141.3179   78.0853  223.8334 H   0  0  0  0  0  0  0  0  0  0  0  0
  143.3382   78.6610  222.6996 H   0  0  0  0  0  0  0  0  0  0  0  0
  142.5575   79.9947  221.8095 H   0  0  0  0  0  0  0  0  0  0  0  0
  142.5908   79.9154  224.8856 H   0  0  0  0  0  0  0  0  0  0  0  0
  143.9380   80.6313  223.9886 H   0  0  0  0  0  0  0  0  0  0  0  0
  141.8952   82.1614  224.6404 H   0  0  0  0  0  0  0  0  0  0  0  0
  142.5382   82.2600  222.9546 H   0  0  0  0  0  0  0  0  0  0  0  0
  139.9403   81.9448  223.5779 H   0  0  0  0  0  0  0  0  0  0  0  0
  140.7581   81.3290  222.0540 H   0  0  0  0  0  0  0  0  0  0  0  0
  140.1083   79.7559  224.5401 H   0  0  0  0  0  0  0  0  0  0  0  0
  139.3175   79.6723  222.8936 H   0  0  0  0  0  0  0  0  0  0  0  0
  1  2  1  0
  2  3  1  0
  3  4  1  0
  4  5  1  0
  5  6  1  0
  6  7  2  0
  6  8  1  0
  8  9  2  0
  9 10  1  0
 10 11  2  0
 11 12  1  0
 12 13  2  0
 13 14  1  0
 13 15  1  0
 15 16  2  0
 16 17  1  0
 17 18  2  0
  2 19  1  0
 19 20  2  0
 19 21  1  0
 21 22  1  0
 22 23  1  0
 23 24  1  0
 23 25  1  0
 25 26  1  0
 26 27  1  0
 27 28  1  0
 28 29  1  0
 29 30  1  0
 30 31  1  0
 31 32  1  0
 18  8  1  0
 26 21  1  0
 32 27  1  0
 17 11  1  0
  1 33  1  0
  1 34  1  0
  1 35  1  0
  3 36  1  0
  3 37  1  0
  4 38  1  0
  4 39  1  0
  5 40  1  0
  9 41  1  0
 10 42  1  0
 12 43  1  0
 15 44  1  0
 16 45  1  0
 21 46  1  1
 22 47  1  0
 22 48  1  0
 23 49  1  6
 24 50  1  0
 25 51  1  0
 25 52  1  0
 27 53  1  0
 28 54  1  0
 28 55  1  0
 29 56  1  0
 29 57  1  0
 30 58  1  0
 30 59  1  0
 31 60  1  0
 31 61  1  0
 32 62  1  0
 32 63  1  0
M  END
>  <smiles>  (3) 
CN(CCNC(=O)c1ccc2cc(F)ccc2n1)C(=O)[C@H]1C[C@H](O)CN1C1CCCCC1

>  <score_type>  (3) 
oracle

>  <origin>  (3) 
autodockgpu

>  <m_score__min__energy>  (3) 
-8.6799999999999997

>  <m_primary>  (3) 
energy

>  <rmsd>  (3) 
10.09293598228437

>  <m_score__min__rmsd>  (3) 
10.09293598228437

>  <meeko>  (3) 
{"free_energy": -8.61, "intermolecular_energy": -11.0, "internal_energy": -1.64, "cluster_size": 13, "cluster_id": 1, "rank_in_cluster": 2}

>  <energy>  (3) 
-8.44

>  <cluster_rmsd>  (3) 
0.68

>  <cluster>  (3) 
1

$$$$

     RDKit          3D

 63 66  0  0  0  0  0  0  0  0999 V2000
  137.9100   76.7890  219.8210 C   0  0  0  0  0  0  0  0  0  0  0  0
  138.0020   76.3220  221.2050 N   0  0  0  0  0  0  0  0  0  0  0  0
  137.6240   74.9620  221.4600 C   0  0  0  0  0  0  0  0  0  0  0  0
  138.7670   73.9950  221.2070 C   0  0  0  0  0  0  0  0  0  0  0  0
  139.0470   73.1360  222.3290 N   0  0  0  0  0  0  0  0  0  0  0  0
  139.0070   71.7170  222.2730 C   0  0  0  0  0  0  0  0  0  0  0  0
  138.7190   71.1120  221.2260 O   0  0  0  0  0  0  0  0  0  0  0  0
  139.3110   70.9260  223.4790 C   0  0  0  0  0  0  0  0  0  0  0  0
  139.0230   69.5820  223.5330 C   0  0  0  0  0  0  0  0  0  0  0  0
  139.3030   68.8260  224.6590 C   0  0  0  0  0  0  0  0  0  0  0  0
  139.8810   69.4710  225.7250 C   0  0  0  0  0  0  0  0  0  0  0  0
  140.2010   68.7940  226.9030 C   0  0  0  0  0  0  0  0  0  0  0  0
  140.7830   69.4830  227.9540 C   0  0  0  0  0  0  0  0  0  0  0  0
  141.0870   68.8120  229.0930 F   0  0  0  0  0  0  0  0  0  0  0  0
  141.0690   70.8210  227.8990 C   0  0  0  0  0  0  0  0  0  0  0  0
  140.7540   71.5000  226.7300 C   0  0  0  0  0  0  0  0  0  0  0  0
  140.1730   70.8210  225.6790 C   0  0  0  0  0  0  0  0  0  0  0  0
  139.8810   71.5030  224.5630 N   0  0  0  0  0  0  0  0  0  0  0  0
  138.4390   77.2590  222.1640 C   0  0  0  0  0  0  0  0  0  0  0  0
  137.5500   77.8040  222.8820 O   0  0  0  0  0  0  0  0  0  0  0  0
  139.8490   77.6510  222.3950 C   0  0  1  0  0  0  0  0  0  0  0  0
  140.7480   76.4320  222.3530 C   0  0  0  0  0  0  0  0  0  0  0  0
  141.0970   76.3660  220.8610 C   0  0  2  0  0  0  0  0  0  0  0  0
  142.2520   75.6560  220.6160 O   0  0  0  0  0  0  0  0  0  0  0  0
  141.3270   77.8380  220.5930 C   0  0  0  0  0  0  0  0  0  0  0  0
  140.2860   78.5160  221.3150 N   0  0  0  0  0  0  0  0  0  0  0  0
  140.7280   79.7980  221.8350 C   0  0  0  0  0  0  0  0  0  0  0  0
  140.4590   79.9150  223.3100 C   0  0  0  0  0  0  0  0  0  0  0  0
  141.1460   81.1930  223.8110 C   0  0  0  0  0  0  0  0  0  0  0  0
  142.6200   80.8570  223.9070 C   0  0  0  0  0  0  0  0  0  0  0  0
  143.0460   79.9920  222.7680 C   0  0  0  0  0  0  0  0  0  0  0  0
  142.1630   80.0770  221.5530 C   0  0  0  0  0  0  0  0  0  0  0  0
  137.6974   77.8682  219.8115 H   0  0  0  0  0  0  0  0  0  0  0  0
  138.8629   76.5985  219.3056 H   0  0  0  0  0  0  0  0  0  0  0  0
  137.1005   76.2513  219.3056 H   0  0  0  0  0  0  0  0  0  0  0  0
  137.3092   74.8722  222.5102 H   0  0  0  0  0  0  0  0  0  0  0  0
  136.8036   74.7039  220.7742 H   0  0  0  0  0  0  0  0  0  0  0  0
  138.5073   73.3663  220.3425 H   0  0  0  0  0  0  0  0  0  0  0  0
  139.6691   74.5979  221.0258 H   0  0  0  0  0  0  0  0  0  0  0  0
  139.3050   73.5440  223.2790 H   0  0  0  0  0  0  0  0  0  0  0  0
  138.5595   69.0965  222.6615 H   0  0  0  0  0  0  0  0  0  0  0  0
  139.0716   67.7513  224.6981 H   0  0  0  0  0  0  0  0  0  0  0  0
  139.9919   67.7181  226.9961 H   0  0  0  0  0  0  0  0  0  0  0  0
  141.5322   71.3396  228.7514 H   0  0  0  0  0  0  0  0  0  0  0  0
  140.9669   72.5756  226.6420 H   0  0  0  0  0  0  0  0  0  0  0  0
  139.9093   78.1498  223.3736 H   0  0  0  0  0  0  0  0  0  0  0  0
  141.6471   76.5734  222.9708 H   0  0  0  0  0  0  0  0  0  0  0  0
  140.2834   75.5163  222.7475 H   0  0  0  0  0  0  0  0  0  0  0  0
  140.3354   75.8667  220.2440 H   0  0  0  0  0  0  0  0  0  0  0  0
  142.9740   76.0580  221.1790 H   0  0  0  0  0  0  0  0  0  0  0  0
  142.3166   78.1476  220.9602 H   0  0  0  0  0  0  0  0  0  0  0  0
  141.3024   78.0704  219.5181 H   0  0  0  0  0  0  0  0  0  0  0  0
  140.1369   80.5574  221.3021 H   0  0  0  0  0  0  0  0  0  0  0  0
  139.3755   79.9775  223.4892 H   0  0  0  0  0  0  0  0  0  0  0  0
  140.8479   79.0349  223.8430 H   0  0  0  0  0  0  0  0  0  0  0  0
  140.9863   82.0177  223.1008 H   0  0  0  0  0  0  0  0  0  0  0  0
  140.7403   81.5180  224.7804 H   0  0  0  0  0  0  0  0  0  0  0  0
  143.2035   81.7893  223.8887 H   0  0  0  0  0  0  0  0  0  0  0  0
  142.7949   80.3116  224.8461 H   0  0  0  0  0  0  0  0  0  0  0  0
  144.0637   80.2883  222.4740 H   0  0  0  0  0  0  0  0  0  0  0  0
  142.9855   78.9535  223.1255 H   0  0  0  0  0  0  0  0  0  0  0  0
  142.2439   81.0914  221.1352 H   0  0  0  0  0  0  0  0  0  0  0  0
  142.5084   79.3046  220.8500 H   0  0  0  0  0  0  0  0  0  0  0  0
  1  2  1  0
  2  3  1  0
  3  4  1  0
  4  5  1  0
  5  6  1  0
  6  7  2  0
  6  8  1  0
  8  9  2  0
  9 10  1  0
 10 11  2  0
 11 12  1  0
 12 13  2  0
 13 14  1  0
 13 15  1  0
 15 16  2  0
 16 17  1  0
 17 18  2  0
  2 19  1  0
 19 20  2  0
 19 21  1  0
 21 22  1  0
 22 23  1  0
 23 24  1  0
 23 25  1  0
 25 26  1  0
 26 27  1  0
 27 28  1  0
 28 29  1  0
 29 30  1  0
 30 31  1  0
 31 32  1  0
 18  8  1  0
 26 21  1  0
 32 27  1  0
 17 11  1  0
  1 33  1  0
  1 34  1  0
  1 35  1  0
  3 36  1  0
  3 37  1  0
  4 38  1  0
  4 39  1  0
  5 40  1  0
  9 41  1  0
 10 42  1  0
 12 43  1  0
 15 44  1  0
 16 45  1  0
 21 46  1  1
 22 47  1  0
 22 48  1  0
 23 49  1  6
 24 50  1  0
 25 51  1  0
 25 52  1  0
 27 53  1  0
 28 54  1  0
 28 55  1  0
 29 56  1  0
 29 57  1  0
 30 58  1  0
 30 59  1  0
 31 60  1  0
 31 61  1  0
 32 62  1  0
 32 63  1  0
M  END
>  <smiles>  (4) 
CN(CCNC(=O)c1ccc2cc(F)ccc2n1)C(=O)[C@H]1C[C@H](O)CN1C1CCCCC1

>  <score_type>  (4) 
oracle

>  <origin>  (4) 
autodockgpu

>  <m_score__min__energy>  (4) 
-8.6799999999999997

>  <m_primary>  (4) 
energy

>  <rmsd>  (4) 
10.240623484109252

>  <m_score__min__rmsd>  (4) 
10.240623484109252

>  <meeko>  (4) 
{"free_energy": -8.41, "intermolecular_energy": -10.79, "internal_energy": -1.96, "cluster_size": 13, "cluster_id": 1, "rank_in_cluster": 4}

>  <energy>  (4) 
-8.41

>  <cluster_rmsd>  (4) 
1.8

>  <cluster>  (4) 
1

$$$$

     RDKit          3D

 63 66  0  0  0  0  0  0  0  0999 V2000
  137.7500   80.5620  221.0390 C   0  0  0  0  0  0  0  0  0  0  0  0
  138.8160   79.7920  220.3960 N   0  0  0  0  0  0  0  0  0  0  0  0
  139.6700   80.4970  219.4850 C   0  0  0  0  0  0  0  0  0  0  0  0
  141.1240   80.4610  219.9230 C   0  0  0  0  0  0  0  0  0  0  0  0
  141.7560   79.1860  219.6940 N   0  0  0  0  0  0  0  0  0  0  0  0
  142.0130   78.6470  218.4040 C   0  0  0  0  0  0  0  0  0  0  0  0
  141.7000   79.2560  217.3670 O   0  0  0  0  0  0  0  0  0  0  0  0
  142.6670   77.3320  218.2760 C   0  0  0  0  0  0  0  0  0  0  0  0
  142.8900   76.7720  217.0390 C   0  0  0  0  0  0  0  0  0  0  0  0
  143.5030   75.5380  216.9030 C   0  0  0  0  0  0  0  0  0  0  0  0
  143.8820   74.8910  218.0530 C   0  0  0  0  0  0  0  0  0  0  0  0
  144.5080   73.6440  218.0190 C   0  0  0  0  0  0  0  0  0  0  0  0
  144.8750   73.0260  219.2030 C   0  0  0  0  0  0  0  0  0  0  0  0
  145.4810   71.8140  219.1530 F   0  0  0  0  0  0  0  0  0  0  0  0
  144.6530   73.5850  220.4330 C   0  0  0  0  0  0  0  0  0  0  0  0
  144.0320   74.8260  220.4750 C   0  0  0  0  0  0  0  0  0  0  0  0
  143.6630   75.4470  219.3000 C   0  0  0  0  0  0  0  0  0  0  0  0
  143.0650   76.6450  219.3710 N   0  0  0  0  0  0  0  0  0  0  0  0
  138.8930   78.4220  220.7200 C   0  0  0  0  0  0  0  0  0  0  0  0
  138.5630   77.5980  219.8170 O   0  0  0  0  0  0  0  0  0  0  0  0
  139.3280   77.8750  222.0270 C   0  0  1  0  0  0  0  0  0  0  0  0
  138.7810   76.4760  222.2200 C   0  0  0  0  0  0  0  0  0  0  0  0
  139.8930   75.6270  221.5900 C   0  0  2  0  0  0  0  0  0  0  0  0
  139.8880   74.3250  222.0370 O   0  0  0  0  0  0  0  0  0  0  0  0
  141.1030   76.3570  222.1340 C   0  0  0  0  0  0  0  0  0  0  0  0
  140.7740   77.7530  222.0330 N   0  0  0  0  0  0  0  0  0  0  0  0
  141.3470   78.5280  223.1210 C   0  0  0  0  0  0  0  0  0  0  0  0
  142.5410   79.3180  222.6620 C   0  0  0  0  0  0  0  0  0  0  0  0
  142.9430   80.2610  223.8040 C   0  0  0  0  0  0  0  0  0  0  0  0
  141.9380   81.3940  223.7770 C   0  0  0  0  0  0  0  0  0  0  0  0
  140.5690   80.8850  223.4680 C   0  0  0  0  0  0  0  0  0  0  0  0
  140.3590   79.4280  223.7770 C   0  0  0  0  0  0  0  0  0  0  0  0
  137.8523   80.4881  222.1317 H   0  0  0  0  0  0  0  0  0  0  0  0
  137.8242   81.6163  220.7342 H   0  0  0  0  0  0  0  0  0  0  0  0
  136.7724   80.1602  220.7342 H   0  0  0  0  0  0  0  0  0  0  0  0
  139.5873   80.0342  218.4906 H   0  0  0  0  0  0  0  0  0  0  0  0
  139.3482   81.5486  219.4630 H   0  0  0  0  0  0  0  0  0  0  0  0
  141.6765   81.2303  219.3636 H   0  0  0  0  0  0  0  0  0  0  0  0
  141.1427   80.6443  221.0075 H   0  0  0  0  0  0  0  0  0  0  0  0
  142.0670   78.5760  220.5100 H   0  0  0  0  0  0  0  0  0  0  0  0
  142.5740   77.3173  216.1374 H   0  0  0  0  0  0  0  0  0  0  0  0
  143.6794   75.0935  215.9124 H   0  0  0  0  0  0  0  0  0  0  0  0
  144.7092   73.1536  217.0551 H   0  0  0  0  0  0  0  0  0  0  0  0
  144.9561   73.0688  221.3558 H   0  0  0  0  0  0  0  0  0  0  0  0
  143.8350   75.3122  221.4418 H   0  0  0  0  0  0  0  0  0  0  0  0
  138.9675   78.5487  222.8183 H   0  0  0  0  0  0  0  0  0  0  0  0
  138.6489   76.2391  223.2860 H   0  0  0  0  0  0  0  0  0  0  0  0
  137.7872   76.3164  221.7764 H   0  0  0  0  0  0  0  0  0  0  0  0
  139.8223   75.5374  220.4959 H   0  0  0  0  0  0  0  0  0  0  0  0
  140.7060   73.8810  221.6720 H   0  0  0  0  0  0  0  0  0  0  0  0
  141.2837   76.0776  223.1825 H   0  0  0  0  0  0  0  0  0  0  0  0
  142.0192   76.1079  221.5785 H   0  0  0  0  0  0  0  0  0  0  0  0
  141.6709   77.7948  223.8743 H   0  0  0  0  0  0  0  0  0  0  0  0
  143.3729   78.6376  222.4275 H   0  0  0  0  0  0  0  0  0  0  0  0
  142.2982   79.8920  221.7556 H   0  0  0  0  0  0  0  0  0  0  0  0
  142.9004   79.7342  224.7687 H   0  0  0  0  0  0  0  0  0  0  0  0
  143.9721   80.6297  223.6813 H   0  0  0  0  0  0  0  0  0  0  0  0
  141.9253   81.8876  224.7600 H   0  0  0  0  0  0  0  0  0  0  0  0
  142.2331   82.1067  222.9928 H   0  0  0  0  0  0  0  0  0  0  0  0
  139.8451   81.4684  224.0559 H   0  0  0  0  0  0  0  0  0  0  0  0
  140.4322   80.9967  222.3823 H   0  0  0  0  0  0  0  0  0  0  0  0
  140.4329   79.2899  224.8658 H   0  0  0  0  0  0  0  0  0  0  0  0
  139.3676   79.1563  223.3855 H   0  0  0  0  0  0  0  0  0  0  0  0
  1  2  1  0
  2  3  1  0
  3  4  1  0
  4  5  1  0
  5  6  1  0
  6  7  2  0
  6  8  1  0
  8  9  2  0
  9 10  1  0
 10 11  2  0
 11 12  1  0
 12 13  2  0
 13 14  1  0
 13 15  1  0
 15 16  2  0
 16 17  1  0
 17 18  2  0
  2 19  1  0
 19 20  2  0
 19 21  1  0
 21 22  1  0
 22 23  1  0
 23 24  1  0
 23 25  1  0
 25 26  1  0
 26 27  1  0
 27 28  1  0
 28 29  1  0
 29 30  1  0
 30 31  1  0
 31 32  1  0
 18  8  1  0
 26 21  1  0
 32 27  1  0
 17 11  1  0
  1 33  1  0
  1 34  1  0
  1 35  1  0
  3 36  1  0
  3 37  1  0
  4 38  1  0
  4 39  1  0
  5 40  1  0
  9 41  1  0
 10 42  1  0
 12 43  1  0
 15 44  1  0
 16 45  1  0
 21 46  1  1
 22 47  1  0
 22 48  1  0
 23 49  1  6
 24 50  1  0
 25 51  1  0
 25 52  1  0
 27 53  1  0
 28 54  1  0
 28 55  1  0
 29 56  1  0
 29 57  1  0
 30 58  1  0
 30 59  1  0
 31 60  1  0
 31 61  1  0
 32 62  1  0
 32 63  1  0
M  END
>  <smiles>  (5) 
CN(CCNC(=O)c1ccc2cc(F)ccc2n1)C(=O)[C@H]1C[C@H](O)CN1C1CCCCC1

>  <score_type>  (5) 
oracle

>  <origin>  (5) 
autodockgpu

>  <m_score__min__energy>  (5) 
-8.6799999999999997

>  <m_primary>  (5) 
energy

>  <rmsd>  (5) 
8.384293728457289

>  <m_score__min__rmsd>  (5) 
8.384293728457289

>  <meeko>  (5) 
{"free_energy": -6.34, "intermolecular_energy": -8.72, "internal_energy": -3.96, "cluster_size": 2, "cluster_id": 7, "rank_in_cluster": 2}

>  <energy>  (5) 
-8.38

>  <cluster_rmsd>  (5) 
1.9

>  <cluster>  (5) 
1

$$$$

     RDKit          3D

 63 66  0  0  0  0  0  0  0  0999 V2000
  138.7030   76.0300  222.7380 C   0  0  0  0  0  0  0  0  0  0  0  0
  139.7380   76.0330  221.7030 N   0  0  0  0  0  0  0  0  0  0  0  0
  139.7360   74.9390  220.7760 C   0  0  0  0  0  0  0  0  0  0  0  0
  138.6660   73.9130  221.1070 C   0  0  0  0  0  0  0  0  0  0  0  0
  138.9990   73.0870  222.2400 N   0  0  0  0  0  0  0  0  0  0  0  0
  138.9530   71.6660  222.2280 C   0  0  0  0  0  0  0  0  0  0  0  0
  138.6150   71.0320  221.2140 O   0  0  0  0  0  0  0  0  0  0  0  0
  139.3140   70.9110  223.4410 C   0  0  0  0  0  0  0  0  0  0  0  0
  139.1090   69.5520  223.5130 C   0  0  0  0  0  0  0  0  0  0  0  0
  139.4430   68.8290  224.6450 C   0  0  0  0  0  0  0  0  0  0  0  0
  139.9890   69.5210  225.6990 C   0  0  0  0  0  0  0  0  0  0  0  0
  140.3590   68.8790  226.8820 C   0  0  0  0  0  0  0  0  0  0  0  0
  140.9060   69.6150  227.9200 C   0  0  0  0  0  0  0  0  0  0  0  0
  141.2600   68.9780  229.0640 F   0  0  0  0  0  0  0  0  0  0  0  0
  141.1110   70.9670  227.8470 C   0  0  0  0  0  0  0  0  0  0  0  0
  140.7460   71.6110  226.6720 C   0  0  0  0  0  0  0  0  0  0  0  0
  140.1990   70.8850  225.6340 C   0  0  0  0  0  0  0  0  0  0  0  0
  139.8570   71.5340  224.5120 N   0  0  0  0  0  0  0  0  0  0  0  0
  140.6530   77.1060  221.7240 C   0  0  0  0  0  0  0  0  0  0  0  0
  141.6780   77.0010  220.9900 O   0  0  0  0  0  0  0  0  0  0  0  0
  140.5060   78.3390  222.5340 C   0  0  1  0  0  0  0  0  0  0  0  0
  141.7690   78.6000  223.3280 C   0  0  0  0  0  0  0  0  0  0  0  0
  142.5790   79.4460  222.3380 C   0  0  2  0  0  0  0  0  0  0  0  0
  143.5480   80.2060  222.9560 O   0  0  0  0  0  0  0  0  0  0  0  0
  141.4760   80.3410  221.8130 C   0  0  0  0  0  0  0  0  0  0  0  0
  140.3410   79.4740  221.6450 N   0  0  0  0  0  0  0  0  0  0  0  0
  139.0880   80.1580  221.9180 C   0  0  0  0  0  0  0  0  0  0  0  0
  138.0070   79.1880  222.3080 C   0  0  0  0  0  0  0  0  0  0  0  0
  136.7970   80.0030  222.7830 C   0  0  0  0  0  0  0  0  0  0  0  0
  137.1430   80.4810  224.1780 C   0  0  0  0  0  0  0  0  0  0  0  0
  138.5820   80.8680  224.2670 C   0  0  0  0  0  0  0  0  0  0  0  0
  139.2180   81.2220  222.9510 C   0  0  0  0  0  0  0  0  0  0  0  0
  139.1771   76.0314  223.7306 H   0  0  0  0  0  0  0  0  0  0  0  0
  138.0745   76.9263  222.6306 H   0  0  0  0  0  0  0  0  0  0  0  0
  138.0797   75.1300  222.6306 H   0  0  0  0  0  0  0  0  0  0  0  0
  139.5512   75.3309  219.7649 H   0  0  0  0  0  0  0  0  0  0  0  0
  140.7146   74.4405  220.8375 H   0  0  0  0  0  0  0  0  0  0  0  0
  137.7284   74.4448  221.3262 H   0  0  0  0  0  0  0  0  0  0  0  0
  138.5717   73.2481  220.2358 H   0  0  0  0  0  0  0  0  0  0  0  0
  139.3030   73.5220  223.1640 H   0  0  0  0  0  0  0  0  0  0  0  0
  138.6696   69.0284  222.6511 H   0  0  0  0  0  0  0  0  0  0  0  0
  139.2778   67.7428  224.6988 H   0  0  0  0  0  0  0  0  0  0  0  0
  140.2168   67.7935  226.9894 H   0  0  0  0  0  0  0  0  0  0  0  0
  141.5491   71.5230  228.6890 H   0  0  0  0  0  0  0  0  0  0  0  0
  140.8925   72.6963  226.5692 H   0  0  0  0  0  0  0  0  0  0  0  0
  139.6424   78.2096  223.2029 H   0  0  0  0  0  0  0  0  0  0  0  0
  141.5554   79.1568  224.2523 H   0  0  0  0  0  0  0  0  0  0  0  0
  142.2835   77.6888  223.6671 H   0  0  0  0  0  0  0  0  0  0  0  0
  143.1314   78.8560  221.5918 H   0  0  0  0  0  0  0  0  0  0  0  0
  144.3820   80.1260  222.4100 H   0  0  0  0  0  0  0  0  0  0  0  0
  141.2492   81.1392  222.5352 H   0  0  0  0  0  0  0  0  0  0  0  0
  141.7592   80.8375  220.8732 H   0  0  0  0  0  0  0  0  0  0  0  0
  138.8043   80.6511  220.9765 H   0  0  0  0  0  0  0  0  0  0  0  0
  137.7264   78.5716  221.4412 H   0  0  0  0  0  0  0  0  0  0  0  0
  138.3593   78.5202  223.1080 H   0  0  0  0  0  0  0  0  0  0  0  0
  136.6269   80.8606  222.1155 H   0  0  0  0  0  0  0  0  0  0  0  0
  135.8764   79.4010  222.7782 H   0  0  0  0  0  0  0  0  0  0  0  0
  136.5196   81.3531  224.4248 H   0  0  0  0  0  0  0  0  0  0  0  0
  136.9551   79.6613  224.8870 H   0  0  0  0  0  0  0  0  0  0  0  0
  138.6621   81.7403  224.9324 H   0  0  0  0  0  0  0  0  0  0  0  0
  139.1191   79.9857  224.6453 H   0  0  0  0  0  0  0  0  0  0  0  0
  138.7406   82.1366  222.5695 H   0  0  0  0  0  0  0  0  0  0  0  0
  140.2932   81.3571  223.1397 H   0  0  0  0  0  0  0  0  0  0  0  0
  1  2  1  0
  2  3  1  0
  3  4  1  0
  4  5  1  0
  5  6  1  0
  6  7  2  0
  6  8  1  0
  8  9  2  0
  9 10  1  0
 10 11  2  0
 11 12  1  0
 12 13  2  0
 13 14  1  0
 13 15  1  0
 15 16  2  0
 16 17  1  0
 17 18  2  0
  2 19  1  0
 19 20  2  0
 19 21  1  0
 21 22  1  0
 22 23  1  0
 23 24  1  0
 23 25  1  0
 25 26  1  0
 26 27  1  0
 27 28  1  0
 28 29  1  0
 29 30  1  0
 30 31  1  0
 31 32  1  0
 18  8  1  0
 26 21  1  0
 32 27  1  0
 17 11  1  0
  1 33  1  0
  1 34  1  0
  1 35  1  0
  3 36  1  0
  3 37  1  0
  4 38  1  0
  4 39  1  0
  5 40  1  0
  9 41  1  0
 10 42  1  0
 12 43  1  0
 15 44  1  0
 16 45  1  0
 21 46  1  1
 22 47  1  0
 22 48  1  0
 23 49  1  6
 24 50  1  0
 25 51  1  0
 25 52  1  0
 27 53  1  0
 28 54  1  0
 28 55  1  0
 29 56  1  0
 29 57  1  0
 30 58  1  0
 30 59  1  0
 31 60  1  0
 31 61  1  0
 32 62  1  0
 32 63  1  0
M  END
>  <smiles>  (6) 
CN(CCNC(=O)c1ccc2cc(F)ccc2n1)C(=O)[C@H]1C[C@H](O)CN1C1CCCCC1

>  <score_type>  (6) 
oracle

>  <origin>  (6) 
autodockgpu

>  <m_score__min__energy>  (6) 
-8.6799999999999997

>  <m_primary>  (6) 
energy

>  <rmsd>  (6) 
10.125475376899201

>  <m_score__min__rmsd>  (6) 
10.125475376899201

>  <meeko>  (6) 
{"free_energy": -7.9, "intermolecular_energy": -10.29, "internal_energy": -1.85, "cluster_size": 21, "cluster_id": 2, "rank_in_cluster": 15}

>  <energy>  (6) 
-8.28

>  <cluster_rmsd>  (6) 
1.5

>  <cluster>  (6) 
1

$$$$

     RDKit          3D

 63 66  0  0  0  0  0  0  0  0999 V2000
  137.1840   81.1230  224.2480 C   0  0  0  0  0  0  0  0  0  0  0  0
  138.0150   81.0370  223.0460 N   0  0  0  0  0  0  0  0  0  0  0  0
  137.3590   81.2350  221.7860 C   0  0  0  0  0  0  0  0  0  0  0  0
  136.9850   79.9210  221.1250 C   0  0  0  0  0  0  0  0  0  0  0  0
  138.0960   79.0120  220.9930 N   0  0  0  0  0  0  0  0  0  0  0  0
  138.1330   77.7140  221.5710 C   0  0  0  0  0  0  0  0  0  0  0  0
  137.1860   77.2700  222.2420 O   0  0  0  0  0  0  0  0  0  0  0  0
  139.3180   76.8590  221.3770 C   0  0  0  0  0  0  0  0  0  0  0  0
  139.3830   75.6050  221.9390 C   0  0  0  0  0  0  0  0  0  0  0  0
  140.4890   74.7900  221.7670 C   0  0  0  0  0  0  0  0  0  0  0  0
  141.5240   75.2830  221.0100 C   0  0  0  0  0  0  0  0  0  0  0  0
  142.6810   74.5370  220.7790 C   0  0  0  0  0  0  0  0  0  0  0  0
  143.7010   75.0710  220.0090 C   0  0  0  0  0  0  0  0  0  0  0  0
  144.8190   74.3340  219.7940 F   0  0  0  0  0  0  0  0  0  0  0  0
  143.6350   76.3200  219.4500 C   0  0  0  0  0  0  0  0  0  0  0  0
  142.4870   77.0670  219.6750 C   0  0  0  0  0  0  0  0  0  0  0  0
  141.4670   76.5410  220.4410 C   0  0  0  0  0  0  0  0  0  0  0  0
  140.3710   77.2860  220.6420 N   0  0  0  0  0  0  0  0  0  0  0  0
  139.3820   80.7490  223.2390 C   0  0  0  0  0  0  0  0  0  0  0  0
  139.6800   80.0050  224.2180 O   0  0  0  0  0  0  0  0  0  0  0  0
  140.4880   81.2480  222.3870 C   0  0  1  0  0  0  0  0  0  0  0  0
  141.7810   81.2870  223.1750 C   0  0  0  0  0  0  0  0  0  0  0  0
  142.3320   79.8780  222.9220 C   0  0  2  0  0  0  0  0  0  0  0  0
  143.6920   79.7940  223.1200 O   0  0  0  0  0  0  0  0  0  0  0  0
  142.0140   79.7470  221.4460 C   0  0  0  0  0  0  0  0  0  0  0  0
  140.7030   80.3170  221.2950 N   0  0  0  0  0  0  0  0  0  0  0  0
  140.5440   80.9860  220.0150 C   0  0  0  0  0  0  0  0  0  0  0  0
  141.2840   82.2950  219.9840 C   0  0  0  0  0  0  0  0  0  0  0  0
  141.2420   82.8210  218.5430 C   0  0  0  0  0  0  0  0  0  0  0  0
  142.2600   82.0040  217.7760 C   0  0  0  0  0  0  0  0  0  0  0  0
  142.2400   80.5770  218.2160 C   0  0  0  0  0  0  0  0  0  0  0  0
  140.9540   80.1390  218.8610 C   0  0  0  0  0  0  0  0  0  0  0  0
  137.8229   81.0569  225.1410 H   0  0  0  0  0  0  0  0  0  0  0  0
  136.6448   82.0817  224.2531 H   0  0  0  0  0  0  0  0  0  0  0  0
  136.4599   80.2950  224.2531 H   0  0  0  0  0  0  0  0  0  0  0  0
  136.4437   81.8223  221.9510 H   0  0  0  0  0  0  0  0  0  0  0  0
  138.0570   81.7630  221.1197 H   0  0  0  0  0  0  0  0  0  0  0  0
  136.2063   79.4347  221.7309 H   0  0  0  0  0  0  0  0  0  0  0  0
  136.6340   80.1558  220.1093 H   0  0  0  0  0  0  0  0  0  0  0  0
  138.9630   79.2860  220.4390 H   0  0  0  0  0  0  0  0  0  0  0  0
  138.5361   75.2411  222.5393 H   0  0  0  0  0  0  0  0  0  0  0  0
  140.5370   73.7880  222.2184 H   0  0  0  0  0  0  0  0  0  0  0  0
  142.7823   73.5287  221.2069 H   0  0  0  0  0  0  0  0  0  0  0  0
  144.4628   76.7170  218.8441 H   0  0  0  0  0  0  0  0  0  0  0  0
  142.3907   78.0746  219.2443 H   0  0  0  0  0  0  0  0  0  0  0  0
  140.2184   82.2516  222.0263 H   0  0  0  0  0  0  0  0  0  0  0  0
  142.4627   82.0605  222.7916 H   0  0  0  0  0  0  0  0  0  0  0  0
  141.6520   81.5352  224.2389 H   0  0  0  0  0  0  0  0  0  0  0  0
  141.9137   79.1076  223.5865 H   0  0  0  0  0  0  0  0  0  0  0  0
  144.0900   79.3950  222.2940 H   0  0  0  0  0  0  0  0  0  0  0  0
  142.7480   80.3005  220.8419 H   0  0  0  0  0  0  0  0  0  0  0  0
  142.0510   78.7012  221.1070 H   0  0  0  0  0  0  0  0  0  0  0  0
  139.4666   81.1813  219.9102 H   0  0  0  0  0  0  0  0  0  0  0  0
  140.7997   83.0152  220.6599 H   0  0  0  0  0  0  0  0  0  0  0  0
  142.3244   82.1572  220.3135 H   0  0  0  0  0  0  0  0  0  0  0  0
  140.2385   82.6832  218.1140 H   0  0  0  0  0  0  0  0  0  0  0  0
  141.4688   83.8964  218.4977 H   0  0  0  0  0  0  0  0  0  0  0  0
  142.0258   82.0530  216.7023 H   0  0  0  0  0  0  0  0  0  0  0  0
  143.2606   82.4174  217.9706 H   0  0  0  0  0  0  0  0  0  0  0  0
  142.4147   79.9434  217.3339 H   0  0  0  0  0  0  0  0  0  0  0  0
  143.0232   80.4757  218.9817 H   0  0  0  0  0  0  0  0  0  0  0  0
  140.1565   80.1737  218.1041 H   0  0  0  0  0  0  0  0  0  0  0  0
  141.1193   79.1236  219.2504 H   0  0  0  0  0  0  0  0  0  0  0  0
  1  2  1  0
  2  3  1  0
  3  4  1  0
  4  5  1  0
  5  6  1  0
  6  7  2  0
  6  8  1  0
  8  9  2  0
  9 10  1  0
 10 11  2  0
 11 12  1  0
 12 13  2  0
 13 14  1  0
 13 15  1  0
 15 16  2  0
 16 17  1  0
 17 18  2  0
  2 19  1  0
 19 20  2  0
 19 21  1  0
 21 22  1  0
 22 23  1  0
 23 24  1  0
 23 25  1  0
 25 26  1  0
 26 27  1  0
 27 28  1  0
 28 29  1  0
 29 30  1  0
 30 31  1  0
 31 32  1  0
 18  8  1  0
 26 21  1  0
 32 27  1  0
 17 11  1  0
  1 33  1  0
  1 34  1  0
  1 35  1  0
  3 36  1  0
  3 37  1  0
  4 38  1  0
  4 39  1  0
  5 40  1  0
  9 41  1  0
 10 42  1  0
 12 43  1  0
 15 44  1  0
 16 45  1  0
 21 46  1  6
 22 47  1  0
 22 48  1  0
 23 49  1  1
 24 50  1  0
 25 51  1  0
 25 52  1  0
 27 53  1  0
 28 54  1  0
 28 55  1  0
 29 56  1  0
 29 57  1  0
 30 58  1  0
 30 59  1  0
 31 60  1  0
 31 61  1  0
 32 62  1  0
 32 63  1  0
M  END
>  <smiles>  (7) 
CN(CCNC(=O)c1ccc2cc(F)ccc2n1)C(=O)[C@H]1C[C@H](O)CN1C1CCCCC1

>  <score_type>  (7) 
oracle

>  <origin>  (7) 
autodockgpu

>  <m_score__min__energy>  (7) 
-8.6799999999999997

>  <m_primary>  (7) 
energy

>  <rmsd>  (7) 
9.744044315586507

>  <m_score__min__rmsd>  (7) 
9.744044315586507

>  <meeko>  (7) 
{"free_energy": -5.65, "intermolecular_energy": -8.04, "internal_energy": -4.12, "cluster_size": 2, "cluster_id": 8, "rank_in_cluster": 2}

>  <energy>  (7) 
-8.27

>  <cluster_rmsd>  (7) 
1.53

>  <cluster>  (7) 
1

$$$$

     RDKit          3D

 63 66  0  0  0  0  0  0  0  0999 V2000
  135.8230   77.2960  220.7190 C   0  0  0  0  0  0  0  0  0  0  0  0
  137.1950   76.7980  220.6110 N   0  0  0  0  0  0  0  0  0  0  0  0
  137.3780   75.5240  219.9770 C   0  0  0  0  0  0  0  0  0  0  0  0
  136.4450   74.4680  220.5410 C   0  0  0  0  0  0  0  0  0  0  0  0
  137.0900   73.5760  221.4720 N   0  0  0  0  0  0  0  0  0  0  0  0
  136.4570   72.4460  222.0570 C   0  0  0  0  0  0  0  0  0  0  0  0
  135.2790   72.1480  221.7960 O   0  0  0  0  0  0  0  0  0  0  0  0
  137.2030   71.5940  223.0010 C   0  0  0  0  0  0  0  0  0  0  0  0
  136.6220   70.4770  223.5550 C   0  0  0  0  0  0  0  0  0  0  0  0
  137.3100   69.6670  224.4420 C   0  0  0  0  0  0  0  0  0  0  0  0
  138.6010   70.0220  224.7500 C   0  0  0  0  0  0  0  0  0  0  0  0
  139.3760   69.2690  225.6330 C   0  0  0  0  0  0  0  0  0  0  0  0
  140.6740   69.6610  225.9150 C   0  0  0  0  0  0  0  0  0  0  0  0
  141.4140   68.9190  226.7760 F   0  0  0  0  0  0  0  0  0  0  0  0
  141.2520   70.7730  225.3610 C   0  0  0  0  0  0  0  0  0  0  0  0
  140.4870   71.5260  224.4810 C   0  0  0  0  0  0  0  0  0  0  0  0
  139.1930   71.1420  224.1960 C   0  0  0  0  0  0  0  0  0  0  0  0
  138.4790   71.8890  223.3430 N   0  0  0  0  0  0  0  0  0  0  0  0
  138.2090   77.6110  221.1570 C   0  0  0  0  0  0  0  0  0  0  0  0
  138.4080   78.7320  220.6040 O   0  0  0  0  0  0  0  0  0  0  0  0
  139.0550   77.2560  222.3220 C   0  0  1  0  0  0  0  0  0  0  0  0
  138.8230   75.8130  222.7190 C   0  0  0  0  0  0  0  0  0  0  0  0
  139.8600   75.0900  221.8510 C   0  0  2  0  0  0  0  0  0  0  0  0
  140.1920   73.8460  222.3420 O   0  0  0  0  0  0  0  0  0  0  0  0
  141.0280   76.0400  222.0140 C   0  0  0  0  0  0  0  0  0  0  0  0
  140.4520   77.3550  221.9430 N   0  0  0  0  0  0  0  0  0  0  0  0
  141.1470   78.3020  222.7980 C   0  0  0  0  0  0  0  0  0  0  0  0
  142.1600   79.1000  222.0240 C   0  0  0  0  0  0  0  0  0  0  0  0
  142.6840   80.2090  222.9470 C   0  0  0  0  0  0  0  0  0  0  0  0
  141.5950   81.2610  222.9850 C   0  0  0  0  0  0  0  0  0  0  0  0
  140.2430   80.6290  223.0130 C   0  0  0  0  0  0  0  0  0  0  0  0
  140.2230   79.2150  223.5250 C   0  0  0  0  0  0  0  0  0  0  0  0
  135.5512   77.3946  221.7803 H   0  0  0  0  0  0  0  0  0  0  0  0
  135.7497   78.2781  220.2289 H   0  0  0  0  0  0  0  0  0  0  0  0
  135.1369   76.5896  220.2289 H   0  0  0  0  0  0  0  0  0  0  0  0
  137.1821   75.6321  218.9000 H   0  0  0  0  0  0  0  0  0  0  0  0
  138.4119   75.1977  220.1631 H   0  0  0  0  0  0  0  0  0  0  0  0
  135.6171   74.9742  221.0589 H   0  0  0  0  0  0  0  0  0  0  0  0
  136.0938   73.8583  219.6955 H   0  0  0  0  0  0  0  0  0  0  0  0
  138.1000   73.7340  221.7700 H   0  0  0  0  0  0  0  0  0  0  0  0
  135.5863   70.2214  223.2868 H   0  0  0  0  0  0  0  0  0  0  0  0
  136.8417   68.7746  224.8827 H   0  0  0  0  0  0  0  0  0  0  0  0
  138.9574   68.3671  226.1035 H   0  0  0  0  0  0  0  0  0  0  0  0
  142.2858   71.0589  225.6050 H   0  0  0  0  0  0  0  0  0  0  0  0
  140.9112   72.4262  224.0123 H   0  0  0  0  0  0  0  0  0  0  0  0
  138.8029   77.9360  223.1491 H   0  0  0  0  0  0  0  0  0  0  0  0
  139.0146   75.6547  223.7906 H   0  0  0  0  0  0  0  0  0  0  0  0
  137.7901   75.4657  222.5688 H   0  0  0  0  0  0  0  0  0  0  0  0
  139.5243   74.8941  220.8219 H   0  0  0  0  0  0  0  0  0  0  0  0
  139.5720   73.6510  223.1020 H   0  0  0  0  0  0  0  0  0  0  0  0
  141.5192   75.8853  222.9860 H   0  0  0  0  0  0  0  0  0  0  0  0
  141.7974   75.8842  221.2434 H   0  0  0  0  0  0  0  0  0  0  0  0
  141.6700   77.6972  223.5535 H   0  0  0  0  0  0  0  0  0  0  0  0
  142.9900   78.4493  221.7114 H   0  0  0  0  0  0  0  0  0  0  0  0
  141.7022   79.5332  221.1225 H   0  0  0  0  0  0  0  0  0  0  0  0
  142.8691   79.8122  223.9561 H   0  0  0  0  0  0  0  0  0  0  0  0
  143.6357   80.6235  222.5830 H   0  0  0  0  0  0  0  0  0  0  0  0
  141.7224   81.8785  223.8864 H   0  0  0  0  0  0  0  0  0  0  0  0
  141.6740   81.8807  222.0796 H   0  0  0  0  0  0  0  0  0  0  0  0
  139.5934   81.2372  223.6596 H   0  0  0  0  0  0  0  0  0  0  0  0
  139.8967   80.5876  221.9697 H   0  0  0  0  0  0  0  0  0  0  0  0
  140.5100   79.2261  224.5868 H   0  0  0  0  0  0  0  0  0  0  0  0
  139.2039   78.8313  223.3696 H   0  0  0  0  0  0  0  0  0  0  0  0
  1  2  1  0
  2  3  1  0
  3  4  1  0
  4  5  1  0
  5  6  1  0
  6  7  2  0
  6  8  1  0
  8  9  2  0
  9 10  1  0
 10 11  2  0
 11 12  1  0
 12 13  2  0
 13 14  1  0
 13 15  1  0
 15 16  2  0
 16 17  1  0
 17 18  2  0
  2 19  1  0
 19 20  2  0
 19 21  1  0
 21 22  1  0
 22 23  1  0
 23 24  1  0
 23 25  1  0
 25 26  1  0
 26 27  1  0
 27 28  1  0
 28 29  1  0
 29 30  1  0
 30 31  1  0
 31 32  1  0
 18  8  1  0
 26 21  1  0
 32 27  1  0
 17 11  1  0
  1 33  1  0
  1 34  1  0
  1 35  1  0
  3 36  1  0
  3 37  1  0
  4 38  1  0
  4 39  1  0
  5 40  1  0
  9 41  1  0
 10 42  1  0
 12 43  1  0
 15 44  1  0
 16 45  1  0
 21 46  1  1
 22 47  1  0
 22 48  1  0
 23 49  1  6
 24 50  1  0
 25 51  1  0
 25 52  1  0
 27 53  1  0
 28 54  1  0
 28 55  1  0
 29 56  1  0
 29 57  1  0
 30 58  1  0
 30 59  1  0
 31 60  1  0
 31 61  1  0
 32 62  1  0
 32 63  1  0
M  END
>  <smiles>  (8) 
CN(CCNC(=O)c1ccc2cc(F)ccc2n1)C(=O)[C@H]1C[C@H](O)CN1C1CCCCC1

>  <score_type>  (8) 
oracle

>  <origin>  (8) 
autodockgpu

>  <m_score__min__energy>  (8) 
-8.6799999999999997

>  <m_primary>  (8) 
energy

>  <rmsd>  (8) 
9.816455623919945

>  <m_score__min__rmsd>  (8) 
9.816455623919945

>  <meeko>  (8) 
{"free_energy": -6.57, "intermolecular_energy": -8.96, "internal_energy": -3.42, "cluster_size": 21, "cluster_id": 2, "rank_in_cluster": 21}

>  <energy>  (8) 
-8.2

>  <cluster_rmsd>  (8) 
1.06

>  <cluster>  (8) 
1

$$$$

     RDKit          3D

 63 66  0  0  0  0  0  0  0  0999 V2000
  136.4650   75.5560  223.0820 C   0  0  0  0  0  0  0  0  0  0  0  0
  137.4830   75.2450  222.0770 N   0  0  0  0  0  0  0  0  0  0  0  0
  137.1360   74.2760  221.0770 C   0  0  0  0  0  0  0  0  0  0  0  0
  138.2070   73.2120  220.9180 C   0  0  0  0  0  0  0  0  0  0  0  0
  138.7410   72.7490  222.1740 N   0  0  0  0  0  0  0  0  0  0  0  0
  139.0350   71.3870  222.4580 C   0  0  0  0  0  0  0  0  0  0  0  0
  138.8460   70.4890  221.6200 O   0  0  0  0  0  0  0  0  0  0  0  0
  139.5800   71.0140  223.7760 C   0  0  0  0  0  0  0  0  0  0  0  0
  140.3900   71.8790  224.4750 C   0  0  0  0  0  0  0  0  0  0  0  0
  140.9090   71.5440  225.7140 C   0  0  0  0  0  0  0  0  0  0  0  0
  140.5840   70.3090  226.2210 C   0  0  0  0  0  0  0  0  0  0  0  0
  141.0580   69.8810  227.4620 C   0  0  0  0  0  0  0  0  0  0  0  0
  140.7050   68.6280  227.9370 C   0  0  0  0  0  0  0  0  0  0  0  0
  141.1740   68.2260  229.1450 F   0  0  0  0  0  0  0  0  0  0  0  0
  139.8980   67.7680  227.2400 C   0  0  0  0  0  0  0  0  0  0  0  0
  139.4230   68.1890  226.0060 C   0  0  0  0  0  0  0  0  0  0  0  0
  139.7700   69.4350  225.5260 C   0  0  0  0  0  0  0  0  0  0  0  0
  139.2960   69.8130  224.3310 N   0  0  0  0  0  0  0  0  0  0  0  0
  138.7180   75.9140  222.1970 C   0  0  0  0  0  0  0  0  0  0  0  0
  139.6780   75.2630  222.7030 O   0  0  0  0  0  0  0  0  0  0  0  0
  138.9770   77.3120  221.7770 C   0  0  1  0  0  0  0  0  0  0  0  0
  137.6820   77.9900  221.3820 C   0  0  0  0  0  0  0  0  0  0  0  0
  137.2210   78.5680  222.7270 C   0  0  2  0  0  0  0  0  0  0  0  0
  136.3370   79.6140  222.5820 O   0  0  0  0  0  0  0  0  0  0  0  0
  138.5480   79.0790  223.2470 C   0  0  0  0  0  0  0  0  0  0  0  0
  139.5010   78.0580  222.9060 N   0  0  0  0  0  0  0  0  0  0  0  0
  140.8050   78.6140  222.5890 C   0  0  0  0  0  0  0  0  0  0  0  0
  140.7050   79.6890  221.5430 C   0  0  0  0  0  0  0  0  0  0  0  0
  142.0800   80.3610  221.4300 C   0  0  0  0  0  0  0  0  0  0  0  0
  142.1940   81.2710  222.6350 C   0  0  0  0  0  0  0  0  0  0  0  0
  141.6010   80.6300  223.8450 C   0  0  0  0  0  0  0  0  0  0  0  0
  141.5250   79.1300  223.7860 C   0  0  0  0  0  0  0  0  0  0  0  0
  136.8909   75.4259  224.0878 H   0  0  0  0  0  0  0  0  0  0  0  0
  136.1320   76.5969  222.9567 H   0  0  0  0  0  0  0  0  0  0  0  0
  135.6072   74.8789  222.9567 H   0  0  0  0  0  0  0  0  0  0  0  0
  136.1928   73.7896  221.3664 H   0  0  0  0  0  0  0  0  0  0  0  0
  137.0350   74.8017  220.1160 H   0  0  0  0  0  0  0  0  0  0  0  0
  137.7703   72.3536  220.3865 H   0  0  0  0  0  0  0  0  0  0  0  0
  139.0377   73.6667  220.3584 H   0  0  0  0  0  0  0  0  0  0  0  0
  138.9440   73.4300  222.9670 H   0  0  0  0  0  0  0  0  0  0  0  0
  140.6309   72.8598  224.0392 H   0  0  0  0  0  0  0  0  0  0  0  0
  141.5556   72.2387  226.2702 H   0  0  0  0  0  0  0  0  0  0  0  0
  141.7089   70.5354  228.0604 H   0  0  0  0  0  0  0  0  0  0  0  0
  139.6359   66.7791  227.6441 H   0  0  0  0  0  0  0  0  0  0  0  0
  138.7716   67.5310  225.4121 H   0  0  0  0  0  0  0  0  0  0  0  0
  139.6822   77.2921  220.9330 H   0  0  0  0  0  0  0  0  0  0  0  0
  137.8534   78.7840  220.6403 H   0  0  0  0  0  0  0  0  0  0  0  0
  136.9507   77.3205  220.9057 H   0  0  0  0  0  0  0  0  0  0  0  0
  136.6866   77.8483  223.3645 H   0  0  0  0  0  0  0  0  0  0  0  0
  136.2440   79.7920  221.6020 H   0  0  0  0  0  0  0  0  0  0  0  0
  138.8119   80.0309  222.7631 H   0  0  0  0  0  0  0  0  0  0  0  0
  138.5201   79.2723  224.3295 H   0  0  0  0  0  0  0  0  0  0  0  0
  141.3968   77.7782  222.1874 H   0  0  0  0  0  0  0  0  0  0  0  0
  140.4243   79.2458  220.5762 H   0  0  0  0  0  0  0  0  0  0  0  0
  139.9379   80.4266  221.8214 H   0  0  0  0  0  0  0  0  0  0  0  0
  142.8785   79.6046  221.4442 H   0  0  0  0  0  0  0  0  0  0  0  0
  142.1812   80.9208  220.4885 H   0  0  0  0  0  0  0  0  0  0  0  0
  143.2560   81.4854  222.8251 H   0  0  0  0  0  0  0  0  0  0  0  0
  141.6454   82.2012  222.4258 H   0  0  0  0  0  0  0  0  0  0  0  0
  142.2133   80.9083  224.7154 H   0  0  0  0  0  0  0  0  0  0  0  0
  140.5644   80.9918  223.9125 H   0  0  0  0  0  0  0  0  0  0  0  0
  142.5498   78.7305  223.7739 H   0  0  0  0  0  0  0  0  0  0  0  0
  140.9572   78.8018  224.6691 H   0  0  0  0  0  0  0  0  0  0  0  0
  1  2  1  0
  2  3  1  0
  3  4  1  0
  4  5  1  0
  5  6  1  0
  6  7  2  0
  6  8  1  0
  8  9  2  0
  9 10  1  0
 10 11  2  0
 11 12  1  0
 12 13  2  0
 13 14  1  0
 13 15  1  0
 15 16  2  0
 16 17  1  0
 17 18  2  0
  2 19  1  0
 19 20  2  0
 19 21  1  0
 21 22  1  0
 22 23  1  0
 23 24  1  0
 23 25  1  0
 25 26  1  0
 26 27  1  0
 27 28  1  0
 28 29  1  0
 29 30  1  0
 30 31  1  0
 31 32  1  0
 18  8  1  0
 26 21  1  0
 32 27  1  0
 17 11  1  0
  1 33  1  0
  1 34  1  0
  1 35  1  0
  3 36  1  0
  3 37  1  0
  4 38  1  0
  4 39  1  0
  5 40  1  0
  9 41  1  0
 10 42  1  0
 12 43  1  0
 15 44  1  0
 16 45  1  0
 21 46  1  6
 22 47  1  0
 22 48  1  0
 23 49  1  1
 24 50  1  0
 25 51  1  0
 25 52  1  0
 27 53  1  0
 28 54  1  0
 28 55  1  0
 29 56  1  0
 29 57  1  0
 30 58  1  0
 30 59  1  0
 31 60  1  0
 31 61  1  0
 32 62  1  0
 32 63  1  0
M  END
>  <smiles>  (9) 
CN(CCNC(=O)c1ccc2cc(F)ccc2n1)C(=O)[C@H]1C[C@H](O)CN1C1CCCCC1

>  <score_type>  (9) 
oracle

>  <origin>  (9) 
autodockgpu

>  <m_score__min__energy>  (9) 
-8.6799999999999997

>  <m_primary>  (9) 
energy

>  <rmsd>  (9) 
9.519921794904768

>  <m_score__min__rmsd>  (9) 
9.519921794904768

>  <meeko>  (9) 
{"free_energy": -8.11, "intermolecular_energy": -10.49, "internal_energy": -2.17, "cluster_size": 21, "cluster_id": 2, "rank_in_cluster": 11}

>  <energy>  (9) 
-8.18

>  <cluster_rmsd>  (9) 
1.6

>  <cluster>  (9) 
1

$$$$

     RDKit          3D

 63 66  0  0  0  0  0  0  0  0999 V2000
  137.9210   76.3550  221.1200 C   0  0  0  0  0  0  0  0  0  0  0  0
  138.8120   75.2090  220.9350 N   0  0  0  0  0  0  0  0  0  0  0  0
  138.3520   74.1580  220.0740 C   0  0  0  0  0  0  0  0  0  0  0  0
  137.3830   73.2270  220.7790 C   0  0  0  0  0  0  0  0  0  0  0  0
  137.9350   72.6200  221.9640 N   0  0  0  0  0  0  0  0  0  0  0  0
  137.9170   71.2220  222.2230 C   0  0  0  0  0  0  0  0  0  0  0  0
  137.4110   70.4160  221.4230 O   0  0  0  0  0  0  0  0  0  0  0  0
  138.5100   70.6990  223.4660 C   0  0  0  0  0  0  0  0  0  0  0  0
  138.2220   69.4270  223.9050 C   0  0  0  0  0  0  0  0  0  0  0  0
  138.7710   68.9210  225.0710 C   0  0  0  0  0  0  0  0  0  0  0  0
  139.6180   69.7400  225.7770 C   0  0  0  0  0  0  0  0  0  0  0  0
  140.2210   69.3200  226.9640 C   0  0  0  0  0  0  0  0  0  0  0  0
  141.0680   70.1780  227.6450 C   0  0  0  0  0  0  0  0  0  0  0  0
  141.6460   69.7560  228.7970 F   0  0  0  0  0  0  0  0  0  0  0  0
  141.3540   71.4440  227.2070 C   0  0  0  0  0  0  0  0  0  0  0  0
  140.7580   71.8680  226.0270 C   0  0  0  0  0  0  0  0  0  0  0  0
  139.9120   71.0190  225.3430 C   0  0  0  0  0  0  0  0  0  0  0  0
  139.3520   71.4560  224.2070 N   0  0  0  0  0  0  0  0  0  0  0  0
  140.0360   75.2360  221.6360 C   0  0  0  0  0  0  0  0  0  0  0  0
  140.3140   74.2260  222.3460 O   0  0  0  0  0  0  0  0  0  0  0  0
  141.0140   76.3490  221.6040 C   0  0  1  0  0  0  0  0  0  0  0  0
  142.0750   76.0870  220.5550 C   0  0  0  0  0  0  0  0  0  0  0  0
  141.4360   76.7240  219.3140 C   0  0  2  0  0  0  0  0  0  0  0  0
  142.3600   77.0460  218.3450 O   0  0  0  0  0  0  0  0  0  0  0  0
  140.8790   77.9860  219.9390 C   0  0  0  0  0  0  0  0  0  0  0  0
  140.3350   77.5680  221.2030 N   0  0  0  0  0  0  0  0  0  0  0  0
  140.4790   78.5910  222.2230 C   0  0  0  0  0  0  0  0  0  0  0  0
  141.4490   78.1690  223.2920 C   0  0  0  0  0  0  0  0  0  0  0  0
  141.7010   79.3810  224.1990 C   0  0  0  0  0  0  0  0  0  0  0  0
  142.6410   80.2850  223.4280 C   0  0  0  0  0  0  0  0  0  0  0  0
  142.2930   80.3020  221.9770 C   0  0  0  0  0  0  0  0  0  0  0  0
  140.8730   79.9150  221.6680 C   0  0  0  0  0  0  0  0  0  0  0  0
  137.7782   76.5386  222.1951 H   0  0  0  0  0  0  0  0  0  0  0  0
  138.3666   77.2452  220.6520 H   0  0  0  0  0  0  0  0  0  0  0  0
  136.9485   76.1426  220.6520 H   0  0  0  0  0  0  0  0  0  0  0  0
  137.8459   74.6061  219.2062 H   0  0  0  0  0  0  0  0  0  0  0  0
  139.2261   73.5664  219.7640 H   0  0  0  0  0  0  0  0  0  0  0  0
  136.4909   73.8033  221.0652 H   0  0  0  0  0  0  0  0  0  0  0  0
  137.1440   72.4139  220.0777 H   0  0  0  0  0  0  0  0  0  0  0  0
  138.3950   73.2140  222.7190 H   0  0  0  0  0  0  0  0  0  0  0  0
  137.5394   68.7973  223.3155 H   0  0  0  0  0  0  0  0  0  0  0  0
  138.5381   67.9035  225.4182 H   0  0  0  0  0  0  0  0  0  0  0  0
  140.0240   68.3115  227.3567 H   0  0  0  0  0  0  0  0  0  0  0  0
  142.0322   72.1017  227.7705 H   0  0  0  0  0  0  0  0  0  0  0  0
  140.9594   72.8772  225.6386 H   0  0  0  0  0  0  0  0  0  0  0  0
  141.4648   76.4380  222.6034 H   0  0  0  0  0  0  0  0  0  0  0  0
  143.0261   76.5754  220.8137 H   0  0  0  0  0  0  0  0  0  0  0  0
  142.3345   75.0251  220.4328 H   0  0  0  0  0  0  0  0  0  0  0  0
  140.7167   76.0723  218.7964 H   0  0  0  0  0  0  0  0  0  0  0  0
  143.0680   77.6010  218.7820 H   0  0  0  0  0  0  0  0  0  0  0  0
  141.6772   78.7281  220.0882 H   0  0  0  0  0  0  0  0  0  0  0  0
  140.1205   78.4626  219.3006 H   0  0  0  0  0  0  0  0  0  0  0  0
  139.4816   78.7090  222.6717 H   0  0  0  0  0  0  0  0  0  0  0  0
  141.0222   77.3433  223.8803 H   0  0  0  0  0  0  0  0  0  0  0  0
  142.3910   77.8223  222.8421 H   0  0  0  0  0  0  0  0  0  0  0  0
  140.7565   79.9029  224.4121 H   0  0  0  0  0  0  0  0  0  0  0  0
  142.1305   79.0807  225.1661 H   0  0  0  0  0  0  0  0  0  0  0  0
  142.5668   81.3070  223.8281 H   0  0  0  0  0  0  0  0  0  0  0  0
  143.6663   79.9024  223.5390 H   0  0  0  0  0  0  0  0  0  0  0  0
  142.4616   81.3200  221.5959 H   0  0  0  0  0  0  0  0  0  0  0  0
  142.9329   79.5485  221.4946 H   0  0  0  0  0  0  0  0  0  0  0  0
  140.2049   80.6807  222.0891 H   0  0  0  0  0  0  0  0  0  0  0  0
  140.7907   79.8420  220.5735 H   0  0  0  0  0  0  0  0  0  0  0  0
  1  2  1  0
  2  3  1  0
  3  4  1  0
  4  5  1  0
  5  6  1  0
  6  7  2  0
  6  8  1  0
  8  9  2  0
  9 10  1  0
 10 11  2  0
 11 12  1  0
 12 13  2  0
 13 14  1  0
 13 15  1  0
 15 16  2  0
 16 17  1  0
 17 18  2  0
  2 19  1  0
 19 20  2  0
 19 21  1  0
 21 22  1  0
 22 23  1  0
 23 24  1  0
 23 25  1  0
 25 26  1  0
 26 27  1  0
 27 28  1  0
 28 29  1  0
 29 30  1  0
 30 31  1  0
 31 32  1  0
 18  8  1  0
 26 21  1  0
 32 27  1  0
 17 11  1  0
  1 33  1  0
  1 34  1  0
  1 35  1  0
  3 36  1  0
  3 37  1  0
  4 38  1  0
  4 39  1  0
  5 40  1  0
  9 41  1  0
 10 42  1  0
 12 43  1  0
 15 44  1  0
 16 45  1  0
 21 46  1  1
 22 47  1  0
 22 48  1  0
 23 49  1  6
 24 50  1  0
 25 51  1  0
 25 52  1  0
 27 53  1  0
 28 54  1  0
 28 55  1  0
 29 56  1  0
 29 57  1  0
 30 58  1  0
 30 59  1  0
 31 60  1  0
 31 61  1  0
 32 62  1  0
 32 63  1  0
M  END
>  <smiles>  (10) 
CN(CCNC(=O)c1ccc2cc(F)ccc2n1)C(=O)[C@H]1C[C@H](O)CN1C1CCCCC1

>  <score_type>  (10) 
oracle

>  <origin>  (10) 
autodockgpu

>  <m_score__min__energy>  (10) 
-8.6799999999999997

>  <m_primary>  (10) 
energy

>  <rmsd>  (10) 
9.927680968610655

>  <m_score__min__rmsd>  (10) 
9.927680968610655

>  <meeko>  (10) 
{"free_energy": -7.74, "intermolecular_energy": -10.13, "internal_energy": -2.55, "cluster_size": 21, "cluster_id": 2, "rank_in_cluster": 19}

>  <energy>  (10) 
-8.13

>  <cluster_rmsd>  (10) 
1.9

>  <cluster>  (10) 
1

$$$$

     RDKit          3D

 63 66  0  0  0  0  0  0  0  0999 V2000
  140.2250   76.9740  222.1640 C   0  0  0  0  0  0  0  0  0  0  0  0
  139.7720   75.6920  221.6230 N   0  0  0  0  0  0  0  0  0  0  0  0
  138.3560   75.4730  221.5620 C   0  0  0  0  0  0  0  0  0  0  0  0
  138.0150   74.0240  221.2620 C   0  0  0  0  0  0  0  0  0  0  0  0
  138.4810   73.1080  222.2720 N   0  0  0  0  0  0  0  0  0  0  0  0
  138.1160   71.7350  222.3280 C   0  0  0  0  0  0  0  0  0  0  0  0
  137.3540   71.2270  221.4880 O   0  0  0  0  0  0  0  0  0  0  0  0
  138.6460   70.8780  223.4030 C   0  0  0  0  0  0  0  0  0  0  0  0
  138.4340   69.5190  223.3930 C   0  0  0  0  0  0  0  0  0  0  0  0
  138.9260   68.7010  224.3960 C   0  0  0  0  0  0  0  0  0  0  0  0
  139.6380   69.3000  225.4060 C   0  0  0  0  0  0  0  0  0  0  0  0
  140.1750   68.5600  226.4600 C   0  0  0  0  0  0  0  0  0  0  0  0
  140.8870   69.2030  227.4590 C   0  0  0  0  0  0  0  0  0  0  0  0
  141.4020   68.4710  228.4780 F   0  0  0  0  0  0  0  0  0  0  0  0
  141.0990   70.5570  227.4680 C   0  0  0  0  0  0  0  0  0  0  0  0
  140.5690   71.2990  226.4210 C   0  0  0  0  0  0  0  0  0  0  0  0
  139.8570   70.6650  225.4230 C   0  0  0  0  0  0  0  0  0  0  0  0
  139.3570   71.4070  224.4260 N   0  0  0  0  0  0  0  0  0  0  0  0
  140.7740   74.7820  221.2260 C   0  0  0  0  0  0  0  0  0  0  0  0
  141.0730   73.8640  222.0440 O   0  0  0  0  0  0  0  0  0  0  0  0
  141.4970   74.8170  219.9330 C   0  0  1  0  0  0  0  0  0  0  0  0
  141.2140   76.1170  219.2070 C   0  0  0  0  0  0  0  0  0  0  0  0
  142.3250   77.0190  219.7590 C   0  0  2  0  0  0  0  0  0  0  0  0
  142.5950   78.0920  218.9380 O   0  0  0  0  0  0  0  0  0  0  0  0
  143.4800   76.0400  219.7280 C   0  0  0  0  0  0  0  0  0  0  0  0
  142.9260   74.7950  220.1860 N   0  0  0  0  0  0  0  0  0  0  0  0
  143.5420   73.6520  219.5350 C   0  0  0  0  0  0  0  0  0  0  0  0
  144.6580   73.0810  220.3660 C   0  0  0  0  0  0  0  0  0  0  0  0
  145.1000   71.7650  219.7130 C   0  0  0  0  0  0  0  0  0  0  0  0
  144.0420   70.7460  220.0830 C   0  0  0  0  0  0  0  0  0  0  0  0
  142.6800   71.3560  220.0490 C   0  0  0  0  0  0  0  0  0  0  0  0
  142.5650   72.5830  219.1880 C   0  0  0  0  0  0  0  0  0  0  0  0
  140.2108   76.9337  223.2632 H   0  0  0  0  0  0  0  0  0  0  0  0
  141.2492   77.1767  221.8178 H   0  0  0  0  0  0  0  0  0  0  0  0
  139.5556   77.7752  221.8178 H   0  0  0  0  0  0  0  0  0  0  0  0
  137.9123   75.7488  222.5300 H   0  0  0  0  0  0  0  0  0  0  0  0
  137.9521   76.0919  220.7473 H   0  0  0  0  0  0  0  0  0  0  0  0
  136.9216   73.9315  221.1844 H   0  0  0  0  0  0  0  0  0  0  0  0
  138.5212   73.7580  220.3223 H   0  0  0  0  0  0  0  0  0  0  0  0
  139.1390   73.4330  223.0430 H   0  0  0  0  0  0  0  0  0  0  0  0
  137.8599   69.0713  222.5684 H   0  0  0  0  0  0  0  0  0  0  0  0
  138.7534   67.6147  224.3843 H   0  0  0  0  0  0  0  0  0  0  0  0
  140.0334   67.4698  226.4974 H   0  0  0  0  0  0  0  0  0  0  0  0
  141.6689   71.0388  228.2761 H   0  0  0  0  0  0  0  0  0  0  0  0
  140.7161   72.3886  226.3870 H   0  0  0  0  0  0  0  0  0  0  0  0
  141.1703   73.9539  219.3345 H   0  0  0  0  0  0  0  0  0  0  0  0
  141.2983   75.9958  218.1170 H   0  0  0  0  0  0  0  0  0  0  0  0
  140.1977   76.5078  219.3635 H   0  0  0  0  0  0  0  0  0  0  0  0
  142.0912   77.4737  220.7330 H   0  0  0  0  0  0  0  0  0  0  0  0
  143.5770   78.2720  218.9970 H   0  0  0  0  0  0  0  0  0  0  0  0
  143.8711   75.9359  218.7051 H   0  0  0  0  0  0  0  0  0  0  0  0
  144.3205   76.3732  220.3546 H   0  0  0  0  0  0  0  0  0  0  0  0
  143.9578   74.0339  218.5910 H   0  0  0  0  0  0  0  0  0  0  0  0
  145.5016   73.7863  220.3956 H   0  0  0  0  0  0  0  0  0  0  0  0
  144.3186   72.9042  221.3973 H   0  0  0  0  0  0  0  0  0  0  0  0
  145.1564   71.8794  218.6204 H   0  0  0  0  0  0  0  0  0  0  0  0
  146.0979   71.4566  220.0580 H   0  0  0  0  0  0  0  0  0  0  0  0
  144.0806   69.9110  219.3680 H   0  0  0  0  0  0  0  0  0  0  0  0
  144.2411   70.3874  221.1037 H   0  0  0  0  0  0  0  0  0  0  0  0
  141.9758   70.6020  219.6675 H   0  0  0  0  0  0  0  0  0  0  0  0
  142.4555   71.6748  221.0776 H   0  0  0  0  0  0  0  0  0  0  0  0
  142.7294   72.2890  218.1408 H   0  0  0  0  0  0  0  0  0  0  0  0
  141.5606   72.9994  219.3545 H   0  0  0  0  0  0  0  0  0  0  0  0
  1  2  1  0
  2  3  1  0
  3  4  1  0
  4  5  1  0
  5  6  1  0
  6  7  2  0
  6  8  1  0
  8  9  2  0
  9 10  1  0
 10 11  2  0
 11 12  1  0
 12 13  2  0
 13 14  1  0
 13 15  1  0
 15 16  2  0
 16 17  1  0
 17 18  2  0
  2 19  1  0
 19 20  2  0
 19 21  1  0
 21 22  1  0
 22 23  1  0
 23 24  1  0
 23 25  1  0
 25 26  1  0
 26 27  1  0
 27 28  1  0
 28 29  1  0
 29 30  1  0
 30 31  1  0
 31 32  1  0
 18  8  1  0
 26 21  1  0
 32 27  1  0
 17 11  1  0
  1 33  1  0
  1 34  1  0
  1 35  1  0
  3 36  1  0
  3 37  1  0
  4 38  1  0
  4 39  1  0
  5 40  1  0
  9 41  1  0
 10 42  1  0
 12 43  1  0
 15 44  1  0
 16 45  1  0
 21 46  1  6
 22 47  1  0
 22 48  1  0
 23 49  1  1
 24 50  1  0
 25 51  1  0
 25 52  1  0
 27 53  1  0
 28 54  1  0
 28 55  1  0
 29 56  1  0
 29 57  1  0
 30 58  1  0
 30 59  1  0
 31 60  1  0
 31 61  1  0
 32 62  1  0
 32 63  1  0
M  END
>  <smiles>  (11) 
CN(CCNC(=O)c1ccc2cc(F)ccc2n1)C(=O)[C@H]1C[C@H](O)CN1C1CCCCC1

>  <score_type>  (11) 
oracle

>  <origin>  (11) 
autodockgpu

>  <m_score__min__energy>  (11) 
-8.6799999999999997

>  <m_primary>  (11) 
energy

>  <rmsd>  (11) 
8.848966244328322

>  <m_score__min__rmsd>  (11) 
8.848966244328322

>  <meeko>  (11) 
{"free_energy": -7.5, "intermolecular_energy": -9.88, "internal_energy": -2.77, "cluster_size": 3, "cluster_id": 3, "rank_in_cluster": 2}

>  <energy>  (11) 
-7.9

>  <cluster_rmsd>  (11) 
1.88

>  <cluster>  (11) 
1

$$$$

     RDKit          3D

 63 66  0  0  0  0  0  0  0  0999 V2000
  135.6650   78.1060  221.4310 C   0  0  0  0  0  0  0  0  0  0  0  0
  136.9430   77.7480  220.8120 N   0  0  0  0  0  0  0  0  0  0  0  0
  136.8990   76.8250  219.7150 C   0  0  0  0  0  0  0  0  0  0  0  0
  137.9890   77.1010  218.6950 C   0  0  0  0  0  0  0  0  0  0  0  0
  139.3070   76.7460  219.1580 N   0  0  0  0  0  0  0  0  0  0  0  0
  140.1590   75.8220  218.4940 C   0  0  0  0  0  0  0  0  0  0  0  0
  139.8130   75.2490  217.4470 O   0  0  0  0  0  0  0  0  0  0  0  0
  141.4920   75.5250  219.0490 C   0  0  0  0  0  0  0  0  0  0  0  0
  142.4390   76.5140  219.1790 C   0  0  0  0  0  0  0  0  0  0  0  0
  143.6950   76.2510  219.6990 C   0  0  0  0  0  0  0  0  0  0  0  0
  143.9620   74.9590  220.0810 C   0  0  0  0  0  0  0  0  0  0  0  0
  145.1990   74.5960  220.6160 C   0  0  0  0  0  0  0  0  0  0  0  0
  145.4260   73.2820  220.9900 C   0  0  0  0  0  0  0  0  0  0  0  0
  146.6340   72.9440  221.5080 F   0  0  0  0  0  0  0  0  0  0  0  0
  144.4830   72.2970  220.8600 C   0  0  0  0  0  0  0  0  0  0  0  0
  143.2500   72.6520  220.3290 C   0  0  0  0  0  0  0  0  0  0  0  0
  143.0160   73.9590  219.9540 C   0  0  0  0  0  0  0  0  0  0  0  0
  141.8170   74.2720  219.4450 N   0  0  0  0  0  0  0  0  0  0  0  0
  138.1010   78.3320  221.3650 C   0  0  0  0  0  0  0  0  0  0  0  0
  138.5000   79.4170  220.8500 O   0  0  0  0  0  0  0  0  0  0  0  0
  138.8810   77.7780  222.4970 C   0  0  1  0  0  0  0  0  0  0  0  0
  138.4320   76.3630  222.8010 C   0  0  0  0  0  0  0  0  0  0  0  0
  139.3490   75.5500  221.8790 C   0  0  2  0  0  0  0  0  0  0  0  0
  139.4880   74.2410  222.2850 O   0  0  0  0  0  0  0  0  0  0  0  0
  140.6480   76.3000  222.0940 C   0  0  0  0  0  0  0  0  0  0  0  0
  140.2780   77.6890  222.1130 N   0  0  0  0  0  0  0  0  0  0  0  0
  141.1070   78.4610  223.0230 C   0  0  0  0  0  0  0  0  0  0  0  0
  142.1990   79.1870  222.2870 C   0  0  0  0  0  0  0  0  0  0  0  0
  142.8810   80.1360  223.2830 C   0  0  0  0  0  0  0  0  0  0  0  0
  141.9390   81.3120  223.4430 C   0  0  0  0  0  0  0  0  0  0  0  0
  140.5170   80.8570  223.4600 C   0  0  0  0  0  0  0  0  0  0  0  0
  140.3240   79.4180  223.8520 C   0  0  0  0  0  0  0  0  0  0  0  0
  135.7671   78.0774  222.5259 H   0  0  0  0  0  0  0  0  0  0  0  0
  135.3762   79.1196  221.1160 H   0  0  0  0  0  0  0  0  0  0  0  0
  134.8917   77.3899  221.1160 H   0  0  0  0  0  0  0  0  0  0  0  0
  137.0274   75.8043  220.1044 H   0  0  0  0  0  0  0  0  0  0  0  0
  135.9271   76.9402  219.2130 H   0  0  0  0  0  0  0  0  0  0  0  0
  137.7708   76.5219  217.7856 H   0  0  0  0  0  0  0  0  0  0  0  0
  137.9912   78.1847  218.5061 H   0  0  0  0  0  0  0  0  0  0  0  0
  139.7090   77.1750  220.0460 H   0  0  0  0  0  0  0  0  0  0  0  0
  142.1927   77.5382  218.8623 H   0  0  0  0  0  0  0  0  0  0  0  0
  144.4490   77.0452  219.8021 H   0  0  0  0  0  0  0  0  0  0  0  0
  145.9901   75.3502  220.7400 H   0  0  0  0  0  0  0  0  0  0  0  0
  144.6949   71.2617  221.1654 H   0  0  0  0  0  0  0  0  0  0  0  0
  142.4624   71.8937  220.2077 H   0  0  0  0  0  0  0  0  0  0  0  0
  138.7337   78.4324  223.3688 H   0  0  0  0  0  0  0  0  0  0  0  0
  138.5956   76.1074  223.8583 H   0  0  0  0  0  0  0  0  0  0  0  0
  137.3587   76.1867  222.6370 H   0  0  0  0  0  0  0  0  0  0  0  0
  138.9891   75.4752  220.8422 H   0  0  0  0  0  0  0  0  0  0  0  0
  138.8130   74.0790  223.0040 H   0  0  0  0  0  0  0  0  0  0  0  0
  141.1083   76.0096  223.0499 H   0  0  0  0  0  0  0  0  0  0  0  0
  141.3864   76.0802  221.3088 H   0  0  0  0  0  0  0  0  0  0  0  0
  141.5616   77.7313  223.7091 H   0  0  0  0  0  0  0  0  0  0  0  0
  142.9311   78.4653  221.8956 H   0  0  0  0  0  0  0  0  0  0  0  0
  141.7834   79.7514  221.4393 H   0  0  0  0  0  0  0  0  0  0  0  0
  143.0330   79.6327  224.2492 H   0  0  0  0  0  0  0  0  0  0  0  0
  143.8709   80.4556  222.9252 H   0  0  0  0  0  0  0  0  0  0  0  0
  142.1636   81.8273  224.3885 H   0  0  0  0  0  0  0  0  0  0  0  0
  142.0798   81.9936  222.5911 H   0  0  0  0  0  0  0  0  0  0  0  0
  139.9647   81.4843  224.1752 H   0  0  0  0  0  0  0  0  0  0  0  0
  140.1476   80.9509  222.4281 H   0  0  0  0  0  0  0  0  0  0  0  0
  140.6311   79.3000  224.9017 H   0  0  0  0  0  0  0  0  0  0  0  0
  139.2608   79.1826  223.6963 H   0  0  0  0  0  0  0  0  0  0  0  0
  1  2  1  0
  2  3  1  0
  3  4  1  0
  4  5  1  0
  5  6  1  0
  6  7  2  0
  6  8  1  0
  8  9  2  0
  9 10  1  0
 10 11  2  0
 11 12  1  0
 12 13  2  0
 13 14  1  0
 13 15  1  0
 15 16  2  0
 16 17  1  0
 17 18  2  0
  2 19  1  0
 19 20  2  0
 19 21  1  0
 21 22  1  0
 22 23  1  0
 23 24  1  0
 23 25  1  0
 25 26  1  0
 26 27  1  0
 27 28  1  0
 28 29  1  0
 29 30  1  0
 30 31  1  0
 31 32  1  0
 18  8  1  0
 26 21  1  0
 32 27  1  0
 17 11  1  0
  1 33  1  0
  1 34  1  0
  1 35  1  0
  3 36  1  0
  3 37  1  0
  4 38  1  0
  4 39  1  0
  5 40  1  0
  9 41  1  0
 10 42  1  0
 12 43  1  0
 15 44  1  0
 16 45  1  0
 21 46  1  1
 22 47  1  0
 22 48  1  0
 23 49  1  6
 24 50  1  0
 25 51  1  0
 25 52  1  0
 27 53  1  0
 28 54  1  0
 28 55  1  0
 29 56  1  0
 29 57  1  0
 30 58  1  0
 30 59  1  0
 31 60  1  0
 31 61  1  0
 32 62  1  0
 32 63  1  0
M  END
>  <smiles>  (12) 
CN(CCNC(=O)c1ccc2cc(F)ccc2n1)C(=O)[C@H]1C[C@H](O)CN1C1CCCCC1

>  <score_type>  (12) 
oracle

>  <origin>  (12) 
autodockgpu

>  <m_score__min__energy>  (12) 
-8.6799999999999997

>  <m_primary>  (12) 
energy

>  <rmsd>  (12) 
8.098250426338835

>  <m_score__min__rmsd>  (12) 
8.098250426338835

>  <meeko>  (12) 
{"free_energy": -6.8, "intermolecular_energy": -9.19, "internal_energy": -3.49, "cluster_size": 5, "cluster_id": 6, "rank_in_cluster": 1}

>  <energy>  (12) 
-7.82

>  <cluster_rmsd>  (12) 
1.92

>  <cluster>  (12) 
1

$$$$

     RDKit          3D

 63 66  0  0  0  0  0  0  0  0999 V2000
  138.9410   75.3740  219.2980 C   0  0  0  0  0  0  0  0  0  0  0  0
  139.9610   74.9090  220.2400 N   0  0  0  0  0  0  0  0  0  0  0  0
  140.5340   73.6170  219.9960 C   0  0  0  0  0  0  0  0  0  0  0  0
  141.7580   73.3640  220.8560 C   0  0  0  0  0  0  0  0  0  0  0  0
  141.5220   72.4250  221.9230 N   0  0  0  0  0  0  0  0  0  0  0  0
  140.3430   72.4040  222.7170 C   0  0  0  0  0  0  0  0  0  0  0  0
  139.4190   73.2160  222.5370 O   0  0  0  0  0  0  0  0  0  0  0  0
  140.1970   71.4010  223.7870 C   0  0  0  0  0  0  0  0  0  0  0  0
  139.5620   70.2030  223.5490 C   0  0  0  0  0  0  0  0  0  0  0  0
  139.4170   69.2500  224.5430 C   0  0  0  0  0  0  0  0  0  0  0  0
  139.9330   69.5470  225.7810 C   0  0  0  0  0  0  0  0  0  0  0  0
  139.8370   68.6500  226.8470 C   0  0  0  0  0  0  0  0  0  0  0  0
  140.3710   68.9880  228.0790 C   0  0  0  0  0  0  0  0  0  0  0  0
  140.2690   68.1070  229.1050 F   0  0  0  0  0  0  0  0  0  0  0  0
  141.0030   70.1800  228.3140 C   0  0  0  0  0  0  0  0  0  0  0  0
  141.1030   71.0760  227.2580 C   0  0  0  0  0  0  0  0  0  0  0  0
  140.5730   70.7460  226.0280 C   0  0  0  0  0  0  0  0  0  0  0  0
  140.6840   71.6310  225.0280 N   0  0  0  0  0  0  0  0  0  0  0  0
  140.2730   75.7700  221.3130 C   0  0  0  0  0  0  0  0  0  0  0  0
  139.5430   75.6920  222.3430 O   0  0  0  0  0  0  0  0  0  0  0  0
  141.3840   76.7510  221.3250 C   0  0  1  0  0  0  0  0  0  0  0  0
  142.0660   76.7910  219.9730 C   0  0  0  0  0  0  0  0  0  0  0  0
  141.2390   77.8600  219.2480 C   0  0  2  0  0  0  0  0  0  0  0  0
  141.9140   78.4290  218.1910 O   0  0  0  0  0  0  0  0  0  0  0  0
  141.0940   78.8670  220.3710 C   0  0  0  0  0  0  0  0  0  0  0  0
  140.8420   78.0800  221.5470 N   0  0  0  0  0  0  0  0  0  0  0  0
  141.4250   78.6750  222.7370 C   0  0  0  0  0  0  0  0  0  0  0  0
  142.5760   79.5790  222.3910 C   0  0  0  0  0  0  0  0  0  0  0  0
  142.9850   80.3240  223.6690 C   0  0  0  0  0  0  0  0  0  0  0  0
  141.9430   81.4050  223.8670 C   0  0  0  0  0  0  0  0  0  0  0  0
  140.5820   80.9040  223.5120 C   0  0  0  0  0  0  0  0  0  0  0  0
  140.4310   79.4090  223.5670 C   0  0  0  0  0  0  0  0  0  0  0  0
  138.0785   75.7672  219.8561 H   0  0  0  0  0  0  0  0  0  0  0  0
  139.3617   76.1693  218.6651 H   0  0  0  0  0  0  0  0  0  0  0  0
  138.6166   74.5348  218.6651 H   0  0  0  0  0  0  0  0  0  0  0  0
  139.7800   72.8471  220.2169 H   0  0  0  0  0  0  0  0  0  0  0  0
  140.8466   73.5786  218.9421 H   0  0  0  0  0  0  0  0  0  0  0  0
  142.5595   72.9690  220.2145 H   0  0  0  0  0  0  0  0  0  0  0  0
  142.0326   74.3224  221.3209 H   0  0  0  0  0  0  0  0  0  0  0  0
  142.2460   71.6830  222.1680 H   0  0  0  0  0  0  0  0  0  0  0  0
  139.1604   69.9980  222.5457 H   0  0  0  0  0  0  0  0  0  0  0  0
  138.9092   68.2937  224.3492 H   0  0  0  0  0  0  0  0  0  0  0  0
  139.3392   67.6789  226.7085 H   0  0  0  0  0  0  0  0  0  0  0  0
  141.4169   70.4192  229.3047 H   0  0  0  0  0  0  0  0  0  0  0  0
  141.6029   72.0452  227.4017 H   0  0  0  0  0  0  0  0  0  0  0  0
  142.0927   76.4563  222.1130 H   0  0  0  0  0  0  0  0  0  0  0  0
  143.1205   77.0907  220.0631 H   0  0  0  0  0  0  0  0  0  0  0  0
  142.0977   75.8203  219.4566 H   0  0  0  0  0  0  0  0  0  0  0  0
  140.3076   77.4802  218.8028 H   0  0  0  0  0  0  0  0  0  0  0  0
  141.6690   79.3980  218.1670 H   0  0  0  0  0  0  0  0  0  0  0  0
  142.0185   79.4514  220.4878 H   0  0  0  0  0  0  0  0  0  0  0  0
  140.2871   79.5889  220.1766 H   0  0  0  0  0  0  0  0  0  0  0  0
  141.7980   77.8345  223.3407 H   0  0  0  0  0  0  0  0  0  0  0  0
  143.4218   78.9826  222.0181 H   0  0  0  0  0  0  0  0  0  0  0  0
  142.2833   80.2922  221.6064 H   0  0  0  0  0  0  0  0  0  0  0  0
  142.9919   79.6365  224.5277 H   0  0  0  0  0  0  0  0  0  0  0  0
  143.9969   80.7472  223.5850 H   0  0  0  0  0  0  0  0  0  0  0  0
  141.9471   81.7206  224.9207 H   0  0  0  0  0  0  0  0  0  0  0  0
  142.1875   82.2535  223.2110 H   0  0  0  0  0  0  0  0  0  0  0  0
  139.8595   81.3478  224.2127 H   0  0  0  0  0  0  0  0  0  0  0  0
  140.4050   81.1968  222.4666 H   0  0  0  0  0  0  0  0  0  0  0  0
  140.5463   79.0868  224.6124 H   0  0  0  0  0  0  0  0  0  0  0  0
  139.4365   79.1718  223.1612 H   0  0  0  0  0  0  0  0  0  0  0  0
  1  2  1  0
  2  3  1  0
  3  4  1  0
  4  5  1  0
  5  6  1  0
  6  7  2  0
  6  8  1  0
  8  9  2  0
  9 10  1  0
 10 11  2  0
 11 12  1  0
 12 13  2  0
 13 14  1  0
 13 15  1  0
 15 16  2  0
 16 17  1  0
 17 18  2  0
  2 19  1  0
 19 20  2  0
 19 21  1  0
 21 22  1  0
 22 23  1  0
 23 24  1  0
 23 25  1  0
 25 26  1  0
 26 27  1  0
 27 28  1  0
 28 29  1  0
 29 30  1  0
 30 31  1  0
 31 32  1  0
 18  8  1  0
 26 21  1  0
 32 27  1  0
 17 11  1  0
  1 33  1  0
  1 34  1  0
  1 35  1  0
  3 36  1  0
  3 37  1  0
  4 38  1  0
  4 39  1  0
  5 40  1  0
  9 41  1  0
 10 42  1  0
 12 43  1  0
 15 44  1  0
 16 45  1  0
 21 46  1  1
 22 47  1  0
 22 48  1  0
 23 49  1  6
 24 50  1  0
 25 51  1  0
 25 52  1  0
 27 53  1  0
 28 54  1  0
 28 55  1  0
 29 56  1  0
 29 57  1  0
 30 58  1  0
 30 59  1  0
 31 60  1  0
 31 61  1  0
 32 62  1  0
 32 63  1  0
M  END
>  <smiles>  (13) 
CN(CCNC(=O)c1ccc2cc(F)ccc2n1)C(=O)[C@H]1C[C@H](O)CN1C1CCCCC1

>  <score_type>  (13) 
oracle

>  <origin>  (13) 
autodockgpu

>  <m_score__min__energy>  (13) 
-8.6799999999999997

>  <m_primary>  (13) 
energy

>  <rmsd>  (13) 
9.746456756540448

>  <m_score__min__rmsd>  (13) 
9.746456756540448

>  <meeko>  (13) 
{"free_energy": -8.18, "intermolecular_energy": -10.57, "internal_energy": -1.54, "cluster_size": 13, "cluster_id": 1, "rank_in_cluster": 9}

>  <energy>  (13) 
-7.82

>  <cluster_rmsd>  (13) 
1.58

>  <cluster>  (13) 
1

$$$$

     RDKit          3D

 63 66  0  0  0  0  0  0  0  0999 V2000
  137.1620   80.3060  222.1930 C   0  0  0  0  0  0  0  0  0  0  0  0
  137.8980   79.7040  221.0800 N   0  0  0  0  0  0  0  0  0  0  0  0
  138.1190   80.5250  219.9250 C   0  0  0  0  0  0  0  0  0  0  0  0
  139.5970   80.7420  219.6540 C   0  0  0  0  0  0  0  0  0  0  0  0
  140.3130   79.5200  219.3850 N   0  0  0  0  0  0  0  0  0  0  0  0
  141.5730   79.4650  218.7300 C   0  0  0  0  0  0  0  0  0  0  0  0
  142.1510   80.4930  218.3380 O   0  0  0  0  0  0  0  0  0  0  0  0
  142.2250   78.1630  218.5020 C   0  0  0  0  0  0  0  0  0  0  0  0
  142.7310   77.8340  217.2650 C   0  0  0  0  0  0  0  0  0  0  0  0
  143.3450   76.6150  217.0350 C   0  0  0  0  0  0  0  0  0  0  0  0
  143.4320   75.7420  218.0920 C   0  0  0  0  0  0  0  0  0  0  0  0
  144.0340   74.4900  217.9600 C   0  0  0  0  0  0  0  0  0  0  0  0
  144.1010   73.6400  219.0510 C   0  0  0  0  0  0  0  0  0  0  0  0
  144.6890   72.4260  218.9060 F   0  0  0  0  0  0  0  0  0  0  0  0
  143.5970   73.9690  220.2820 C   0  0  0  0  0  0  0  0  0  0  0  0
  142.9980   75.2140  220.4210 C   0  0  0  0  0  0  0  0  0  0  0  0
  142.9270   76.0650  219.3380 C   0  0  0  0  0  0  0  0  0  0  0  0
  142.3420   77.2600  219.5020 N   0  0  0  0  0  0  0  0  0  0  0  0
  138.3060   78.3640  221.2400 C   0  0  0  0  0  0  0  0  0  0  0  0
  138.0520   77.5680  220.2900 O   0  0  0  0  0  0  0  0  0  0  0  0
  139.0070   77.8200  222.4280 C   0  0  1  0  0  0  0  0  0  0  0  0
  138.5250   76.4150  222.7260 C   0  0  0  0  0  0  0  0  0  0  0  0
  139.4900   75.5780  221.8760 C   0  0  2  0  0  0  0  0  0  0  0  0
  139.5880   74.2750  222.3120 O   0  0  0  0  0  0  0  0  0  0  0  0
  140.7800   76.3180  222.1610 C   0  0  0  0  0  0  0  0  0  0  0  0
  140.4250   77.7110  222.1350 N   0  0  0  0  0  0  0  0  0  0  0  0
  141.2030   78.4900  223.0820 C   0  0  0  0  0  0  0  0  0  0  0  0
  142.3200   79.2300  222.3980 C   0  0  0  0  0  0  0  0  0  0  0  0
  142.9450   80.1840  223.4250 C   0  0  0  0  0  0  0  0  0  0  0  0
  141.9850   81.3490  223.5430 C   0  0  0  0  0  0  0  0  0  0  0  0
  140.5690   80.8790  223.4950 C   0  0  0  0  0  0  0  0  0  0  0  0
  140.3730   79.4380  223.8760 C   0  0  0  0  0  0  0  0  0  0  0  0
  137.5880   79.9576  223.1454 H   0  0  0  0  0  0  0  0  0  0  0  0
  137.2411   81.4016  222.1350 H   0  0  0  0  0  0  0  0  0  0  0  0
  136.1038   80.0112  222.1350 H   0  0  0  0  0  0  0  0  0  0  0  0
  137.6659   80.0360  219.0501 H   0  0  0  0  0  0  0  0  0  0  0  0
  137.6612   81.5071  220.1144 H   0  0  0  0  0  0  0  0  0  0  0  0
  139.6984   81.4052  218.7823 H   0  0  0  0  0  0  0  0  0  0  0  0
  140.0336   81.1820  220.5627 H   0  0  0  0  0  0  0  0  0  0  0  0
  139.9130   78.5770  219.6760 H   0  0  0  0  0  0  0  0  0  0  0  0
  142.6455   78.5566  216.4400 H   0  0  0  0  0  0  0  0  0  0  0  0
  143.7475   76.3555  216.0447 H   0  0  0  0  0  0  0  0  0  0  0  0
  144.4541   74.1792  216.9920 H   0  0  0  0  0  0  0  0  0  0  0  0
  143.6645   73.2716  221.1300 H   0  0  0  0  0  0  0  0  0  0  0  0
  142.5814   75.5205  221.3918 H   0  0  0  0  0  0  0  0  0  0  0  0
  138.8113   78.4901  223.2781 H   0  0  0  0  0  0  0  0  0  0  0  0
  138.6193   76.1755  223.7955 H   0  0  0  0  0  0  0  0  0  0  0  0
  137.4622   76.2461  222.4980 H   0  0  0  0  0  0  0  0  0  0  0  0
  139.1965   75.4899  220.8196 H   0  0  0  0  0  0  0  0  0  0  0  0
  138.8450   74.1210  222.9630 H   0  0  0  0  0  0  0  0  0  0  0  0
  141.1757   76.0385  223.1486 H   0  0  0  0  0  0  0  0  0  0  0  0
  141.5639   76.0782  221.4275 H   0  0  0  0  0  0  0  0  0  0  0  0
  141.6335   77.7630  223.7864 H   0  0  0  0  0  0  0  0  0  0  0  0
  143.0772   78.5172  222.0394 H   0  0  0  0  0  0  0  0  0  0  0  0
  141.9373   79.7918  221.5332 H   0  0  0  0  0  0  0  0  0  0  0  0
  143.0578   79.6806  224.3965 H   0  0  0  0  0  0  0  0  0  0  0  0
  143.9468   80.5147  223.1134 H   0  0  0  0  0  0  0  0  0  0  0  0
  142.1609   81.8654  224.4982 H   0  0  0  0  0  0  0  0  0  0  0  0
  142.1571   82.0332  222.6991 H   0  0  0  0  0  0  0  0  0  0  0  0
  139.9783   81.4994  224.1850 H   0  0  0  0  0  0  0  0  0  0  0  0
  140.2463   80.9704  222.4474 H   0  0  0  0  0  0  0  0  0  0  0  0
  140.6331   79.3213  224.9384 H   0  0  0  0  0  0  0  0  0  0  0  0
  139.3205   79.1921  223.6719 H   0  0  0  0  0  0  0  0  0  0  0  0
  1  2  1  0
  2  3  1  0
  3  4  1  0
  4  5  1  0
  5  6  1  0
  6  7  2  0
  6  8  1  0
  8  9  2  0
  9 10  1  0
 10 11  2  0
 11 12  1  0
 12 13  2  0
 13 14  1  0
 13 15  1  0
 15 16  2  0
 16 17  1  0
 17 18  2  0
  2 19  1  0
 19 20  2  0
 19 21  1  0
 21 22  1  0
 22 23  1  0
 23 24  1  0
 23 25  1  0
 25 26  1  0
 26 27  1  0
 27 28  1  0
 28 29  1  0
 29 30  1  0
 30 31  1  0
 31 32  1  0
 18  8  1  0
 26 21  1  0
 32 27  1  0
 17 11  1  0
  1 33  1  0
  1 34  1  0
  1 35  1  0
  3 36  1  0
  3 37  1  0
  4 38  1  0
  4 39  1  0
  5 40  1  0
  9 41  1  0
 10 42  1  0
 12 43  1  0
 15 44  1  0
 16 45  1  0
 21 46  1  1
 22 47  1  0
 22 48  1  0
 23 49  1  6
 24 50  1  0
 25 51  1  0
 25 52  1  0
 27 53  1  0
 28 54  1  0
 28 55  1  0
 29 56  1  0
 29 57  1  0
 30 58  1  0
 30 59  1  0
 31 60  1  0
 31 61  1  0
 32 62  1  0
 32 63  1  0
M  END
>  <smiles>  (14) 
CN(CCNC(=O)c1ccc2cc(F)ccc2n1)C(=O)[C@H]1C[C@H](O)CN1C1CCCCC1

>  <score_type>  (14) 
oracle

>  <origin>  (14) 
autodockgpu

>  <m_score__min__energy>  (14) 
-8.6799999999999997

>  <m_primary>  (14) 
energy

>  <rmsd>  (14) 
8.208087443047315

>  <m_score__min__rmsd>  (14) 
8.208087443047315

>  <meeko>  (14) 
{"free_energy": -6.59, "intermolecular_energy": -8.97, "internal_energy": -3.9, "cluster_size": 5, "cluster_id": 6, "rank_in_cluster": 5}

>  <energy>  (14) 
-8.59

>  <cluster_rmsd>  (14) 
0.0

>  <cluster>  (14) 
2

$$$$

     RDKit          3D

 63 66  0  0  0  0  0  0  0  0999 V2000
  138.7850   75.7750  219.7380 C   0  0  0  0  0  0  0  0  0  0  0  0
  138.8900   75.1920  221.0760 N   0  0  0  0  0  0  0  0  0  0  0  0
  137.6610   74.9170  221.7650 C   0  0  0  0  0  0  0  0  0  0  0  0
  137.2600   73.4580  221.6540 C   0  0  0  0  0  0  0  0  0  0  0  0
  137.9210   72.6090  222.6130 N   0  0  0  0  0  0  0  0  0  0  0  0
  137.5020   71.2870  222.9260 C   0  0  0  0  0  0  0  0  0  0  0  0
  136.5150   70.7680  222.3780 O   0  0  0  0  0  0  0  0  0  0  0  0
  138.2470   70.4990  223.9240 C   0  0  0  0  0  0  0  0  0  0  0  0
  138.2300   69.1240  223.8930 C   0  0  0  0  0  0  0  0  0  0  0  0
  138.9250   68.3700  224.8230 C   0  0  0  0  0  0  0  0  0  0  0  0
  139.6360   69.0490  225.7820 C   0  0  0  0  0  0  0  0  0  0  0  0
  140.3680   68.3770  226.7620 C   0  0  0  0  0  0  0  0  0  0  0  0
  141.0720   69.1000  227.7110 C   0  0  0  0  0  0  0  0  0  0  0  0
  141.7780   68.4330  228.6570 F   0  0  0  0  0  0  0  0  0  0  0  0
  141.0890   70.4700  227.7410 C   0  0  0  0  0  0  0  0  0  0  0  0
  140.3630   71.1440  226.7680 C   0  0  0  0  0  0  0  0  0  0  0  0
  139.6590   70.4300  225.8200 C   0  0  0  0  0  0  0  0  0  0  0  0
  138.9670   71.1090  224.8940 N   0  0  0  0  0  0  0  0  0  0  0  0
  140.1910   74.9700  221.5720 C   0  0  0  0  0  0  0  0  0  0  0  0
  140.4460   73.8140  222.0190 O   0  0  0  0  0  0  0  0  0  0  0  0
  141.2760   75.9790  221.6080 C   0  0  1  0  0  0  0  0  0  0  0  0
  142.2160   75.7830  220.4360 C   0  0  0  0  0  0  0  0  0  0  0  0
  141.5500   76.6570  219.3650 C   0  0  2  0  0  0  0  0  0  0  0  0
  142.4230   77.0360  218.3700 O   0  0  0  0  0  0  0  0  0  0  0  0
  141.1810   77.8550  220.2150 C   0  0  0  0  0  0  0  0  0  0  0  0
  140.6990   77.3020  221.4510 N   0  0  0  0  0  0  0  0  0  0  0  0
  141.0310   78.1410  222.5900 C   0  0  0  0  0  0  0  0  0  0  0  0
  142.1930   79.0460  222.2850 C   0  0  0  0  0  0  0  0  0  0  0  0
  142.3320   80.0350  223.4510 C   0  0  0  0  0  0  0  0  0  0  0  0
  141.2320   81.0580  223.2570 C   0  0  0  0  0  0  0  0  0  0  0  0
  139.9790   80.4080  222.7710 C   0  0  0  0  0  0  0  0  0  0  0  0
  139.8750   78.9400  223.0800 C   0  0  0  0  0  0  0  0  0  0  0  0
  138.5906   76.8544  219.8226 H   0  0  0  0  0  0  0  0  0  0  0  0
  139.7267   75.6136  219.1928 H   0  0  0  0  0  0  0  0  0  0  0  0
  137.9588   75.2953  219.1928 H   0  0  0  0  0  0  0  0  0  0  0  0
  137.7855   75.1710  222.8280 H   0  0  0  0  0  0  0  0  0  0  0  0
  136.8689   75.5228  221.3007 H   0  0  0  0  0  0  0  0  0  0  0  0
  136.1739   73.3818  221.8109 H   0  0  0  0  0  0  0  0  0  0  0  0
  137.5603   73.1135  220.6534 H   0  0  0  0  0  0  0  0  0  0  0  0
  138.7790   72.9500  223.1440 H   0  0  0  0  0  0  0  0  0  0  0  0
  137.6506   68.6115  223.1109 H   0  0  0  0  0  0  0  0  0  0  0  0
  138.9084   67.2705  224.7950 H   0  0  0  0  0  0  0  0  0  0  0  0
  140.3858   67.2773  226.7808 H   0  0  0  0  0  0  0  0  0  0  0  0
  141.6574   71.0161  228.5083 H   0  0  0  0  0  0  0  0  0  0  0  0
  140.3491   72.2438  226.7530 H   0  0  0  0  0  0  0  0  0  0  0  0
  141.8123   75.8725  222.5625 H   0  0  0  0  0  0  0  0  0  0  0  0
  143.2308   76.1370  220.6704 H   0  0  0  0  0  0  0  0  0  0  0  0
  142.3518   74.7326  220.1390 H   0  0  0  0  0  0  0  0  0  0  0  0
  140.7270   76.1612  218.8294 H   0  0  0  0  0  0  0  0  0  0  0  0
  142.4900   76.2740  217.7260 H   0  0  0  0  0  0  0  0  0  0  0  0
  142.0624   78.4886  220.3930 H   0  0  0  0  0  0  0  0  0  0  0  0
  140.4283   78.4912  219.7265 H   0  0  0  0  0  0  0  0  0  0  0  0
  141.3170   77.4514  223.3978 H   0  0  0  0  0  0  0  0  0  0  0  0
  143.1139   78.4527  222.1850 H   0  0  0  0  0  0  0  0  0  0  0  0
  142.0248   79.5845  221.3407 H   0  0  0  0  0  0  0  0  0  0  0  0
  142.2061   79.5146  224.4119 H   0  0  0  0  0  0  0  0  0  0  0  0
  143.3257   80.5065  223.4660 H   0  0  0  0  0  0  0  0  0  0  0  0
  141.0303   81.5562  224.2167 H   0  0  0  0  0  0  0  0  0  0  0  0
  141.5620   81.7904  222.5055 H   0  0  0  0  0  0  0  0  0  0  0  0
  139.1241   80.9185  223.2385 H   0  0  0  0  0  0  0  0  0  0  0  0
  139.9871   80.4960  221.6746 H   0  0  0  0  0  0  0  0  0  0  0  0
  139.8071   78.8190  224.1712 H   0  0  0  0  0  0  0  0  0  0  0  0
  138.9817   78.5649  222.5591 H   0  0  0  0  0  0  0  0  0  0  0  0
  1  2  1  0
  2  3  1  0
  3  4  1  0
  4  5  1  0
  5  6  1  0
  6  7  2  0
  6  8  1  0
  8  9  2  0
  9 10  1  0
 10 11  2  0
 11 12  1  0
 12 13  2  0
 13 14  1  0
 13 15  1  0
 15 16  2  0
 16 17  1  0
 17 18  2  0
  2 19  1  0
 19 20  2  0
 19 21  1  0
 21 22  1  0
 22 23  1  0
 23 24  1  0
 23 25  1  0
 25 26  1  0
 26 27  1  0
 27 28  1  0
 28 29  1  0
 29 30  1  0
 30 31  1  0
 31 32  1  0
 18  8  1  0
 26 21  1  0
 32 27  1  0
 17 11  1  0
  1 33  1  0
  1 34  1  0
  1 35  1  0
  3 36  1  0
  3 37  1  0
  4 38  1  0
  4 39  1  0
  5 40  1  0
  9 41  1  0
 10 42  1  0
 12 43  1  0
 15 44  1  0
 16 45  1  0
 21 46  1  1
 22 47  1  0
 22 48  1  0
 23 49  1  6
 24 50  1  0
 25 51  1  0
 25 52  1  0
 27 53  1  0
 28 54  1  0
 28 55  1  0
 29 56  1  0
 29 57  1  0
 30 58  1  0
 30 59  1  0
 31 60  1  0
 31 61  1  0
 32 62  1  0
 32 63  1  0
M  END
>  <smiles>  (15) 
CN(CCNC(=O)c1ccc2cc(F)ccc2n1)C(=O)[C@H]1C[C@H](O)CN1C1CCCCC1

>  <score_type>  (15) 
oracle

>  <origin>  (15) 
autodockgpu

>  <m_score__min__energy>  (15) 
-8.6799999999999997

>  <m_primary>  (15) 
energy

>  <rmsd>  (15) 
10.009762880636137

>  <m_score__min__rmsd>  (15) 
10.009762880636137

>  <meeko>  (15) 
{"free_energy": -7.86, "intermolecular_energy": -10.24, "internal_energy": -2.2, "cluster_size": 21, "cluster_id": 2, "rank_in_cluster": 16}

>  <energy>  (15) 
-8.57

>  <cluster_rmsd>  (15) 
1.46

>  <cluster>  (15) 
2

$$$$

     RDKit          3D

 63 66  0  0  0  0  0  0  0  0999 V2000
  139.9230   76.5690  221.7180 C   0  0  0  0  0  0  0  0  0  0  0  0
  139.7360   75.1970  221.2430 N   0  0  0  0  0  0  0  0  0  0  0  0
  138.4180   74.8330  220.8060 C   0  0  0  0  0  0  0  0  0  0  0  0
  138.1250   73.3630  221.0450 C   0  0  0  0  0  0  0  0  0  0  0  0
  138.6920   72.8600  222.2710 N   0  0  0  0  0  0  0  0  0  0  0  0
  138.8610   71.4780  222.5600 C   0  0  0  0  0  0  0  0  0  0  0  0
  138.5230   70.5960  221.7530 O   0  0  0  0  0  0  0  0  0  0  0  0
  139.4530   71.0650  223.8450 C   0  0  0  0  0  0  0  0  0  0  0  0
  140.3630   71.8680  224.4940 C   0  0  0  0  0  0  0  0  0  0  0  0
  140.9270   71.4940  225.7010 C   0  0  0  0  0  0  0  0  0  0  0  0
  140.5430   70.2860  226.2300 C   0  0  0  0  0  0  0  0  0  0  0  0
  141.0550   69.8230  227.4430 C   0  0  0  0  0  0  0  0  0  0  0  0
  140.6400   68.5990  227.9420 C   0  0  0  0  0  0  0  0  0  0  0  0
  141.1480   68.1620  229.1210 F   0  0  0  0  0  0  0  0  0  0  0  0
  139.7340   67.8010  227.2960 C   0  0  0  0  0  0  0  0  0  0  0  0
  139.2190   68.2570  226.0890 C   0  0  0  0  0  0  0  0  0  0  0  0
  139.6290   69.4750  225.5860 C   0  0  0  0  0  0  0  0  0  0  0  0
  139.1150   69.8880  224.4190 N   0  0  0  0  0  0  0  0  0  0  0  0
  140.8660   74.3550  221.2760 C   0  0  0  0  0  0  0  0  0  0  0  0
  141.0770   73.7180  222.3490 O   0  0  0  0  0  0  0  0  0  0  0  0
  141.8170   74.1570  220.1570 C   0  0  1  0  0  0  0  0  0  0  0  0
  141.6880   75.2840  219.1520 C   0  0  0  0  0  0  0  0  0  0  0  0
  142.6870   76.3040  219.7120 C   0  0  2  0  0  0  0  0  0  0  0  0
  143.1170   77.2050  218.7630 O   0  0  0  0  0  0  0  0  0  0  0  0
  143.8170   75.3680  220.0870 C   0  0  0  0  0  0  0  0  0  0  0  0
  143.1740   74.2210  220.6690 N   0  0  0  0  0  0  0  0  0  0  0  0
  143.8870   72.9900  220.3780 C   0  0  0  0  0  0  0  0  0  0  0  0
  143.1980   72.1960  219.3030 C   0  0  0  0  0  0  0  0  0  0  0  0
  144.1240   71.0360  218.9130 C   0  0  0  0  0  0  0  0  0  0  0  0
  145.2030   71.6460  218.0420 C   0  0  0  0  0  0  0  0  0  0  0  0
  145.6070   72.9880  218.5550 C   0  0  0  0  0  0  0  0  0  0  0  0
  145.3130   73.2160  220.0120 C   0  0  0  0  0  0  0  0  0  0  0  0
  139.9244   76.5792  222.8180 H   0  0  0  0  0  0  0  0  0  0  0  0
  140.8825   76.9581  221.3465 H   0  0  0  0  0  0  0  0  0  0  0  0
  139.1027   77.2007  221.3465 H   0  0  0  0  0  0  0  0  0  0  0  0
  137.6818   75.4360  221.3577 H   0  0  0  0  0  0  0  0  0  0  0  0
  138.3552   75.0202  219.7239 H   0  0  0  0  0  0  0  0  0  0  0  0
  137.0342   73.2262  221.0830 H   0  0  0  0  0  0  0  0  0  0  0  0
  138.5850   72.8009  220.2189 H   0  0  0  0  0  0  0  0  0  0  0  0
  139.0180   73.5250  223.0360 H   0  0  0  0  0  0  0  0  0  0  0  0
  140.6487   72.8296  224.0427 H   0  0  0  0  0  0  0  0  0  0  0  0
  141.6541   72.1387  226.2165 H   0  0  0  0  0  0  0  0  0  0  0  0
  141.7853   70.4276  228.0007 H   0  0  0  0  0  0  0  0  0  0  0  0
  139.4249   66.8332  227.7178 H   0  0  0  0  0  0  0  0  0  0  0  0
  138.4872   67.6496  225.5363 H   0  0  0  0  0  0  0  0  0  0  0  0
  141.5980   73.1862  219.6884 H   0  0  0  0  0  0  0  0  0  0  0  0
  141.9717   74.9561  218.1411 H   0  0  0  0  0  0  0  0  0  0  0  0
  140.6647   75.6716  219.0396 H   0  0  0  0  0  0  0  0  0  0  0  0
  142.2804   76.9326  220.5179 H   0  0  0  0  0  0  0  0  0  0  0  0
  143.7420   77.8410  219.2160 H   0  0  0  0  0  0  0  0  0  0  0  0
  144.3908   75.0779  219.1945 H   0  0  0  0  0  0  0  0  0  0  0  0
  144.5293   75.8382  220.7809 H   0  0  0  0  0  0  0  0  0  0  0  0
  143.8770   72.4103  221.3128 H   0  0  0  0  0  0  0  0  0  0  0  0
  142.2434   71.8021  219.6819 H   0  0  0  0  0  0  0  0  0  0  0  0
  142.9879   72.8312  218.4299 H   0  0  0  0  0  0  0  0  0  0  0  0
  144.5678   70.5813  219.8109 H   0  0  0  0  0  0  0  0  0  0  0  0
  143.5775   70.2411  218.3844 H   0  0  0  0  0  0  0  0  0  0  0  0
  146.0806   70.9828  218.0385 H   0  0  0  0  0  0  0  0  0  0  0  0
  144.8064   71.7644  217.0228 H   0  0  0  0  0  0  0  0  0  0  0  0
  146.6903   73.1020  218.4017 H   0  0  0  0  0  0  0  0  0  0  0  0
  145.0121   73.7267  217.9977 H   0  0  0  0  0  0  0  0  0  0  0  0
  145.9363   72.5293  220.6036 H   0  0  0  0  0  0  0  0  0  0  0  0
  145.5353   74.2724  220.2231 H   0  0  0  0  0  0  0  0  0  0  0  0
  1  2  1  0
  2  3  1  0
  3  4  1  0
  4  5  1  0
  5  6  1  0
  6  7  2  0
  6  8  1  0
  8  9  2  0
  9 10  1  0
 10 11  2  0
 11 12  1  0
 12 13  2  0
 13 14  1  0
 13 15  1  0
 15 16  2  0
 16 17  1  0
 17 18  2  0
  2 19  1  0
 19 20  2  0
 19 21  1  0
 21 22  1  0
 22 23  1  0
 23 24  1  0
 23 25  1  0
 25 26  1  0
 26 27  1  0
 27 28  1  0
 28 29  1  0
 29 30  1  0
 30 31  1  0
 31 32  1  0
 18  8  1  0
 26 21  1  0
 32 27  1  0
 17 11  1  0
  1 33  1  0
  1 34  1  0
  1 35  1  0
  3 36  1  0
  3 37  1  0
  4 38  1  0
  4 39  1  0
  5 40  1  0
  9 41  1  0
 10 42  1  0
 12 43  1  0
 15 44  1  0
 16 45  1  0
 21 46  1  6
 22 47  1  0
 22 48  1  0
 23 49  1  1
 24 50  1  0
 25 51  1  0
 25 52  1  0
 27 53  1  0
 28 54  1  0
 28 55  1  0
 29 56  1  0
 29 57  1  0
 30 58  1  0
 30 59  1  0
 31 60  1  0
 31 61  1  0
 32 62  1  0
 32 63  1  0
M  END
>  <smiles>  (16) 
CN(CCNC(=O)c1ccc2cc(F)ccc2n1)C(=O)[C@H]1C[C@H](O)CN1C1CCCCC1

>  <score_type>  (16) 
oracle

>  <origin>  (16) 
autodockgpu

>  <m_score__min__energy>  (16) 
-8.6799999999999997

>  <m_primary>  (16) 
energy

>  <rmsd>  (16) 
8.397090058439009

>  <m_score__min__rmsd>  (16) 
8.397090058439009

>  <meeko>  (16) 
{"free_energy": -7.93, "intermolecular_energy": -10.32, "internal_energy": -2.38, "cluster_size": 3, "cluster_id": 3, "rank_in_cluster": 1}

>  <energy>  (16) 
-8.56

>  <cluster_rmsd>  (16) 
0.49

>  <cluster>  (16) 
2

$$$$

     RDKit          3D

 63 66  0  0  0  0  0  0  0  0999 V2000
  146.3580   73.2680  221.5750 C   0  0  0  0  0  0  0  0  0  0  0  0
  145.4210   73.4190  220.4600 N   0  0  0  0  0  0  0  0  0  0  0  0
  144.6160   74.6060  220.4420 C   0  0  0  0  0  0  0  0  0  0  0  0
  143.1350   74.2880  220.3420 C   0  0  0  0  0  0  0  0  0  0  0  0
  142.2910   75.3280  220.8750 N   0  0  0  0  0  0  0  0  0  0  0  0
  141.0590   75.0880  221.5410 C   0  0  0  0  0  0  0  0  0  0  0  0
  140.6210   73.9370  221.7110 O   0  0  0  0  0  0  0  0  0  0  0  0
  140.2670   76.2220  222.0520 C   0  0  0  0  0  0  0  0  0  0  0  0
  138.9080   76.1090  222.2340 C   0  0  0  0  0  0  0  0  0  0  0  0
  138.1520   77.1650  222.7130 C   0  0  0  0  0  0  0  0  0  0  0  0
  138.8110   78.3350  222.9990 C   0  0  0  0  0  0  0  0  0  0  0  0
  138.1350   79.4550  223.4870 C   0  0  0  0  0  0  0  0  0  0  0  0
  138.8390   80.6150  223.7640 C   0  0  0  0  0  0  0  0  0  0  0  0
  138.1680   81.6950  224.2360 F   0  0  0  0  0  0  0  0  0  0  0  0
  140.1920   80.7270  223.5820 C   0  0  0  0  0  0  0  0  0  0  0  0
  140.8700   79.6160  223.0980 C   0  0  0  0  0  0  0  0  0  0  0  0
  140.1760   78.4570  222.8190 C   0  0  0  0  0  0  0  0  0  0  0  0
  140.8580   77.4010  222.3540 N   0  0  0  0  0  0  0  0  0  0  0  0
  145.3860   72.3730  219.5150 C   0  0  0  0  0  0  0  0  0  0  0  0
  145.9410   72.5880  218.3990 O   0  0  0  0  0  0  0  0  0  0  0  0
  144.7530   71.0500  219.7290 C   0  0  1  0  0  0  0  0  0  0  0  0
  143.6040   71.1680  220.7090 C   0  0  0  0  0  0  0  0  0  0  0  0
  142.4350   71.4830  219.7670 C   0  0  2  0  0  0  0  0  0  0  0  0
  141.2100   71.1800  220.3200 O   0  0  0  0  0  0  0  0  0  0  0  0
  142.7510   70.5160  218.6450 C   0  0  0  0  0  0  0  0  0  0  0  0
  144.1760   70.5910  218.4790 N   0  0  0  0  0  0  0  0  0  0  0  0
  144.7480   69.3130  218.0920 C   0  0  0  0  0  0  0  0  0  0  0  0
  145.9250   68.9540  218.9570 C   0  0  0  0  0  0  0  0  0  0  0  0
  146.3250   67.5090  218.6250 C   0  0  0  0  0  0  0  0  0  0  0  0
  145.3020   66.6300  219.3140 C   0  0  0  0  0  0  0  0  0  0  0  0
  143.9380   67.2310  219.2270 C   0  0  0  0  0  0  0  0  0  0  0  0
  143.7530   68.2050  218.0970 C   0  0  0  0  0  0  0  0  0  0  0  0
  145.8130   73.3558  222.5264 H   0  0  0  0  0  0  0  0  0  0  0  0
  146.8396   72.2807  221.5181 H   0  0  0  0  0  0  0  0  0  0  0  0
  147.1254   74.0541  221.5181 H   0  0  0  0  0  0  0  0  0  0  0  0
  144.7960   75.1711  221.3684 H   0  0  0  0  0  0  0  0  0  0  0  0
  144.8976   75.1938  219.5559 H   0  0  0  0  0  0  0  0  0  0  0  0
  142.8804   74.1407  219.2821 H   0  0  0  0  0  0  0  0  0  0  0  0
  142.9549   73.3833  220.9413 H   0  0  0  0  0  0  0  0  0  0  0  0
  142.5660   76.3540  220.7880 H   0  0  0  0  0  0  0  0  0  0  0  0
  138.4108   75.1577  221.9934 H   0  0  0  0  0  0  0  0  0  0  0  0
  137.0658   77.0705  222.8588 H   0  0  0  0  0  0  0  0  0  0  0  0
  137.0479   79.4162  223.6507 H   0  0  0  0  0  0  0  0  0  0  0  0
  140.7223   81.6632  223.8110 H   0  0  0  0  0  0  0  0  0  0  0  0
  141.9573   79.6600  222.9376 H   0  0  0  0  0  0  0  0  0  0  0  0
  145.5218   70.3601  220.1073 H   0  0  0  0  0  0  0  0  0  0  0  0
  143.4403   70.2258  221.2526 H   0  0  0  0  0  0  0  0  0  0  0  0
  143.7608   71.9182  221.4981 H   0  0  0  0  0  0  0  0  0  0  0  0
  142.3535   72.5451  219.4928 H   0  0  0  0  0  0  0  0  0  0  0  0
  140.8620   72.0130  220.7500 H   0  0  0  0  0  0  0  0  0  0  0  0
  142.4469   69.4947  218.9178 H   0  0  0  0  0  0  0  0  0  0  0  0
  142.2136   70.7681  217.7189 H   0  0  0  0  0  0  0  0  0  0  0  0
  145.0911   69.4394  217.0545 H   0  0  0  0  0  0  0  0  0  0  0  0
  146.7648   69.6328  218.7474 H   0  0  0  0  0  0  0  0  0  0  0  0
  145.6632   69.0464  220.0214 H   0  0  0  0  0  0  0  0  0  0  0  0
  146.3009   67.3449  217.5376 H   0  0  0  0  0  0  0  0  0  0  0  0
  147.3469   67.2834  218.9637 H   0  0  0  0  0  0  0  0  0  0  0  0
  145.2918   65.6422  218.8302 H   0  0  0  0  0  0  0  0  0  0  0  0
  145.5774   66.5355  220.3748 H   0  0  0  0  0  0  0  0  0  0  0  0
  143.2114   66.4152  219.0989 H   0  0  0  0  0  0  0  0  0  0  0  0
  143.7889   67.8004  220.1563 H   0  0  0  0  0  0  0  0  0  0  0  0
  143.8400   67.6560  217.1478 H   0  0  0  0  0  0  0  0  0  0  0  0
  142.7619   68.6639  218.2275 H   0  0  0  0  0  0  0  0  0  0  0  0
  1  2  1  0
  2  3  1  0
  3  4  1  0
  4  5  1  0
  5  6  1  0
  6  7  2  0
  6  8  1  0
  8  9  2  0
  9 10  1  0
 10 11  2  0
 11 12  1  0
 12 13  2  0
 13 14  1  0
 13 15  1  0
 15 16  2  0
 16 17  1  0
 17 18  2  0
  2 19  1  0
 19 20  2  0
 19 21  1  0
 21 22  1  0
 22 23  1  0
 23 24  1  0
 23 25  1  0
 25 26  1  0
 26 27  1  0
 27 28  1  0
 28 29  1  0
 29 30  1  0
 30 31  1  0
 31 32  1  0
 18  8  1  0
 26 21  1  0
 32 27  1  0
 17 11  1  0
  1 33  1  0
  1 34  1  0
  1 35  1  0
  3 36  1  0
  3 37  1  0
  4 38  1  0
  4 39  1  0
  5 40  1  0
  9 41  1  0
 10 42  1  0
 12 43  1  0
 15 44  1  0
 16 45  1  0
 21 46  1  1
 22 47  1  0
 22 48  1  0
 23 49  1  6
 24 50  1  0
 25 51  1  0
 25 52  1  0
 27 53  1  0
 28 54  1  0
 28 55  1  0
 29 56  1  0
 29 57  1  0
 30 58  1  0
 30 59  1  0
 31 60  1  0
 31 61  1  0
 32 62  1  0
 32 63  1  0
M  END
>  <smiles>  (17) 
CN(CCNC(=O)c1ccc2cc(F)ccc2n1)C(=O)[C@H]1C[C@H](O)CN1C1CCCCC1

>  <score_type>  (17) 
oracle

>  <origin>  (17) 
autodockgpu

>  <m_score__min__energy>  (17) 
-8.6799999999999997

>  <m_primary>  (17) 
energy

>  <rmsd>  (17) 
6.75669173285954

>  <m_score__min__rmsd>  (17) 
6.75669173285954

>  <meeko>  (17) 
{"free_energy": -7.42, "intermolecular_energy": -9.81, "internal_energy": -2.43, "cluster_size": 1, "cluster_id": 4, "rank_in_cluster": 1}

>  <energy>  (17) 
-8.49

>  <cluster_rmsd>  (17) 
1.68

>  <cluster>  (17) 
2

$$$$

     RDKit          3D

 63 66  0  0  0  0  0  0  0  0999 V2000
  140.5700   70.8240  220.1730 C   0  0  0  0  0  0  0  0  0  0  0  0
  141.3090   71.6900  221.0930 N   0  0  0  0  0  0  0  0  0  0  0  0
  140.5600   72.3040  222.1520 C   0  0  0  0  0  0  0  0  0  0  0  0
  139.5180   73.2740  221.6250 C   0  0  0  0  0  0  0  0  0  0  0  0
  139.8070   74.6500  221.9420 N   0  0  0  0  0  0  0  0  0  0  0  0
  138.8140   75.6190  222.2510 C   0  0  0  0  0  0  0  0  0  0  0  0
  137.6050   75.3330  222.2690 O   0  0  0  0  0  0  0  0  0  0  0  0
  139.2130   77.0030  222.5630 C   0  0  0  0  0  0  0  0  0  0  0  0
  138.2680   77.9910  222.7230 C   0  0  0  0  0  0  0  0  0  0  0  0
  138.6270   79.2960  223.0160 C   0  0  0  0  0  0  0  0  0  0  0  0
  139.9670   79.5690  223.1410 C   0  0  0  0  0  0  0  0  0  0  0  0
  140.4270   80.8530  223.4350 C   0  0  0  0  0  0  0  0  0  0  0  0
  141.7870   81.0860  223.5540 C   0  0  0  0  0  0  0  0  0  0  0  0
  142.2190   82.3400  223.8390 F   0  0  0  0  0  0  0  0  0  0  0  0
  142.7270   80.1020  223.3950 C   0  0  0  0  0  0  0  0  0  0  0  0
  142.2760   78.8220  223.1030 C   0  0  0  0  0  0  0  0  0  0  0  0
  140.9220   78.5830  222.9830 C   0  0  0  0  0  0  0  0  0  0  0  0
  140.5170   77.3370  222.7000 N   0  0  0  0  0  0  0  0  0  0  0  0
  142.6870   71.8540  220.8420 C   0  0  0  0  0  0  0  0  0  0  0  0
  143.3690   70.8030  220.6700 O   0  0  0  0  0  0  0  0  0  0  0  0
  143.3920   73.1560  220.7640 C   0  0  1  0  0  0  0  0  0  0  0  0
  144.8840   72.9380  220.6220 C   0  0  0  0  0  0  0  0  0  0  0  0
  145.0340   72.8590  219.0980 C   0  0  2  0  0  0  0  0  0  0  0  0
  146.3160   73.1340  218.6740 O   0  0  0  0  0  0  0  0  0  0  0  0
  144.1040   73.9850  218.6970 C   0  0  0  0  0  0  0  0  0  0  0  0
  142.9660   73.8560  219.5660 N   0  0  0  0  0  0  0  0  0  0  0  0
  142.3920   75.1460  219.9070 C   0  0  0  0  0  0  0  0  0  0  0  0
  143.3200   76.2730  219.5460 C   0  0  0  0  0  0  0  0  0  0  0  0
  142.5530   77.5890  219.7360 C   0  0  0  0  0  0  0  0  0  0  0  0
  141.6310   77.7050  218.5400 C   0  0  0  0  0  0  0  0  0  0  0  0
  141.0620   76.3750  218.1740 C   0  0  0  0  0  0  0  0  0  0  0  0
  141.0540   75.3680  219.2920 C   0  0  0  0  0  0  0  0  0  0  0  0
  139.9618   70.1112  220.7492 H   0  0  0  0  0  0  0  0  0  0  0  0
  139.9132   71.4380  219.5392 H   0  0  0  0  0  0  0  0  0  0  0  0
  141.2797   70.2720  219.5392 H   0  0  0  0  0  0  0  0  0  0  0  0
  140.0526   71.5176  222.7300 H   0  0  0  0  0  0  0  0  0  0  0  0
  141.2631   72.8700  222.7807 H   0  0  0  0  0  0  0  0  0  0  0  0
  139.4671   73.1712  220.5310 H   0  0  0  0  0  0  0  0  0  0  0  0
  138.5636   73.0217  222.1103 H   0  0  0  0  0  0  0  0  0  0  0  0
  140.8100   75.0090  221.9580 H   0  0  0  0  0  0  0  0  0  0  0  0
  137.2029   77.7381  222.6156 H   0  0  0  0  0  0  0  0  0  0  0  0
  137.8688   80.0827  223.1436 H   0  0  0  0  0  0  0  0  0  0  0  0
  139.7118   81.6775  223.5718 H   0  0  0  0  0  0  0  0  0  0  0  0
  143.8008   80.3185  223.4952 H   0  0  0  0  0  0  0  0  0  0  0  0
  142.9954   78.0009  222.9677 H   0  0  0  0  0  0  0  0  0  0  0  0
  143.1642   73.7250  221.6774 H   0  0  0  0  0  0  0  0  0  0  0  0
  145.4553   73.7802  221.0395 H   0  0  0  0  0  0  0  0  0  0  0  0
  145.2626   72.0550  221.1577 H   0  0  0  0  0  0  0  0  0  0  0  0
  144.8160   71.8663  218.6774 H   0  0  0  0  0  0  0  0  0  0  0  0
  146.4100   74.1290  218.6350 H   0  0  0  0  0  0  0  0  0  0  0  0
  144.5925   74.9599  218.8420 H   0  0  0  0  0  0  0  0  0  0  0  0
  143.8213   73.9288  217.6354 H   0  0  0  0  0  0  0  0  0  0  0  0
  142.2522   75.1333  220.9980 H   0  0  0  0  0  0  0  0  0  0  0  0
  144.2028   76.2560  220.2020 H   0  0  0  0  0  0  0  0  0  0  0  0
  143.6607   76.1728  218.5049 H   0  0  0  0  0  0  0  0  0  0  0  0
  141.9697   77.5613  220.6682 H   0  0  0  0  0  0  0  0  0  0  0  0
  143.2353   78.4490  219.8064 H   0  0  0  0  0  0  0  0  0  0  0  0
  140.8086   78.3933  218.7849 H   0  0  0  0  0  0  0  0  0  0  0  0
  142.2102   78.0860  217.6860 H   0  0  0  0  0  0  0  0  0  0  0  0
  140.0247   76.5256  217.8405 H   0  0  0  0  0  0  0  0  0  0  0  0
  141.7124   75.9632  217.3882 H   0  0  0  0  0  0  0  0  0  0  0  0
  140.3668   75.7229  220.0742 H   0  0  0  0  0  0  0  0  0  0  0  0
  140.7363   74.4084  218.8582 H   0  0  0  0  0  0  0  0  0  0  0  0
  1  2  1  0
  2  3  1  0
  3  4  1  0
  4  5  1  0
  5  6  1  0
  6  7  2  0
  6  8  1  0
  8  9  2  0
  9 10  1  0
 10 11  2  0
 11 12  1  0
 12 13  2  0
 13 14  1  0
 13 15  1  0
 15 16  2  0
 16 17  1  0
 17 18  2  0
  2 19  1  0
 19 20  2  0
 19 21  1  0
 21 22  1  0
 22 23  1  0
 23 24  1  0
 23 25  1  0
 25 26  1  0
 26 27  1  0
 27 28  1  0
 28 29  1  0
 29 30  1  0
 30 31  1  0
 31 32  1  0
 18  8  1  0
 26 21  1  0
 32 27  1  0
 17 11  1  0
  1 33  1  0
  1 34  1  0
  1 35  1  0
  3 36  1  0
  3 37  1  0
  4 38  1  0
  4 39  1  0
  5 40  1  0
  9 41  1  0
 10 42  1  0
 12 43  1  0
 15 44  1  0
 16 45  1  0
 21 46  1  1
 22 47  1  0
 22 48  1  0
 23 49  1  6
 24 50  1  0
 25 51  1  0
 25 52  1  0
 27 53  1  0
 28 54  1  0
 28 55  1  0
 29 56  1  0
 29 57  1  0
 30 58  1  0
 30 59  1  0
 31 60  1  0
 31 61  1  0
 32 62  1  0
 32 63  1  0
M  END
>  <smiles>  (18) 
CN(CCNC(=O)c1ccc2cc(F)ccc2n1)C(=O)[C@H]1C[C@H](O)CN1C1CCCCC1

>  <score_type>  (18) 
oracle

>  <origin>  (18) 
autodockgpu

>  <m_score__min__energy>  (18) 
-8.6799999999999997

>  <m_primary>  (18) 
energy

>  <rmsd>  (18) 
6.459584331841674

>  <m_score__min__rmsd>  (18) 
6.459584331841674

>  <meeko>  (18) 
{"free_energy": -6.89, "intermolecular_energy": -9.28, "internal_energy": -2.98, "cluster_size": 2, "cluster_id": 5, "rank_in_cluster": 1}

>  <energy>  (18) 
-8.42

>  <cluster_rmsd>  (18) 
1.68

>  <cluster>  (18) 
2

$$$$

     RDKit          3D

 63 66  0  0  0  0  0  0  0  0999 V2000
  138.0120   76.0780  223.0650 C   0  0  0  0  0  0  0  0  0  0  0  0
  138.6800   75.4890  221.9040 N   0  0  0  0  0  0  0  0  0  0  0  0
  137.8440   75.0660  220.8170 C   0  0  0  0  0  0  0  0  0  0  0  0
  137.7770   73.5530  220.7060 C   0  0  0  0  0  0  0  0  0  0  0  0
  138.2390   72.8730  221.8900 N   0  0  0  0  0  0  0  0  0  0  0  0
  138.2110   71.4620  222.0570 C   0  0  0  0  0  0  0  0  0  0  0  0
  137.7760   70.7070  221.1700 O   0  0  0  0  0  0  0  0  0  0  0  0
  138.7070   70.8620  223.3080 C   0  0  0  0  0  0  0  0  0  0  0  0
  138.3830   69.5680  223.6480 C   0  0  0  0  0  0  0  0  0  0  0  0
  138.8420   68.9910  224.8200 C   0  0  0  0  0  0  0  0  0  0  0  0
  139.6360   69.7610  225.6340 C   0  0  0  0  0  0  0  0  0  0  0  0
  140.1470   69.2670  226.8360 C   0  0  0  0  0  0  0  0  0  0  0  0
  140.9440   70.0770  227.6280 C   0  0  0  0  0  0  0  0  0  0  0  0
  141.4330   69.5830  228.7930 F   0  0  0  0  0  0  0  0  0  0  0  0
  141.2660   71.3640  227.2880 C   0  0  0  0  0  0  0  0  0  0  0  0
  140.7620   71.8610  226.0940 C   0  0  0  0  0  0  0  0  0  0  0  0
  139.9660   71.0600  225.3000 C   0  0  0  0  0  0  0  0  0  0  0  0
  139.4940   71.5670  224.1530 N   0  0  0  0  0  0  0  0  0  0  0  0
  140.0840   75.3770  221.9680 C   0  0  0  0  0  0  0  0  0  0  0  0
  140.5570   74.2420  222.2640 O   0  0  0  0  0  0  0  0  0  0  0  0
  141.0410   76.4810  221.7160 C   0  0  1  0  0  0  0  0  0  0  0  0
  141.4490   76.5010  220.2570 C   0  0  0  0  0  0  0  0  0  0  0  0
  140.3700   77.4100  219.6550 C   0  0  2  0  0  0  0  0  0  0  0  0
  140.7570   77.9750  218.4600 O   0  0  0  0  0  0  0  0  0  0  0  0
  140.3080   78.4720  220.7340 C   0  0  0  0  0  0  0  0  0  0  0  0
  140.3840   77.7490  221.9740 N   0  0  0  0  0  0  0  0  0  0  0  0
  141.0970   78.4940  222.9970 C   0  0  0  0  0  0  0  0  0  0  0  0
  142.2570   79.2550  222.4140 C   0  0  0  0  0  0  0  0  0  0  0  0
  142.8120   80.1720  223.5120 C   0  0  0  0  0  0  0  0  0  0  0  0
  141.8440   81.3340  223.6060 C   0  0  0  0  0  0  0  0  0  0  0  0
  140.4350   80.8690  223.4470 C   0  0  0  0  0  0  0  0  0  0  0  0
  140.2160   79.4150  223.7660 C   0  0  0  0  0  0  0  0  0  0  0  0
  138.4618   75.6814  223.9871 H   0  0  0  0  0  0  0  0  0  0  0  0
  138.1300   77.1714  223.0403 H   0  0  0  0  0  0  0  0  0  0  0  0
  136.9420   75.8240  223.0403 H   0  0  0  0  0  0  0  0  0  0  0  0
  136.8280   75.4556  220.9780 H   0  0  0  0  0  0  0  0  0  0  0  0
  138.2767   75.4562  219.8840 H   0  0  0  0  0  0  0  0  0  0  0  0
  136.7322   73.2624  220.5219 H   0  0  0  0  0  0  0  0  0  0  0  0
  138.4413   73.2573  219.8806 H   0  0  0  0  0  0  0  0  0  0  0  0
  138.6320   73.4190  222.7150 H   0  0  0  0  0  0  0  0  0  0  0  0
  137.7448   68.9788  222.9731 H   0  0  0  0  0  0  0  0  0  0  0  0
  138.5810   67.9567  225.0885 H   0  0  0  0  0  0  0  0  0  0  0  0
  139.9175   68.2388  227.1526 H   0  0  0  0  0  0  0  0  0  0  0  0
  141.9020   71.9824  227.9385 H   0  0  0  0  0  0  0  0  0  0  0  0
  140.9960   72.8894  225.7816 H   0  0  0  0  0  0  0  0  0  0  0  0
  141.9160   76.3308  222.3654 H   0  0  0  0  0  0  0  0  0  0  0  0
  142.4542   76.9280  220.1259 H   0  0  0  0  0  0  0  0  0  0  0  0
  141.5096   75.5056  219.7927 H   0  0  0  0  0  0  0  0  0  0  0  0
  139.4285   76.8926  219.4186 H   0  0  0  0  0  0  0  0  0  0  0  0
  141.6720   77.6290  218.2490 H   0  0  0  0  0  0  0  0  0  0  0  0
  141.1545   79.1681  220.6401 H   0  0  0  0  0  0  0  0  0  0  0  0
  139.3923   79.0776  220.6648 H   0  0  0  0  0  0  0  0  0  0  0  0
  141.4801   77.7428  223.7034 H   0  0  0  0  0  0  0  0  0  0  0  0
  143.0366   78.5534  222.0822 H   0  0  0  0  0  0  0  0  0  0  0  0
  141.9323   79.8467  221.5454 H   0  0  0  0  0  0  0  0  0  0  0  0
  142.8610   79.6354  224.4710 H   0  0  0  0  0  0  0  0  0  0  0  0
  143.8319   80.5119  223.2791 H   0  0  0  0  0  0  0  0  0  0  0  0
  141.9551   81.8165  224.5883 H   0  0  0  0  0  0  0  0  0  0  0  0
  142.0716   82.0465  222.7994 H   0  0  0  0  0  0  0  0  0  0  0  0
  139.7987   81.4668  224.1162 H   0  0  0  0  0  0  0  0  0  0  0  0
  140.1824   80.9967  222.3840 H   0  0  0  0  0  0  0  0  0  0  0  0
  140.4061   79.2624  224.8386 H   0  0  0  0  0  0  0  0  0  0  0  0
  139.1794   79.1771  223.4853 H   0  0  0  0  0  0  0  0  0  0  0  0
  1  2  1  0
  2  3  1  0
  3  4  1  0
  4  5  1  0
  5  6  1  0
  6  7  2  0
  6  8  1  0
  8  9  2  0
  9 10  1  0
 10 11  2  0
 11 12  1  0
 12 13  2  0
 13 14  1  0
 13 15  1  0
 15 16  2  0
 16 17  1  0
 17 18  2  0
  2 19  1  0
 19 20  2  0
 19 21  1  0
 21 22  1  0
 22 23  1  0
 23 24  1  0
 23 25  1  0
 25 26  1  0
 26 27  1  0
 27 28  1  0
 28 29  1  0
 29 30  1  0
 30 31  1  0
 31 32  1  0
 18  8  1  0
 26 21  1  0
 32 27  1  0
 17 11  1  0
  1 33  1  0
  1 34  1  0
  1 35  1  0
  3 36  1  0
  3 37  1  0
  4 38  1  0
  4 39  1  0
  5 40  1  0
  9 41  1  0
 10 42  1  0
 12 43  1  0
 15 44  1  0
 16 45  1  0
 21 46  1  1
 22 47  1  0
 22 48  1  0
 23 49  1  6
 24 50  1  0
 25 51  1  0
 25 52  1  0
 27 53  1  0
 28 54  1  0
 28 55  1  0
 29 56  1  0
 29 57  1  0
 30 58  1  0
 30 59  1  0
 31 60  1  0
 31 61  1  0
 32 62  1  0
 32 63  1  0
M  END
>  <smiles>  (19) 
CN(CCNC(=O)c1ccc2cc(F)ccc2n1)C(=O)[C@H]1C[C@H](O)CN1C1CCCCC1

>  <score_type>  (19) 
oracle

>  <origin>  (19) 
autodockgpu

>  <m_score__min__energy>  (19) 
-8.6799999999999997

>  <m_primary>  (19) 
energy

>  <rmsd>  (19) 
9.940509855762334

>  <m_score__min__rmsd>  (19) 
9.940509855762334

>  <meeko>  (19) 
{"free_energy": -8.02, "intermolecular_energy": -10.41, "internal_energy": -2.79, "cluster_size": 21, "cluster_id": 2, "rank_in_cluster": 12}

>  <energy>  (19) 
-8.36

>  <cluster_rmsd>  (19) 
0.47

>  <cluster>  (19) 
2

$$$$

     RDKit          3D

 63 66  0  0  0  0  0  0  0  0999 V2000
  143.3620   74.7200  220.5210 C   0  0  0  0  0  0  0  0  0  0  0  0
  142.0210   75.1020  220.0760 N   0  0  0  0  0  0  0  0  0  0  0  0
  141.0200   74.0740  220.0660 C   0  0  0  0  0  0  0  0  0  0  0  0
  141.6310   72.6840  220.0570 C   0  0  0  0  0  0  0  0  0  0  0  0
  141.3130   71.9130  221.2320 N   0  0  0  0  0  0  0  0  0  0  0  0
  140.5100   72.3920  222.3030 C   0  0  0  0  0  0  0  0  0  0  0  0
  140.0200   73.5340  222.2920 O   0  0  0  0  0  0  0  0  0  0  0  0
  140.2420   71.5240  223.4630 C   0  0  0  0  0  0  0  0  0  0  0  0
  139.5270   70.3570  223.3210 C   0  0  0  0  0  0  0  0  0  0  0  0
  139.2670   69.5300  224.4010 C   0  0  0  0  0  0  0  0  0  0  0  0
  139.7520   69.9210  225.6250 C   0  0  0  0  0  0  0  0  0  0  0  0
  139.5430   69.1540  226.7730 C   0  0  0  0  0  0  0  0  0  0  0  0
  140.0500   69.5840  227.9880 C   0  0  0  0  0  0  0  0  0  0  0  0
  139.8380   68.8290  229.0950 F   0  0  0  0  0  0  0  0  0  0  0  0
  140.7620   70.7460  228.1280 C   0  0  0  0  0  0  0  0  0  0  0  0
  140.9750   71.5120  226.9900 C   0  0  0  0  0  0  0  0  0  0  0  0
  140.4720   71.0910  225.7770 C   0  0  0  0  0  0  0  0  0  0  0  0
  140.6940   71.8520  224.6960 N   0  0  0  0  0  0  0  0  0  0  0  0
  141.8420   76.4440  219.6800 C   0  0  0  0  0  0  0  0  0  0  0  0
  142.4440   76.8200  218.6330 O   0  0  0  0  0  0  0  0  0  0  0  0
  141.0060   77.4400  220.3920 C   0  0  1  0  0  0  0  0  0  0  0  0
  139.6760   76.8290  220.7800 C   0  0  0  0  0  0  0  0  0  0  0  0
  140.0040   76.2430  222.1590 C   0  0  2  0  0  0  0  0  0  0  0  0
  138.8830   76.0480  222.9350 O   0  0  0  0  0  0  0  0  0  0  0  0
  140.8330   77.3780  222.7230 C   0  0  0  0  0  0  0  0  0  0  0  0
  141.6620   77.8120  221.6320 N   0  0  0  0  0  0  0  0  0  0  0  0
  141.9090   79.2430  221.6700 C   0  0  0  0  0  0  0  0  0  0  0  0
  140.6320   80.0150  221.8590 C   0  0  0  0  0  0  0  0  0  0  0  0
  141.0060   81.4830  222.1030 C   0  0  0  0  0  0  0  0  0  0  0  0
  141.4900   81.5530  223.5360 C   0  0  0  0  0  0  0  0  0  0  0  0
  142.2970   80.3470  223.8850 C   0  0  0  0  0  0  0  0  0  0  0  0
  142.9020   79.6350  222.7070 C   0  0  0  0  0  0  0  0  0  0  0  0
  143.3947   74.7107  221.6205 H   0  0  0  0  0  0  0  0  0  0  0  0
  143.6035   73.7173  220.1385 H   0  0  0  0  0  0  0  0  0  0  0  0
  144.0956   75.4449  220.1385 H   0  0  0  0  0  0  0  0  0  0  0  0
  140.3930   74.1803  220.9635 H   0  0  0  0  0  0  0  0  0  0  0  0
  140.4246   74.1890  219.1482 H   0  0  0  0  0  0  0  0  0  0  0  0
  141.2578   72.1445  219.1741 H   0  0  0  0  0  0  0  0  0  0  0  0
  142.7237   72.8090  220.0358 H   0  0  0  0  0  0  0  0  0  0  0  0
  141.6790   70.9200  221.3490 H   0  0  0  0  0  0  0  0  0  0  0  0
  139.1530   70.0742  222.3259 H   0  0  0  0  0  0  0  0  0  0  0  0
  138.6952   68.5977  224.2833 H   0  0  0  0  0  0  0  0  0  0  0  0
  138.9780   68.2121  226.7126 H   0  0  0  0  0  0  0  0  0  0  0  0
  141.1511   71.0609  229.1075 H   0  0  0  0  0  0  0  0  0  0  0  0
  141.5431   72.4516  227.0557 H   0  0  0  0  0  0  0  0  0  0  0  0
  140.8609   78.3041  219.7269 H   0  0  0  0  0  0  0  0  0  0  0  0
  138.8861   77.5918  220.8444 H   0  0  0  0  0  0  0  0  0  0  0  0
  139.2911   76.0934  220.0584 H   0  0  0  0  0  0  0  0  0  0  0  0
  140.4840   75.2539  222.1222 H   0  0  0  0  0  0  0  0  0  0  0  0
  138.8120   75.0670  223.1150 H   0  0  0  0  0  0  0  0  0  0  0  0
  140.1841   78.1977  223.0651 H   0  0  0  0  0  0  0  0  0  0  0  0
  141.4274   77.0624  223.5931 H   0  0  0  0  0  0  0  0  0  0  0  0
  142.3413   79.4992  220.6915 H   0  0  0  0  0  0  0  0  0  0  0  0
  140.0074   79.9324  220.9573 H   0  0  0  0  0  0  0  0  0  0  0  0
  140.0630   79.6156  222.7115 H   0  0  0  0  0  0  0  0  0  0  0  0
  141.8044   81.7945  221.4134 H   0  0  0  0  0  0  0  0  0  0  0  0
  140.1502   82.1526  221.9317 H   0  0  0  0  0  0  0  0  0  0  0  0
  142.1119   82.4515  223.6626 H   0  0  0  0  0  0  0  0  0  0  0  0
  140.6148   81.5947  224.2010 H   0  0  0  0  0  0  0  0  0  0  0  0
  143.1134   80.6619  224.5516 H   0  0  0  0  0  0  0  0  0  0  0  0
  141.6042   79.6348  224.3569 H   0  0  0  0  0  0  0  0  0  0  0  0
  143.6444   80.3008  222.2427 H   0  0  0  0  0  0  0  0  0  0  0  0
  143.3514   78.7064  223.0889 H   0  0  0  0  0  0  0  0  0  0  0  0
  1  2  1  0
  2  3  1  0
  3  4  1  0
  4  5  1  0
  5  6  1  0
  6  7  2  0
  6  8  1  0
  8  9  2  0
  9 10  1  0
 10 11  2  0
 11 12  1  0
 12 13  2  0
 13 14  1  0
 13 15  1  0
 15 16  2  0
 16 17  1  0
 17 18  2  0
  2 19  1  0
 19 20  2  0
 19 21  1  0
 21 22  1  0
 22 23  1  0
 23 24  1  0
 23 25  1  0
 25 26  1  0
 26 27  1  0
 27 28  1  0
 28 29  1  0
 29 30  1  0
 30 31  1  0
 31 32  1  0
 18  8  1  0
 26 21  1  0
 32 27  1  0
 17 11  1  0
  1 33  1  0
  1 34  1  0
  1 35  1  0
  3 36  1  0
  3 37  1  0
  4 38  1  0
  4 39  1  0
  5 40  1  0
  9 41  1  0
 10 42  1  0
 12 43  1  0
 15 44  1  0
 16 45  1  0
 21 46  1  6
 22 47  1  0
 22 48  1  0
 23 49  1  6
 24 50  1  0
 25 51  1  0
 25 52  1  0
 27 53  1  0
 28 54  1  0
 28 55  1  0
 29 56  1  0
 29 57  1  0
 30 58  1  0
 30 59  1  0
 31 60  1  0
 31 61  1  0
 32 62  1  0
 32 63  1  0
M  END
>  <smiles>  (20) 
CN(CCNC(=O)c1ccc2cc(F)ccc2n1)C(=O)[C@H]1C[C@H](O)CN1C1CCCCC1

>  <score_type>  (20) 
oracle

>  <origin>  (20) 
autodockgpu

>  <m_score__min__energy>  (20) 
-8.6799999999999997

>  <m_primary>  (20) 
energy

>  <rmsd>  (20) 
10.038644620259856

>  <m_score__min__rmsd>  (20) 
10.038644620259856

>  <meeko>  (20) 
{"free_energy": -8.68, "intermolecular_energy": -11.07, "internal_energy": -1.81, "cluster_size": 13, "cluster_id": 1, "rank_in_cluster": 1}

>  <energy>  (20) 
-8.34

>  <cluster_rmsd>  (20) 
1.6

>  <cluster>  (20) 
2

$$$$

     RDKit          3D

 63 66  0  0  0  0  0  0  0  0999 V2000
  137.9880   76.3650  222.8390 C   0  0  0  0  0  0  0  0  0  0  0  0
  138.6300   75.5500  221.8070 N   0  0  0  0  0  0  0  0  0  0  0  0
  137.8020   75.0940  220.7270 C   0  0  0  0  0  0  0  0  0  0  0  0
  136.9170   73.9320  221.1400 C   0  0  0  0  0  0  0  0  0  0  0  0
  137.5170   73.0850  222.1400 N   0  0  0  0  0  0  0  0  0  0  0  0
  137.1400   71.7330  222.3660 C   0  0  0  0  0  0  0  0  0  0  0  0
  136.2470   71.1840  221.6990 O   0  0  0  0  0  0  0  0  0  0  0  0
  137.8150   70.9500  223.4160 C   0  0  0  0  0  0  0  0  0  0  0  0
  137.4140   69.6660  223.7080 C   0  0  0  0  0  0  0  0  0  0  0  0
  138.0380   68.9180  224.6900 C   0  0  0  0  0  0  0  0  0  0  0  0
  139.0790   69.5060  225.3660 C   0  0  0  0  0  0  0  0  0  0  0  0
  139.7710   68.8320  226.3730 C   0  0  0  0  0  0  0  0  0  0  0  0
  140.8150   69.4620  227.0300 C   0  0  0  0  0  0  0  0  0  0  0  0
  141.4780   68.7940  228.0070 F   0  0  0  0  0  0  0  0  0  0  0  0
  141.2140   70.7390  226.7390 C   0  0  0  0  0  0  0  0  0  0  0  0
  140.5300   71.4160  225.7380 C   0  0  0  0  0  0  0  0  0  0  0  0
  139.4890   70.7940  225.0790 C   0  0  0  0  0  0  0  0  0  0  0  0
  138.8480   71.4720  224.1170 N   0  0  0  0  0  0  0  0  0  0  0  0
  140.0020   75.2750  221.9790 C   0  0  0  0  0  0  0  0  0  0  0  0
  140.3160   74.0880  222.2860 O   0  0  0  0  0  0  0  0  0  0  0  0
  141.0980   76.2610  221.8270 C   0  0  1  0  0  0  0  0  0  0  0  0
  141.7880   76.0800  220.4910 C   0  0  0  0  0  0  0  0  0  0  0  0
  140.9490   76.9960  219.5910 C   0  0  2  0  0  0  0  0  0  0  0  0
  141.6220   77.3860  218.4540 O   0  0  0  0  0  0  0  0  0  0  0  0
  140.7820   78.1770  220.5240 C   0  0  0  0  0  0  0  0  0  0  0  0
  140.5350   77.5990  221.8170 N   0  0  0  0  0  0  0  0  0  0  0  0
  141.1010   78.3990  222.8890 C   0  0  0  0  0  0  0  0  0  0  0  0
  142.3070   79.1680  222.4230 C   0  0  0  0  0  0  0  0  0  0  0  0
  142.7030   80.1390  223.5430 C   0  0  0  0  0  0  0  0  0  0  0  0
  141.7070   81.2780  223.4740 C   0  0  0  0  0  0  0  0  0  0  0  0
  140.3380   80.7700  223.1640 C   0  0  0  0  0  0  0  0  0  0  0  0
  140.1130   79.3240  223.5090 C   0  0  0  0  0  0  0  0  0  0  0  0
  138.2797   75.9947  223.8329 H   0  0  0  0  0  0  0  0  0  0  0  0
  138.3064   77.4123  222.7300 H   0  0  0  0  0  0  0  0  0  0  0  0
  136.8953   76.3007  222.7300 H   0  0  0  0  0  0  0  0  0  0  0  0
  137.1637   75.9254  220.3935 H   0  0  0  0  0  0  0  0  0  0  0  0
  138.4607   74.7480  219.9168 H   0  0  0  0  0  0  0  0  0  0  0  0
  135.9765   74.3357  221.5431 H   0  0  0  0  0  0  0  0  0  0  0  0
  136.7532   73.3135  220.2452 H   0  0  0  0  0  0  0  0  0  0  0  0
  138.2930   73.4500  222.7720 H   0  0  0  0  0  0  0  0  0  0  0  0
  136.5773   69.2242  223.1470 H   0  0  0  0  0  0  0  0  0  0  0  0
  137.7133   67.8926  224.9205 H   0  0  0  0  0  0  0  0  0  0  0  0
  139.4884   67.8041  226.6441 H   0  0  0  0  0  0  0  0  0  0  0  0
  142.0473   71.2121  227.2793 H   0  0  0  0  0  0  0  0  0  0  0  0
  140.8167   72.4440  225.4713 H   0  0  0  0  0  0  0  0  0  0  0  0
  141.8063   76.1167  222.6562 H   0  0  0  0  0  0  0  0  0  0  0  0
  142.8372   76.4077  220.5323 H   0  0  0  0  0  0  0  0  0  0  0  0
  141.8381   75.0359  220.1484 H   0  0  0  0  0  0  0  0  0  0  0  0
  140.0259   76.5312  219.2144 H   0  0  0  0  0  0  0  0  0  0  0  0
  141.0040   77.2490  217.6800 H   0  0  0  0  0  0  0  0  0  0  0  0
  141.6968   78.7876  220.5420 H   0  0  0  0  0  0  0  0  0  0  0  0
  139.9653   78.8418  220.2062 H   0  0  0  0  0  0  0  0  0  0  0  0
  141.4104   77.6837  223.6653 H   0  0  0  0  0  0  0  0  0  0  0  0
  143.1364   78.4753  222.2172 H   0  0  0  0  0  0  0  0  0  0  0  0
  142.0789   79.7188  221.4986 H   0  0  0  0  0  0  0  0  0  0  0  0
  142.6459   79.6391  224.5212 H   0  0  0  0  0  0  0  0  0  0  0  0
  143.7360   80.4970  223.4216 H   0  0  0  0  0  0  0  0  0  0  0  0
  141.6873   81.7984  224.4429 H   0  0  0  0  0  0  0  0  0  0  0  0
  142.0158   81.9671  222.6741 H   0  0  0  0  0  0  0  0  0  0  0  0
  139.6122   81.3741  223.7281 H   0  0  0  0  0  0  0  0  0  0  0  0
  140.2145   80.8529  222.0741 H   0  0  0  0  0  0  0  0  0  0  0  0
  140.1733   79.2145  224.6019 H   0  0  0  0  0  0  0  0  0  0  0  0
  139.1241   79.0497  223.1131 H   0  0  0  0  0  0  0  0  0  0  0  0
  1  2  1  0
  2  3  1  0
  3  4  1  0
  4  5  1  0
  5  6  1  0
  6  7  2  0
  6  8  1  0
  8  9  2  0
  9 10  1  0
 10 11  2  0
 11 12  1  0
 12 13  2  0
 13 14  1  0
 13 15  1  0
 15 16  2  0
 16 17  1  0
 17 18  2  0
  2 19  1  0
 19 20  2  0
 19 21  1  0
 21 22  1  0
 22 23  1  0
 23 24  1  0
 23 25  1  0
 25 26  1  0
 26 27  1  0
 27 28  1  0
 28 29  1  0
 29 30  1  0
 30 31  1  0
 31 32  1  0
 18  8  1  0
 26 21  1  0
 32 27  1  0
 17 11  1  0
  1 33  1  0
  1 34  1  0
  1 35  1  0
  3 36  1  0
  3 37  1  0
  4 38  1  0
  4 39  1  0
  5 40  1  0
  9 41  1  0
 10 42  1  0
 12 43  1  0
 15 44  1  0
 16 45  1  0
 21 46  1  1
 22 47  1  0
 22 48  1  0
 23 49  1  6
 24 50  1  0
 25 51  1  0
 25 52  1  0
 27 53  1  0
 28 54  1  0
 28 55  1  0
 29 56  1  0
 29 57  1  0
 30 58  1  0
 30 59  1  0
 31 60  1  0
 31 61  1  0
 32 62  1  0
 32 63  1  0
M  END
>  <smiles>  (21) 
CN(CCNC(=O)c1ccc2cc(F)ccc2n1)C(=O)[C@H]1C[C@H](O)CN1C1CCCCC1

>  <score_type>  (21) 
oracle

>  <origin>  (21) 
autodockgpu

>  <m_score__min__energy>  (21) 
-8.6799999999999997

>  <m_primary>  (21) 
energy

>  <rmsd>  (21) 
9.989571700045913

>  <m_score__min__rmsd>  (21) 
9.989571700045913

>  <meeko>  (21) 
{"free_energy": -7.82, "intermolecular_energy": -10.21, "internal_energy": -2.8, "cluster_size": 21, "cluster_id": 2, "rank_in_cluster": 17}

>  <energy>  (21) 
-8.32

>  <cluster_rmsd>  (21) 
0.58

>  <cluster>  (21) 
2

$$$$

     RDKit          3D

 63 66  0  0  0  0  0  0  0  0999 V2000
  140.0310   75.2440  218.4140 C   0  0  0  0  0  0  0  0  0  0  0  0
  140.4360   75.2670  219.8210 N   0  0  0  0  0  0  0  0  0  0  0  0
  140.6400   73.9990  220.4610 C   0  0  0  0  0  0  0  0  0  0  0  0
  139.3670   73.4720  221.0980 C   0  0  0  0  0  0  0  0  0  0  0  0
  139.5780   72.9010  222.4040 N   0  0  0  0  0  0  0  0  0  0  0  0
  140.0570   71.5810  222.6270 C   0  0  0  0  0  0  0  0  0  0  0  0
  140.3310   70.8180  221.6850 O   0  0  0  0  0  0  0  0  0  0  0  0
  140.2390   71.0890  224.0040 C   0  0  0  0  0  0  0  0  0  0  0  0
  140.7960   71.8930  224.9730 C   0  0  0  0  0  0  0  0  0  0  0  0
  140.9730   71.4460  226.2710 C   0  0  0  0  0  0  0  0  0  0  0  0
  140.5710   70.1640  226.5580 C   0  0  0  0  0  0  0  0  0  0  0  0
  140.7080   69.6240  227.8370 C   0  0  0  0  0  0  0  0  0  0  0  0
  140.2890   68.3270  228.0840 C   0  0  0  0  0  0  0  0  0  0  0  0
  140.4290   67.8150  229.3320 F   0  0  0  0  0  0  0  0  0  0  0  0
  139.7350   67.5280  227.1190 C   0  0  0  0  0  0  0  0  0  0  0  0
  139.5950   68.0600  225.8440 C   0  0  0  0  0  0  0  0  0  0  0  0
  140.0110   69.3510  225.5910 C   0  0  0  0  0  0  0  0  0  0  0  0
  139.8630   69.8370  224.3510 N   0  0  0  0  0  0  0  0  0  0  0  0
  140.5720   76.5350  220.4220 C   0  0  0  0  0  0  0  0  0  0  0  0
  139.5490   77.0120  220.9960 O   0  0  0  0  0  0  0  0  0  0  0  0
  141.8120   77.3470  220.4340 C   0  0  1  0  0  0  0  0  0  0  0  0
  142.7210   76.9360  219.2940 C   0  0  0  0  0  0  0  0  0  0  0  0
  142.2290   77.8560  218.1690 C   0  0  2  0  0  0  0  0  0  0  0  0
  143.1670   78.0320  217.1770 O   0  0  0  0  0  0  0  0  0  0  0  0
  142.0580   79.1400  218.9540 C   0  0  0  0  0  0  0  0  0  0  0  0
  141.4720   78.7390  220.2030 N   0  0  0  0  0  0  0  0  0  0  0  0
  141.9250   79.5650  221.3090 C   0  0  0  0  0  0  0  0  0  0  0  0
  141.1820   80.8720  221.3590 C   0  0  0  0  0  0  0  0  0  0  0  0
  141.5670   81.5770  222.6660 C   0  0  0  0  0  0  0  0  0  0  0  0
  140.7920   80.8710  223.7590 C   0  0  0  0  0  0  0  0  0  0  0  0
  140.7400   79.4000  223.5100 C   0  0  0  0  0  0  0  0  0  0  0  0
  141.8370   78.8760  222.6250 C   0  0  0  0  0  0  0  0  0  0  0  0
  138.9347   75.1818  218.3490 H   0  0  0  0  0  0  0  0  0  0  0  0
  140.3761   76.1632  217.9180 H   0  0  0  0  0  0  0  0  0  0  0  0
  140.4780   74.3698  217.9180 H   0  0  0  0  0  0  0  0  0  0  0  0
  140.9878   73.2742  219.7102 H   0  0  0  0  0  0  0  0  0  0  0  0
  141.3865   74.1365  221.2571 H   0  0  0  0  0  0  0  0  0  0  0  0
  138.6531   74.3036  221.1916 H   0  0  0  0  0  0  0  0  0  0  0  0
  138.9856   72.6698  220.4491 H   0  0  0  0  0  0  0  0  0  0  0  0
  139.3760   73.4630  223.2860 H   0  0  0  0  0  0  0  0  0  0  0  0
  141.1077   72.9145  224.7095 H   0  0  0  0  0  0  0  0  0  0  0  0
  141.4180   72.0918  227.0423 H   0  0  0  0  0  0  0  0  0  0  0  0
  141.1471   70.2259  228.6463 H   0  0  0  0  0  0  0  0  0  0  0  0
  139.4124   66.5012  227.3461 H   0  0  0  0  0  0  0  0  0  0  0  0
  139.1540   67.4543  225.0386 H   0  0  0  0  0  0  0  0  0  0  0  0
  142.3086   77.1994  221.4044 H   0  0  0  0  0  0  0  0  0  0  0  0
  143.7779   77.1237  219.5342 H   0  0  0  0  0  0  0  0  0  0  0  0
  142.6797   75.8643  219.0494 H   0  0  0  0  0  0  0  0  0  0  0  0
  141.3412   77.4806  217.6390 H   0  0  0  0  0  0  0  0  0  0  0  0
  143.3120   79.0160  217.0740 H   0  0  0  0  0  0  0  0  0  0  0  0
  143.0320   79.6229  219.1216 H   0  0  0  0  0  0  0  0  0  0  0  0
  141.4316   79.8696  218.4199 H   0  0  0  0  0  0  0  0  0  0  0  0
  142.9894   79.7652  221.1166 H   0  0  0  0  0  0  0  0  0  0  0  0
  141.4645   81.4968  220.4989 H   0  0  0  0  0  0  0  0  0  0  0  0
  140.0963   80.7000  221.3191 H   0  0  0  0  0  0  0  0  0  0  0  0
  142.6487   81.4883  222.8449 H   0  0  0  0  0  0  0  0  0  0  0  0
  141.3315   82.6509  222.6315 H   0  0  0  0  0  0  0  0  0  0  0  0
  141.2834   81.0555  224.7257 H   0  0  0  0  0  0  0  0  0  0  0  0
  139.7640   81.2622  223.7698 H   0  0  0  0  0  0  0  0  0  0  0  0
  140.8062   78.8852  224.4799 H   0  0  0  0  0  0  0  0  0  0  0  0
  139.7944   79.2062  222.9825 H   0  0  0  0  0  0  0  0  0  0  0  0
  142.7961   79.0034  223.1484 H   0  0  0  0  0  0  0  0  0  0  0  0
  141.6075   77.8199  222.4200 H   0  0  0  0  0  0  0  0  0  0  0  0
  1  2  1  0
  2  3  1  0
  3  4  1  0
  4  5  1  0
  5  6  1  0
  6  7  2  0
  6  8  1  0
  8  9  2  0
  9 10  1  0
 10 11  2  0
 11 12  1  0
 12 13  2  0
 13 14  1  0
 13 15  1  0
 15 16  2  0
 16 17  1  0
 17 18  2  0
  2 19  1  0
 19 20  2  0
 19 21  1  0
 21 22  1  0
 22 23  1  0
 23 24  1  0
 23 25  1  0
 25 26  1  0
 26 27  1  0
 27 28  1  0
 28 29  1  0
 29 30  1  0
 30 31  1  0
 31 32  1  0
 18  8  1  0
 26 21  1  0
 32 27  1  0
 17 11  1  0
  1 33  1  0
  1 34  1  0
  1 35  1  0
  3 36  1  0
  3 37  1  0
  4 38  1  0
  4 39  1  0
  5 40  1  0
  9 41  1  0
 10 42  1  0
 12 43  1  0
 15 44  1  0
 16 45  1  0
 21 46  1  1
 22 47  1  0
 22 48  1  0
 23 49  1  6
 24 50  1  0
 25 51  1  0
 25 52  1  0
 27 53  1  0
 28 54  1  0
 28 55  1  0
 29 56  1  0
 29 57  1  0
 30 58  1  0
 30 59  1  0
 31 60  1  0
 31 61  1  0
 32 62  1  0
 32 63  1  0
M  END
>  <smiles>  (22) 
CN(CCNC(=O)c1ccc2cc(F)ccc2n1)C(=O)[C@H]1C[C@H](O)CN1C1CCCCC1

>  <score_type>  (22) 
oracle

>  <origin>  (22) 
autodockgpu

>  <m_score__min__energy>  (22) 
-8.6799999999999997

>  <m_primary>  (22) 
energy

>  <rmsd>  (22) 
9.521915361443885

>  <m_score__min__rmsd>  (22) 
9.521915361443885

>  <meeko>  (22) 
{"free_energy": -8.34, "intermolecular_energy": -10.73, "internal_energy": -1.44, "cluster_size": 21, "cluster_id": 2, "rank_in_cluster": 7}

>  <energy>  (22) 
-8.18

>  <cluster_rmsd>  (22) 
1.3

>  <cluster>  (22) 
2

$$$$

     RDKit          3D

 63 66  0  0  0  0  0  0  0  0999 V2000
  142.9870   74.7040  220.3910 C   0  0  0  0  0  0  0  0  0  0  0  0
  141.5700   75.0210  220.2050 N   0  0  0  0  0  0  0  0  0  0  0  0
  140.6470   73.9230  220.2430 C   0  0  0  0  0  0  0  0  0  0  0  0
  139.5430   74.1430  221.2610 C   0  0  0  0  0  0  0  0  0  0  0  0
  139.5970   73.2220  222.3690 N   0  0  0  0  0  0  0  0  0  0  0  0
  139.6810   71.8100  222.2250 C   0  0  0  0  0  0  0  0  0  0  0  0
  139.7140   71.2680  221.1070 O   0  0  0  0  0  0  0  0  0  0  0  0
  139.7320   70.9530  223.4220 C   0  0  0  0  0  0  0  0  0  0  0  0
  139.2400   69.6680  223.3920 C   0  0  0  0  0  0  0  0  0  0  0  0
  139.2810   68.8500  224.5090 C   0  0  0  0  0  0  0  0  0  0  0  0
  139.8330   69.3720  225.6530 C   0  0  0  0  0  0  0  0  0  0  0  0
  139.9200   68.6250  226.8290 C   0  0  0  0  0  0  0  0  0  0  0  0
  140.4840   69.1900  227.9610 C   0  0  0  0  0  0  0  0  0  0  0  0
  140.5600   68.4520  229.0970 F   0  0  0  0  0  0  0  0  0  0  0  0
  140.9730   70.4690  227.9900 C   0  0  0  0  0  0  0  0  0  0  0  0
  140.8910   71.2160  226.8230 C   0  0  0  0  0  0  0  0  0  0  0  0
  140.3290   70.6610  225.6920 C   0  0  0  0  0  0  0  0  0  0  0  0
  140.2640   71.4070  224.5800 N   0  0  0  0  0  0  0  0  0  0  0  0
  141.2460   76.3760  219.9890 C   0  0  0  0  0  0  0  0  0  0  0  0
  140.0270   76.6510  219.7890 O   0  0  0  0  0  0  0  0  0  0  0  0
  142.2170   77.4960  219.9790 C   0  0  1  0  0  0  0  0  0  0  0  0
  142.8840   77.6020  218.6230 C   0  0  0  0  0  0  0  0  0  0  0  0
  141.9210   78.5400  217.8860 C   0  0  2  0  0  0  0  0  0  0  0  0
  142.5110   79.1750  216.8150 O   0  0  0  0  0  0  0  0  0  0  0  0
  141.6470   79.5370  218.9920 C   0  0  0  0  0  0  0  0  0  0  0  0
  141.5060   78.7440  220.1830 N   0  0  0  0  0  0  0  0  0  0  0  0
  142.0080   79.4320  221.3590 C   0  0  0  0  0  0  0  0  0  0  0  0
  141.4560   80.8270  221.4580 C   0  0  0  0  0  0  0  0  0  0  0  0
  141.8610   81.3950  222.8250 C   0  0  0  0  0  0  0  0  0  0  0  0
  140.9340   80.7470  223.8320 C   0  0  0  0  0  0  0  0  0  0  0  0
  140.6890   79.3150  223.4870 C   0  0  0  0  0  0  0  0  0  0  0  0
  141.7490   78.6890  222.6230 C   0  0  0  0  0  0  0  0  0  0  0  0
  143.2133   74.6534  221.4663 H   0  0  0  0  0  0  0  0  0  0  0  0
  143.2101   73.7337  219.9233 H   0  0  0  0  0  0  0  0  0  0  0  0
  143.6023   75.4867  219.9233 H   0  0  0  0  0  0  0  0  0  0  0  0
  140.1939   73.8054  219.2476 H   0  0  0  0  0  0  0  0  0  0  0  0
  141.2042   73.0209  220.5358 H   0  0  0  0  0  0  0  0  0  0  0  0
  139.6291   75.1669  221.6536 H   0  0  0  0  0  0  0  0  0  0  0  0
  138.5860   73.9760  220.7449 H   0  0  0  0  0  0  0  0  0  0  0  0
  139.5760   73.5740  223.3740 H   0  0  0  0  0  0  0  0  0  0  0  0
  138.8040   69.2815  222.4590 H   0  0  0  0  0  0  0  0  0  0  0  0
  138.8872   67.8233  224.4809 H   0  0  0  0  0  0  0  0  0  0  0  0
  139.5423   67.5922  226.8566 H   0  0  0  0  0  0  0  0  0  0  0  0
  141.4150   70.8892  228.9055 H   0  0  0  0  0  0  0  0  0  0  0  0
  141.2730   72.2473  226.8001 H   0  0  0  0  0  0  0  0  0  0  0  0
  142.9608   77.3117  220.7681 H   0  0  0  0  0  0  0  0  0  0  0  0
  143.8901   78.0394  218.7024 H   0  0  0  0  0  0  0  0  0  0  0  0
  143.0422   76.6354  218.1224 H   0  0  0  0  0  0  0  0  0  0  0  0
  141.0464   78.0329  217.4525 H   0  0  0  0  0  0  0  0  0  0  0  0
  143.4310   79.4450  217.0990 H   0  0  0  0  0  0  0  0  0  0  0  0
  142.4858   80.2413  219.0938 H   0  0  0  0  0  0  0  0  0  0  0  0
  140.7503   80.1413  218.7900 H   0  0  0  0  0  0  0  0  0  0  0  0
  143.0990   79.4874  221.2300 H   0  0  0  0  0  0  0  0  0  0  0  0
  141.8725   81.4523  220.6545 H   0  0  0  0  0  0  0  0  0  0  0  0
  140.3608   80.8154  221.3555 H   0  0  0  0  0  0  0  0  0  0  0  0
  142.9077   81.1424  223.0499 H   0  0  0  0  0  0  0  0  0  0  0  0
  141.7804   82.4918  222.8477 H   0  0  0  0  0  0  0  0  0  0  0  0
  141.3913   80.8036  224.8308 H   0  0  0  0  0  0  0  0  0  0  0  0
  139.9724   81.2810  223.8186 H   0  0  0  0  0  0  0  0  0  0  0  0
  140.6275   78.7420  224.4240 H   0  0  0  0  0  0  0  0  0  0  0  0
  139.7566   79.2899  222.9039 H   0  0  0  0  0  0  0  0  0  0  0  0
  142.6854   78.6463  223.1986 H   0  0  0  0  0  0  0  0  0  0  0  0
  141.3840   77.6908  222.3396 H   0  0  0  0  0  0  0  0  0  0  0  0
  1  2  1  0
  2  3  1  0
  3  4  1  0
  4  5  1  0
  5  6  1  0
  6  7  2  0
  6  8  1  0
  8  9  2  0
  9 10  1  0
 10 11  2  0
 11 12  1  0
 12 13  2  0
 13 14  1  0
 13 15  1  0
 15 16  2  0
 16 17  1  0
 17 18  2  0
  2 19  1  0
 19 20  2  0
 19 21  1  0
 21 22  1  0
 22 23  1  0
 23 24  1  0
 23 25  1  0
 25 26  1  0
 26 27  1  0
 27 28  1  0
 28 29  1  0
 29 30  1  0
 30 31  1  0
 31 32  1  0
 18  8  1  0
 26 21  1  0
 32 27  1  0
 17 11  1  0
  1 33  1  0
  1 34  1  0
  1 35  1  0
  3 36  1  0
  3 37  1  0
  4 38  1  0
  4 39  1  0
  5 40  1  0
  9 41  1  0
 10 42  1  0
 12 43  1  0
 15 44  1  0
 16 45  1  0
 21 46  1  1
 22 47  1  0
 22 48  1  0
 23 49  1  6
 24 50  1  0
 25 51  1  0
 25 52  1  0
 27 53  1  0
 28 54  1  0
 28 55  1  0
 29 56  1  0
 29 57  1  0
 30 58  1  0
 30 59  1  0
 31 60  1  0
 31 61  1  0
 32 62  1  0
 32 63  1  0
M  END
>  <smiles>  (23) 
CN(CCNC(=O)c1ccc2cc(F)ccc2n1)C(=O)[C@H]1C[C@H](O)CN1C1CCCCC1

>  <score_type>  (23) 
oracle

>  <origin>  (23) 
autodockgpu

>  <m_score__min__energy>  (23) 
-8.6799999999999997

>  <m_primary>  (23) 
energy

>  <rmsd>  (23) 
9.977510983809122

>  <m_score__min__rmsd>  (23) 
9.977510983809122

>  <meeko>  (23) 
{"free_energy": -8.49, "intermolecular_energy": -10.88, "internal_energy": -1.69, "cluster_size": 21, "cluster_id": 2, "rank_in_cluster": 4}

>  <energy>  (23) 
-8.12

>  <cluster_rmsd>  (23) 
0.96

>  <cluster>  (23) 
2

$$$$

     RDKit          3D

 63 66  0  0  0  0  0  0  0  0999 V2000
  143.6960   74.7950  217.2560 C   0  0  0  0  0  0  0  0  0  0  0  0
  142.9830   75.1990  218.4680 N   0  0  0  0  0  0  0  0  0  0  0  0
  142.1680   74.2050  219.1060 C   0  0  0  0  0  0  0  0  0  0  0  0
  142.2880   74.2550  220.6190 C   0  0  0  0  0  0  0  0  0  0  0  0
  141.8480   75.5050  221.1850 N   0  0  0  0  0  0  0  0  0  0  0  0
  140.6720   75.6510  221.9700 C   0  0  0  0  0  0  0  0  0  0  0  0
  139.9320   74.6860  222.2240 O   0  0  0  0  0  0  0  0  0  0  0  0
  140.3070   76.9750  222.5050 C   0  0  0  0  0  0  0  0  0  0  0  0
  141.2570   77.7920  223.0760 C   0  0  0  0  0  0  0  0  0  0  0  0
  140.9300   79.0380  223.5820 C   0  0  0  0  0  0  0  0  0  0  0  0
  139.6170   79.4310  223.4940 C   0  0  0  0  0  0  0  0  0  0  0  0
  139.1900   80.6690  223.9760 C   0  0  0  0  0  0  0  0  0  0  0  0
  137.8560   81.0260  223.8660 C   0  0  0  0  0  0  0  0  0  0  0  0
  137.4560   82.2330  224.3400 F   0  0  0  0  0  0  0  0  0  0  0  0
  136.9120   80.2130  223.2980 C   0  0  0  0  0  0  0  0  0  0  0  0
  137.3300   78.9800  222.8160 C   0  0  0  0  0  0  0  0  0  0  0  0
  138.6570   78.6170  222.9220 C   0  0  0  0  0  0  0  0  0  0  0  0
  139.0310   77.4200  222.4480 N   0  0  0  0  0  0  0  0  0  0  0  0
  143.1500   76.5340  218.8880 C   0  0  0  0  0  0  0  0  0  0  0  0
  144.0750   76.7630  219.7220 O   0  0  0  0  0  0  0  0  0  0  0  0
  142.3330   77.6830  218.4300 C   0  0  1  0  0  0  0  0  0  0  0  0
  141.1500   77.1960  217.6190 C   0  0  0  0  0  0  0  0  0  0  0  0
  140.0960   76.9900  218.7160 C   0  0  2  0  0  0  0  0  0  0  0  0
  138.8090   77.0060  218.2260 O   0  0  0  0  0  0  0  0  0  0  0  0
  140.3510   78.2330  219.5430 C   0  0  0  0  0  0  0  0  0  0  0  0
  141.7820   78.3660  219.5860 N   0  0  0  0  0  0  0  0  0  0  0  0
  142.2010   79.7570  219.6040 C   0  0  0  0  0  0  0  0  0  0  0  0
  141.4340   80.5740  218.6010 C   0  0  0  0  0  0  0  0  0  0  0  0
  141.7810   82.0500  218.8380 C   0  0  0  0  0  0  0  0  0  0  0  0
  140.9980   82.4650  220.0660 C   0  0  0  0  0  0  0  0  0  0  0  0
  140.9770   81.3700  221.0800 C   0  0  0  0  0  0  0  0  0  0  0  0
  142.0990   80.3770  220.9540 C   0  0  0  0  0  0  0  0  0  0  0  0
  144.6222   74.2702  217.5332 H   0  0  0  0  0  0  0  0  0  0  0  0
  143.0582   74.1241  216.6618 H   0  0  0  0  0  0  0  0  0  0  0  0
  143.9437   75.6869  216.6618 H   0  0  0  0  0  0  0  0  0  0  0  0
  141.1175   74.3751  218.8274 H   0  0  0  0  0  0  0  0  0  0  0  0
  142.5140   73.2162  218.7707 H   0  0  0  0  0  0  0  0  0  0  0  0
  141.6774   73.4450  221.0446 H   0  0  0  0  0  0  0  0  0  0  0  0
  143.3543   74.1436  220.8650 H   0  0  0  0  0  0  0  0  0  0  0  0
  142.4040   76.4000  221.0330 H   0  0  0  0  0  0  0  0  0  0  0  0
  142.2998   77.4464  223.1313 H   0  0  0  0  0  0  0  0  0  0  0  0
  141.6919   79.6881  224.0368 H   0  0  0  0  0  0  0  0  0  0  0  0
  139.9097   81.3586  224.4414 H   0  0  0  0  0  0  0  0  0  0  0  0
  135.8598   80.5257  223.2262 H   0  0  0  0  0  0  0  0  0  0  0  0
  136.6058   78.2948  222.3512 H   0  0  0  0  0  0  0  0  0  0  0  0
  142.9757   78.3431  217.8289 H   0  0  0  0  0  0  0  0  0  0  0  0
  140.8264   77.9501  216.8865 H   0  0  0  0  0  0  0  0  0  0  0  0
  141.3555   76.2979  217.0181 H   0  0  0  0  0  0  0  0  0  0  0  0
  140.1754   76.0257  219.2392 H   0  0  0  0  0  0  0  0  0  0  0  0
  138.8650   76.8870  217.2350 H   0  0  0  0  0  0  0  0  0  0  0  0
  139.8952   79.1138  219.0672 H   0  0  0  0  0  0  0  0  0  0  0  0
  139.9134   78.1560  220.5493 H   0  0  0  0  0  0  0  0  0  0  0  0
  143.2650   79.7543  219.3250 H   0  0  0  0  0  0  0  0  0  0  0  0
  141.7216   80.2808  217.5806 H   0  0  0  0  0  0  0  0  0  0  0  0
  140.3525   80.4093  218.7163 H   0  0  0  0  0  0  0  0  0  0  0  0
  142.8605   82.1663  219.0145 H   0  0  0  0  0  0  0  0  0  0  0  0
  141.5268   82.6710  217.9664 H   0  0  0  0  0  0  0  0  0  0  0  0
  141.4673   83.3562  220.5081 H   0  0  0  0  0  0  0  0  0  0  0  0
  139.9631   82.6849  219.7650 H   0  0  0  0  0  0  0  0  0  0  0  0
  141.0340   81.8267  222.0791 H   0  0  0  0  0  0  0  0  0  0  0  0
  140.0452   80.8095  220.9136 H   0  0  0  0  0  0  0  0  0  0  0  0
  143.0457   80.8933  221.1715 H   0  0  0  0  0  0  0  0  0  0  0  0
  141.8907   79.5647  221.6658 H   0  0  0  0  0  0  0  0  0  0  0  0
  1  2  1  0
  2  3  1  0
  3  4  1  0
  4  5  1  0
  5  6  1  0
  6  7  2  0
  6  8  1  0
  8  9  2  0
  9 10  1  0
 10 11  2  0
 11 12  1  0
 12 13  2  0
 13 14  1  0
 13 15  1  0
 15 16  2  0
 16 17  1  0
 17 18  2  0
  2 19  1  0
 19 20  2  0
 19 21  1  0
 21 22  1  0
 22 23  1  0
 23 24  1  0
 23 25  1  0
 25 26  1  0
 26 27  1  0
 27 28  1  0
 28 29  1  0
 29 30  1  0
 30 31  1  0
 31 32  1  0
 18  8  1  0
 26 21  1  0
 32 27  1  0
 17 11  1  0
  1 33  1  0
  1 34  1  0
  1 35  1  0
  3 36  1  0
  3 37  1  0
  4 38  1  0
  4 39  1  0
  5 40  1  0
  9 41  1  0
 10 42  1  0
 12 43  1  0
 15 44  1  0
 16 45  1  0
 21 46  1  6
 22 47  1  0
 22 48  1  0
 23 49  1  1
 24 50  1  0
 25 51  1  0
 25 52  1  0
 27 53  1  0
 28 54  1  0
 28 55  1  0
 29 56  1  0
 29 57  1  0
 30 58  1  0
 30 59  1  0
 31 60  1  0
 31 61  1  0
 32 62  1  0
 32 63  1  0
M  END
>  <smiles>  (24) 
CN(CCNC(=O)c1ccc2cc(F)ccc2n1)C(=O)[C@H]1C[C@H](O)CN1C1CCCCC1

>  <score_type>  (24) 
oracle

>  <origin>  (24) 
autodockgpu

>  <m_score__min__energy>  (24) 
-8.6799999999999997

>  <m_primary>  (24) 
energy

>  <rmsd>  (24) 
8.084723059266613

>  <m_score__min__rmsd>  (24) 
8.084723059266613

>  <meeko>  (24) 
{"free_energy": -5.44, "intermolecular_energy": -7.83, "internal_energy": -4.09, "cluster_size": 1, "cluster_id": 9, "rank_in_cluster": 1}

>  <energy>  (24) 
-8.11

>  <cluster_rmsd>  (24) 
1.97

>  <cluster>  (24) 
2

$$$$

     RDKit          3D

 63 66  0  0  0  0  0  0  0  0999 V2000
  137.9950   76.0930  222.7060 C   0  0  0  0  0  0  0  0  0  0  0  0
  138.7860   75.3600  221.7160 N   0  0  0  0  0  0  0  0  0  0  0  0
  138.0650   74.6970  220.6680 C   0  0  0  0  0  0  0  0  0  0  0  0
  137.6460   73.2930  221.0650 C   0  0  0  0  0  0  0  0  0  0  0  0
  138.3380   72.7990  222.2290 N   0  0  0  0  0  0  0  0  0  0  0  0
  138.4620   71.4200  222.5540 C   0  0  0  0  0  0  0  0  0  0  0  0
  137.9700   70.5330  221.8370 O   0  0  0  0  0  0  0  0  0  0  0  0
  139.1910   71.0170  223.7700 C   0  0  0  0  0  0  0  0  0  0  0  0
  140.1660   71.8240  224.3090 C   0  0  0  0  0  0  0  0  0  0  0  0
  140.8590   71.4590  225.4510 C   0  0  0  0  0  0  0  0  0  0  0  0
  140.5360   70.2550  226.0270 C   0  0  0  0  0  0  0  0  0  0  0  0
  141.1790   69.8000  227.1790 C   0  0  0  0  0  0  0  0  0  0  0  0
  140.8230   68.5800  227.7290 C   0  0  0  0  0  0  0  0  0  0  0  0
  141.4570   68.1510  228.8490 F   0  0  0  0  0  0  0  0  0  0  0  0
  139.8520   67.7770  227.1910 C   0  0  0  0  0  0  0  0  0  0  0  0
  139.2080   68.2240  226.0450 C   0  0  0  0  0  0  0  0  0  0  0  0
  139.5580   69.4380  225.4920 C   0  0  0  0  0  0  0  0  0  0  0  0
  138.9190   69.8430  224.3850 N   0  0  0  0  0  0  0  0  0  0  0  0
  140.1840   75.3600  221.8950 C   0  0  0  0  0  0  0  0  0  0  0  0
  140.7120   74.2850  222.3030 O   0  0  0  0  0  0  0  0  0  0  0  0
  141.0780   76.5150  221.6420 C   0  0  1  0  0  0  0  0  0  0  0  0
  141.4050   76.6140  220.1660 C   0  0  0  0  0  0  0  0  0  0  0  0
  140.2570   77.4980  219.6600 C   0  0  2  0  0  0  0  0  0  0  0  0
  140.5540   78.1280  218.4720 O   0  0  0  0  0  0  0  0  0  0  0  0
  140.2070   78.5100  220.7860 C   0  0  0  0  0  0  0  0  0  0  0  0
  140.3810   77.7410  221.9880 N   0  0  0  0  0  0  0  0  0  0  0  0
  141.1150   78.4750  223.0040 C   0  0  0  0  0  0  0  0  0  0  0  0
  142.2770   79.2230  222.4090 C   0  0  0  0  0  0  0  0  0  0  0  0
  142.8560   80.1320  223.5020 C   0  0  0  0  0  0  0  0  0  0  0  0
  141.9040   81.3050  223.6100 C   0  0  0  0  0  0  0  0  0  0  0  0
  140.4870   80.8560  223.4680 C   0  0  0  0  0  0  0  0  0  0  0  0
  140.2550   79.4050  223.7850 C   0  0  0  0  0  0  0  0  0  0  0  0
  138.3113   75.7999  223.7179 H   0  0  0  0  0  0  0  0  0  0  0  0
  138.1501   77.1737  222.5720 H   0  0  0  0  0  0  0  0  0  0  0  0
  136.9292   75.8562  222.5720 H   0  0  0  0  0  0  0  0  0  0  0  0
  137.1645   75.2826  220.4312 H   0  0  0  0  0  0  0  0  0  0  0  0
  138.7301   74.6187  219.7954 H   0  0  0  0  0  0  0  0  0  0  0  0
  136.5665   73.2975  221.2763 H   0  0  0  0  0  0  0  0  0  0  0  0
  137.9017   72.6276  220.2272 H   0  0  0  0  0  0  0  0  0  0  0  0
  138.7990   73.4690  222.9160 H   0  0  0  0  0  0  0  0  0  0  0  0
  140.4007   72.7817  223.8214 H   0  0  0  0  0  0  0  0  0  0  0  0
  141.6372   72.1076  225.8797 H   0  0  0  0  0  0  0  0  0  0  0  0
  141.9660   70.4084  227.6486 H   0  0  0  0  0  0  0  0  0  0  0  0
  139.5918   66.8122  227.6507 H   0  0  0  0  0  0  0  0  0  0  0  0
  138.4213   67.6119  225.5797 H   0  0  0  0  0  0  0  0  0  0  0  0
  141.9923   76.3775  222.2379 H   0  0  0  0  0  0  0  0  0  0  0  0
  142.3825   77.0909  220.0016 H   0  0  0  0  0  0  0  0  0  0  0  0
  141.4824   75.6422  219.6564 H   0  0  0  0  0  0  0  0  0  0  0  0
  139.3273   76.9490  219.4498 H   0  0  0  0  0  0  0  0  0  0  0  0
  140.7300   77.4160  217.7930 H   0  0  0  0  0  0  0  0  0  0  0  0
  141.0161   79.2475  220.6787 H   0  0  0  0  0  0  0  0  0  0  0  0
  139.2632   79.0751  220.7910 H   0  0  0  0  0  0  0  0  0  0  0  0
  141.4969   77.7175  223.7042 H   0  0  0  0  0  0  0  0  0  0  0  0
  143.0442   78.5127  222.0672 H   0  0  0  0  0  0  0  0  0  0  0  0
  141.9492   79.8200  221.5452 H   0  0  0  0  0  0  0  0  0  0  0  0
  142.9101   79.5932  224.4594 H   0  0  0  0  0  0  0  0  0  0  0  0
  143.8769   80.4603  223.2569 H   0  0  0  0  0  0  0  0  0  0  0  0
  142.0332   81.7845  224.5915 H   0  0  0  0  0  0  0  0  0  0  0  0
  142.1299   82.0165  222.8021 H   0  0  0  0  0  0  0  0  0  0  0  0
  139.8664   81.4590  224.1472 H   0  0  0  0  0  0  0  0  0  0  0  0
  140.2226   80.9896  222.4086 H   0  0  0  0  0  0  0  0  0  0  0  0
  140.4559   79.2473  224.8549 H   0  0  0  0  0  0  0  0  0  0  0  0
  139.2125   79.1806  223.5150 H   0  0  0  0  0  0  0  0  0  0  0  0
  1  2  1  0
  2  3  1  0
  3  4  1  0
  4  5  1  0
  5  6  1  0
  6  7  2  0
  6  8  1  0
  8  9  2  0
  9 10  1  0
 10 11  2  0
 11 12  1  0
 12 13  2  0
 13 14  1  0
 13 15  1  0
 15 16  2  0
 16 17  1  0
 17 18  2  0
  2 19  1  0
 19 20  2  0
 19 21  1  0
 21 22  1  0
 22 23  1  0
 23 24  1  0
 23 25  1  0
 25 26  1  0
 26 27  1  0
 27 28  1  0
 28 29  1  0
 29 30  1  0
 30 31  1  0
 31 32  1  0
 18  8  1  0
 26 21  1  0
 32 27  1  0
 17 11  1  0
  1 33  1  0
  1 34  1  0
  1 35  1  0
  3 36  1  0
  3 37  1  0
  4 38  1  0
  4 39  1  0
  5 40  1  0
  9 41  1  0
 10 42  1  0
 12 43  1  0
 15 44  1  0
 16 45  1  0
 21 46  1  1
 22 47  1  0
 22 48  1  0
 23 49  1  6
 24 50  1  0
 25 51  1  0
 25 52  1  0
 27 53  1  0
 28 54  1  0
 28 55  1  0
 29 56  1  0
 29 57  1  0
 30 58  1  0
 30 59  1  0
 31 60  1  0
 31 61  1  0
 32 62  1  0
 32 63  1  0
M  END
>  <smiles>  (25) 
CN(CCNC(=O)c1ccc2cc(F)ccc2n1)C(=O)[C@H]1C[C@H](O)CN1C1CCCCC1

>  <score_type>  (25) 
oracle

>  <origin>  (25) 
autodockgpu

>  <m_score__min__energy>  (25) 
-8.6799999999999997

>  <m_primary>  (25) 
energy

>  <rmsd>  (25) 
9.441332649417564

>  <m_score__min__rmsd>  (25) 
9.441332649417564

>  <meeko>  (25) 
{"free_energy": -8.56, "intermolecular_energy": -10.94, "internal_energy": -2.45, "cluster_size": 21, "cluster_id": 2, "rank_in_cluster": 3}

>  <energy>  (25) 
-8.02

>  <cluster_rmsd>  (25) 
0.8

>  <cluster>  (25) 
2

$$$$

     RDKit          3D

 63 66  0  0  0  0  0  0  0  0999 V2000
  137.7100   76.4020  223.0930 C   0  0  0  0  0  0  0  0  0  0  0  0
  138.3890   75.6170  222.0610 N   0  0  0  0  0  0  0  0  0  0  0  0
  137.5600   74.8520  221.1740 C   0  0  0  0  0  0  0  0  0  0  0  0
  138.1500   73.4850  220.8790 C   0  0  0  0  0  0  0  0  0  0  0  0
  138.5500   72.7690  222.0640 N   0  0  0  0  0  0  0  0  0  0  0  0
  138.5930   71.3510  222.1590 C   0  0  0  0  0  0  0  0  0  0  0  0
  138.2810   70.6230  221.2020 O   0  0  0  0  0  0  0  0  0  0  0  0
  139.0170   70.7140  223.4180 C   0  0  0  0  0  0  0  0  0  0  0  0
  138.8050   69.3720  223.6360 C   0  0  0  0  0  0  0  0  0  0  0  0
  139.1980   68.7580  224.8130 C   0  0  0  0  0  0  0  0  0  0  0  0
  139.8100   69.5420  225.7600 C   0  0  0  0  0  0  0  0  0  0  0  0
  140.2420   69.0150  226.9780 C   0  0  0  0  0  0  0  0  0  0  0  0
  140.8560   69.8410  227.9050 C   0  0  0  0  0  0  0  0  0  0  0  0
  141.2700   69.3150  229.0850 F   0  0  0  0  0  0  0  0  0  0  0  0
  141.0670   71.1770  227.6870 C   0  0  0  0  0  0  0  0  0  0  0  0
  140.6400   71.7070  226.4770 C   0  0  0  0  0  0  0  0  0  0  0  0
  140.0280   70.8910  225.5490 C   0  0  0  0  0  0  0  0  0  0  0  0
  139.6260   71.4310  224.3900 N   0  0  0  0  0  0  0  0  0  0  0  0
  139.7980   75.6720  222.0450 C   0  0  0  0  0  0  0  0  0  0  0  0
  140.4180   74.5930  222.2730 O   0  0  0  0  0  0  0  0  0  0  0  0
  140.6020   76.8890  221.7830 C   0  0  1  0  0  0  0  0  0  0  0  0
  140.9170   77.0030  220.3050 C   0  0  0  0  0  0  0  0  0  0  0  0
  139.7060   77.7960  219.7980 C   0  0  2  0  0  0  0  0  0  0  0  0
  139.9520   78.4390  218.6060 O   0  0  0  0  0  0  0  0  0  0  0  0
  139.5830   78.8080  220.9180 C   0  0  0  0  0  0  0  0  0  0  0  0
  139.8170   78.0610  222.1240 N   0  0  0  0  0  0  0  0  0  0  0  0
  140.4960   78.8540  223.1330 C   0  0  0  0  0  0  0  0  0  0  0  0
  141.9610   79.0000  222.8240 C   0  0  0  0  0  0  0  0  0  0  0  0
  142.5480   80.0190  223.8100 C   0  0  0  0  0  0  0  0  0  0  0  0
  142.1070   81.3780  223.3080 C   0  0  0  0  0  0  0  0  0  0  0  0
  140.7080   81.3280  222.7900 C   0  0  0  0  0  0  0  0  0  0  0  0
  139.8800   80.1950  223.3320 C   0  0  0  0  0  0  0  0  0  0  0  0
  138.0183   76.0456  224.0870 H   0  0  0  0  0  0  0  0  0  0  0  0
  137.9800   77.4627  222.9838 H   0  0  0  0  0  0  0  0  0  0  0  0
  136.6214   76.2876  222.9838 H   0  0  0  0  0  0  0  0  0  0  0  0
  136.5716   74.7192  221.6382 H   0  0  0  0  0  0  0  0  0  0  0  0
  137.4837   75.4006  220.2236 H   0  0  0  0  0  0  0  0  0  0  0  0
  137.3956   72.8865  220.3474 H   0  0  0  0  0  0  0  0  0  0  0  0
  139.0545   73.6443  220.2737 H   0  0  0  0  0  0  0  0  0  0  0  0
  138.8400   73.2910  222.9470 H   0  0  0  0  0  0  0  0  0  0  0  0
  138.3115   68.7728  222.8566 H   0  0  0  0  0  0  0  0  0  0  0  0
  139.0268   67.6848  224.9829 H   0  0  0  0  0  0  0  0  0  0  0  0
  140.0955   67.9478  227.2009 H   0  0  0  0  0  0  0  0  0  0  0  0
  141.5572   71.8072  228.4436 H   0  0  0  0  0  0  0  0  0  0  0  0
  140.7894   72.7748  226.2592 H   0  0  0  0  0  0  0  0  0  0  0  0
  141.5254   76.8241  222.3773 H   0  0  0  0  0  0  0  0  0  0  0  0
  141.8561   77.5500  220.1347 H   0  0  0  0  0  0  0  0  0  0  0  0
  141.0649   76.0366  219.8008 H   0  0  0  0  0  0  0  0  0  0  0  0
  138.8192   77.1779  219.5939 H   0  0  0  0  0  0  0  0  0  0  0  0
  140.9290   78.3470  218.4130 H   0  0  0  0  0  0  0  0  0  0  0  0
  140.3343   79.6033  220.8043 H   0  0  0  0  0  0  0  0  0  0  0  0
  138.5997   79.3010  220.9224 H   0  0  0  0  0  0  0  0  0  0  0  0
  140.3822   78.2989  224.0758 H   0  0  0  0  0  0  0  0  0  0  0  0
  142.4670   78.0304  222.9421 H   0  0  0  0  0  0  0  0  0  0  0  0
  142.1035   79.3411  221.7880 H   0  0  0  0  0  0  0  0  0  0  0  0
  142.1590   79.8399  224.8232 H   0  0  0  0  0  0  0  0  0  0  0  0
  143.6440   79.9437  223.8664 H   0  0  0  0  0  0  0  0  0  0  0  0
  142.1588   82.1013  224.1351 H   0  0  0  0  0  0  0  0  0  0  0  0
  142.7740   81.6824  222.4879 H   0  0  0  0  0  0  0  0  0  0  0  0
  140.2106   82.2731  223.0533 H   0  0  0  0  0  0  0  0  0  0  0  0
  140.7829   81.1680  221.7043 H   0  0  0  0  0  0  0  0  0  0  0  0
  139.7370   80.3547  224.4109 H   0  0  0  0  0  0  0  0  0  0  0  0
  138.9300   80.1975  222.7775 H   0  0  0  0  0  0  0  0  0  0  0  0
  1  2  1  0
  2  3  1  0
  3  4  1  0
  4  5  1  0
  5  6  1  0
  6  7  2  0
  6  8  1  0
  8  9  2  0
  9 10  1  0
 10 11  2  0
 11 12  1  0
 12 13  2  0
 13 14  1  0
 13 15  1  0
 15 16  2  0
 16 17  1  0
 17 18  2  0
  2 19  1  0
 19 20  2  0
 19 21  1  0
 21 22  1  0
 22 23  1  0
 23 24  1  0
 23 25  1  0
 25 26  1  0
 26 27  1  0
 27 28  1  0
 28 29  1  0
 29 30  1  0
 30 31  1  0
 31 32  1  0
 18  8  1  0
 26 21  1  0
 32 27  1  0
 17 11  1  0
  1 33  1  0
  1 34  1  0
  1 35  1  0
  3 36  1  0
  3 37  1  0
  4 38  1  0
  4 39  1  0
  5 40  1  0
  9 41  1  0
 10 42  1  0
 12 43  1  0
 15 44  1  0
 16 45  1  0
 21 46  1  1
 22 47  1  0
 22 48  1  0
 23 49  1  6
 24 50  1  0
 25 51  1  0
 25 52  1  0
 27 53  1  0
 28 54  1  0
 28 55  1  0
 29 56  1  0
 29 57  1  0
 30 58  1  0
 30 59  1  0
 31 60  1  0
 31 61  1  0
 32 62  1  0
 32 63  1  0
M  END
>  <smiles>  (26) 
CN(CCNC(=O)c1ccc2cc(F)ccc2n1)C(=O)[C@H]1C[C@H](O)CN1C1CCCCC1

>  <score_type>  (26) 
oracle

>  <origin>  (26) 
autodockgpu

>  <m_score__min__energy>  (26) 
-8.6799999999999997

>  <m_primary>  (26) 
energy

>  <rmsd>  (26) 
10.145784455409967

>  <m_score__min__rmsd>  (26) 
10.145784455409967

>  <meeko>  (26) 
{"free_energy": -8.12, "intermolecular_energy": -10.51, "internal_energy": -2.53, "cluster_size": 21, "cluster_id": 2, "rank_in_cluster": 10}

>  <energy>  (26) 
-8.02

>  <cluster_rmsd>  (26) 
0.83

>  <cluster>  (26) 
2

$$$$

     RDKit          3D

 63 66  0  0  0  0  0  0  0  0999 V2000
  142.9400   76.2920  219.3820 C   0  0  0  0  0  0  0  0  0  0  0  0
  141.6730   76.1700  220.1030 N   0  0  0  0  0  0  0  0  0  0  0  0
  141.5380   75.0590  221.0010 C   0  0  0  0  0  0  0  0  0  0  0  0
  140.0880   74.6500  221.1870 C   0  0  0  0  0  0  0  0  0  0  0  0
  139.8920   73.7240  222.2740 N   0  0  0  0  0  0  0  0  0  0  0  0
  140.5100   72.4460  222.3510 C   0  0  0  0  0  0  0  0  0  0  0  0
  141.2770   72.0370  221.4640 O   0  0  0  0  0  0  0  0  0  0  0  0
  140.2440   71.5720  223.5070 C   0  0  0  0  0  0  0  0  0  0  0  0
  139.5390   70.3990  223.3580 C   0  0  0  0  0  0  0  0  0  0  0  0
  139.2820   69.5670  224.4340 C   0  0  0  0  0  0  0  0  0  0  0  0
  139.7580   69.9580  225.6620 C   0  0  0  0  0  0  0  0  0  0  0  0
  139.5500   69.1860  226.8060 C   0  0  0  0  0  0  0  0  0  0  0  0
  140.0470   69.6160  228.0250 C   0  0  0  0  0  0  0  0  0  0  0  0
  139.8360   68.8560  229.1290 F   0  0  0  0  0  0  0  0  0  0  0  0
  140.7490   70.7830  228.1720 C   0  0  0  0  0  0  0  0  0  0  0  0
  140.9600   71.5550  227.0380 C   0  0  0  0  0  0  0  0  0  0  0  0
  140.4670   71.1330  225.8210 C   0  0  0  0  0  0  0  0  0  0  0  0
  140.6870   71.9000  224.7430 N   0  0  0  0  0  0  0  0  0  0  0  0
  140.6930   77.1480  219.8350 C   0  0  0  0  0  0  0  0  0  0  0  0
  140.1410   77.1120  218.6960 O   0  0  0  0  0  0  0  0  0  0  0  0
  140.2620   78.2080  220.7770 C   0  0  1  0  0  0  0  0  0  0  0  0
  138.8180   78.5840  220.5220 C   0  0  0  0  0  0  0  0  0  0  0  0
  138.0810   77.5920  221.4310 C   0  0  2  0  0  0  0  0  0  0  0  0
  136.8090   78.0090  221.7540 O   0  0  0  0  0  0  0  0  0  0  0  0
  138.9750   77.6610  222.6510 C   0  0  0  0  0  0  0  0  0  0  0  0
  140.3150   77.6890  222.1320 N   0  0  0  0  0  0  0  0  0  0  0  0
  141.2010   78.4960  222.9530 C   0  0  0  0  0  0  0  0  0  0  0  0
  142.1770   79.2700  222.1100 C   0  0  0  0  0  0  0  0  0  0  0  0
  142.9190   80.2470  223.0330 C   0  0  0  0  0  0  0  0  0  0  0  0
  141.9490   81.3800  223.2990 C   0  0  0  0  0  0  0  0  0  0  0  0
  140.5590   80.8630  223.4640 C   0  0  0  0  0  0  0  0  0  0  0  0
  140.4710   79.4170  223.8660 C   0  0  0  0  0  0  0  0  0  0  0  0
  143.7664   76.3716  220.1037 H   0  0  0  0  0  0  0  0  0  0  0  0
  143.0893   75.4041  218.7501 H   0  0  0  0  0  0  0  0  0  0  0  0
  142.9171   77.1921  218.7501 H   0  0  0  0  0  0  0  0  0  0  0  0
  142.0987   74.2042  220.5949 H   0  0  0  0  0  0  0  0  0  0  0  0
  141.9328   75.3649  221.9811 H   0  0  0  0  0  0  0  0  0  0  0  0
  139.4932   75.5535  221.3864 H   0  0  0  0  0  0  0  0  0  0  0  0
  139.7720   74.1411  220.2644 H   0  0  0  0  0  0  0  0  0  0  0  0
  139.2540   73.9680  223.0910 H   0  0  0  0  0  0  0  0  0  0  0  0
  139.1713   70.1163  222.3606 H   0  0  0  0  0  0  0  0  0  0  0  0
  138.7190   68.6300  224.3108 H   0  0  0  0  0  0  0  0  0  0  0  0
  138.9934   68.2395  226.7396 H   0  0  0  0  0  0  0  0  0  0  0  0
  141.1320   71.0972  229.1541 H   0  0  0  0  0  0  0  0  0  0  0  0
  141.5184   72.5000  227.1096 H   0  0  0  0  0  0  0  0  0  0  0  0
  140.9226   79.0770  220.6408 H   0  0  0  0  0  0  0  0  0  0  0  0
  138.6156   79.6248  220.8149 H   0  0  0  0  0  0  0  0  0  0  0  0
  138.5199   78.5313  219.4645 H   0  0  0  0  0  0  0  0  0  0  0  0
  137.9340   76.5979  220.9836 H   0  0  0  0  0  0  0  0  0  0  0  0
  136.5050   78.6270  221.0290 H   0  0  0  0  0  0  0  0  0  0  0  0
  138.7666   78.5718  223.2315 H   0  0  0  0  0  0  0  0  0  0  0  0
  138.8133   76.8101  223.3292 H   0  0  0  0  0  0  0  0  0  0  0  0
  141.7563   77.7853  223.5828 H   0  0  0  0  0  0  0  0  0  0  0  0
  142.8941   78.5812  221.6395 H   0  0  0  0  0  0  0  0  0  0  0  0
  141.6498   79.8168  221.3143 H   0  0  0  0  0  0  0  0  0  0  0  0
  143.1950   79.7499  223.9746 H   0  0  0  0  0  0  0  0  0  0  0  0
  143.8502   80.6103  222.5737 H   0  0  0  0  0  0  0  0  0  0  0  0
  142.2501   81.9035  224.2184 H   0  0  0  0  0  0  0  0  0  0  0  0
  141.9686   82.0682  222.4411 H   0  0  0  0  0  0  0  0  0  0  0  0
  140.0590   81.4648  224.2372 H   0  0  0  0  0  0  0  0  0  0  0  0
  140.0789   80.9413  222.4774 H   0  0  0  0  0  0  0  0  0  0  0  0
  140.8933   79.3112  224.8762 H   0  0  0  0  0  0  0  0  0  0  0  0
  139.4084   79.1359  223.8233 H   0  0  0  0  0  0  0  0  0  0  0  0
  1  2  1  0
  2  3  1  0
  3  4  1  0
  4  5  1  0
  5  6  1  0
  6  7  2  0
  6  8  1  0
  8  9  2  0
  9 10  1  0
 10 11  2  0
 11 12  1  0
 12 13  2  0
 13 14  1  0
 13 15  1  0
 15 16  2  0
 16 17  1  0
 17 18  2  0
  2 19  1  0
 19 20  2  0
 19 21  1  0
 21 22  1  0
 22 23  1  0
 23 24  1  0
 23 25  1  0
 25 26  1  0
 26 27  1  0
 27 28  1  0
 28 29  1  0
 29 30  1  0
 30 31  1  0
 31 32  1  0
 18  8  1  0
 26 21  1  0
 32 27  1  0
 17 11  1  0
  1 33  1  0
  1 34  1  0
  1 35  1  0
  3 36  1  0
  3 37  1  0
  4 38  1  0
  4 39  1  0
  5 40  1  0
  9 41  1  0
 10 42  1  0
 12 43  1  0
 15 44  1  0
 16 45  1  0
 21 46  1  1
 22 47  1  0
 22 48  1  0
 23 49  1  6
 24 50  1  0
 25 51  1  0
 25 52  1  0
 27 53  1  0
 28 54  1  0
 28 55  1  0
 29 56  1  0
 29 57  1  0
 30 58  1  0
 30 59  1  0
 31 60  1  0
 31 61  1  0
 32 62  1  0
 32 63  1  0
M  END
>  <smiles>  (27) 
CN(CCNC(=O)c1ccc2cc(F)ccc2n1)C(=O)[C@H]1C[C@H](O)CN1C1CCCCC1

>  <score_type>  (27) 
oracle

>  <origin>  (27) 
autodockgpu

>  <m_score__min__energy>  (27) 
-8.6799999999999997

>  <m_primary>  (27) 
energy

>  <rmsd>  (27) 
9.66309001159914

>  <m_score__min__rmsd>  (27) 
9.66309001159914

>  <meeko>  (27) 
{"free_energy": -8.27, "intermolecular_energy": -10.66, "internal_energy": -1.89, "cluster_size": 13, "cluster_id": 1, "rank_in_cluster": 7}

>  <energy>  (27) 
-7.94

>  <cluster_rmsd>  (27) 
1.6

>  <cluster>  (27) 
2

$$$$

     RDKit          3D

 63 66  0  0  0  0  0  0  0  0999 V2000
  137.8920   76.0050  222.7210 C   0  0  0  0  0  0  0  0  0  0  0  0
  138.7120   75.3310  221.7130 N   0  0  0  0  0  0  0  0  0  0  0  0
  138.0210   74.6970  220.6280 C   0  0  0  0  0  0  0  0  0  0  0  0
  137.8090   73.2140  220.8760 C   0  0  0  0  0  0  0  0  0  0  0  0
  138.4360   72.7430  222.0850 N   0  0  0  0  0  0  0  0  0  0  0  0
  138.6980   71.3740  222.3630 C   0  0  0  0  0  0  0  0  0  0  0  0
  138.3960   70.4750  221.5600 O   0  0  0  0  0  0  0  0  0  0  0  0
  139.3440   70.9940  223.6320 C   0  0  0  0  0  0  0  0  0  0  0  0
  140.2440   71.8350  224.2450 C   0  0  0  0  0  0  0  0  0  0  0  0
  140.8590   71.4930  225.4370 C   0  0  0  0  0  0  0  0  0  0  0  0
  140.5370   70.2760  225.9870 C   0  0  0  0  0  0  0  0  0  0  0  0
  141.1040   69.8420  227.1860 C   0  0  0  0  0  0  0  0  0  0  0  0
  140.7520   68.6080  227.7060 C   0  0  0  0  0  0  0  0  0  0  0  0
  141.3120   68.1990  228.8720 F   0  0  0  0  0  0  0  0  0  0  0  0
  139.8560   67.7710  227.0940 C   0  0  0  0  0  0  0  0  0  0  0  0
  139.2870   68.1970  225.9020 C   0  0  0  0  0  0  0  0  0  0  0  0
  139.6340   69.4250  225.3770 C   0  0  0  0  0  0  0  0  0  0  0  0
  139.0690   69.8090  224.2240 N   0  0  0  0  0  0  0  0  0  0  0  0
  140.1080   75.3540  221.9120 C   0  0  0  0  0  0  0  0  0  0  0  0
  140.6500   74.2800  222.3060 O   0  0  0  0  0  0  0  0  0  0  0  0
  140.9840   76.5300  221.6950 C   0  0  1  0  0  0  0  0  0  0  0  0
  141.8580   76.3170  220.4770 C   0  0  0  0  0  0  0  0  0  0  0  0
  140.9660   76.8800  219.3620 C   0  0  2  0  0  0  0  0  0  0  0  0
  141.6800   77.2420  218.2410 O   0  0  0  0  0  0  0  0  0  0  0  0
  140.4400   78.1150  220.0640 C   0  0  0  0  0  0  0  0  0  0  0  0
  140.1590   77.6900  221.4080 N   0  0  0  0  0  0  0  0  0  0  0  0
  140.4070   78.7440  222.3760 C   0  0  0  0  0  0  0  0  0  0  0  0
  141.4830   78.3520  223.3510 C   0  0  0  0  0  0  0  0  0  0  0  0
  141.8270   79.5910  224.1900 C   0  0  0  0  0  0  0  0  0  0  0  0
  142.6820   80.4670  223.2980 C   0  0  0  0  0  0  0  0  0  0  0  0
  142.1870   80.4400  221.8910 C   0  0  0  0  0  0  0  0  0  0  0  0
  140.7420   80.0490  221.7420 C   0  0  0  0  0  0  0  0  0  0  0  0
  138.2383   75.7204  223.7255 H   0  0  0  0  0  0  0  0  0  0  0  0
  137.9810   77.0944  222.5975 H   0  0  0  0  0  0  0  0  0  0  0  0
  136.8404   75.7067  222.5975 H   0  0  0  0  0  0  0  0  0  0  0  0
  137.0405   75.1794  220.5015 H   0  0  0  0  0  0  0  0  0  0  0  0
  138.6379   74.8049  219.7237 H   0  0  0  0  0  0  0  0  0  0  0  0
  136.7280   73.0227  220.9459 H   0  0  0  0  0  0  0  0  0  0  0  0
  138.2721   72.6739  220.0371 H   0  0  0  0  0  0  0  0  0  0  0  0
  138.7380   73.4250  222.8460 H   0  0  0  0  0  0  0  0  0  0  0  0
  140.4804   72.8019  223.7768 H   0  0  0  0  0  0  0  0  0  0  0  0
  141.5770   72.1688  225.9245 H   0  0  0  0  0  0  0  0  0  0  0  0
  141.8281   70.4781  227.7162 H   0  0  0  0  0  0  0  0  0  0  0  0
  139.5969   66.7958  227.5321 H   0  0  0  0  0  0  0  0  0  0  0  0
  138.5617   67.5577  225.3774 H   0  0  0  0  0  0  0  0  0  0  0  0
  141.5973   76.6725  222.5970 H   0  0  0  0  0  0  0  0  0  0  0  0
  142.8025   76.8751  220.5570 H   0  0  0  0  0  0  0  0  0  0  0  0
  142.1664   75.2726  220.3219 H   0  0  0  0  0  0  0  0  0  0  0  0
  140.2148   76.1697  218.9864 H   0  0  0  0  0  0  0  0  0  0  0  0
  142.4910   77.7380  218.5520 H   0  0  0  0  0  0  0  0  0  0  0  0
  141.1973   78.9128  220.0615 H   0  0  0  0  0  0  0  0  0  0  0  0
  139.5486   78.5242  219.5660 H   0  0  0  0  0  0  0  0  0  0  0  0
  139.4614   78.8791  222.9215 H   0  0  0  0  0  0  0  0  0  0  0  0
  141.1200   77.5456  224.0052 H   0  0  0  0  0  0  0  0  0  0  0  0
  142.3735   77.9893  222.8166 H   0  0  0  0  0  0  0  0  0  0  0  0
  140.9095   80.1223  224.4831 H   0  0  0  0  0  0  0  0  0  0  0  0
  142.3536   79.3197  225.1169 H   0  0  0  0  0  0  0  0  0  0  0  0
  142.6494   81.5012  223.6712 H   0  0  0  0  0  0  0  0  0  0  0  0
  143.7131   80.0842  223.3146 H   0  0  0  0  0  0  0  0  0  0  0  0
  142.3163   81.4449  221.4626 H   0  0  0  0  0  0  0  0  0  0  0  0
  142.7735   79.6693  221.3693 H   0  0  0  0  0  0  0  0  0  0  0  0
  140.1213   80.8299  222.2056 H   0  0  0  0  0  0  0  0  0  0  0  0
  140.5470   79.9427  220.6647 H   0  0  0  0  0  0  0  0  0  0  0  0
  1  2  1  0
  2  3  1  0
  3  4  1  0
  4  5  1  0
  5  6  1  0
  6  7  2  0
  6  8  1  0
  8  9  2  0
  9 10  1  0
 10 11  2  0
 11 12  1  0
 12 13  2  0
 13 14  1  0
 13 15  1  0
 15 16  2  0
 16 17  1  0
 17 18  2  0
  2 19  1  0
 19 20  2  0
 19 21  1  0
 21 22  1  0
 22 23  1  0
 23 24  1  0
 23 25  1  0
 25 26  1  0
 26 27  1  0
 27 28  1  0
 28 29  1  0
 29 30  1  0
 30 31  1  0
 31 32  1  0
 18  8  1  0
 26 21  1  0
 32 27  1  0
 17 11  1  0
  1 33  1  0
  1 34  1  0
  1 35  1  0
  3 36  1  0
  3 37  1  0
  4 38  1  0
  4 39  1  0
  5 40  1  0
  9 41  1  0
 10 42  1  0
 12 43  1  0
 15 44  1  0
 16 45  1  0
 21 46  1  1
 22 47  1  0
 22 48  1  0
 23 49  1  6
 24 50  1  0
 25 51  1  0
 25 52  1  0
 27 53  1  0
 28 54  1  0
 28 55  1  0
 29 56  1  0
 29 57  1  0
 30 58  1  0
 30 59  1  0
 31 60  1  0
 31 61  1  0
 32 62  1  0
 32 63  1  0
M  END
>  <smiles>  (28) 
CN(CCNC(=O)c1ccc2cc(F)ccc2n1)C(=O)[C@H]1C[C@H](O)CN1C1CCCCC1

>  <score_type>  (28) 
oracle

>  <origin>  (28) 
autodockgpu

>  <m_score__min__energy>  (28) 
-8.6799999999999997

>  <m_primary>  (28) 
energy

>  <rmsd>  (28) 
9.485397147662457

>  <m_score__min__rmsd>  (28) 
9.485397147662457

>  <meeko>  (28) 
{"free_energy": -8.32, "intermolecular_energy": -10.71, "internal_energy": -2.57, "cluster_size": 21, "cluster_id": 2, "rank_in_cluster": 8}

>  <energy>  (28) 
-7.9

>  <cluster_rmsd>  (28) 
1.91

>  <cluster>  (28) 
2

$$$$

     RDKit          3D

 63 66  0  0  0  0  0  0  0  0999 V2000
  139.1560   75.2030  218.5840 C   0  0  0  0  0  0  0  0  0  0  0  0
  140.3310   75.4700  219.4150 N   0  0  0  0  0  0  0  0  0  0  0  0
  140.2870   75.0090  220.7730 C   0  0  0  0  0  0  0  0  0  0  0  0
  138.9470   74.3840  221.1190 C   0  0  0  0  0  0  0  0  0  0  0  0
  139.0170   73.4570  222.2200 N   0  0  0  0  0  0  0  0  0  0  0  0
  139.9170   72.3580  222.2760 C   0  0  0  0  0  0  0  0  0  0  0  0
  140.7200   72.1230  221.3570 O   0  0  0  0  0  0  0  0  0  0  0  0
  139.9110   71.4650  223.4490 C   0  0  0  0  0  0  0  0  0  0  0  0
  139.4160   70.1850  223.3590 C   0  0  0  0  0  0  0  0  0  0  0  0
  139.4040   69.3340  224.4510 C   0  0  0  0  0  0  0  0  0  0  0  0
  139.9070   69.8190  225.6340 C   0  0  0  0  0  0  0  0  0  0  0  0
  139.9380   69.0370  226.7900 C   0  0  0  0  0  0  0  0  0  0  0  0
  140.4540   69.5650  227.9620 C   0  0  0  0  0  0  0  0  0  0  0  0
  140.4770   68.7930  229.0780 F   0  0  0  0  0  0  0  0  0  0  0  0
  140.9470   70.8400  228.0510 C   0  0  0  0  0  0  0  0  0  0  0  0
  140.9200   71.6220  226.9040 C   0  0  0  0  0  0  0  0  0  0  0  0
  140.4070   71.1040  225.7330 C   0  0  0  0  0  0  0  0  0  0  0  0
  140.3930   71.8830  224.6430 N   0  0  0  0  0  0  0  0  0  0  0  0
  141.3920   76.1730  218.8070 C   0  0  0  0  0  0  0  0  0  0  0  0
  141.6870   75.8530  217.6190 O   0  0  0  0  0  0  0  0  0  0  0  0
  142.1820   77.2500  219.4490 C   0  0  1  0  0  0  0  0  0  0  0  0
  142.9480   78.0350  218.4040 C   0  0  0  0  0  0  0  0  0  0  0  0
  141.9270   79.1190  218.0320 C   0  0  2  0  0  0  0  0  0  0  0  0
  142.5130   80.2290  217.4650 O   0  0  0  0  0  0  0  0  0  0  0  0
  141.4070   79.4560  219.4140 C   0  0  0  0  0  0  0  0  0  0  0  0
  141.2760   78.1910  220.0830 N   0  0  0  0  0  0  0  0  0  0  0  0
  141.5600   78.2930  221.5040 C   0  0  0  0  0  0  0  0  0  0  0  0
  142.1490   79.6330  221.8510 C   0  0  0  0  0  0  0  0  0  0  0  0
  142.2130   79.7330  223.3810 C   0  0  0  0  0  0  0  0  0  0  0  0
  140.7970   80.0190  223.8360 C   0  0  0  0  0  0  0  0  0  0  0  0
  139.8110   79.2480  223.0230 C   0  0  0  0  0  0  0  0  0  0  0  0
  140.3700   78.0220  222.3570 C   0  0  0  0  0  0  0  0  0  0  0  0
  138.2875   75.0057  219.2296 H   0  0  0  0  0  0  0  0  0  0  0  0
  138.9497   76.0772  217.9490 H   0  0  0  0  0  0  0  0  0  0  0  0
  139.3478   74.3255  217.9490 H   0  0  0  0  0  0  0  0  0  0  0  0
  141.0773   74.2579  220.9187 H   0  0  0  0  0  0  0  0  0  0  0  0
  140.4367   75.8774  221.4314 H   0  0  0  0  0  0  0  0  0  0  0  0
  138.2448   75.1882  221.3840 H   0  0  0  0  0  0  0  0  0  0  0  0
  138.6148   73.8171  220.2368 H   0  0  0  0  0  0  0  0  0  0  0  0
  138.3760   73.5610  223.0640 H   0  0  0  0  0  0  0  0  0  0  0  0
  139.0202   69.8289  222.3964 H   0  0  0  0  0  0  0  0  0  0  0  0
  139.0077   68.3107  224.3746 H   0  0  0  0  0  0  0  0  0  0  0  0
  139.5544   68.0062  226.7702 H   0  0  0  0  0  0  0  0  0  0  0  0
  141.3499   71.2303  228.9972 H   0  0  0  0  0  0  0  0  0  0  0  0
  141.3065   72.6515  226.9291 H   0  0  0  0  0  0  0  0  0  0  0  0
  142.8688   76.7866  220.1726 H   0  0  0  0  0  0  0  0  0  0  0  0
  143.8659   78.4734  218.8227 H   0  0  0  0  0  0  0  0  0  0  0  0
  143.2941   77.4315  217.5520 H   0  0  0  0  0  0  0  0  0  0  0  0
  141.1811   78.7974  217.2902 H   0  0  0  0  0  0  0  0  0  0  0  0
  143.4070   79.9490  217.1170 H   0  0  0  0  0  0  0  0  0  0  0  0
  142.1189   80.1031  219.9474 H   0  0  0  0  0  0  0  0  0  0  0  0
  140.4529   80.0019  219.3737 H   0  0  0  0  0  0  0  0  0  0  0  0
  142.3008   77.5087  221.7185 H   0  0  0  0  0  0  0  0  0  0  0  0
  143.1606   79.7185  221.4274 H   0  0  0  0  0  0  0  0  0  0  0  0
  141.5312   80.4439  221.4376 H   0  0  0  0  0  0  0  0  0  0  0  0
  142.5698   78.7860  223.8121 H   0  0  0  0  0  0  0  0  0  0  0  0
  142.9093   80.5200  223.7063 H   0  0  0  0  0  0  0  0  0  0  0  0
  140.6937   79.7335  224.8933 H   0  0  0  0  0  0  0  0  0  0  0  0
  140.5962   81.0928  223.7069 H   0  0  0  0  0  0  0  0  0  0  0  0
  138.9908   78.9345  223.6856 H   0  0  0  0  0  0  0  0  0  0  0  0
  139.4818   79.9182  222.2153 H   0  0  0  0  0  0  0  0  0  0  0  0
  140.6593   77.3039  223.1384 H   0  0  0  0  0  0  0  0  0  0  0  0
  139.5837   77.6292  221.6956 H   0  0  0  0  0  0  0  0  0  0  0  0
  1  2  1  0
  2  3  1  0
  3  4  1  0
  4  5  1  0
  5  6  1  0
  6  7  2  0
  6  8  1  0
  8  9  2  0
  9 10  1  0
 10 11  2  0
 11 12  1  0
 12 13  2  0
 13 14  1  0
 13 15  1  0
 15 16  2  0
 16 17  1  0
 17 18  2  0
  2 19  1  0
 19 20  2  0
 19 21  1  0
 21 22  1  0
 22 23  1  0
 23 24  1  0
 23 25  1  0
 25 26  1  0
 26 27  1  0
 27 28  1  0
 28 29  1  0
 29 30  1  0
 30 31  1  0
 31 32  1  0
 18  8  1  0
 26 21  1  0
 32 27  1  0
 17 11  1  0
  1 33  1  0
  1 34  1  0
  1 35  1  0
  3 36  1  0
  3 37  1  0
  4 38  1  0
  4 39  1  0
  5 40  1  0
  9 41  1  0
 10 42  1  0
 12 43  1  0
 15 44  1  0
 16 45  1  0
 21 46  1  1
 22 47  1  0
 22 48  1  0
 23 49  1  6
 24 50  1  0
 25 51  1  0
 25 52  1  0
 27 53  1  0
 28 54  1  0
 28 55  1  0
 29 56  1  0
 29 57  1  0
 30 58  1  0
 30 59  1  0
 31 60  1  0
 31 61  1  0
 32 62  1  0
 32 63  1  0
M  END
>  <smiles>  (29) 
CN(CCNC(=O)c1ccc2cc(F)ccc2n1)C(=O)[C@H]1C[C@H](O)CN1C1CCCCC1

>  <score_type>  (29) 
oracle

>  <origin>  (29) 
autodockgpu

>  <m_score__min__energy>  (29) 
-8.6799999999999997

>  <m_primary>  (29) 
energy

>  <rmsd>  (29) 
9.340045271005378

>  <m_score__min__rmsd>  (29) 
9.340045271005378

>  <meeko>  (29) 
{"free_energy": -8.42, "intermolecular_energy": -10.8, "internal_energy": -1.66, "cluster_size": 21, "cluster_id": 2, "rank_in_cluster": 5}

>  <energy>  (29) 
-7.86

>  <cluster_rmsd>  (29) 
0.98

>  <cluster>  (29) 
2

$$$$

     RDKit          3D

 63 66  0  0  0  0  0  0  0  0999 V2000
  141.4060   74.9640  218.9540 C   0  0  0  0  0  0  0  0  0  0  0  0
  140.5120   74.7190  220.0860 N   0  0  0  0  0  0  0  0  0  0  0  0
  139.5480   73.6660  219.9390 C   0  0  0  0  0  0  0  0  0  0  0  0
  138.5100   73.6860  221.0460 C   0  0  0  0  0  0  0  0  0  0  0  0
  138.8870   72.9050  222.1960 N   0  0  0  0  0  0  0  0  0  0  0  0
  138.7040   71.4990  222.2980 C   0  0  0  0  0  0  0  0  0  0  0  0
  138.1940   70.8390  221.3770 O   0  0  0  0  0  0  0  0  0  0  0  0
  139.1250   70.7910  223.5200 C   0  0  0  0  0  0  0  0  0  0  0  0
  138.9010   69.4410  223.6660 C   0  0  0  0  0  0  0  0  0  0  0  0
  139.2910   68.7620  224.8080 C   0  0  0  0  0  0  0  0  0  0  0  0
  139.9120   69.4890  225.7940 C   0  0  0  0  0  0  0  0  0  0  0  0
  140.3420   68.8930  226.9800 C   0  0  0  0  0  0  0  0  0  0  0  0
  140.9640   69.6630  227.9490 C   0  0  0  0  0  0  0  0  0  0  0  0
  141.3760   69.0700  229.0980 F   0  0  0  0  0  0  0  0  0  0  0  0
  141.1870   71.0060  227.8020 C   0  0  0  0  0  0  0  0  0  0  0  0
  140.7620   71.6050  226.6240 C   0  0  0  0  0  0  0  0  0  0  0  0
  140.1410   70.8450  225.6550 C   0  0  0  0  0  0  0  0  0  0  0  0
  139.7420   71.4500  224.5270 N   0  0  0  0  0  0  0  0  0  0  0  0
  140.6690   75.5530  221.2110 C   0  0  0  0  0  0  0  0  0  0  0  0
  140.6920   74.9910  222.3450 O   0  0  0  0  0  0  0  0  0  0  0  0
  140.8100   77.0280  221.1690 C   0  0  1  0  0  0  0  0  0  0  0  0
  140.0620   77.5940  219.9790 C   0  0  0  0  0  0  0  0  0  0  0  0
  138.6700   77.8270  220.5810 C   0  0  2  0  0  0  0  0  0  0  0  0
  137.9350   78.7550  219.8770 O   0  0  0  0  0  0  0  0  0  0  0  0
  139.0720   78.3970  221.9250 C   0  0  0  0  0  0  0  0  0  0  0  0
  140.1900   77.5990  222.3500 N   0  0  0  0  0  0  0  0  0  0  0  0
  141.1560   78.3740  223.1090 C   0  0  0  0  0  0  0  0  0  0  0  0
  142.1760   79.0150  222.2080 C   0  0  0  0  0  0  0  0  0  0  0  0
  143.0130   79.9770  223.0610 C   0  0  0  0  0  0  0  0  0  0  0  0
  142.1470   81.2010  223.2740 C   0  0  0  0  0  0  0  0  0  0  0  0
  140.7210   80.8130  223.4890 C   0  0  0  0  0  0  0  0  0  0  0  0
  140.5220   79.4050  223.9770 C   0  0  0  0  0  0  0  0  0  0  0  0
  142.4039   75.2375  219.3274 H   0  0  0  0  0  0  0  0  0  0  0  0
  141.4805   74.0532  218.3418 H   0  0  0  0  0  0  0  0  0  0  0  0
  141.0057   75.7856  218.3418 H   0  0  0  0  0  0  0  0  0  0  0  0
  139.0378   73.7843  218.9717 H   0  0  0  0  0  0  0  0  0  0  0  0
  140.0828   72.7062  219.9924 H   0  0  0  0  0  0  0  0  0  0  0  0
  138.3606   74.7279  221.3655 H   0  0  0  0  0  0  0  0  0  0  0  0
  137.5905   73.2412  220.6379 H   0  0  0  0  0  0  0  0  0  0  0  0
  139.3340   73.3650  223.0470 H   0  0  0  0  0  0  0  0  0  0  0  0
  138.4007   68.8887  222.8569 H   0  0  0  0  0  0  0  0  0  0  0  0
  139.1106   67.6828  224.9211 H   0  0  0  0  0  0  0  0  0  0  0  0
  140.1877   67.8164  227.1448 H   0  0  0  0  0  0  0  0  0  0  0  0
  141.6855   71.5898  228.5898 H   0  0  0  0  0  0  0  0  0  0  0  0
  140.9199   72.6818  226.4640 H   0  0  0  0  0  0  0  0  0  0  0  0
  141.8817   77.2685  221.1090 H   0  0  0  0  0  0  0  0  0  0  0  0
  140.5127   78.5351  219.6308 H   0  0  0  0  0  0  0  0  0  0  0  0
  140.0660   76.9419  219.0931 H   0  0  0  0  0  0  0  0  0  0  0  0
  138.0324   76.9307  220.5968 H   0  0  0  0  0  0  0  0  0  0  0  0
  138.5050   79.5690  219.7720 H   0  0  0  0  0  0  0  0  0  0  0  0
  139.3664   79.4521  221.8247 H   0  0  0  0  0  0  0  0  0  0  0  0
  138.2450   78.3675  222.6497 H   0  0  0  0  0  0  0  0  0  0  0  0
  141.6628   77.6559  223.7705 H   0  0  0  0  0  0  0  0  0  0  0  0
  142.8247   78.2433  221.7679 H   0  0  0  0  0  0  0  0  0  0  0  0
  141.6802   79.5577  221.3896 H   0  0  0  0  0  0  0  0  0  0  0  0
  143.2643   79.5131  224.0262 H   0  0  0  0  0  0  0  0  0  0  0  0
  143.9620   80.2338  222.5677 H   0  0  0  0  0  0  0  0  0  0  0  0
  142.5084   81.7488  224.1568 H   0  0  0  0  0  0  0  0  0  0  0  0
  142.2077   81.8352  222.3773 H   0  0  0  0  0  0  0  0  0  0  0  0
  140.2874   81.4982  224.2323 H   0  0  0  0  0  0  0  0  0  0  0  0
  140.2297   80.8748  222.5067 H   0  0  0  0  0  0  0  0  0  0  0  0
  140.9538   79.3229  224.9854 H   0  0  0  0  0  0  0  0  0  0  0  0
  139.4392   79.2117  223.9664 H   0  0  0  0  0  0  0  0  0  0  0  0
  1  2  1  0
  2  3  1  0
  3  4  1  0
  4  5  1  0
  5  6  1  0
  6  7  2  0
  6  8  1  0
  8  9  2  0
  9 10  1  0
 10 11  2  0
 11 12  1  0
 12 13  2  0
 13 14  1  0
 13 15  1  0
 15 16  2  0
 16 17  1  0
 17 18  2  0
  2 19  1  0
 19 20  2  0
 19 21  1  0
 21 22  1  0
 22 23  1  0
 23 24  1  0
 23 25  1  0
 25 26  1  0
 26 27  1  0
 27 28  1  0
 28 29  1  0
 29 30  1  0
 30 31  1  0
 31 32  1  0
 18  8  1  0
 26 21  1  0
 32 27  1  0
 17 11  1  0
  1 33  1  0
  1 34  1  0
  1 35  1  0
  3 36  1  0
  3 37  1  0
  4 38  1  0
  4 39  1  0
  5 40  1  0
  9 41  1  0
 10 42  1  0
 12 43  1  0
 15 44  1  0
 16 45  1  0
 21 46  1  6
 22 47  1  0
 22 48  1  0
 23 49  1  1
 24 50  1  0
 25 51  1  0
 25 52  1  0
 27 53  1  0
 28 54  1  0
 28 55  1  0
 29 56  1  0
 29 57  1  0
 30 58  1  0
 30 59  1  0
 31 60  1  0
 31 61  1  0
 32 62  1  0
 32 63  1  0
M  END
>  <smiles>  (30) 
CN(CCNC(=O)c1ccc2cc(F)ccc2n1)C(=O)[C@H]1C[C@H](O)CN1C1CCCCC1

>  <score_type>  (30) 
oracle

>  <origin>  (30) 
autodockgpu

>  <m_score__min__energy>  (30) 
-8.6799999999999997

>  <m_primary>  (30) 
energy

>  <rmsd>  (30) 
9.87684662151544

>  <m_score__min__rmsd>  (30) 
9.87684662151544

>  <meeko>  (30) 
{"free_energy": -7.9, "intermolecular_energy": -10.29, "internal_energy": -2.46, "cluster_size": 13, "cluster_id": 1, "rank_in_cluster": 11}

>  <energy>  (30) 
-7.82

>  <cluster_rmsd>  (30) 
0.91

>  <cluster>  (30) 
2

$$$$

     RDKit          3D

 63 66  0  0  0  0  0  0  0  0999 V2000
  141.7740   75.5900  220.1040 C   0  0  0  0  0  0  0  0  0  0  0  0
  140.4590   75.2720  220.6630 N   0  0  0  0  0  0  0  0  0  0  0  0
  139.7660   74.1490  220.1000 C   0  0  0  0  0  0  0  0  0  0  0  0
  138.5570   73.7520  220.9280 C   0  0  0  0  0  0  0  0  0  0  0  0
  138.8940   72.9760  222.0940 N   0  0  0  0  0  0  0  0  0  0  0  0
  138.9370   71.5550  222.1170 C   0  0  0  0  0  0  0  0  0  0  0  0
  138.6800   70.8770  221.1080 O   0  0  0  0  0  0  0  0  0  0  0  0
  139.2940   70.8530  223.3630 C   0  0  0  0  0  0  0  0  0  0  0  0
  139.0870   69.4990  223.4940 C   0  0  0  0  0  0  0  0  0  0  0  0
  139.4170   68.8250  224.6570 C   0  0  0  0  0  0  0  0  0  0  0  0
  139.9620   69.5610  225.6810 C   0  0  0  0  0  0  0  0  0  0  0  0
  140.3280   68.9720  226.8920 C   0  0  0  0  0  0  0  0  0  0  0  0
  140.8750   69.7510  227.8980 C   0  0  0  0  0  0  0  0  0  0  0  0
  141.2250   69.1640  229.0690 F   0  0  0  0  0  0  0  0  0  0  0  0
  141.0810   71.0990  227.7660 C   0  0  0  0  0  0  0  0  0  0  0  0
  140.7200   71.6910  226.5630 C   0  0  0  0  0  0  0  0  0  0  0  0
  140.1740   70.9210  225.5570 C   0  0  0  0  0  0  0  0  0  0  0  0
  139.8350   71.5210  224.4070 N   0  0  0  0  0  0  0  0  0  0  0  0
  139.9870   76.1130  221.6920 C   0  0  0  0  0  0  0  0  0  0  0  0
  139.5920   75.5520  222.7560 O   0  0  0  0  0  0  0  0  0  0  0  0
  139.9190   77.5920  221.6240 C   0  0  1  0  0  0  0  0  0  0  0  0
  138.8650   78.0250  220.6250 C   0  0  0  0  0  0  0  0  0  0  0  0
  137.6160   78.0910  221.5130 C   0  0  2  0  0  0  0  0  0  0  0  0
  136.6310   78.8960  220.9860 O   0  0  0  0  0  0  0  0  0  0  0  0
  138.2170   78.7420  222.7410 C   0  0  0  0  0  0  0  0  0  0  0  0
  139.4950   78.1080  222.9130 N   0  0  0  0  0  0  0  0  0  0  0  0
  140.4900   79.0210  223.4480 C   0  0  0  0  0  0  0  0  0  0  0  0
  141.7940   78.9080  222.7090 C   0  0  0  0  0  0  0  0  0  0  0  0
  142.7050   80.0450  223.1910 C   0  0  0  0  0  0  0  0  0  0  0  0
  142.2000   81.2970  222.5030 C   0  0  0  0  0  0  0  0  0  0  0  0
  140.7090   81.3030  222.4360 C   0  0  0  0  0  0  0  0  0  0  0  0
  140.0310   80.4380  223.4620 C   0  0  0  0  0  0  0  0  0  0  0  0
  142.4883   75.7627  220.9225 H   0  0  0  0  0  0  0  0  0  0  0  0
  142.1220   74.7501  219.4847 H   0  0  0  0  0  0  0  0  0  0  0  0
  141.6998   76.4961  219.4847 H   0  0  0  0  0  0  0  0  0  0  0  0
  139.4309   74.4109  219.0855 H   0  0  0  0  0  0  0  0  0  0  0  0
  140.4602   73.2959  220.0825 H   0  0  0  0  0  0  0  0  0  0  0  0
  138.0420   74.6674  221.2549 H   0  0  0  0  0  0  0  0  0  0  0  0
  137.9189   73.1219  220.2909 H   0  0  0  0  0  0  0  0  0  0  0  0
  139.1330   73.4510  223.0170 H   0  0  0  0  0  0  0  0  0  0  0  0
  138.6489   68.9390  222.6547 H   0  0  0  0  0  0  0  0  0  0  0  0
  139.2495   67.7425  224.7574 H   0  0  0  0  0  0  0  0  0  0  0  0
  140.1826   67.8927  227.0470 H   0  0  0  0  0  0  0  0  0  0  0  0
  141.5169   71.6913  228.5840 H   0  0  0  0  0  0  0  0  0  0  0  0
  140.8689   72.7705  226.4126 H   0  0  0  0  0  0  0  0  0  0  0  0
  140.9115   77.9679  221.3347 H   0  0  0  0  0  0  0  0  0  0  0  0
  139.1020   79.0072  220.1902 H   0  0  0  0  0  0  0  0  0  0  0  0
  138.7654   77.3559  219.7576 H   0  0  0  0  0  0  0  0  0  0  0  0
  137.1207   77.1204  221.6635 H   0  0  0  0  0  0  0  0  0  0  0  0
  136.7470   79.8070  221.3830 H   0  0  0  0  0  0  0  0  0  0  0  0
  138.3405   79.8236  222.5834 H   0  0  0  0  0  0  0  0  0  0  0  0
  137.5753   78.6230  223.6265 H   0  0  0  0  0  0  0  0  0  0  0  0
  140.6444   78.7167  224.4937 H   0  0  0  0  0  0  0  0  0  0  0  0
  142.2628   77.9362  222.9233 H   0  0  0  0  0  0  0  0  0  0  0  0
  141.6289   78.9810  221.6239 H   0  0  0  0  0  0  0  0  0  0  0  0
  142.6366   80.1539  224.2834 H   0  0  0  0  0  0  0  0  0  0  0  0
  143.7603   79.8482  222.9509 H   0  0  0  0  0  0  0  0  0  0  0  0
  142.5388   82.1791  223.0662 H   0  0  0  0  0  0  0  0  0  0  0  0
  142.5981   81.3197  221.4778 H   0  0  0  0  0  0  0  0  0  0  0  0
  140.3637   82.3377  222.5779 H   0  0  0  0  0  0  0  0  0  0  0  0
  140.4403   80.8883  221.4532 H   0  0  0  0  0  0  0  0  0  0  0  0
  140.2323   80.8584  224.4584 H   0  0  0  0  0  0  0  0  0  0  0  0
  138.9584   80.4309  223.2184 H   0  0  0  0  0  0  0  0  0  0  0  0
  1  2  1  0
  2  3  1  0
  3  4  1  0
  4  5  1  0
  5  6  1  0
  6  7  2  0
  6  8  1  0
  8  9  2  0
  9 10  1  0
 10 11  2  0
 11 12  1  0
 12 13  2  0
 13 14  1  0
 13 15  1  0
 15 16  2  0
 16 17  1  0
 17 18  2  0
  2 19  1  0
 19 20  2  0
 19 21  1  0
 21 22  1  0
 22 23  1  0
 23 24  1  0
 23 25  1  0
 25 26  1  0
 26 27  1  0
 27 28  1  0
 28 29  1  0
 29 30  1  0
 30 31  1  0
 31 32  1  0
 18  8  1  0
 26 21  1  0
 32 27  1  0
 17 11  1  0
  1 33  1  0
  1 34  1  0
  1 35  1  0
  3 36  1  0
  3 37  1  0
  4 38  1  0
  4 39  1  0
  5 40  1  0
  9 41  1  0
 10 42  1  0
 12 43  1  0
 15 44  1  0
 16 45  1  0
 21 46  1  6
 22 47  1  0
 22 48  1  0
 23 49  1  1
 24 50  1  0
 25 51  1  0
 25 52  1  0
 27 53  1  0
 28 54  1  0
 28 55  1  0
 29 56  1  0
 29 57  1  0
 30 58  1  0
 30 59  1  0
 31 60  1  0
 31 61  1  0
 32 62  1  0
 32 63  1  0
M  END
>  <smiles>  (31) 
CN(CCNC(=O)c1ccc2cc(F)ccc2n1)C(=O)[C@H]1C[C@H](O)CN1C1CCCCC1

>  <score_type>  (31) 
oracle

>  <origin>  (31) 
autodockgpu

>  <m_score__min__energy>  (31) 
-8.6799999999999997

>  <m_primary>  (31) 
energy

>  <rmsd>  (31) 
10.026874782034652

>  <m_score__min__rmsd>  (31) 
10.026874782034652

>  <meeko>  (31) 
{"free_energy": -7.82, "intermolecular_energy": -10.21, "internal_energy": -2.58, "cluster_size": 13, "cluster_id": 1, "rank_in_cluster": 12}

>  <energy>  (31) 
-7.81

>  <cluster_rmsd>  (31) 
1.63

>  <cluster>  (31) 
2

$$$$

     RDKit          3D

 63 66  0  0  0  0  0  0  0  0999 V2000
  140.7010   73.6950  219.7410 C   0  0  0  0  0  0  0  0  0  0  0  0
  139.4090   74.1170  220.2840 N   0  0  0  0  0  0  0  0  0  0  0  0
  138.2410   73.4610  219.7700 C   0  0  0  0  0  0  0  0  0  0  0  0
  137.3430   72.9430  220.8790 C   0  0  0  0  0  0  0  0  0  0  0  0
  138.0670   72.5440  222.0590 N   0  0  0  0  0  0  0  0  0  0  0  0
  138.2970   71.1920  222.4320 C   0  0  0  0  0  0  0  0  0  0  0  0
  137.8770   70.2450  221.7450 O   0  0  0  0  0  0  0  0  0  0  0  0
  139.0510   70.8880  223.6610 C   0  0  0  0  0  0  0  0  0  0  0  0
  139.9950   71.7640  224.1450 C   0  0  0  0  0  0  0  0  0  0  0  0
  140.7110   71.4930  225.2980 C   0  0  0  0  0  0  0  0  0  0  0  0
  140.4430   70.3110  225.9440 C   0  0  0  0  0  0  0  0  0  0  0  0
  141.1120   69.9490  227.1150 C   0  0  0  0  0  0  0  0  0  0  0  0
  140.8110   68.7480  227.7350 C   0  0  0  0  0  0  0  0  0  0  0  0
  141.4700   68.4100  228.8710 F   0  0  0  0  0  0  0  0  0  0  0  0
  139.8710   67.8770  227.2530 C   0  0  0  0  0  0  0  0  0  0  0  0
  139.2010   68.2310  226.0900 C   0  0  0  0  0  0  0  0  0  0  0  0
  139.4960   69.4260  225.4660 C   0  0  0  0  0  0  0  0  0  0  0  0
  138.8330   69.7410  224.3440 N   0  0  0  0  0  0  0  0  0  0  0  0
  139.4310   75.1410  221.2530 C   0  0  0  0  0  0  0  0  0  0  0  0
  139.9290   74.8560  222.3800 O   0  0  0  0  0  0  0  0  0  0  0  0
  138.9210   76.5180  221.0510 C   0  0  1  0  0  0  0  0  0  0  0  0
  137.4570   76.4850  220.6610 C   0  0  0  0  0  0  0  0  0  0  0  0
  136.7770   76.5230  222.0350 C   0  0  2  0  0  0  0  0  0  0  0  0
  135.4760   76.9720  221.9730 O   0  0  0  0  0  0  0  0  0  0  0  0
  137.6500   77.5560  222.7180 C   0  0  0  0  0  0  0  0  0  0  0  0
  138.9910   77.2400  222.3090 N   0  0  0  0  0  0  0  0  0  0  0  0
  139.8130   78.4300  222.1690 C   0  0  0  0  0  0  0  0  0  0  0  0
  139.4290   79.4830  223.1710 C   0  0  0  0  0  0  0  0  0  0  0  0
  140.4770   80.6020  223.0970 C   0  0  0  0  0  0  0  0  0  0  0  0
  141.6950   80.0750  223.8250 C   0  0  0  0  0  0  0  0  0  0  0  0
  141.9030   78.6260  223.5370 C   0  0  0  0  0  0  0  0  0  0  0  0
  141.2710   78.1440  222.2600 C   0  0  0  0  0  0  0  0  0  0  0  0
  141.3904   73.4698  220.5680 H   0  0  0  0  0  0  0  0  0  0  0  0
  140.5630   72.7953  219.1234 H   0  0  0  0  0  0  0  0  0  0  0  0
  141.1207   74.5028  219.1234 H   0  0  0  0  0  0  0  0  0  0  0  0
  137.6724   74.1768  219.1582 H   0  0  0  0  0  0  0  0  0  0  0  0
  138.5719   72.5994  219.1715 H   0  0  0  0  0  0  0  0  0  0  0  0
  136.6356   73.7386  221.1558 H   0  0  0  0  0  0  0  0  0  0  0  0
  136.8312   72.0491  220.4930 H   0  0  0  0  0  0  0  0  0  0  0  0
  138.4730   73.2720  222.7230 H   0  0  0  0  0  0  0  0  0  0  0  0
  140.1852   72.7020  223.6028 H   0  0  0  0  0  0  0  0  0  0  0  0
  141.4647   72.1963  225.6817 H   0  0  0  0  0  0  0  0  0  0  0  0
  141.8752   70.6154  227.5433 H   0  0  0  0  0  0  0  0  0  0  0  0
  139.6544   66.9301  227.7692 H   0  0  0  0  0  0  0  0  0  0  0  0
  138.4376   67.5613  225.6672 H   0  0  0  0  0  0  0  0  0  0  0  0
  139.5255   76.9958  220.2659 H   0  0  0  0  0  0  0  0  0  0  0  0
  137.1830   77.3592  220.0521 H   0  0  0  0  0  0  0  0  0  0  0  0
  137.1755   75.6192  220.0437 H   0  0  0  0  0  0  0  0  0  0  0  0
  136.7018   75.5409  222.5248 H   0  0  0  0  0  0  0  0  0  0  0  0
  134.9840   76.5660  222.7430 H   0  0  0  0  0  0  0  0  0  0  0  0
  137.3755   78.5702  222.3923 H   0  0  0  0  0  0  0  0  0  0  0  0
  137.5361   77.5344  223.8119 H   0  0  0  0  0  0  0  0  0  0  0  0
  139.6183   78.8120  221.1560 H   0  0  0  0  0  0  0  0  0  0  0  0
  138.4340   79.8850  222.9293 H   0  0  0  0  0  0  0  0  0  0  0  0
  139.3925   79.0558  224.1840 H   0  0  0  0  0  0  0  0  0  0  0  0
  140.7245   80.8264  222.0489 H   0  0  0  0  0  0  0  0  0  0  0  0
  140.1068   81.5340  223.5491 H   0  0  0  0  0  0  0  0  0  0  0  0
  142.5816   80.6379  223.4977 H   0  0  0  0  0  0  0  0  0  0  0  0
  141.5383   80.1989  224.9067 H   0  0  0  0  0  0  0  0  0  0  0  0
  142.9855   78.4405  223.4753 H   0  0  0  0  0  0  0  0  0  0  0  0
  141.4161   78.0730  224.3537 H   0  0  0  0  0  0  0  0  0  0  0  0
  141.7750   78.6368  221.4155 H   0  0  0  0  0  0  0  0  0  0  0  0
  141.3862   77.0503  222.2371 H   0  0  0  0  0  0  0  0  0  0  0  0
  1  2  1  0
  2  3  1  0
  3  4  1  0
  4  5  1  0
  5  6  1  0
  6  7  2  0
  6  8  1  0
  8  9  2  0
  9 10  1  0
 10 11  2  0
 11 12  1  0
 12 13  2  0
 13 14  1  0
 13 15  1  0
 15 16  2  0
 16 17  1  0
 17 18  2  0
  2 19  1  0
 19 20  2  0
 19 21  1  0
 21 22  1  0
 22 23  1  0
 23 24  1  0
 23 25  1  0
 25 26  1  0
 26 27  1  0
 27 28  1  0
 28 29  1  0
 29 30  1  0
 30 31  1  0
 31 32  1  0
 18  8  1  0
 26 21  1  0
 32 27  1  0
 17 11  1  0
  1 33  1  0
  1 34  1  0
  1 35  1  0
  3 36  1  0
  3 37  1  0
  4 38  1  0
  4 39  1  0
  5 40  1  0
  9 41  1  0
 10 42  1  0
 12 43  1  0
 15 44  1  0
 16 45  1  0
 21 46  1  6
 22 47  1  0
 22 48  1  0
 23 49  1  1
 24 50  1  0
 25 51  1  0
 25 52  1  0
 27 53  1  0
 28 54  1  0
 28 55  1  0
 29 56  1  0
 29 57  1  0
 30 58  1  0
 30 59  1  0
 31 60  1  0
 31 61  1  0
 32 62  1  0
 32 63  1  0
M  END
>  <smiles>  (32) 
CN(CCNC(=O)c1ccc2cc(F)ccc2n1)C(=O)[C@H]1C[C@H](O)CN1C1CCCCC1

>  <score_type>  (32) 
oracle

>  <origin>  (32) 
autodockgpu

>  <m_score__min__energy>  (32) 
-8.6799999999999997

>  <m_primary>  (32) 
energy

>  <rmsd>  (32) 
9.132627723511327

>  <m_score__min__rmsd>  (32) 
9.132627723511327

>  <meeko>  (32) 
{"free_energy": -7.42, "intermolecular_energy": -9.81, "internal_energy": -2.47, "cluster_size": 21, "cluster_id": 2, "rank_in_cluster": 20}

>  <energy>  (32) 
-7.74

>  <cluster_rmsd>  (32) 
0.99

>  <cluster>  (32) 
2

$$$$

     RDKit          3D

 63 66  0  0  0  0  0  0  0  0999 V2000
  138.0380   80.7520  221.7630 C   0  0  0  0  0  0  0  0  0  0  0  0
  138.5780   79.7980  220.7930 N   0  0  0  0  0  0  0  0  0  0  0  0
  139.0400   80.3300  219.5440 C   0  0  0  0  0  0  0  0  0  0  0  0
  140.5500   80.4800  219.5110 C   0  0  0  0  0  0  0  0  0  0  0  0
  141.2450   79.2250  219.3730 N   0  0  0  0  0  0  0  0  0  0  0  0
  141.9230   78.8180  218.1910 C   0  0  0  0  0  0  0  0  0  0  0  0
  141.9600   79.5380  217.1790 O   0  0  0  0  0  0  0  0  0  0  0  0
  142.6050   77.5120  218.1500 C   0  0  0  0  0  0  0  0  0  0  0  0
  143.1130   77.0180  216.9700 C   0  0  0  0  0  0  0  0  0  0  0  0
  143.7570   75.7940  216.9160 C   0  0  0  0  0  0  0  0  0  0  0  0
  143.8690   75.0870  218.0880 C   0  0  0  0  0  0  0  0  0  0  0  0
  144.5010   73.8430  218.1340 C   0  0  0  0  0  0  0  0  0  0  0  0
  144.5930   73.1640  219.3370 C   0  0  0  0  0  0  0  0  0  0  0  0
  145.2100   71.9560  219.3660 F   0  0  0  0  0  0  0  0  0  0  0  0
  144.0870   73.6560  220.5110 C   0  0  0  0  0  0  0  0  0  0  0  0
  143.4580   74.8930  220.4720 C   0  0  0  0  0  0  0  0  0  0  0  0
  143.3620   75.5760  219.2770 C   0  0  0  0  0  0  0  0  0  0  0  0
  142.7490   76.7680  219.2710 N   0  0  0  0  0  0  0  0  0  0  0  0
  138.5790   78.4400  221.1720 C   0  0  0  0  0  0  0  0  0  0  0  0
  137.9410   77.6360  220.4310 O   0  0  0  0  0  0  0  0  0  0  0  0
  139.2660   77.8850  222.3620 C   0  0  1  0  0  0  0  0  0  0  0  0
  138.7690   76.4820  222.6500 C   0  0  0  0  0  0  0  0  0  0  0  0
  139.7340   75.6410  221.8040 C   0  0  2  0  0  0  0  0  0  0  0  0
  139.8180   74.3350  222.2330 O   0  0  0  0  0  0  0  0  0  0  0  0
  141.0280   76.3700  222.1020 C   0  0  0  0  0  0  0  0  0  0  0  0
  140.6840   77.7650  222.0800 N   0  0  0  0  0  0  0  0  0  0  0  0
  141.4610   78.5330  223.0380 C   0  0  0  0  0  0  0  0  0  0  0  0
  142.5260   79.3460  222.3550 C   0  0  0  0  0  0  0  0  0  0  0  0
  143.1460   80.2790  223.4040 C   0  0  0  0  0  0  0  0  0  0  0  0
  142.1460   81.3980  223.6030 C   0  0  0  0  0  0  0  0  0  0  0  0
  140.7480   80.8750  223.5760 C   0  0  0  0  0  0  0  0  0  0  0  0
  140.6210   79.4110  223.8980 C   0  0  0  0  0  0  0  0  0  0  0  0
  138.2413   80.3929  222.7827 H   0  0  0  0  0  0  0  0  0  0  0  0
  138.5151   81.7324  221.6176 H   0  0  0  0  0  0  0  0  0  0  0  0
  136.9518   80.8476  221.6176 H   0  0  0  0  0  0  0  0  0  0  0  0
  138.7331   79.6516  218.7343 H   0  0  0  0  0  0  0  0  0  0  0  0
  138.5975   81.3290  219.4169 H   0  0  0  0  0  0  0  0  0  0  0  0
  140.8184   81.1231  218.6599 H   0  0  0  0  0  0  0  0  0  0  0  0
  140.8550   80.9170  220.4733 H   0  0  0  0  0  0  0  0  0  0  0  0
  141.2790   78.5270  220.1770 H   0  0  0  0  0  0  0  0  0  0  0  0
  143.0047   77.6094  216.0489 H   0  0  0  0  0  0  0  0  0  0  0  0
  144.1631   75.4029  215.9715 H   0  0  0  0  0  0  0  0  0  0  0  0
  144.9241   73.4042  217.2183 H   0  0  0  0  0  0  0  0  0  0  0  0
  144.1759   73.0913  221.4508 H   0  0  0  0  0  0  0  0  0  0  0  0
  143.0374   75.3273  221.3910 H   0  0  0  0  0  0  0  0  0  0  0  0
  139.0699   78.5532  223.2135 H   0  0  0  0  0  0  0  0  0  0  0  0
  138.8525   76.2369  223.7191 H   0  0  0  0  0  0  0  0  0  0  0  0
  137.7067   76.3231  222.4128 H   0  0  0  0  0  0  0  0  0  0  0  0
  139.4479   75.5600  220.7450 H   0  0  0  0  0  0  0  0  0  0  0  0
  139.0140   74.1550  222.8000 H   0  0  0  0  0  0  0  0  0  0  0  0
  141.4143   76.0829  223.0911 H   0  0  0  0  0  0  0  0  0  0  0  0
  141.8155   76.1276  221.3732 H   0  0  0  0  0  0  0  0  0  0  0  0
  141.9411   77.7938  223.6961 H   0  0  0  0  0  0  0  0  0  0  0  0
  143.2985   78.6804  221.9425 H   0  0  0  0  0  0  0  0  0  0  0  0
  142.0944   79.9291  221.5281 H   0  0  0  0  0  0  0  0  0  0  0  0
  143.3094   79.7389  224.3482 H   0  0  0  0  0  0  0  0  0  0  0  0
  144.1236   80.6630  223.0771 H   0  0  0  0  0  0  0  0  0  0  0  0
  142.3320   81.8784  224.5749 H   0  0  0  0  0  0  0  0  0  0  0  0
  142.2649   82.1247  222.7858 H   0  0  0  0  0  0  0  0  0  0  0  0
  140.1558   81.4405  224.3105 H   0  0  0  0  0  0  0  0  0  0  0  0
  140.3883   80.9997  222.5440 H   0  0  0  0  0  0  0  0  0  0  0  0
  140.9196   79.2589  224.9457 H   0  0  0  0  0  0  0  0  0  0  0  0
  139.5729   79.1318  223.7149 H   0  0  0  0  0  0  0  0  0  0  0  0
  1  2  1  0
  2  3  1  0
  3  4  1  0
  4  5  1  0
  5  6  1  0
  6  7  2  0
  6  8  1  0
  8  9  2  0
  9 10  1  0
 10 11  2  0
 11 12  1  0
 12 13  2  0
 13 14  1  0
 13 15  1  0
 15 16  2  0
 16 17  1  0
 17 18  2  0
  2 19  1  0
 19 20  2  0
 19 21  1  0
 21 22  1  0
 22 23  1  0
 23 24  1  0
 23 25  1  0
 25 26  1  0
 26 27  1  0
 27 28  1  0
 28 29  1  0
 29 30  1  0
 30 31  1  0
 31 32  1  0
 18  8  1  0
 26 21  1  0
 32 27  1  0
 17 11  1  0
  1 33  1  0
  1 34  1  0
  1 35  1  0
  3 36  1  0
  3 37  1  0
  4 38  1  0
  4 39  1  0
  5 40  1  0
  9 41  1  0
 10 42  1  0
 12 43  1  0
 15 44  1  0
 16 45  1  0
 21 46  1  1
 22 47  1  0
 22 48  1  0
 23 49  1  6
 24 50  1  0
 25 51  1  0
 25 52  1  0
 27 53  1  0
 28 54  1  0
 28 55  1  0
 29 56  1  0
 29 57  1  0
 30 58  1  0
 30 59  1  0
 31 60  1  0
 31 61  1  0
 32 62  1  0
 32 63  1  0
M  END
>  <smiles>  (33) 
CN(CCNC(=O)c1ccc2cc(F)ccc2n1)C(=O)[C@H]1C[C@H](O)CN1C1CCCCC1

>  <score_type>  (33) 
oracle

>  <origin>  (33) 
autodockgpu

>  <m_score__min__energy>  (33) 
-8.6799999999999997

>  <m_primary>  (33) 
energy

>  <rmsd>  (33) 
8.403441562646703

>  <m_score__min__rmsd>  (33) 
8.403441562646703

>  <meeko>  (33) 
{"free_energy": -6.65, "intermolecular_energy": -9.04, "internal_energy": -3.92, "cluster_size": 5, "cluster_id": 6, "rank_in_cluster": 4}

>  <energy>  (33) 
-7.42

>  <cluster_rmsd>  (33) 
1.61

>  <cluster>  (33) 
2

$$$$

     RDKit          3D

 63 66  0  0  0  0  0  0  0  0999 V2000
  142.8750   76.2570  219.3660 C   0  0  0  0  0  0  0  0  0  0  0  0
  141.6210   76.1530  220.1130 N   0  0  0  0  0  0  0  0  0  0  0  0
  141.4950   75.0540  221.0270 C   0  0  0  0  0  0  0  0  0  0  0  0
  140.0510   74.6180  221.1990 C   0  0  0  0  0  0  0  0  0  0  0  0
  139.8630   73.6830  222.2790 N   0  0  0  0  0  0  0  0  0  0  0  0
  140.5340   72.4330  222.3740 C   0  0  0  0  0  0  0  0  0  0  0  0
  141.3460   72.0600  221.5100 O   0  0  0  0  0  0  0  0  0  0  0  0
  140.2720   71.5450  223.5200 C   0  0  0  0  0  0  0  0  0  0  0  0
  139.5710   70.3720  223.3590 C   0  0  0  0  0  0  0  0  0  0  0  0
  139.3170   69.5270  224.4260 C   0  0  0  0  0  0  0  0  0  0  0  0
  139.7930   69.9060  225.6580 C   0  0  0  0  0  0  0  0  0  0  0  0
  139.5880   69.1210  226.7940 C   0  0  0  0  0  0  0  0  0  0  0  0
  140.0850   69.5390  228.0170 C   0  0  0  0  0  0  0  0  0  0  0  0
  139.8770   68.7660  229.1120 F   0  0  0  0  0  0  0  0  0  0  0  0
  140.7830   70.7070  228.1760 C   0  0  0  0  0  0  0  0  0  0  0  0
  140.9910   71.4920  227.0500 C   0  0  0  0  0  0  0  0  0  0  0  0
  140.4980   71.0820  225.8290 C   0  0  0  0  0  0  0  0  0  0  0  0
  140.7150   71.8610  224.7590 N   0  0  0  0  0  0  0  0  0  0  0  0
  140.6430   77.1350  219.8520 C   0  0  0  0  0  0  0  0  0  0  0  0
  140.0580   77.0810  218.7310 O   0  0  0  0  0  0  0  0  0  0  0  0
  140.2510   78.2190  220.7840 C   0  0  1  0  0  0  0  0  0  0  0  0
  138.8290   78.6620  220.5070 C   0  0  0  0  0  0  0  0  0  0  0  0
  138.0350   77.7100  221.4110 C   0  0  2  0  0  0  0  0  0  0  0  0
  136.7790   78.1880  221.7150 O   0  0  0  0  0  0  0  0  0  0  0  0
  138.9150   77.7440  222.6430 C   0  0  0  0  0  0  0  0  0  0  0  0
  140.2610   77.7060  222.1420 N   0  0  0  0  0  0  0  0  0  0  0  0
  141.1740   78.4740  222.9710 C   0  0  0  0  0  0  0  0  0  0  0  0
  142.2070   79.1830  222.1390 C   0  0  0  0  0  0  0  0  0  0  0  0
  142.9820   80.1300  223.0640 C   0  0  0  0  0  0  0  0  0  0  0  0
  142.0710   81.3180  223.2960 C   0  0  0  0  0  0  0  0  0  0  0  0
  140.6510   80.8800  223.4390 C   0  0  0  0  0  0  0  0  0  0  0  0
  140.4760   79.4460  223.8570 C   0  0  0  0  0  0  0  0  0  0  0  0
  143.7168   76.3268  220.0706 H   0  0  0  0  0  0  0  0  0  0  0  0
  142.9996   75.3661  218.7329 H   0  0  0  0  0  0  0  0  0  0  0  0
  142.8512   77.1563  218.7329 H   0  0  0  0  0  0  0  0  0  0  0  0
  142.0788   74.2045  220.6431 H   0  0  0  0  0  0  0  0  0  0  0  0
  141.8687   75.3839  222.0076 H   0  0  0  0  0  0  0  0  0  0  0  0
  139.4384   75.5096  221.3984 H   0  0  0  0  0  0  0  0  0  0  0  0
  139.7516   74.1086  220.2711 H   0  0  0  0  0  0  0  0  0  0  0  0
  139.1900   73.8960  223.0770 H   0  0  0  0  0  0  0  0  0  0  0  0
  139.2036   70.0991  222.3587 H   0  0  0  0  0  0  0  0  0  0  0  0
  138.7566   68.5899  224.2928 H   0  0  0  0  0  0  0  0  0  0  0  0
  139.0337   68.1739  226.7179 H   0  0  0  0  0  0  0  0  0  0  0  0
  141.1653   71.0122  229.1613 H   0  0  0  0  0  0  0  0  0  0  0  0
  141.5470   72.4376  227.1314 H   0  0  0  0  0  0  0  0  0  0  0  0
  140.9546   79.0544  220.6534 H   0  0  0  0  0  0  0  0  0  0  0  0
  138.6719   79.7127  220.7923 H   0  0  0  0  0  0  0  0  0  0  0  0
  138.5426   78.6185  219.4458 H   0  0  0  0  0  0  0  0  0  0  0  0
  137.8482   76.7213  220.9666 H   0  0  0  0  0  0  0  0  0  0  0  0
  136.1160   77.5890  221.2680 H   0  0  0  0  0  0  0  0  0  0  0  0
  138.7420   78.6670  223.2159 H   0  0  0  0  0  0  0  0  0  0  0  0
  138.7044   76.9058  223.3235 H   0  0  0  0  0  0  0  0  0  0  0  0
  141.6778   77.7428  223.6202 H   0  0  0  0  0  0  0  0  0  0  0  0
  142.8949   78.4504  221.6917 H   0  0  0  0  0  0  0  0  0  0  0  0
  141.7259   79.7469  221.3263 H   0  0  0  0  0  0  0  0  0  0  0  0
  143.2115   79.6314  224.0173 H   0  0  0  0  0  0  0  0  0  0  0  0
  143.9404   80.4357  222.6191 H   0  0  0  0  0  0  0  0  0  0  0  0
  142.3823   81.8366  224.2148 H   0  0  0  0  0  0  0  0  0  0  0  0
  142.1454   81.9925  222.4303 H   0  0  0  0  0  0  0  0  0  0  0  0
  140.1696   81.5185  224.1944 H   0  0  0  0  0  0  0  0  0  0  0  0
  140.1952   80.9714  222.4420 H   0  0  0  0  0  0  0  0  0  0  0  0
  140.8708   79.3312  224.8773 H   0  0  0  0  0  0  0  0  0  0  0  0
  139.4008   79.2224  223.7949 H   0  0  0  0  0  0  0  0  0  0  0  0
  1  2  1  0
  2  3  1  0
  3  4  1  0
  4  5  1  0
  5  6  1  0
  6  7  2  0
  6  8  1  0
  8  9  2  0
  9 10  1  0
 10 11  2  0
 11 12  1  0
 12 13  2  0
 13 14  1  0
 13 15  1  0
 15 16  2  0
 16 17  1  0
 17 18  2  0
  2 19  1  0
 19 20  2  0
 19 21  1  0
 21 22  1  0
 22 23  1  0
 23 24  1  0
 23 25  1  0
 25 26  1  0
 26 27  1  0
 27 28  1  0
 28 29  1  0
 29 30  1  0
 30 31  1  0
 31 32  1  0
 18  8  1  0
 26 21  1  0
 32 27  1  0
 17 11  1  0
  1 33  1  0
  1 34  1  0
  1 35  1  0
  3 36  1  0
  3 37  1  0
  4 38  1  0
  4 39  1  0
  5 40  1  0
  9 41  1  0
 10 42  1  0
 12 43  1  0
 15 44  1  0
 16 45  1  0
 21 46  1  1
 22 47  1  0
 22 48  1  0
 23 49  1  6
 24 50  1  0
 25 51  1  0
 25 52  1  0
 27 53  1  0
 28 54  1  0
 28 55  1  0
 29 56  1  0
 29 57  1  0
 30 58  1  0
 30 59  1  0
 31 60  1  0
 31 61  1  0
 32 62  1  0
 32 63  1  0
M  END
>  <smiles>  (34) 
CN(CCNC(=O)c1ccc2cc(F)ccc2n1)C(=O)[C@H]1C[C@H](O)CN1C1CCCCC1

>  <score_type>  (34) 
oracle

>  <origin>  (34) 
autodockgpu

>  <m_score__min__energy>  (34) 
-8.6799999999999997

>  <m_primary>  (34) 
energy

>  <rmsd>  (34) 
9.666487584833545

>  <m_score__min__rmsd>  (34) 
9.666487584833545

>  <meeko>  (34) 
{"free_energy": -8.28, "intermolecular_energy": -10.67, "internal_energy": -1.87, "cluster_size": 13, "cluster_id": 1, "rank_in_cluster": 6}

>  <energy>  (34) 
-6.57

>  <cluster_rmsd>  (34) 
1.59

>  <cluster>  (34) 
2

$$$$

     RDKit          3D

 63 66  0  0  0  0  0  0  0  0999 V2000
  142.9000   76.2930  219.7150 C   0  0  0  0  0  0  0  0  0  0  0  0
  142.0740   75.3540  220.4740 N   0  0  0  0  0  0  0  0  0  0  0  0
  142.2220   73.9600  220.1670 C   0  0  0  0  0  0  0  0  0  0  0  0
  140.9010   73.2150  220.2510 C   0  0  0  0  0  0  0  0  0  0  0  0
  140.7000   72.5500  221.5130 N   0  0  0  0  0  0  0  0  0  0  0  0
  140.0400   71.3000  221.6560 C   0  0  0  0  0  0  0  0  0  0  0  0
  139.5830   70.6860  220.6770 O   0  0  0  0  0  0  0  0  0  0  0  0
  139.8840   70.7010  222.9940 C   0  0  0  0  0  0  0  0  0  0  0  0
  139.2010   69.5190  223.1640 C   0  0  0  0  0  0  0  0  0  0  0  0
  139.0460   68.9450  224.4140 C   0  0  0  0  0  0  0  0  0  0  0  0
  139.6030   69.6020  225.4840 C   0  0  0  0  0  0  0  0  0  0  0  0
  139.5020   69.1020  226.7830 C   0  0  0  0  0  0  0  0  0  0  0  0
  140.0790   69.7960  227.8330 C   0  0  0  0  0  0  0  0  0  0  0  0
  139.9710   69.2970  229.0900 F   0  0  0  0  0  0  0  0  0  0  0  0
  140.7600   70.9720  227.6630 C   0  0  0  0  0  0  0  0  0  0  0  0
  140.8650   71.4750  226.3730 C   0  0  0  0  0  0  0  0  0  0  0  0
  140.2920   70.7890  225.3220 C   0  0  0  0  0  0  0  0  0  0  0  0
  140.4100   71.2990  224.0880 N   0  0  0  0  0  0  0  0  0  0  0  0
  141.1950   75.9080  221.4270 C   0  0  0  0  0  0  0  0  0  0  0  0
  140.7200   75.1220  222.2980 O   0  0  0  0  0  0  0  0  0  0  0  0
  140.7880   77.3330  221.4880 C   0  0  1  0  0  0  0  0  0  0  0  0
  139.6330   77.5900  220.5420 C   0  0  0  0  0  0  0  0  0  0  0  0
  138.4300   77.2940  221.4470 C   0  0  2  0  0  0  0  0  0  0  0  0
  137.2710   77.8910  221.0040 O   0  0  0  0  0  0  0  0  0  0  0  0
  138.9040   77.9660  222.7200 C   0  0  0  0  0  0  0  0  0  0  0  0
  140.2990   77.6310  222.8210 N   0  0  0  0  0  0  0  0  0  0  0  0
  141.0740   78.7030  223.4210 C   0  0  0  0  0  0  0  0  0  0  0  0
  142.1810   79.1560  222.5100 C   0  0  0  0  0  0  0  0  0  0  0  0
  142.8030   80.4180  223.1230 C   0  0  0  0  0  0  0  0  0  0  0  0
  141.8330   81.5420  222.8240 C   0  0  0  0  0  0  0  0  0  0  0  0
  140.4210   81.0770  222.9570 C   0  0  0  0  0  0  0  0  0  0  0  0
  140.2400   79.8660  223.8300 C   0  0  0  0  0  0  0  0  0  0  0  0
  143.4624   76.9324  220.4113 H   0  0  0  0  0  0  0  0  0  0  0  0
  143.6037   75.7331  219.0815 H   0  0  0  0  0  0  0  0  0  0  0  0
  142.2550   76.9196  219.0815 H   0  0  0  0  0  0  0  0  0  0  0  0
  142.6209   73.8616  219.1466 H   0  0  0  0  0  0  0  0  0  0  0  0
  142.9074   73.5203  220.9065 H   0  0  0  0  0  0  0  0  0  0  0  0
  140.0837   73.9360  220.1024 H   0  0  0  0  0  0  0  0  0  0  0  0
  140.9156   72.4380  219.4725 H   0  0  0  0  0  0  0  0  0  0  0  0
  141.0500   72.9840  222.4210 H   0  0  0  0  0  0  0  0  0  0  0  0
  138.7678   69.0181  222.2857 H   0  0  0  0  0  0  0  0  0  0  0  0
  138.4984   68.0001  224.5453 H   0  0  0  0  0  0  0  0  0  0  0  0
  138.9661   68.1602  226.9720 H   0  0  0  0  0  0  0  0  0  0  0  0
  141.2079   71.4994  228.5181 H   0  0  0  0  0  0  0  0  0  0  0  0
  141.4030   72.4168  226.1897 H   0  0  0  0  0  0  0  0  0  0  0  0
  141.6581   77.9507  221.2210 H   0  0  0  0  0  0  0  0  0  0  0  0
  139.6252   78.6322  220.1902 H   0  0  0  0  0  0  0  0  0  0  0  0
  139.6626   76.9882  219.6217 H   0  0  0  0  0  0  0  0  0  0  0  0
  138.1754   76.2263  221.5185 H   0  0  0  0  0  0  0  0  0  0  0  0
  137.5090   78.8120  220.6940 H   0  0  0  0  0  0  0  0  0  0  0  0
  138.7720   79.0561  222.6539 H   0  0  0  0  0  0  0  0  0  0  0  0
  138.3344   77.6324  223.5999 H   0  0  0  0  0  0  0  0  0  0  0  0
  141.5137   78.2793  224.3360 H   0  0  0  0  0  0  0  0  0  0  0  0
  142.9424   78.3667  222.4245 H   0  0  0  0  0  0  0  0  0  0  0  0
  141.7894   79.3690  221.5044 H   0  0  0  0  0  0  0  0  0  0  0  0
  142.9252   80.2961  224.2094 H   0  0  0  0  0  0  0  0  0  0  0  0
  143.8003   80.6218  222.7061 H   0  0  0  0  0  0  0  0  0  0  0  0
  142.0086   82.3666  223.5305 H   0  0  0  0  0  0  0  0  0  0  0  0
  141.9954   81.8805  221.7901 H   0  0  0  0  0  0  0  0  0  0  0  0
  139.8278   81.8992  223.3837 H   0  0  0  0  0  0  0  0  0  0  0  0
  140.0925   80.7859  221.9484 H   0  0  0  0  0  0  0  0  0  0  0  0
  140.5067   80.1388  224.8617 H   0  0  0  0  0  0  0  0  0  0  0  0
  139.1887   79.5563  223.7359 H   0  0  0  0  0  0  0  0  0  0  0  0
  1  2  1  0
  2  3  1  0
  3  4  1  0
  4  5  1  0
  5  6  1  0
  6  7  2  0
  6  8  1  0
  8  9  2  0
  9 10  1  0
 10 11  2  0
 11 12  1  0
 12 13  2  0
 13 14  1  0
 13 15  1  0
 15 16  2  0
 16 17  1  0
 17 18  2  0
  2 19  1  0
 19 20  2  0
 19 21  1  0
 21 22  1  0
 22 23  1  0
 23 24  1  0
 23 25  1  0
 25 26  1  0
 26 27  1  0
 27 28  1  0
 28 29  1  0
 29 30  1  0
 30 31  1  0
 31 32  1  0
 18  8  1  0
 26 21  1  0
 32 27  1  0
 17 11  1  0
  1 33  1  0
  1 34  1  0
  1 35  1  0
  3 36  1  0
  3 37  1  0
  4 38  1  0
  4 39  1  0
  5 40  1  0
  9 41  1  0
 10 42  1  0
 12 43  1  0
 15 44  1  0
 16 45  1  0
 21 46  1  6
 22 47  1  0
 22 48  1  0
 23 49  1  1
 24 50  1  0
 25 51  1  0
 25 52  1  0
 27 53  1  0
 28 54  1  0
 28 55  1  0
 29 56  1  0
 29 57  1  0
 30 58  1  0
 30 59  1  0
 31 60  1  0
 31 61  1  0
 32 62  1  0
 32 63  1  0
M  END
>  <smiles>  (35) 
CN(CCNC(=O)c1ccc2cc(F)ccc2n1)C(=O)[C@H]1C[C@H](O)CN1C1CCCCC1

>  <score_type>  (35) 
oracle

>  <origin>  (35) 
autodockgpu

>  <m_score__min__energy>  (35) 
-8.6799999999999997

>  <m_primary>  (35) 
energy

>  <rmsd>  (35) 
9.969082651649366

>  <m_score__min__rmsd>  (35) 
9.969082651649366

>  <meeko>  (35) 
{"free_energy": -7.82, "intermolecular_energy": -10.21, "internal_energy": -2.52, "cluster_size": 13, "cluster_id": 1, "rank_in_cluster": 13}

>  <energy>  (35) 
-7.93

>  <cluster_rmsd>  (35) 
0.0

>  <cluster>  (35) 
3

$$$$

     RDKit          3D

 63 66  0  0  0  0  0  0  0  0999 V2000
  137.9170   76.2950  221.8810 C   0  0  0  0  0  0  0  0  0  0  0  0
  138.8540   75.3270  221.3070 N   0  0  0  0  0  0  0  0  0  0  0  0
  138.3130   74.3580  220.3980 C   0  0  0  0  0  0  0  0  0  0  0  0
  137.5940   73.2350  221.1240 C   0  0  0  0  0  0  0  0  0  0  0  0
  138.3160   72.7410  222.2690 N   0  0  0  0  0  0  0  0  0  0  0  0
  138.3510   71.3740  222.6570 C   0  0  0  0  0  0  0  0  0  0  0  0
  137.7450   70.4980  222.0170 O   0  0  0  0  0  0  0  0  0  0  0  0
  139.1200   70.9690  223.8470 C   0  0  0  0  0  0  0  0  0  0  0  0
  140.1090   71.7780  224.3570 C   0  0  0  0  0  0  0  0  0  0  0  0
  140.8400   71.4120  225.4740 C   0  0  0  0  0  0  0  0  0  0  0  0
  140.5410   70.2050  226.0560 C   0  0  0  0  0  0  0  0  0  0  0  0
  141.2220   69.7490  227.1860 C   0  0  0  0  0  0  0  0  0  0  0  0
  140.8880   68.5250  227.7430 C   0  0  0  0  0  0  0  0  0  0  0  0
  141.5600   68.0950  228.8400 F   0  0  0  0  0  0  0  0  0  0  0  0
  139.9030   67.7200  227.2340 C   0  0  0  0  0  0  0  0  0  0  0  0
  139.2210   68.1690  226.1110 C   0  0  0  0  0  0  0  0  0  0  0  0
  139.5490   69.3860  225.5510 C   0  0  0  0  0  0  0  0  0  0  0  0
  138.8730   69.7920  224.4670 N   0  0  0  0  0  0  0  0  0  0  0  0
  140.2000   75.4270  221.7160 C   0  0  0  0  0  0  0  0  0  0  0  0
  140.6920   74.4310  222.3210 O   0  0  0  0  0  0  0  0  0  0  0  0
  141.0760   76.6020  221.4920 C   0  0  1  0  0  0  0  0  0  0  0  0
  141.3550   76.7750  220.0130 C   0  0  0  0  0  0  0  0  0  0  0  0
  140.1850   77.6710  219.5880 C   0  0  2  0  0  0  0  0  0  0  0  0
  140.4390   78.3620  218.4240 O   0  0  0  0  0  0  0  0  0  0  0  0
  140.1620   78.6270  220.7630 C   0  0  0  0  0  0  0  0  0  0  0  0
  140.3800   77.8020  221.9190 N   0  0  0  0  0  0  0  0  0  0  0  0
  141.1400   78.4930  222.9470 C   0  0  0  0  0  0  0  0  0  0  0  0
  142.2930   79.2570  222.3570 C   0  0  0  0  0  0  0  0  0  0  0  0
  142.9000   80.1200  223.4710 C   0  0  0  0  0  0  0  0  0  0  0  0
  141.9580   81.2930  223.6440 C   0  0  0  0  0  0  0  0  0  0  0  0
  140.5360   80.8580  223.5150 C   0  0  0  0  0  0  0  0  0  0  0  0
  140.3010   79.3970  223.7820 C   0  0  0  0  0  0  0  0  0  0  0  0
  137.9651   76.2453  222.9788 H   0  0  0  0  0  0  0  0  0  0  0  0
  138.1864   77.3081  221.5477 H   0  0  0  0  0  0  0  0  0  0  0  0
  136.8957   76.0587  221.5477 H   0  0  0  0  0  0  0  0  0  0  0  0
  137.6007   74.8599  219.7267 H   0  0  0  0  0  0  0  0  0  0  0  0
  139.1488   73.9175  219.8346 H   0  0  0  0  0  0  0  0  0  0  0  0
  136.6161   73.6081  221.4625 H   0  0  0  0  0  0  0  0  0  0  0  0
  137.4967   72.3993  220.4154 H   0  0  0  0  0  0  0  0  0  0  0  0
  138.8720   73.4030  222.8920 H   0  0  0  0  0  0  0  0  0  0  0  0
  140.3239   72.7383  223.8655 H   0  0  0  0  0  0  0  0  0  0  0  0
  141.6291   72.0624  225.8793 H   0  0  0  0  0  0  0  0  0  0  0  0
  142.0209   70.3591  227.6327 H   0  0  0  0  0  0  0  0  0  0  0  0
  139.6612   66.7526  227.6984 H   0  0  0  0  0  0  0  0  0  0  0  0
  138.4215   67.5560  225.6693 H   0  0  0  0  0  0  0  0  0  0  0  0
  142.0100   76.4456  222.0516 H   0  0  0  0  0  0  0  0  0  0  0  0
  142.3230   77.2684  219.8410 H   0  0  0  0  0  0  0  0  0  0  0  0
  141.4240   75.8298  219.4545 H   0  0  0  0  0  0  0  0  0  0  0  0
  139.2540   77.1231  219.3807 H   0  0  0  0  0  0  0  0  0  0  0  0
  141.3320   78.8010  218.5260 H   0  0  0  0  0  0  0  0  0  0  0  0
  140.9612   79.3767  220.6670 H   0  0  0  0  0  0  0  0  0  0  0  0
  139.2145   79.1824  220.8249 H   0  0  0  0  0  0  0  0  0  0  0  0
  141.5325   77.7073  223.6093 H   0  0  0  0  0  0  0  0  0  0  0  0
  143.0487   78.5565  221.9720 H   0  0  0  0  0  0  0  0  0  0  0  0
  141.9506   79.8885  221.5239 H   0  0  0  0  0  0  0  0  0  0  0  0
  142.9708   79.5445  224.4058 H   0  0  0  0  0  0  0  0  0  0  0  0
  143.9175   80.4520  223.2170 H   0  0  0  0  0  0  0  0  0  0  0  0
  142.1108   81.7337  224.6402 H   0  0  0  0  0  0  0  0  0  0  0  0
  142.1714   82.0337  222.8592 H   0  0  0  0  0  0  0  0  0  0  0  0
  139.9336   81.4384  224.2293 H   0  0  0  0  0  0  0  0  0  0  0  0
  140.2506   81.0330  222.4672 H   0  0  0  0  0  0  0  0  0  0  0  0
  140.5231   79.1974  224.8407 H   0  0  0  0  0  0  0  0  0  0  0  0
  139.2516   79.1884  223.5266 H   0  0  0  0  0  0  0  0  0  0  0  0
  1  2  1  0
  2  3  1  0
  3  4  1  0
  4  5  1  0
  5  6  1  0
  6  7  2  0
  6  8  1  0
  8  9  2  0
  9 10  1  0
 10 11  2  0
 11 12  1  0
 12 13  2  0
 13 14  1  0
 13 15  1  0
 15 16  2  0
 16 17  1  0
 17 18  2  0
  2 19  1  0
 19 20  2  0
 19 21  1  0
 21 22  1  0
 22 23  1  0
 23 24  1  0
 23 25  1  0
 25 26  1  0
 26 27  1  0
 27 28  1  0
 28 29  1  0
 29 30  1  0
 30 31  1  0
 31 32  1  0
 18  8  1  0
 26 21  1  0
 32 27  1  0
 17 11  1  0
  1 33  1  0
  1 34  1  0
  1 35  1  0
  3 36  1  0
  3 37  1  0
  4 38  1  0
  4 39  1  0
  5 40  1  0
  9 41  1  0
 10 42  1  0
 12 43  1  0
 15 44  1  0
 16 45  1  0
 21 46  1  1
 22 47  1  0
 22 48  1  0
 23 49  1  6
 24 50  1  0
 25 51  1  0
 25 52  1  0
 27 53  1  0
 28 54  1  0
 28 55  1  0
 29 56  1  0
 29 57  1  0
 30 58  1  0
 30 59  1  0
 31 60  1  0
 31 61  1  0
 32 62  1  0
 32 63  1  0
M  END
>  <smiles>  (36) 
CN(CCNC(=O)c1ccc2cc(F)ccc2n1)C(=O)[C@H]1C[C@H](O)CN1C1CCCCC1

>  <score_type>  (36) 
oracle

>  <origin>  (36) 
autodockgpu

>  <m_score__min__energy>  (36) 
-8.6799999999999997

>  <m_primary>  (36) 
energy

>  <rmsd>  (36) 
9.43010819112763

>  <m_score__min__rmsd>  (36) 
9.43010819112763

>  <meeko>  (36) 
{"free_energy": -8.36, "intermolecular_energy": -10.74, "internal_energy": -2.32, "cluster_size": 21, "cluster_id": 2, "rank_in_cluster": 6}

>  <energy>  (36) 
-7.5

>  <cluster_rmsd>  (36) 
0.97

>  <cluster>  (36) 
3

$$$$

     RDKit          3D

 63 66  0  0  0  0  0  0  0  0999 V2000
  136.8730   80.0200  220.8500 C   0  0  0  0  0  0  0  0  0  0  0  0
  138.2870   79.6810  220.6770 N   0  0  0  0  0  0  0  0  0  0  0  0
  139.1590   80.7320  220.2350 C   0  0  0  0  0  0  0  0  0  0  0  0
  139.6480   80.5060  218.8150 C   0  0  0  0  0  0  0  0  0  0  0  0
  140.3750   79.2730  218.6510 N   0  0  0  0  0  0  0  0  0  0  0  0
  141.7930   79.1880  218.5900 C   0  0  0  0  0  0  0  0  0  0  0  0
  142.5120   80.1980  218.6750 O   0  0  0  0  0  0  0  0  0  0  0  0
  142.4420   77.8760  218.4200 C   0  0  0  0  0  0  0  0  0  0  0  0
  142.9440   77.4900  217.1990 C   0  0  0  0  0  0  0  0  0  0  0  0
  143.5570   76.2610  217.0240 C   0  0  0  0  0  0  0  0  0  0  0  0
  143.6460   75.4380  218.1200 C   0  0  0  0  0  0  0  0  0  0  0  0
  144.2470   74.1800  218.0430 C   0  0  0  0  0  0  0  0  0  0  0  0
  144.3150   73.3820  219.1730 C   0  0  0  0  0  0  0  0  0  0  0  0
  144.9020   72.1620  219.0830 F   0  0  0  0  0  0  0  0  0  0  0  0
  143.8150   73.7680  220.3890 C   0  0  0  0  0  0  0  0  0  0  0  0
  143.2170   75.0180  220.4720 C   0  0  0  0  0  0  0  0  0  0  0  0
  143.1450   75.8180  219.3500 C   0  0  0  0  0  0  0  0  0  0  0  0
  142.5610   77.0200  219.4610 N   0  0  0  0  0  0  0  0  0  0  0  0
  138.6570   78.3480  220.9440 C   0  0  0  0  0  0  0  0  0  0  0  0
  138.4840   77.5050  220.0160 O   0  0  0  0  0  0  0  0  0  0  0  0
  139.2320   77.8600  222.2210 C   0  0  1  0  0  0  0  0  0  0  0  0
  138.7120   76.4720  222.5350 C   0  0  0  0  0  0  0  0  0  0  0  0
  139.7510   75.5930  221.8280 C   0  0  2  0  0  0  0  0  0  0  0  0
  139.7970   74.3120  222.3320 O   0  0  0  0  0  0  0  0  0  0  0  0
  141.0120   76.3430  222.2050 C   0  0  0  0  0  0  0  0  0  0  0  0
  140.6710   77.7340  222.0770 N   0  0  0  0  0  0  0  0  0  0  0  0
  141.3550   78.5560  223.0600 C   0  0  0  0  0  0  0  0  0  0  0  0
  142.4630   79.3550  222.4320 C   0  0  0  0  0  0  0  0  0  0  0  0
  142.9820   80.3430  223.4850 C   0  0  0  0  0  0  0  0  0  0  0  0
  141.9530   81.4540  223.5510 C   0  0  0  0  0  0  0  0  0  0  0  0
  140.5700   80.9060  223.4320 C   0  0  0  0  0  0  0  0  0  0  0  0
  140.4350   79.4570  223.8080 C   0  0  0  0  0  0  0  0  0  0  0  0
  136.6381   80.0763  221.9232 H   0  0  0  0  0  0  0  0  0  0  0  0
  136.6687   80.9926  220.3784 H   0  0  0  0  0  0  0  0  0  0  0  0
  136.2500   79.2458  220.3784 H   0  0  0  0  0  0  0  0  0  0  0  0
  138.6136   81.6864  220.2751 H   0  0  0  0  0  0  0  0  0  0  0  0
  140.0364   80.7470  220.8982 H   0  0  0  0  0  0  0  0  0  0  0  0
  138.7763   80.4889  218.1443 H   0  0  0  0  0  0  0  0  0  0  0  0
  140.3404   81.3263  218.5749 H   0  0  0  0  0  0  0  0  0  0  0  0
  139.8620   78.3430  218.5670 H   0  0  0  0  0  0  0  0  0  0  0  0
  142.8564   78.1736  216.3417 H   0  0  0  0  0  0  0  0  0  0  0  0
  143.9570   75.9557  216.0458 H   0  0  0  0  0  0  0  0  0  0  0  0
  144.6645   73.8244  217.0894 H   0  0  0  0  0  0  0  0  0  0  0  0
  143.8850   73.1107  221.2682 H   0  0  0  0  0  0  0  0  0  0  0  0
  142.8022   75.3693  221.4283 H   0  0  0  0  0  0  0  0  0  0  0  0
  138.9575   78.5704  223.0148 H   0  0  0  0  0  0  0  0  0  0  0  0
  138.6962   76.2838  223.6187 H   0  0  0  0  0  0  0  0  0  0  0  0
  137.6765   76.2951  222.2089 H   0  0  0  0  0  0  0  0  0  0  0  0
  139.5628   75.4549  220.7531 H   0  0  0  0  0  0  0  0  0  0  0  0
  138.9820   74.1860  222.8990 H   0  0  0  0  0  0  0  0  0  0  0  0
  141.3052   76.1106  223.2394 H   0  0  0  0  0  0  0  0  0  0  0  0
  141.8636   76.0662  221.5661 H   0  0  0  0  0  0  0  0  0  0  0  0
  141.7876   77.8543  223.7883 H   0  0  0  0  0  0  0  0  0  0  0  0
  143.2753   78.6843  222.1154 H   0  0  0  0  0  0  0  0  0  0  0  0
  142.0945   79.8943  221.5469 H   0  0  0  0  0  0  0  0  0  0  0  0
  143.0741   79.8475  224.4628 H   0  0  0  0  0  0  0  0  0  0  0  0
  143.9781   80.7287  223.2223 H   0  0  0  0  0  0  0  0  0  0  0  0
  142.0509   81.9791  224.5126 H   0  0  0  0  0  0  0  0  0  0  0  0
  142.1297   82.1471  222.7153 H   0  0  0  0  0  0  0  0  0  0  0  0
  139.9109   81.4933  224.0883 H   0  0  0  0  0  0  0  0  0  0  0  0
  140.2972   80.9782  222.3688 H   0  0  0  0  0  0  0  0  0  0  0  0
  140.6475   79.3558  224.8825 H   0  0  0  0  0  0  0  0  0  0  0  0
  139.4092   79.1529  223.5525 H   0  0  0  0  0  0  0  0  0  0  0  0
  1  2  1  0
  2  3  1  0
  3  4  1  0
  4  5  1  0
  5  6  1  0
  6  7  2  0
  6  8  1  0
  8  9  2  0
  9 10  1  0
 10 11  2  0
 11 12  1  0
 12 13  2  0
 13 14  1  0
 13 15  1  0
 15 16  2  0
 16 17  1  0
 17 18  2  0
  2 19  1  0
 19 20  2  0
 19 21  1  0
 21 22  1  0
 22 23  1  0
 23 24  1  0
 23 25  1  0
 25 26  1  0
 26 27  1  0
 27 28  1  0
 28 29  1  0
 29 30  1  0
 30 31  1  0
 31 32  1  0
 18  8  1  0
 26 21  1  0
 32 27  1  0
 17 11  1  0
  1 33  1  0
  1 34  1  0
  1 35  1  0
  3 36  1  0
  3 37  1  0
  4 38  1  0
  4 39  1  0
  5 40  1  0
  9 41  1  0
 10 42  1  0
 12 43  1  0
 15 44  1  0
 16 45  1  0
 21 46  1  1
 22 47  1  0
 22 48  1  0
 23 49  1  6
 24 50  1  0
 25 51  1  0
 25 52  1  0
 27 53  1  0
 28 54  1  0
 28 55  1  0
 29 56  1  0
 29 57  1  0
 30 58  1  0
 30 59  1  0
 31 60  1  0
 31 61  1  0
 32 62  1  0
 32 63  1  0
M  END
>  <smiles>  (37) 
CN(CCNC(=O)c1ccc2cc(F)ccc2n1)C(=O)[C@H]1C[C@H](O)CN1C1CCCCC1

>  <score_type>  (37) 
oracle

>  <origin>  (37) 
autodockgpu

>  <m_score__min__energy>  (37) 
-8.6799999999999997

>  <m_primary>  (37) 
energy

>  <rmsd>  (37) 
8.305748945366654

>  <m_score__min__rmsd>  (37) 
8.305748945366654

>  <meeko>  (37) 
{"free_energy": -6.67, "intermolecular_energy": -9.06, "internal_energy": -3.69, "cluster_size": 5, "cluster_id": 6, "rank_in_cluster": 3}

>  <energy>  (37) 
-5.98

>  <cluster_rmsd>  (37) 
1.63

>  <cluster>  (37) 
3

$$$$

     RDKit          3D

 63 66  0  0  0  0  0  0  0  0999 V2000
  139.4230   75.8330  219.5820 C   0  0  0  0  0  0  0  0  0  0  0  0
  138.9750   74.7780  220.4930 N   0  0  0  0  0  0  0  0  0  0  0  0
  137.7270   74.1400  220.1870 C   0  0  0  0  0  0  0  0  0  0  0  0
  136.8640   73.9540  221.4210 C   0  0  0  0  0  0  0  0  0  0  0  0
  137.4370   73.0520  222.3880 N   0  0  0  0  0  0  0  0  0  0  0  0
  136.9410   71.7450  222.6460 C   0  0  0  0  0  0  0  0  0  0  0  0
  135.9580   71.2870  222.0390 O   0  0  0  0  0  0  0  0  0  0  0  0
  137.5990   70.8970  223.6570 C   0  0  0  0  0  0  0  0  0  0  0  0
  137.0840   69.6650  223.9880 C   0  0  0  0  0  0  0  0  0  0  0  0
  137.6910   68.8580  224.9350 C   0  0  0  0  0  0  0  0  0  0  0  0
  138.8310   69.3350  225.5340 C   0  0  0  0  0  0  0  0  0  0  0  0
  139.5140   68.5940  226.5000 C   0  0  0  0  0  0  0  0  0  0  0  0
  140.6610   69.1120  227.0790 C   0  0  0  0  0  0  0  0  0  0  0  0
  141.3130   68.3810  228.0170 F   0  0  0  0  0  0  0  0  0  0  0  0
  141.1720   70.3380  226.7480 C   0  0  0  0  0  0  0  0  0  0  0  0
  140.4980   71.0800  225.7880 C   0  0  0  0  0  0  0  0  0  0  0  0
  139.3550   70.5710  225.2070 C   0  0  0  0  0  0  0  0  0  0  0  0
  138.7250   71.3100  224.2820 N   0  0  0  0  0  0  0  0  0  0  0  0
  139.8050   74.5000  221.5990 C   0  0  0  0  0  0  0  0  0  0  0  0
  139.5380   75.0970  222.6820 O   0  0  0  0  0  0  0  0  0  0  0  0
  140.9560   73.5660  221.5890 C   0  0  1  0  0  0  0  0  0  0  0  0
  140.6690   72.3680  222.4710 C   0  0  0  0  0  0  0  0  0  0  0  0
  139.9950   71.4150  221.4760 C   0  0  2  0  0  0  0  0  0  0  0  0
  140.0550   70.0990  221.8760 O   0  0  0  0  0  0  0  0  0  0  0  0
  140.8920   71.6340  220.2750 C   0  0  0  0  0  0  0  0  0  0  0  0
  141.1380   73.0490  220.2460 N   0  0  0  0  0  0  0  0  0  0  0  0
  142.4700   73.3610  219.7550 C   0  0  0  0  0  0  0  0  0  0  0  0
  143.0820   74.5030  220.5180 C   0  0  0  0  0  0  0  0  0  0  0  0
  144.5500   74.6190  220.0860 C   0  0  0  0  0  0  0  0  0  0  0  0
  145.2790   73.4980  220.7970 C   0  0  0  0  0  0  0  0  0  0  0  0
  144.4460   72.2600  220.8340 C   0  0  0  0  0  0  0  0  0  0  0  0
  143.3850   72.1870  219.7700 C   0  0  0  0  0  0  0  0  0  0  0  0
  139.7874   76.6912  220.1657 H   0  0  0  0  0  0  0  0  0  0  0  0
  140.2358   75.4492  218.9479 H   0  0  0  0  0  0  0  0  0  0  0  0
  138.5824   76.1513  218.9479 H   0  0  0  0  0  0  0  0  0  0  0  0
  137.1800   74.7602  219.4617 H   0  0  0  0  0  0  0  0  0  0  0  0
  137.9475   73.1444  219.7744 H   0  0  0  0  0  0  0  0  0  0  0  0
  136.7230   74.9345  221.8992 H   0  0  0  0  0  0  0  0  0  0  0  0
  135.9124   73.5133  221.0890 H   0  0  0  0  0  0  0  0  0  0  0  0
  138.2840   73.3370  222.9670 H   0  0  0  0  0  0  0  0  0  0  0  0
  136.1691   69.3131  223.4889 H   0  0  0  0  0  0  0  0  0  0  0  0
  137.2765   67.8734  225.1973 H   0  0  0  0  0  0  0  0  0  0  0  0
  139.1430   67.6029  226.8002 H   0  0  0  0  0  0  0  0  0  0  0  0
  142.0852   70.7219  227.2263 H   0  0  0  0  0  0  0  0  0  0  0  0
  140.8739   72.0704  225.4915 H   0  0  0  0  0  0  0  0  0  0  0  0
  141.8426   74.1115  221.9445 H   0  0  0  0  0  0  0  0  0  0  0  0
  141.5955   71.9362  222.8773 H   0  0  0  0  0  0  0  0  0  0  0  0
  140.0595   72.5976  223.3575 H   0  0  0  0  0  0  0  0  0  0  0  0
  138.9214   71.6047  221.3297 H   0  0  0  0  0  0  0  0  0  0  0  0
  139.6970   70.0540  222.8080 H   0  0  0  0  0  0  0  0  0  0  0  0
  141.8353   71.0802  220.3912 H   0  0  0  0  0  0  0  0  0  0  0  0
  140.4288   71.2766  219.3435 H   0  0  0  0  0  0  0  0  0  0  0  0
  142.3407   73.6605  218.7045 H   0  0  0  0  0  0  0  0  0  0  0  0
  142.5485   75.4367  220.2867 H   0  0  0  0  0  0  0  0  0  0  0  0
  143.0120   74.3242  221.6011 H   0  0  0  0  0  0  0  0  0  0  0  0
  144.6388   74.5028  218.9958 H   0  0  0  0  0  0  0  0  0  0  0  0
  144.9710   75.6024  220.3423 H   0  0  0  0  0  0  0  0  0  0  0  0
  146.2178   73.2846  220.2650 H   0  0  0  0  0  0  0  0  0  0  0  0
  145.4860   73.8133  221.8303 H   0  0  0  0  0  0  0  0  0  0  0  0
  145.1132   71.3938  220.7132 H   0  0  0  0  0  0  0  0  0  0  0  0
  143.9192   72.2675  221.7996 H   0  0  0  0  0  0  0  0  0  0  0  0
  143.8801   72.1202  218.7900 H   0  0  0  0  0  0  0  0  0  0  0  0
  142.7692   71.3026  219.9906 H   0  0  0  0  0  0  0  0  0  0  0  0
  1  2  1  0
  2  3  1  0
  3  4  1  0
  4  5  1  0
  5  6  1  0
  6  7  2  0
  6  8  1  0
  8  9  2  0
  9 10  1  0
 10 11  2  0
 11 12  1  0
 12 13  2  0
 13 14  1  0
 13 15  1  0
 15 16  2  0
 16 17  1  0
 17 18  2  0
  2 19  1  0
 19 20  2  0
 19 21  1  0
 21 22  1  0
 22 23  1  0
 23 24  1  0
 23 25  1  0
 25 26  1  0
 26 27  1  0
 27 28  1  0
 28 29  1  0
 29 30  1  0
 30 31  1  0
 31 32  1  0
 18  8  1  0
 26 21  1  0
 32 27  1  0
 17 11  1  0
  1 33  1  0
  1 34  1  0
  1 35  1  0
  3 36  1  0
  3 37  1  0
  4 38  1  0
  4 39  1  0
  5 40  1  0
  9 41  1  0
 10 42  1  0
 12 43  1  0
 15 44  1  0
 16 45  1  0
 21 46  1  1
 22 47  1  0
 22 48  1  0
 23 49  1  6
 24 50  1  0
 25 51  1  0
 25 52  1  0
 27 53  1  0
 28 54  1  0
 28 55  1  0
 29 56  1  0
 29 57  1  0
 30 58  1  0
 30 59  1  0
 31 60  1  0
 31 61  1  0
 32 62  1  0
 32 63  1  0
M  END
>  <smiles>  (38) 
CN(CCNC(=O)c1ccc2cc(F)ccc2n1)C(=O)[C@H]1C[C@H](O)CN1C1CCCCC1

>  <score_type>  (38) 
oracle

>  <origin>  (38) 
autodockgpu

>  <m_score__min__energy>  (38) 
-8.6799999999999997

>  <m_primary>  (38) 
energy

>  <rmsd>  (38) 
8.986867798895114

>  <m_score__min__rmsd>  (38) 
8.986867798895114

>  <meeko>  (38) 
{"free_energy": -5.98, "intermolecular_energy": -8.37, "internal_energy": -4.19, "cluster_size": 3, "cluster_id": 3, "rank_in_cluster": 3}

>  <energy>  (38) 
-7.42

>  <cluster_rmsd>  (38) 
0.0

>  <cluster>  (38) 
4

$$$$

     RDKit          3D

 63 66  0  0  0  0  0  0  0  0999 V2000
  141.0270   70.8220  218.6660 C   0  0  0  0  0  0  0  0  0  0  0  0
  141.2500   71.5850  219.8940 N   0  0  0  0  0  0  0  0  0  0  0  0
  140.0870   72.0040  220.6220 C   0  0  0  0  0  0  0  0  0  0  0  0
  139.2010   72.9240  219.8000 C   0  0  0  0  0  0  0  0  0  0  0  0
  139.4450   74.3220  220.0480 N   0  0  0  0  0  0  0  0  0  0  0  0
  139.7100   74.8670  221.3340 C   0  0  0  0  0  0  0  0  0  0  0  0
  139.7500   74.1530  222.3500 O   0  0  0  0  0  0  0  0  0  0  0  0
  139.9470   76.3140  221.4820 C   0  0  0  0  0  0  0  0  0  0  0  0
  139.3520   77.2180  220.6320 C   0  0  0  0  0  0  0  0  0  0  0  0
  139.5640   78.5800  220.7590 C   0  0  0  0  0  0  0  0  0  0  0  0
  140.3950   78.9970  221.7700 C   0  0  0  0  0  0  0  0  0  0  0  0
  140.6700   80.3500  221.9790 C   0  0  0  0  0  0  0  0  0  0  0  0
  141.5130   80.7280  223.0100 C   0  0  0  0  0  0  0  0  0  0  0  0
  141.7710   82.0470  223.2000 F   0  0  0  0  0  0  0  0  0  0  0  0
  142.1040   79.8280  223.8570 C   0  0  0  0  0  0  0  0  0  0  0  0
  141.8340   78.4810  223.6550 C   0  0  0  0  0  0  0  0  0  0  0  0
  140.9960   78.0970  222.6290 C   0  0  0  0  0  0  0  0  0  0  0  0
  140.7540   76.7890  222.4590 N   0  0  0  0  0  0  0  0  0  0  0  0
  142.5910   71.8540  220.2400 C   0  0  0  0  0  0  0  0  0  0  0  0
  143.3330   70.8570  220.4780 O   0  0  0  0  0  0  0  0  0  0  0  0
  143.1920   73.2040  220.3440 C   0  0  1  0  0  0  0  0  0  0  0  0
  144.6640   73.1000  220.6860 C   0  0  0  0  0  0  0  0  0  0  0  0
  145.2940   73.0170  219.2900 C   0  0  2  0  0  0  0  0  0  0  0  0
  146.6220   73.3840  219.2820 O   0  0  0  0  0  0  0  0  0  0  0  0
  144.4630   74.0640  218.5780 C   0  0  0  0  0  0  0  0  0  0  0  0
  143.1200   73.8580  219.0500 N   0  0  0  0  0  0  0  0  0  0  0  0
  142.3800   75.1040  219.1480 C   0  0  0  0  0  0  0  0  0  0  0  0
  143.2440   76.2160  219.6740 C   0  0  0  0  0  0  0  0  0  0  0  0
  142.4530   77.5250  219.5400 C   0  0  0  0  0  0  0  0  0  0  0  0
  142.5230   77.9010  218.0740 C   0  0  0  0  0  0  0  0  0  0  0  0
  142.4160   76.6900  217.2080 C   0  0  0  0  0  0  0  0  0  0  0  0
  141.7510   75.5090  217.8610 C   0  0  0  0  0  0  0  0  0  0  0  0
  140.7269   69.7951  218.9218 H   0  0  0  0  0  0  0  0  0  0  0  0
  140.2311   71.3005  218.0764 H   0  0  0  0  0  0  0  0  0  0  0  0
  141.9553   70.7966  218.0764 H   0  0  0  0  0  0  0  0  0  0  0  0
  139.5069   71.1139  220.9070 H   0  0  0  0  0  0  0  0  0  0  0  0
  140.4240   72.5606  221.5089 H   0  0  0  0  0  0  0  0  0  0  0  0
  139.3817   72.7219  218.7339 H   0  0  0  0  0  0  0  0  0  0  0  0
  138.1601   72.7186  220.0904 H   0  0  0  0  0  0  0  0  0  0  0  0
  139.4350   75.0280  219.2500 H   0  0  0  0  0  0  0  0  0  0  0  0
  138.6923   76.8495  219.8327 H   0  0  0  0  0  0  0  0  0  0  0  0
  139.0862   79.2994  220.0777 H   0  0  0  0  0  0  0  0  0  0  0  0
  140.2186   81.1124  221.3271 H   0  0  0  0  0  0  0  0  0  0  0  0
  142.7686   80.1605  224.6680 H   0  0  0  0  0  0  0  0  0  0  0  0
  142.2868   77.7229  224.3109 H   0  0  0  0  0  0  0  0  0  0  0  0
  142.6475   73.7622  221.1198 H   0  0  0  0  0  0  0  0  0  0  0  0
  145.0137   73.9880  221.2331 H   0  0  0  0  0  0  0  0  0  0  0  0
  144.9143   72.2542  221.3433 H   0  0  0  0  0  0  0  0  0  0  0  0
  145.2896   72.0062  218.8562 H   0  0  0  0  0  0  0  0  0  0  0  0
  146.6550   74.3820  219.3400 H   0  0  0  0  0  0  0  0  0  0  0  0
  144.8122   75.0750  218.8349 H   0  0  0  0  0  0  0  0  0  0  0  0
  144.5346   73.9744  217.4840 H   0  0  0  0  0  0  0  0  0  0  0  0
  141.5664   74.9147  219.8637 H   0  0  0  0  0  0  0  0  0  0  0  0
  143.4886   76.0326  220.7307 H   0  0  0  0  0  0  0  0  0  0  0  0
  144.1846   76.2744  219.1066 H   0  0  0  0  0  0  0  0  0  0  0  0
  141.4076   77.3741  219.8473 H   0  0  0  0  0  0  0  0  0  0  0  0
  142.8681   78.3165  220.1813 H   0  0  0  0  0  0  0  0  0  0  0  0
  141.6958   78.5867  217.8381 H   0  0  0  0  0  0  0  0  0  0  0  0
  143.4911   78.3864  217.8815 H   0  0  0  0  0  0  0  0  0  0  0  0
  141.8358   76.9587  216.3129 H   0  0  0  0  0  0  0  0  0  0  0  0
  143.4459   76.3796  216.9780 H   0  0  0  0  0  0  0  0  0  0  0  0
  140.6990   75.7659  218.0543 H   0  0  0  0  0  0  0  0  0  0  0  0
  141.8555   74.6590  217.1707 H   0  0  0  0  0  0  0  0  0  0  0  0
  1  2  1  0
  2  3  1  0
  3  4  1  0
  4  5  1  0
  5  6  1  0
  6  7  2  0
  6  8  1  0
  8  9  2  0
  9 10  1  0
 10 11  2  0
 11 12  1  0
 12 13  2  0
 13 14  1  0
 13 15  1  0
 15 16  2  0
 16 17  1  0
 17 18  2  0
  2 19  1  0
 19 20  2  0
 19 21  1  0
 21 22  1  0
 22 23  1  0
 23 24  1  0
 23 25  1  0
 25 26  1  0
 26 27  1  0
 27 28  1  0
 28 29  1  0
 29 30  1  0
 30 31  1  0
 31 32  1  0
 18  8  1  0
 26 21  1  0
 32 27  1  0
 17 11  1  0
  1 33  1  0
  1 34  1  0
  1 35  1  0
  3 36  1  0
  3 37  1  0
  4 38  1  0
  4 39  1  0
  5 40  1  0
  9 41  1  0
 10 42  1  0
 12 43  1  0
 15 44  1  0
 16 45  1  0
 21 46  1  1
 22 47  1  0
 22 48  1  0
 23 49  1  6
 24 50  1  0
 25 51  1  0
 25 52  1  0
 27 53  1  0
 28 54  1  0
 28 55  1  0
 29 56  1  0
 29 57  1  0
 30 58  1  0
 30 59  1  0
 31 60  1  0
 31 61  1  0
 32 62  1  0
 32 63  1  0
M  END
>  <smiles>  (39) 
CN(CCNC(=O)c1ccc2cc(F)ccc2n1)C(=O)[C@H]1C[C@H](O)CN1C1CCCCC1

>  <score_type>  (39) 
oracle

>  <origin>  (39) 
autodockgpu

>  <m_score__min__energy>  (39) 
-8.6799999999999997

>  <m_primary>  (39) 
energy

>  <rmsd>  (39) 
6.686152063332658

>  <m_score__min__rmsd>  (39) 
6.686152063332658

>  <meeko>  (39) 
{"free_energy": -6.72, "intermolecular_energy": -9.1, "internal_energy": -3.04, "cluster_size": 2, "cluster_id": 5, "rank_in_cluster": 2}

>  <energy>  (39) 
-6.89

>  <cluster_rmsd>  (39) 
0.0

>  <cluster>  (39) 
5

$$$$

     RDKit          3D

 63 66  0  0  0  0  0  0  0  0999 V2000
  137.1420   76.8270  221.1270 C   0  0  0  0  0  0  0  0  0  0  0  0
  138.2060   75.8250  221.1950 N   0  0  0  0  0  0  0  0  0  0  0  0
  137.9410   74.6460  221.9690 C   0  0  0  0  0  0  0  0  0  0  0  0
  138.8520   73.4940  221.5830 C   0  0  0  0  0  0  0  0  0  0  0  0
  139.1450   72.6060  222.6790 N   0  0  0  0  0  0  0  0  0  0  0  0
  138.8360   71.2190  222.6820 C   0  0  0  0  0  0  0  0  0  0  0  0
  138.2790   70.6710  221.7150 O   0  0  0  0  0  0  0  0  0  0  0  0
  139.1770   70.3940  223.8550 C   0  0  0  0  0  0  0  0  0  0  0  0
  138.9130   69.0440  223.8700 C   0  0  0  0  0  0  0  0  0  0  0  0
  139.2280   68.2560  224.9630 C   0  0  0  0  0  0  0  0  0  0  0  0
  139.8170   68.8750  226.0380 C   0  0  0  0  0  0  0  0  0  0  0  0
  140.1730   68.1650  227.1870 C   0  0  0  0  0  0  0  0  0  0  0  0
  140.7660   68.8280  228.2480 C   0  0  0  0  0  0  0  0  0  0  0  0
  141.1050   68.1250  229.3580 F   0  0  0  0  0  0  0  0  0  0  0  0
  141.0290   70.1720  228.2320 C   0  0  0  0  0  0  0  0  0  0  0  0
  140.6790   70.8840  227.0930 C   0  0  0  0  0  0  0  0  0  0  0  0
  140.0880   70.2300  226.0320 C   0  0  0  0  0  0  0  0  0  0  0  0
  139.7610   70.9440  224.9450 N   0  0  0  0  0  0  0  0  0  0  0  0
  139.4010   76.1190  220.5080 C   0  0  0  0  0  0  0  0  0  0  0  0
  139.4400   75.8360  219.2750 O   0  0  0  0  0  0  0  0  0  0  0  0
  140.6070   76.7320  221.1140 C   0  0  1  0  0  0  0  0  0  0  0  0
  141.8610   76.1060  220.5390 C   0  0  0  0  0  0  0  0  0  0  0  0
  142.1170   77.0040  219.3220 C   0  0  2  0  0  0  0  0  0  0  0  0
  143.4260   76.9620  218.8960 O   0  0  0  0  0  0  0  0  0  0  0  0
  141.8170   78.3540  219.9410 C   0  0  0  0  0  0  0  0  0  0  0  0
  140.6550   78.1390  220.7590 N   0  0  0  0  0  0  0  0  0  0  0  0
  140.6690   78.9650  221.9540 C   0  0  0  0  0  0  0  0  0  0  0  0
  141.4270   78.3040  223.0710 C   0  0  0  0  0  0  0  0  0  0  0  0
  141.5750   79.3270  224.2050 C   0  0  0  0  0  0  0  0  0  0  0  0
  142.6690   80.2770  223.7630 C   0  0  0  0  0  0  0  0  0  0  0  0
  142.5700   80.5600  222.3010 C   0  0  0  0  0  0  0  0  0  0  0  0
  141.2060   80.3320  221.7090 C   0  0  0  0  0  0  0  0  0  0  0  0
  136.8403   77.1112  222.1459 H   0  0  0  0  0  0  0  0  0  0  0  0
  137.5087   77.7154  220.5920 H   0  0  0  0  0  0  0  0  0  0  0  0
  136.2771   76.4077  220.5920 H   0  0  0  0  0  0  0  0  0  0  0  0
  138.0940   74.8783  223.0332 H   0  0  0  0  0  0  0  0  0  0  0  0
  136.9032   74.3380  221.7736 H   0  0  0  0  0  0  0  0  0  0  0  0
  138.3634   72.9148  220.7856 H   0  0  0  0  0  0  0  0  0  0  0  0
  139.8065   73.9303  221.2537 H   0  0  0  0  0  0  0  0  0  0  0  0
  139.6220   72.9650  223.5610 H   0  0  0  0  0  0  0  0  0  0  0  0
  138.4401   68.5798  222.9920 H   0  0  0  0  0  0  0  0  0  0  0  0
  139.0151   67.1768  224.9704 H   0  0  0  0  0  0  0  0  0  0  0  0
  139.9830   67.0833  227.2487 H   0  0  0  0  0  0  0  0  0  0  0  0
  141.5011   70.6699  229.0918 H   0  0  0  0  0  0  0  0  0  0  0  0
  140.8722   71.9654  227.0367 H   0  0  0  0  0  0  0  0  0  0  0  0
  140.5572   76.5820  222.2026 H   0  0  0  0  0  0  0  0  0  0  0  0
  142.6962   76.1491  221.2536 H   0  0  0  0  0  0  0  0  0  0  0  0
  141.7597   75.0379  220.2963 H   0  0  0  0  0  0  0  0  0  0  0  0
  141.5327   76.7295  218.4314 H   0  0  0  0  0  0  0  0  0  0  0  0
  143.9640   77.5190  219.5290 H   0  0  0  0  0  0  0  0  0  0  0  0
  142.6640   78.6946  220.5547 H   0  0  0  0  0  0  0  0  0  0  0  0
  141.6479   79.1291  219.1791 H   0  0  0  0  0  0  0  0  0  0  0  0
  139.6166   79.0761  222.2542 H   0  0  0  0  0  0  0  0  0  0  0  0
  140.8730   77.4242  223.4303 H   0  0  0  0  0  0  0  0  0  0  0  0
  142.4155   77.9714  222.7213 H   0  0  0  0  0  0  0  0  0  0  0  0
  140.6315   79.8723  224.3546 H   0  0  0  0  0  0  0  0  0  0  0  0
  141.8226   78.8403  225.1599 H   0  0  0  0  0  0  0  0  0  0  0  0
  142.5731   81.2208  224.3198 H   0  0  0  0  0  0  0  0  0  0  0  0
  143.6437   79.8090  223.9652 H   0  0  0  0  0  0  0  0  0  0  0  0
  142.8438   81.6125  222.1361 H   0  0  0  0  0  0  0  0  0  0  0  0
  143.2486   79.8536  221.8005 H   0  0  0  0  0  0  0  0  0  0  0  0
  140.5103   81.0624  222.1478 H   0  0  0  0  0  0  0  0  0  0  0  0
  141.3043   80.4487  220.6196 H   0  0  0  0  0  0  0  0  0  0  0  0
  1  2  1  0
  2  3  1  0
  3  4  1  0
  4  5  1  0
  5  6  1  0
  6  7  2  0
  6  8  1  0
  8  9  2  0
  9 10  1  0
 10 11  2  0
 11 12  1  0
 12 13  2  0
 13 14  1  0
 13 15  1  0
 15 16  2  0
 16 17  1  0
 17 18  2  0
  2 19  1  0
 19 20  2  0
 19 21  1  0
 21 22  1  0
 22 23  1  0
 23 24  1  0
 23 25  1  0
 25 26  1  0
 26 27  1  0
 27 28  1  0
 28 29  1  0
 29 30  1  0
 30 31  1  0
 31 32  1  0
 18  8  1  0
 26 21  1  0
 32 27  1  0
 17 11  1  0
  1 33  1  0
  1 34  1  0
  1 35  1  0
  3 36  1  0
  3 37  1  0
  4 38  1  0
  4 39  1  0
  5 40  1  0
  9 41  1  0
 10 42  1  0
 12 43  1  0
 15 44  1  0
 16 45  1  0
 21 46  1  1
 22 47  1  0
 22 48  1  0
 23 49  1  6
 24 50  1  0
 25 51  1  0
 25 52  1  0
 27 53  1  0
 28 54  1  0
 28 55  1  0
 29 56  1  0
 29 57  1  0
 30 58  1  0
 30 59  1  0
 31 60  1  0
 31 61  1  0
 32 62  1  0
 32 63  1  0
M  END
>  <smiles>  (40) 
CN(CCNC(=O)c1ccc2cc(F)ccc2n1)C(=O)[C@H]1C[C@H](O)CN1C1CCCCC1

>  <score_type>  (40) 
oracle

>  <origin>  (40) 
autodockgpu

>  <m_score__min__energy>  (40) 
-8.6799999999999997

>  <m_primary>  (40) 
energy

>  <rmsd>  (40) 
10.253214764733649

>  <m_score__min__rmsd>  (40) 
10.253214764733649

>  <meeko>  (40) 
{"free_energy": -8.18, "intermolecular_energy": -10.57, "internal_energy": -1.79, "cluster_size": 21, "cluster_id": 2, "rank_in_cluster": 9}

>  <energy>  (40) 
-6.72

>  <cluster_rmsd>  (40) 
1.31

>  <cluster>  (40) 
5

$$$$

     RDKit          3D

 63 66  0  0  0  0  0  0  0  0999 V2000
  141.0030   75.2950  218.6470 C   0  0  0  0  0  0  0  0  0  0  0  0
  141.6480   75.7660  219.8740 N   0  0  0  0  0  0  0  0  0  0  0  0
  142.0890   74.7660  220.8030 C   0  0  0  0  0  0  0  0  0  0  0  0
  141.7150   73.3650  220.3530 C   0  0  0  0  0  0  0  0  0  0  0  0
  141.4520   72.4650  221.4470 N   0  0  0  0  0  0  0  0  0  0  0  0
  140.4170   72.6580  222.4030 C   0  0  0  0  0  0  0  0  0  0  0  0
  139.6550   73.6390  222.3530 O   0  0  0  0  0  0  0  0  0  0  0  0
  140.2290   71.6780  223.4870 C   0  0  0  0  0  0  0  0  0  0  0  0
  139.5660   70.4930  223.2610 C   0  0  0  0  0  0  0  0  0  0  0  0
  139.3810   69.5630  224.2690 C   0  0  0  0  0  0  0  0  0  0  0  0
  139.8870   69.8670  225.5090 C   0  0  0  0  0  0  0  0  0  0  0  0
  139.7510   68.9930  226.5890 C   0  0  0  0  0  0  0  0  0  0  0  0
  140.2760   69.3380  227.8230 C   0  0  0  0  0  0  0  0  0  0  0  0
  140.1360   68.4790  228.8630 F   0  0  0  0  0  0  0  0  0  0  0  0
  140.9360   70.5180  228.0470 C   0  0  0  0  0  0  0  0  0  0  0  0
  141.0750   71.3910  226.9770 C   0  0  0  0  0  0  0  0  0  0  0  0
  140.5540   71.0540  225.7450 C   0  0  0  0  0  0  0  0  0  0  0  0
  140.7030   71.9180  224.7310 N   0  0  0  0  0  0  0  0  0  0  0  0
  141.7620   77.1620  220.0350 C   0  0  0  0  0  0  0  0  0  0  0  0
  142.6550   77.7480  219.3570 O   0  0  0  0  0  0  0  0  0  0  0  0
  140.9210   77.9900  220.9320 C   0  0  1  0  0  0  0  0  0  0  0  0
  139.4620   77.8760  220.5380 C   0  0  0  0  0  0  0  0  0  0  0  0
  139.0170   76.6680  221.3720 C   0  0  2  0  0  0  0  0  0  0  0  0
  137.6550   76.6310  221.5710 O   0  0  0  0  0  0  0  0  0  0  0  0
  139.7220   76.9900  222.6730 C   0  0  0  0  0  0  0  0  0  0  0  0
  141.0190   77.4750  222.2850 N   0  0  0  0  0  0  0  0  0  0  0  0
  141.5090   78.5020  223.1880 C   0  0  0  0  0  0  0  0  0  0  0  0
  142.5830   79.3340  222.5420 C   0  0  0  0  0  0  0  0  0  0  0  0
  142.8840   80.5150  223.4750 C   0  0  0  0  0  0  0  0  0  0  0  0
  141.7410   81.4910  223.2850 C   0  0  0  0  0  0  0  0  0  0  0  0
  140.4430   80.7700  223.1340 C   0  0  0  0  0  0  0  0  0  0  0  0
  140.4270   79.3810  223.7110 C   0  0  0  0  0  0  0  0  0  0  0  0
  140.1395   74.6644  218.9055 H   0  0  0  0  0  0  0  0  0  0  0  0
  140.6628   76.1587  218.0568 H   0  0  0  0  0  0  0  0  0  0  0  0
  141.7221   74.7080  218.0568 H   0  0  0  0  0  0  0  0  0  0  0  0
  143.1831   74.8279  220.8981 H   0  0  0  0  0  0  0  0  0  0  0  0
  141.5936   74.9562  221.7665 H   0  0  0  0  0  0  0  0  0  0  0  0
  140.8116   73.4286  219.7286 H   0  0  0  0  0  0  0  0  0  0  0  0
  142.5750   72.9609  219.7989 H   0  0  0  0  0  0  0  0  0  0  0  0
  142.0420   71.5900  221.5900 H   0  0  0  0  0  0  0  0  0  0  0  0
  139.1740   70.2803  222.2555 H   0  0  0  0  0  0  0  0  0  0  0  0
  138.8497   68.6177  224.0843 H   0  0  0  0  0  0  0  0  0  0  0  0
  139.2286   68.0336  226.4602 H   0  0  0  0  0  0  0  0  0  0  0  0
  141.3412   70.7645  229.0395 H   0  0  0  0  0  0  0  0  0  0  0  0
  141.5991   72.3488  227.1110 H   0  0  0  0  0  0  0  0  0  0  0  0
  141.2665   79.0319  220.8610 H   0  0  0  0  0  0  0  0  0  0  0  0
  138.8999   78.7816  220.8098 H   0  0  0  0  0  0  0  0  0  0  0  0
  139.2958   77.7618  219.4566 H   0  0  0  0  0  0  0  0  0  0  0  0
  139.2502   75.6960  220.9127 H   0  0  0  0  0  0  0  0  0  0  0  0
  137.3100   77.5610  221.4430 H   0  0  0  0  0  0  0  0  0  0  0  0
  139.1714   77.7624  223.2299 H   0  0  0  0  0  0  0  0  0  0  0  0
  139.7901   76.1130  223.3334 H   0  0  0  0  0  0  0  0  0  0  0  0
  141.9388   77.9661  224.0471 H   0  0  0  0  0  0  0  0  0  0  0  0
  143.4904   78.7289  222.3991 H   0  0  0  0  0  0  0  0  0  0  0  0
  142.2500   79.6959  221.5581 H   0  0  0  0  0  0  0  0  0  0  0  0
  142.9286   80.1758  224.5205 H   0  0  0  0  0  0  0  0  0  0  0  0
  143.8548   80.9775  223.2434 H   0  0  0  0  0  0  0  0  0  0  0  0
  141.6846   82.1541  224.1608 H   0  0  0  0  0  0  0  0  0  0  0  0
  141.9264   82.0750  222.3715 H   0  0  0  0  0  0  0  0  0  0  0  0
  139.6626   81.3595  223.6373 H   0  0  0  0  0  0  0  0  0  0  0  0
  140.2714   80.6603  222.0530 H   0  0  0  0  0  0  0  0  0  0  0  0
  140.5391   79.4573  224.8026 H   0  0  0  0  0  0  0  0  0  0  0  0
  139.4711   78.9226  223.4177 H   0  0  0  0  0  0  0  0  0  0  0  0
  1  2  1  0
  2  3  1  0
  3  4  1  0
  4  5  1  0
  5  6  1  0
  6  7  2  0
  6  8  1  0
  8  9  2  0
  9 10  1  0
 10 11  2  0
 11 12  1  0
 12 13  2  0
 13 14  1  0
 13 15  1  0
 15 16  2  0
 16 17  1  0
 17 18  2  0
  2 19  1  0
 19 20  2  0
 19 21  1  0
 21 22  1  0
 22 23  1  0
 23 24  1  0
 23 25  1  0
 25 26  1  0
 26 27  1  0
 27 28  1  0
 28 29  1  0
 29 30  1  0
 30 31  1  0
 31 32  1  0
 18  8  1  0
 26 21  1  0
 32 27  1  0
 17 11  1  0
  1 33  1  0
  1 34  1  0
  1 35  1  0
  3 36  1  0
  3 37  1  0
  4 38  1  0
  4 39  1  0
  5 40  1  0
  9 41  1  0
 10 42  1  0
 12 43  1  0
 15 44  1  0
 16 45  1  0
 21 46  1  1
 22 47  1  0
 22 48  1  0
 23 49  1  6
 24 50  1  0
 25 51  1  0
 25 52  1  0
 27 53  1  0
 28 54  1  0
 28 55  1  0
 29 56  1  0
 29 57  1  0
 30 58  1  0
 30 59  1  0
 31 60  1  0
 31 61  1  0
 32 62  1  0
 32 63  1  0
M  END
>  <smiles>  (41) 
CN(CCNC(=O)c1ccc2cc(F)ccc2n1)C(=O)[C@H]1C[C@H](O)CN1C1CCCCC1

>  <score_type>  (41) 
oracle

>  <origin>  (41) 
autodockgpu

>  <m_score__min__energy>  (41) 
-8.6799999999999997

>  <m_primary>  (41) 
energy

>  <rmsd>  (41) 
9.692605969424609

>  <m_score__min__rmsd>  (41) 
9.692605969424609

>  <meeko>  (41) 
{"free_energy": -8.2, "intermolecular_energy": -10.59, "internal_energy": -1.92, "cluster_size": 13, "cluster_id": 1, "rank_in_cluster": 8}

>  <energy>  (41) 
-6.8

>  <cluster_rmsd>  (41) 
0.0

>  <cluster>  (41) 
6

$$$$

     RDKit          3D

 63 66  0  0  0  0  0  0  0  0999 V2000
  137.8900   76.1400  222.7390 C   0  0  0  0  0  0  0  0  0  0  0  0
  138.6250   75.3860  221.7220 N   0  0  0  0  0  0  0  0  0  0  0  0
  137.8810   74.9290  220.5840 C   0  0  0  0  0  0  0  0  0  0  0  0
  137.2840   73.5510  220.8100 C   0  0  0  0  0  0  0  0  0  0  0  0
  137.8180   72.8810  221.9690 N   0  0  0  0  0  0  0  0  0  0  0  0
  137.7690   71.4740  222.1660 C   0  0  0  0  0  0  0  0  0  0  0  0
  137.2510   70.7150  221.3300 O   0  0  0  0  0  0  0  0  0  0  0  0
  138.3450   70.8850  223.3890 C   0  0  0  0  0  0  0  0  0  0  0  0
  137.9740   69.6280  223.8080 C   0  0  0  0  0  0  0  0  0  0  0  0
  138.5060   69.0610  224.9540 C   0  0  0  0  0  0  0  0  0  0  0  0
  139.4210   69.8030  225.6600 C   0  0  0  0  0  0  0  0  0  0  0  0
  140.0120   69.3180  226.8270 C   0  0  0  0  0  0  0  0  0  0  0  0
  140.9310   70.0990  227.5080 C   0  0  0  0  0  0  0  0  0  0  0  0
  141.4970   69.6130  228.6410 F   0  0  0  0  0  0  0  0  0  0  0  0
  141.2990   71.3500  227.0900 C   0  0  0  0  0  0  0  0  0  0  0  0
  140.7150   71.8390  225.9290 C   0  0  0  0  0  0  0  0  0  0  0  0
  139.7990   71.0660  225.2450 C   0  0  0  0  0  0  0  0  0  0  0  0
  139.2510   71.5650  224.1280 N   0  0  0  0  0  0  0  0  0  0  0  0
  139.9960   75.1640  221.9650 C   0  0  0  0  0  0  0  0  0  0  0  0
  140.3340   74.0030  222.3370 O   0  0  0  0  0  0  0  0  0  0  0  0
  141.0660   76.1800  221.8180 C   0  0  1  0  0  0  0  0  0  0  0  0
  141.7800   76.0040  220.4940 C   0  0  0  0  0  0  0  0  0  0  0  0
  140.9290   76.8870  219.5720 C   0  0  2  0  0  0  0  0  0  0  0  0
  141.6080   77.2830  218.4410 O   0  0  0  0  0  0  0  0  0  0  0  0
  140.7140   78.0720  220.4890 C   0  0  0  0  0  0  0  0  0  0  0  0
  140.4650   77.5010  221.7850 N   0  0  0  0  0  0  0  0  0  0  0  0
  140.9920   78.3290  222.8560 C   0  0  0  0  0  0  0  0  0  0  0  0
  142.1670   79.1450  222.3920 C   0  0  0  0  0  0  0  0  0  0  0  0
  142.5170   80.1360  223.5100 C   0  0  0  0  0  0  0  0  0  0  0  0
  141.4750   81.2320  223.4310 C   0  0  0  0  0  0  0  0  0  0  0  0
  140.1300   80.6670  223.1170 C   0  0  0  0  0  0  0  0  0  0  0  0
  139.9640   79.2140  223.4680 C   0  0  0  0  0  0  0  0  0  0  0  0
  138.2088   75.8129  223.7397 H   0  0  0  0  0  0  0  0  0  0  0  0
  138.0976   77.2137  222.6207 H   0  0  0  0  0  0  0  0  0  0  0  0
  136.8113   75.9599  222.6207 H   0  0  0  0  0  0  0  0  0  0  0  0
  137.0663   75.6404  220.3835 H   0  0  0  0  0  0  0  0  0  0  0  0
  138.5718   74.8639  219.7305 H   0  0  0  0  0  0  0  0  0  0  0  0
  136.1969   73.6584  220.9389 H   0  0  0  0  0  0  0  0  0  0  0  0
  137.5391   72.9378  219.9331 H   0  0  0  0  0  0  0  0  0  0  0  0
  138.2860   73.4320  222.7520 H   0  0  0  0  0  0  0  0  0  0  0  0
  137.2381   69.0606  223.2193 H   0  0  0  0  0  0  0  0  0  0  0  0
  138.2074   68.0557  225.2858 H   0  0  0  0  0  0  0  0  0  0  0  0
  139.7490   68.3190  227.2049 H   0  0  0  0  0  0  0  0  0  0  0  0
  142.0313   71.9464  227.6540 H   0  0  0  0  0  0  0  0  0  0  0  0
  140.9815   72.8389  225.5559 H   0  0  0  0  0  0  0  0  0  0  0  0
  141.7660   76.0655  222.6588 H   0  0  0  0  0  0  0  0  0  0  0  0
  142.8191   76.3611  220.5466 H   0  0  0  0  0  0  0  0  0  0  0  0
  141.8638   74.9581  220.1636 H   0  0  0  0  0  0  0  0  0  0  0  0
  140.0248   76.3929  219.1870 H   0  0  0  0  0  0  0  0  0  0  0  0
  142.3330   76.6140  218.2780 H   0  0  0  0  0  0  0  0  0  0  0  0
  141.6102   78.7094  220.5133 H   0  0  0  0  0  0  0  0  0  0  0  0
  139.8829   78.7090  220.1521 H   0  0  0  0  0  0  0  0  0  0  0  0
  141.3272   77.6307  223.6370 H   0  0  0  0  0  0  0  0  0  0  0  0
  143.0253   78.4864  222.1928 H   0  0  0  0  0  0  0  0  0  0  0  0
  141.9209   79.6820  221.4641 H   0  0  0  0  0  0  0  0  0  0  0  0
  142.4757   79.6381  224.4900 H   0  0  0  0  0  0  0  0  0  0  0  0
  143.5349   80.5360  223.3924 H   0  0  0  0  0  0  0  0  0  0  0  0
  141.4290   81.7554  224.3974 H   0  0  0  0  0  0  0  0  0  0  0  0
  141.7589   81.9295  222.6292 H   0  0  0  0  0  0  0  0  0  0  0  0
  139.3771   81.2430  223.6750 H   0  0  0  0  0  0  0  0  0  0  0  0
  140.0079   80.7402  222.0263 H   0  0  0  0  0  0  0  0  0  0  0  0
  140.0246   79.1119  224.5616 H   0  0  0  0  0  0  0  0  0  0  0  0
  138.9889   78.8967  223.0699 H   0  0  0  0  0  0  0  0  0  0  0  0
  1  2  1  0
  2  3  1  0
  3  4  1  0
  4  5  1  0
  5  6  1  0
  6  7  2  0
  6  8  1  0
  8  9  2  0
  9 10  1  0
 10 11  2  0
 11 12  1  0
 12 13  2  0
 13 14  1  0
 13 15  1  0
 15 16  2  0
 16 17  1  0
 17 18  2  0
  2 19  1  0
 19 20  2  0
 19 21  1  0
 21 22  1  0
 22 23  1  0
 23 24  1  0
 23 25  1  0
 25 26  1  0
 26 27  1  0
 27 28  1  0
 28 29  1  0
 29 30  1  0
 30 31  1  0
 31 32  1  0
 18  8  1  0
 26 21  1  0
 32 27  1  0
 17 11  1  0
  1 33  1  0
  1 34  1  0
  1 35  1  0
  3 36  1  0
  3 37  1  0
  4 38  1  0
  4 39  1  0
  5 40  1  0
  9 41  1  0
 10 42  1  0
 12 43  1  0
 15 44  1  0
 16 45  1  0
 21 46  1  1
 22 47  1  0
 22 48  1  0
 23 49  1  6
 24 50  1  0
 25 51  1  0
 25 52  1  0
 27 53  1  0
 28 54  1  0
 28 55  1  0
 29 56  1  0
 29 57  1  0
 30 58  1  0
 30 59  1  0
 31 60  1  0
 31 61  1  0
 32 62  1  0
 32 63  1  0
M  END
>  <smiles>  (42) 
CN(CCNC(=O)c1ccc2cc(F)ccc2n1)C(=O)[C@H]1C[C@H](O)CN1C1CCCCC1

>  <score_type>  (42) 
oracle

>  <origin>  (42) 
autodockgpu

>  <m_score__min__energy>  (42) 
-8.6799999999999997

>  <m_primary>  (42) 
energy

>  <rmsd>  (42) 
9.889678925455051

>  <m_score__min__rmsd>  (42) 
9.889678925455051

>  <meeko>  (42) 
{"free_energy": -8.02, "intermolecular_energy": -10.41, "internal_energy": -2.81, "cluster_size": 21, "cluster_id": 2, "rank_in_cluster": 13}

>  <energy>  (42) 
-6.71

>  <cluster_rmsd>  (42) 
1.72

>  <cluster>  (42) 
6

$$$$

     RDKit          3D

 63 66  0  0  0  0  0  0  0  0999 V2000
  141.8270   73.8010  220.8270 C   0  0  0  0  0  0  0  0  0  0  0  0
  141.0420   75.0210  220.6320 N   0  0  0  0  0  0  0  0  0  0  0  0
  139.8810   75.1870  221.4580 C   0  0  0  0  0  0  0  0  0  0  0  0
  138.9770   73.9670  221.4230 C   0  0  0  0  0  0  0  0  0  0  0  0
  139.2220   73.0450  222.5040 N   0  0  0  0  0  0  0  0  0  0  0  0
  138.9790   71.6470  222.4250 C   0  0  0  0  0  0  0  0  0  0  0  0
  138.5290   71.1180  221.3940 O   0  0  0  0  0  0  0  0  0  0  0  0
  139.2620   70.7870  223.5880 C   0  0  0  0  0  0  0  0  0  0  0  0
  138.9370   69.4500  223.5740 C   0  0  0  0  0  0  0  0  0  0  0  0
  139.1970   68.6300  224.6580 C   0  0  0  0  0  0  0  0  0  0  0  0
  139.7950   69.2020  225.7540 C   0  0  0  0  0  0  0  0  0  0  0  0
  140.0980   68.4570  226.8950 C   0  0  0  0  0  0  0  0  0  0  0  0
  140.7020   69.0740  227.9780 C   0  0  0  0  0  0  0  0  0  0  0  0
  140.9900   68.3370  229.0800 F   0  0  0  0  0  0  0  0  0  0  0  0
  141.0270   70.4050  227.9910 C   0  0  0  0  0  0  0  0  0  0  0  0
  140.7290   71.1510  226.8590 C   0  0  0  0  0  0  0  0  0  0  0  0
  140.1270   70.5440  225.7760 C   0  0  0  0  0  0  0  0  0  0  0  0
  139.8510   71.2900  224.6980 N   0  0  0  0  0  0  0  0  0  0  0  0
  141.4910   75.9130  219.6370 C   0  0  0  0  0  0  0  0  0  0  0  0
  141.1420   75.6670  218.4450 O   0  0  0  0  0  0  0  0  0  0  0  0
  142.3340   77.1080  219.8780 C   0  0  1  0  0  0  0  0  0  0  0  0
  142.9350   77.5980  218.5760 C   0  0  0  0  0  0  0  0  0  0  0  0
  141.8490   78.5650  218.0880 C   0  0  2  0  0  0  0  0  0  0  0  0
  142.3280   79.4920  217.1880 O   0  0  0  0  0  0  0  0  0  0  0  0
  141.5100   79.2430  219.3990 C   0  0  0  0  0  0  0  0  0  0  0  0
  141.5000   78.1860  220.3740 N   0  0  0  0  0  0  0  0  0  0  0  0
  141.9680   78.6380  221.6720 C   0  0  0  0  0  0  0  0  0  0  0  0
  142.1760   80.1270  221.6940 C   0  0  0  0  0  0  0  0  0  0  0  0
  142.4560   80.5380  223.1460 C   0  0  0  0  0  0  0  0  0  0  0  0
  141.1140   80.5190  223.8470 C   0  0  0  0  0  0  0  0  0  0  0  0
  140.2860   79.3680  223.3800 C   0  0  0  0  0  0  0  0  0  0  0  0
  141.0710   78.2300  222.7880 C   0  0  0  0  0  0  0  0  0  0  0  0
  141.9489   73.6116  221.9037 H   0  0  0  0  0  0  0  0  0  0  0  0
  141.3057   72.9513  220.3619 H   0  0  0  0  0  0  0  0  0  0  0  0
  142.8163   73.9233  220.3619 H   0  0  0  0  0  0  0  0  0  0  0  0
  140.2049   75.3590  222.4950 H   0  0  0  0  0  0  0  0  0  0  0  0
  139.3095   76.0438  221.0716 H   0  0  0  0  0  0  0  0  0  0  0  0
  137.9319   74.3050  221.4823 H   0  0  0  0  0  0  0  0  0  0  0  0
  139.1869   73.4325  220.4848 H   0  0  0  0  0  0  0  0  0  0  0  0
  139.6080   73.3860  223.4360 H   0  0  0  0  0  0  0  0  0  0  0  0
  138.4592   69.0229  222.6800 H   0  0  0  0  0  0  0  0  0  0  0  0
  138.9349   67.5618  224.6424 H   0  0  0  0  0  0  0  0  0  0  0  0
  139.8580   67.3842  226.9338 H   0  0  0  0  0  0  0  0  0  0  0  0
  141.5068   70.8658  228.8670 H   0  0  0  0  0  0  0  0  0  0  0  0
  140.9722   72.2233  226.8254 H   0  0  0  0  0  0  0  0  0  0  0  0
  143.1219   76.8335  220.5948 H   0  0  0  0  0  0  0  0  0  0  0  0
  143.8903   78.1169  218.7437 H   0  0  0  0  0  0  0  0  0  0  0  0
  143.1780   76.7967  217.8626 H   0  0  0  0  0  0  0  0  0  0  0  0
  141.0185   78.0757  217.5581 H   0  0  0  0  0  0  0  0  0  0  0  0
  143.3180   79.3660  217.1290 H   0  0  0  0  0  0  0  0  0  0  0  0
  142.2709   79.9957  219.6529 H   0  0  0  0  0  0  0  0  0  0  0  0
  140.5464   79.7716  219.3533 H   0  0  0  0  0  0  0  0  0  0  0  0
  142.9356   78.1398  221.8316 H   0  0  0  0  0  0  0  0  0  0  0  0
  143.0319   80.3951  221.0571 H   0  0  0  0  0  0  0  0  0  0  0  0
  141.2846   80.6461  221.3119 H   0  0  0  0  0  0  0  0  0  0  0  0
  143.1457   79.8240  223.6199 H   0  0  0  0  0  0  0  0  0  0  0  0
  142.9276   81.5302  223.2018 H   0  0  0  0  0  0  0  0  0  0  0  0
  141.2753   80.4302  224.9315 H   0  0  0  0  0  0  0  0  0  0  0  0
  140.5818   81.4529  223.6132 H   0  0  0  0  0  0  0  0  0  0  0  0
  139.7188   78.9824  224.2400 H   0  0  0  0  0  0  0  0  0  0  0  0
  139.6423   79.7537  222.5757 H   0  0  0  0  0  0  0  0  0  0  0  0
  141.6865   77.7825  223.5823 H   0  0  0  0  0  0  0  0  0  0  0  0
  140.3421   77.5195  222.3710 H   0  0  0  0  0  0  0  0  0  0  0  0
  1  2  1  0
  2  3  1  0
  3  4  1  0
  4  5  1  0
  5  6  1  0
  6  7  2  0
  6  8  1  0
  8  9  2  0
  9 10  1  0
 10 11  2  0
 11 12  1  0
 12 13  2  0
 13 14  1  0
 13 15  1  0
 15 16  2  0
 16 17  1  0
 17 18  2  0
  2 19  1  0
 19 20  2  0
 19 21  1  0
 21 22  1  0
 22 23  1  0
 23 24  1  0
 23 25  1  0
 25 26  1  0
 26 27  1  0
 27 28  1  0
 28 29  1  0
 29 30  1  0
 30 31  1  0
 31 32  1  0
 18  8  1  0
 26 21  1  0
 32 27  1  0
 17 11  1  0
  1 33  1  0
  1 34  1  0
  1 35  1  0
  3 36  1  0
  3 37  1  0
  4 38  1  0
  4 39  1  0
  5 40  1  0
  9 41  1  0
 10 42  1  0
 12 43  1  0
 15 44  1  0
 16 45  1  0
 21 46  1  1
 22 47  1  0
 22 48  1  0
 23 49  1  6
 24 50  1  0
 25 51  1  0
 25 52  1  0
 27 53  1  0
 28 54  1  0
 28 55  1  0
 29 56  1  0
 29 57  1  0
 30 58  1  0
 30 59  1  0
 31 60  1  0
 31 61  1  0
 32 62  1  0
 32 63  1  0
M  END
>  <smiles>  (43) 
CN(CCNC(=O)c1ccc2cc(F)ccc2n1)C(=O)[C@H]1C[C@H](O)CN1C1CCCCC1

>  <score_type>  (43) 
oracle

>  <origin>  (43) 
autodockgpu

>  <m_score__min__energy>  (43) 
-8.6799999999999997

>  <m_primary>  (43) 
energy

>  <rmsd>  (43) 
9.868120814592588

>  <m_score__min__rmsd>  (43) 
9.868120814592588

>  <meeko>  (43) 
{"free_energy": -8.57, "intermolecular_energy": -10.96, "internal_energy": -1.86, "cluster_size": 21, "cluster_id": 2, "rank_in_cluster": 2}

>  <energy>  (43) 
-6.67

>  <cluster_rmsd>  (43) 
1.95

>  <cluster>  (43) 
6

$$$$

     RDKit          3D

 63 66  0  0  0  0  0  0  0  0999 V2000
  137.2420   80.4760  220.5910 C   0  0  0  0  0  0  0  0  0  0  0  0
  138.5660   79.8740  220.7550 N   0  0  0  0  0  0  0  0  0  0  0  0
  139.7010   80.7210  220.5220 C   0  0  0  0  0  0  0  0  0  0  0  0
  140.5760   80.2030  219.3950 C   0  0  0  0  0  0  0  0  0  0  0  0
  140.8760   78.7980  219.5050 N   0  0  0  0  0  0  0  0  0  0  0  0
  142.0690   78.2000  219.0150 C   0  0  0  0  0  0  0  0  0  0  0  0
  142.9500   78.8680  218.4480 O   0  0  0  0  0  0  0  0  0  0  0  0
  142.2820   76.7510  219.1770 C   0  0  0  0  0  0  0  0  0  0  0  0
  141.3280   75.8470  218.7710 C   0  0  0  0  0  0  0  0  0  0  0  0
  141.5140   74.4830  218.9160 C   0  0  0  0  0  0  0  0  0  0  0  0
  142.6910   74.0630  219.4840 C   0  0  0  0  0  0  0  0  0  0  0  0
  142.9710   72.7080  219.6720 C   0  0  0  0  0  0  0  0  0  0  0  0
  144.1710   72.3280  220.2480 C   0  0  0  0  0  0  0  0  0  0  0  0
  144.4280   71.0080  220.4250 F   0  0  0  0  0  0  0  0  0  0  0  0
  145.1210   73.2280  220.6520 C   0  0  0  0  0  0  0  0  0  0  0  0
  144.8500   74.5770  220.4680 C   0  0  0  0  0  0  0  0  0  0  0  0
  143.6560   74.9640  219.8950 C   0  0  0  0  0  0  0  0  0  0  0  0
  143.4220   76.2730  219.7290 N   0  0  0  0  0  0  0  0  0  0  0  0
  138.6040   78.5100  221.1110 C   0  0  0  0  0  0  0  0  0  0  0  0
  138.0560   77.6930  220.3150 O   0  0  0  0  0  0  0  0  0  0  0  0
  139.2320   77.9640  222.3380 C   0  0  1  0  0  0  0  0  0  0  0  0
  138.6850   76.5830  222.6380 C   0  0  0  0  0  0  0  0  0  0  0  0
  139.6540   75.6960  221.8470 C   0  0  2  0  0  0  0  0  0  0  0  0
  139.6850   74.3980  222.3080 O   0  0  0  0  0  0  0  0  0  0  0  0
  140.9570   76.3940  222.1750 C   0  0  0  0  0  0  0  0  0  0  0  0
  140.6550   77.7980  222.1090 N   0  0  0  0  0  0  0  0  0  0  0  0
  141.4200   78.5660  223.0760 C   0  0  0  0  0  0  0  0  0  0  0  0
  142.4880   79.3860  222.4060 C   0  0  0  0  0  0  0  0  0  0  0  0
  143.0940   80.3180  223.4640 C   0  0  0  0  0  0  0  0  0  0  0  0
  142.0860   81.4320  223.6580 C   0  0  0  0  0  0  0  0  0  0  0  0
  140.6920   80.9020  223.6170 C   0  0  0  0  0  0  0  0  0  0  0  0
  140.5680   79.4370  223.9320 C   0  0  0  0  0  0  0  0  0  0  0  0
  136.8045   80.6749  221.5805 H   0  0  0  0  0  0  0  0  0  0  0  0
  137.3350   81.4204  220.0346 H   0  0  0  0  0  0  0  0  0  0  0  0
  136.5915   79.7852  220.0346 H   0  0  0  0  0  0  0  0  0  0  0  0
  139.3446   81.7283  220.2605 H   0  0  0  0  0  0  0  0  0  0  0  0
  140.3057   80.7386  221.4407 H   0  0  0  0  0  0  0  0  0  0  0  0
  140.0552   80.3750  218.4415 H   0  0  0  0  0  0  0  0  0  0  0  0
  141.5316   80.7451  219.4495 H   0  0  0  0  0  0  0  0  0  0  0  0
  140.1930   78.1280  219.9730 H   0  0  0  0  0  0  0  0  0  0  0  0
  140.3952   76.2168  218.3204 H   0  0  0  0  0  0  0  0  0  0  0  0
  140.7486   73.7638  218.5889 H   0  0  0  0  0  0  0  0  0  0  0  0
  142.2407   71.9454  219.3635 H   0  0  0  0  0  0  0  0  0  0  0  0
  146.0654   72.8937  221.1062 H   0  0  0  0  0  0  0  0  0  0  0  0
  145.5846   75.3348  220.7780 H   0  0  0  0  0  0  0  0  0  0  0  0
  139.0253   78.6564  223.1674 H   0  0  0  0  0  0  0  0  0  0  0  0
  138.7230   76.3602  223.7145 H   0  0  0  0  0  0  0  0  0  0  0  0
  137.6278   76.4489  222.3655 H   0  0  0  0  0  0  0  0  0  0  0  0
  139.4030   75.5987  220.7805 H   0  0  0  0  0  0  0  0  0  0  0  0
  138.8940   74.2760  222.9080 H   0  0  0  0  0  0  0  0  0  0  0  0
  141.2993   76.1193  223.1837 H   0  0  0  0  0  0  0  0  0  0  0  0
  141.7625   76.1120  221.4810 H   0  0  0  0  0  0  0  0  0  0  0  0
  141.8979   77.8265  223.7354 H   0  0  0  0  0  0  0  0  0  0  0  0
  143.2673   78.7251  221.9986 H   0  0  0  0  0  0  0  0  0  0  0  0
  142.0617   79.9701  221.5771 H   0  0  0  0  0  0  0  0  0  0  0  0
  143.2515   79.7752  224.4077 H   0  0  0  0  0  0  0  0  0  0  0  0
  144.0727   80.7079  223.1475 H   0  0  0  0  0  0  0  0  0  0  0  0
  142.2609   81.9101  224.6331 H   0  0  0  0  0  0  0  0  0  0  0  0
  142.2084   82.1622  222.8444 H   0  0  0  0  0  0  0  0  0  0  0  0
  140.0908   81.4620  224.3484 H   0  0  0  0  0  0  0  0  0  0  0  0
  140.3416   81.0283  222.5820 H   0  0  0  0  0  0  0  0  0  0  0  0
  140.8574   79.2819  224.9819 H   0  0  0  0  0  0  0  0  0  0  0  0
  139.5228   79.1541  223.7384 H   0  0  0  0  0  0  0  0  0  0  0  0
  1  2  1  0
  2  3  1  0
  3  4  1  0
  4  5  1  0
  5  6  1  0
  6  7  2  0
  6  8  1  0
  8  9  2  0
  9 10  1  0
 10 11  2  0
 11 12  1  0
 12 13  2  0
 13 14  1  0
 13 15  1  0
 15 16  2  0
 16 17  1  0
 17 18  2  0
  2 19  1  0
 19 20  2  0
 19 21  1  0
 21 22  1  0
 22 23  1  0
 23 24  1  0
 23 25  1  0
 25 26  1  0
 26 27  1  0
 27 28  1  0
 28 29  1  0
 29 30  1  0
 30 31  1  0
 31 32  1  0
 18  8  1  0
 26 21  1  0
 32 27  1  0
 17 11  1  0
  1 33  1  0
  1 34  1  0
  1 35  1  0
  3 36  1  0
  3 37  1  0
  4 38  1  0
  4 39  1  0
  5 40  1  0
  9 41  1  0
 10 42  1  0
 12 43  1  0
 15 44  1  0
 16 45  1  0
 21 46  1  1
 22 47  1  0
 22 48  1  0
 23 49  1  6
 24 50  1  0
 25 51  1  0
 25 52  1  0
 27 53  1  0
 28 54  1  0
 28 55  1  0
 29 56  1  0
 29 57  1  0
 30 58  1  0
 30 59  1  0
 31 60  1  0
 31 61  1  0
 32 62  1  0
 32 63  1  0
M  END
>  <smiles>  (44) 
CN(CCNC(=O)c1ccc2cc(F)ccc2n1)C(=O)[C@H]1C[C@H](O)CN1C1CCCCC1

>  <score_type>  (44) 
oracle

>  <origin>  (44) 
autodockgpu

>  <m_score__min__energy>  (44) 
-8.6799999999999997

>  <m_primary>  (44) 
energy

>  <rmsd>  (44) 
8.371751066023139

>  <m_score__min__rmsd>  (44) 
8.371751066023139

>  <meeko>  (44) 
{"free_energy": -6.71, "intermolecular_energy": -9.1, "internal_energy": -4.14, "cluster_size": 5, "cluster_id": 6, "rank_in_cluster": 2}

>  <energy>  (44) 
-6.65

>  <cluster_rmsd>  (44) 
1.98

>  <cluster>  (44) 
6

$$$$

     RDKit          3D

 63 66  0  0  0  0  0  0  0  0999 V2000
  141.5750   73.5430  220.6200 C   0  0  0  0  0  0  0  0  0  0  0  0
  140.3420   74.3140  220.7920 N   0  0  0  0  0  0  0  0  0  0  0  0
  139.1980   73.8880  220.0390 C   0  0  0  0  0  0  0  0  0  0  0  0
  138.1660   73.1960  220.9130 C   0  0  0  0  0  0  0  0  0  0  0  0
  138.7010   72.7320  222.1680 N   0  0  0  0  0  0  0  0  0  0  0  0
  139.1030   71.3900  222.4120 C   0  0  0  0  0  0  0  0  0  0  0  0
  139.0170   70.5120  221.5370 O   0  0  0  0  0  0  0  0  0  0  0  0
  139.6390   71.0150  223.7330 C   0  0  0  0  0  0  0  0  0  0  0  0
  140.4410   71.8800  224.4420 C   0  0  0  0  0  0  0  0  0  0  0  0
  140.9510   71.5420  225.6830 C   0  0  0  0  0  0  0  0  0  0  0  0
  140.6270   70.3050  226.1840 C   0  0  0  0  0  0  0  0  0  0  0  0
  141.0930   69.8740  227.4270 C   0  0  0  0  0  0  0  0  0  0  0  0
  140.7410   68.6190  227.8950 C   0  0  0  0  0  0  0  0  0  0  0  0
  141.2020   68.2140  229.1040 F   0  0  0  0  0  0  0  0  0  0  0  0
  139.9420   67.7580  227.1890 C   0  0  0  0  0  0  0  0  0  0  0  0
  139.4750   68.1810  225.9520 C   0  0  0  0  0  0  0  0  0  0  0  0
  139.8220   69.4300  225.4790 C   0  0  0  0  0  0  0  0  0  0  0  0
  139.3550   69.8110  224.2820 N   0  0  0  0  0  0  0  0  0  0  0  0
  140.4000   75.4160  221.6700 C   0  0  0  0  0  0  0  0  0  0  0  0
  139.6530   75.3760  222.6910 O   0  0  0  0  0  0  0  0  0  0  0  0
  141.2620   76.6080  221.4900 C   0  0  1  0  0  0  0  0  0  0  0  0
  141.6600   76.7540  220.0350 C   0  0  0  0  0  0  0  0  0  0  0  0
  140.5080   77.6080  219.4910 C   0  0  2  0  0  0  0  0  0  0  0  0
  140.8420   78.2780  218.3350 O   0  0  0  0  0  0  0  0  0  0  0  0
  140.3630   78.5900  220.6350 C   0  0  0  0  0  0  0  0  0  0  0  0
  140.5040   77.7980  221.8270 N   0  0  0  0  0  0  0  0  0  0  0  0
  141.1570   78.5330  222.8960 C   0  0  0  0  0  0  0  0  0  0  0  0
  142.3140   79.3430  222.3780 C   0  0  0  0  0  0  0  0  0  0  0  0
  142.8020   80.2440  223.5210 C   0  0  0  0  0  0  0  0  0  0  0  0
  141.7980   81.3740  223.6120 C   0  0  0  0  0  0  0  0  0  0  0  0
  140.4100   80.8740  223.3890 C   0  0  0  0  0  0  0  0  0  0  0  0
  140.2220   79.4060  223.6580 C   0  0  0  0  0  0  0  0  0  0  0  0
  141.9870   73.2854  221.6068 H   0  0  0  0  0  0  0  0  0  0  0  0
  141.3559   72.6207  220.0620 H   0  0  0  0  0  0  0  0  0  0  0  0
  142.3083   74.1438  220.0620 H   0  0  0  0  0  0  0  0  0  0  0  0
  138.7335   74.7682  219.5705 H   0  0  0  0  0  0  0  0  0  0  0  0
  139.5394   73.1672  219.2815 H   0  0  0  0  0  0  0  0  0  0  0  0
  137.3524   73.9063  221.1215 H   0  0  0  0  0  0  0  0  0  0  0  0
  137.8131   72.3116  220.3623 H   0  0  0  0  0  0  0  0  0  0  0  0
  138.8200   73.3970  222.9910 H   0  0  0  0  0  0  0  0  0  0  0  0
  140.6822   72.8633  224.0119 H   0  0  0  0  0  0  0  0  0  0  0  0
  141.5910   72.2370  226.2464 H   0  0  0  0  0  0  0  0  0  0  0  0
  141.7373   70.5285  228.0325 H   0  0  0  0  0  0  0  0  0  0  0  0
  139.6801   66.7671  227.5883 H   0  0  0  0  0  0  0  0  0  0  0  0
  138.8305   67.5227  225.3509 H   0  0  0  0  0  0  0  0  0  0  0  0
  142.1493   76.4895  222.1293 H   0  0  0  0  0  0  0  0  0  0  0  0
  142.6264   77.2692  219.9319 H   0  0  0  0  0  0  0  0  0  0  0  0
  141.7991   75.7982  219.5085 H   0  0  0  0  0  0  0  0  0  0  0  0
  139.6114   77.0308  219.2208 H   0  0  0  0  0  0  0  0  0  0  0  0
  140.4520   79.1960  218.3990 H   0  0  0  0  0  0  0  0  0  0  0  0
  141.1486   79.3585  220.5865 H   0  0  0  0  0  0  0  0  0  0  0  0
  139.4001   79.1208  220.6037 H   0  0  0  0  0  0  0  0  0  0  0  0
  141.5361   77.7727  223.5947 H   0  0  0  0  0  0  0  0  0  0  0  0
  143.1254   78.6738  222.0560 H   0  0  0  0  0  0  0  0  0  0  0  0
  142.0034   79.9500  221.5148 H   0  0  0  0  0  0  0  0  0  0  0  0
  142.8326   79.6816  224.4659 H   0  0  0  0  0  0  0  0  0  0  0  0
  143.8190   80.6196  223.3348 H   0  0  0  0  0  0  0  0  0  0  0  0
  141.8599   81.8308  224.6107 H   0  0  0  0  0  0  0  0  0  0  0  0
  142.0330   82.1156  222.8343 H   0  0  0  0  0  0  0  0  0  0  0  0
  139.7333   81.4336  224.0515 H   0  0  0  0  0  0  0  0  0  0  0  0
  140.1920   81.0256  222.3215 H   0  0  0  0  0  0  0  0  0  0  0  0
  140.3775   79.2271  224.7322 H   0  0  0  0  0  0  0  0  0  0  0  0
  139.2036   79.1475  223.3324 H   0  0  0  0  0  0  0  0  0  0  0  0
  1  2  1  0
  2  3  1  0
  3  4  1  0
  4  5  1  0
  5  6  1  0
  6  7  2  0
  6  8  1  0
  8  9  2  0
  9 10  1  0
 10 11  2  0
 11 12  1  0
 12 13  2  0
 13 14  1  0
 13 15  1  0
 15 16  2  0
 16 17  1  0
 17 18  2  0
  2 19  1  0
 19 20  2  0
 19 21  1  0
 21 22  1  0
 22 23  1  0
 23 24  1  0
 23 25  1  0
 25 26  1  0
 26 27  1  0
 27 28  1  0
 28 29  1  0
 29 30  1  0
 30 31  1  0
 31 32  1  0
 18  8  1  0
 26 21  1  0
 32 27  1  0
 17 11  1  0
  1 33  1  0
  1 34  1  0
  1 35  1  0
  3 36  1  0
  3 37  1  0
  4 38  1  0
  4 39  1  0
  5 40  1  0
  9 41  1  0
 10 42  1  0
 12 43  1  0
 15 44  1  0
 16 45  1  0
 21 46  1  1
 22 47  1  0
 22 48  1  0
 23 49  1  6
 24 50  1  0
 25 51  1  0
 25 52  1  0
 27 53  1  0
 28 54  1  0
 28 55  1  0
 29 56  1  0
 29 57  1  0
 30 58  1  0
 30 59  1  0
 31 60  1  0
 31 61  1  0
 32 62  1  0
 32 63  1  0
M  END
>  <smiles>  (45) 
CN(CCNC(=O)c1ccc2cc(F)ccc2n1)C(=O)[C@H]1C[C@H](O)CN1C1CCCCC1

>  <score_type>  (45) 
oracle

>  <origin>  (45) 
autodockgpu

>  <m_score__min__energy>  (45) 
-8.6799999999999997

>  <m_primary>  (45) 
energy

>  <rmsd>  (45) 
9.386833404463157

>  <m_score__min__rmsd>  (45) 
9.386833404463157

>  <meeko>  (45) 
{"free_energy": -8.38, "intermolecular_energy": -10.76, "internal_energy": -2.42, "cluster_size": 13, "cluster_id": 1, "rank_in_cluster": 5}

>  <energy>  (45) 
-6.59

>  <cluster_rmsd>  (45) 
1.9

>  <cluster>  (45) 
6

$$$$

     RDKit          3D

 63 66  0  0  0  0  0  0  0  0999 V2000
  141.2060   73.7090  219.6650 C   0  0  0  0  0  0  0  0  0  0  0  0
  141.1980   75.0150  220.3250 N   0  0  0  0  0  0  0  0  0  0  0  0
  140.0490   75.3350  221.1230 C   0  0  0  0  0  0  0  0  0  0  0  0
  139.0660   74.1810  221.1930 C   0  0  0  0  0  0  0  0  0  0  0  0
  139.2970   73.3010  222.3110 N   0  0  0  0  0  0  0  0  0  0  0  0
  139.2800   71.8830  222.2230 C   0  0  0  0  0  0  0  0  0  0  0  0
  139.0600   71.2970  221.1490 O   0  0  0  0  0  0  0  0  0  0  0  0
  139.5290   71.0700  223.4270 C   0  0  0  0  0  0  0  0  0  0  0  0
  139.2370   69.7250  223.4450 C   0  0  0  0  0  0  0  0  0  0  0  0
  139.4650   68.9490  224.5680 C   0  0  0  0  0  0  0  0  0  0  0  0
  139.9960   69.5740  225.6700 C   0  0  0  0  0  0  0  0  0  0  0  0
  140.2620   68.8760  226.8490 C   0  0  0  0  0  0  0  0  0  0  0  0
  140.7990   69.5440  227.9370 C   0  0  0  0  0  0  0  0  0  0  0  0
  141.0510   68.8520  229.0760 F   0  0  0  0  0  0  0  0  0  0  0  0
  141.0890   70.8820  227.9190 C   0  0  0  0  0  0  0  0  0  0  0  0
  140.8280   71.5820  226.7480 C   0  0  0  0  0  0  0  0  0  0  0  0
  140.2930   70.9230  225.6610 C   0  0  0  0  0  0  0  0  0  0  0  0
  140.0510   71.6260  224.5450 N   0  0  0  0  0  0  0  0  0  0  0  0
  142.3150   75.8470  220.1020 C   0  0  0  0  0  0  0  0  0  0  0  0
  143.4290   75.2750  219.9160 O   0  0  0  0  0  0  0  0  0  0  0  0
  142.2840   77.3280  220.0660 C   0  0  1  0  0  0  0  0  0  0  0  0
  142.9460   77.8380  218.8030 C   0  0  0  0  0  0  0  0  0  0  0  0
  141.7580   77.8730  217.8330 C   0  0  2  0  0  0  0  0  0  0  0  0
  141.9630   78.7250  216.7700 O   0  0  0  0  0  0  0  0  0  0  0  0
  140.6990   78.4400  218.7550 C   0  0  0  0  0  0  0  0  0  0  0  0
  140.9040   77.7740  220.0120 N   0  0  0  0  0  0  0  0  0  0  0  0
  140.6020   78.6360  221.1420 C   0  0  0  0  0  0  0  0  0  0  0  0
  141.1220   78.0580  222.4290 C   0  0  0  0  0  0  0  0  0  0  0  0
  140.9530   79.1230  223.5210 C   0  0  0  0  0  0  0  0  0  0  0  0
  142.0660   80.1260  223.2940 C   0  0  0  0  0  0  0  0  0  0  0  0
  142.2860   80.3570  221.8360 C   0  0  0  0  0  0  0  0  0  0  0  0
  141.1060   80.0260  220.9640 C   0  0  0  0  0  0  0  0  0  0  0  0
  141.2109   72.9140  220.4252 H   0  0  0  0  0  0  0  0  0  0  0  0
  140.3084   73.6101  219.0368 H   0  0  0  0  0  0  0  0  0  0  0  0
  142.1047   73.6211  219.0368 H   0  0  0  0  0  0  0  0  0  0  0  0
  140.3818   75.5803  222.1424 H   0  0  0  0  0  0  0  0  0  0  0  0
  139.5375   76.1890  220.6550 H   0  0  0  0  0  0  0  0  0  0  0  0
  138.0496   74.5930  221.2774 H   0  0  0  0  0  0  0  0  0  0  0  0
  139.1977   73.5855  220.2776 H   0  0  0  0  0  0  0  0  0  0  0  0
  139.4950   73.6920  223.2820 H   0  0  0  0  0  0  0  0  0  0  0  0
  138.8123   69.2557  222.5453 H   0  0  0  0  0  0  0  0  0  0  0  0
  139.2303   67.8744  224.5778 H   0  0  0  0  0  0  0  0  0  0  0  0
  140.0459   67.7994  226.9139 H   0  0  0  0  0  0  0  0  0  0  0  0
  141.5136   71.3847  228.8005 H   0  0  0  0  0  0  0  0  0  0  0  0
  141.0473   72.6582  226.6878 H   0  0  0  0  0  0  0  0  0  0  0  0
  142.8041   77.7031  220.9598 H   0  0  0  0  0  0  0  0  0  0  0  0
  143.3753   78.8400  218.9500 H   0  0  0  0  0  0  0  0  0  0  0  0
  143.7909   77.2238  218.4580 H   0  0  0  0  0  0  0  0  0  0  0  0
  141.5343   76.9036  217.3637 H   0  0  0  0  0  0  0  0  0  0  0  0
  142.9240   79.0020  216.7920 H   0  0  0  0  0  0  0  0  0  0  0  0
  140.8266   79.5267  218.8681 H   0  0  0  0  0  0  0  0  0  0  0  0
  139.6831   78.2808  218.3642 H   0  0  0  0  0  0  0  0  0  0  0  0
  139.5045   78.6905  221.1928 H   0  0  0  0  0  0  0  0  0  0  0  0
  140.5495   77.1566  222.6931 H   0  0  0  0  0  0  0  0  0  0  0  0
  142.1805   77.7773  222.3253 H   0  0  0  0  0  0  0  0  0  0  0  0
  139.9719   79.6122  223.4306 H   0  0  0  0  0  0  0  0  0  0  0  0
  141.0034   78.6827  224.5277 H   0  0  0  0  0  0  0  0  0  0  0  0
  141.7954   81.0787  223.7727 H   0  0  0  0  0  0  0  0  0  0  0  0
  142.9934   79.7264  223.7303 H   0  0  0  0  0  0  0  0  0  0  0  0
  142.5329   81.4190  221.6904 H   0  0  0  0  0  0  0  0  0  0  0  0
  143.0976   79.6795  221.5322 H   0  0  0  0  0  0  0  0  0  0  0  0
  140.2906   80.7245  221.2031 H   0  0  0  0  0  0  0  0  0  0  0  0
  141.4421   80.1152  219.9204 H   0  0  0  0  0  0  0  0  0  0  0  0
  1  2  1  0
  2  3  1  0
  3  4  1  0
  4  5  1  0
  5  6  1  0
  6  7  2  0
  6  8  1  0
  8  9  2  0
  9 10  1  0
 10 11  2  0
 11 12  1  0
 12 13  2  0
 13 14  1  0
 13 15  1  0
 15 16  2  0
 16 17  1  0
 17 18  2  0
  2 19  1  0
 19 20  2  0
 19 21  1  0
 21 22  1  0
 22 23  1  0
 23 24  1  0
 23 25  1  0
 25 26  1  0
 26 27  1  0
 27 28  1  0
 28 29  1  0
 29 30  1  0
 30 31  1  0
 31 32  1  0
 18  8  1  0
 26 21  1  0
 32 27  1  0
 17 11  1  0
  1 33  1  0
  1 34  1  0
  1 35  1  0
  3 36  1  0
  3 37  1  0
  4 38  1  0
  4 39  1  0
  5 40  1  0
  9 41  1  0
 10 42  1  0
 12 43  1  0
 15 44  1  0
 16 45  1  0
 21 46  1  1
 22 47  1  0
 22 48  1  0
 23 49  1  6
 24 50  1  0
 25 51  1  0
 25 52  1  0
 27 53  1  0
 28 54  1  0
 28 55  1  0
 29 56  1  0
 29 57  1  0
 30 58  1  0
 30 59  1  0
 31 60  1  0
 31 61  1  0
 32 62  1  0
 32 63  1  0
M  END
>  <smiles>  (46) 
CN(CCNC(=O)c1ccc2cc(F)ccc2n1)C(=O)[C@H]1C[C@H](O)CN1C1CCCCC1

>  <score_type>  (46) 
oracle

>  <origin>  (46) 
autodockgpu

>  <m_score__min__energy>  (46) 
-8.6799999999999997

>  <m_primary>  (46) 
energy

>  <rmsd>  (46) 
9.79759963937545

>  <m_score__min__rmsd>  (46) 
9.79759963937545

>  <meeko>  (46) 
{"free_energy": -7.94, "intermolecular_energy": -10.33, "internal_energy": -1.9, "cluster_size": 21, "cluster_id": 2, "rank_in_cluster": 14}

>  <energy>  (46) 
-6.62

>  <cluster_rmsd>  (46) 
0.0

>  <cluster>  (46) 
7

$$$$

     RDKit          3D

 63 66  0  0  0  0  0  0  0  0999 V2000
  136.8560   76.7660  222.8780 C   0  0  0  0  0  0  0  0  0  0  0  0
  137.7720   75.8400  222.2110 N   0  0  0  0  0  0  0  0  0  0  0  0
  137.1920   74.6860  221.5860 C   0  0  0  0  0  0  0  0  0  0  0  0
  138.2400   73.6500  221.2180 C   0  0  0  0  0  0  0  0  0  0  0  0
  138.6720   72.8530  222.3370 N   0  0  0  0  0  0  0  0  0  0  0  0
  138.4790   71.4480  222.4330 C   0  0  0  0  0  0  0  0  0  0  0  0
  137.9120   70.8030  221.5350 O   0  0  0  0  0  0  0  0  0  0  0  0
  138.9600   70.7210  223.6220 C   0  0  0  0  0  0  0  0  0  0  0  0
  138.8100   69.3570  223.7240 C   0  0  0  0  0  0  0  0  0  0  0  0
  139.2560   68.6610  224.8340 C   0  0  0  0  0  0  0  0  0  0  0  0
  139.8560   69.3850  225.8350 C   0  0  0  0  0  0  0  0  0  0  0  0
  140.3390   68.7730  226.9930 C   0  0  0  0  0  0  0  0  0  0  0  0
  140.9380   69.5410  227.9770 C   0  0  0  0  0  0  0  0  0  0  0  0
  141.4010   68.9320  229.0970 F   0  0  0  0  0  0  0  0  0  0  0  0
  141.0870   70.8990  227.8750 C   0  0  0  0  0  0  0  0  0  0  0  0
  140.6100   71.5140  226.7250 C   0  0  0  0  0  0  0  0  0  0  0  0
  140.0110   70.7550  225.7400 C   0  0  0  0  0  0  0  0  0  0  0  0
  139.5600   71.3770  224.6420 N   0  0  0  0  0  0  0  0  0  0  0  0
  139.1450   76.1590  222.2600 C   0  0  0  0  0  0  0  0  0  0  0  0
  139.9280   75.2670  222.6980 O   0  0  0  0  0  0  0  0  0  0  0  0
  139.7370   77.4520  221.8400 C   0  0  1  0  0  0  0  0  0  0  0  0
  139.4830   77.6920  220.3650 C   0  0  0  0  0  0  0  0  0  0  0  0
  138.1330   78.4180  220.4050 C   0  0  2  0  0  0  0  0  0  0  0  0
  137.8940   79.1600  219.2700 O   0  0  0  0  0  0  0  0  0  0  0  0
  138.3790   79.3380  221.5830 C   0  0  0  0  0  0  0  0  0  0  0  0
  139.0740   78.5310  222.5480 N   0  0  0  0  0  0  0  0  0  0  0  0
  140.0360   79.3050  223.3140 C   0  0  0  0  0  0  0  0  0  0  0  0
  141.4270   78.7550  223.1630 C   0  0  0  0  0  0  0  0  0  0  0  0
  142.3960   79.7480  223.8200 C   0  0  0  0  0  0  0  0  0  0  0  0
  142.5330   80.8970  222.8420 C   0  0  0  0  0  0  0  0  0  0  0  0
  141.2240   81.2080  222.1970 C   0  0  0  0  0  0  0  0  0  0  0  0
  140.0190   80.7540  222.9750 C   0  0  0  0  0  0  0  0  0  0  0  0
  136.9589   76.6620  223.9682 H   0  0  0  0  0  0  0  0  0  0  0  0
  137.0988   77.7977  222.5836 H   0  0  0  0  0  0  0  0  0  0  0  0
  135.8217   76.5344  222.5836 H   0  0  0  0  0  0  0  0  0  0  0  0
  136.4713   74.2305  222.2810 H   0  0  0  0  0  0  0  0  0  0  0  0
  136.6988   75.0139  220.6590 H   0  0  0  0  0  0  0  0  0  0  0  0
  137.8158   72.9801  220.4555 H   0  0  0  0  0  0  0  0  0  0  0  0
  139.1206   74.1953  220.8477 H   0  0  0  0  0  0  0  0  0  0  0  0
  139.1700   73.2990  223.1660 H   0  0  0  0  0  0  0  0  0  0  0  0
  138.3244   68.8071  222.9044 H   0  0  0  0  0  0  0  0  0  0  0  0
  139.1346   67.5705  224.9115 H   0  0  0  0  0  0  0  0  0  0  0  0
  140.2441   67.6849  227.1232 H   0  0  0  0  0  0  0  0  0  0  0  0
  141.5672   71.4813  228.6752 H   0  0  0  0  0  0  0  0  0  0  0  0
  140.7092   72.6023  226.5995 H   0  0  0  0  0  0  0  0  0  0  0  0
  140.8158   77.4204  222.0527 H   0  0  0  0  0  0  0  0  0  0  0  0
  140.2661   78.3229  219.9193 H   0  0  0  0  0  0  0  0  0  0  0  0
  139.4840   76.7774  219.7538 H   0  0  0  0  0  0  0  0  0  0  0  0
  137.2650   77.7462  220.4776 H   0  0  0  0  0  0  0  0  0  0  0  0
  137.7390   80.1050  219.5580 H   0  0  0  0  0  0  0  0  0  0  0  0
  138.9968   80.1964  221.2805 H   0  0  0  0  0  0  0  0  0  0  0  0
  137.4427   79.7501  221.9874 H   0  0  0  0  0  0  0  0  0  0  0  0
  139.7265   79.2127  224.3655 H   0  0  0  0  0  0  0  0  0  0  0  0
  141.4989   77.7766  223.6605 H   0  0  0  0  0  0  0  0  0  0  0  0
  141.6749   78.6214  222.0997 H   0  0  0  0  0  0  0  0  0  0  0  0
  141.9880   80.1057  224.7769 H   0  0  0  0  0  0  0  0  0  0  0  0
  143.3685   79.2822  224.0372 H   0  0  0  0  0  0  0  0  0  0  0  0
  142.8894   81.7875  223.3806 H   0  0  0  0  0  0  0  0  0  0  0  0
  143.2499   80.6079  222.0593 H   0  0  0  0  0  0  0  0  0  0  0  0
  141.1567   82.2980  222.0654 H   0  0  0  0  0  0  0  0  0  0  0  0
  141.2066   80.6566  221.2453 H   0  0  0  0  0  0  0  0  0  0  0  0
  139.9736   81.3291  223.9116 H   0  0  0  0  0  0  0  0  0  0  0  0
  139.1407   80.9238  222.3348 H   0  0  0  0  0  0  0  0  0  0  0  0
  1  2  1  0
  2  3  1  0
  3  4  1  0
  4  5  1  0
  5  6  1  0
  6  7  2  0
  6  8  1  0
  8  9  2  0
  9 10  1  0
 10 11  2  0
 11 12  1  0
 12 13  2  0
 13 14  1  0
 13 15  1  0
 15 16  2  0
 16 17  1  0
 17 18  2  0
  2 19  1  0
 19 20  2  0
 19 21  1  0
 21 22  1  0
 22 23  1  0
 23 24  1  0
 23 25  1  0
 25 26  1  0
 26 27  1  0
 27 28  1  0
 28 29  1  0
 29 30  1  0
 30 31  1  0
 31 32  1  0
 18  8  1  0
 26 21  1  0
 32 27  1  0
 17 11  1  0
  1 33  1  0
  1 34  1  0
  1 35  1  0
  3 36  1  0
  3 37  1  0
  4 38  1  0
  4 39  1  0
  5 40  1  0
  9 41  1  0
 10 42  1  0
 12 43  1  0
 15 44  1  0
 16 45  1  0
 21 46  1  6
 22 47  1  0
 22 48  1  0
 23 49  1  1
 24 50  1  0
 25 51  1  0
 25 52  1  0
 27 53  1  0
 28 54  1  0
 28 55  1  0
 29 56  1  0
 29 57  1  0
 30 58  1  0
 30 59  1  0
 31 60  1  0
 31 61  1  0
 32 62  1  0
 32 63  1  0
M  END
>  <smiles>  (47) 
CN(CCNC(=O)c1ccc2cc(F)ccc2n1)C(=O)[C@H]1C[C@H](O)CN1C1CCCCC1

>  <score_type>  (47) 
oracle

>  <origin>  (47) 
autodockgpu

>  <m_score__min__energy>  (47) 
-8.6799999999999997

>  <m_primary>  (47) 
energy

>  <rmsd>  (47) 
10.27902571088913

>  <m_score__min__rmsd>  (47) 
10.27902571088913

>  <meeko>  (47) 
{"free_energy": -7.81, "intermolecular_energy": -10.19, "internal_energy": -2.43, "cluster_size": 21, "cluster_id": 2, "rank_in_cluster": 18}

>  <energy>  (47) 
-6.34

>  <cluster_rmsd>  (47) 
0.98

>  <cluster>  (47) 
7

$$$$

     RDKit          3D

 63 66  0  0  0  0  0  0  0  0999 V2000
  137.7150   80.8840  225.0880 C   0  0  0  0  0  0  0  0  0  0  0  0
  138.2520   81.0010  223.7320 N   0  0  0  0  0  0  0  0  0  0  0  0
  137.3700   81.5170  222.7250 C   0  0  0  0  0  0  0  0  0  0  0  0
  136.9850   80.4580  221.7080 C   0  0  0  0  0  0  0  0  0  0  0  0
  138.0220   79.4840  221.4780 N   0  0  0  0  0  0  0  0  0  0  0  0
  138.0050   78.1640  222.0060 C   0  0  0  0  0  0  0  0  0  0  0  0
  137.0700   77.7580  222.7160 O   0  0  0  0  0  0  0  0  0  0  0  0
  139.1160   77.2420  221.7110 C   0  0  0  0  0  0  0  0  0  0  0  0
  139.1360   75.9700  222.2360 C   0  0  0  0  0  0  0  0  0  0  0  0
  140.1720   75.0920  221.9690 C   0  0  0  0  0  0  0  0  0  0  0  0
  141.1850   75.5400  221.1560 C   0  0  0  0  0  0  0  0  0  0  0  0
  142.2720   74.7290  220.8290 C   0  0  0  0  0  0  0  0  0  0  0  0
  143.2720   75.2190  220.0050 C   0  0  0  0  0  0  0  0  0  0  0  0
  144.3230   74.4190  219.6960 F   0  0  0  0  0  0  0  0  0  0  0  0
  143.2510   76.4850  219.4820 C   0  0  0  0  0  0  0  0  0  0  0  0
  142.1720   77.2970  219.8040 C   0  0  0  0  0  0  0  0  0  0  0  0
  141.1720   76.8150  220.6240 C   0  0  0  0  0  0  0  0  0  0  0  0
  140.1430   77.6220  220.9170 N   0  0  0  0  0  0  0  0  0  0  0  0
  139.5840   80.5800  223.5380 C   0  0  0  0  0  0  0  0  0  0  0  0
  139.9530   79.5390  224.1550 O   0  0  0  0  0  0  0  0  0  0  0  0
  140.5770   81.2570  222.6700 C   0  0  1  0  0  0  0  0  0  0  0  0
  141.9000   81.3960  223.3950 C   0  0  0  0  0  0  0  0  0  0  0  0
  142.5910   80.0800  223.0170 C   0  0  2  0  0  0  0  0  0  0  0  0
  143.9610   80.1430  223.1420 O   0  0  0  0  0  0  0  0  0  0  0  0
  142.2070   80.0080  221.5530 C   0  0  0  0  0  0  0  0  0  0  0  0
  140.8340   80.4300  221.5060 N   0  0  0  0  0  0  0  0  0  0  0  0
  140.5290   81.1570  220.2860 C   0  0  0  0  0  0  0  0  0  0  0  0
  141.1360   82.5320  220.3000 C   0  0  0  0  0  0  0  0  0  0  0  0
  140.9500   83.1390  218.9030 C   0  0  0  0  0  0  0  0  0  0  0  0
  141.9900   82.4760  218.0240 C   0  0  0  0  0  0  0  0  0  0  0  0
  142.1350   81.0310  218.3670 C   0  0  0  0  0  0  0  0  0  0  0  0
  140.9420   80.4280  219.0550 C   0  0  0  0  0  0  0  0  0  0  0  0
  138.5195   81.0593  225.8174 H   0  0  0  0  0  0  0  0  0  0  0  0
  136.9197   81.6299  225.2330 H   0  0  0  0  0  0  0  0  0  0  0  0
  137.3021   79.8748  225.2330 H   0  0  0  0  0  0  0  0  0  0  0  0
  136.4568   81.8911  223.2109 H   0  0  0  0  0  0  0  0  0  0  0  0
  137.8969   82.3228  222.1929 H   0  0  0  0  0  0  0  0  0  0  0  0
  136.0887   79.9342  222.0717 H   0  0  0  0  0  0  0  0  0  0  0  0
  136.8052   80.9737  220.7532 H   0  0  0  0  0  0  0  0  0  0  0  0
  138.8730   79.7220  220.8820 H   0  0  0  0  0  0  0  0  0  0  0  0
  138.3088   75.6433  222.8833 H   0  0  0  0  0  0  0  0  0  0  0  0
  140.1839   74.0762  222.3908 H   0  0  0  0  0  0  0  0  0  0  0  0
  142.3348   73.7043  221.2240 H   0  0  0  0  0  0  0  0  0  0  0  0
  144.0604   76.8454  218.8300 H   0  0  0  0  0  0  0  0  0  0  0  0
  142.1143   78.3212  219.4069 H   0  0  0  0  0  0  0  0  0  0  0  0
  140.1755   82.2432  222.3939 H   0  0  0  0  0  0  0  0  0  0  0  0
  142.4672   82.2666  223.0340 H   0  0  0  0  0  0  0  0  0  0  0  0
  141.8043   81.5589  224.4787 H   0  0  0  0  0  0  0  0  0  0  0  0
  142.3006   79.2249  223.6451 H   0  0  0  0  0  0  0  0  0  0  0  0
  144.3550   79.7420  222.3150 H   0  0  0  0  0  0  0  0  0  0  0  0
  142.8387   80.6807  220.9543 H   0  0  0  0  0  0  0  0  0  0  0  0
  142.3424   78.9975  221.1401 H   0  0  0  0  0  0  0  0  0  0  0  0
  139.4333   81.2495  220.2583 H   0  0  0  0  0  0  0  0  0  0  0  0
  140.6300   83.1572  221.0504 H   0  0  0  0  0  0  0  0  0  0  0  0
  142.2041   82.4787  220.5576 H   0  0  0  0  0  0  0  0  0  0  0  0
  139.9386   82.9285  218.5253 H   0  0  0  0  0  0  0  0  0  0  0  0
  141.0691   84.2324  218.9172 H   0  0  0  0  0  0  0  0  0  0  0  0
  141.6830   82.5672  216.9716 H   0  0  0  0  0  0  0  0  0  0  0  0
  142.9570   82.9744  218.1870 H   0  0  0  0  0  0  0  0  0  0  0  0
  142.3119   80.4734  217.4355 H   0  0  0  0  0  0  0  0  0  0  0  0
  142.9722   80.9618  219.0771 H   0  0  0  0  0  0  0  0  0  0  0  0
  140.0972   80.4297  218.3505 H   0  0  0  0  0  0  0  0  0  0  0  0
  141.2287   79.4120  219.3641 H   0  0  0  0  0  0  0  0  0  0  0  0
  1  2  1  0
  2  3  1  0
  3  4  1  0
  4  5  1  0
  5  6  1  0
  6  7  2  0
  6  8  1  0
  8  9  2  0
  9 10  1  0
 10 11  2  0
 11 12  1  0
 12 13  2  0
 13 14  1  0
 13 15  1  0
 15 16  2  0
 16 17  1  0
 17 18  2  0
  2 19  1  0
 19 20  2  0
 19 21  1  0
 21 22  1  0
 22 23  1  0
 23 24  1  0
 23 25  1  0
 25 26  1  0
 26 27  1  0
 27 28  1  0
 28 29  1  0
 29 30  1  0
 30 31  1  0
 31 32  1  0
 18  8  1  0
 26 21  1  0
 32 27  1  0
 17 11  1  0
  1 33  1  0
  1 34  1  0
  1 35  1  0
  3 36  1  0
  3 37  1  0
  4 38  1  0
  4 39  1  0
  5 40  1  0
  9 41  1  0
 10 42  1  0
 12 43  1  0
 15 44  1  0
 16 45  1  0
 21 46  1  6
 22 47  1  0
 22 48  1  0
 23 49  1  1
 24 50  1  0
 25 51  1  0
 25 52  1  0
 27 53  1  0
 28 54  1  0
 28 55  1  0
 29 56  1  0
 29 57  1  0
 30 58  1  0
 30 59  1  0
 31 60  1  0
 31 61  1  0
 32 62  1  0
 32 63  1  0
M  END
>  <smiles>  (48) 
CN(CCNC(=O)c1ccc2cc(F)ccc2n1)C(=O)[C@H]1C[C@H](O)CN1C1CCCCC1

>  <score_type>  (48) 
oracle

>  <origin>  (48) 
autodockgpu

>  <m_score__min__energy>  (48) 
-8.6799999999999997

>  <m_primary>  (48) 
energy

>  <rmsd>  (48) 
9.813602834134318

>  <m_score__min__rmsd>  (48) 
9.813602834134318

>  <meeko>  (48) 
{"free_energy": -5.96, "intermolecular_energy": -8.34, "internal_energy": -4.09, "cluster_size": 2, "cluster_id": 8, "rank_in_cluster": 1}

>  <energy>  (48) 
-5.96

>  <cluster_rmsd>  (48) 
0.0

>  <cluster>  (48) 
8

$$$$

     RDKit          3D

 63 66  0  0  0  0  0  0  0  0999 V2000
  136.7680   79.9620  221.9750 C   0  0  0  0  0  0  0  0  0  0  0  0
  137.9290   79.7070  221.1220 N   0  0  0  0  0  0  0  0  0  0  0  0
  138.3590   80.7760  220.2690 C   0  0  0  0  0  0  0  0  0  0  0  0
  139.8690   80.9320  220.2670 C   0  0  0  0  0  0  0  0  0  0  0  0
  140.5640   79.7490  219.8260 N   0  0  0  0  0  0  0  0  0  0  0  0
  141.6130   79.7550  218.8660 C   0  0  0  0  0  0  0  0  0  0  0  0
  142.0050   80.8070  218.3340 O   0  0  0  0  0  0  0  0  0  0  0  0
  142.2610   78.4890  218.4810 C   0  0  0  0  0  0  0  0  0  0  0  0
  142.6810   78.2760  217.1880 C   0  0  0  0  0  0  0  0  0  0  0  0
  143.2920   77.0920  216.8110 C   0  0  0  0  0  0  0  0  0  0  0  0
  143.4650   76.1340  217.7800 C   0  0  0  0  0  0  0  0  0  0  0  0
  144.0710   74.9090  217.4980 C   0  0  0  0  0  0  0  0  0  0  0  0
  144.2260   73.9710  218.5050 C   0  0  0  0  0  0  0  0  0  0  0  0
  144.8160   72.7840  218.2150 F   0  0  0  0  0  0  0  0  0  0  0  0
  143.8080   74.1840  219.7920 C   0  0  0  0  0  0  0  0  0  0  0  0
  143.2050   75.4020  220.0790 C   0  0  0  0  0  0  0  0  0  0  0  0
  143.0470   76.3410  219.0810 C   0  0  0  0  0  0  0  0  0  0  0  0
  142.4610   77.5060  219.3890 N   0  0  0  0  0  0  0  0  0  0  0  0
  138.5080   78.4230  221.2070 C   0  0  0  0  0  0  0  0  0  0  0  0
  138.4220   77.6860  220.1820 O   0  0  0  0  0  0  0  0  0  0  0  0
  139.2060   77.8770  222.3950 C   0  0  1  0  0  0  0  0  0  0  0  0
  138.7280   76.4690  222.6840 C   0  0  0  0  0  0  0  0  0  0  0  0
  139.7010   75.6400  221.8350 C   0  0  2  0  0  0  0  0  0  0  0  0
  139.8040   74.3350  222.2640 O   0  0  0  0  0  0  0  0  0  0  0  0
  140.9860   76.3850  222.1290 C   0  0  0  0  0  0  0  0  0  0  0  0
  140.6250   77.7760  222.1080 N   0  0  0  0  0  0  0  0  0  0  0  0
  141.3950   78.5540  223.0640 C   0  0  0  0  0  0  0  0  0  0  0  0
  142.4690   79.3550  222.3810 C   0  0  0  0  0  0  0  0  0  0  0  0
  143.0820   80.2990  223.4240 C   0  0  0  0  0  0  0  0  0  0  0  0
  142.0820   81.4240  223.5990 C   0  0  0  0  0  0  0  0  0  0  0  0
  140.6840   80.9040  223.5650 C   0  0  0  0  0  0  0  0  0  0  0  0
  140.5490   79.4450  223.9040 C   0  0  0  0  0  0  0  0  0  0  0  0
  137.0676   79.8962  223.0314 H   0  0  0  0  0  0  0  0  0  0  0  0
  136.3744   80.9680  221.7675 H   0  0  0  0  0  0  0  0  0  0  0  0
  135.9891   79.2135  221.7675 H   0  0  0  0  0  0  0  0  0  0  0  0
  138.0224   80.5682  219.2426 H   0  0  0  0  0  0  0  0  0  0  0  0
  137.9221   81.7107  220.6504 H   0  0  0  0  0  0  0  0  0  0  0  0
  140.1332   81.7626  219.5960 H   0  0  0  0  0  0  0  0  0  0  0  0
  140.1780   81.1233  221.3052 H   0  0  0  0  0  0  0  0  0  0  0  0
  140.3120   78.7900  220.2140 H   0  0  0  0  0  0  0  0  0  0  0  0
  142.5278   79.0646  216.4365 H   0  0  0  0  0  0  0  0  0  0  0  0
  143.6257   76.9252  215.7762 H   0  0  0  0  0  0  0  0  0  0  0  0
  144.4242   74.6892  216.4797 H   0  0  0  0  0  0  0  0  0  0  0  0
  143.9449   73.4184  220.5699 H   0  0  0  0  0  0  0  0  0  0  0  0
  142.8545   75.6171  221.0992 H   0  0  0  0  0  0  0  0  0  0  0  0
  139.0043   78.5421  223.2476 H   0  0  0  0  0  0  0  0  0  0  0  0
  138.8177   76.2249  223.7528 H   0  0  0  0  0  0  0  0  0  0  0  0
  137.6671   76.2968  222.4499 H   0  0  0  0  0  0  0  0  0  0  0  0
  139.4119   75.5551  220.7771 H   0  0  0  0  0  0  0  0  0  0  0  0
  139.0520   74.1720  222.9030 H   0  0  0  0  0  0  0  0  0  0  0  0
  141.3787   76.1027  223.1170 H   0  0  0  0  0  0  0  0  0  0  0  0
  141.7740   76.1524  221.3976 H   0  0  0  0  0  0  0  0  0  0  0  0
  141.8666   77.8222  223.7364 H   0  0  0  0  0  0  0  0  0  0  0  0
  143.2432   78.6818  221.9842 H   0  0  0  0  0  0  0  0  0  0  0  0
  142.0471   79.9290  221.5428 H   0  0  0  0  0  0  0  0  0  0  0  0
  143.2348   79.7704  224.3765 H   0  0  0  0  0  0  0  0  0  0  0  0
  144.0640   80.6759  223.1021 H   0  0  0  0  0  0  0  0  0  0  0  0
  142.2596   81.9164  224.5664 H   0  0  0  0  0  0  0  0  0  0  0  0
  142.2107   82.1400  222.7739 H   0  0  0  0  0  0  0  0  0  0  0  0
  140.0862   81.4804  224.2864 H   0  0  0  0  0  0  0  0  0  0  0  0
  140.3355   81.0160  222.5277 H   0  0  0  0  0  0  0  0  0  0  0  0
  140.8362   79.3052  224.9566 H   0  0  0  0  0  0  0  0  0  0  0  0
  139.5020   79.1667  223.7137 H   0  0  0  0  0  0  0  0  0  0  0  0
  1  2  1  0
  2  3  1  0
  3  4  1  0
  4  5  1  0
  5  6  1  0
  6  7  2  0
  6  8  1  0
  8  9  2  0
  9 10  1  0
 10 11  2  0
 11 12  1  0
 12 13  2  0
 13 14  1  0
 13 15  1  0
 15 16  2  0
 16 17  1  0
 17 18  2  0
  2 19  1  0
 19 20  2  0
 19 21  1  0
 21 22  1  0
 22 23  1  0
 23 24  1  0
 23 25  1  0
 25 26  1  0
 26 27  1  0
 27 28  1  0
 28 29  1  0
 29 30  1  0
 30 31  1  0
 31 32  1  0
 18  8  1  0
 26 21  1  0
 32 27  1  0
 17 11  1  0
  1 33  1  0
  1 34  1  0
  1 35  1  0
  3 36  1  0
  3 37  1  0
  4 38  1  0
  4 39  1  0
  5 40  1  0
  9 41  1  0
 10 42  1  0
 12 43  1  0
 15 44  1  0
 16 45  1  0
 21 46  1  1
 22 47  1  0
 22 48  1  0
 23 49  1  6
 24 50  1  0
 25 51  1  0
 25 52  1  0
 27 53  1  0
 28 54  1  0
 28 55  1  0
 29 56  1  0
 29 57  1  0
 30 58  1  0
 30 59  1  0
 31 60  1  0
 31 61  1  0
 32 62  1  0
 32 63  1  0
M  END
>  <smiles>  (49) 
CN(CCNC(=O)c1ccc2cc(F)ccc2n1)C(=O)[C@H]1C[C@H](O)CN1C1CCCCC1

>  <score_type>  (49) 
oracle

>  <origin>  (49) 
autodockgpu

>  <m_score__min__energy>  (49) 
-8.6799999999999997

>  <m_primary>  (49) 
energy

>  <rmsd>  (49) 
8.178321126074605

>  <m_score__min__rmsd>  (49) 
8.178321126074605

>  <meeko>  (49) 
{"free_energy": -6.62, "intermolecular_energy": -9.0, "internal_energy": -4.37, "cluster_size": 2, "cluster_id": 7, "rank_in_cluster": 1}

>  <energy>  (49) 
-5.65

>  <cluster_rmsd>  (49) 
0.54

>  <cluster>  (49) 
8

$$$$

     RDKit          3D

 63 66  0  0  0  0  0  0  0  0999 V2000
  141.1200   74.6010  218.5020 C   0  0  0  0  0  0  0  0  0  0  0  0
  141.4580   75.3680  219.7020 N   0  0  0  0  0  0  0  0  0  0  0  0
  141.8480   74.6220  220.8640 C   0  0  0  0  0  0  0  0  0  0  0  0
  142.0330   73.1470  220.5580 C   0  0  0  0  0  0  0  0  0  0  0  0
  141.7130   72.2890  221.6710 N   0  0  0  0  0  0  0  0  0  0  0  0
  140.5930   72.4800  222.5250 C   0  0  0  0  0  0  0  0  0  0  0  0
  139.7990   73.4220  222.3610 O   0  0  0  0  0  0  0  0  0  0  0  0
  140.3530   71.5450  223.6390 C   0  0  0  0  0  0  0  0  0  0  0  0
  139.6790   70.3630  223.4350 C   0  0  0  0  0  0  0  0  0  0  0  0
  139.4450   69.4740  224.4710 C   0  0  0  0  0  0  0  0  0  0  0  0
  139.9130   69.8190  225.7160 C   0  0  0  0  0  0  0  0  0  0  0  0
  139.7280   68.9890  226.8220 C   0  0  0  0  0  0  0  0  0  0  0  0
  140.2160   69.3740  228.0600 C   0  0  0  0  0  0  0  0  0  0  0  0
  140.0270   68.5570  229.1260 F   0  0  0  0  0  0  0  0  0  0  0  0
  140.8870   70.5510  228.2610 C   0  0  0  0  0  0  0  0  0  0  0  0
  141.0760   71.3810  227.1640 C   0  0  0  0  0  0  0  0  0  0  0  0
  140.5920   71.0040  225.9290 C   0  0  0  0  0  0  0  0  0  0  0  0
  140.7890   71.8260  224.8890 N   0  0  0  0  0  0  0  0  0  0  0  0
  141.3510   76.7710  219.6090 C   0  0  0  0  0  0  0  0  0  0  0  0
  142.1070   77.3510  218.7760 O   0  0  0  0  0  0  0  0  0  0  0  0
  140.4260   77.6120  220.4050 C   0  0  1  0  0  0  0  0  0  0  0  0
  139.1440   76.8580  220.6920 C   0  0  0  0  0  0  0  0  0  0  0  0
  139.4980   76.1490  222.0050 C   0  0  2  0  0  0  0  0  0  0  0  0
  138.3840   75.7800  222.7280 O   0  0  0  0  0  0  0  0  0  0  0  0
  140.2220   77.2760  222.7110 C   0  0  0  0  0  0  0  0  0  0  0  0
  141.0300   77.8940  221.6940 N   0  0  0  0  0  0  0  0  0  0  0  0
  141.1580   79.3270  221.8960 C   0  0  0  0  0  0  0  0  0  0  0  0
  140.3550   79.7890  223.0800 C   0  0  0  0  0  0  0  0  0  0  0  0
  140.7170   81.2570  223.3460 C   0  0  0  0  0  0  0  0  0  0  0  0
  142.0700   81.2300  224.0260 C   0  0  0  0  0  0  0  0  0  0  0  0
  142.9460   80.1790  223.4300 C   0  0  0  0  0  0  0  0  0  0  0  0
  142.5730   79.7710  222.0320 C   0  0  0  0  0  0  0  0  0  0  0  0
  140.6925   73.6308  218.7953 H   0  0  0  0  0  0  0  0  0  0  0  0
  140.3849   75.1601  217.9045 H   0  0  0  0  0  0  0  0  0  0  0  0
  142.0286   74.4357  217.9045 H   0  0  0  0  0  0  0  0  0  0  0  0
  142.7973   75.0275  221.2441 H   0  0  0  0  0  0  0  0  0  0  0  0
  141.0470   74.7156  221.6121 H   0  0  0  0  0  0  0  0  0  0  0  0
  141.3803   72.8812  219.7134 H   0  0  0  0  0  0  0  0  0  0  0  0
  143.0969   72.9939  220.3241 H   0  0  0  0  0  0  0  0  0  0  0  0
  142.3250   71.4500  221.9080 H   0  0  0  0  0  0  0  0  0  0  0  0
  139.3175   70.1183  222.4253 H   0  0  0  0  0  0  0  0  0  0  0  0
  138.9062   68.5297  224.3038 H   0  0  0  0  0  0  0  0  0  0  0  0
  139.1965   68.0323  226.7114 H   0  0  0  0  0  0  0  0  0  0  0  0
  141.2630   70.8290  229.2567 H   0  0  0  0  0  0  0  0  0  0  0  0
  141.6099   72.3358  227.2797 H   0  0  0  0  0  0  0  0  0  0  0  0
  140.2214   78.5303  219.8350 H   0  0  0  0  0  0  0  0  0  0  0  0
  138.2940   77.5441  220.8216 H   0  0  0  0  0  0  0  0  0  0  0  0
  138.8307   76.1797  219.8847 H   0  0  0  0  0  0  0  0  0  0  0  0
  140.0579   75.2118  221.8706 H   0  0  0  0  0  0  0  0  0  0  0  0
  138.5480   74.8570  223.0770 H   0  0  0  0  0  0  0  0  0  0  0  0
  139.5029   77.9980  223.1252 H   0  0  0  0  0  0  0  0  0  0  0  0
  140.8265   76.9138  223.5556 H   0  0  0  0  0  0  0  0  0  0  0  0
  140.7547   79.7955  220.9861 H   0  0  0  0  0  0  0  0  0  0  0  0
  139.2806   79.7020  222.8609 H   0  0  0  0  0  0  0  0  0  0  0  0
  140.5792   79.1712  223.9621 H   0  0  0  0  0  0  0  0  0  0  0  0
  140.7746   81.8151  222.3998 H   0  0  0  0  0  0  0  0  0  0  0  0
  139.9597   81.7548  223.9694 H   0  0  0  0  0  0  0  0  0  0  0  0
  142.5526   82.2112  223.9063 H   0  0  0  0  0  0  0  0  0  0  0  0
  141.9226   81.0011  225.0918 H   0  0  0  0  0  0  0  0  0  0  0  0
  143.9771   80.5617  223.4119 H   0  0  0  0  0  0  0  0  0  0  0  0
  142.8286   79.2832  224.0575 H   0  0  0  0  0  0  0  0  0  0  0  0
  142.7329   80.6308  221.3648 H   0  0  0  0  0  0  0  0  0  0  0  0
  143.2067   78.9116  221.7678 H   0  0  0  0  0  0  0  0  0  0  0  0
  1  2  1  0
  2  3  1  0
  3  4  1  0
  4  5  1  0
  5  6  1  0
  6  7  2  0
  6  8  1  0
  8  9  2  0
  9 10  1  0
 10 11  2  0
 11 12  1  0
 12 13  2  0
 13 14  1  0
 13 15  1  0
 15 16  2  0
 16 17  1  0
 17 18  2  0
  2 19  1  0
 19 20  2  0
 19 21  1  0
 21 22  1  0
 22 23  1  0
 23 24  1  0
 23 25  1  0
 25 26  1  0
 26 27  1  0
 27 28  1  0
 28 29  1  0
 29 30  1  0
 30 31  1  0
 31 32  1  0
 18  8  1  0
 26 21  1  0
 32 27  1  0
 17 11  1  0
  1 33  1  0
  1 34  1  0
  1 35  1  0
  3 36  1  0
  3 37  1  0
  4 38  1  0
  4 39  1  0
  5 40  1  0
  9 41  1  0
 10 42  1  0
 12 43  1  0
 15 44  1  0
 16 45  1  0
 21 46  1  6
 22 47  1  0
 22 48  1  0
 23 49  1  6
 24 50  1  0
 25 51  1  0
 25 52  1  0
 27 53  1  0
 28 54  1  0
 28 55  1  0
 29 56  1  0
 29 57  1  0
 30 58  1  0
 30 59  1  0
 31 60  1  0
 31 61  1  0
 32 62  1  0
 32 63  1  0
M  END
>  <smiles>  (50) 
CN(CCNC(=O)c1ccc2cc(F)ccc2n1)C(=O)[C@H]1C[C@H](O)CN1C1CCCCC1

>  <score_type>  (50) 
oracle

>  <origin>  (50) 
autodockgpu

>  <m_score__min__energy>  (50) 
-8.6799999999999997

>  <m_primary>  (50) 
energy

>  <rmsd>  (50) 
9.90762267636515

>  <m_score__min__rmsd>  (50) 
9.90762267636515

>  <meeko>  (50) 
{"free_energy": -8.44, "intermolecular_energy": -10.83, "internal_energy": -2.15, "cluster_size": 13, "cluster_id": 1, "rank_in_cluster": 3}

>  <energy>  (50) 
-5.44

>  <cluster_rmsd>  (50) 
0.0

>  <cluster>  (50) 
9

$$$$
