
     RDKit          3D

 39 41  0  0  0  0  0  0  0  0999 V2000
  139.2040   67.4090  224.4580 N   0  0  0  0  0  0  0  0  0  0  0  0
  139.6040   68.2120  225.2160 C   0  0  0  0  0  0  0  0  0  0  0  0
  140.1150   69.1900  226.1440 C   0  0  0  0  0  0  0  0  0  0  0  0
  140.4110   68.7870  227.4200 C   0  0  0  0  0  0  0  0  0  0  0  0
  140.9040   69.6410  228.3850 C   0  0  0  0  0  0  0  0  0  0  0  0
  141.0960   70.9510  228.0160 C   0  0  0  0  0  0  0  0  0  0  0  0
  140.7940   71.3550  226.7220 C   0  0  0  0  0  0  0  0  0  0  0  0
  140.3100   70.5220  225.7700 C   0  0  0  0  0  0  0  0  0  0  0  0
  139.9800   70.8540  224.4390 N   0  0  0  0  0  0  0  0  0  0  0  0
  138.6710   70.9500  223.9130 C   0  0  0  0  0  0  0  0  0  0  0  0
  137.6390   70.7470  224.5820 O   0  0  0  0  0  0  0  0  0  0  0  0
  138.4630   71.3140  222.4700 C   0  0  0  0  0  0  0  0  0  0  0  0
  138.9130   72.6440  222.1930 N   0  0  0  0  0  0  0  0  0  0  0  0
  140.2770   72.8630  221.8710 C   0  0  0  0  0  0  0  0  0  0  0  0
  141.1260   71.9350  221.8160 O   0  0  0  0  0  0  0  0  0  0  0  0
  140.6950   74.2490  221.5920 C   0  0  0  0  0  0  0  0  0  0  0  0
  141.6800   74.5300  220.6630 C   0  0  0  0  0  0  0  0  0  0  0  0
  142.0630   75.8470  220.4110 C   0  0  0  0  0  0  0  0  0  0  0  0
  141.4710   76.8930  221.0830 C   0  0  0  0  0  0  0  0  0  0  0  0
  141.8120   78.1970  220.8720 C   0  0  0  0  0  0  0  0  0  0  0  0
  141.1940   79.2320  221.5680 C   0  0  0  0  0  0  0  0  0  0  0  0
  140.2130   78.9160  222.4890 C   0  0  0  0  0  0  0  0  0  0  0  0
  139.8750   77.5940  222.6970 C   0  0  0  0  0  0  0  0  0  0  0  0
  140.4930   76.5810  222.0030 C   0  0  0  0  0  0  0  0  0  0  0  0
  140.1440   75.3000  222.2240 N   0  0  0  0  0  0  0  0  0  0  0  0
  140.2478   67.7326  227.6875 H   0  0  0  0  0  0  0  0  0  0  0  0
  141.1327   69.2899  229.4021 H   0  0  0  0  0  0  0  0  0  0  0  0
  141.4877   71.6773  228.7434 H   0  0  0  0  0  0  0  0  0  0  0  0
  140.9569   72.4097  226.4556 H   0  0  0  0  0  0  0  0  0  0  0  0
  140.7570   71.0560  223.7450 H   0  0  0  0  0  0  0  0  0  0  0  0
  139.0238   70.6086  221.8393 H   0  0  0  0  0  0  0  0  0  0  0  0
  137.3857   71.2628  222.2536 H   0  0  0  0  0  0  0  0  0  0  0  0
  138.2470   73.4490  222.2250 H   0  0  0  0  0  0  0  0  0  0  0  0
  142.1658   73.7073  220.1179 H   0  0  0  0  0  0  0  0  0  0  0  0
  142.8468   76.0526  219.6671 H   0  0  0  0  0  0  0  0  0  0  0  0
  142.5930   78.4359  220.1352 H   0  0  0  0  0  0  0  0  0  0  0  0
  141.4802   80.2789  221.3889 H   0  0  0  0  0  0  0  0  0  0  0  0
  139.7051   79.7127  223.0524 H   0  0  0  0  0  0  0  0  0  0  0  0
  139.0957   77.3461  223.4327 H   0  0  0  0  0  0  0  0  0  0  0  0
  1  2  3  0
  2  3  1  0
  3  4  2  0
  4  5  1  0
  5  6  2  0
  6  7  1  0
  7  8  2  0
  8  9  1  0
  9 10  1  0
 10 11  2  0
 10 12  1  0
 12 13  1  0
 13 14  1  0
 14 15  2  0
 14 16  1  0
 16 17  2  0
 17 18  1  0
 18 19  2  0
 19 20  1  0
 20 21  2  0
 21 22  1  0
 22 23  2  0
 23 24  1  0
 24 25  2  0
  8  3  1  0
 25 16  1  0
 24 19  1  0
  4 26  1  0
  5 27  1  0
  6 28  1  0
  7 29  1  0
  9 30  1  0
 12 31  1  0
 12 32  1  0
 13 33  1  0
 17 34  1  0
 18 35  1  0
 20 36  1  0
 21 37  1  0
 22 38  1  0
 23 39  1  0
M  END
>  <smiles>  (1) 
N#Cc1ccccc1NC(=O)CNC(=O)c1ccc2ccccc2n1

>  <score_type>  (1) 
oracle

>  <origin>  (1) 
autodockgpu

>  <m_score__min__energy>  (1) 
-8.8100000000000005

>  <m_primary>  (1) 
energy

>  <rmsd>  (1) 
8.384305323531821

>  <m_score__min__rmsd>  (1) 
8.384305323531821

>  <meeko>  (1) 
{"free_energy": -7.76, "intermolecular_energy": -9.25, "internal_energy": -1.82, "cluster_size": 15, "cluster_id": 2, "rank_in_cluster": 13}

>  <energy>  (1) 
-8.81

>  <cluster_rmsd>  (1) 
0.0

>  <cluster>  (1) 
1

$$$$

     RDKit          3D

 39 41  0  0  0  0  0  0  0  0999 V2000
  139.5100   67.3610  224.9640 N   0  0  0  0  0  0  0  0  0  0  0  0
  139.9230   68.1860  225.6890 C   0  0  0  0  0  0  0  0  0  0  0  0
  140.4170   69.2150  226.5700 C   0  0  0  0  0  0  0  0  0  0  0  0
  140.9160   68.8450  227.7920 C   0  0  0  0  0  0  0  0  0  0  0  0
  141.4130   69.7480  228.7080 C   0  0  0  0  0  0  0  0  0  0  0  0
  141.3910   71.0750  228.3480 C   0  0  0  0  0  0  0  0  0  0  0  0
  140.8850   71.4460  227.1090 C   0  0  0  0  0  0  0  0  0  0  0  0
  140.3960   70.5640  226.2050 C   0  0  0  0  0  0  0  0  0  0  0  0
  139.8670   70.8600  224.9310 N   0  0  0  0  0  0  0  0  0  0  0  0
  138.5500   70.5750  224.4980 C   0  0  0  0  0  0  0  0  0  0  0  0
  137.6930   70.0180  225.2100 O   0  0  0  0  0  0  0  0  0  0  0  0
  138.1170   70.9470  223.1080 C   0  0  0  0  0  0  0  0  0  0  0  0
  138.6470   72.2170  222.7140 N   0  0  0  0  0  0  0  0  0  0  0  0
  139.9640   72.2880  222.1910 C   0  0  0  0  0  0  0  0  0  0  0  0
  140.7020   71.2770  222.0540 O   0  0  0  0  0  0  0  0  0  0  0  0
  140.4670   73.6150  221.7970 C   0  0  0  0  0  0  0  0  0  0  0  0
  141.5360   73.7520  220.9310 C   0  0  0  0  0  0  0  0  0  0  0  0
  142.0000   75.0160  220.5680 C   0  0  0  0  0  0  0  0  0  0  0  0
  141.4040   76.1540  221.0660 C   0  0  0  0  0  0  0  0  0  0  0  0
  141.8210   77.4120  220.7420 C   0  0  0  0  0  0  0  0  0  0  0  0
  141.1980   78.5420  221.2630 C   0  0  0  0  0  0  0  0  0  0  0  0
  140.1320   78.3700  222.1260 C   0  0  0  0  0  0  0  0  0  0  0  0
  139.7160   77.0940  222.4490 C   0  0  0  0  0  0  0  0  0  0  0  0
  140.3410   75.9860  221.9280 C   0  0  0  0  0  0  0  0  0  0  0  0
  139.9160   74.7530  222.2580 N   0  0  0  0  0  0  0  0  0  0  0  0
  140.9201   67.7768  228.0544 H   0  0  0  0  0  0  0  0  0  0  0  0
  141.8086   69.4221  229.6813 H   0  0  0  0  0  0  0  0  0  0  0  0
  141.7731   71.8405  229.0394 H   0  0  0  0  0  0  0  0  0  0  0  0
  140.8812   72.5145  226.8476 H   0  0  0  0  0  0  0  0  0  0  0  0
  140.4810   71.3380  224.2100 H   0  0  0  0  0  0  0  0  0  0  0  0
  138.4720   70.1784  222.4057 H   0  0  0  0  0  0  0  0  0  0  0  0
  137.0191   71.0131  223.0954 H   0  0  0  0  0  0  0  0  0  0  0  0
  138.0730   73.0850  222.8070 H   0  0  0  0  0  0  0  0  0  0  0  0
  142.0255   72.8548  220.5242 H   0  0  0  0  0  0  0  0  0  0  0  0
  142.8509   75.1054  219.8767 H   0  0  0  0  0  0  0  0  0  0  0  0
  142.6694   77.5359  220.0529 H   0  0  0  0  0  0  0  0  0  0  0  0
  141.5462   79.5501  220.9939 H   0  0  0  0  0  0  0  0  0  0  0  0
  139.6185   79.2443  222.5526 H   0  0  0  0  0  0  0  0  0  0  0  0
  138.8678   76.9612  223.1367 H   0  0  0  0  0  0  0  0  0  0  0  0
  1  2  3  0
  2  3  1  0
  3  4  2  0
  4  5  1  0
  5  6  2  0
  6  7  1  0
  7  8  2  0
  8  9  1  0
  9 10  1  0
 10 11  2  0
 10 12  1  0
 12 13  1  0
 13 14  1  0
 14 15  2  0
 14 16  1  0
 16 17  2  0
 17 18  1  0
 18 19  2  0
 19 20  1  0
 20 21  2  0
 21 22  1  0
 22 23  2  0
 23 24  1  0
 24 25  2  0
  8  3  1  0
 25 16  1  0
 24 19  1  0
  4 26  1  0
  5 27  1  0
  6 28  1  0
  7 29  1  0
  9 30  1  0
 12 31  1  0
 12 32  1  0
 13 33  1  0
 17 34  1  0
 18 35  1  0
 20 36  1  0
 21 37  1  0
 22 38  1  0
 23 39  1  0
M  END
>  <smiles>  (2) 
N#Cc1ccccc1NC(=O)CNC(=O)c1ccc2ccccc2n1

>  <score_type>  (2) 
oracle

>  <origin>  (2) 
autodockgpu

>  <m_score__min__energy>  (2) 
-8.8100000000000005

>  <m_primary>  (2) 
energy

>  <rmsd>  (2) 
8.283764464765609

>  <m_score__min__rmsd>  (2) 
8.283764464765609

>  <meeko>  (2) 
{"free_energy": -7.92, "intermolecular_energy": -9.41, "internal_energy": -1.77, "cluster_size": 15, "cluster_id": 2, "rank_in_cluster": 10}

>  <energy>  (2) 
-8.8

>  <cluster_rmsd>  (2) 
0.34

>  <cluster>  (2) 
1

$$$$

     RDKit          3D

 39 41  0  0  0  0  0  0  0  0999 V2000
  141.9010   78.4800  218.7020 N   0  0  0  0  0  0  0  0  0  0  0  0
  141.8300   78.7640  219.8390 C   0  0  0  0  0  0  0  0  0  0  0  0
  141.7650   79.1120  221.2370 C   0  0  0  0  0  0  0  0  0  0  0  0
  141.9650   80.4200  221.5950 C   0  0  0  0  0  0  0  0  0  0  0  0
  141.9240   80.8590  222.9020 C   0  0  0  0  0  0  0  0  0  0  0  0
  141.6690   79.9130  223.8670 C   0  0  0  0  0  0  0  0  0  0  0  0
  141.4670   78.5890  223.5000 C   0  0  0  0  0  0  0  0  0  0  0  0
  141.5060   78.1520  222.2190 C   0  0  0  0  0  0  0  0  0  0  0  0
  141.3120   76.8300  221.7660 N   0  0  0  0  0  0  0  0  0  0  0  0
  140.0940   76.1110  221.8160 C   0  0  0  0  0  0  0  0  0  0  0  0
  139.0340   76.5760  222.2770 O   0  0  0  0  0  0  0  0  0  0  0  0
  140.0300   74.7020  221.2970 C   0  0  0  0  0  0  0  0  0  0  0  0
  139.7790   73.7640  222.3490 N   0  0  0  0  0  0  0  0  0  0  0  0
  140.5680   72.5880  222.4320 C   0  0  0  0  0  0  0  0  0  0  0  0
  141.4890   72.3220  221.6180 O   0  0  0  0  0  0  0  0  0  0  0  0
  140.2750   71.6510  223.5320 C   0  0  0  0  0  0  0  0  0  0  0  0
  139.5720   70.4810  223.3130 C   0  0  0  0  0  0  0  0  0  0  0  0
  139.3030   69.6060  224.3640 C   0  0  0  0  0  0  0  0  0  0  0  0
  139.7320   69.8890  225.6420 C   0  0  0  0  0  0  0  0  0  0  0  0
  139.4940   69.0650  226.7030 C   0  0  0  0  0  0  0  0  0  0  0  0
  139.9410   69.3790  227.9830 C   0  0  0  0  0  0  0  0  0  0  0  0
  140.6410   70.5560  228.1670 C   0  0  0  0  0  0  0  0  0  0  0  0
  140.8770   71.3850  227.0890 C   0  0  0  0  0  0  0  0  0  0  0  0
  140.4300   71.0620  225.8290 C   0  0  0  0  0  0  0  0  0  0  0  0
  140.6750   71.8870  224.7940 N   0  0  0  0  0  0  0  0  0  0  0  0
  142.1679   81.1548  220.8020 H   0  0  0  0  0  0  0  0  0  0  0  0
  142.0875   81.9157  223.1602 H   0  0  0  0  0  0  0  0  0  0  0  0
  141.6252   80.2043  224.9268 H   0  0  0  0  0  0  0  0  0  0  0  0
  141.2641   77.8548  224.2936 H   0  0  0  0  0  0  0  0  0  0  0  0
  142.1290   76.2990  221.3460 H   0  0  0  0  0  0  0  0  0  0  0  0
  139.2210   74.6312  220.5550 H   0  0  0  0  0  0  0  0  0  0  0  0
  141.0018   74.4580  220.8430 H   0  0  0  0  0  0  0  0  0  0  0  0
  139.0250   73.9400  223.0500 H   0  0  0  0  0  0  0  0  0  0  0  0
  139.2214   70.2381  222.2991 H   0  0  0  0  0  0  0  0  0  0  0  0
  138.7422   68.6796  224.1709 H   0  0  0  0  0  0  0  0  0  0  0  0
  138.9358   68.1307  226.5430 H   0  0  0  0  0  0  0  0  0  0  0  0
  139.7415   68.7052  228.8293 H   0  0  0  0  0  0  0  0  0  0  0  0
  141.0081   70.8307  229.1669 H   0  0  0  0  0  0  0  0  0  0  0  0
  141.4332   72.3219  227.2405 H   0  0  0  0  0  0  0  0  0  0  0  0
  1  2  3  0
  2  3  1  0
  3  4  2  0
  4  5  1  0
  5  6  2  0
  6  7  1  0
  7  8  2  0
  8  9  1  0
  9 10  1  0
 10 11  2  0
 10 12  1  0
 12 13  1  0
 13 14  1  0
 14 15  2  0
 14 16  1  0
 16 17  2  0
 17 18  1  0
 18 19  2  0
 19 20  1  0
 20 21  2  0
 21 22  1  0
 22 23  2  0
 23 24  1  0
 24 25  2  0
  8  3  1  0
 25 16  1  0
 24 19  1  0
  4 26  1  0
  5 27  1  0
  6 28  1  0
  7 29  1  0
  9 30  1  0
 12 31  1  0
 12 32  1  0
 13 33  1  0
 17 34  1  0
 18 35  1  0
 20 36  1  0
 21 37  1  0
 22 38  1  0
 23 39  1  0
M  END
>  <smiles>  (3) 
N#Cc1ccccc1NC(=O)CNC(=O)c1ccc2ccccc2n1

>  <score_type>  (3) 
oracle

>  <origin>  (3) 
autodockgpu

>  <m_score__min__energy>  (3) 
-8.8100000000000005

>  <m_primary>  (3) 
energy

>  <rmsd>  (3) 
2.886709702663345

>  <m_score__min__rmsd>  (3) 
2.886709702663345

>  <meeko>  (3) 
{"free_energy": -8.8, "intermolecular_energy": -10.29, "internal_energy": -0.99, "cluster_size": 35, "cluster_id": 1, "rank_in_cluster": 3}

>  <energy>  (3) 
-8.8

>  <cluster_rmsd>  (3) 
0.23

>  <cluster>  (3) 
1

$$$$

     RDKit          3D

 39 41  0  0  0  0  0  0  0  0999 V2000
  141.8120   78.7460  218.6120 N   0  0  0  0  0  0  0  0  0  0  0  0
  141.7900   78.9950  219.7590 C   0  0  0  0  0  0  0  0  0  0  0  0
  141.7420   79.3000  221.1670 C   0  0  0  0  0  0  0  0  0  0  0  0
  141.8960   80.6050  221.5590 C   0  0  0  0  0  0  0  0  0  0  0  0
  141.8660   81.0040  222.8790 C   0  0  0  0  0  0  0  0  0  0  0  0
  141.6700   80.0230  223.8210 C   0  0  0  0  0  0  0  0  0  0  0  0
  141.5140   78.7020  223.4200 C   0  0  0  0  0  0  0  0  0  0  0  0
  141.5420   78.3030  222.1260 C   0  0  0  0  0  0  0  0  0  0  0  0
  141.3920   76.9880  221.6400 N   0  0  0  0  0  0  0  0  0  0  0  0
  140.3280   76.1090  221.9520 C   0  0  0  0  0  0  0  0  0  0  0  0
  139.3850   76.4060  222.7100 O   0  0  0  0  0  0  0  0  0  0  0  0
  140.2930   74.7280  221.3610 C   0  0  0  0  0  0  0  0  0  0  0  0
  139.9670   73.7420  222.3450 N   0  0  0  0  0  0  0  0  0  0  0  0
  140.6990   72.5260  222.3800 C   0  0  0  0  0  0  0  0  0  0  0  0
  141.6340   72.2670  221.5780 O   0  0  0  0  0  0  0  0  0  0  0  0
  140.3290   71.5400  223.4110 C   0  0  0  0  0  0  0  0  0  0  0  0
  139.5890   70.4160  223.0980 C   0  0  0  0  0  0  0  0  0  0  0  0
  139.2480   69.4920  224.0860 C   0  0  0  0  0  0  0  0  0  0  0  0
  139.6400   69.6820  225.3930 C   0  0  0  0  0  0  0  0  0  0  0  0
  139.3310   68.8090  226.3940 C   0  0  0  0  0  0  0  0  0  0  0  0
  139.7420   69.0300  227.7050 C   0  0  0  0  0  0  0  0  0  0  0  0
  140.4810   70.1640  227.9830 C   0  0  0  0  0  0  0  0  0  0  0  0
  140.7890   71.0430  226.9650 C   0  0  0  0  0  0  0  0  0  0  0  0
  140.3770   70.8130  225.6730 C   0  0  0  0  0  0  0  0  0  0  0  0
  140.6910   71.6860  224.6990 N   0  0  0  0  0  0  0  0  0  0  0  0
  142.0508   81.3700  220.7839 H   0  0  0  0  0  0  0  0  0  0  0  0
  141.9931   82.0587  223.1644 H   0  0  0  0  0  0  0  0  0  0  0  0
  141.6367   80.2828  224.8894 H   0  0  0  0  0  0  0  0  0  0  0  0
  141.3592   77.9381  224.1962 H   0  0  0  0  0  0  0  0  0  0  0  0
  142.1210   76.5910  220.9790 H   0  0  0  0  0  0  0  0  0  0  0  0
  139.5360   74.7002  220.5634 H   0  0  0  0  0  0  0  0  0  0  0  0
  141.2924   74.4990  220.9625 H   0  0  0  0  0  0  0  0  0  0  0  0
  139.1990   73.9100  223.0330 H   0  0  0  0  0  0  0  0  0  0  0  0
  139.2657   70.2481  222.0601 H   0  0  0  0  0  0  0  0  0  0  0  0
  138.6596   68.6019  223.8185 H   0  0  0  0  0  0  0  0  0  0  0  0
  138.7432   67.9092  226.1597 H   0  0  0  0  0  0  0  0  0  0  0  0
  139.4843   68.3176  228.5025 H   0  0  0  0  0  0  0  0  0  0  0  0
  140.8216   70.3647  229.0095 H   0  0  0  0  0  0  0  0  0  0  0  0
  141.3757   71.9456  227.1912 H   0  0  0  0  0  0  0  0  0  0  0  0
  1  2  3  0
  2  3  1  0
  3  4  2  0
  4  5  1  0
  5  6  2  0
  6  7  1  0
  7  8  2  0
  8  9  1  0
  9 10  1  0
 10 11  2  0
 10 12  1  0
 12 13  1  0
 13 14  1  0
 14 15  2  0
 14 16  1  0
 16 17  2  0
 17 18  1  0
 18 19  2  0
 19 20  1  0
 20 21  2  0
 21 22  1  0
 22 23  2  0
 23 24  1  0
 24 25  2  0
  8  3  1  0
 25 16  1  0
 24 19  1  0
  4 26  1  0
  5 27  1  0
  6 28  1  0
  7 29  1  0
  9 30  1  0
 12 31  1  0
 12 32  1  0
 13 33  1  0
 17 34  1  0
 18 35  1  0
 20 36  1  0
 21 37  1  0
 22 38  1  0
 23 39  1  0
M  END
>  <smiles>  (4) 
N#Cc1ccccc1NC(=O)CNC(=O)c1ccc2ccccc2n1

>  <score_type>  (4) 
oracle

>  <origin>  (4) 
autodockgpu

>  <m_score__min__energy>  (4) 
-8.8100000000000005

>  <m_primary>  (4) 
energy

>  <rmsd>  (4) 
2.949701896558315

>  <m_score__min__rmsd>  (4) 
2.949701896558315

>  <meeko>  (4) 
{"free_energy": -8.55, "intermolecular_energy": -10.04, "internal_energy": -1.11, "cluster_size": 35, "cluster_id": 1, "rank_in_cluster": 28}

>  <energy>  (4) 
-8.8

>  <cluster_rmsd>  (4) 
0.23

>  <cluster>  (4) 
1

$$$$

     RDKit          3D

 39 41  0  0  0  0  0  0  0  0999 V2000
  141.8170   78.1870  218.7530 N   0  0  0  0  0  0  0  0  0  0  0  0
  141.7940   78.4880  219.8870 C   0  0  0  0  0  0  0  0  0  0  0  0
  141.7430   78.8510  221.2810 C   0  0  0  0  0  0  0  0  0  0  0  0
  142.0110   80.1500  221.6280 C   0  0  0  0  0  0  0  0  0  0  0  0
  141.9900   80.6020  222.9310 C   0  0  0  0  0  0  0  0  0  0  0  0
  141.6820   79.6810  223.9040 C   0  0  0  0  0  0  0  0  0  0  0  0
  141.4120   78.3660  223.5480 C   0  0  0  0  0  0  0  0  0  0  0  0
  141.4300   77.9160  222.2710 C   0  0  0  0  0  0  0  0  0  0  0  0
  141.1680   76.6020  221.8300 N   0  0  0  0  0  0  0  0  0  0  0  0
  139.8920   75.9940  221.7600 C   0  0  0  0  0  0  0  0  0  0  0  0
  138.8340   76.5650  222.0890 O   0  0  0  0  0  0  0  0  0  0  0  0
  139.7560   74.5800  221.2690 C   0  0  0  0  0  0  0  0  0  0  0  0
  139.5660   73.6630  222.3510 N   0  0  0  0  0  0  0  0  0  0  0  0
  140.4450   72.5570  222.4870 C   0  0  0  0  0  0  0  0  0  0  0  0
  141.3960   72.3370  221.6930 O   0  0  0  0  0  0  0  0  0  0  0  0
  140.2120   71.6390  223.6150 C   0  0  0  0  0  0  0  0  0  0  0  0
  139.4930   70.4690  223.4550 C   0  0  0  0  0  0  0  0  0  0  0  0
  139.2820   69.6110  224.5340 C   0  0  0  0  0  0  0  0  0  0  0  0
  139.7830   69.9130  225.7810 C   0  0  0  0  0  0  0  0  0  0  0  0
  139.6020   69.1070  226.8670 C   0  0  0  0  0  0  0  0  0  0  0  0
  140.1210   69.4400  228.1150 C   0  0  0  0  0  0  0  0  0  0  0  0
  140.8350   70.6170  228.2400 C   0  0  0  0  0  0  0  0  0  0  0  0
  141.0120   71.4270  227.1370 C   0  0  0  0  0  0  0  0  0  0  0  0
  140.4940   71.0860  225.9100 C   0  0  0  0  0  0  0  0  0  0  0  0
  140.6820   71.8930  224.8500 N   0  0  0  0  0  0  0  0  0  0  0  0
  142.2544   80.8660  220.8291 H   0  0  0  0  0  0  0  0  0  0  0  0
  142.2095   81.6507  223.1800 H   0  0  0  0  0  0  0  0  0  0  0  0
  141.6495   79.9845  224.9608 H   0  0  0  0  0  0  0  0  0  0  0  0
  141.1702   77.6504  224.3477 H   0  0  0  0  0  0  0  0  0  0  0  0
  141.9740   75.9880  221.5150 H   0  0  0  0  0  0  0  0  0  0  0  0
  138.8906   74.5185  220.5927 H   0  0  0  0  0  0  0  0  0  0  0  0
  140.6839   74.3068  220.7452 H   0  0  0  0  0  0  0  0  0  0  0  0
  138.7900   73.8020  223.0360 H   0  0  0  0  0  0  0  0  0  0  0  0
  139.0833   70.2124  222.4669 H   0  0  0  0  0  0  0  0  0  0  0  0
  138.7094   68.6832  224.3876 H   0  0  0  0  0  0  0  0  0  0  0  0
  139.0328   68.1725  226.7537 H   0  0  0  0  0  0  0  0  0  0  0  0
  139.9664   68.7813  228.9823 H   0  0  0  0  0  0  0  0  0  0  0  0
  141.2595   70.9061  229.2127 H   0  0  0  0  0  0  0  0  0  0  0  0
  141.5787   72.3640  227.2415 H   0  0  0  0  0  0  0  0  0  0  0  0
  1  2  3  0
  2  3  1  0
  3  4  2  0
  4  5  1  0
  5  6  2  0
  6  7  1  0
  7  8  2  0
  8  9  1  0
  9 10  1  0
 10 11  2  0
 10 12  1  0
 12 13  1  0
 13 14  1  0
 14 15  2  0
 14 16  1  0
 16 17  2  0
 17 18  1  0
 18 19  2  0
 19 20  1  0
 20 21  2  0
 21 22  1  0
 22 23  2  0
 23 24  1  0
 24 25  2  0
  8  3  1  0
 25 16  1  0
 24 19  1  0
  4 26  1  0
  5 27  1  0
  6 28  1  0
  7 29  1  0
  9 30  1  0
 12 31  1  0
 12 32  1  0
 13 33  1  0
 17 34  1  0
 18 35  1  0
 20 36  1  0
 21 37  1  0
 22 38  1  0
 23 39  1  0
M  END
>  <smiles>  (5) 
N#Cc1ccccc1NC(=O)CNC(=O)c1ccc2ccccc2n1

>  <score_type>  (5) 
oracle

>  <origin>  (5) 
autodockgpu

>  <m_score__min__energy>  (5) 
-8.8100000000000005

>  <m_primary>  (5) 
energy

>  <rmsd>  (5) 
2.784580259071351

>  <m_score__min__rmsd>  (5) 
2.784580259071351

>  <meeko>  (5) 
{"free_energy": -8.81, "intermolecular_energy": -10.3, "internal_energy": -0.97, "cluster_size": 35, "cluster_id": 1, "rank_in_cluster": 1}

>  <energy>  (5) 
-8.8

>  <cluster_rmsd>  (5) 
0.35

>  <cluster>  (5) 
1

$$$$

     RDKit          3D

 39 41  0  0  0  0  0  0  0  0999 V2000
  137.7710   70.3140  222.1770 N   0  0  0  0  0  0  0  0  0  0  0  0
  138.4790   70.4730  223.0990 C   0  0  0  0  0  0  0  0  0  0  0  0
  139.3660   70.6760  224.2180 C   0  0  0  0  0  0  0  0  0  0  0  0
  139.3200   69.7850  225.2580 C   0  0  0  0  0  0  0  0  0  0  0  0
  140.1230   69.8880  226.3750 C   0  0  0  0  0  0  0  0  0  0  0  0
  141.0000   70.9460  226.4140 C   0  0  0  0  0  0  0  0  0  0  0  0
  141.0430   71.8470  225.3580 C   0  0  0  0  0  0  0  0  0  0  0  0
  140.2570   71.7520  224.2590 C   0  0  0  0  0  0  0  0  0  0  0  0
  140.2410   72.6220  223.1490 N   0  0  0  0  0  0  0  0  0  0  0  0
  141.0690   72.5170  222.0060 C   0  0  0  0  0  0  0  0  0  0  0  0
  141.9240   71.6240  221.8500 O   0  0  0  0  0  0  0  0  0  0  0  0
  140.9450   73.5180  220.8920 C   0  0  0  0  0  0  0  0  0  0  0  0
  141.0480   74.8600  221.3770 N   0  0  0  0  0  0  0  0  0  0  0  0
  139.8820   75.5210  221.8450 C   0  0  0  0  0  0  0  0  0  0  0  0
  138.7460   74.9790  221.8550 O   0  0  0  0  0  0  0  0  0  0  0  0
  140.0350   76.9020  222.3360 C   0  0  0  0  0  0  0  0  0  0  0  0
  138.9390   77.6640  222.6920 C   0  0  0  0  0  0  0  0  0  0  0  0
  139.1010   78.9690  223.1550 C   0  0  0  0  0  0  0  0  0  0  0  0
  140.3560   79.5260  223.2650 C   0  0  0  0  0  0  0  0  0  0  0  0
  140.5660   80.7980  223.7110 C   0  0  0  0  0  0  0  0  0  0  0  0
  141.8480   81.3320  223.8110 C   0  0  0  0  0  0  0  0  0  0  0  0
  142.9220   80.5420  223.4470 C   0  0  0  0  0  0  0  0  0  0  0  0
  142.7010   79.2560  222.9960 C   0  0  0  0  0  0  0  0  0  0  0  0
  141.4300   78.7410  222.9020 C   0  0  0  0  0  0  0  0  0  0  0  0
  141.2410   77.4850  222.4600 N   0  0  0  0  0  0  0  0  0  0  0  0
  138.6090   68.9478  225.1994 H   0  0  0  0  0  0  0  0  0  0  0  0
  140.0643   69.1580  227.1958 H   0  0  0  0  0  0  0  0  0  0  0  0
  141.6660   71.0786  227.2794 H   0  0  0  0  0  0  0  0  0  0  0  0
  141.7545   72.6838  225.4174 H   0  0  0  0  0  0  0  0  0  0  0  0
  139.5610   73.4360  223.1360 H   0  0  0  0  0  0  0  0  0  0  0  0
  141.7474   73.3399  220.1609 H   0  0  0  0  0  0  0  0  0  0  0  0
  139.9558   73.3949  220.4268 H   0  0  0  0  0  0  0  0  0  0  0  0
  141.9690   75.3530  221.3890 H   0  0  0  0  0  0  0  0  0  0  0  0
  137.9287   77.2369  222.6093 H   0  0  0  0  0  0  0  0  0  0  0  0
  138.2169   79.5603  223.4355 H   0  0  0  0  0  0  0  0  0  0  0  0
  139.7026   81.4161  223.9983 H   0  0  0  0  0  0  0  0  0  0  0  0
  142.0025   82.3596  224.1717 H   0  0  0  0  0  0  0  0  0  0  0  0
  143.9469   80.9355  223.5162 H   0  0  0  0  0  0  0  0  0  0  0  0
  143.5588   78.6313  222.7062 H   0  0  0  0  0  0  0  0  0  0  0  0
  1  2  3  0
  2  3  1  0
  3  4  2  0
  4  5  1  0
  5  6  2  0
  6  7  1  0
  7  8  2  0
  8  9  1  0
  9 10  1  0
 10 11  2  0
 10 12  1  0
 12 13  1  0
 13 14  1  0
 14 15  2  0
 14 16  1  0
 16 17  2  0
 17 18  1  0
 18 19  2  0
 19 20  1  0
 20 21  2  0
 21 22  1  0
 22 23  2  0
 23 24  1  0
 24 25  2  0
  8  3  1  0
 25 16  1  0
 24 19  1  0
  4 26  1  0
  5 27  1  0
  6 28  1  0
  7 29  1  0
  9 30  1  0
 12 31  1  0
 12 32  1  0
 13 33  1  0
 17 34  1  0
 18 35  1  0
 20 36  1  0
 21 37  1  0
 22 38  1  0
 23 39  1  0
M  END
>  <smiles>  (6) 
N#Cc1ccccc1NC(=O)CNC(=O)c1ccc2ccccc2n1

>  <score_type>  (6) 
oracle

>  <origin>  (6) 
autodockgpu

>  <m_score__min__energy>  (6) 
-8.8100000000000005

>  <m_primary>  (6) 
energy

>  <rmsd>  (6) 
8.546186445865462

>  <m_score__min__rmsd>  (6) 
8.546186445865462

>  <meeko>  (6) 
{"free_energy": -7.52, "intermolecular_energy": -9.01, "internal_energy": -1.99, "cluster_size": 35, "cluster_id": 1, "rank_in_cluster": 32}

>  <energy>  (6) 
-8.79

>  <cluster_rmsd>  (6) 
0.3

>  <cluster>  (6) 
1

$$$$

     RDKit          3D

 39 41  0  0  0  0  0  0  0  0999 V2000
  137.4840   70.5700  222.2680 N   0  0  0  0  0  0  0  0  0  0  0  0
  138.2540   70.6600  223.1490 C   0  0  0  0  0  0  0  0  0  0  0  0
  139.1840   70.7750  224.2450 C   0  0  0  0  0  0  0  0  0  0  0  0
  139.0830   69.8870  225.2840 C   0  0  0  0  0  0  0  0  0  0  0  0
  139.9210   69.9090  226.3790 C   0  0  0  0  0  0  0  0  0  0  0  0
  140.8930   70.8820  226.3980 C   0  0  0  0  0  0  0  0  0  0  0  0
  140.9910   71.7810  225.3440 C   0  0  0  0  0  0  0  0  0  0  0  0
  140.1720   71.7640  224.2660 C   0  0  0  0  0  0  0  0  0  0  0  0
  140.2070   72.6370  223.1590 N   0  0  0  0  0  0  0  0  0  0  0  0
  141.0430   72.4990  222.0250 C   0  0  0  0  0  0  0  0  0  0  0  0
  141.8590   71.5700  221.8760 O   0  0  0  0  0  0  0  0  0  0  0  0
  140.9760   73.5080  220.9130 C   0  0  0  0  0  0  0  0  0  0  0  0
  141.0750   74.8470  221.4110 N   0  0  0  0  0  0  0  0  0  0  0  0
  139.9000   75.5150  221.8430 C   0  0  0  0  0  0  0  0  0  0  0  0
  138.7590   74.9840  221.8100 O   0  0  0  0  0  0  0  0  0  0  0  0
  140.0480   76.8910  222.3490 C   0  0  0  0  0  0  0  0  0  0  0  0
  138.9520   77.6360  222.7420 C   0  0  0  0  0  0  0  0  0  0  0  0
  139.1100   78.9370  223.2180 C   0  0  0  0  0  0  0  0  0  0  0  0
  140.3610   79.5070  223.3050 C   0  0  0  0  0  0  0  0  0  0  0  0
  140.5670   80.7750  223.7630 C   0  0  0  0  0  0  0  0  0  0  0  0
  141.8450   81.3230  223.8390 C   0  0  0  0  0  0  0  0  0  0  0  0
  142.9190   80.5510  223.4380 C   0  0  0  0  0  0  0  0  0  0  0  0
  142.7020   79.2690  222.9750 C   0  0  0  0  0  0  0  0  0  0  0  0
  141.4350   78.7400  222.9050 C   0  0  0  0  0  0  0  0  0  0  0  0
  141.2500   77.4870  222.4510 N   0  0  0  0  0  0  0  0  0  0  0  0
  138.2957   69.1199  225.2425 H   0  0  0  0  0  0  0  0  0  0  0  0
  139.8170   69.1827  227.1985 H   0  0  0  0  0  0  0  0  0  0  0  0
  141.5909   70.9479  227.2457 H   0  0  0  0  0  0  0  0  0  0  0  0
  141.7772   72.5491  225.3874 H   0  0  0  0  0  0  0  0  0  0  0  0
  139.5640   73.4810  223.1410 H   0  0  0  0  0  0  0  0  0  0  0  0
  141.8052   73.3247  220.2139 H   0  0  0  0  0  0  0  0  0  0  0  0
  140.0052   73.3994  220.4072 H   0  0  0  0  0  0  0  0  0  0  0  0
  141.9990   75.3310  221.4580 H   0  0  0  0  0  0  0  0  0  0  0  0
  137.9449   77.1980  222.6786 H   0  0  0  0  0  0  0  0  0  0  0  0
  138.2263   79.5143  223.5273 H   0  0  0  0  0  0  0  0  0  0  0  0
  139.7038   81.3788  224.0797 H   0  0  0  0  0  0  0  0  0  0  0  0
  141.9963   82.3475  224.2099 H   0  0  0  0  0  0  0  0  0  0  0  0
  143.9406   80.9559  223.4876 H   0  0  0  0  0  0  0  0  0  0  0  0
  143.5596   78.6586  222.6558 H   0  0  0  0  0  0  0  0  0  0  0  0
  1  2  3  0
  2  3  1  0
  3  4  2  0
  4  5  1  0
  5  6  2  0
  6  7  1  0
  7  8  2  0
  8  9  1  0
  9 10  1  0
 10 11  2  0
 10 12  1  0
 12 13  1  0
 13 14  1  0
 14 15  2  0
 14 16  1  0
 16 17  2  0
 17 18  1  0
 18 19  2  0
 19 20  1  0
 20 21  2  0
 21 22  1  0
 22 23  2  0
 23 24  1  0
 24 25  2  0
  8  3  1  0
 25 16  1  0
 24 19  1  0
  4 26  1  0
  5 27  1  0
  6 28  1  0
  7 29  1  0
  9 30  1  0
 12 31  1  0
 12 32  1  0
 13 33  1  0
 17 34  1  0
 18 35  1  0
 20 36  1  0
 21 37  1  0
 22 38  1  0
 23 39  1  0
M  END
>  <smiles>  (7) 
N#Cc1ccccc1NC(=O)CNC(=O)c1ccc2ccccc2n1

>  <score_type>  (7) 
oracle

>  <origin>  (7) 
autodockgpu

>  <m_score__min__energy>  (7) 
-8.8100000000000005

>  <m_primary>  (7) 
energy

>  <rmsd>  (7) 
8.53813989298586

>  <m_score__min__rmsd>  (7) 
8.53813989298586

>  <meeko>  (7) 
{"free_energy": -7.5, "intermolecular_energy": -8.99, "internal_energy": -2.0, "cluster_size": 35, "cluster_id": 1, "rank_in_cluster": 35}

>  <energy>  (7) 
-8.79

>  <cluster_rmsd>  (7) 
0.35

>  <cluster>  (7) 
1

$$$$

     RDKit          3D

 39 41  0  0  0  0  0  0  0  0999 V2000
  139.1560   67.7570  224.4770 N   0  0  0  0  0  0  0  0  0  0  0  0
  139.5820   68.5880  225.1880 C   0  0  0  0  0  0  0  0  0  0  0  0
  140.1020   69.5970  226.0780 C   0  0  0  0  0  0  0  0  0  0  0  0
  140.3000   69.2680  227.3940 C   0  0  0  0  0  0  0  0  0  0  0  0
  140.7920   70.1560  228.3270 C   0  0  0  0  0  0  0  0  0  0  0  0
  141.0870   71.4240  227.8830 C   0  0  0  0  0  0  0  0  0  0  0  0
  140.8840   71.7530  226.5500 C   0  0  0  0  0  0  0  0  0  0  0  0
  140.4020   70.8860  225.6280 C   0  0  0  0  0  0  0  0  0  0  0  0
  140.1690   71.1420  224.2610 N   0  0  0  0  0  0  0  0  0  0  0  0
  138.9000   71.3180  223.6590 C   0  0  0  0  0  0  0  0  0  0  0  0
  137.8240   71.2650  224.2840 O   0  0  0  0  0  0  0  0  0  0  0  0
  138.7970   71.5870  222.1840 C   0  0  0  0  0  0  0  0  0  0  0  0
  139.1710   72.9320  221.8660 N   0  0  0  0  0  0  0  0  0  0  0  0
  140.5460   73.2600  221.7440 C   0  0  0  0  0  0  0  0  0  0  0  0
  141.4680   72.4180  221.9040 O   0  0  0  0  0  0  0  0  0  0  0  0
  140.8850   74.6550  221.4150 C   0  0  0  0  0  0  0  0  0  0  0  0
  141.3870   75.0010  220.1740 C   0  0  0  0  0  0  0  0  0  0  0  0
  141.7020   76.3270  219.8790 C   0  0  0  0  0  0  0  0  0  0  0  0
  141.5210   77.3190  220.8180 C   0  0  0  0  0  0  0  0  0  0  0  0
  141.8140   78.6290  220.5770 C   0  0  0  0  0  0  0  0  0  0  0  0
  141.6200   79.6080  221.5470 C   0  0  0  0  0  0  0  0  0  0  0  0
  141.1160   79.2290  222.7770 C   0  0  0  0  0  0  0  0  0  0  0  0
  140.8220   77.9010  223.0130 C   0  0  0  0  0  0  0  0  0  0  0  0
  141.0190   76.9440  222.0460 C   0  0  0  0  0  0  0  0  0  0  0  0
  140.7230   75.6560  222.3000 N   0  0  0  0  0  0  0  0  0  0  0  0
  140.0547   68.2469  227.7212 H   0  0  0  0  0  0  0  0  0  0  0  0
  140.9416   69.8641  229.3770 H   0  0  0  0  0  0  0  0  0  0  0  0
  141.4827   72.1752  228.5824 H   0  0  0  0  0  0  0  0  0  0  0  0
  141.1282   72.7749  226.2243 H   0  0  0  0  0  0  0  0  0  0  0  0
  140.9930   71.2170  223.5970 H   0  0  0  0  0  0  0  0  0  0  0  0
  139.4629   70.8950  221.6476 H   0  0  0  0  0  0  0  0  0  0  0  0
  137.7502   71.4400  221.8798 H   0  0  0  0  0  0  0  0  0  0  0  0
  138.4430   73.6670  221.7240 H   0  0  0  0  0  0  0  0  0  0  0  0
  141.5394   74.2226  219.4119 H   0  0  0  0  0  0  0  0  0  0  0  0
  142.0993   76.5838  218.8859 H   0  0  0  0  0  0  0  0  0  0  0  0
  142.2127   78.9184  219.5935 H   0  0  0  0  0  0  0  0  0  0  0  0
  141.8625   80.6606  221.3393 H   0  0  0  0  0  0  0  0  0  0  0  0
  140.9502   79.9807  223.5627 H   0  0  0  0  0  0  0  0  0  0  0  0
  140.4225   77.6029  223.9936 H   0  0  0  0  0  0  0  0  0  0  0  0
  1  2  3  0
  2  3  1  0
  3  4  2  0
  4  5  1  0
  5  6  2  0
  6  7  1  0
  7  8  2  0
  8  9  1  0
  9 10  1  0
 10 11  2  0
 10 12  1  0
 12 13  1  0
 13 14  1  0
 14 15  2  0
 14 16  1  0
 16 17  2  0
 17 18  1  0
 18 19  2  0
 19 20  1  0
 20 21  2  0
 21 22  1  0
 22 23  2  0
 23 24  1  0
 24 25  2  0
  8  3  1  0
 25 16  1  0
 24 19  1  0
  4 26  1  0
  5 27  1  0
  6 28  1  0
  7 29  1  0
  9 30  1  0
 12 31  1  0
 12 32  1  0
 13 33  1  0
 17 34  1  0
 18 35  1  0
 20 36  1  0
 21 37  1  0
 22 38  1  0
 23 39  1  0
M  END
>  <smiles>  (8) 
N#Cc1ccccc1NC(=O)CNC(=O)c1ccc2ccccc2n1

>  <score_type>  (8) 
oracle

>  <origin>  (8) 
autodockgpu

>  <m_score__min__energy>  (8) 
-8.8100000000000005

>  <m_primary>  (8) 
energy

>  <rmsd>  (8) 
8.41812786229863

>  <m_score__min__rmsd>  (8) 
8.41812786229863

>  <meeko>  (8) 
{"free_energy": -7.68, "intermolecular_energy": -9.18, "internal_energy": -1.69, "cluster_size": 15, "cluster_id": 2, "rank_in_cluster": 14}

>  <energy>  (8) 
-8.79

>  <cluster_rmsd>  (8) 
0.21

>  <cluster>  (8) 
1

$$$$

     RDKit          3D

 39 41  0  0  0  0  0  0  0  0999 V2000
  141.8820   78.6380  218.6520 N   0  0  0  0  0  0  0  0  0  0  0  0
  141.8230   78.9240  219.7890 C   0  0  0  0  0  0  0  0  0  0  0  0
  141.7660   79.2610  221.1900 C   0  0  0  0  0  0  0  0  0  0  0  0
  141.9360   80.5710  221.5550 C   0  0  0  0  0  0  0  0  0  0  0  0
  141.9000   80.9990  222.8660 C   0  0  0  0  0  0  0  0  0  0  0  0
  141.6800   80.0410  223.8270 C   0  0  0  0  0  0  0  0  0  0  0  0
  141.5090   78.7150  223.4530 C   0  0  0  0  0  0  0  0  0  0  0  0
  141.5430   78.2880  222.1680 C   0  0  0  0  0  0  0  0  0  0  0  0
  141.3780   76.9640  221.7090 N   0  0  0  0  0  0  0  0  0  0  0  0
  140.2020   76.1880  221.8330 C   0  0  0  0  0  0  0  0  0  0  0  0
  139.1570   76.5970  222.3750 O   0  0  0  0  0  0  0  0  0  0  0  0
  140.1640   74.7850  221.2960 C   0  0  0  0  0  0  0  0  0  0  0  0
  139.8910   73.8330  222.3290 N   0  0  0  0  0  0  0  0  0  0  0  0
  140.6410   72.6290  222.3800 C   0  0  0  0  0  0  0  0  0  0  0  0
  141.5460   72.3500  221.5510 O   0  0  0  0  0  0  0  0  0  0  0  0
  140.3270   71.6780  223.4610 C   0  0  0  0  0  0  0  0  0  0  0  0
  139.6300   70.5110  223.2130 C   0  0  0  0  0  0  0  0  0  0  0  0
  139.3410   69.6220  224.2480 C   0  0  0  0  0  0  0  0  0  0  0  0
  139.7420   69.8890  225.5380 C   0  0  0  0  0  0  0  0  0  0  0  0
  139.4830   69.0520  226.5840 C   0  0  0  0  0  0  0  0  0  0  0  0
  139.9030   69.3520  227.8760 C   0  0  0  0  0  0  0  0  0  0  0  0
  140.5980   70.5270  228.0900 C   0  0  0  0  0  0  0  0  0  0  0  0
  140.8550   71.3690  227.0270 C   0  0  0  0  0  0  0  0  0  0  0  0
  140.4350   71.0620  225.7540 C   0  0  0  0  0  0  0  0  0  0  0  0
  140.7000   71.8990  224.7350 N   0  0  0  0  0  0  0  0  0  0  0  0
  142.1094   81.3166  220.7651 H   0  0  0  0  0  0  0  0  0  0  0  0
  142.0408   82.0575  223.1300 H   0  0  0  0  0  0  0  0  0  0  0  0
  141.6395   80.3242  224.8891 H   0  0  0  0  0  0  0  0  0  0  0  0
  141.3364   77.9701  224.2438 H   0  0  0  0  0  0  0  0  0  0  0  0
  142.1860   76.4770  221.2220 H   0  0  0  0  0  0  0  0  0  0  0  0
  139.3769   74.7169  220.5306 H   0  0  0  0  0  0  0  0  0  0  0  0
  141.1501   74.5539  220.8669 H   0  0  0  0  0  0  0  0  0  0  0  0
  139.1500   74.0180  223.0420 H   0  0  0  0  0  0  0  0  0  0  0  0
  139.2999   70.2809  222.1893 H   0  0  0  0  0  0  0  0  0  0  0  0
  138.7864   68.6970  224.0314 H   0  0  0  0  0  0  0  0  0  0  0  0
  138.9296   68.1190  226.4016 H   0  0  0  0  0  0  0  0  0  0  0  0
  139.6863   68.6680  228.7098 H   0  0  0  0  0  0  0  0  0  0  0  0
  140.9441   70.7895  229.1006 H   0  0  0  0  0  0  0  0  0  0  0  0
  141.4068   72.3044  227.2016 H   0  0  0  0  0  0  0  0  0  0  0  0
  1  2  3  0
  2  3  1  0
  3  4  2  0
  4  5  1  0
  5  6  2  0
  6  7  1  0
  7  8  2  0
  8  9  1  0
  9 10  1  0
 10 11  2  0
 10 12  1  0
 12 13  1  0
 13 14  1  0
 14 15  2  0
 14 16  1  0
 16 17  2  0
 17 18  1  0
 18 19  2  0
 19 20  1  0
 20 21  2  0
 21 22  1  0
 22 23  2  0
 23 24  1  0
 24 25  2  0
  8  3  1  0
 25 16  1  0
 24 19  1  0
  4 26  1  0
  5 27  1  0
  6 28  1  0
  7 29  1  0
  9 30  1  0
 12 31  1  0
 12 32  1  0
 13 33  1  0
 17 34  1  0
 18 35  1  0
 20 36  1  0
 21 37  1  0
 22 38  1  0
 23 39  1  0
M  END
>  <smiles>  (9) 
N#Cc1ccccc1NC(=O)CNC(=O)c1ccc2ccccc2n1

>  <score_type>  (9) 
oracle

>  <origin>  (9) 
autodockgpu

>  <m_score__min__energy>  (9) 
-8.8100000000000005

>  <m_primary>  (9) 
energy

>  <rmsd>  (9) 
2.9443657678186623

>  <m_score__min__rmsd>  (9) 
2.9443657678186623

>  <meeko>  (9) 
{"free_energy": -8.79, "intermolecular_energy": -10.28, "internal_energy": -1.03, "cluster_size": 35, "cluster_id": 1, "rank_in_cluster": 12}

>  <energy>  (9) 
-8.79

>  <cluster_rmsd>  (9) 
0.34

>  <cluster>  (9) 
1

$$$$

     RDKit          3D

 39 41  0  0  0  0  0  0  0  0999 V2000
  139.2240   67.3950  224.5330 N   0  0  0  0  0  0  0  0  0  0  0  0
  139.6340   68.1740  225.3090 C   0  0  0  0  0  0  0  0  0  0  0  0
  140.1390   69.1160  226.2770 C   0  0  0  0  0  0  0  0  0  0  0  0
  140.3660   68.6800  227.5560 C   0  0  0  0  0  0  0  0  0  0  0  0
  140.8470   69.4980  228.5570 C   0  0  0  0  0  0  0  0  0  0  0  0
  141.1010   70.8070  228.2220 C   0  0  0  0  0  0  0  0  0  0  0  0
  140.8690   71.2450  226.9250 C   0  0  0  0  0  0  0  0  0  0  0  0
  140.3970   70.4470  225.9380 C   0  0  0  0  0  0  0  0  0  0  0  0
  140.1360   70.8150  224.6010 N   0  0  0  0  0  0  0  0  0  0  0  0
  138.8610   70.8520  223.9890 C   0  0  0  0  0  0  0  0  0  0  0  0
  137.8030   70.5560  224.5760 O   0  0  0  0  0  0  0  0  0  0  0  0
  138.7280   71.2640  222.5500 C   0  0  0  0  0  0  0  0  0  0  0  0
  139.1480   72.6170  222.3490 N   0  0  0  0  0  0  0  0  0  0  0  0
  140.3270   72.8750  221.6020 C   0  0  0  0  0  0  0  0  0  0  0  0
  141.0340   71.9620  221.1020 O   0  0  0  0  0  0  0  0  0  0  0  0
  140.7210   74.2830  221.4200 C   0  0  0  0  0  0  0  0  0  0  0  0
  141.7350   74.6400  220.5510 C   0  0  0  0  0  0  0  0  0  0  0  0
  142.0950   75.9770  220.3900 C   0  0  0  0  0  0  0  0  0  0  0  0
  141.4500   76.9700  221.0940 C   0  0  0  0  0  0  0  0  0  0  0  0
  141.7660   78.2910  220.9710 C   0  0  0  0  0  0  0  0  0  0  0  0
  141.0940   79.2700  221.6970 C   0  0  0  0  0  0  0  0  0  0  0  0
  140.0850   78.8790  222.5570 C   0  0  0  0  0  0  0  0  0  0  0  0
  139.7710   77.5400  222.6760 C   0  0  0  0  0  0  0  0  0  0  0  0
  140.4430   76.5830  221.9530 C   0  0  0  0  0  0  0  0  0  0  0  0
  140.1170   75.2840  222.0860 N   0  0  0  0  0  0  0  0  0  0  0  0
  140.1546   67.6275  227.7959 H   0  0  0  0  0  0  0  0  0  0  0  0
  141.0193   69.1207  229.5758 H   0  0  0  0  0  0  0  0  0  0  0  0
  141.4869   71.5053  228.9793 H   0  0  0  0  0  0  0  0  0  0  0  0
  141.0802   72.2978  226.6862 H   0  0  0  0  0  0  0  0  0  0  0  0
  140.9430   71.0940  223.9710 H   0  0  0  0  0  0  0  0  0  0  0  0
  139.3496   70.6013  221.9299 H   0  0  0  0  0  0  0  0  0  0  0  0
  137.6680   71.1868  222.2664 H   0  0  0  0  0  0  0  0  0  0  0  0
  138.5950   73.4110  222.7440 H   0  0  0  0  0  0  0  0  0  0  0  0
  142.2630   73.8614  219.9809 H   0  0  0  0  0  0  0  0  0  0  0  0
  142.9034   76.2422  219.6928 H   0  0  0  0  0  0  0  0  0  0  0  0
  142.5702   78.5895  220.2824 H   0  0  0  0  0  0  0  0  0  0  0  0
  141.3601   80.3318  221.5887 H   0  0  0  0  0  0  0  0  0  0  0  0
  139.5355   79.6303  223.1431 H   0  0  0  0  0  0  0  0  0  0  0  0
  138.9680   77.2330  223.3622 H   0  0  0  0  0  0  0  0  0  0  0  0
  1  2  3  0
  2  3  1  0
  3  4  2  0
  4  5  1  0
  5  6  2  0
  6  7  1  0
  7  8  2  0
  8  9  1  0
  9 10  1  0
 10 11  2  0
 10 12  1  0
 12 13  1  0
 13 14  1  0
 14 15  2  0
 14 16  1  0
 16 17  2  0
 17 18  1  0
 18 19  2  0
 19 20  1  0
 20 21  2  0
 21 22  1  0
 22 23  2  0
 23 24  1  0
 24 25  2  0
  8  3  1  0
 25 16  1  0
 24 19  1  0
  4 26  1  0
  5 27  1  0
  6 28  1  0
  7 29  1  0
  9 30  1  0
 12 31  1  0
 12 32  1  0
 13 33  1  0
 17 34  1  0
 18 35  1  0
 20 36  1  0
 21 37  1  0
 22 38  1  0
 23 39  1  0
M  END
>  <smiles>  (10) 
N#Cc1ccccc1NC(=O)CNC(=O)c1ccc2ccccc2n1

>  <score_type>  (10) 
oracle

>  <origin>  (10) 
autodockgpu

>  <m_score__min__energy>  (10) 
-8.8100000000000005

>  <m_primary>  (10) 
energy

>  <rmsd>  (10) 
8.46967083723852

>  <m_score__min__rmsd>  (10) 
8.46967083723852

>  <meeko>  (10) 
{"free_energy": -8.08, "intermolecular_energy": -9.57, "internal_energy": -1.24, "cluster_size": 15, "cluster_id": 2, "rank_in_cluster": 2}

>  <energy>  (10) 
-8.79

>  <cluster_rmsd>  (10) 
0.37

>  <cluster>  (10) 
1

$$$$

     RDKit          3D

 39 41  0  0  0  0  0  0  0  0999 V2000
  141.8540   78.5200  218.7080 N   0  0  0  0  0  0  0  0  0  0  0  0
  141.8200   78.7970  219.8480 C   0  0  0  0  0  0  0  0  0  0  0  0
  141.7800   79.1170  221.2540 C   0  0  0  0  0  0  0  0  0  0  0  0
  142.0340   80.4070  221.6380 C   0  0  0  0  0  0  0  0  0  0  0  0
  142.0210   80.8190  222.9540 C   0  0  0  0  0  0  0  0  0  0  0  0
  141.7350   79.8630  223.9010 C   0  0  0  0  0  0  0  0  0  0  0  0
  141.4780   78.5560  223.5070 C   0  0  0  0  0  0  0  0  0  0  0  0
  141.4890   78.1470  222.2170 C   0  0  0  0  0  0  0  0  0  0  0  0
  141.2390   76.8440  221.7380 N   0  0  0  0  0  0  0  0  0  0  0  0
  140.0150   76.1430  221.8520 C   0  0  0  0  0  0  0  0  0  0  0  0
  138.9990   76.6100  222.4020 O   0  0  0  0  0  0  0  0  0  0  0  0
  139.8870   74.7530  221.2940 C   0  0  0  0  0  0  0  0  0  0  0  0
  139.6800   73.7870  222.3290 N   0  0  0  0  0  0  0  0  0  0  0  0
  140.5160   72.6420  222.3880 C   0  0  0  0  0  0  0  0  0  0  0  0
  141.4440   72.4290  221.5650 O   0  0  0  0  0  0  0  0  0  0  0  0
  140.2670   71.6750  223.4710 C   0  0  0  0  0  0  0  0  0  0  0  0
  139.5750   70.5000  223.2430 C   0  0  0  0  0  0  0  0  0  0  0  0
  139.3480   69.5950  224.2790 C   0  0  0  0  0  0  0  0  0  0  0  0
  139.8080   69.8540  225.5520 C   0  0  0  0  0  0  0  0  0  0  0  0
  139.6110   69.0010  226.5980 C   0  0  0  0  0  0  0  0  0  0  0  0
  140.0880   69.2900  227.8730 C   0  0  0  0  0  0  0  0  0  0  0  0
  140.7770   70.4730  228.0670 C   0  0  0  0  0  0  0  0  0  0  0  0
  140.9710   71.3310  227.0030 C   0  0  0  0  0  0  0  0  0  0  0  0
  140.4940   71.0330  225.7490 C   0  0  0  0  0  0  0  0  0  0  0  0
  140.6980   71.8860  224.7280 N   0  0  0  0  0  0  0  0  0  0  0  0
  142.2592   81.1503  220.8590 H   0  0  0  0  0  0  0  0  0  0  0  0
  142.2294   81.8624  223.2332 H   0  0  0  0  0  0  0  0  0  0  0  0
  141.7099   80.1328  224.9671 H   0  0  0  0  0  0  0  0  0  0  0  0
  141.2532   77.8128  224.2862 H   0  0  0  0  0  0  0  0  0  0  0  0
  142.0140   76.3130  221.2420 H   0  0  0  0  0  0  0  0  0  0  0  0
  139.0325   74.7234  220.6020 H   0  0  0  0  0  0  0  0  0  0  0  0
  140.8232   74.5038  220.7730 H   0  0  0  0  0  0  0  0  0  0  0  0
  138.9230   73.9190  223.0370 H   0  0  0  0  0  0  0  0  0  0  0  0
  139.1995   70.2768  222.2335 H   0  0  0  0  0  0  0  0  0  0  0  0
  138.7962   68.6648  224.0783 H   0  0  0  0  0  0  0  0  0  0  0  0
  139.0622   68.0626  226.4298 H   0  0  0  0  0  0  0  0  0  0  0  0
  139.9207   68.5931  228.7075 H   0  0  0  0  0  0  0  0  0  0  0  0
  141.1681   70.7289  229.0628 H   0  0  0  0  0  0  0  0  0  0  0  0
  141.5182   72.2719  227.1621 H   0  0  0  0  0  0  0  0  0  0  0  0
  1  2  3  0
  2  3  1  0
  3  4  2  0
  4  5  1  0
  5  6  2  0
  6  7  1  0
  7  8  2  0
  8  9  1  0
  9 10  1  0
 10 11  2  0
 10 12  1  0
 12 13  1  0
 13 14  1  0
 14 15  2  0
 14 16  1  0
 16 17  2  0
 17 18  1  0
 18 19  2  0
 19 20  1  0
 20 21  2  0
 21 22  1  0
 22 23  2  0
 23 24  1  0
 24 25  2  0
  8  3  1  0
 25 16  1  0
 24 19  1  0
  4 26  1  0
  5 27  1  0
  6 28  1  0
  7 29  1  0
  9 30  1  0
 12 31  1  0
 12 32  1  0
 13 33  1  0
 17 34  1  0
 18 35  1  0
 20 36  1  0
 21 37  1  0
 22 38  1  0
 23 39  1  0
M  END
>  <smiles>  (11) 
N#Cc1ccccc1NC(=O)CNC(=O)c1ccc2ccccc2n1

>  <score_type>  (11) 
oracle

>  <origin>  (11) 
autodockgpu

>  <m_score__min__energy>  (11) 
-8.8100000000000005

>  <m_primary>  (11) 
energy

>  <rmsd>  (11) 
2.8817747903002746

>  <m_score__min__rmsd>  (11) 
2.8817747903002746

>  <meeko>  (11) 
{"free_energy": -8.79, "intermolecular_energy": -10.28, "internal_energy": -0.99, "cluster_size": 35, "cluster_id": 1, "rank_in_cluster": 11}

>  <energy>  (11) 
-8.79

>  <cluster_rmsd>  (11) 
0.24

>  <cluster>  (11) 
1

$$$$

     RDKit          3D

 39 41  0  0  0  0  0  0  0  0999 V2000
  141.7980   78.5580  218.6640 N   0  0  0  0  0  0  0  0  0  0  0  0
  141.7680   78.8230  219.8070 C   0  0  0  0  0  0  0  0  0  0  0  0
  141.7310   79.1700  221.2060 C   0  0  0  0  0  0  0  0  0  0  0  0
  141.9030   80.4840  221.5580 C   0  0  0  0  0  0  0  0  0  0  0  0
  141.8850   80.9230  222.8650 C   0  0  0  0  0  0  0  0  0  0  0  0
  141.6850   79.9710  223.8370 C   0  0  0  0  0  0  0  0  0  0  0  0
  141.5120   78.6410  223.4770 C   0  0  0  0  0  0  0  0  0  0  0  0
  141.5280   78.2040  222.1950 C   0  0  0  0  0  0  0  0  0  0  0  0
  141.3600   76.8770  221.7490 N   0  0  0  0  0  0  0  0  0  0  0  0
  140.1550   76.1370  221.7930 C   0  0  0  0  0  0  0  0  0  0  0  0
  139.0830   76.5860  222.2420 O   0  0  0  0  0  0  0  0  0  0  0  0
  140.1180   74.7240  221.2810 C   0  0  0  0  0  0  0  0  0  0  0  0
  139.8770   73.7880  222.3360 N   0  0  0  0  0  0  0  0  0  0  0  0
  140.5780   72.5540  222.3430 C   0  0  0  0  0  0  0  0  0  0  0  0
  141.4120   72.2350  221.4560 O   0  0  0  0  0  0  0  0  0  0  0  0
  140.2980   71.6210  223.4490 C   0  0  0  0  0  0  0  0  0  0  0  0
  139.6170   70.4370  223.2370 C   0  0  0  0  0  0  0  0  0  0  0  0
  139.3610   69.5650  224.2950 C   0  0  0  0  0  0  0  0  0  0  0  0
  139.7800   69.8660  225.5720 C   0  0  0  0  0  0  0  0  0  0  0  0
  139.5540   69.0470  226.6390 C   0  0  0  0  0  0  0  0  0  0  0  0
  139.9900   69.3800  227.9180 C   0  0  0  0  0  0  0  0  0  0  0  0
  140.6690   70.5710  228.0950 C   0  0  0  0  0  0  0  0  0  0  0  0
  140.8930   71.3940  227.0100 C   0  0  0  0  0  0  0  0  0  0  0  0
  140.4570   71.0540  225.7520 C   0  0  0  0  0  0  0  0  0  0  0  0
  140.6890   71.8740  224.7110 N   0  0  0  0  0  0  0  0  0  0  0  0
  142.0630   81.2234  220.7594 H   0  0  0  0  0  0  0  0  0  0  0  0
  142.0240   81.9844  223.1182 H   0  0  0  0  0  0  0  0  0  0  0  0
  141.6621   80.2624  224.8975 H   0  0  0  0  0  0  0  0  0  0  0  0
  141.3533   77.9022  224.2764 H   0  0  0  0  0  0  0  0  0  0  0  0
  142.1890   76.3570  221.3370 H   0  0  0  0  0  0  0  0  0  0  0  0
  139.3147   74.6356  220.5348 H   0  0  0  0  0  0  0  0  0  0  0  0
  141.0964   74.4942  220.8338 H   0  0  0  0  0  0  0  0  0  0  0  0
  139.1940   74.0060  223.0960 H   0  0  0  0  0  0  0  0  0  0  0  0
  139.2736   70.1800  222.2241 H   0  0  0  0  0  0  0  0  0  0  0  0
  138.8185   68.6266  224.1075 H   0  0  0  0  0  0  0  0  0  0  0  0
  139.0144   68.1009  226.4850 H   0  0  0  0  0  0  0  0  0  0  0  0
  139.7985   68.7102  228.7693 H   0  0  0  0  0  0  0  0  0  0  0  0
  141.0282   70.8607  229.0935 H   0  0  0  0  0  0  0  0  0  0  0  0
  141.4318   72.3419  227.1553 H   0  0  0  0  0  0  0  0  0  0  0  0
  1  2  3  0
  2  3  1  0
  3  4  2  0
  4  5  1  0
  5  6  2  0
  6  7  1  0
  7  8  2  0
  8  9  1  0
  9 10  1  0
 10 11  2  0
 10 12  1  0
 12 13  1  0
 13 14  1  0
 14 15  2  0
 14 16  1  0
 16 17  2  0
 17 18  1  0
 18 19  2  0
 19 20  1  0
 20 21  2  0
 21 22  1  0
 22 23  2  0
 23 24  1  0
 24 25  2  0
  8  3  1  0
 25 16  1  0
 24 19  1  0
  4 26  1  0
  5 27  1  0
  6 28  1  0
  7 29  1  0
  9 30  1  0
 12 31  1  0
 12 32  1  0
 13 33  1  0
 17 34  1  0
 18 35  1  0
 20 36  1  0
 21 37  1  0
 22 38  1  0
 23 39  1  0
M  END
>  <smiles>  (12) 
N#Cc1ccccc1NC(=O)CNC(=O)c1ccc2ccccc2n1

>  <score_type>  (12) 
oracle

>  <origin>  (12) 
autodockgpu

>  <m_score__min__energy>  (12) 
-8.8100000000000005

>  <m_primary>  (12) 
energy

>  <rmsd>  (12) 
2.8930135504100254

>  <m_score__min__rmsd>  (12) 
2.8930135504100254

>  <meeko>  (12) 
{"free_energy": -8.79, "intermolecular_energy": -10.29, "internal_energy": -1.01, "cluster_size": 35, "cluster_id": 1, "rank_in_cluster": 6}

>  <energy>  (12) 
-8.79

>  <cluster_rmsd>  (12) 
0.36

>  <cluster>  (12) 
1

$$$$

     RDKit          3D

 39 41  0  0  0  0  0  0  0  0999 V2000
  139.1580   67.7730  224.2180 N   0  0  0  0  0  0  0  0  0  0  0  0
  139.5670   68.4730  225.0670 C   0  0  0  0  0  0  0  0  0  0  0  0
  140.0890   69.3200  226.1110 C   0  0  0  0  0  0  0  0  0  0  0  0
  140.1170   68.8350  227.3930 C   0  0  0  0  0  0  0  0  0  0  0  0
  140.5950   69.5620  228.4630 C   0  0  0  0  0  0  0  0  0  0  0  0
  141.0570   70.8290  228.1980 C   0  0  0  0  0  0  0  0  0  0  0  0
  141.0250   71.3170  226.8970 C   0  0  0  0  0  0  0  0  0  0  0  0
  140.5580   70.6080  225.8420 C   0  0  0  0  0  0  0  0  0  0  0  0
  140.4930   71.0300  224.4980 N   0  0  0  0  0  0  0  0  0  0  0  0
  139.3240   71.4460  223.8190 C   0  0  0  0  0  0  0  0  0  0  0  0
  138.1950   71.4860  224.3450 O   0  0  0  0  0  0  0  0  0  0  0  0
  139.3990   71.8720  222.3800 C   0  0  0  0  0  0  0  0  0  0  0  0
  139.7150   73.2630  222.2580 N   0  0  0  0  0  0  0  0  0  0  0  0
  140.7730   73.6630  221.4010 C   0  0  0  0  0  0  0  0  0  0  0  0
  141.4590   72.8460  220.7330 O   0  0  0  0  0  0  0  0  0  0  0  0
  141.0620   75.1050  221.3060 C   0  0  0  0  0  0  0  0  0  0  0  0
  141.8730   75.6120  220.3090 C   0  0  0  0  0  0  0  0  0  0  0  0
  142.1360   76.9790  220.2330 C   0  0  0  0  0  0  0  0  0  0  0  0
  141.5950   77.8520  221.1520 C   0  0  0  0  0  0  0  0  0  0  0  0
  141.8230   79.1970  221.1200 C   0  0  0  0  0  0  0  0  0  0  0  0
  141.2610   80.0520  222.0630 C   0  0  0  0  0  0  0  0  0  0  0  0
  140.4540   79.5120  223.0470 C   0  0  0  0  0  0  0  0  0  0  0  0
  140.2290   78.1500  223.0720 C   0  0  0  0  0  0  0  0  0  0  0  0
  140.7900   77.3160  222.1340 C   0  0  0  0  0  0  0  0  0  0  0  0
  140.5540   75.9930  222.1800 N   0  0  0  0  0  0  0  0  0  0  0  0
  139.7404   67.8180  227.5769 H   0  0  0  0  0  0  0  0  0  0  0  0
  140.6060   69.1469  229.4816 H   0  0  0  0  0  0  0  0  0  0  0  0
  141.4507   71.4546  229.0126 H   0  0  0  0  0  0  0  0  0  0  0  0
  141.3996   72.3350  226.7143 H   0  0  0  0  0  0  0  0  0  0  0  0
  141.3800   71.0510  223.9160 H   0  0  0  0  0  0  0  0  0  0  0  0
  140.1780   71.2832  221.8735 H   0  0  0  0  0  0  0  0  0  0  0  0
  138.4151   71.7009  221.9188 H   0  0  0  0  0  0  0  0  0  0  0  0
  139.1750   73.9800  222.7920 H   0  0  0  0  0  0  0  0  0  0  0  0
  142.3156   74.9303  219.5678 H   0  0  0  0  0  0  0  0  0  0  0  0
  142.7823   77.3649  219.4309 H   0  0  0  0  0  0  0  0  0  0  0  0
  142.4656   79.6147  220.3309 H   0  0  0  0  0  0  0  0  0  0  0  0
  141.4547   81.1342  222.0263 H   0  0  0  0  0  0  0  0  0  0  0  0
  139.9942   80.1631  223.8050 H   0  0  0  0  0  0  0  0  0  0  0  0
  139.5882   77.7238  223.8580 H   0  0  0  0  0  0  0  0  0  0  0  0
  1  2  3  0
  2  3  1  0
  3  4  2  0
  4  5  1  0
  5  6  2  0
  6  7  1  0
  7  8  2  0
  8  9  1  0
  9 10  1  0
 10 11  2  0
 10 12  1  0
 12 13  1  0
 13 14  1  0
 14 15  2  0
 14 16  1  0
 16 17  2  0
 17 18  1  0
 18 19  2  0
 19 20  1  0
 20 21  2  0
 21 22  1  0
 22 23  2  0
 23 24  1  0
 24 25  2  0
  8  3  1  0
 25 16  1  0
 24 19  1  0
  4 26  1  0
  5 27  1  0
  6 28  1  0
  7 29  1  0
  9 30  1  0
 12 31  1  0
 12 32  1  0
 13 33  1  0
 17 34  1  0
 18 35  1  0
 20 36  1  0
 21 37  1  0
 22 38  1  0
 23 39  1  0
M  END
>  <smiles>  (13) 
N#Cc1ccccc1NC(=O)CNC(=O)c1ccc2ccccc2n1

>  <score_type>  (13) 
oracle

>  <origin>  (13) 
autodockgpu

>  <m_score__min__energy>  (13) 
-8.8100000000000005

>  <m_primary>  (13) 
energy

>  <rmsd>  (13) 
8.688989106088973

>  <m_score__min__rmsd>  (13) 
8.688989106088973

>  <meeko>  (13) 
{"free_energy": -7.98, "intermolecular_energy": -9.48, "internal_energy": -1.2, "cluster_size": 15, "cluster_id": 2, "rank_in_cluster": 3}

>  <energy>  (13) 
-8.78

>  <cluster_rmsd>  (13) 
0.36

>  <cluster>  (13) 
1

$$$$

     RDKit          3D

 39 41  0  0  0  0  0  0  0  0999 V2000
  141.8580   78.7970  218.6300 N   0  0  0  0  0  0  0  0  0  0  0  0
  141.8190   79.0450  219.7770 C   0  0  0  0  0  0  0  0  0  0  0  0
  141.7500   79.3450  221.1860 C   0  0  0  0  0  0  0  0  0  0  0  0
  141.8960   80.6480  221.5850 C   0  0  0  0  0  0  0  0  0  0  0  0
  141.8460   81.0430  222.9050 C   0  0  0  0  0  0  0  0  0  0  0  0
  141.6390   80.0570  223.8410 C   0  0  0  0  0  0  0  0  0  0  0  0
  141.4920   78.7370  223.4330 C   0  0  0  0  0  0  0  0  0  0  0  0
  141.5390   78.3440  222.1380 C   0  0  0  0  0  0  0  0  0  0  0  0
  141.3990   77.0300  221.6450 N   0  0  0  0  0  0  0  0  0  0  0  0
  140.3560   76.1320  221.9730 C   0  0  0  0  0  0  0  0  0  0  0  0
  139.4240   76.4080  222.7530 O   0  0  0  0  0  0  0  0  0  0  0  0
  140.3290   74.7550  221.3710 C   0  0  0  0  0  0  0  0  0  0  0  0
  139.9820   73.7630  222.3430 N   0  0  0  0  0  0  0  0  0  0  0  0
  140.6910   72.5330  222.3620 C   0  0  0  0  0  0  0  0  0  0  0  0
  141.6210   72.2660  221.5580 O   0  0  0  0  0  0  0  0  0  0  0  0
  140.3010   71.5410  223.3800 C   0  0  0  0  0  0  0  0  0  0  0  0
  139.5500   70.4280  223.0500 C   0  0  0  0  0  0  0  0  0  0  0  0
  139.1900   69.4990  224.0250 C   0  0  0  0  0  0  0  0  0  0  0  0
  139.5730   69.6720  225.3370 C   0  0  0  0  0  0  0  0  0  0  0  0
  139.2450   68.7920  226.3270 C   0  0  0  0  0  0  0  0  0  0  0  0
  139.6480   68.9950  227.6430 C   0  0  0  0  0  0  0  0  0  0  0  0
  140.3980   70.1170  227.9390 C   0  0  0  0  0  0  0  0  0  0  0  0
  140.7250   71.0030  226.9320 C   0  0  0  0  0  0  0  0  0  0  0  0
  140.3210   70.7910  225.6350 C   0  0  0  0  0  0  0  0  0  0  0  0
  140.6540   71.6690  224.6720 N   0  0  0  0  0  0  0  0  0  0  0  0
  142.0611   81.4158  220.8148 H   0  0  0  0  0  0  0  0  0  0  0  0
  141.9660   82.0971  223.1957 H   0  0  0  0  0  0  0  0  0  0  0  0
  141.5900   80.3126  224.9098 H   0  0  0  0  0  0  0  0  0  0  0  0
  141.3286   77.9695  224.2038 H   0  0  0  0  0  0  0  0  0  0  0  0
  142.1190   76.6490  220.9650 H   0  0  0  0  0  0  0  0  0  0  0  0
  139.5870   74.7345  220.5592 H   0  0  0  0  0  0  0  0  0  0  0  0
  141.3348   74.5261  220.9889 H   0  0  0  0  0  0  0  0  0  0  0  0
  139.2180   73.9370  223.0320 H   0  0  0  0  0  0  0  0  0  0  0  0
  139.2335   70.2741  222.0078 H   0  0  0  0  0  0  0  0  0  0  0  0
  138.5938   68.6184  223.7438 H   0  0  0  0  0  0  0  0  0  0  0  0
  138.6483   67.9018  226.0788 H   0  0  0  0  0  0  0  0  0  0  0  0
  139.3754   68.2776  228.4310 H   0  0  0  0  0  0  0  0  0  0  0  0
  140.7324   70.3031  228.9703 H   0  0  0  0  0  0  0  0  0  0  0  0
  141.3205   71.8962  227.1721 H   0  0  0  0  0  0  0  0  0  0  0  0
  1  2  3  0
  2  3  1  0
  3  4  2  0
  4  5  1  0
  5  6  2  0
  6  7  1  0
  7  8  2  0
  8  9  1  0
  9 10  1  0
 10 11  2  0
 10 12  1  0
 12 13  1  0
 13 14  1  0
 14 15  2  0
 14 16  1  0
 16 17  2  0
 17 18  1  0
 18 19  2  0
 19 20  1  0
 20 21  2  0
 21 22  1  0
 22 23  2  0
 23 24  1  0
 24 25  2  0
  8  3  1  0
 25 16  1  0
 24 19  1  0
  4 26  1  0
  5 27  1  0
  6 28  1  0
  7 29  1  0
  9 30  1  0
 12 31  1  0
 12 32  1  0
 13 33  1  0
 17 34  1  0
 18 35  1  0
 20 36  1  0
 21 37  1  0
 22 38  1  0
 23 39  1  0
M  END
>  <smiles>  (14) 
N#Cc1ccccc1NC(=O)CNC(=O)c1ccc2ccccc2n1

>  <score_type>  (14) 
oracle

>  <origin>  (14) 
autodockgpu

>  <m_score__min__energy>  (14) 
-8.8100000000000005

>  <m_primary>  (14) 
energy

>  <rmsd>  (14) 
2.9782342736675975

>  <m_score__min__rmsd>  (14) 
2.9782342736675975

>  <meeko>  (14) 
{"free_energy": -8.48, "intermolecular_energy": -9.97, "internal_energy": -1.13, "cluster_size": 35, "cluster_id": 1, "rank_in_cluster": 29}

>  <energy>  (14) 
-8.78

>  <cluster_rmsd>  (14) 
0.36

>  <cluster>  (14) 
1

$$$$

     RDKit          3D

 39 41  0  0  0  0  0  0  0  0999 V2000
  139.2050   67.4360  224.6020 N   0  0  0  0  0  0  0  0  0  0  0  0
  139.6410   68.2230  225.3560 C   0  0  0  0  0  0  0  0  0  0  0  0
  140.1570   69.1970  226.2860 C   0  0  0  0  0  0  0  0  0  0  0  0
  140.6080   68.7620  227.5050 C   0  0  0  0  0  0  0  0  0  0  0  0
  141.1200   69.6090  228.4660 C   0  0  0  0  0  0  0  0  0  0  0  0
  141.1650   70.9470  228.1540 C   0  0  0  0  0  0  0  0  0  0  0  0
  140.7070   71.3840  226.9180 C   0  0  0  0  0  0  0  0  0  0  0  0
  140.2030   70.5580  225.9700 C   0  0  0  0  0  0  0  0  0  0  0  0
  139.7200   70.9220  224.6960 N   0  0  0  0  0  0  0  0  0  0  0  0
  138.3890   70.7640  224.2420 C   0  0  0  0  0  0  0  0  0  0  0  0
  137.4760   70.2730  224.9340 O   0  0  0  0  0  0  0  0  0  0  0  0
  138.0100   71.1970  222.8540 C   0  0  0  0  0  0  0  0  0  0  0  0
  138.5690   72.4740  222.5310 N   0  0  0  0  0  0  0  0  0  0  0  0
  139.8890   72.5440  222.0150 C   0  0  0  0  0  0  0  0  0  0  0  0
  140.6050   71.5260  221.8260 O   0  0  0  0  0  0  0  0  0  0  0  0
  140.4240   73.8790  221.6950 C   0  0  0  0  0  0  0  0  0  0  0  0
  141.4670   74.0420  220.8030 C   0  0  0  0  0  0  0  0  0  0  0  0
  141.9610   75.3120  220.5110 C   0  0  0  0  0  0  0  0  0  0  0  0
  141.4210   76.4310  221.1060 C   0  0  0  0  0  0  0  0  0  0  0  0
  141.8700   77.6950  220.8530 C   0  0  0  0  0  0  0  0  0  0  0  0
  141.3020   78.8050  221.4710 C   0  0  0  0  0  0  0  0  0  0  0  0
  140.2600   78.6070  222.3570 C   0  0  0  0  0  0  0  0  0  0  0  0
  139.8130   77.3260  222.6080 C   0  0  0  0  0  0  0  0  0  0  0  0
  140.3820   76.2370  221.9910 C   0  0  0  0  0  0  0  0  0  0  0  0
  139.9270   74.9980  222.2520 N   0  0  0  0  0  0  0  0  0  0  0  0
  140.5594   67.6859  227.7277 H   0  0  0  0  0  0  0  0  0  0  0  0
  141.4755   69.2315  229.4361 H   0  0  0  0  0  0  0  0  0  0  0  0
  141.5628   71.6697  228.8816 H   0  0  0  0  0  0  0  0  0  0  0  0
  140.7562   72.4603  226.6965 H   0  0  0  0  0  0  0  0  0  0  0  0
  140.3840   71.3560  223.9920 H   0  0  0  0  0  0  0  0  0  0  0  0
  138.3803   70.4525  222.1339 H   0  0  0  0  0  0  0  0  0  0  0  0
  136.9141   71.2782  222.8055 H   0  0  0  0  0  0  0  0  0  0  0  0
  138.0150   73.3490  222.6690 H   0  0  0  0  0  0  0  0  0  0  0  0
  141.9118   73.1603  220.3185 H   0  0  0  0  0  0  0  0  0  0  0  0
  142.7911   75.4221  219.7977 H   0  0  0  0  0  0  0  0  0  0  0  0
  142.6993   77.8394  220.1448 H   0  0  0  0  0  0  0  0  0  0  0  0
  141.6744   79.8181  221.2589 H   0  0  0  0  0  0  0  0  0  0  0  0
  139.7898   79.4654  222.8590 H   0  0  0  0  0  0  0  0  0  0  0  0
  138.9850   77.1730  223.3158 H   0  0  0  0  0  0  0  0  0  0  0  0
  1  2  3  0
  2  3  1  0
  3  4  2  0
  4  5  1  0
  5  6  2  0
  6  7  1  0
  7  8  2  0
  8  9  1  0
  9 10  1  0
 10 11  2  0
 10 12  1  0
 12 13  1  0
 13 14  1  0
 14 15  2  0
 14 16  1  0
 16 17  2  0
 17 18  1  0
 18 19  2  0
 19 20  1  0
 20 21  2  0
 21 22  1  0
 22 23  2  0
 23 24  1  0
 24 25  2  0
  8  3  1  0
 25 16  1  0
 24 19  1  0
  4 26  1  0
  5 27  1  0
  6 28  1  0
  7 29  1  0
  9 30  1  0
 12 31  1  0
 12 32  1  0
 13 33  1  0
 17 34  1  0
 18 35  1  0
 20 36  1  0
 21 37  1  0
 22 38  1  0
 23 39  1  0
M  END
>  <smiles>  (15) 
N#Cc1ccccc1NC(=O)CNC(=O)c1ccc2ccccc2n1

>  <score_type>  (15) 
oracle

>  <origin>  (15) 
autodockgpu

>  <m_score__min__energy>  (15) 
-8.8100000000000005

>  <m_primary>  (15) 
energy

>  <rmsd>  (15) 
8.272112517311951

>  <m_score__min__rmsd>  (15) 
8.272112517311951

>  <meeko>  (15) 
{"free_energy": -7.95, "intermolecular_energy": -9.44, "internal_energy": -1.8, "cluster_size": 15, "cluster_id": 2, "rank_in_cluster": 5}

>  <energy>  (15) 
-8.78

>  <cluster_rmsd>  (15) 
0.21

>  <cluster>  (15) 
1

$$$$

     RDKit          3D

 39 41  0  0  0  0  0  0  0  0999 V2000
  141.8960   78.5790  218.6470 N   0  0  0  0  0  0  0  0  0  0  0  0
  141.8210   78.8720  219.7810 C   0  0  0  0  0  0  0  0  0  0  0  0
  141.7500   79.2280  221.1770 C   0  0  0  0  0  0  0  0  0  0  0  0
  141.9060   80.5440  221.5240 C   0  0  0  0  0  0  0  0  0  0  0  0
  141.8560   80.9910  222.8280 C   0  0  0  0  0  0  0  0  0  0  0  0
  141.6370   80.0440  223.8010 C   0  0  0  0  0  0  0  0  0  0  0  0
  141.4800   78.7110  223.4450 C   0  0  0  0  0  0  0  0  0  0  0  0
  141.5270   78.2670  222.1660 C   0  0  0  0  0  0  0  0  0  0  0  0
  141.3770   76.9360  221.7240 N   0  0  0  0  0  0  0  0  0  0  0  0
  140.1920   76.1670  221.8080 C   0  0  0  0  0  0  0  0  0  0  0  0
  139.1260   76.5900  222.2940 O   0  0  0  0  0  0  0  0  0  0  0  0
  140.1720   74.7540  221.2960 C   0  0  0  0  0  0  0  0  0  0  0  0
  139.9040   73.8180  222.3450 N   0  0  0  0  0  0  0  0  0  0  0  0
  140.6330   72.6010  222.3920 C   0  0  0  0  0  0  0  0  0  0  0  0
  141.5150   72.2980  221.5470 O   0  0  0  0  0  0  0  0  0  0  0  0
  140.3250   71.6670  223.4890 C   0  0  0  0  0  0  0  0  0  0  0  0
  139.6300   70.4940  223.2630 C   0  0  0  0  0  0  0  0  0  0  0  0
  139.3470   69.6210  224.3120 C   0  0  0  0  0  0  0  0  0  0  0  0
  139.7520   69.9100  225.5970 C   0  0  0  0  0  0  0  0  0  0  0  0
  139.4990   69.0890  226.6560 C   0  0  0  0  0  0  0  0  0  0  0  0
  139.9220   69.4100  227.9430 C   0  0  0  0  0  0  0  0  0  0  0  0
  140.6150   70.5910  228.1350 C   0  0  0  0  0  0  0  0  0  0  0  0
  140.8670   71.4160  227.0570 C   0  0  0  0  0  0  0  0  0  0  0  0
  140.4430   71.0870  225.7920 C   0  0  0  0  0  0  0  0  0  0  0  0
  140.7020   71.9090  224.7580 N   0  0  0  0  0  0  0  0  0  0  0  0
  142.0794   81.2794  220.7246 H   0  0  0  0  0  0  0  0  0  0  0  0
  141.9852   82.0544  223.0778 H   0  0  0  0  0  0  0  0  0  0  0  0
  141.5863   80.3418  224.8587 H   0  0  0  0  0  0  0  0  0  0  0  0
  141.3082   77.9757  224.2449 H   0  0  0  0  0  0  0  0  0  0  0  0
  142.2040   76.4370  221.2850 H   0  0  0  0  0  0  0  0  0  0  0  0
  139.3896   74.6635  220.5281 H   0  0  0  0  0  0  0  0  0  0  0  0
  141.1626   74.5259  220.8758 H   0  0  0  0  0  0  0  0  0  0  0  0
  139.1820   74.0230  223.0710 H   0  0  0  0  0  0  0  0  0  0  0  0
  139.2966   70.2467  222.2443 H   0  0  0  0  0  0  0  0  0  0  0  0
  138.7943   68.6912  224.1119 H   0  0  0  0  0  0  0  0  0  0  0  0
  138.9480   68.1516  226.4896 H   0  0  0  0  0  0  0  0  0  0  0  0
  139.7096   68.7390  228.7883 H   0  0  0  0  0  0  0  0  0  0  0  0
  140.9633   70.8714  229.1400 H   0  0  0  0  0  0  0  0  0  0  0  0
  141.4180   72.3551  227.2138 H   0  0  0  0  0  0  0  0  0  0  0  0
  1  2  3  0
  2  3  1  0
  3  4  2  0
  4  5  1  0
  5  6  2  0
  6  7  1  0
  7  8  2  0
  8  9  1  0
  9 10  1  0
 10 11  2  0
 10 12  1  0
 12 13  1  0
 13 14  1  0
 14 15  2  0
 14 16  1  0
 16 17  2  0
 17 18  1  0
 18 19  2  0
 19 20  1  0
 20 21  2  0
 21 22  1  0
 22 23  2  0
 23 24  1  0
 24 25  2  0
  8  3  1  0
 25 16  1  0
 24 19  1  0
  4 26  1  0
  5 27  1  0
  6 28  1  0
  7 29  1  0
  9 30  1  0
 12 31  1  0
 12 32  1  0
 13 33  1  0
 17 34  1  0
 18 35  1  0
 20 36  1  0
 21 37  1  0
 22 38  1  0
 23 39  1  0
M  END
>  <smiles>  (16) 
N#Cc1ccccc1NC(=O)CNC(=O)c1ccc2ccccc2n1

>  <score_type>  (16) 
oracle

>  <origin>  (16) 
autodockgpu

>  <m_score__min__energy>  (16) 
-8.8100000000000005

>  <m_primary>  (16) 
energy

>  <rmsd>  (16) 
2.9254528836985365

>  <m_score__min__rmsd>  (16) 
2.9254528836985365

>  <meeko>  (16) 
{"free_energy": -8.79, "intermolecular_energy": -10.28, "internal_energy": -1.02, "cluster_size": 35, "cluster_id": 1, "rank_in_cluster": 9}

>  <energy>  (16) 
-8.77

>  <cluster_rmsd>  (16) 
0.37

>  <cluster>  (16) 
1

$$$$

     RDKit          3D

 39 41  0  0  0  0  0  0  0  0999 V2000
  141.8870   77.9810  218.7860 N   0  0  0  0  0  0  0  0  0  0  0  0
  141.8210   78.3380  219.9020 C   0  0  0  0  0  0  0  0  0  0  0  0
  141.7620   78.7810  221.2730 C   0  0  0  0  0  0  0  0  0  0  0  0
  142.0200   80.1000  221.5460 C   0  0  0  0  0  0  0  0  0  0  0  0
  141.9900   80.6260  222.8200 C   0  0  0  0  0  0  0  0  0  0  0  0
  141.6830   79.7600  223.8430 C   0  0  0  0  0  0  0  0  0  0  0  0
  141.4220   78.4250  223.5630 C   0  0  0  0  0  0  0  0  0  0  0  0
  141.4500   77.9020  222.3140 C   0  0  0  0  0  0  0  0  0  0  0  0
  141.1970   76.5640  221.9480 N   0  0  0  0  0  0  0  0  0  0  0  0
  139.9490   76.0430  221.5320 C   0  0  0  0  0  0  0  0  0  0  0  0
  138.9100   76.7250  221.4410 O   0  0  0  0  0  0  0  0  0  0  0  0
  139.8210   74.5900  221.1700 C   0  0  0  0  0  0  0  0  0  0  0  0
  139.8050   73.7570  222.3340 N   0  0  0  0  0  0  0  0  0  0  0  0
  140.1340   72.3820  222.2090 C   0  0  0  0  0  0  0  0  0  0  0  0
  140.4420   71.8500  221.1110 O   0  0  0  0  0  0  0  0  0  0  0  0
  140.1050   71.5630  223.4330 C   0  0  0  0  0  0  0  0  0  0  0  0
  139.5860   70.2820  223.4300 C   0  0  0  0  0  0  0  0  0  0  0  0
  139.5670   69.5200  224.5980 C   0  0  0  0  0  0  0  0  0  0  0  0
  140.0630   70.0280  225.7780 C   0  0  0  0  0  0  0  0  0  0  0  0
  140.0660   69.3230  226.9450 C   0  0  0  0  0  0  0  0  0  0  0  0
  140.5760   69.8650  228.1220 C   0  0  0  0  0  0  0  0  0  0  0  0
  141.0880   71.1490  228.0900 C   0  0  0  0  0  0  0  0  0  0  0  0
  141.0800   71.8560  226.9040 C   0  0  0  0  0  0  0  0  0  0  0  0
  140.5740   71.3090  225.7490 C   0  0  0  0  0  0  0  0  0  0  0  0
  140.5800   72.0190  224.6070 N   0  0  0  0  0  0  0  0  0  0  0  0
  142.2625   80.7704  220.7083 H   0  0  0  0  0  0  0  0  0  0  0  0
  142.2018   81.6887  223.0093 H   0  0  0  0  0  0  0  0  0  0  0  0
  141.6442   80.1237  224.8804 H   0  0  0  0  0  0  0  0  0  0  0  0
  141.1792   77.7557  224.4016 H   0  0  0  0  0  0  0  0  0  0  0  0
  141.9890   75.8580  221.9750 H   0  0  0  0  0  0  0  0  0  0  0  0
  138.8845   74.4421  220.6122 H   0  0  0  0  0  0  0  0  0  0  0  0
  140.6909   74.3097  220.5579 H   0  0  0  0  0  0  0  0  0  0  0  0
  139.5560   74.1520  223.2680 H   0  0  0  0  0  0  0  0  0  0  0  0
  139.1840   69.8594  222.4974 H   0  0  0  0  0  0  0  0  0  0  0  0
  139.1512   68.5018  224.5764 H   0  0  0  0  0  0  0  0  0  0  0  0
  139.6560   68.3023  226.9571 H   0  0  0  0  0  0  0  0  0  0  0  0
  140.5717   69.2846  229.0564 H   0  0  0  0  0  0  0  0  0  0  0  0
  141.4989   71.6042  229.0032 H   0  0  0  0  0  0  0  0  0  0  0  0
  141.4868   72.8778  226.8831 H   0  0  0  0  0  0  0  0  0  0  0  0
  1  2  3  0
  2  3  1  0
  3  4  2  0
  4  5  1  0
  5  6  2  0
  6  7  1  0
  7  8  2  0
  8  9  1  0
  9 10  1  0
 10 11  2  0
 10 12  1  0
 12 13  1  0
 13 14  1  0
 14 15  2  0
 14 16  1  0
 16 17  2  0
 17 18  1  0
 18 19  2  0
 19 20  1  0
 20 21  2  0
 21 22  1  0
 22 23  2  0
 23 24  1  0
 24 25  2  0
  8  3  1  0
 25 16  1  0
 24 19  1  0
  4 26  1  0
  5 27  1  0
  6 28  1  0
  7 29  1  0
  9 30  1  0
 12 31  1  0
 12 32  1  0
 13 33  1  0
 17 34  1  0
 18 35  1  0
 20 36  1  0
 21 37  1  0
 22 38  1  0
 23 39  1  0
M  END
>  <smiles>  (17) 
N#Cc1ccccc1NC(=O)CNC(=O)c1ccc2ccccc2n1

>  <score_type>  (17) 
oracle

>  <origin>  (17) 
autodockgpu

>  <m_score__min__energy>  (17) 
-8.8100000000000005

>  <m_primary>  (17) 
energy

>  <rmsd>  (17) 
2.7414186661966506

>  <m_score__min__rmsd>  (17) 
2.7414186661966506

>  <meeko>  (17) 
{"free_energy": -8.58, "intermolecular_energy": -10.07, "internal_energy": -1.03, "cluster_size": 35, "cluster_id": 1, "rank_in_cluster": 26}

>  <energy>  (17) 
-8.77

>  <cluster_rmsd>  (17) 
0.38

>  <cluster>  (17) 
1

$$$$

     RDKit          3D

 39 41  0  0  0  0  0  0  0  0999 V2000
  141.8240   78.7140  218.6590 N   0  0  0  0  0  0  0  0  0  0  0  0
  141.7880   78.9690  219.8040 C   0  0  0  0  0  0  0  0  0  0  0  0
  141.7660   79.2890  221.2100 C   0  0  0  0  0  0  0  0  0  0  0  0
  141.9430   80.5950  221.5860 C   0  0  0  0  0  0  0  0  0  0  0  0
  141.9390   81.0080  222.9020 C   0  0  0  0  0  0  0  0  0  0  0  0
  141.7450   80.0380  223.8570 C   0  0  0  0  0  0  0  0  0  0  0  0
  141.5660   78.7160  223.4720 C   0  0  0  0  0  0  0  0  0  0  0  0
  141.5680   78.3040  222.1820 C   0  0  0  0  0  0  0  0  0  0  0  0
  141.3940   76.9860  221.7110 N   0  0  0  0  0  0  0  0  0  0  0  0
  140.2330   76.1950  221.8830 C   0  0  0  0  0  0  0  0  0  0  0  0
  139.2130   76.5840  222.4840 O   0  0  0  0  0  0  0  0  0  0  0  0
  140.1830   74.8000  221.3270 C   0  0  0  0  0  0  0  0  0  0  0  0
  139.8940   73.8370  222.3460 N   0  0  0  0  0  0  0  0  0  0  0  0
  140.6570   72.6420  222.4080 C   0  0  0  0  0  0  0  0  0  0  0  0
  141.5860   72.3800  221.6010 O   0  0  0  0  0  0  0  0  0  0  0  0
  140.3250   71.6800  223.4740 C   0  0  0  0  0  0  0  0  0  0  0  0
  139.6190   70.5220  223.2050 C   0  0  0  0  0  0  0  0  0  0  0  0
  139.3140   69.6220  224.2250 C   0  0  0  0  0  0  0  0  0  0  0  0
  139.7090   69.8690  225.5220 C   0  0  0  0  0  0  0  0  0  0  0  0
  139.4340   69.0200  226.5540 C   0  0  0  0  0  0  0  0  0  0  0  0
  139.8470   69.2970  227.8530 C   0  0  0  0  0  0  0  0  0  0  0  0
  140.5520   70.4630  228.0880 C   0  0  0  0  0  0  0  0  0  0  0  0
  140.8250   71.3170  227.0380 C   0  0  0  0  0  0  0  0  0  0  0  0
  140.4110   71.0310  225.7590 C   0  0  0  0  0  0  0  0  0  0  0  0
  140.6910   71.8800  224.7530 N   0  0  0  0  0  0  0  0  0  0  0  0
  142.0955   81.3500  220.8007 H   0  0  0  0  0  0  0  0  0  0  0  0
  142.0842   82.0637  223.1747 H   0  0  0  0  0  0  0  0  0  0  0  0
  141.7316   80.3086  224.9231 H   0  0  0  0  0  0  0  0  0  0  0  0
  141.4142   77.9618  224.2582 H   0  0  0  0  0  0  0  0  0  0  0  0
  142.1800   76.5160  221.1760 H   0  0  0  0  0  0  0  0  0  0  0  0
  139.3995   74.7506  220.5565 H   0  0  0  0  0  0  0  0  0  0  0  0
  141.1689   74.5641  220.9001 H   0  0  0  0  0  0  0  0  0  0  0  0
  139.1320   74.0080  223.0400 H   0  0  0  0  0  0  0  0  0  0  0  0
  139.2947   70.3087  222.1758 H   0  0  0  0  0  0  0  0  0  0  0  0
  138.7523   68.7053  223.9922 H   0  0  0  0  0  0  0  0  0  0  0  0
  138.8728   68.0953  226.3542 H   0  0  0  0  0  0  0  0  0  0  0  0
  139.6177   68.6035  228.6755 H   0  0  0  0  0  0  0  0  0  0  0  0
  140.8931   70.7086  229.1046 H   0  0  0  0  0  0  0  0  0  0  0  0
  141.3848   72.2445  227.2288 H   0  0  0  0  0  0  0  0  0  0  0  0
  1  2  3  0
  2  3  1  0
  3  4  2  0
  4  5  1  0
  5  6  2  0
  6  7  1  0
  7  8  2  0
  8  9  1  0
  9 10  1  0
 10 11  2  0
 10 12  1  0
 12 13  1  0
 13 14  1  0
 14 15  2  0
 14 16  1  0
 16 17  2  0
 17 18  1  0
 18 19  2  0
 19 20  1  0
 20 21  2  0
 21 22  1  0
 22 23  2  0
 23 24  1  0
 24 25  2  0
  8  3  1  0
 25 16  1  0
 24 19  1  0
  4 26  1  0
  5 27  1  0
  6 28  1  0
  7 29  1  0
  9 30  1  0
 12 31  1  0
 12 32  1  0
 13 33  1  0
 17 34  1  0
 18 35  1  0
 20 36  1  0
 21 37  1  0
 22 38  1  0
 23 39  1  0
M  END
>  <smiles>  (18) 
N#Cc1ccccc1NC(=O)CNC(=O)c1ccc2ccccc2n1

>  <score_type>  (18) 
oracle

>  <origin>  (18) 
autodockgpu

>  <m_score__min__energy>  (18) 
-8.8100000000000005

>  <m_primary>  (18) 
energy

>  <rmsd>  (18) 
2.9662311849354035

>  <m_score__min__rmsd>  (18) 
2.9662311849354035

>  <meeko>  (18) 
{"free_energy": -8.75, "intermolecular_energy": -10.24, "internal_energy": -1.04, "cluster_size": 35, "cluster_id": 1, "rank_in_cluster": 20}

>  <energy>  (18) 
-8.76

>  <cluster_rmsd>  (18) 
0.37

>  <cluster>  (18) 
1

$$$$

     RDKit          3D

 39 41  0  0  0  0  0  0  0  0999 V2000
  139.1980   67.4350  224.4680 N   0  0  0  0  0  0  0  0  0  0  0  0
  139.6060   68.2440  225.2140 C   0  0  0  0  0  0  0  0  0  0  0  0
  140.1190   69.2220  226.1420 C   0  0  0  0  0  0  0  0  0  0  0  0
  140.4280   68.8170  227.4140 C   0  0  0  0  0  0  0  0  0  0  0  0
  140.9240   69.6700  228.3770 C   0  0  0  0  0  0  0  0  0  0  0  0
  141.1050   70.9830  228.0110 C   0  0  0  0  0  0  0  0  0  0  0  0
  140.7890   71.3900  226.7210 C   0  0  0  0  0  0  0  0  0  0  0  0
  140.3030   70.5570  225.7710 C   0  0  0  0  0  0  0  0  0  0  0  0
  139.9600   70.8910  224.4440 N   0  0  0  0  0  0  0  0  0  0  0  0
  138.6470   70.9470  223.9200 C   0  0  0  0  0  0  0  0  0  0  0  0
  137.6240   70.7020  224.5880 O   0  0  0  0  0  0  0  0  0  0  0  0
  138.4250   71.3190  222.4810 C   0  0  0  0  0  0  0  0  0  0  0  0
  138.8820   72.6470  222.2040 N   0  0  0  0  0  0  0  0  0  0  0  0
  140.2410   72.8550  221.8540 C   0  0  0  0  0  0  0  0  0  0  0  0
  141.0780   71.9190  221.7740 O   0  0  0  0  0  0  0  0  0  0  0  0
  140.6670   74.2380  221.5760 C   0  0  0  0  0  0  0  0  0  0  0  0
  141.6520   74.5150  220.6470 C   0  0  0  0  0  0  0  0  0  0  0  0
  142.0430   75.8300  220.3960 C   0  0  0  0  0  0  0  0  0  0  0  0
  141.4570   76.8790  221.0700 C   0  0  0  0  0  0  0  0  0  0  0  0
  141.8050   78.1810  220.8600 C   0  0  0  0  0  0  0  0  0  0  0  0
  141.1940   79.2190  221.5580 C   0  0  0  0  0  0  0  0  0  0  0  0
  140.2130   78.9070  222.4800 C   0  0  0  0  0  0  0  0  0  0  0  0
  139.8670   77.5870  222.6860 C   0  0  0  0  0  0  0  0  0  0  0  0
  140.4780   76.5710  221.9910 C   0  0  0  0  0  0  0  0  0  0  0  0
  140.1220   75.2920  222.2100 N   0  0  0  0  0  0  0  0  0  0  0  0
  140.2729   67.7609  227.6796 H   0  0  0  0  0  0  0  0  0  0  0  0
  141.1637   69.3167  229.3907 H   0  0  0  0  0  0  0  0  0  0  0  0
  141.4988   71.7089  228.7376 H   0  0  0  0  0  0  0  0  0  0  0  0
  140.9420   72.4468  226.4570 H   0  0  0  0  0  0  0  0  0  0  0  0
  140.7280   71.1270  223.7510 H   0  0  0  0  0  0  0  0  0  0  0  0
  138.9730   70.6120  221.8408 H   0  0  0  0  0  0  0  0  0  0  0  0
  137.3448   71.2771  222.2773 H   0  0  0  0  0  0  0  0  0  0  0  0
  138.2250   73.4580  222.2570 H   0  0  0  0  0  0  0  0  0  0  0  0
  142.1323   73.6902  220.1002 H   0  0  0  0  0  0  0  0  0  0  0  0
  142.8276   76.0318  219.6519 H   0  0  0  0  0  0  0  0  0  0  0  0
  142.5863   78.4162  220.1222 H   0  0  0  0  0  0  0  0  0  0  0  0
  141.4856   80.2645  221.3796 H   0  0  0  0  0  0  0  0  0  0  0  0
  139.7112   79.7056  223.0460 H   0  0  0  0  0  0  0  0  0  0  0  0
  139.0863   77.3431  223.4215 H   0  0  0  0  0  0  0  0  0  0  0  0
  1  2  3  0
  2  3  1  0
  3  4  2  0
  4  5  1  0
  5  6  2  0
  6  7  1  0
  7  8  2  0
  8  9  1  0
  9 10  1  0
 10 11  2  0
 10 12  1  0
 12 13  1  0
 13 14  1  0
 14 15  2  0
 14 16  1  0
 16 17  2  0
 17 18  1  0
 18 19  2  0
 19 20  1  0
 20 21  2  0
 21 22  1  0
 22 23  2  0
 23 24  1  0
 24 25  2  0
  8  3  1  0
 25 16  1  0
 24 19  1  0
  4 26  1  0
  5 27  1  0
  6 28  1  0
  7 29  1  0
  9 30  1  0
 12 31  1  0
 12 32  1  0
 13 33  1  0
 17 34  1  0
 18 35  1  0
 20 36  1  0
 21 37  1  0
 22 38  1  0
 23 39  1  0
M  END
>  <smiles>  (19) 
N#Cc1ccccc1NC(=O)CNC(=O)c1ccc2ccccc2n1

>  <score_type>  (19) 
oracle

>  <origin>  (19) 
autodockgpu

>  <m_score__min__energy>  (19) 
-8.8100000000000005

>  <m_primary>  (19) 
energy

>  <rmsd>  (19) 
8.372281154772967

>  <m_score__min__rmsd>  (19) 
8.372281154772967

>  <meeko>  (19) 
{"free_energy": -7.79, "intermolecular_energy": -9.28, "internal_energy": -1.82, "cluster_size": 15, "cluster_id": 2, "rank_in_cluster": 12}

>  <energy>  (19) 
-8.76

>  <cluster_rmsd>  (19) 
0.38

>  <cluster>  (19) 
1

$$$$

     RDKit          3D

 39 41  0  0  0  0  0  0  0  0999 V2000
  139.2140   67.4040  224.6230 N   0  0  0  0  0  0  0  0  0  0  0  0
  139.6320   68.1900  225.3870 C   0  0  0  0  0  0  0  0  0  0  0  0
  140.1450   69.1720  226.3100 C   0  0  0  0  0  0  0  0  0  0  0  0
  140.5670   68.7510  227.5450 C   0  0  0  0  0  0  0  0  0  0  0  0
  141.0730   69.6070  228.5010 C   0  0  0  0  0  0  0  0  0  0  0  0
  141.1440   70.9390  228.1680 C   0  0  0  0  0  0  0  0  0  0  0  0
  140.7150   71.3620  226.9160 C   0  0  0  0  0  0  0  0  0  0  0  0
  140.2180   70.5270  225.9730 C   0  0  0  0  0  0  0  0  0  0  0  0
  139.7630   70.8760  224.6840 N   0  0  0  0  0  0  0  0  0  0  0  0
  138.4280   70.7790  224.2250 C   0  0  0  0  0  0  0  0  0  0  0  0
  137.4840   70.3640  224.9250 O   0  0  0  0  0  0  0  0  0  0  0  0
  138.0830   71.1880  222.8210 C   0  0  0  0  0  0  0  0  0  0  0  0
  138.6170   72.4770  222.5020 N   0  0  0  0  0  0  0  0  0  0  0  0
  139.9450   72.5750  222.0100 C   0  0  0  0  0  0  0  0  0  0  0  0
  140.6880   71.5740  221.8390 O   0  0  0  0  0  0  0  0  0  0  0  0
  140.4540   73.9210  221.6930 C   0  0  0  0  0  0  0  0  0  0  0  0
  141.4880   74.1070  220.7950 C   0  0  0  0  0  0  0  0  0  0  0  0
  141.9570   75.3880  220.5060 C   0  0  0  0  0  0  0  0  0  0  0  0
  141.4020   76.4940  221.1110 C   0  0  0  0  0  0  0  0  0  0  0  0
  141.8260   77.7660  220.8620 C   0  0  0  0  0  0  0  0  0  0  0  0
  141.2430   78.8630  221.4900 C   0  0  0  0  0  0  0  0  0  0  0  0
  140.2110   78.6420  222.3830 C   0  0  0  0  0  0  0  0  0  0  0  0
  139.7880   77.3520  222.6290 C   0  0  0  0  0  0  0  0  0  0  0  0
  140.3720   76.2770  222.0020 C   0  0  0  0  0  0  0  0  0  0  0  0
  139.9410   75.0290  222.2590 N   0  0  0  0  0  0  0  0  0  0  0  0
  140.4987   67.6796  227.7847 H   0  0  0  0  0  0  0  0  0  0  0  0
  141.4043   69.2410  229.4840 H   0  0  0  0  0  0  0  0  0  0  0  0
  141.5394   71.6679  228.8908 H   0  0  0  0  0  0  0  0  0  0  0  0
  140.7828   72.4338  226.6778 H   0  0  0  0  0  0  0  0  0  0  0  0
  140.4550   71.2490  223.9720 H   0  0  0  0  0  0  0  0  0  0  0  0
  138.4968   70.4469  222.1213 H   0  0  0  0  0  0  0  0  0  0  0  0
  136.9874   71.2387  222.7365 H   0  0  0  0  0  0  0  0  0  0  0  0
  138.0410   73.3380  222.6260 H   0  0  0  0  0  0  0  0  0  0  0  0
  141.9456   73.2358  220.3034 H   0  0  0  0  0  0  0  0  0  0  0  0
  142.7794   75.5167  219.7869 H   0  0  0  0  0  0  0  0  0  0  0  0
  142.6474   77.9288  220.1487 H   0  0  0  0  0  0  0  0  0  0  0  0
  141.5958   79.8836  221.2803 H   0  0  0  0  0  0  0  0  0  0  0  0
  139.7302   79.4892  222.8941 H   0  0  0  0  0  0  0  0  0  0  0  0
  138.9672   77.1803  223.3409 H   0  0  0  0  0  0  0  0  0  0  0  0
  1  2  3  0
  2  3  1  0
  3  4  2  0
  4  5  1  0
  5  6  2  0
  6  7  1  0
  7  8  2  0
  8  9  1  0
  9 10  1  0
 10 11  2  0
 10 12  1  0
 12 13  1  0
 13 14  1  0
 14 15  2  0
 14 16  1  0
 16 17  2  0
 17 18  1  0
 18 19  2  0
 19 20  1  0
 20 21  2  0
 21 22  1  0
 22 23  2  0
 23 24  1  0
 24 25  2  0
  8  3  1  0
 25 16  1  0
 24 19  1  0
  4 26  1  0
  5 27  1  0
  6 28  1  0
  7 29  1  0
  9 30  1  0
 12 31  1  0
 12 32  1  0
 13 33  1  0
 17 34  1  0
 18 35  1  0
 20 36  1  0
 21 37  1  0
 22 38  1  0
 23 39  1  0
M  END
>  <smiles>  (20) 
N#Cc1ccccc1NC(=O)CNC(=O)c1ccc2ccccc2n1

>  <score_type>  (20) 
oracle

>  <origin>  (20) 
autodockgpu

>  <m_score__min__energy>  (20) 
-8.8100000000000005

>  <m_primary>  (20) 
energy

>  <rmsd>  (20) 
8.300186196464743

>  <m_score__min__rmsd>  (20) 
8.300186196464743

>  <meeko>  (20) 
{"free_energy": -7.93, "intermolecular_energy": -9.42, "internal_energy": -1.83, "cluster_size": 15, "cluster_id": 2, "rank_in_cluster": 9}

>  <energy>  (20) 
-8.75

>  <cluster_rmsd>  (20) 
0.39

>  <cluster>  (20) 
1

$$$$

     RDKit          3D

 39 41  0  0  0  0  0  0  0  0999 V2000
  141.8670   78.6830  218.6590 N   0  0  0  0  0  0  0  0  0  0  0  0
  141.8200   78.9360  219.8050 C   0  0  0  0  0  0  0  0  0  0  0  0
  141.7750   79.2640  221.2080 C   0  0  0  0  0  0  0  0  0  0  0  0
  141.9560   80.5710  221.5800 C   0  0  0  0  0  0  0  0  0  0  0  0
  141.9320   80.9910  222.8930 C   0  0  0  0  0  0  0  0  0  0  0  0
  141.7140   80.0280  223.8500 C   0  0  0  0  0  0  0  0  0  0  0  0
  141.5310   78.7050  223.4690 C   0  0  0  0  0  0  0  0  0  0  0  0
  141.5530   78.2860  222.1820 C   0  0  0  0  0  0  0  0  0  0  0  0
  141.3760   76.9670  221.7150 N   0  0  0  0  0  0  0  0  0  0  0  0
  140.2020   76.1910  221.8580 C   0  0  0  0  0  0  0  0  0  0  0  0
  139.1690   76.5970  222.4250 O   0  0  0  0  0  0  0  0  0  0  0  0
  140.1510   74.7920  221.3100 C   0  0  0  0  0  0  0  0  0  0  0  0
  139.8740   73.8350  222.3380 N   0  0  0  0  0  0  0  0  0  0  0  0
  140.6420   72.6430  222.4010 C   0  0  0  0  0  0  0  0  0  0  0  0
  141.5660   72.3800  221.5890 O   0  0  0  0  0  0  0  0  0  0  0  0
  140.3230   71.6860  223.4750 C   0  0  0  0  0  0  0  0  0  0  0  0
  139.6260   70.5210  223.2180 C   0  0  0  0  0  0  0  0  0  0  0  0
  139.3330   69.6260  224.2460 C   0  0  0  0  0  0  0  0  0  0  0  0
  139.7290   69.8850  225.5390 C   0  0  0  0  0  0  0  0  0  0  0  0
  139.4660   69.0420  226.5790 C   0  0  0  0  0  0  0  0  0  0  0  0
  139.8810   69.3330  227.8750 C   0  0  0  0  0  0  0  0  0  0  0  0
  140.5760   70.5070  228.0980 C   0  0  0  0  0  0  0  0  0  0  0  0
  140.8380   71.3550  227.0410 C   0  0  0  0  0  0  0  0  0  0  0  0
  140.4220   71.0560  225.7650 C   0  0  0  0  0  0  0  0  0  0  0  0
  140.6910   71.8990  224.7520 N   0  0  0  0  0  0  0  0  0  0  0  0
  142.1286   81.3204  220.7934 H   0  0  0  0  0  0  0  0  0  0  0  0
  142.0803   82.0471  223.1624 H   0  0  0  0  0  0  0  0  0  0  0  0
  141.6846   80.3046  224.9142 H   0  0  0  0  0  0  0  0  0  0  0  0
  141.3587   77.9565  224.2564 H   0  0  0  0  0  0  0  0  0  0  0  0
  142.1730   76.4830  221.2080 H   0  0  0  0  0  0  0  0  0  0  0  0
  139.3606   74.7357  220.5470 H   0  0  0  0  0  0  0  0  0  0  0  0
  141.1333   74.5561  220.8748 H   0  0  0  0  0  0  0  0  0  0  0  0
  139.1170   74.0070  223.0360 H   0  0  0  0  0  0  0  0  0  0  0  0
  139.2990   70.2974  222.1918 H   0  0  0  0  0  0  0  0  0  0  0  0
  138.7792   68.7025  224.0216 H   0  0  0  0  0  0  0  0  0  0  0  0
  138.9129   68.1104  226.3886 H   0  0  0  0  0  0  0  0  0  0  0  0
  139.6609   68.6440  228.7038 H   0  0  0  0  0  0  0  0  0  0  0  0
  140.9181   70.7637  229.1115 H   0  0  0  0  0  0  0  0  0  0  0  0
  141.3906   72.2886  227.2230 H   0  0  0  0  0  0  0  0  0  0  0  0
  1  2  3  0
  2  3  1  0
  3  4  2  0
  4  5  1  0
  5  6  2  0
  6  7  1  0
  7  8  2  0
  8  9  1  0
  9 10  1  0
 10 11  2  0
 10 12  1  0
 12 13  1  0
 13 14  1  0
 14 15  2  0
 14 16  1  0
 16 17  2  0
 17 18  1  0
 18 19  2  0
 19 20  1  0
 20 21  2  0
 21 22  1  0
 22 23  2  0
 23 24  1  0
 24 25  2  0
  8  3  1  0
 25 16  1  0
 24 19  1  0
  4 26  1  0
  5 27  1  0
  6 28  1  0
  7 29  1  0
  9 30  1  0
 12 31  1  0
 12 32  1  0
 13 33  1  0
 17 34  1  0
 18 35  1  0
 20 36  1  0
 21 37  1  0
 22 38  1  0
 23 39  1  0
M  END
>  <smiles>  (21) 
N#Cc1ccccc1NC(=O)CNC(=O)c1ccc2ccccc2n1

>  <score_type>  (21) 
oracle

>  <origin>  (21) 
autodockgpu

>  <m_score__min__energy>  (21) 
-8.8100000000000005

>  <m_primary>  (21) 
energy

>  <rmsd>  (21) 
2.9533809573281595

>  <m_score__min__rmsd>  (21) 
2.9533809573281595

>  <meeko>  (21) 
{"free_energy": -8.78, "intermolecular_energy": -10.27, "internal_energy": -1.03, "cluster_size": 35, "cluster_id": 1, "rank_in_cluster": 13}

>  <energy>  (21) 
-8.73

>  <cluster_rmsd>  (21) 
0.35

>  <cluster>  (21) 
1

$$$$

     RDKit          3D

 39 41  0  0  0  0  0  0  0  0999 V2000
  141.9060   78.6240  218.6620 N   0  0  0  0  0  0  0  0  0  0  0  0
  141.8300   78.8930  219.8020 C   0  0  0  0  0  0  0  0  0  0  0  0
  141.7510   79.2390  221.2000 C   0  0  0  0  0  0  0  0  0  0  0  0
  141.9090   80.5530  221.5580 C   0  0  0  0  0  0  0  0  0  0  0  0
  141.8510   80.9910  222.8640 C   0  0  0  0  0  0  0  0  0  0  0  0
  141.6240   80.0380  223.8290 C   0  0  0  0  0  0  0  0  0  0  0  0
  141.4650   78.7080  223.4630 C   0  0  0  0  0  0  0  0  0  0  0  0
  141.5200   78.2720  222.1820 C   0  0  0  0  0  0  0  0  0  0  0  0
  141.3690   76.9440  221.7300 N   0  0  0  0  0  0  0  0  0  0  0  0
  140.1870   76.1710  221.8190 C   0  0  0  0  0  0  0  0  0  0  0  0
  139.1240   76.5870  222.3190 O   0  0  0  0  0  0  0  0  0  0  0  0
  140.1660   74.7630  221.2950 C   0  0  0  0  0  0  0  0  0  0  0  0
  139.9190   73.8160  222.3400 N   0  0  0  0  0  0  0  0  0  0  0  0
  140.6080   72.5760  222.3300 C   0  0  0  0  0  0  0  0  0  0  0  0
  141.4380   72.2600  221.4380 O   0  0  0  0  0  0  0  0  0  0  0  0
  140.3230   71.6320  223.4260 C   0  0  0  0  0  0  0  0  0  0  0  0
  139.6780   70.4320  223.1920 C   0  0  0  0  0  0  0  0  0  0  0  0
  139.4150   69.5510  224.2400 C   0  0  0  0  0  0  0  0  0  0  0  0
  139.7920   69.8580  225.5290 C   0  0  0  0  0  0  0  0  0  0  0  0
  139.5580   69.0290  226.5870 C   0  0  0  0  0  0  0  0  0  0  0  0
  139.9520   69.3680  227.8780 C   0  0  0  0  0  0  0  0  0  0  0  0
  140.5950   70.5750  228.0770 C   0  0  0  0  0  0  0  0  0  0  0  0
  140.8280   71.4080  227.0010 C   0  0  0  0  0  0  0  0  0  0  0  0
  140.4340   71.0610  225.7300 C   0  0  0  0  0  0  0  0  0  0  0  0
  140.6740   71.8910  224.6990 N   0  0  0  0  0  0  0  0  0  0  0  0
  142.0908   81.2934  220.7651 H   0  0  0  0  0  0  0  0  0  0  0  0
  141.9802   82.0525  223.1218 H   0  0  0  0  0  0  0  0  0  0  0  0
  141.5685   80.3286  224.8885 H   0  0  0  0  0  0  0  0  0  0  0  0
  141.2845   77.9682  224.2568 H   0  0  0  0  0  0  0  0  0  0  0  0
  142.1930   76.4510  221.2780 H   0  0  0  0  0  0  0  0  0  0  0  0
  139.3721   74.6753  220.5386 H   0  0  0  0  0  0  0  0  0  0  0  0
  141.1511   74.5437  220.8574 H   0  0  0  0  0  0  0  0  0  0  0  0
  139.2390   74.0310  223.1030 H   0  0  0  0  0  0  0  0  0  0  0  0
  139.3693   70.1697  222.1693 H   0  0  0  0  0  0  0  0  0  0  0  0
  138.9008   68.6003  224.0354 H   0  0  0  0  0  0  0  0  0  0  0  0
  139.0461   68.0706  226.4157 H   0  0  0  0  0  0  0  0  0  0  0  0
  139.7559   68.6900  228.7217 H   0  0  0  0  0  0  0  0  0  0  0  0
  140.9190   70.8700  229.0860 H   0  0  0  0  0  0  0  0  0  0  0  0
  141.3390   72.3684  227.1636 H   0  0  0  0  0  0  0  0  0  0  0  0
  1  2  3  0
  2  3  1  0
  3  4  2  0
  4  5  1  0
  5  6  2  0
  6  7  1  0
  7  8  2  0
  8  9  1  0
  9 10  1  0
 10 11  2  0
 10 12  1  0
 12 13  1  0
 13 14  1  0
 14 15  2  0
 14 16  1  0
 16 17  2  0
 17 18  1  0
 18 19  2  0
 19 20  1  0
 20 21  2  0
 21 22  1  0
 22 23  2  0
 23 24  1  0
 24 25  2  0
  8  3  1  0
 25 16  1  0
 24 19  1  0
  4 26  1  0
  5 27  1  0
  6 28  1  0
  7 29  1  0
  9 30  1  0
 12 31  1  0
 12 32  1  0
 13 33  1  0
 17 34  1  0
 18 35  1  0
 20 36  1  0
 21 37  1  0
 22 38  1  0
 23 39  1  0
M  END
>  <smiles>  (22) 
N#Cc1ccccc1NC(=O)CNC(=O)c1ccc2ccccc2n1

>  <score_type>  (22) 
oracle

>  <origin>  (22) 
autodockgpu

>  <m_score__min__energy>  (22) 
-8.8100000000000005

>  <m_primary>  (22) 
energy

>  <rmsd>  (22) 
2.923571839226508

>  <m_score__min__rmsd>  (22) 
2.923571839226508

>  <meeko>  (22) 
{"free_energy": -8.78, "intermolecular_energy": -10.27, "internal_energy": -1.03, "cluster_size": 35, "cluster_id": 1, "rank_in_cluster": 14}

>  <energy>  (22) 
-8.73

>  <cluster_rmsd>  (22) 
0.4

>  <cluster>  (22) 
1

$$$$

     RDKit          3D

 39 41  0  0  0  0  0  0  0  0999 V2000
  141.8250   78.6360  218.6640 N   0  0  0  0  0  0  0  0  0  0  0  0
  141.7970   78.9190  219.8020 C   0  0  0  0  0  0  0  0  0  0  0  0
  141.7480   79.2520  221.2040 C   0  0  0  0  0  0  0  0  0  0  0  0
  141.9170   80.5620  221.5720 C   0  0  0  0  0  0  0  0  0  0  0  0
  141.8880   80.9860  222.8840 C   0  0  0  0  0  0  0  0  0  0  0  0
  141.6770   80.0250  223.8440 C   0  0  0  0  0  0  0  0  0  0  0  0
  141.5060   78.6990  223.4670 C   0  0  0  0  0  0  0  0  0  0  0  0
  141.5340   78.2760  222.1810 C   0  0  0  0  0  0  0  0  0  0  0  0
  141.3690   76.9530  221.7190 N   0  0  0  0  0  0  0  0  0  0  0  0
  140.1890   76.1810  221.8300 C   0  0  0  0  0  0  0  0  0  0  0  0
  139.1390   76.5930  222.3610 O   0  0  0  0  0  0  0  0  0  0  0  0
  140.1520   74.7780  221.2920 C   0  0  0  0  0  0  0  0  0  0  0  0
  139.8810   73.8250  222.3250 N   0  0  0  0  0  0  0  0  0  0  0  0
  140.6410   72.6280  222.3810 C   0  0  0  0  0  0  0  0  0  0  0  0
  141.5540   72.3560  221.5580 O   0  0  0  0  0  0  0  0  0  0  0  0
  140.3290   71.6760  223.4620 C   0  0  0  0  0  0  0  0  0  0  0  0
  139.6340   70.5070  223.2130 C   0  0  0  0  0  0  0  0  0  0  0  0
  139.3460   69.6170  224.2470 C   0  0  0  0  0  0  0  0  0  0  0  0
  139.7470   69.8840  225.5370 C   0  0  0  0  0  0  0  0  0  0  0  0
  139.4900   69.0460  226.5820 C   0  0  0  0  0  0  0  0  0  0  0  0
  139.9090   69.3450  227.8750 C   0  0  0  0  0  0  0  0  0  0  0  0
  140.6020   70.5210  228.0890 C   0  0  0  0  0  0  0  0  0  0  0  0
  140.8580   71.3640  227.0270 C   0  0  0  0  0  0  0  0  0  0  0  0
  140.4380   71.0570  225.7540 C   0  0  0  0  0  0  0  0  0  0  0  0
  140.7010   71.8960  224.7360 N   0  0  0  0  0  0  0  0  0  0  0  0
  142.0837   81.3104  220.7832 H   0  0  0  0  0  0  0  0  0  0  0  0
  142.0273   82.0442  223.1500 H   0  0  0  0  0  0  0  0  0  0  0  0
  141.6437   80.3051  224.9072 H   0  0  0  0  0  0  0  0  0  0  0  0
  141.3386   77.9516  224.2565 H   0  0  0  0  0  0  0  0  0  0  0  0
  142.1810   76.4640  221.2410 H   0  0  0  0  0  0  0  0  0  0  0  0
  139.3642   74.7095  220.5274 H   0  0  0  0  0  0  0  0  0  0  0  0
  141.1379   74.5482  220.8617 H   0  0  0  0  0  0  0  0  0  0  0  0
  139.1340   74.0040  223.0320 H   0  0  0  0  0  0  0  0  0  0  0  0
  139.3050   70.2768  222.1889 H   0  0  0  0  0  0  0  0  0  0  0  0
  138.7925   68.6915  224.0299 H   0  0  0  0  0  0  0  0  0  0  0  0
  138.9387   68.1120  226.3985 H   0  0  0  0  0  0  0  0  0  0  0  0
  139.6932   68.6601  228.7083 H   0  0  0  0  0  0  0  0  0  0  0  0
  140.9475   70.7836  229.0998 H   0  0  0  0  0  0  0  0  0  0  0  0
  141.4088   72.2999  227.2021 H   0  0  0  0  0  0  0  0  0  0  0  0
  1  2  3  0
  2  3  1  0
  3  4  2  0
  4  5  1  0
  5  6  2  0
  6  7  1  0
  7  8  2  0
  8  9  1  0
  9 10  1  0
 10 11  2  0
 10 12  1  0
 12 13  1  0
 13 14  1  0
 14 15  2  0
 14 16  1  0
 16 17  2  0
 17 18  1  0
 18 19  2  0
 19 20  1  0
 20 21  2  0
 21 22  1  0
 22 23  2  0
 23 24  1  0
 24 25  2  0
  8  3  1  0
 25 16  1  0
 24 19  1  0
  4 26  1  0
  5 27  1  0
  6 28  1  0
  7 29  1  0
  9 30  1  0
 12 31  1  0
 12 32  1  0
 13 33  1  0
 17 34  1  0
 18 35  1  0
 20 36  1  0
 21 37  1  0
 22 38  1  0
 23 39  1  0
M  END
>  <smiles>  (23) 
N#Cc1ccccc1NC(=O)CNC(=O)c1ccc2ccccc2n1

>  <score_type>  (23) 
oracle

>  <origin>  (23) 
autodockgpu

>  <m_score__min__energy>  (23) 
-8.8100000000000005

>  <m_primary>  (23) 
energy

>  <rmsd>  (23) 
2.941776841895678

>  <m_score__min__rmsd>  (23) 
2.941776841895678

>  <meeko>  (23) 
{"free_energy": -8.79, "intermolecular_energy": -10.28, "internal_energy": -1.03, "cluster_size": 35, "cluster_id": 1, "rank_in_cluster": 7}

>  <energy>  (23) 
-8.71

>  <cluster_rmsd>  (23) 
0.42

>  <cluster>  (23) 
1

$$$$

     RDKit          3D

 39 41  0  0  0  0  0  0  0  0999 V2000
  138.4990   68.1920  223.9330 N   0  0  0  0  0  0  0  0  0  0  0  0
  139.0590   68.7480  224.8020 C   0  0  0  0  0  0  0  0  0  0  0  0
  139.7420   69.4510  225.8600 C   0  0  0  0  0  0  0  0  0  0  0  0
  140.2630   68.7230  226.8980 C   0  0  0  0  0  0  0  0  0  0  0  0
  140.9330   69.2950  227.9590 C   0  0  0  0  0  0  0  0  0  0  0  0
  141.0690   70.6630  227.9430 C   0  0  0  0  0  0  0  0  0  0  0  0
  140.5400   71.3970  226.8890 C   0  0  0  0  0  0  0  0  0  0  0  0
  139.8810   70.8410  225.8450 C   0  0  0  0  0  0  0  0  0  0  0  0
  139.3170   71.5150  224.7410 N   0  0  0  0  0  0  0  0  0  0  0  0
  139.9590   71.7510  223.5020 C   0  0  0  0  0  0  0  0  0  0  0  0
  141.1210   71.3810  223.2430 O   0  0  0  0  0  0  0  0  0  0  0  0
  139.2380   72.4850  222.4080 C   0  0  0  0  0  0  0  0  0  0  0  0
  139.6410   73.8570  222.3400 N   0  0  0  0  0  0  0  0  0  0  0  0
  140.6610   74.2370  221.4300 C   0  0  0  0  0  0  0  0  0  0  0  0
  141.2390   73.4190  220.6690 O   0  0  0  0  0  0  0  0  0  0  0  0
  141.0430   75.6600  221.3940 C   0  0  0  0  0  0  0  0  0  0  0  0
  141.7840   76.1800  220.3490 C   0  0  0  0  0  0  0  0  0  0  0  0
  142.1370   77.5290  220.3310 C   0  0  0  0  0  0  0  0  0  0  0  0
  141.7560   78.3700  221.3530 C   0  0  0  0  0  0  0  0  0  0  0  0
  142.0770   79.6960  221.3800 C   0  0  0  0  0  0  0  0  0  0  0  0
  141.6760   80.5200  222.4270 C   0  0  0  0  0  0  0  0  0  0  0  0
  140.9360   79.9680  223.4560 C   0  0  0  0  0  0  0  0  0  0  0  0
  140.6160   78.6260  223.4210 C   0  0  0  0  0  0  0  0  0  0  0  0
  141.0180   77.8230  222.3800 C   0  0  0  0  0  0  0  0  0  0  0  0
  140.6920   76.5170  222.3700 N   0  0  0  0  0  0  0  0  0  0  0  0
  140.1408   67.6299  226.8840 H   0  0  0  0  0  0  0  0  0  0  0  0
  141.3395   68.6854  228.7795 H   0  0  0  0  0  0  0  0  0  0  0  0
  141.5951   71.1747  228.7623 H   0  0  0  0  0  0  0  0  0  0  0  0
  140.6632   72.4900  226.9033 H   0  0  0  0  0  0  0  0  0  0  0  0
  138.3270   71.8910  224.8110 H   0  0  0  0  0  0  0  0  0  0  0  0
  139.4597   71.9996  221.4461 H   0  0  0  0  0  0  0  0  0  0  0  0
  138.1600   72.4532  222.6246 H   0  0  0  0  0  0  0  0  0  0  0  0
  139.1910   74.5750  222.9520 H   0  0  0  0  0  0  0  0  0  0  0  0
  142.0980   75.5235  219.5241 H   0  0  0  0  0  0  0  0  0  0  0  0
  142.7263   77.9258  219.4912 H   0  0  0  0  0  0  0  0  0  0  0  0
  142.6662   80.1232  220.5552 H   0  0  0  0  0  0  0  0  0  0  0  0
  141.9420   81.5873  222.4358 H   0  0  0  0  0  0  0  0  0  0  0  0
  140.6044   80.5944  224.2972 H   0  0  0  0  0  0  0  0  0  0  0  0
  140.0278   78.1903  224.2421 H   0  0  0  0  0  0  0  0  0  0  0  0
  1  2  3  0
  2  3  1  0
  3  4  2  0
  4  5  1  0
  5  6  2  0
  6  7  1  0
  7  8  2  0
  8  9  1  0
  9 10  1  0
 10 11  2  0
 10 12  1  0
 12 13  1  0
 13 14  1  0
 14 15  2  0
 14 16  1  0
 16 17  2  0
 17 18  1  0
 18 19  2  0
 19 20  1  0
 20 21  2  0
 21 22  1  0
 22 23  2  0
 23 24  1  0
 24 25  2  0
  8  3  1  0
 25 16  1  0
 24 19  1  0
  4 26  1  0
  5 27  1  0
  6 28  1  0
  7 29  1  0
  9 30  1  0
 12 31  1  0
 12 32  1  0
 13 33  1  0
 17 34  1  0
 18 35  1  0
 20 36  1  0
 21 37  1  0
 22 38  1  0
 23 39  1  0
M  END
>  <smiles>  (24) 
N#Cc1ccccc1NC(=O)CNC(=O)c1ccc2ccccc2n1

>  <score_type>  (24) 
oracle

>  <origin>  (24) 
autodockgpu

>  <m_score__min__energy>  (24) 
-8.8100000000000005

>  <m_primary>  (24) 
energy

>  <rmsd>  (24) 
8.757825217132977

>  <m_score__min__rmsd>  (24) 
8.757825217132977

>  <meeko>  (24) 
{"free_energy": -8.28, "intermolecular_energy": -9.77, "internal_energy": -1.17, "cluster_size": 35, "cluster_id": 1, "rank_in_cluster": 31}

>  <energy>  (24) 
-8.63

>  <cluster_rmsd>  (24) 
0.36

>  <cluster>  (24) 
1

$$$$

     RDKit          3D

 39 41  0  0  0  0  0  0  0  0999 V2000
  139.1990   67.4030  224.6150 N   0  0  0  0  0  0  0  0  0  0  0  0
  139.6140   68.2080  225.3620 C   0  0  0  0  0  0  0  0  0  0  0  0
  140.1350   69.1810  226.2900 C   0  0  0  0  0  0  0  0  0  0  0  0
  140.5620   68.7500  227.5190 C   0  0  0  0  0  0  0  0  0  0  0  0
  141.0770   69.5960  228.4780 C   0  0  0  0  0  0  0  0  0  0  0  0
  141.1510   70.9310  228.1540 C   0  0  0  0  0  0  0  0  0  0  0  0
  140.7170   71.3640  226.9080 C   0  0  0  0  0  0  0  0  0  0  0  0
  140.2110   70.5380  225.9620 C   0  0  0  0  0  0  0  0  0  0  0  0
  139.7510   70.8980  224.6780 N   0  0  0  0  0  0  0  0  0  0  0  0
  138.4140   70.8050  224.2240 C   0  0  0  0  0  0  0  0  0  0  0  0
  137.4730   70.3830  224.9230 O   0  0  0  0  0  0  0  0  0  0  0  0
  138.0620   71.2260  222.8250 C   0  0  0  0  0  0  0  0  0  0  0  0
  138.6020   72.5140  222.5110 N   0  0  0  0  0  0  0  0  0  0  0  0
  139.9260   72.6080  222.0080 C   0  0  0  0  0  0  0  0  0  0  0  0
  140.6610   71.6030  221.8220 O   0  0  0  0  0  0  0  0  0  0  0  0
  140.4400   73.9530  221.6980 C   0  0  0  0  0  0  0  0  0  0  0  0
  141.4790   74.1390  220.8050 C   0  0  0  0  0  0  0  0  0  0  0  0
  141.9540   75.4190  220.5230 C   0  0  0  0  0  0  0  0  0  0  0  0
  141.3990   76.5250  221.1290 C   0  0  0  0  0  0  0  0  0  0  0  0
  141.8280   77.7970  220.8860 C   0  0  0  0  0  0  0  0  0  0  0  0
  141.2460   78.8940  221.5150 C   0  0  0  0  0  0  0  0  0  0  0  0
  140.2100   78.6730  222.4020 C   0  0  0  0  0  0  0  0  0  0  0  0
  139.7810   77.3830  222.6420 C   0  0  0  0  0  0  0  0  0  0  0  0
  140.3650   76.3080  222.0150 C   0  0  0  0  0  0  0  0  0  0  0  0
  139.9280   75.0600  222.2660 N   0  0  0  0  0  0  0  0  0  0  0  0
  140.4903   67.6772  227.7514 H   0  0  0  0  0  0  0  0  0  0  0  0
  141.4129   69.2213  229.4561 H   0  0  0  0  0  0  0  0  0  0  0  0
  141.5528   71.6533  228.8798 H   0  0  0  0  0  0  0  0  0  0  0  0
  140.7882   72.4371  226.6769 H   0  0  0  0  0  0  0  0  0  0  0  0
  140.4400   71.2770  223.9660 H   0  0  0  0  0  0  0  0  0  0  0  0
  138.4663   70.4872  222.1174 H   0  0  0  0  0  0  0  0  0  0  0  0
  136.9662   71.2842  222.7485 H   0  0  0  0  0  0  0  0  0  0  0  0
  138.0320   73.3780  222.6480 H   0  0  0  0  0  0  0  0  0  0  0  0
  141.9355   73.2681  220.3120 H   0  0  0  0  0  0  0  0  0  0  0  0
  142.7808   75.5474  219.8089 H   0  0  0  0  0  0  0  0  0  0  0  0
  142.6529   77.9595  220.1766 H   0  0  0  0  0  0  0  0  0  0  0  0
  141.6030   79.9141  221.3104 H   0  0  0  0  0  0  0  0  0  0  0  0
  139.7298   79.5200  222.9139 H   0  0  0  0  0  0  0  0  0  0  0  0
  138.9557   77.2119  223.3488 H   0  0  0  0  0  0  0  0  0  0  0  0
  1  2  3  0
  2  3  1  0
  3  4  2  0
  4  5  1  0
  5  6  2  0
  6  7  1  0
  7  8  2  0
  8  9  1  0
  9 10  1  0
 10 11  2  0
 10 12  1  0
 12 13  1  0
 13 14  1  0
 14 15  2  0
 14 16  1  0
 16 17  2  0
 17 18  1  0
 18 19  2  0
 19 20  1  0
 20 21  2  0
 21 22  1  0
 22 23  2  0
 23 24  1  0
 24 25  2  0
  8  3  1  0
 25 16  1  0
 24 19  1  0
  4 26  1  0
  5 27  1  0
  6 28  1  0
  7 29  1  0
  9 30  1  0
 12 31  1  0
 12 32  1  0
 13 33  1  0
 17 34  1  0
 18 35  1  0
 20 36  1  0
 21 37  1  0
 22 38  1  0
 23 39  1  0
M  END
>  <smiles>  (25) 
N#Cc1ccccc1NC(=O)CNC(=O)c1ccc2ccccc2n1

>  <score_type>  (25) 
oracle

>  <origin>  (25) 
autodockgpu

>  <m_score__min__energy>  (25) 
-8.8100000000000005

>  <m_primary>  (25) 
energy

>  <rmsd>  (25) 
8.299950137272356

>  <m_score__min__rmsd>  (25) 
8.299950137272356

>  <meeko>  (25) 
{"free_energy": -7.95, "intermolecular_energy": -9.44, "internal_energy": -1.83, "cluster_size": 15, "cluster_id": 2, "rank_in_cluster": 6}

>  <energy>  (25) 
-8.58

>  <cluster_rmsd>  (25) 
0.5

>  <cluster>  (25) 
1

$$$$

     RDKit          3D

 39 41  0  0  0  0  0  0  0  0999 V2000
  141.8620   78.6660  218.6760 N   0  0  0  0  0  0  0  0  0  0  0  0
  141.8170   78.9480  219.8150 C   0  0  0  0  0  0  0  0  0  0  0  0
  141.7710   79.2740  221.2190 C   0  0  0  0  0  0  0  0  0  0  0  0
  141.9480   80.5810  221.5920 C   0  0  0  0  0  0  0  0  0  0  0  0
  141.9220   81.0000  222.9060 C   0  0  0  0  0  0  0  0  0  0  0  0
  141.7060   80.0360  223.8610 C   0  0  0  0  0  0  0  0  0  0  0  0
  141.5280   78.7130  223.4790 C   0  0  0  0  0  0  0  0  0  0  0  0
  141.5520   78.2950  222.1910 C   0  0  0  0  0  0  0  0  0  0  0  0
  141.3790   76.9750  221.7230 N   0  0  0  0  0  0  0  0  0  0  0  0
  140.2070   76.1960  221.8650 C   0  0  0  0  0  0  0  0  0  0  0  0
  139.1730   76.5980  222.4320 O   0  0  0  0  0  0  0  0  0  0  0  0
  140.1600   74.7980  221.3160 C   0  0  0  0  0  0  0  0  0  0  0  0
  139.8700   73.8400  222.3390 N   0  0  0  0  0  0  0  0  0  0  0  0
  140.6010   72.6240  222.3790 C   0  0  0  0  0  0  0  0  0  0  0  0
  141.5030   72.3400  221.5490 O   0  0  0  0  0  0  0  0  0  0  0  0
  140.2710   71.6680  223.4510 C   0  0  0  0  0  0  0  0  0  0  0  0
  139.5720   70.5050  223.1870 C   0  0  0  0  0  0  0  0  0  0  0  0
  139.2670   69.6110  224.2120 C   0  0  0  0  0  0  0  0  0  0  0  0
  139.6540   69.8690  225.5090 C   0  0  0  0  0  0  0  0  0  0  0  0
  139.3790   69.0260  226.5460 C   0  0  0  0  0  0  0  0  0  0  0  0
  139.7850   69.3150  227.8450 C   0  0  0  0  0  0  0  0  0  0  0  0
  140.4820   70.4860  228.0740 C   0  0  0  0  0  0  0  0  0  0  0  0
  140.7560   71.3340  227.0200 C   0  0  0  0  0  0  0  0  0  0  0  0
  140.3490   71.0360  225.7410 C   0  0  0  0  0  0  0  0  0  0  0  0
  140.6290   71.8790  224.7300 N   0  0  0  0  0  0  0  0  0  0  0  0
  142.1189   81.3315  220.8061 H   0  0  0  0  0  0  0  0  0  0  0  0
  142.0674   82.0562  223.1766 H   0  0  0  0  0  0  0  0  0  0  0  0
  141.6742   80.3117  224.9254 H   0  0  0  0  0  0  0  0  0  0  0  0
  141.3582   77.9632  224.2657 H   0  0  0  0  0  0  0  0  0  0  0  0
  142.1770   76.4940  221.2160 H   0  0  0  0  0  0  0  0  0  0  0  0
  139.3783   74.7437  220.5440 H   0  0  0  0  0  0  0  0  0  0  0  0
  141.1472   74.5612  220.8925 H   0  0  0  0  0  0  0  0  0  0  0  0
  139.1310   74.0300  223.0520 H   0  0  0  0  0  0  0  0  0  0  0  0
  139.2533   70.2829  222.1579 H   0  0  0  0  0  0  0  0  0  0  0  0
  138.7114   68.6897  223.9830 H   0  0  0  0  0  0  0  0  0  0  0  0
  138.8237   68.0968  226.3506 H   0  0  0  0  0  0  0  0  0  0  0  0
  139.5562   68.6264  228.6717 H   0  0  0  0  0  0  0  0  0  0  0  0
  140.8165   70.7409  229.0904 H   0  0  0  0  0  0  0  0  0  0  0  0
  141.3103   72.2656  227.2068 H   0  0  0  0  0  0  0  0  0  0  0  0
  1  2  3  0
  2  3  1  0
  3  4  2  0
  4  5  1  0
  5  6  2  0
  6  7  1  0
  7  8  2  0
  8  9  1  0
  9 10  1  0
 10 11  2  0
 10 12  1  0
 12 13  1  0
 13 14  1  0
 14 15  2  0
 14 16  1  0
 16 17  2  0
 17 18  1  0
 18 19  2  0
 19 20  1  0
 20 21  2  0
 21 22  1  0
 22 23  2  0
 23 24  1  0
 24 25  2  0
  8  3  1  0
 25 16  1  0
 24 19  1  0
  4 26  1  0
  5 27  1  0
  6 28  1  0
  7 29  1  0
  9 30  1  0
 12 31  1  0
 12 32  1  0
 13 33  1  0
 17 34  1  0
 18 35  1  0
 20 36  1  0
 21 37  1  0
 22 38  1  0
 23 39  1  0
M  END
>  <smiles>  (26) 
N#Cc1ccccc1NC(=O)CNC(=O)c1ccc2ccccc2n1

>  <score_type>  (26) 
oracle

>  <origin>  (26) 
autodockgpu

>  <m_score__min__energy>  (26) 
-8.8100000000000005

>  <m_primary>  (26) 
energy

>  <rmsd>  (26) 
2.9554466719939017

>  <m_score__min__rmsd>  (26) 
2.9554466719939017

>  <meeko>  (26) 
{"free_energy": -8.77, "intermolecular_energy": -10.26, "internal_energy": -1.04, "cluster_size": 35, "cluster_id": 1, "rank_in_cluster": 17}

>  <energy>  (26) 
-8.58

>  <cluster_rmsd>  (26) 
0.44

>  <cluster>  (26) 
1

$$$$

     RDKit          3D

 39 41  0  0  0  0  0  0  0  0999 V2000
  141.8130   78.7220  218.6540 N   0  0  0  0  0  0  0  0  0  0  0  0
  141.7930   78.9900  219.7970 C   0  0  0  0  0  0  0  0  0  0  0  0
  141.7500   79.3100  221.2020 C   0  0  0  0  0  0  0  0  0  0  0  0
  141.9110   80.6180  221.5810 C   0  0  0  0  0  0  0  0  0  0  0  0
  141.8860   81.0300  222.8960 C   0  0  0  0  0  0  0  0  0  0  0  0
  141.6890   80.0590  223.8490 C   0  0  0  0  0  0  0  0  0  0  0  0
  141.5270   78.7350  223.4620 C   0  0  0  0  0  0  0  0  0  0  0  0
  141.5500   78.3230  222.1720 C   0  0  0  0  0  0  0  0  0  0  0  0
  141.3930   77.0040  221.6990 N   0  0  0  0  0  0  0  0  0  0  0  0
  140.2550   76.1860  221.8950 C   0  0  0  0  0  0  0  0  0  0  0  0
  139.2410   76.5500  222.5220 O   0  0  0  0  0  0  0  0  0  0  0  0
  140.2220   74.7930  221.3330 C   0  0  0  0  0  0  0  0  0  0  0  0
  139.9190   73.8250  222.3430 N   0  0  0  0  0  0  0  0  0  0  0  0
  140.6680   72.6210  222.3990 C   0  0  0  0  0  0  0  0  0  0  0  0
  141.5970   72.3550  221.5930 O   0  0  0  0  0  0  0  0  0  0  0  0
  140.3220   71.6540  223.4560 C   0  0  0  0  0  0  0  0  0  0  0  0
  139.6040   70.5070  223.1740 C   0  0  0  0  0  0  0  0  0  0  0  0
  139.2850   69.6020  224.1860 C   0  0  0  0  0  0  0  0  0  0  0  0
  139.6760   69.8340  225.4870 C   0  0  0  0  0  0  0  0  0  0  0  0
  139.3880   68.9800  226.5110 C   0  0  0  0  0  0  0  0  0  0  0  0
  139.7990   69.2430  227.8150 C   0  0  0  0  0  0  0  0  0  0  0  0
  140.5150   70.3990  228.0610 C   0  0  0  0  0  0  0  0  0  0  0  0
  140.8020   71.2580  227.0190 C   0  0  0  0  0  0  0  0  0  0  0  0
  140.3900   70.9870  225.7360 C   0  0  0  0  0  0  0  0  0  0  0  0
  140.6840   71.8400  224.7380 N   0  0  0  0  0  0  0  0  0  0  0  0
  142.0676   81.3746  220.7980 H   0  0  0  0  0  0  0  0  0  0  0  0
  142.0176   82.0871  223.1703 H   0  0  0  0  0  0  0  0  0  0  0  0
  141.6598   80.3298  224.9147 H   0  0  0  0  0  0  0  0  0  0  0  0
  141.3715   77.9795  224.2463 H   0  0  0  0  0  0  0  0  0  0  0  0
  142.1770   76.5530  221.1430 H   0  0  0  0  0  0  0  0  0  0  0  0
  139.4530   74.7428  220.5481 H   0  0  0  0  0  0  0  0  0  0  0  0
  141.2167   74.5633  220.9233 H   0  0  0  0  0  0  0  0  0  0  0  0
  139.1560   73.9990  223.0350 H   0  0  0  0  0  0  0  0  0  0  0  0
  139.2812   70.3062  222.1418 H   0  0  0  0  0  0  0  0  0  0  0  0
  138.7151   68.6930  223.9431 H   0  0  0  0  0  0  0  0  0  0  0  0
  138.8181   68.0627  226.3017 H   0  0  0  0  0  0  0  0  0  0  0  0
  139.5590   68.5459  228.6314 H   0  0  0  0  0  0  0  0  0  0  0  0
  140.8542   70.6334  229.0808 H   0  0  0  0  0  0  0  0  0  0  0  0
  141.3716   72.1774  227.2195 H   0  0  0  0  0  0  0  0  0  0  0  0
  1  2  3  0
  2  3  1  0
  3  4  2  0
  4  5  1  0
  5  6  2  0
  6  7  1  0
  7  8  2  0
  8  9  1  0
  9 10  1  0
 10 11  2  0
 10 12  1  0
 12 13  1  0
 13 14  1  0
 14 15  2  0
 14 16  1  0
 16 17  2  0
 17 18  1  0
 18 19  2  0
 19 20  1  0
 20 21  2  0
 21 22  1  0
 22 23  2  0
 23 24  1  0
 24 25  2  0
  8  3  1  0
 25 16  1  0
 24 19  1  0
  4 26  1  0
  5 27  1  0
  6 28  1  0
  7 29  1  0
  9 30  1  0
 12 31  1  0
 12 32  1  0
 13 33  1  0
 17 34  1  0
 18 35  1  0
 20 36  1  0
 21 37  1  0
 22 38  1  0
 23 39  1  0
M  END
>  <smiles>  (27) 
N#Cc1ccccc1NC(=O)CNC(=O)c1ccc2ccccc2n1

>  <score_type>  (27) 
oracle

>  <origin>  (27) 
autodockgpu

>  <m_score__min__energy>  (27) 
-8.8100000000000005

>  <m_primary>  (27) 
energy

>  <rmsd>  (27) 
2.9698202158395555

>  <m_score__min__rmsd>  (27) 
2.9698202158395555

>  <meeko>  (27) 
{"free_energy": -8.71, "intermolecular_energy": -10.2, "internal_energy": -1.06, "cluster_size": 35, "cluster_id": 1, "rank_in_cluster": 23}

>  <energy>  (27) 
-8.57

>  <cluster_rmsd>  (27) 
0.5

>  <cluster>  (27) 
1

$$$$

     RDKit          3D

 39 41  0  0  0  0  0  0  0  0999 V2000
  137.7680   69.7120  222.4170 N   0  0  0  0  0  0  0  0  0  0  0  0
  138.4890   69.9940  223.2990 C   0  0  0  0  0  0  0  0  0  0  0  0
  139.3920   70.3340  224.3710 C   0  0  0  0  0  0  0  0  0  0  0  0
  139.5150   69.4630  225.4220 C   0  0  0  0  0  0  0  0  0  0  0  0
  140.3490   69.6920  226.4960 C   0  0  0  0  0  0  0  0  0  0  0  0
  141.0780   70.8580  226.4800 C   0  0  0  0  0  0  0  0  0  0  0  0
  140.9490   71.7380  225.4130 C   0  0  0  0  0  0  0  0  0  0  0  0
  140.1320   71.5190  224.3560 C   0  0  0  0  0  0  0  0  0  0  0  0
  139.9470   72.3590  223.2380 N   0  0  0  0  0  0  0  0  0  0  0  0
  140.8050   72.4400  222.1150 C   0  0  0  0  0  0  0  0  0  0  0  0
  141.8430   71.7640  221.9870 O   0  0  0  0  0  0  0  0  0  0  0  0
  140.4860   73.3840  220.9900 C   0  0  0  0  0  0  0  0  0  0  0  0
  140.6520   74.7490  221.3850 N   0  0  0  0  0  0  0  0  0  0  0  0
  139.5870   75.4160  222.0440 C   0  0  0  0  0  0  0  0  0  0  0  0
  138.4870   74.8610  222.3030 O   0  0  0  0  0  0  0  0  0  0  0  0
  139.8020   76.8210  222.4330 C   0  0  0  0  0  0  0  0  0  0  0  0
  138.7420   77.6580  222.7270 C   0  0  0  0  0  0  0  0  0  0  0  0
  138.9630   78.9840  223.0940 C   0  0  0  0  0  0  0  0  0  0  0  0
  140.2430   79.4890  223.1690 C   0  0  0  0  0  0  0  0  0  0  0  0
  140.5110   80.7790  223.5220 C   0  0  0  0  0  0  0  0  0  0  0  0
  141.8160   81.2590  223.5890 C   0  0  0  0  0  0  0  0  0  0  0  0
  142.8530   80.3960  223.2900 C   0  0  0  0  0  0  0  0  0  0  0  0
  142.5730   79.0930  222.9330 C   0  0  0  0  0  0  0  0  0  0  0  0
  141.2800   78.6310  222.8700 C   0  0  0  0  0  0  0  0  0  0  0  0
  141.0340   77.3550  222.5200 N   0  0  0  0  0  0  0  0  0  0  0  0
  138.9204   68.5376  225.4081 H   0  0  0  0  0  0  0  0  0  0  0  0
  140.4275   68.9754  227.3269 H   0  0  0  0  0  0  0  0  0  0  0  0
  141.7611   71.0930  227.3095 H   0  0  0  0  0  0  0  0  0  0  0  0
  141.5433   72.6635  225.4277 H   0  0  0  0  0  0  0  0  0  0  0  0
  139.1010   72.9990  223.2020 H   0  0  0  0  0  0  0  0  0  0  0  0
  141.1580   73.1726  220.1452 H   0  0  0  0  0  0  0  0  0  0  0  0
  139.4348   73.2343  220.7028 H   0  0  0  0  0  0  0  0  0  0  0  0
  141.5460   75.2540  221.1930 H   0  0  0  0  0  0  0  0  0  0  0  0
  137.7130   77.2733  222.6707 H   0  0  0  0  0  0  0  0  0  0  0  0
  138.1068   79.6344  223.3262 H   0  0  0  0  0  0  0  0  0  0  0  0
  139.6768   81.4556  223.7592 H   0  0  0  0  0  0  0  0  0  0  0  0
  142.0173   82.3023  223.8737 H   0  0  0  0  0  0  0  0  0  0  0  0
  143.8949   80.7456  223.3363 H   0  0  0  0  0  0  0  0  0  0  0  0
  143.4014   78.4100  222.6939 H   0  0  0  0  0  0  0  0  0  0  0  0
  1  2  3  0
  2  3  1  0
  3  4  2  0
  4  5  1  0
  5  6  2  0
  6  7  1  0
  7  8  2  0
  8  9  1  0
  9 10  1  0
 10 11  2  0
 10 12  1  0
 12 13  1  0
 13 14  1  0
 14 15  2  0
 14 16  1  0
 16 17  2  0
 17 18  1  0
 18 19  2  0
 19 20  1  0
 20 21  2  0
 21 22  1  0
 22 23  2  0
 23 24  1  0
 24 25  2  0
  8  3  1  0
 25 16  1  0
 24 19  1  0
  4 26  1  0
  5 27  1  0
  6 28  1  0
  7 29  1  0
  9 30  1  0
 12 31  1  0
 12 32  1  0
 13 33  1  0
 17 34  1  0
 18 35  1  0
 20 36  1  0
 21 37  1  0
 22 38  1  0
 23 39  1  0
M  END
>  <smiles>  (28) 
N#Cc1ccccc1NC(=O)CNC(=O)c1ccc2ccccc2n1

>  <score_type>  (28) 
oracle

>  <origin>  (28) 
autodockgpu

>  <m_score__min__energy>  (28) 
-8.8100000000000005

>  <m_primary>  (28) 
energy

>  <rmsd>  (28) 
8.577214729113756

>  <m_score__min__rmsd>  (28) 
8.577214729113756

>  <meeko>  (28) 
{"free_energy": -7.51, "intermolecular_energy": -9.0, "internal_energy": -1.93, "cluster_size": 35, "cluster_id": 1, "rank_in_cluster": 33}

>  <energy>  (28) 
-8.55

>  <cluster_rmsd>  (28) 
0.5

>  <cluster>  (28) 
1

$$$$

     RDKit          3D

 39 41  0  0  0  0  0  0  0  0999 V2000
  139.1870   67.7400  224.5540 N   0  0  0  0  0  0  0  0  0  0  0  0
  139.6010   68.5960  225.2420 C   0  0  0  0  0  0  0  0  0  0  0  0
  140.1200   69.6320  226.1010 C   0  0  0  0  0  0  0  0  0  0  0  0
  140.3200   69.3430  227.4260 C   0  0  0  0  0  0  0  0  0  0  0  0
  140.8110   70.2600  228.3310 C   0  0  0  0  0  0  0  0  0  0  0  0
  141.1040   71.5140  227.8490 C   0  0  0  0  0  0  0  0  0  0  0  0
  140.9000   71.8030  226.5060 C   0  0  0  0  0  0  0  0  0  0  0  0
  140.4180   70.9070  225.6120 C   0  0  0  0  0  0  0  0  0  0  0  0
  140.1840   71.1210  224.2380 N   0  0  0  0  0  0  0  0  0  0  0  0
  138.9160   71.3030  223.6350 C   0  0  0  0  0  0  0  0  0  0  0  0
  137.8420   71.2940  224.2660 O   0  0  0  0  0  0  0  0  0  0  0  0
  138.8120   71.5230  222.1520 C   0  0  0  0  0  0  0  0  0  0  0  0
  139.1450   72.8690  221.7950 N   0  0  0  0  0  0  0  0  0  0  0  0
  140.5080   73.2630  221.7730 C   0  0  0  0  0  0  0  0  0  0  0  0
  141.4520   72.4810  222.0570 O   0  0  0  0  0  0  0  0  0  0  0  0
  140.8060   74.6570  221.3990 C   0  0  0  0  0  0  0  0  0  0  0  0
  141.0910   75.0060  220.0920 C   0  0  0  0  0  0  0  0  0  0  0  0
  141.3700   76.3300  219.7540 C   0  0  0  0  0  0  0  0  0  0  0  0
  141.3680   77.3170  220.7160 C   0  0  0  0  0  0  0  0  0  0  0  0
  141.6350   78.6250  220.4360 C   0  0  0  0  0  0  0  0  0  0  0  0
  141.6250   79.5980  221.4300 C   0  0  0  0  0  0  0  0  0  0  0  0
  141.3350   79.2160  222.7260 C   0  0  0  0  0  0  0  0  0  0  0  0
  141.0670   77.8900  223.0010 C   0  0  0  0  0  0  0  0  0  0  0  0
  141.0800   76.9380  222.0090 C   0  0  0  0  0  0  0  0  0  0  0  0
  140.8140   75.6520  222.3040 N   0  0  0  0  0  0  0  0  0  0  0  0
  140.0773   68.3317  227.7841 H   0  0  0  0  0  0  0  0  0  0  0  0
  140.9613   70.0005  229.3893 H   0  0  0  0  0  0  0  0  0  0  0  0
  141.4990   72.2863  228.5254 H   0  0  0  0  0  0  0  0  0  0  0  0
  141.1431   72.8146  226.1489 H   0  0  0  0  0  0  0  0  0  0  0  0
  141.0060   71.1550  223.5690 H   0  0  0  0  0  0  0  0  0  0  0  0
  139.5022   70.8365  221.6398 H   0  0  0  0  0  0  0  0  0  0  0  0
  137.7721   71.3332  221.8477 H   0  0  0  0  0  0  0  0  0  0  0  0
  138.3980   73.5560  221.5510 H   0  0  0  0  0  0  0  0  0  0  0  0
  141.0978   74.2316  219.3108 H   0  0  0  0  0  0  0  0  0  0  0  0
  141.5940   76.5893  218.7087 H   0  0  0  0  0  0  0  0  0  0  0  0
  141.8635   78.9171  219.4004 H   0  0  0  0  0  0  0  0  0  0  0  0
  141.8433   80.6490  221.1896 H   0  0  0  0  0  0  0  0  0  0  0  0
  141.3178   79.9634  223.5329 H   0  0  0  0  0  0  0  0  0  0  0  0
  140.8386   77.5891  224.0341 H   0  0  0  0  0  0  0  0  0  0  0  0
  1  2  3  0
  2  3  1  0
  3  4  2  0
  4  5  1  0
  5  6  2  0
  6  7  1  0
  7  8  2  0
  8  9  1  0
  9 10  1  0
 10 11  2  0
 10 12  1  0
 12 13  1  0
 13 14  1  0
 14 15  2  0
 14 16  1  0
 16 17  2  0
 17 18  1  0
 18 19  2  0
 19 20  1  0
 20 21  2  0
 21 22  1  0
 22 23  2  0
 23 24  1  0
 24 25  2  0
  8  3  1  0
 25 16  1  0
 24 19  1  0
  4 26  1  0
  5 27  1  0
  6 28  1  0
  7 29  1  0
  9 30  1  0
 12 31  1  0
 12 32  1  0
 13 33  1  0
 17 34  1  0
 18 35  1  0
 20 36  1  0
 21 37  1  0
 22 38  1  0
 23 39  1  0
M  END
>  <smiles>  (29) 
N#Cc1ccccc1NC(=O)CNC(=O)c1ccc2ccccc2n1

>  <score_type>  (29) 
oracle

>  <origin>  (29) 
autodockgpu

>  <m_score__min__energy>  (29) 
-8.8100000000000005

>  <m_primary>  (29) 
energy

>  <rmsd>  (29) 
8.41168751635549

>  <m_score__min__rmsd>  (29) 
8.41168751635549

>  <meeko>  (29) 
{"free_energy": -7.64, "intermolecular_energy": -9.13, "internal_energy": -1.67, "cluster_size": 15, "cluster_id": 2, "rank_in_cluster": 15}

>  <energy>  (29) 
-8.48

>  <cluster_rmsd>  (29) 
0.55

>  <cluster>  (29) 
1

$$$$

     RDKit          3D

 39 41  0  0  0  0  0  0  0  0999 V2000
  141.7920   78.6860  218.6660 N   0  0  0  0  0  0  0  0  0  0  0  0
  141.7930   78.9550  219.8090 C   0  0  0  0  0  0  0  0  0  0  0  0
  141.7770   79.2710  221.2160 C   0  0  0  0  0  0  0  0  0  0  0  0
  141.9520   80.5770  221.5940 C   0  0  0  0  0  0  0  0  0  0  0  0
  141.9530   80.9860  222.9110 C   0  0  0  0  0  0  0  0  0  0  0  0
  141.7670   80.0130  223.8650 C   0  0  0  0  0  0  0  0  0  0  0  0
  141.5910   78.6910  223.4770 C   0  0  0  0  0  0  0  0  0  0  0  0
  141.5880   78.2830  222.1860 C   0  0  0  0  0  0  0  0  0  0  0  0
  141.4150   76.9650  221.7120 N   0  0  0  0  0  0  0  0  0  0  0  0
  140.2590   76.1690  221.8920 C   0  0  0  0  0  0  0  0  0  0  0  0
  139.2420   76.5520  222.5020 O   0  0  0  0  0  0  0  0  0  0  0  0
  140.2100   74.7750  221.3320 C   0  0  0  0  0  0  0  0  0  0  0  0
  139.9110   73.8110  222.3460 N   0  0  0  0  0  0  0  0  0  0  0  0
  140.6560   72.6040  222.3980 C   0  0  0  0  0  0  0  0  0  0  0  0
  141.5790   72.3340  221.5870 O   0  0  0  0  0  0  0  0  0  0  0  0
  140.3150   71.6410  223.4600 C   0  0  0  0  0  0  0  0  0  0  0  0
  139.6090   70.4850  223.1830 C   0  0  0  0  0  0  0  0  0  0  0  0
  139.2950   69.5840  224.1990 C   0  0  0  0  0  0  0  0  0  0  0  0
  139.6790   69.8270  225.4990 C   0  0  0  0  0  0  0  0  0  0  0  0
  139.3950   68.9770  226.5280 C   0  0  0  0  0  0  0  0  0  0  0  0
  139.7980   69.2510  227.8310 C   0  0  0  0  0  0  0  0  0  0  0  0
  140.5020   70.4150  228.0730 C   0  0  0  0  0  0  0  0  0  0  0  0
  140.7850   71.2710  227.0280 C   0  0  0  0  0  0  0  0  0  0  0  0
  140.3810   70.9870  225.7440 C   0  0  0  0  0  0  0  0  0  0  0  0
  140.6710   71.8380  224.7420 N   0  0  0  0  0  0  0  0  0  0  0  0
  142.0985   81.3344  220.8099 H   0  0  0  0  0  0  0  0  0  0  0  0
  142.0959   82.0415  223.1857 H   0  0  0  0  0  0  0  0  0  0  0  0
  141.7576   80.2809  224.9318 H   0  0  0  0  0  0  0  0  0  0  0  0
  141.4461   77.9339  224.2617 H   0  0  0  0  0  0  0  0  0  0  0  0
  142.1990   76.5000  221.1700 H   0  0  0  0  0  0  0  0  0  0  0  0
  139.4324   74.7293  220.5554 H   0  0  0  0  0  0  0  0  0  0  0  0
  141.1986   74.5377  220.9120 H   0  0  0  0  0  0  0  0  0  0  0  0
  139.1540   73.9890  223.0430 H   0  0  0  0  0  0  0  0  0  0  0  0
  139.2921   70.2743  222.1509 H   0  0  0  0  0  0  0  0  0  0  0  0
  138.7341   68.6685  223.9598 H   0  0  0  0  0  0  0  0  0  0  0  0
  138.8342   68.0533  226.3224 H   0  0  0  0  0  0  0  0  0  0  0  0
  139.5614   68.5564  228.6505 H   0  0  0  0  0  0  0  0  0  0  0  0
  140.8350   70.6581  229.0928 H   0  0  0  0  0  0  0  0  0  0  0  0
  141.3440   72.1976  227.2255 H   0  0  0  0  0  0  0  0  0  0  0  0
  1  2  3  0
  2  3  1  0
  3  4  2  0
  4  5  1  0
  5  6  2  0
  6  7  1  0
  7  8  2  0
  8  9  1  0
  9 10  1  0
 10 11  2  0
 10 12  1  0
 12 13  1  0
 13 14  1  0
 14 15  2  0
 14 16  1  0
 16 17  2  0
 17 18  1  0
 18 19  2  0
 19 20  1  0
 20 21  2  0
 21 22  1  0
 22 23  2  0
 23 24  1  0
 24 25  2  0
  8  3  1  0
 25 16  1  0
 24 19  1  0
  4 26  1  0
  5 27  1  0
  6 28  1  0
  7 29  1  0
  9 30  1  0
 12 31  1  0
 12 32  1  0
 13 33  1  0
 17 34  1  0
 18 35  1  0
 20 36  1  0
 21 37  1  0
 22 38  1  0
 23 39  1  0
M  END
>  <smiles>  (30) 
N#Cc1ccccc1NC(=O)CNC(=O)c1ccc2ccccc2n1

>  <score_type>  (30) 
oracle

>  <origin>  (30) 
autodockgpu

>  <m_score__min__energy>  (30) 
-8.8100000000000005

>  <m_primary>  (30) 
energy

>  <rmsd>  (30) 
2.9591324256580758

>  <m_score__min__rmsd>  (30) 
2.9591324256580758

>  <meeko>  (30) 
{"free_energy": -8.73, "intermolecular_energy": -10.22, "internal_energy": -1.05, "cluster_size": 35, "cluster_id": 1, "rank_in_cluster": 22}

>  <energy>  (30) 
-8.29

>  <cluster_rmsd>  (30) 
0.95

>  <cluster>  (30) 
1

$$$$

     RDKit          3D

 39 41  0  0  0  0  0  0  0  0999 V2000
  139.1920   67.4180  224.6680 N   0  0  0  0  0  0  0  0  0  0  0  0
  139.6090   68.2250  225.4100 C   0  0  0  0  0  0  0  0  0  0  0  0
  140.1170   69.2050  226.3390 C   0  0  0  0  0  0  0  0  0  0  0  0
  140.6800   68.7660  227.5090 C   0  0  0  0  0  0  0  0  0  0  0  0
  141.1950   69.6170  228.4640 C   0  0  0  0  0  0  0  0  0  0  0  0
  141.1240   70.9640  228.1990 C   0  0  0  0  0  0  0  0  0  0  0  0
  140.5510   71.4050  227.0130 C   0  0  0  0  0  0  0  0  0  0  0  0
  140.0450   70.5740  226.0710 C   0  0  0  0  0  0  0  0  0  0  0  0
  139.4500   70.9420  224.8460 N   0  0  0  0  0  0  0  0  0  0  0  0
  138.1330   70.6230  224.4390 C   0  0  0  0  0  0  0  0  0  0  0  0
  137.3340   69.9670  225.1340 O   0  0  0  0  0  0  0  0  0  0  0  0
  137.6260   71.0810  223.1000 C   0  0  0  0  0  0  0  0  0  0  0  0
  138.3170   72.2500  222.6480 N   0  0  0  0  0  0  0  0  0  0  0  0
  139.6260   72.1210  222.1150 C   0  0  0  0  0  0  0  0  0  0  0  0
  140.2200   71.0160  222.0200 O   0  0  0  0  0  0  0  0  0  0  0  0
  140.2990   73.3510  221.6610 C   0  0  0  0  0  0  0  0  0  0  0  0
  141.3200   73.3110  220.7300 C   0  0  0  0  0  0  0  0  0  0  0  0
  141.9460   74.4840  220.3110 C   0  0  0  0  0  0  0  0  0  0  0  0
  141.5610   75.7060  220.8160 C   0  0  0  0  0  0  0  0  0  0  0  0
  142.1420   76.8810  220.4380 C   0  0  0  0  0  0  0  0  0  0  0  0
  141.7300   78.1000  220.9670 C   0  0  0  0  0  0  0  0  0  0  0  0
  140.7060   78.1050  221.8950 C   0  0  0  0  0  0  0  0  0  0  0  0
  140.1230   76.9120  222.2730 C   0  0  0  0  0  0  0  0  0  0  0  0
  140.5400   75.7140  221.7420 C   0  0  0  0  0  0  0  0  0  0  0  0
  139.9550   74.5650  222.1270 N   0  0  0  0  0  0  0  0  0  0  0  0
  140.7231   67.6827  227.6951 H   0  0  0  0  0  0  0  0  0  0  0  0
  141.6417   69.2359  229.3942 H   0  0  0  0  0  0  0  0  0  0  0  0
  141.5198   71.6905  228.9240 H   0  0  0  0  0  0  0  0  0  0  0  0
  140.5058   72.4885  226.8289 H   0  0  0  0  0  0  0  0  0  0  0  0
  140.0100   71.5080  224.1450 H   0  0  0  0  0  0  0  0  0  0  0  0
  137.7726   70.2737  222.3673 H   0  0  0  0  0  0  0  0  0  0  0  0
  136.5592   71.3292  223.2020 H   0  0  0  0  0  0  0  0  0  0  0  0
  137.8670   73.1910  222.7060 H   0  0  0  0  0  0  0  0  0  0  0  0
  141.6417   72.3441  220.3157 H   0  0  0  0  0  0  0  0  0  0  0  0
  142.7563   74.4329  219.5689 H   0  0  0  0  0  0  0  0  0  0  0  0
  142.9553   76.8642  219.6976 H   0  0  0  0  0  0  0  0  0  0  0  0
  142.2089   79.0393  220.6534 H   0  0  0  0  0  0  0  0  0  0  0  0
  140.3576   79.0535  222.3297 H   0  0  0  0  0  0  0  0  0  0  0  0
  139.3093   76.9199  223.0131 H   0  0  0  0  0  0  0  0  0  0  0  0
  1  2  3  0
  2  3  1  0
  3  4  2  0
  4  5  1  0
  5  6  2  0
  6  7  1  0
  7  8  2  0
  8  9  1  0
  9 10  1  0
 10 11  2  0
 10 12  1  0
 12 13  1  0
 13 14  1  0
 14 15  2  0
 14 16  1  0
 16 17  2  0
 17 18  1  0
 18 19  2  0
 19 20  1  0
 20 21  2  0
 21 22  1  0
 22 23  2  0
 23 24  1  0
 24 25  2  0
  8  3  1  0
 25 16  1  0
 24 19  1  0
  4 26  1  0
  5 27  1  0
  6 28  1  0
  7 29  1  0
  9 30  1  0
 12 31  1  0
 12 32  1  0
 13 33  1  0
 17 34  1  0
 18 35  1  0
 20 36  1  0
 21 37  1  0
 22 38  1  0
 23 39  1  0
M  END
>  <smiles>  (31) 
N#Cc1ccccc1NC(=O)CNC(=O)c1ccc2ccccc2n1

>  <score_type>  (31) 
oracle

>  <origin>  (31) 
autodockgpu

>  <m_score__min__energy>  (31) 
-8.8100000000000005

>  <m_primary>  (31) 
energy

>  <rmsd>  (31) 
8.1382135744634

>  <m_score__min__rmsd>  (31) 
8.1382135744634

>  <meeko>  (31) 
{"free_energy": -7.83, "intermolecular_energy": -9.32, "internal_energy": -1.68, "cluster_size": 15, "cluster_id": 2, "rank_in_cluster": 11}

>  <energy>  (31) 
-8.28

>  <cluster_rmsd>  (31) 
1.99

>  <cluster>  (31) 
1

$$$$

     RDKit          3D

 39 41  0  0  0  0  0  0  0  0999 V2000
  141.8190   78.4830  218.6820 N   0  0  0  0  0  0  0  0  0  0  0  0
  141.7590   78.7520  219.8230 C   0  0  0  0  0  0  0  0  0  0  0  0
  141.7040   79.0920  221.2240 C   0  0  0  0  0  0  0  0  0  0  0  0
  141.9270   80.3940  221.5900 C   0  0  0  0  0  0  0  0  0  0  0  0
  141.8980   80.8250  222.8990 C   0  0  0  0  0  0  0  0  0  0  0  0
  141.6310   79.8770  223.8590 C   0  0  0  0  0  0  0  0  0  0  0  0
  141.4060   78.5590  223.4850 C   0  0  0  0  0  0  0  0  0  0  0  0
  141.4330   78.1300  222.2000 C   0  0  0  0  0  0  0  0  0  0  0  0
  141.2150   76.8140  221.7400 N   0  0  0  0  0  0  0  0  0  0  0  0
  139.9990   76.0980  221.8330 C   0  0  0  0  0  0  0  0  0  0  0  0
  138.9600   76.5600  222.3440 O   0  0  0  0  0  0  0  0  0  0  0  0
  139.9070   74.6960  221.2990 C   0  0  0  0  0  0  0  0  0  0  0  0
  139.6720   73.7490  222.3460 N   0  0  0  0  0  0  0  0  0  0  0  0
  140.5060   72.6040  222.4460 C   0  0  0  0  0  0  0  0  0  0  0  0
  141.4530   72.3760  221.6500 O   0  0  0  0  0  0  0  0  0  0  0  0
  140.2280   71.6560  223.5390 C   0  0  0  0  0  0  0  0  0  0  0  0
  139.5020   70.5000  223.3230 C   0  0  0  0  0  0  0  0  0  0  0  0
  139.2480   69.6140  224.3690 C   0  0  0  0  0  0  0  0  0  0  0  0
  139.7150   69.8720  225.6390 C   0  0  0  0  0  0  0  0  0  0  0  0
  139.4930   69.0360  226.6940 C   0  0  0  0  0  0  0  0  0  0  0  0
  139.9790   69.3250  227.9660 C   0  0  0  0  0  0  0  0  0  0  0  0
  140.7020   70.4890  228.1480 C   0  0  0  0  0  0  0  0  0  0  0  0
  140.9220   71.3290  227.0750 C   0  0  0  0  0  0  0  0  0  0  0  0
  140.4360   71.0320  225.8240 C   0  0  0  0  0  0  0  0  0  0  0  0
  140.6650   71.8680  224.7940 N   0  0  0  0  0  0  0  0  0  0  0  0
  142.1394   81.1305  220.8010 H   0  0  0  0  0  0  0  0  0  0  0  0
  142.0798   81.8772  223.1632 H   0  0  0  0  0  0  0  0  0  0  0  0
  141.5958   80.1624  224.9207 H   0  0  0  0  0  0  0  0  0  0  0  0
  141.1944   77.8231  224.2747 H   0  0  0  0  0  0  0  0  0  0  0  0
  142.0120   76.2860  221.2790 H   0  0  0  0  0  0  0  0  0  0  0  0
  139.0792   74.6425  220.5766 H   0  0  0  0  0  0  0  0  0  0  0  0
  140.8643   74.4471  220.8177 H   0  0  0  0  0  0  0  0  0  0  0  0
  138.8980   73.8930  223.0320 H   0  0  0  0  0  0  0  0  0  0  0  0
  139.1207   70.2767  222.3156 H   0  0  0  0  0  0  0  0  0  0  0  0
  138.6683   68.6988  224.1781 H   0  0  0  0  0  0  0  0  0  0  0  0
  138.9168   68.1124  226.5359 H   0  0  0  0  0  0  0  0  0  0  0  0
  139.7918   68.6421  228.8078 H   0  0  0  0  0  0  0  0  0  0  0  0
  141.0994   70.7442  229.1414 H   0  0  0  0  0  0  0  0  0  0  0  0
  141.4977   72.2544  227.2240 H   0  0  0  0  0  0  0  0  0  0  0  0
  1  2  3  0
  2  3  1  0
  3  4  2  0
  4  5  1  0
  5  6  2  0
  6  7  1  0
  7  8  2  0
  8  9  1  0
  9 10  1  0
 10 11  2  0
 10 12  1  0
 12 13  1  0
 13 14  1  0
 14 15  2  0
 14 16  1  0
 16 17  2  0
 17 18  1  0
 18 19  2  0
 19 20  1  0
 20 21  2  0
 21 22  1  0
 22 23  2  0
 23 24  1  0
 24 25  2  0
  8  3  1  0
 25 16  1  0
 24 19  1  0
  4 26  1  0
  5 27  1  0
  6 28  1  0
  7 29  1  0
  9 30  1  0
 12 31  1  0
 12 32  1  0
 13 33  1  0
 17 34  1  0
 18 35  1  0
 20 36  1  0
 21 37  1  0
 22 38  1  0
 23 39  1  0
M  END
>  <smiles>  (32) 
N#Cc1ccccc1NC(=O)CNC(=O)c1ccc2ccccc2n1

>  <score_type>  (32) 
oracle

>  <origin>  (32) 
autodockgpu

>  <m_score__min__energy>  (32) 
-8.8100000000000005

>  <m_primary>  (32) 
energy

>  <rmsd>  (32) 
2.8572081911253946

>  <m_score__min__rmsd>  (32) 
2.8572081911253946

>  <meeko>  (32) 
{"free_energy": -8.79, "intermolecular_energy": -10.28, "internal_energy": -0.99, "cluster_size": 35, "cluster_id": 1, "rank_in_cluster": 8}

>  <energy>  (32) 
-7.52

>  <cluster_rmsd>  (32) 
1.76

>  <cluster>  (32) 
1

$$$$

     RDKit          3D

 39 41  0  0  0  0  0  0  0  0999 V2000
  141.8360   78.6660  218.6800 N   0  0  0  0  0  0  0  0  0  0  0  0
  141.8150   78.9350  219.8220 C   0  0  0  0  0  0  0  0  0  0  0  0
  141.7670   79.2600  221.2260 C   0  0  0  0  0  0  0  0  0  0  0  0
  141.9370   80.5670  221.6010 C   0  0  0  0  0  0  0  0  0  0  0  0
  141.9090   80.9850  222.9150 C   0  0  0  0  0  0  0  0  0  0  0  0
  141.6990   80.0180  223.8700 C   0  0  0  0  0  0  0  0  0  0  0  0
  141.5280   78.6950  223.4860 C   0  0  0  0  0  0  0  0  0  0  0  0
  141.5540   78.2780  222.1980 C   0  0  0  0  0  0  0  0  0  0  0  0
  141.3880   76.9580  221.7290 N   0  0  0  0  0  0  0  0  0  0  0  0
  140.2190   76.1730  221.8670 C   0  0  0  0  0  0  0  0  0  0  0  0
  139.1820   76.5710  222.4330 O   0  0  0  0  0  0  0  0  0  0  0  0
  140.1800   74.7750  221.3180 C   0  0  0  0  0  0  0  0  0  0  0  0
  139.9060   73.8140  222.3420 N   0  0  0  0  0  0  0  0  0  0  0  0
  140.6510   72.6070  222.3790 C   0  0  0  0  0  0  0  0  0  0  0  0
  141.5520   72.3330  221.5440 O   0  0  0  0  0  0  0  0  0  0  0  0
  140.3350   71.6470  223.4510 C   0  0  0  0  0  0  0  0  0  0  0  0
  139.6450   70.4780  223.1910 C   0  0  0  0  0  0  0  0  0  0  0  0
  139.3550   69.5800  224.2180 C   0  0  0  0  0  0  0  0  0  0  0  0
  139.7490   69.8400  225.5120 C   0  0  0  0  0  0  0  0  0  0  0  0
  139.4890   68.9940  226.5500 C   0  0  0  0  0  0  0  0  0  0  0  0
  139.9010   69.2850  227.8470 C   0  0  0  0  0  0  0  0  0  0  0  0
  140.5900   70.4620  228.0720 C   0  0  0  0  0  0  0  0  0  0  0  0
  140.8490   71.3130  227.0170 C   0  0  0  0  0  0  0  0  0  0  0  0
  140.4360   71.0130  225.7400 C   0  0  0  0  0  0  0  0  0  0  0  0
  140.7020   71.8600  224.7280 N   0  0  0  0  0  0  0  0  0  0  0  0
  142.1039   81.3192  220.8160 H   0  0  0  0  0  0  0  0  0  0  0  0
  142.0481   82.0419  223.1863 H   0  0  0  0  0  0  0  0  0  0  0  0
  141.6666   80.2920  224.9348 H   0  0  0  0  0  0  0  0  0  0  0  0
  141.3621   77.9434  224.2719 H   0  0  0  0  0  0  0  0  0  0  0  0
  142.1900   76.4810  221.2230 H   0  0  0  0  0  0  0  0  0  0  0  0
  139.3931   74.7143  220.5518 H   0  0  0  0  0  0  0  0  0  0  0  0
  141.1662   74.5470  220.8875 H   0  0  0  0  0  0  0  0  0  0  0  0
  139.1680   73.9950  223.0580 H   0  0  0  0  0  0  0  0  0  0  0  0
  139.3214   70.2536  222.1639 H   0  0  0  0  0  0  0  0  0  0  0  0
  138.8057   68.6541  223.9922 H   0  0  0  0  0  0  0  0  0  0  0  0
  138.9409   68.0600  226.3573 H   0  0  0  0  0  0  0  0  0  0  0  0
  139.6832   68.5939  228.6746 H   0  0  0  0  0  0  0  0  0  0  0  0
  140.9299   70.7188  229.0862 H   0  0  0  0  0  0  0  0  0  0  0  0
  141.3963   72.2493  227.2010 H   0  0  0  0  0  0  0  0  0  0  0  0
  1  2  3  0
  2  3  1  0
  3  4  2  0
  4  5  1  0
  5  6  2  0
  6  7  1  0
  7  8  2  0
  8  9  1  0
  9 10  1  0
 10 11  2  0
 10 12  1  0
 12 13  1  0
 13 14  1  0
 14 15  2  0
 14 16  1  0
 16 17  2  0
 17 18  1  0
 18 19  2  0
 19 20  1  0
 20 21  2  0
 21 22  1  0
 22 23  2  0
 23 24  1  0
 24 25  2  0
  8  3  1  0
 25 16  1  0
 24 19  1  0
  4 26  1  0
  5 27  1  0
  6 28  1  0
  7 29  1  0
  9 30  1  0
 12 31  1  0
 12 32  1  0
 13 33  1  0
 17 34  1  0
 18 35  1  0
 20 36  1  0
 21 37  1  0
 22 38  1  0
 23 39  1  0
M  END
>  <smiles>  (33) 
N#Cc1ccccc1NC(=O)CNC(=O)c1ccc2ccccc2n1

>  <score_type>  (33) 
oracle

>  <origin>  (33) 
autodockgpu

>  <m_score__min__energy>  (33) 
-8.8100000000000005

>  <m_primary>  (33) 
energy

>  <rmsd>  (33) 
2.950808801112116

>  <m_score__min__rmsd>  (33) 
2.950808801112116

>  <meeko>  (33) 
{"free_energy": -8.77, "intermolecular_energy": -10.27, "internal_energy": -1.04, "cluster_size": 35, "cluster_id": 1, "rank_in_cluster": 16}

>  <energy>  (33) 
-7.51

>  <cluster_rmsd>  (33) 
1.84

>  <cluster>  (33) 
1

$$$$

     RDKit          3D

 39 41  0  0  0  0  0  0  0  0999 V2000
  138.8190   68.0600  224.1860 N   0  0  0  0  0  0  0  0  0  0  0  0
  139.3240   68.6910  225.0380 C   0  0  0  0  0  0  0  0  0  0  0  0
  139.9330   69.4830  226.0780 C   0  0  0  0  0  0  0  0  0  0  0  0
  140.5000   68.8350  227.1450 C   0  0  0  0  0  0  0  0  0  0  0  0
  141.1070   69.4970  228.1920 C   0  0  0  0  0  0  0  0  0  0  0  0
  141.1270   70.8700  228.1320 C   0  0  0  0  0  0  0  0  0  0  0  0
  140.5510   71.5220  227.0490 C   0  0  0  0  0  0  0  0  0  0  0  0
  139.9530   70.8790  226.0180 C   0  0  0  0  0  0  0  0  0  0  0  0
  139.3480   71.4660  224.8870 N   0  0  0  0  0  0  0  0  0  0  0  0
  139.9290   71.5690  223.6010 C   0  0  0  0  0  0  0  0  0  0  0  0
  141.0650   71.1430  223.3180 O   0  0  0  0  0  0  0  0  0  0  0  0
  139.1680   72.2220  222.4810 C   0  0  0  0  0  0  0  0  0  0  0  0
  139.5160   73.6040  222.3440 N   0  0  0  0  0  0  0  0  0  0  0  0
  140.6560   73.9600  221.5770 C   0  0  0  0  0  0  0  0  0  0  0  0
  141.3870   73.1120  221.0040 O   0  0  0  0  0  0  0  0  0  0  0  0
  140.9760   75.3940  221.4630 C   0  0  0  0  0  0  0  0  0  0  0  0
  141.8210   75.8660  220.4760 C   0  0  0  0  0  0  0  0  0  0  0  0
  142.1130   77.2260  220.3810 C   0  0  0  0  0  0  0  0  0  0  0  0
  141.5680   78.1270  221.2700 C   0  0  0  0  0  0  0  0  0  0  0  0
  141.8240   79.4660  221.2200 C   0  0  0  0  0  0  0  0  0  0  0  0
  141.2570   80.3500  222.1330 C   0  0  0  0  0  0  0  0  0  0  0  0
  140.4170   79.8440  223.1070 C   0  0  0  0  0  0  0  0  0  0  0  0
  140.1630   78.4880  223.1520 C   0  0  0  0  0  0  0  0  0  0  0  0
  140.7300   77.6260  222.2430 C   0  0  0  0  0  0  0  0  0  0  0  0
  140.4660   76.3080  222.3080 N   0  0  0  0  0  0  0  0  0  0  0  0
  140.4694   67.7356  227.1672 H   0  0  0  0  0  0  0  0  0  0  0  0
  141.5543   68.9513  229.0359 H   0  0  0  0  0  0  0  0  0  0  0  0
  141.5976   71.4507  228.9390 H   0  0  0  0  0  0  0  0  0  0  0  0
  140.5823   72.6213  227.0277 H   0  0  0  0  0  0  0  0  0  0  0  0
  138.3730   71.8760  224.9720 H   0  0  0  0  0  0  0  0  0  0  0  0
  139.3993   71.7005  221.5405 H   0  0  0  0  0  0  0  0  0  0  0  0
  138.0942   72.1584  222.7112 H   0  0  0  0  0  0  0  0  0  0  0  0
  138.9410   74.3460  222.8010 H   0  0  0  0  0  0  0  0  0  0  0  0
  142.2674   75.1617  219.7586 H   0  0  0  0  0  0  0  0  0  0  0  0
  142.7858   77.5838  219.5877 H   0  0  0  0  0  0  0  0  0  0  0  0
  142.4942   79.8560  220.4398 H   0  0  0  0  0  0  0  0  0  0  0  0
  141.4725   81.4274  222.0807 H   0  0  0  0  0  0  0  0  0  0  0  0
  139.9535   80.5182  223.8423 H   0  0  0  0  0  0  0  0  0  0  0  0
  139.4946   78.0895  223.9295 H   0  0  0  0  0  0  0  0  0  0  0  0
  1  2  3  0
  2  3  1  0
  3  4  2  0
  4  5  1  0
  5  6  2  0
  6  7  1  0
  7  8  2  0
  8  9  1  0
  9 10  1  0
 10 11  2  0
 10 12  1  0
 12 13  1  0
 13 14  1  0
 14 15  2  0
 14 16  1  0
 16 17  2  0
 17 18  1  0
 18 19  2  0
 19 20  1  0
 20 21  2  0
 21 22  1  0
 22 23  2  0
 23 24  1  0
 24 25  2  0
  8  3  1  0
 25 16  1  0
 24 19  1  0
  4 26  1  0
  5 27  1  0
  6 28  1  0
  7 29  1  0
  9 30  1  0
 12 31  1  0
 12 32  1  0
 13 33  1  0
 17 34  1  0
 18 35  1  0
 20 36  1  0
 21 37  1  0
 22 38  1  0
 23 39  1  0
M  END
>  <smiles>  (34) 
N#Cc1ccccc1NC(=O)CNC(=O)c1ccc2ccccc2n1

>  <score_type>  (34) 
oracle

>  <origin>  (34) 
autodockgpu

>  <m_score__min__energy>  (34) 
-8.8100000000000005

>  <m_primary>  (34) 
energy

>  <rmsd>  (34) 
8.720183485918238

>  <m_score__min__rmsd>  (34) 
8.720183485918238

>  <meeko>  (34) 
{"free_energy": -8.3, "intermolecular_energy": -9.79, "internal_energy": -1.17, "cluster_size": 15, "cluster_id": 2, "rank_in_cluster": 1}

>  <energy>  (34) 
-7.51

>  <cluster_rmsd>  (34) 
1.78

>  <cluster>  (34) 
1

$$$$

     RDKit          3D

 39 41  0  0  0  0  0  0  0  0999 V2000
  141.8650   78.7610  218.6240 N   0  0  0  0  0  0  0  0  0  0  0  0
  141.8080   78.9980  219.7730 C   0  0  0  0  0  0  0  0  0  0  0  0
  141.7540   79.3050  221.1800 C   0  0  0  0  0  0  0  0  0  0  0  0
  141.9010   80.6110  221.5700 C   0  0  0  0  0  0  0  0  0  0  0  0
  141.8650   81.0130  222.8890 C   0  0  0  0  0  0  0  0  0  0  0  0
  141.6700   80.0320  223.8330 C   0  0  0  0  0  0  0  0  0  0  0  0
  141.5220   78.7100  223.4330 C   0  0  0  0  0  0  0  0  0  0  0  0
  141.5560   78.3090  222.1400 C   0  0  0  0  0  0  0  0  0  0  0  0
  141.4140   76.9920  221.6550 N   0  0  0  0  0  0  0  0  0  0  0  0
  140.3390   76.1180  221.9440 C   0  0  0  0  0  0  0  0  0  0  0  0
  139.3780   76.4210  222.6760 O   0  0  0  0  0  0  0  0  0  0  0  0
  140.3150   74.7350  221.3580 C   0  0  0  0  0  0  0  0  0  0  0  0
  139.9790   73.7510  222.3420 N   0  0  0  0  0  0  0  0  0  0  0  0
  140.7050   72.5320  222.3810 C   0  0  0  0  0  0  0  0  0  0  0  0
  141.6410   72.2670  221.5830 O   0  0  0  0  0  0  0  0  0  0  0  0
  140.3260   71.5490  223.4110 C   0  0  0  0  0  0  0  0  0  0  0  0
  139.5910   70.4220  223.0950 C   0  0  0  0  0  0  0  0  0  0  0  0
  139.2410   69.5010  224.0830 C   0  0  0  0  0  0  0  0  0  0  0  0
  139.6180   69.6980  225.3930 C   0  0  0  0  0  0  0  0  0  0  0  0
  139.3000   68.8270  226.3940 C   0  0  0  0  0  0  0  0  0  0  0  0
  139.6960   69.0540  227.7090 C   0  0  0  0  0  0  0  0  0  0  0  0
  140.4300   70.1910  227.9910 C   0  0  0  0  0  0  0  0  0  0  0  0
  140.7480   71.0670  226.9720 C   0  0  0  0  0  0  0  0  0  0  0  0
  140.3500   70.8310  225.6770 C   0  0  0  0  0  0  0  0  0  0  0  0
  140.6730   71.7000  224.7020 N   0  0  0  0  0  0  0  0  0  0  0  0
  142.0551   81.3751  220.7938 H   0  0  0  0  0  0  0  0  0  0  0  0
  141.9866   82.0688  223.1726 H   0  0  0  0  0  0  0  0  0  0  0  0
  141.6314   80.2933  224.9008 H   0  0  0  0  0  0  0  0  0  0  0  0
  141.3687   77.9464  224.2098 H   0  0  0  0  0  0  0  0  0  0  0  0
  142.1580   76.5900  221.0150 H   0  0  0  0  0  0  0  0  0  0  0  0
  139.5682   74.7022  220.5510 H   0  0  0  0  0  0  0  0  0  0  0  0
  141.3200   74.5072  220.9731 H   0  0  0  0  0  0  0  0  0  0  0  0
  139.2100   73.9240  223.0270 H   0  0  0  0  0  0  0  0  0  0  0  0
  139.2789   70.2494  222.0544 H   0  0  0  0  0  0  0  0  0  0  0  0
  138.6579   68.6083  223.8128 H   0  0  0  0  0  0  0  0  0  0  0  0
  138.7174   67.9248  226.1564 H   0  0  0  0  0  0  0  0  0  0  0  0
  139.4307   68.3442  228.5063 H   0  0  0  0  0  0  0  0  0  0  0  0
  140.7586   70.3966  229.0204 H   0  0  0  0  0  0  0  0  0  0  0  0
  141.3311   71.9713  227.2006 H   0  0  0  0  0  0  0  0  0  0  0  0
  1  2  3  0
  2  3  1  0
  3  4  2  0
  4  5  1  0
  5  6  2  0
  6  7  1  0
  7  8  2  0
  8  9  1  0
  9 10  1  0
 10 11  2  0
 10 12  1  0
 12 13  1  0
 13 14  1  0
 14 15  2  0
 14 16  1  0
 16 17  2  0
 17 18  1  0
 18 19  2  0
 19 20  1  0
 20 21  2  0
 21 22  1  0
 22 23  2  0
 23 24  1  0
 24 25  2  0
  8  3  1  0
 25 16  1  0
 24 19  1  0
  4 26  1  0
  5 27  1  0
  6 28  1  0
  7 29  1  0
  9 30  1  0
 12 31  1  0
 12 32  1  0
 13 33  1  0
 17 34  1  0
 18 35  1  0
 20 36  1  0
 21 37  1  0
 22 38  1  0
 23 39  1  0
M  END
>  <smiles>  (35) 
N#Cc1ccccc1NC(=O)CNC(=O)c1ccc2ccccc2n1

>  <score_type>  (35) 
oracle

>  <origin>  (35) 
autodockgpu

>  <m_score__min__energy>  (35) 
-8.8100000000000005

>  <m_primary>  (35) 
energy

>  <rmsd>  (35) 
2.9606671252726704

>  <m_score__min__rmsd>  (35) 
2.9606671252726704

>  <meeko>  (35) 
{"free_energy": -8.57, "intermolecular_energy": -10.06, "internal_energy": -1.11, "cluster_size": 35, "cluster_id": 1, "rank_in_cluster": 27}

>  <energy>  (35) 
-7.5

>  <cluster_rmsd>  (35) 
1.77

>  <cluster>  (35) 
1

$$$$

     RDKit          3D

 39 41  0  0  0  0  0  0  0  0999 V2000
  139.2090   67.3890  224.6430 N   0  0  0  0  0  0  0  0  0  0  0  0
  139.6140   68.1900  225.3990 C   0  0  0  0  0  0  0  0  0  0  0  0
  140.1310   69.1710  226.3210 C   0  0  0  0  0  0  0  0  0  0  0  0
  140.5500   68.7510  227.5560 C   0  0  0  0  0  0  0  0  0  0  0  0
  141.0600   69.6050  228.5100 C   0  0  0  0  0  0  0  0  0  0  0  0
  141.1400   70.9360  228.1740 C   0  0  0  0  0  0  0  0  0  0  0  0
  140.7140   71.3580  226.9210 C   0  0  0  0  0  0  0  0  0  0  0  0
  140.2120   70.5240  225.9800 C   0  0  0  0  0  0  0  0  0  0  0  0
  139.7610   70.8730  224.6900 N   0  0  0  0  0  0  0  0  0  0  0  0
  138.4250   70.7890  224.2320 C   0  0  0  0  0  0  0  0  0  0  0  0
  137.4770   70.3880  224.9340 O   0  0  0  0  0  0  0  0  0  0  0  0
  138.0830   71.1960  222.8260 C   0  0  0  0  0  0  0  0  0  0  0  0
  138.6170   72.4850  222.5070 N   0  0  0  0  0  0  0  0  0  0  0  0
  139.9440   72.5840  222.0140 C   0  0  0  0  0  0  0  0  0  0  0  0
  140.6870   71.5830  221.8420 O   0  0  0  0  0  0  0  0  0  0  0  0
  140.4520   73.9300  221.6970 C   0  0  0  0  0  0  0  0  0  0  0  0
  141.4810   74.1170  220.7930 C   0  0  0  0  0  0  0  0  0  0  0  0
  141.9500   75.3980  220.5040 C   0  0  0  0  0  0  0  0  0  0  0  0
  141.3990   76.5030  221.1150 C   0  0  0  0  0  0  0  0  0  0  0  0
  141.8230   77.7760  220.8670 C   0  0  0  0  0  0  0  0  0  0  0  0
  141.2460   78.8720  221.5010 C   0  0  0  0  0  0  0  0  0  0  0  0
  140.2190   78.6500  222.3990 C   0  0  0  0  0  0  0  0  0  0  0  0
  139.7960   77.3590  222.6450 C   0  0  0  0  0  0  0  0  0  0  0  0
  140.3750   76.2850  222.0120 C   0  0  0  0  0  0  0  0  0  0  0  0
  139.9440   75.0370  222.2690 N   0  0  0  0  0  0  0  0  0  0  0  0
  140.4758   67.6805  227.7978 H   0  0  0  0  0  0  0  0  0  0  0  0
  141.3877   69.2390  229.4942 H   0  0  0  0  0  0  0  0  0  0  0  0
  141.5400   71.6641  228.8950 H   0  0  0  0  0  0  0  0  0  0  0  0
  140.7886   72.4287  226.6801 H   0  0  0  0  0  0  0  0  0  0  0  0
  140.4570   71.2350  223.9750 H   0  0  0  0  0  0  0  0  0  0  0  0
  138.4991   70.4544  222.1283 H   0  0  0  0  0  0  0  0  0  0  0  0
  136.9876   71.2456  222.7385 H   0  0  0  0  0  0  0  0  0  0  0  0
  138.0400   73.3470  222.6320 H   0  0  0  0  0  0  0  0  0  0  0  0
  141.9345   73.2464  220.2966 H   0  0  0  0  0  0  0  0  0  0  0  0
  142.7685   75.5276  219.7806 H   0  0  0  0  0  0  0  0  0  0  0  0
  142.6401   77.9397  220.1490 H   0  0  0  0  0  0  0  0  0  0  0  0
  141.5994   79.8925  221.2922 H   0  0  0  0  0  0  0  0  0  0  0  0
  139.7417   79.4965  222.9144 H   0  0  0  0  0  0  0  0  0  0  0  0
  138.9796   77.1865  223.3617 H   0  0  0  0  0  0  0  0  0  0  0  0
  1  2  3  0
  2  3  1  0
  3  4  2  0
  4  5  1  0
  5  6  2  0
  6  7  1  0
  7  8  2  0
  8  9  1  0
  9 10  1  0
 10 11  2  0
 10 12  1  0
 12 13  1  0
 13 14  1  0
 14 15  2  0
 14 16  1  0
 16 17  2  0
 17 18  1  0
 18 19  2  0
 19 20  1  0
 20 21  2  0
 21 22  1  0
 22 23  2  0
 23 24  1  0
 24 25  2  0
  8  3  1  0
 25 16  1  0
 24 19  1  0
  4 26  1  0
  5 27  1  0
  6 28  1  0
  7 29  1  0
  9 30  1  0
 12 31  1  0
 12 32  1  0
 13 33  1  0
 17 34  1  0
 18 35  1  0
 20 36  1  0
 21 37  1  0
 22 38  1  0
 23 39  1  0
M  END
>  <smiles>  (36) 
N#Cc1ccccc1NC(=O)CNC(=O)c1ccc2ccccc2n1

>  <score_type>  (36) 
oracle

>  <origin>  (36) 
autodockgpu

>  <m_score__min__energy>  (36) 
-8.8100000000000005

>  <m_primary>  (36) 
energy

>  <rmsd>  (36) 
8.303816960192682

>  <m_score__min__rmsd>  (36) 
8.303816960192682

>  <meeko>  (36) 
{"free_energy": -7.93, "intermolecular_energy": -9.42, "internal_energy": -1.83, "cluster_size": 15, "cluster_id": 2, "rank_in_cluster": 8}

>  <energy>  (36) 
-8.3

>  <cluster_rmsd>  (36) 
0.0

>  <cluster>  (36) 
2

$$$$

     RDKit          3D

 39 41  0  0  0  0  0  0  0  0999 V2000
  141.8860   78.2450  218.7350 N   0  0  0  0  0  0  0  0  0  0  0  0
  141.8060   78.5710  219.8590 C   0  0  0  0  0  0  0  0  0  0  0  0
  141.7300   78.9700  221.2430 C   0  0  0  0  0  0  0  0  0  0  0  0
  141.9440   80.2870  221.5570 C   0  0  0  0  0  0  0  0  0  0  0  0
  141.8950   80.7720  222.8470 C   0  0  0  0  0  0  0  0  0  0  0  0
  141.6150   79.8650  223.8420 C   0  0  0  0  0  0  0  0  0  0  0  0
  141.4000   78.5310  223.5200 C   0  0  0  0  0  0  0  0  0  0  0  0
  141.4470   78.0490  222.2560 C   0  0  0  0  0  0  0  0  0  0  0  0
  141.2400   76.7140  221.8480 N   0  0  0  0  0  0  0  0  0  0  0  0
  139.9820   76.0930  221.6620 C   0  0  0  0  0  0  0  0  0  0  0  0
  138.8920   76.6700  221.8420 O   0  0  0  0  0  0  0  0  0  0  0  0
  139.9080   74.6580  221.2240 C   0  0  0  0  0  0  0  0  0  0  0  0
  139.8320   73.7690  222.3430 N   0  0  0  0  0  0  0  0  0  0  0  0
  140.1920   72.4070  222.1730 C   0  0  0  0  0  0  0  0  0  0  0  0
  140.5790   71.9330  221.0740 O   0  0  0  0  0  0  0  0  0  0  0  0
  140.0990   71.5280  223.3520 C   0  0  0  0  0  0  0  0  0  0  0  0
  139.5350   70.2690  223.2690 C   0  0  0  0  0  0  0  0  0  0  0  0
  139.4550   69.4500  224.3950 C   0  0  0  0  0  0  0  0  0  0  0  0
  139.9350   69.8790  225.6130 C   0  0  0  0  0  0  0  0  0  0  0  0
  139.8800   69.1160  226.7420 C   0  0  0  0  0  0  0  0  0  0  0  0
  140.3740   69.5790  227.9580 C   0  0  0  0  0  0  0  0  0  0  0  0
  140.9320   70.8420  228.0060 C   0  0  0  0  0  0  0  0  0  0  0  0
  140.9840   71.6090  226.8590 C   0  0  0  0  0  0  0  0  0  0  0  0
  140.4920   71.1390  225.6640 C   0  0  0  0  0  0  0  0  0  0  0  0
  140.5560   71.9060  224.5600 N   0  0  0  0  0  0  0  0  0  0  0  0
  142.1654   80.9907  220.7410 H   0  0  0  0  0  0  0  0  0  0  0  0
  142.0716   81.8347  223.0697 H   0  0  0  0  0  0  0  0  0  0  0  0
  141.5615   80.1950  224.8900 H   0  0  0  0  0  0  0  0  0  0  0  0
  141.1795   77.8279  224.3368 H   0  0  0  0  0  0  0  0  0  0  0  0
  142.0780   76.0930  221.6550 H   0  0  0  0  0  0  0  0  0  0  0  0
  139.0138   74.5214  220.5982 H   0  0  0  0  0  0  0  0  0  0  0  0
  140.8223   74.4230  220.6593 H   0  0  0  0  0  0  0  0  0  0  0  0
  139.5160   74.1140  223.2760 H   0  0  0  0  0  0  0  0  0  0  0  0
  139.1453   69.9093  222.3053 H   0  0  0  0  0  0  0  0  0  0  0  0
  139.0037   68.4505  224.3097 H   0  0  0  0  0  0  0  0  0  0  0  0
  139.4349   68.1114  226.6904 H   0  0  0  0  0  0  0  0  0  0  0  0
  140.3213   68.9531  228.8610 H   0  0  0  0  0  0  0  0  0  0  0  0
  141.3325   71.2342  228.9524 H   0  0  0  0  0  0  0  0  0  0  0  0
  141.4273   72.6148  226.9020 H   0  0  0  0  0  0  0  0  0  0  0  0
  1  2  3  0
  2  3  1  0
  3  4  2  0
  4  5  1  0
  5  6  2  0
  6  7  1  0
  7  8  2  0
  8  9  1  0
  9 10  1  0
 10 11  2  0
 10 12  1  0
 12 13  1  0
 13 14  1  0
 14 15  2  0
 14 16  1  0
 16 17  2  0
 17 18  1  0
 18 19  2  0
 19 20  1  0
 20 21  2  0
 21 22  1  0
 22 23  2  0
 23 24  1  0
 24 25  2  0
  8  3  1  0
 25 16  1  0
 24 19  1  0
  4 26  1  0
  5 27  1  0
  6 28  1  0
  7 29  1  0
  9 30  1  0
 12 31  1  0
 12 32  1  0
 13 33  1  0
 17 34  1  0
 18 35  1  0
 20 36  1  0
 21 37  1  0
 22 38  1  0
 23 39  1  0
M  END
>  <smiles>  (37) 
N#Cc1ccccc1NC(=O)CNC(=O)c1ccc2ccccc2n1

>  <score_type>  (37) 
oracle

>  <origin>  (37) 
autodockgpu

>  <m_score__min__energy>  (37) 
-8.8100000000000005

>  <m_primary>  (37) 
energy

>  <rmsd>  (37) 
2.774940659145831

>  <m_score__min__rmsd>  (37) 
2.774940659145831

>  <meeko>  (37) 
{"free_energy": -8.63, "intermolecular_energy": -10.12, "internal_energy": -1.02, "cluster_size": 35, "cluster_id": 1, "rank_in_cluster": 24}

>  <energy>  (37) 
-8.08

>  <cluster_rmsd>  (37) 
1.23

>  <cluster>  (37) 
2

$$$$

     RDKit          3D

 39 41  0  0  0  0  0  0  0  0999 V2000
  137.4640   70.4600  222.3800 N   0  0  0  0  0  0  0  0  0  0  0  0
  138.2550   70.5720  223.2390 C   0  0  0  0  0  0  0  0  0  0  0  0
  139.2110   70.7130  224.3100 C   0  0  0  0  0  0  0  0  0  0  0  0
  139.1550   69.8290  225.3560 C   0  0  0  0  0  0  0  0  0  0  0  0
  140.0200   69.8740  226.4290 C   0  0  0  0  0  0  0  0  0  0  0  0
  140.9730   70.8660  226.4180 C   0  0  0  0  0  0  0  0  0  0  0  0
  141.0260   71.7600  225.3560 C   0  0  0  0  0  0  0  0  0  0  0  0
  140.1790   71.7200  224.3000 C   0  0  0  0  0  0  0  0  0  0  0  0
  140.1690   72.5880  223.1880 N   0  0  0  0  0  0  0  0  0  0  0  0
  141.0200   72.4950  222.0610 C   0  0  0  0  0  0  0  0  0  0  0  0
  141.8930   71.6180  221.9230 O   0  0  0  0  0  0  0  0  0  0  0  0
  140.8990   73.4920  220.9420 C   0  0  0  0  0  0  0  0  0  0  0  0
  141.0060   74.8360  221.4210 N   0  0  0  0  0  0  0  0  0  0  0  0
  139.8430   75.5000  221.8910 C   0  0  0  0  0  0  0  0  0  0  0  0
  138.7060   74.9610  221.9080 O   0  0  0  0  0  0  0  0  0  0  0  0
  140.0000   76.8830  222.3750 C   0  0  0  0  0  0  0  0  0  0  0  0
  138.9060   77.6530  222.7230 C   0  0  0  0  0  0  0  0  0  0  0  0
  139.0720   78.9590  223.1790 C   0  0  0  0  0  0  0  0  0  0  0  0
  140.3290   79.5110  223.2930 C   0  0  0  0  0  0  0  0  0  0  0  0
  140.5430   80.7840  223.7330 C   0  0  0  0  0  0  0  0  0  0  0  0
  141.8270   81.3120  223.8370 C   0  0  0  0  0  0  0  0  0  0  0  0
  142.8990   80.5150  223.4820 C   0  0  0  0  0  0  0  0  0  0  0  0
  142.6740   79.2280  223.0360 C   0  0  0  0  0  0  0  0  0  0  0  0
  141.4010   78.7190  222.9390 C   0  0  0  0  0  0  0  0  0  0  0  0
  141.2080   77.4610  222.5020 N   0  0  0  0  0  0  0  0  0  0  0  0
  138.3828   69.0458  225.3387 H   0  0  0  0  0  0  0  0  0  0  0  0
  139.9512   69.1507  227.2549 H   0  0  0  0  0  0  0  0  0  0  0  0
  141.6907   70.9510  227.2473 H   0  0  0  0  0  0  0  0  0  0  0  0
  141.7982   72.5432  225.3738 H   0  0  0  0  0  0  0  0  0  0  0  0
  139.4740   73.3900  223.1590 H   0  0  0  0  0  0  0  0  0  0  0  0
  141.7009   73.3083  220.2118 H   0  0  0  0  0  0  0  0  0  0  0  0
  139.9094   73.3698  220.4774 H   0  0  0  0  0  0  0  0  0  0  0  0
  141.9270   75.3280  221.4270 H   0  0  0  0  0  0  0  0  0  0  0  0
  137.8940   77.2303  222.6391 H   0  0  0  0  0  0  0  0  0  0  0  0
  138.1892   79.5562  223.4511 H   0  0  0  0  0  0  0  0  0  0  0  0
  139.6812   81.4080  224.0122 H   0  0  0  0  0  0  0  0  0  0  0  0
  141.9848   82.3405  224.1938 H   0  0  0  0  0  0  0  0  0  0  0  0
  143.9254   80.9039  223.5544 H   0  0  0  0  0  0  0  0  0  0  0  0
  143.5300   78.5978  222.7528 H   0  0  0  0  0  0  0  0  0  0  0  0
  1  2  3  0
  2  3  1  0
  3  4  2  0
  4  5  1  0
  5  6  2  0
  6  7  1  0
  7  8  2  0
  8  9  1  0
  9 10  1  0
 10 11  2  0
 10 12  1  0
 12 13  1  0
 13 14  1  0
 14 15  2  0
 14 16  1  0
 16 17  2  0
 17 18  1  0
 18 19  2  0
 19 20  1  0
 20 21  2  0
 21 22  1  0
 22 23  2  0
 23 24  1  0
 24 25  2  0
  8  3  1  0
 25 16  1  0
 24 19  1  0
  4 26  1  0
  5 27  1  0
  6 28  1  0
  7 29  1  0
  9 30  1  0
 12 31  1  0
 12 32  1  0
 13 33  1  0
 17 34  1  0
 18 35  1  0
 20 36  1  0
 21 37  1  0
 22 38  1  0
 23 39  1  0
M  END
>  <smiles>  (38) 
N#Cc1ccccc1NC(=O)CNC(=O)c1ccc2ccccc2n1

>  <score_type>  (38) 
oracle

>  <origin>  (38) 
autodockgpu

>  <m_score__min__energy>  (38) 
-8.8100000000000005

>  <m_primary>  (38) 
energy

>  <rmsd>  (38) 
8.546098615732083

>  <m_score__min__rmsd>  (38) 
8.546098615732083

>  <meeko>  (38) 
{"free_energy": -7.51, "intermolecular_energy": -9.0, "internal_energy": -2.0, "cluster_size": 35, "cluster_id": 1, "rank_in_cluster": 34}

>  <energy>  (38) 
-7.98

>  <cluster_rmsd>  (38) 
0.98

>  <cluster>  (38) 
2

$$$$

     RDKit          3D

 39 41  0  0  0  0  0  0  0  0999 V2000
  141.8620   78.4470  218.6880 N   0  0  0  0  0  0  0  0  0  0  0  0
  141.7950   78.7360  219.8240 C   0  0  0  0  0  0  0  0  0  0  0  0
  141.7350   79.0930  221.2200 C   0  0  0  0  0  0  0  0  0  0  0  0
  141.9170   80.4070  221.5660 C   0  0  0  0  0  0  0  0  0  0  0  0
  141.8780   80.8550  222.8700 C   0  0  0  0  0  0  0  0  0  0  0  0
  141.6450   79.9140  223.8440 C   0  0  0  0  0  0  0  0  0  0  0  0
  141.4620   78.5840  223.4890 C   0  0  0  0  0  0  0  0  0  0  0  0
  141.4980   78.1370  222.2110 C   0  0  0  0  0  0  0  0  0  0  0  0
  141.3220   76.8090  221.7700 N   0  0  0  0  0  0  0  0  0  0  0  0
  140.1010   76.0940  221.7720 C   0  0  0  0  0  0  0  0  0  0  0  0
  139.0210   76.5690  222.1720 O   0  0  0  0  0  0  0  0  0  0  0  0
  140.0570   74.6770  221.2720 C   0  0  0  0  0  0  0  0  0  0  0  0
  139.8230   73.7500  222.3370 N   0  0  0  0  0  0  0  0  0  0  0  0
  140.5540   72.5340  222.3720 C   0  0  0  0  0  0  0  0  0  0  0  0
  141.4090   72.2230  221.5020 O   0  0  0  0  0  0  0  0  0  0  0  0
  140.2810   71.6100  223.4870 C   0  0  0  0  0  0  0  0  0  0  0  0
  139.5690   70.4410  223.2960 C   0  0  0  0  0  0  0  0  0  0  0  0
  139.3200   69.5770  224.3620 C   0  0  0  0  0  0  0  0  0  0  0  0
  139.7770   69.8720  225.6270 C   0  0  0  0  0  0  0  0  0  0  0  0
  139.5590   69.0600  226.7020 C   0  0  0  0  0  0  0  0  0  0  0  0
  140.0340   69.3870  227.9690 C   0  0  0  0  0  0  0  0  0  0  0  0
  140.7430   70.5630  228.1250 C   0  0  0  0  0  0  0  0  0  0  0  0
  140.9590   71.3790  227.0330 C   0  0  0  0  0  0  0  0  0  0  0  0
  140.4840   71.0450  225.7870 C   0  0  0  0  0  0  0  0  0  0  0  0
  140.7090   71.8580  224.7380 N   0  0  0  0  0  0  0  0  0  0  0  0
  142.1029   81.1386  220.7659 H   0  0  0  0  0  0  0  0  0  0  0  0
  142.0265   81.9162  223.1187 H   0  0  0  0  0  0  0  0  0  0  0  0
  141.6036   80.2134  224.9017 H   0  0  0  0  0  0  0  0  0  0  0  0
  141.2776   77.8531  224.2901 H   0  0  0  0  0  0  0  0  0  0  0  0
  142.1570   76.2690  221.3990 H   0  0  0  0  0  0  0  0  0  0  0  0
  139.2473   74.5840  220.5333 H   0  0  0  0  0  0  0  0  0  0  0  0
  141.0311   74.4416  220.8185 H   0  0  0  0  0  0  0  0  0  0  0  0
  139.1240   73.9620  223.0830 H   0  0  0  0  0  0  0  0  0  0  0  0
  139.1948   70.1894  222.2927 H   0  0  0  0  0  0  0  0  0  0  0  0
  138.7527   68.6503  224.1905 H   0  0  0  0  0  0  0  0  0  0  0  0
  138.9950   68.1257  226.5641 H   0  0  0  0  0  0  0  0  0  0  0  0
  139.8491   68.7240  228.8271 H   0  0  0  0  0  0  0  0  0  0  0  0
  141.1328   70.8470  229.1136 H   0  0  0  0  0  0  0  0  0  0  0  0
  141.5223   72.3149  227.1623 H   0  0  0  0  0  0  0  0  0  0  0  0
  1  2  3  0
  2  3  1  0
  3  4  2  0
  4  5  1  0
  5  6  2  0
  6  7  1  0
  7  8  2  0
  8  9  1  0
  9 10  1  0
 10 11  2  0
 10 12  1  0
 12 13  1  0
 13 14  1  0
 14 15  2  0
 14 16  1  0
 16 17  2  0
 17 18  1  0
 18 19  2  0
 19 20  1  0
 20 21  2  0
 21 22  1  0
 22 23  2  0
 23 24  1  0
 24 25  2  0
  8  3  1  0
 25 16  1  0
 24 19  1  0
  4 26  1  0
  5 27  1  0
  6 28  1  0
  7 29  1  0
  9 30  1  0
 12 31  1  0
 12 32  1  0
 13 33  1  0
 17 34  1  0
 18 35  1  0
 20 36  1  0
 21 37  1  0
 22 38  1  0
 23 39  1  0
M  END
>  <smiles>  (39) 
N#Cc1ccccc1NC(=O)CNC(=O)c1ccc2ccccc2n1

>  <score_type>  (39) 
oracle

>  <origin>  (39) 
autodockgpu

>  <m_score__min__energy>  (39) 
-8.8100000000000005

>  <m_primary>  (39) 
energy

>  <rmsd>  (39) 
2.8630172586101943

>  <m_score__min__rmsd>  (39) 
2.8630172586101943

>  <meeko>  (39) 
{"free_energy": -8.8, "intermolecular_energy": -10.29, "internal_energy": -0.99, "cluster_size": 35, "cluster_id": 1, "rank_in_cluster": 4}

>  <energy>  (39) 
-7.95

>  <cluster_rmsd>  (39) 
1.38

>  <cluster>  (39) 
2

$$$$

     RDKit          3D

 39 41  0  0  0  0  0  0  0  0999 V2000
  141.8620   78.6360  218.6650 N   0  0  0  0  0  0  0  0  0  0  0  0
  141.8040   78.9090  219.8050 C   0  0  0  0  0  0  0  0  0  0  0  0
  141.7550   79.2440  221.2070 C   0  0  0  0  0  0  0  0  0  0  0  0
  141.9290   80.5540  221.5720 C   0  0  0  0  0  0  0  0  0  0  0  0
  141.9000   80.9820  222.8820 C   0  0  0  0  0  0  0  0  0  0  0  0
  141.6860   80.0230  223.8440 C   0  0  0  0  0  0  0  0  0  0  0  0
  141.5110   78.6970  223.4710 C   0  0  0  0  0  0  0  0  0  0  0  0
  141.5370   78.2710  222.1850 C   0  0  0  0  0  0  0  0  0  0  0  0
  141.3690   76.9480  221.7260 N   0  0  0  0  0  0  0  0  0  0  0  0
  140.1850   76.1800  221.8360 C   0  0  0  0  0  0  0  0  0  0  0  0
  139.1360   76.5980  222.3640 O   0  0  0  0  0  0  0  0  0  0  0  0
  140.1440   74.7770  221.3010 C   0  0  0  0  0  0  0  0  0  0  0  0
  139.8780   73.8260  222.3380 N   0  0  0  0  0  0  0  0  0  0  0  0
  140.6310   72.6240  222.3880 C   0  0  0  0  0  0  0  0  0  0  0  0
  141.5340   72.3470  221.5560 O   0  0  0  0  0  0  0  0  0  0  0  0
  140.3240   71.6750  223.4720 C   0  0  0  0  0  0  0  0  0  0  0  0
  139.6270   70.5060  223.2290 C   0  0  0  0  0  0  0  0  0  0  0  0
  139.3450   69.6180  224.2670 C   0  0  0  0  0  0  0  0  0  0  0  0
  139.7530   69.8880  225.5540 C   0  0  0  0  0  0  0  0  0  0  0  0
  139.5000   69.0530  226.6030 C   0  0  0  0  0  0  0  0  0  0  0  0
  139.9270   69.3540  227.8930 C   0  0  0  0  0  0  0  0  0  0  0  0
  140.6210   70.5310  228.1010 C   0  0  0  0  0  0  0  0  0  0  0  0
  140.8720   71.3710  227.0350 C   0  0  0  0  0  0  0  0  0  0  0  0
  140.4450   71.0620  225.7650 C   0  0  0  0  0  0  0  0  0  0  0  0
  140.7040   71.8980  224.7430 N   0  0  0  0  0  0  0  0  0  0  0  0
  142.1000   81.2994  220.7814 H   0  0  0  0  0  0  0  0  0  0  0  0
  142.0413   82.0406  223.1454 H   0  0  0  0  0  0  0  0  0  0  0  0
  141.6535   80.3057  224.9066 H   0  0  0  0  0  0  0  0  0  0  0  0
  141.3421   77.9520  224.2624 H   0  0  0  0  0  0  0  0  0  0  0  0
  142.1790   76.4540  221.2510 H   0  0  0  0  0  0  0  0  0  0  0  0
  139.3518   74.7076  220.5409 H   0  0  0  0  0  0  0  0  0  0  0  0
  141.1271   74.5456  220.8653 H   0  0  0  0  0  0  0  0  0  0  0  0
  139.1390   74.0100  223.0520 H   0  0  0  0  0  0  0  0  0  0  0  0
  139.2917   70.2740  222.2074 H   0  0  0  0  0  0  0  0  0  0  0  0
  138.7906   68.6919  224.0551 H   0  0  0  0  0  0  0  0  0  0  0  0
  138.9454   68.1199  226.4249 H   0  0  0  0  0  0  0  0  0  0  0  0
  139.7168   68.6702  228.7286 H   0  0  0  0  0  0  0  0  0  0  0  0
  140.9710   70.7965  229.1095 H   0  0  0  0  0  0  0  0  0  0  0  0
  141.4248   72.3067  227.2049 H   0  0  0  0  0  0  0  0  0  0  0  0
  1  2  3  0
  2  3  1  0
  3  4  2  0
  4  5  1  0
  5  6  2  0
  6  7  1  0
  7  8  2  0
  8  9  1  0
  9 10  1  0
 10 11  2  0
 10 12  1  0
 12 13  1  0
 13 14  1  0
 14 15  2  0
 14 16  1  0
 16 17  2  0
 17 18  1  0
 18 19  2  0
 19 20  1  0
 20 21  2  0
 21 22  1  0
 22 23  2  0
 23 24  1  0
 24 25  2  0
  8  3  1  0
 25 16  1  0
 24 19  1  0
  4 26  1  0
  5 27  1  0
  6 28  1  0
  7 29  1  0
  9 30  1  0
 12 31  1  0
 12 32  1  0
 13 33  1  0
 17 34  1  0
 18 35  1  0
 20 36  1  0
 21 37  1  0
 22 38  1  0
 23 39  1  0
M  END
>  <smiles>  (40) 
N#Cc1ccccc1NC(=O)CNC(=O)c1ccc2ccccc2n1

>  <score_type>  (40) 
oracle

>  <origin>  (40) 
autodockgpu

>  <m_score__min__energy>  (40) 
-8.8100000000000005

>  <m_primary>  (40) 
energy

>  <rmsd>  (40) 
2.939370981369627

>  <m_score__min__rmsd>  (40) 
2.939370981369627

>  <meeko>  (40) 
{"free_energy": -8.8, "intermolecular_energy": -10.3, "internal_energy": -1.02, "cluster_size": 35, "cluster_id": 1, "rank_in_cluster": 2}

>  <energy>  (40) 
-7.95

>  <cluster_rmsd>  (40) 
1.36

>  <cluster>  (40) 
2

$$$$

     RDKit          3D

 39 41  0  0  0  0  0  0  0  0999 V2000
  139.2010   67.4060  224.6370 N   0  0  0  0  0  0  0  0  0  0  0  0
  139.6170   68.2120  225.3830 C   0  0  0  0  0  0  0  0  0  0  0  0
  140.1270   69.1870  226.3140 C   0  0  0  0  0  0  0  0  0  0  0  0
  140.5470   68.7570  227.5470 C   0  0  0  0  0  0  0  0  0  0  0  0
  141.0510   69.6050  228.5100 C   0  0  0  0  0  0  0  0  0  0  0  0
  141.1230   70.9400  228.1870 C   0  0  0  0  0  0  0  0  0  0  0  0
  140.6960   71.3710  226.9380 C   0  0  0  0  0  0  0  0  0  0  0  0
  140.2010   70.5440  225.9870 C   0  0  0  0  0  0  0  0  0  0  0  0
  139.7500   70.9030  224.7000 N   0  0  0  0  0  0  0  0  0  0  0  0
  138.4150   70.8140  224.2390 C   0  0  0  0  0  0  0  0  0  0  0  0
  137.4680   70.3980  224.9340 O   0  0  0  0  0  0  0  0  0  0  0  0
  138.0730   71.2330  222.8370 C   0  0  0  0  0  0  0  0  0  0  0  0
  138.6030   72.5260  222.5300 N   0  0  0  0  0  0  0  0  0  0  0  0
  139.9290   72.6340  222.0360 C   0  0  0  0  0  0  0  0  0  0  0  0
  140.6750   71.6360  221.8530 O   0  0  0  0  0  0  0  0  0  0  0  0
  140.4330   73.9850  221.7320 C   0  0  0  0  0  0  0  0  0  0  0  0
  141.4590   74.1840  220.8280 C   0  0  0  0  0  0  0  0  0  0  0  0
  141.9240   75.4690  220.5510 C   0  0  0  0  0  0  0  0  0  0  0  0
  141.3720   76.5660  221.1750 C   0  0  0  0  0  0  0  0  0  0  0  0
  141.7920   77.8420  220.9400 C   0  0  0  0  0  0  0  0  0  0  0  0
  141.2130   78.9300  221.5860 C   0  0  0  0  0  0  0  0  0  0  0  0
  140.1900   78.6960  222.4850 C   0  0  0  0  0  0  0  0  0  0  0  0
  139.7710   77.4020  222.7180 C   0  0  0  0  0  0  0  0  0  0  0  0
  140.3510   76.3360  222.0720 C   0  0  0  0  0  0  0  0  0  0  0  0
  139.9230   75.0840  222.3170 N   0  0  0  0  0  0  0  0  0  0  0  0
  140.4783   67.6838  227.7785 H   0  0  0  0  0  0  0  0  0  0  0  0
  141.3802   69.2314  229.4909 H   0  0  0  0  0  0  0  0  0  0  0  0
  141.5174   71.6637  228.9155 H   0  0  0  0  0  0  0  0  0  0  0  0
  140.7637   72.4446  226.7082 H   0  0  0  0  0  0  0  0  0  0  0  0
  140.4440   71.2770  223.9900 H   0  0  0  0  0  0  0  0  0  0  0  0
  138.4918   70.4990  222.1328 H   0  0  0  0  0  0  0  0  0  0  0  0
  136.9775   71.2804  222.7495 H   0  0  0  0  0  0  0  0  0  0  0  0
  138.0240   73.3850  222.6640 H   0  0  0  0  0  0  0  0  0  0  0  0
  141.9136   73.3197  220.3217 H   0  0  0  0  0  0  0  0  0  0  0  0
  142.7401   75.6082  219.8267 H   0  0  0  0  0  0  0  0  0  0  0  0
  142.6078   78.0153  220.2228 H   0  0  0  0  0  0  0  0  0  0  0  0
  141.5619   79.9537  221.3855 H   0  0  0  0  0  0  0  0  0  0  0  0
  139.7128   79.5357  223.0115 H   0  0  0  0  0  0  0  0  0  0  0  0
  138.9568   77.2198  223.4348 H   0  0  0  0  0  0  0  0  0  0  0  0
  1  2  3  0
  2  3  1  0
  3  4  2  0
  4  5  1  0
  5  6  2  0
  6  7  1  0
  7  8  2  0
  8  9  1  0
  9 10  1  0
 10 11  2  0
 10 12  1  0
 12 13  1  0
 13 14  1  0
 14 15  2  0
 14 16  1  0
 16 17  2  0
 17 18  1  0
 18 19  2  0
 19 20  1  0
 20 21  2  0
 21 22  1  0
 22 23  2  0
 23 24  1  0
 24 25  2  0
  8  3  1  0
 25 16  1  0
 24 19  1  0
  4 26  1  0
  5 27  1  0
  6 28  1  0
  7 29  1  0
  9 30  1  0
 12 31  1  0
 12 32  1  0
 13 33  1  0
 17 34  1  0
 18 35  1  0
 20 36  1  0
 21 37  1  0
 22 38  1  0
 23 39  1  0
M  END
>  <smiles>  (41) 
N#Cc1ccccc1NC(=O)CNC(=O)c1ccc2ccccc2n1

>  <score_type>  (41) 
oracle

>  <origin>  (41) 
autodockgpu

>  <m_score__min__energy>  (41) 
-8.8100000000000005

>  <m_primary>  (41) 
energy

>  <rmsd>  (41) 
8.305372299734113

>  <m_score__min__rmsd>  (41) 
8.305372299734113

>  <meeko>  (41) 
{"free_energy": -7.93, "intermolecular_energy": -9.42, "internal_energy": -1.83, "cluster_size": 15, "cluster_id": 2, "rank_in_cluster": 7}

>  <energy>  (41) 
-7.95

>  <cluster_rmsd>  (41) 
1.35

>  <cluster>  (41) 
2

$$$$

     RDKit          3D

 39 41  0  0  0  0  0  0  0  0999 V2000
  141.8510   78.6570  218.6690 N   0  0  0  0  0  0  0  0  0  0  0  0
  141.8220   78.9160  219.8130 C   0  0  0  0  0  0  0  0  0  0  0  0
  141.7670   79.2470  221.2160 C   0  0  0  0  0  0  0  0  0  0  0  0
  141.9360   80.5560  221.5860 C   0  0  0  0  0  0  0  0  0  0  0  0
  141.9020   80.9800  222.8980 C   0  0  0  0  0  0  0  0  0  0  0  0
  141.6860   80.0170  223.8560 C   0  0  0  0  0  0  0  0  0  0  0  0
  141.5160   78.6920  223.4770 C   0  0  0  0  0  0  0  0  0  0  0  0
  141.5480   78.2700  222.1900 C   0  0  0  0  0  0  0  0  0  0  0  0
  141.3840   76.9480  221.7260 N   0  0  0  0  0  0  0  0  0  0  0  0
  140.2150   76.1630  221.8680 C   0  0  0  0  0  0  0  0  0  0  0  0
  139.1780   76.5610  222.4330 O   0  0  0  0  0  0  0  0  0  0  0  0
  140.1780   74.7630  221.3230 C   0  0  0  0  0  0  0  0  0  0  0  0
  139.8950   73.8060  222.3490 N   0  0  0  0  0  0  0  0  0  0  0  0
  140.6280   72.5910  222.3880 C   0  0  0  0  0  0  0  0  0  0  0  0
  141.5260   72.3070  221.5530 O   0  0  0  0  0  0  0  0  0  0  0  0
  140.3040   71.6360  223.4620 C   0  0  0  0  0  0  0  0  0  0  0  0
  139.6150   70.4660  223.2010 C   0  0  0  0  0  0  0  0  0  0  0  0
  139.3170   69.5730  224.2300 C   0  0  0  0  0  0  0  0  0  0  0  0
  139.7000   69.8390  225.5260 C   0  0  0  0  0  0  0  0  0  0  0  0
  139.4310   68.9970  226.5650 C   0  0  0  0  0  0  0  0  0  0  0  0
  139.8330   69.2940  227.8640 C   0  0  0  0  0  0  0  0  0  0  0  0
  140.5200   70.4720  228.0900 C   0  0  0  0  0  0  0  0  0  0  0  0
  140.7870   71.3180  227.0330 C   0  0  0  0  0  0  0  0  0  0  0  0
  140.3850   71.0130  225.7540 C   0  0  0  0  0  0  0  0  0  0  0  0
  140.6590   71.8550  224.7410 N   0  0  0  0  0  0  0  0  0  0  0  0
  142.1070   81.3046  220.7984 H   0  0  0  0  0  0  0  0  0  0  0  0
  142.0410   82.0379  223.1655 H   0  0  0  0  0  0  0  0  0  0  0  0
  141.6480   80.2957  224.9194 H   0  0  0  0  0  0  0  0  0  0  0  0
  141.3460   77.9438  224.2652 H   0  0  0  0  0  0  0  0  0  0  0  0
  142.1850   76.4710  221.2210 H   0  0  0  0  0  0  0  0  0  0  0  0
  139.3966   74.7008  220.5513 H   0  0  0  0  0  0  0  0  0  0  0  0
  141.1668   74.5320  220.9000 H   0  0  0  0  0  0  0  0  0  0  0  0
  139.1580   73.9950  223.0650 H   0  0  0  0  0  0  0  0  0  0  0  0
  139.2990   70.2374  222.1724 H   0  0  0  0  0  0  0  0  0  0  0  0
  138.7699   68.6458  224.0040 H   0  0  0  0  0  0  0  0  0  0  0  0
  138.8841   68.0623  226.3719 H   0  0  0  0  0  0  0  0  0  0  0  0
  139.6089   68.6063  228.6927 H   0  0  0  0  0  0  0  0  0  0  0  0
  140.8517   70.7333  229.1057 H   0  0  0  0  0  0  0  0  0  0  0  0
  141.3324   72.2553  227.2174 H   0  0  0  0  0  0  0  0  0  0  0  0
  1  2  3  0
  2  3  1  0
  3  4  2  0
  4  5  1  0
  5  6  2  0
  6  7  1  0
  7  8  2  0
  8  9  1  0
  9 10  1  0
 10 11  2  0
 10 12  1  0
 12 13  1  0
 13 14  1  0
 14 15  2  0
 14 16  1  0
 16 17  2  0
 17 18  1  0
 18 19  2  0
 19 20  1  0
 20 21  2  0
 21 22  1  0
 22 23  2  0
 23 24  1  0
 24 25  2  0
  8  3  1  0
 25 16  1  0
 24 19  1  0
  4 26  1  0
  5 27  1  0
  6 28  1  0
  7 29  1  0
  9 30  1  0
 12 31  1  0
 12 32  1  0
 13 33  1  0
 17 34  1  0
 18 35  1  0
 20 36  1  0
 21 37  1  0
 22 38  1  0
 23 39  1  0
M  END
>  <smiles>  (42) 
N#Cc1ccccc1NC(=O)CNC(=O)c1ccc2ccccc2n1

>  <score_type>  (42) 
oracle

>  <origin>  (42) 
autodockgpu

>  <m_score__min__energy>  (42) 
-8.8100000000000005

>  <m_primary>  (42) 
energy

>  <rmsd>  (42) 
2.9409365723939

>  <m_score__min__rmsd>  (42) 
2.9409365723939

>  <meeko>  (42) 
{"free_energy": -8.76, "intermolecular_energy": -10.26, "internal_energy": -1.04, "cluster_size": 35, "cluster_id": 1, "rank_in_cluster": 18}

>  <energy>  (42) 
-7.93

>  <cluster_rmsd>  (42) 
1.35

>  <cluster>  (42) 
2

$$$$

     RDKit          3D

 39 41  0  0  0  0  0  0  0  0999 V2000
  140.6540   78.1750  218.8370 N   0  0  0  0  0  0  0  0  0  0  0  0
  140.9810   78.4040  219.9400 C   0  0  0  0  0  0  0  0  0  0  0  0
  141.3770   78.7080  221.2930 C   0  0  0  0  0  0  0  0  0  0  0  0
  142.1470   79.8210  221.5150 C   0  0  0  0  0  0  0  0  0  0  0  0
  142.5790   80.2010  222.7680 C   0  0  0  0  0  0  0  0  0  0  0  0
  142.2030   79.4040  223.8230 C   0  0  0  0  0  0  0  0  0  0  0  0
  141.4240   78.2770  223.5940 C   0  0  0  0  0  0  0  0  0  0  0  0
  140.9960   77.8980  222.3670 C   0  0  0  0  0  0  0  0  0  0  0  0
  140.2060   76.7730  222.0530 N   0  0  0  0  0  0  0  0  0  0  0  0
  140.6830   75.5510  221.5220 C   0  0  0  0  0  0  0  0  0  0  0  0
  141.8820   75.3290  221.2670 O   0  0  0  0  0  0  0  0  0  0  0  0
  139.7250   74.4300  221.2330 C   0  0  0  0  0  0  0  0  0  0  0  0
  139.5840   73.5550  222.3580 N   0  0  0  0  0  0  0  0  0  0  0  0
  140.4350   72.4250  222.4680 C   0  0  0  0  0  0  0  0  0  0  0  0
  141.3190   72.1470  221.6170 O   0  0  0  0  0  0  0  0  0  0  0  0
  140.2560   71.5520  223.6420 C   0  0  0  0  0  0  0  0  0  0  0  0
  139.6160   70.3320  223.5410 C   0  0  0  0  0  0  0  0  0  0  0  0
  139.4540   69.5180  224.6620 C   0  0  0  0  0  0  0  0  0  0  0  0
  139.9270   69.9150  225.8930 C   0  0  0  0  0  0  0  0  0  0  0  0
  139.7940   69.1550  227.0180 C   0  0  0  0  0  0  0  0  0  0  0  0
  140.2830   69.5850  228.2480 C   0  0  0  0  0  0  0  0  0  0  0  0
  140.9190   70.8100  228.3150 C   0  0  0  0  0  0  0  0  0  0  0  0
  141.0490   71.5730  227.1720 C   0  0  0  0  0  0  0  0  0  0  0  0
  140.5610   71.1370  225.9630 C   0  0  0  0  0  0  0  0  0  0  0  0
  140.7030   71.8990  224.8630 N   0  0  0  0  0  0  0  0  0  0  0  0
  142.4336   80.4401  220.6521 H   0  0  0  0  0  0  0  0  0  0  0  0
  143.1956   81.0998  222.9165 H   0  0  0  0  0  0  0  0  0  0  0  0
  142.5182   79.6580  224.8458 H   0  0  0  0  0  0  0  0  0  0  0  0
  141.1391   77.6582  224.4576 H   0  0  0  0  0  0  0  0  0  0  0  0
  139.1580   76.8110  222.2160 H   0  0  0  0  0  0  0  0  0  0  0  0
  138.7412   74.8557  220.9861 H   0  0  0  0  0  0  0  0  0  0  0  0
  140.1226   73.8458  220.3900 H   0  0  0  0  0  0  0  0  0  0  0  0
  138.8660   73.7430  223.0920 H   0  0  0  0  0  0  0  0  0  0  0  0
  139.2301   69.9990  222.5663 H   0  0  0  0  0  0  0  0  0  0  0  0
  138.9432   68.5490  224.5618 H   0  0  0  0  0  0  0  0  0  0  0  0
  139.2888   68.1801  226.9515 H   0  0  0  0  0  0  0  0  0  0  0  0
  140.1657   68.9630  229.1477 H   0  0  0  0  0  0  0  0  0  0  0  0
  141.3190   71.1746  229.2726 H   0  0  0  0  0  0  0  0  0  0  0  0
  141.5530   72.5491  227.2297 H   0  0  0  0  0  0  0  0  0  0  0  0
  1  2  3  0
  2  3  1  0
  3  4  2  0
  4  5  1  0
  5  6  2  0
  6  7  1  0
  7  8  2  0
  8  9  1  0
  9 10  1  0
 10 11  2  0
 10 12  1  0
 12 13  1  0
 13 14  1  0
 14 15  2  0
 14 16  1  0
 16 17  2  0
 17 18  1  0
 18 19  2  0
 19 20  1  0
 20 21  2  0
 21 22  1  0
 22 23  2  0
 23 24  1  0
 24 25  2  0
  8  3  1  0
 25 16  1  0
 24 19  1  0
  4 26  1  0
  5 27  1  0
  6 28  1  0
  7 29  1  0
  9 30  1  0
 12 31  1  0
 12 32  1  0
 13 33  1  0
 17 34  1  0
 18 35  1  0
 20 36  1  0
 21 37  1  0
 22 38  1  0
 23 39  1  0
M  END
>  <smiles>  (43) 
N#Cc1ccccc1NC(=O)CNC(=O)c1ccc2ccccc2n1

>  <score_type>  (43) 
oracle

>  <origin>  (43) 
autodockgpu

>  <m_score__min__energy>  (43) 
-8.8100000000000005

>  <m_primary>  (43) 
energy

>  <rmsd>  (43) 
2.673542226165524

>  <m_score__min__rmsd>  (43) 
2.673542226165524

>  <meeko>  (43) 
{"free_energy": -8.29, "intermolecular_energy": -9.78, "internal_energy": -0.92, "cluster_size": 35, "cluster_id": 1, "rank_in_cluster": 30}

>  <energy>  (43) 
-7.93

>  <cluster_rmsd>  (43) 
1.35

>  <cluster>  (43) 
2

$$$$

     RDKit          3D

 39 41  0  0  0  0  0  0  0  0999 V2000
  141.8310   78.5950  218.6780 N   0  0  0  0  0  0  0  0  0  0  0  0
  141.7870   78.8690  219.8190 C   0  0  0  0  0  0  0  0  0  0  0  0
  141.7170   79.2210  221.2160 C   0  0  0  0  0  0  0  0  0  0  0  0
  141.8750   80.5370  221.5670 C   0  0  0  0  0  0  0  0  0  0  0  0
  141.8270   80.9800  222.8720 C   0  0  0  0  0  0  0  0  0  0  0  0
  141.6080   80.0310  223.8420 C   0  0  0  0  0  0  0  0  0  0  0  0
  141.4480   78.6990  223.4830 C   0  0  0  0  0  0  0  0  0  0  0  0
  141.4950   78.2580  222.2030 C   0  0  0  0  0  0  0  0  0  0  0  0
  141.3430   76.9280  221.7580 N   0  0  0  0  0  0  0  0  0  0  0  0
  140.1460   76.1740  221.8050 C   0  0  0  0  0  0  0  0  0  0  0  0
  139.0700   76.6100  222.2560 O   0  0  0  0  0  0  0  0  0  0  0  0
  140.1260   74.7610  221.2930 C   0  0  0  0  0  0  0  0  0  0  0  0
  139.8900   73.8220  222.3480 N   0  0  0  0  0  0  0  0  0  0  0  0
  140.5150   72.5490  222.2980 C   0  0  0  0  0  0  0  0  0  0  0  0
  141.2760   72.1970  221.3600 O   0  0  0  0  0  0  0  0  0  0  0  0
  140.2440   71.6160  223.4060 C   0  0  0  0  0  0  0  0  0  0  0  0
  139.6020   70.4110  223.1910 C   0  0  0  0  0  0  0  0  0  0  0  0
  139.3530   69.5390  224.2500 C   0  0  0  0  0  0  0  0  0  0  0  0
  139.7410   69.8610  225.5320 C   0  0  0  0  0  0  0  0  0  0  0  0
  139.5200   69.0420  226.6010 C   0  0  0  0  0  0  0  0  0  0  0  0
  139.9250   69.3970  227.8850 C   0  0  0  0  0  0  0  0  0  0  0  0
  140.5650   70.6080  228.0650 C   0  0  0  0  0  0  0  0  0  0  0  0
  140.7840   71.4310  226.9780 C   0  0  0  0  0  0  0  0  0  0  0  0
  140.3790   71.0690  225.7150 C   0  0  0  0  0  0  0  0  0  0  0  0
  140.6060   71.8890  224.6730 N   0  0  0  0  0  0  0  0  0  0  0  0
  142.0483   81.2746  220.7695 H   0  0  0  0  0  0  0  0  0  0  0  0
  141.9578   82.0425  223.1248 H   0  0  0  0  0  0  0  0  0  0  0  0
  141.5596   80.3260  224.9006 H   0  0  0  0  0  0  0  0  0  0  0  0
  141.2737   77.9623  224.2811 H   0  0  0  0  0  0  0  0  0  0  0  0
  142.1770   76.4190  221.3450 H   0  0  0  0  0  0  0  0  0  0  0  0
  139.3269   74.6641  220.5433 H   0  0  0  0  0  0  0  0  0  0  0  0
  141.1086   74.5414  220.8500 H   0  0  0  0  0  0  0  0  0  0  0  0
  139.2660   74.0680  223.1490 H   0  0  0  0  0  0  0  0  0  0  0  0
  139.2843   70.1372  222.1741 H   0  0  0  0  0  0  0  0  0  0  0  0
  138.8414   68.5840  224.0599 H   0  0  0  0  0  0  0  0  0  0  0  0
  139.0105   68.0797  226.4448 H   0  0  0  0  0  0  0  0  0  0  0  0
  139.7393   68.7275  228.7378 H   0  0  0  0  0  0  0  0  0  0  0  0
  140.8979   70.9146  229.0676 H   0  0  0  0  0  0  0  0  0  0  0  0
  141.2925   72.3952  227.1255 H   0  0  0  0  0  0  0  0  0  0  0  0
  1  2  3  0
  2  3  1  0
  3  4  2  0
  4  5  1  0
  5  6  2  0
  6  7  1  0
  7  8  2  0
  8  9  1  0
  9 10  1  0
 10 11  2  0
 10 12  1  0
 12 13  1  0
 13 14  1  0
 14 15  2  0
 14 16  1  0
 16 17  2  0
 17 18  1  0
 18 19  2  0
 19 20  1  0
 20 21  2  0
 21 22  1  0
 22 23  2  0
 23 24  1  0
 24 25  2  0
  8  3  1  0
 25 16  1  0
 24 19  1  0
  4 26  1  0
  5 27  1  0
  6 28  1  0
  7 29  1  0
  9 30  1  0
 12 31  1  0
 12 32  1  0
 13 33  1  0
 17 34  1  0
 18 35  1  0
 20 36  1  0
 21 37  1  0
 22 38  1  0
 23 39  1  0
M  END
>  <smiles>  (44) 
N#Cc1ccccc1NC(=O)CNC(=O)c1ccc2ccccc2n1

>  <score_type>  (44) 
oracle

>  <origin>  (44) 
autodockgpu

>  <m_score__min__energy>  (44) 
-8.8100000000000005

>  <m_primary>  (44) 
energy

>  <rmsd>  (44) 
2.9052589962079214

>  <m_score__min__rmsd>  (44) 
2.9052589962079214

>  <meeko>  (44) 
{"free_energy": -8.73, "intermolecular_energy": -10.22, "internal_energy": -1.03, "cluster_size": 35, "cluster_id": 1, "rank_in_cluster": 21}

>  <energy>  (44) 
-7.93

>  <cluster_rmsd>  (44) 
1.35

>  <cluster>  (44) 
2

$$$$

     RDKit          3D

 39 41  0  0  0  0  0  0  0  0999 V2000
  141.9080   78.2580  218.7150 N   0  0  0  0  0  0  0  0  0  0  0  0
  141.8150   78.5670  219.8440 C   0  0  0  0  0  0  0  0  0  0  0  0
  141.7120   78.9650  221.2260 C   0  0  0  0  0  0  0  0  0  0  0  0
  141.8700   80.2900  221.5380 C   0  0  0  0  0  0  0  0  0  0  0  0
  141.7920   80.7760  222.8270 C   0  0  0  0  0  0  0  0  0  0  0  0
  141.5420   79.8600  223.8220 C   0  0  0  0  0  0  0  0  0  0  0  0
  141.3830   78.5180  223.5010 C   0  0  0  0  0  0  0  0  0  0  0  0
  141.4590   78.0350  222.2380 C   0  0  0  0  0  0  0  0  0  0  0  0
  141.3090   76.6930  221.8330 N   0  0  0  0  0  0  0  0  0  0  0  0
  140.0790   76.0160  221.6580 C   0  0  0  0  0  0  0  0  0  0  0  0
  138.9660   76.5420  221.8480 O   0  0  0  0  0  0  0  0  0  0  0  0
  140.0660   74.5780  221.2200 C   0  0  0  0  0  0  0  0  0  0  0  0
  139.8460   73.6940  222.3230 N   0  0  0  0  0  0  0  0  0  0  0  0
  140.5410   72.4570  222.3710 C   0  0  0  0  0  0  0  0  0  0  0  0
  141.3510   72.0920  221.4790 O   0  0  0  0  0  0  0  0  0  0  0  0
  140.2850   71.5780  223.5250 C   0  0  0  0  0  0  0  0  0  0  0  0
  139.6190   70.3750  223.3810 C   0  0  0  0  0  0  0  0  0  0  0  0
  139.3850   69.5560  224.4840 C   0  0  0  0  0  0  0  0  0  0  0  0
  139.8110   69.9280  225.7410 C   0  0  0  0  0  0  0  0  0  0  0  0
  139.6050   69.1610  226.8500 C   0  0  0  0  0  0  0  0  0  0  0  0
  140.0480   69.5660  228.1060 C   0  0  0  0  0  0  0  0  0  0  0  0
  140.7100   70.7740  228.2150 C   0  0  0  0  0  0  0  0  0  0  0  0
  140.9130   71.5440  227.0880 C   0  0  0  0  0  0  0  0  0  0  0  0
  140.4710   71.1330  225.8530 C   0  0  0  0  0  0  0  0  0  0  0  0
  140.6830   71.9020  224.7690 N   0  0  0  0  0  0  0  0  0  0  0  0
  142.0685   81.0001  220.7217 H   0  0  0  0  0  0  0  0  0  0  0  0
  141.9236   81.8454  223.0483 H   0  0  0  0  0  0  0  0  0  0  0  0
  141.4682   80.1892  224.8690 H   0  0  0  0  0  0  0  0  0  0  0  0
  141.1844   77.8083  224.3177 H   0  0  0  0  0  0  0  0  0  0  0  0
  142.1730   76.1100  221.6320 H   0  0  0  0  0  0  0  0  0  0  0  0
  139.2617   74.4365  220.4830 H   0  0  0  0  0  0  0  0  0  0  0  0
  141.0467   74.3430  220.7808 H   0  0  0  0  0  0  0  0  0  0  0  0
  139.1840   73.9510  223.0880 H   0  0  0  0  0  0  0  0  0  0  0  0
  139.2704   70.0612  222.3860 H   0  0  0  0  0  0  0  0  0  0  0  0
  138.8543   68.6019  224.3500 H   0  0  0  0  0  0  0  0  0  0  0  0
  139.0771   68.2012  226.7496 H   0  0  0  0  0  0  0  0  0  0  0  0
  139.8748   68.9381  228.9924 H   0  0  0  0  0  0  0  0  0  0  0  0
  141.0730   71.1197  229.1941 H   0  0  0  0  0  0  0  0  0  0  0  0
  141.4389   72.5058  227.1797 H   0  0  0  0  0  0  0  0  0  0  0  0
  1  2  3  0
  2  3  1  0
  3  4  2  0
  4  5  1  0
  5  6  2  0
  6  7  1  0
  7  8  2  0
  8  9  1  0
  9 10  1  0
 10 11  2  0
 10 12  1  0
 12 13  1  0
 13 14  1  0
 14 15  2  0
 14 16  1  0
 16 17  2  0
 17 18  1  0
 18 19  2  0
 19 20  1  0
 20 21  2  0
 21 22  1  0
 22 23  2  0
 23 24  1  0
 24 25  2  0
  8  3  1  0
 25 16  1  0
 24 19  1  0
  4 26  1  0
  5 27  1  0
  6 28  1  0
  7 29  1  0
  9 30  1  0
 12 31  1  0
 12 32  1  0
 13 33  1  0
 17 34  1  0
 18 35  1  0
 20 36  1  0
 21 37  1  0
 22 38  1  0
 23 39  1  0
M  END
>  <smiles>  (45) 
N#Cc1ccccc1NC(=O)CNC(=O)c1ccc2ccccc2n1

>  <score_type>  (45) 
oracle

>  <origin>  (45) 
autodockgpu

>  <m_score__min__energy>  (45) 
-8.8100000000000005

>  <m_primary>  (45) 
energy

>  <rmsd>  (45) 
2.8140612464604016

>  <m_score__min__rmsd>  (45) 
2.8140612464604016

>  <meeko>  (45) 
{"free_energy": -8.78, "intermolecular_energy": -10.27, "internal_energy": -0.98, "cluster_size": 35, "cluster_id": 1, "rank_in_cluster": 15}

>  <energy>  (45) 
-7.92

>  <cluster_rmsd>  (45) 
1.44

>  <cluster>  (45) 
2

$$$$

     RDKit          3D

 39 41  0  0  0  0  0  0  0  0999 V2000
  141.8150   78.7720  218.6310 N   0  0  0  0  0  0  0  0  0  0  0  0
  141.7900   79.0270  219.7760 C   0  0  0  0  0  0  0  0  0  0  0  0
  141.7400   79.3300  221.1860 C   0  0  0  0  0  0  0  0  0  0  0  0
  141.8960   80.6340  221.5800 C   0  0  0  0  0  0  0  0  0  0  0  0
  141.8650   81.0310  222.9000 C   0  0  0  0  0  0  0  0  0  0  0  0
  141.6670   80.0480  223.8400 C   0  0  0  0  0  0  0  0  0  0  0  0
  141.5100   78.7280  223.4370 C   0  0  0  0  0  0  0  0  0  0  0  0
  141.5390   78.3320  222.1420 C   0  0  0  0  0  0  0  0  0  0  0  0
  141.3870   77.0170  221.6530 N   0  0  0  0  0  0  0  0  0  0  0  0
  140.3120   76.1460  221.9470 C   0  0  0  0  0  0  0  0  0  0  0  0
  139.3570   76.4510  222.6880 O   0  0  0  0  0  0  0  0  0  0  0  0
  140.2770   74.7660  221.3550 C   0  0  0  0  0  0  0  0  0  0  0  0
  139.9560   73.7780  222.3400 N   0  0  0  0  0  0  0  0  0  0  0  0
  140.6870   72.5620  222.3680 C   0  0  0  0  0  0  0  0  0  0  0  0
  141.6150   72.3020  221.5590 O   0  0  0  0  0  0  0  0  0  0  0  0
  140.3230   71.5750  223.4000 C   0  0  0  0  0  0  0  0  0  0  0  0
  139.5800   70.4510  223.0910 C   0  0  0  0  0  0  0  0  0  0  0  0
  139.2440   69.5270  224.0800 C   0  0  0  0  0  0  0  0  0  0  0  0
  139.6450   69.7150  225.3840 C   0  0  0  0  0  0  0  0  0  0  0  0
  139.3420   68.8400  226.3860 C   0  0  0  0  0  0  0  0  0  0  0  0
  139.7630   69.0590  227.6950 C   0  0  0  0  0  0  0  0  0  0  0  0
  140.5060   70.1920  227.9690 C   0  0  0  0  0  0  0  0  0  0  0  0
  140.8080   71.0720  226.9500 C   0  0  0  0  0  0  0  0  0  0  0  0
  140.3860   70.8440  225.6610 C   0  0  0  0  0  0  0  0  0  0  0  0
  140.6950   71.7180  224.6850 N   0  0  0  0  0  0  0  0  0  0  0  0
  142.0533   81.3998  220.8062 H   0  0  0  0  0  0  0  0  0  0  0  0
  141.9928   82.0851  223.1874 H   0  0  0  0  0  0  0  0  0  0  0  0
  141.6330   80.3060  224.9088 H   0  0  0  0  0  0  0  0  0  0  0  0
  141.3536   77.9628  224.2116 H   0  0  0  0  0  0  0  0  0  0  0  0
  142.1250   76.6150  221.0060 H   0  0  0  0  0  0  0  0  0  0  0  0
  139.5171   74.7377  220.5602 H   0  0  0  0  0  0  0  0  0  0  0  0
  141.2752   74.5389  220.9525 H   0  0  0  0  0  0  0  0  0  0  0  0
  139.1940   73.9460  223.0340 H   0  0  0  0  0  0  0  0  0  0  0  0
  139.2506   70.2838  222.0549 H   0  0  0  0  0  0  0  0  0  0  0  0
  138.6522   68.6383  223.8156 H   0  0  0  0  0  0  0  0  0  0  0  0
  138.7517   67.9411  226.1545 H   0  0  0  0  0  0  0  0  0  0  0  0
  139.5099   68.3461  228.4936 H   0  0  0  0  0  0  0  0  0  0  0  0
  140.8544   70.3909  228.9932 H   0  0  0  0  0  0  0  0  0  0  0  0
  141.3977   71.9734  227.1729 H   0  0  0  0  0  0  0  0  0  0  0  0
  1  2  3  0
  2  3  1  0
  3  4  2  0
  4  5  1  0
  5  6  2  0
  6  7  1  0
  7  8  2  0
  8  9  1  0
  9 10  1  0
 10 11  2  0
 10 12  1  0
 12 13  1  0
 13 14  1  0
 14 15  2  0
 14 16  1  0
 16 17  2  0
 17 18  1  0
 18 19  2  0
 19 20  1  0
 20 21  2  0
 21 22  1  0
 22 23  2  0
 23 24  1  0
 24 25  2  0
  8  3  1  0
 25 16  1  0
 24 19  1  0
  4 26  1  0
  5 27  1  0
  6 28  1  0
  7 29  1  0
  9 30  1  0
 12 31  1  0
 12 32  1  0
 13 33  1  0
 17 34  1  0
 18 35  1  0
 20 36  1  0
 21 37  1  0
 22 38  1  0
 23 39  1  0
M  END
>  <smiles>  (46) 
N#Cc1ccccc1NC(=O)CNC(=O)c1ccc2ccccc2n1

>  <score_type>  (46) 
oracle

>  <origin>  (46) 
autodockgpu

>  <m_score__min__energy>  (46) 
-8.8100000000000005

>  <m_primary>  (46) 
energy

>  <rmsd>  (46) 
2.9673786983748047

>  <m_score__min__rmsd>  (46) 
2.9673786983748047

>  <meeko>  (46) 
{"free_energy": -8.58, "intermolecular_energy": -10.07, "internal_energy": -1.11, "cluster_size": 35, "cluster_id": 1, "rank_in_cluster": 25}

>  <energy>  (46) 
-7.83

>  <cluster_rmsd>  (46) 
1.47

>  <cluster>  (46) 
2

$$$$

     RDKit          3D

 39 41  0  0  0  0  0  0  0  0999 V2000
  141.8540   78.6320  218.6650 N   0  0  0  0  0  0  0  0  0  0  0  0
  141.8170   78.9190  219.8020 C   0  0  0  0  0  0  0  0  0  0  0  0
  141.7550   79.2570  221.2030 C   0  0  0  0  0  0  0  0  0  0  0  0
  141.9190   80.5680  221.5670 C   0  0  0  0  0  0  0  0  0  0  0  0
  141.8770   80.9980  222.8760 C   0  0  0  0  0  0  0  0  0  0  0  0
  141.6590   80.0410  223.8380 C   0  0  0  0  0  0  0  0  0  0  0  0
  141.4940   78.7130  223.4660 C   0  0  0  0  0  0  0  0  0  0  0  0
  141.5340   78.2840  222.1820 C   0  0  0  0  0  0  0  0  0  0  0  0
  141.3750   76.9600  221.7240 N   0  0  0  0  0  0  0  0  0  0  0  0
  140.1930   76.1890  221.8210 C   0  0  0  0  0  0  0  0  0  0  0  0
  139.1360   76.6040  222.3340 O   0  0  0  0  0  0  0  0  0  0  0  0
  140.1630   74.7840  221.2890 C   0  0  0  0  0  0  0  0  0  0  0  0
  139.9040   73.8330  222.3270 N   0  0  0  0  0  0  0  0  0  0  0  0
  140.6110   72.6020  222.3340 C   0  0  0  0  0  0  0  0  0  0  0  0
  141.4660   72.2990  221.4620 O   0  0  0  0  0  0  0  0  0  0  0  0
  140.3130   71.6540  223.4220 C   0  0  0  0  0  0  0  0  0  0  0  0
  139.6380   70.4720  223.1820 C   0  0  0  0  0  0  0  0  0  0  0  0
  139.3640   69.5860  224.2230 C   0  0  0  0  0  0  0  0  0  0  0  0
  139.7580   69.8710  225.5110 C   0  0  0  0  0  0  0  0  0  0  0  0
  139.5140   69.0370  226.5630 C   0  0  0  0  0  0  0  0  0  0  0  0
  139.9260   69.3530  227.8540 C   0  0  0  0  0  0  0  0  0  0  0  0
  140.5990   70.5420  228.0590 C   0  0  0  0  0  0  0  0  0  0  0  0
  140.8430   71.3810  226.9900 C   0  0  0  0  0  0  0  0  0  0  0  0
  140.4300   71.0570  225.7200 C   0  0  0  0  0  0  0  0  0  0  0  0
  140.6800   71.8910  224.6940 N   0  0  0  0  0  0  0  0  0  0  0  0
  142.0925   81.3130  220.7765 H   0  0  0  0  0  0  0  0  0  0  0  0
  142.0117   82.0577  223.1384 H   0  0  0  0  0  0  0  0  0  0  0  0
  141.6153   80.3259  224.8996 H   0  0  0  0  0  0  0  0  0  0  0  0
  141.3214   77.9690  224.2576 H   0  0  0  0  0  0  0  0  0  0  0  0
  142.1930   76.4680  221.2600 H   0  0  0  0  0  0  0  0  0  0  0  0
  139.3718   74.7070  220.5287 H   0  0  0  0  0  0  0  0  0  0  0  0
  141.1483   74.5594  220.8546 H   0  0  0  0  0  0  0  0  0  0  0  0
  139.2040   74.0380  223.0740 H   0  0  0  0  0  0  0  0  0  0  0  0
  139.3138   70.2279  222.1596 H   0  0  0  0  0  0  0  0  0  0  0  0
  138.8272   68.6491  224.0130 H   0  0  0  0  0  0  0  0  0  0  0  0
  138.9789   68.0923  226.3863 H   0  0  0  0  0  0  0  0  0  0  0  0
  139.7204   68.6714  228.6925 H   0  0  0  0  0  0  0  0  0  0  0  0
  140.9385   70.8186  229.0681 H   0  0  0  0  0  0  0  0  0  0  0  0
  141.3784   72.3271  227.1581 H   0  0  0  0  0  0  0  0  0  0  0  0
  1  2  3  0
  2  3  1  0
  3  4  2  0
  4  5  1  0
  5  6  2  0
  6  7  1  0
  7  8  2  0
  8  9  1  0
  9 10  1  0
 10 11  2  0
 10 12  1  0
 12 13  1  0
 13 14  1  0
 14 15  2  0
 14 16  1  0
 16 17  2  0
 17 18  1  0
 18 19  2  0
 19 20  1  0
 20 21  2  0
 21 22  1  0
 22 23  2  0
 23 24  1  0
 24 25  2  0
  8  3  1  0
 25 16  1  0
 24 19  1  0
  4 26  1  0
  5 27  1  0
  6 28  1  0
  7 29  1  0
  9 30  1  0
 12 31  1  0
 12 32  1  0
 13 33  1  0
 17 34  1  0
 18 35  1  0
 20 36  1  0
 21 37  1  0
 22 38  1  0
 23 39  1  0
M  END
>  <smiles>  (47) 
N#Cc1ccccc1NC(=O)CNC(=O)c1ccc2ccccc2n1

>  <score_type>  (47) 
oracle

>  <origin>  (47) 
autodockgpu

>  <m_score__min__energy>  (47) 
-8.8100000000000005

>  <m_primary>  (47) 
energy

>  <rmsd>  (47) 
2.9363575144869287

>  <m_score__min__rmsd>  (47) 
2.9363575144869287

>  <meeko>  (47) 
{"free_energy": -8.79, "intermolecular_energy": -10.28, "internal_energy": -1.03, "cluster_size": 35, "cluster_id": 1, "rank_in_cluster": 10}

>  <energy>  (47) 
-7.79

>  <cluster_rmsd>  (47) 
1.26

>  <cluster>  (47) 
2

$$$$

     RDKit          3D

 39 41  0  0  0  0  0  0  0  0999 V2000
  141.8570   78.6080  218.6560 N   0  0  0  0  0  0  0  0  0  0  0  0
  141.8070   78.9000  219.7920 C   0  0  0  0  0  0  0  0  0  0  0  0
  141.7530   79.2390  221.1930 C   0  0  0  0  0  0  0  0  0  0  0  0
  141.9210   80.5510  221.5540 C   0  0  0  0  0  0  0  0  0  0  0  0
  141.8870   80.9820  222.8640 C   0  0  0  0  0  0  0  0  0  0  0  0
  141.6730   80.0250  223.8280 C   0  0  0  0  0  0  0  0  0  0  0  0
  141.5040   78.6970  223.4570 C   0  0  0  0  0  0  0  0  0  0  0  0
  141.5350   78.2680  222.1730 C   0  0  0  0  0  0  0  0  0  0  0  0
  141.3720   76.9430  221.7170 N   0  0  0  0  0  0  0  0  0  0  0  0
  140.1910   76.1720  221.8270 C   0  0  0  0  0  0  0  0  0  0  0  0
  139.1400   76.5860  222.3520 O   0  0  0  0  0  0  0  0  0  0  0  0
  140.1570   74.7660  221.2960 C   0  0  0  0  0  0  0  0  0  0  0  0
  139.8810   73.8180  222.3320 N   0  0  0  0  0  0  0  0  0  0  0  0
  140.6220   72.6090  222.3810 C   0  0  0  0  0  0  0  0  0  0  0  0
  141.5210   72.3220  221.5480 O   0  0  0  0  0  0  0  0  0  0  0  0
  140.3050   71.6630  223.4650 C   0  0  0  0  0  0  0  0  0  0  0  0
  139.5990   70.5000  223.2220 C   0  0  0  0  0  0  0  0  0  0  0  0
  139.3080   69.6150  224.2600 C   0  0  0  0  0  0  0  0  0  0  0  0
  139.7160   69.8820  225.5480 C   0  0  0  0  0  0  0  0  0  0  0  0
  139.4560   69.0480  226.5960 C   0  0  0  0  0  0  0  0  0  0  0  0
  139.8830   69.3470  227.8860 C   0  0  0  0  0  0  0  0  0  0  0  0
  140.5870   70.5180  228.0950 C   0  0  0  0  0  0  0  0  0  0  0  0
  140.8460   71.3560  227.0290 C   0  0  0  0  0  0  0  0  0  0  0  0
  140.4190   71.0490  225.7590 C   0  0  0  0  0  0  0  0  0  0  0  0
  140.6850   71.8830  224.7370 N   0  0  0  0  0  0  0  0  0  0  0  0
  142.0909   81.2949  220.7617 H   0  0  0  0  0  0  0  0  0  0  0  0
  142.0246   82.0416  223.1252 H   0  0  0  0  0  0  0  0  0  0  0  0
  141.6358   80.3102  224.8897 H   0  0  0  0  0  0  0  0  0  0  0  0
  141.3358   77.9532  224.2497 H   0  0  0  0  0  0  0  0  0  0  0  0
  142.1860   76.4520  221.2450 H   0  0  0  0  0  0  0  0  0  0  0  0
  139.3731   74.6935  220.5277 H   0  0  0  0  0  0  0  0  0  0  0  0
  141.1453   74.5344  220.8721 H   0  0  0  0  0  0  0  0  0  0  0  0
  139.1450   74.0100  223.0470 H   0  0  0  0  0  0  0  0  0  0  0  0
  139.2633   70.2701  222.2000 H   0  0  0  0  0  0  0  0  0  0  0  0
  138.7463   68.6934  224.0475 H   0  0  0  0  0  0  0  0  0  0  0  0
  138.8961   68.1182  226.4170 H   0  0  0  0  0  0  0  0  0  0  0  0
  139.6649   68.6659  228.7218 H   0  0  0  0  0  0  0  0  0  0  0  0
  140.9385   70.7803  229.1038 H   0  0  0  0  0  0  0  0  0  0  0  0
  141.4051   72.2879  227.1993 H   0  0  0  0  0  0  0  0  0  0  0  0
  1  2  3  0
  2  3  1  0
  3  4  2  0
  4  5  1  0
  5  6  2  0
  6  7  1  0
  7  8  2  0
  8  9  1  0
  9 10  1  0
 10 11  2  0
 10 12  1  0
 12 13  1  0
 13 14  1  0
 14 15  2  0
 14 16  1  0
 16 17  2  0
 17 18  1  0
 18 19  2  0
 19 20  1  0
 20 21  2  0
 21 22  1  0
 22 23  2  0
 23 24  1  0
 24 25  2  0
  8  3  1  0
 25 16  1  0
 24 19  1  0
  4 26  1  0
  5 27  1  0
  6 28  1  0
  7 29  1  0
  9 30  1  0
 12 31  1  0
 12 32  1  0
 13 33  1  0
 17 34  1  0
 18 35  1  0
 20 36  1  0
 21 37  1  0
 22 38  1  0
 23 39  1  0
M  END
>  <smiles>  (48) 
N#Cc1ccccc1NC(=O)CNC(=O)c1ccc2ccccc2n1

>  <score_type>  (48) 
oracle

>  <origin>  (48) 
autodockgpu

>  <m_score__min__energy>  (48) 
-8.8100000000000005

>  <m_primary>  (48) 
energy

>  <rmsd>  (48) 
2.9319316688710586

>  <m_score__min__rmsd>  (48) 
2.9319316688710586

>  <meeko>  (48) 
{"free_energy": -8.8, "intermolecular_energy": -10.29, "internal_energy": -1.03, "cluster_size": 35, "cluster_id": 1, "rank_in_cluster": 5}

>  <energy>  (48) 
-7.76

>  <cluster_rmsd>  (48) 
1.26

>  <cluster>  (48) 
2

$$$$

     RDKit          3D

 39 41  0  0  0  0  0  0  0  0999 V2000
  141.8150   78.6930  218.6470 N   0  0  0  0  0  0  0  0  0  0  0  0
  141.8010   78.9520  219.7920 C   0  0  0  0  0  0  0  0  0  0  0  0
  141.7650   79.2800  221.1950 C   0  0  0  0  0  0  0  0  0  0  0  0
  141.9420   80.5870  221.5660 C   0  0  0  0  0  0  0  0  0  0  0  0
  141.9250   81.0080  222.8790 C   0  0  0  0  0  0  0  0  0  0  0  0
  141.7190   80.0440  223.8380 C   0  0  0  0  0  0  0  0  0  0  0  0
  141.5400   78.7200  223.4580 C   0  0  0  0  0  0  0  0  0  0  0  0
  141.5550   78.3010  222.1710 C   0  0  0  0  0  0  0  0  0  0  0  0
  141.3810   76.9810  221.7060 N   0  0  0  0  0  0  0  0  0  0  0  0
  140.2140   76.1970  221.8640 C   0  0  0  0  0  0  0  0  0  0  0  0
  139.1860   76.5950  222.4450 O   0  0  0  0  0  0  0  0  0  0  0  0
  140.1660   74.7980  221.3160 C   0  0  0  0  0  0  0  0  0  0  0  0
  139.8900   73.8400  222.3430 N   0  0  0  0  0  0  0  0  0  0  0  0
  140.6510   72.6430  222.3980 C   0  0  0  0  0  0  0  0  0  0  0  0
  141.5680   72.3760  221.5790 O   0  0  0  0  0  0  0  0  0  0  0  0
  140.3340   71.6860  223.4730 C   0  0  0  0  0  0  0  0  0  0  0  0
  139.6370   70.5200  223.2160 C   0  0  0  0  0  0  0  0  0  0  0  0
  139.3450   69.6250  224.2440 C   0  0  0  0  0  0  0  0  0  0  0  0
  139.7440   69.8840  225.5370 C   0  0  0  0  0  0  0  0  0  0  0  0
  139.4820   69.0400  226.5760 C   0  0  0  0  0  0  0  0  0  0  0  0
  139.9000   69.3310  227.8720 C   0  0  0  0  0  0  0  0  0  0  0  0
  140.5950   70.5040  228.0940 C   0  0  0  0  0  0  0  0  0  0  0  0
  140.8550   71.3530  227.0370 C   0  0  0  0  0  0  0  0  0  0  0  0
  140.4380   71.0540  225.7620 C   0  0  0  0  0  0  0  0  0  0  0  0
  140.7050   71.8980  224.7490 N   0  0  0  0  0  0  0  0  0  0  0  0
  142.1056   81.3370  220.7781 H   0  0  0  0  0  0  0  0  0  0  0  0
  142.0694   82.0651  223.1467 H   0  0  0  0  0  0  0  0  0  0  0  0
  141.6961   80.3205  224.9024 H   0  0  0  0  0  0  0  0  0  0  0  0
  141.3770   77.9706  224.2466 H   0  0  0  0  0  0  0  0  0  0  0  0
  142.1740   76.5030  221.1870 H   0  0  0  0  0  0  0  0  0  0  0  0
  139.3764   74.7404  220.5523 H   0  0  0  0  0  0  0  0  0  0  0  0
  141.1493   74.5641  220.8820 H   0  0  0  0  0  0  0  0  0  0  0  0
  139.1390   74.0150  223.0470 H   0  0  0  0  0  0  0  0  0  0  0  0
  139.3096   70.2963  222.1900 H   0  0  0  0  0  0  0  0  0  0  0  0
  138.7900   68.7020  224.0205 H   0  0  0  0  0  0  0  0  0  0  0  0
  138.9282   68.1088  226.3859 H   0  0  0  0  0  0  0  0  0  0  0  0
  139.6815   68.6418  228.7010 H   0  0  0  0  0  0  0  0  0  0  0  0
  140.9392   70.7600  229.1069 H   0  0  0  0  0  0  0  0  0  0  0  0
  141.4067   72.2871  227.2188 H   0  0  0  0  0  0  0  0  0  0  0  0
  1  2  3  0
  2  3  1  0
  3  4  2  0
  4  5  1  0
  5  6  2  0
  6  7  1  0
  7  8  2  0
  8  9  1  0
  9 10  1  0
 10 11  2  0
 10 12  1  0
 12 13  1  0
 13 14  1  0
 14 15  2  0
 14 16  1  0
 16 17  2  0
 17 18  1  0
 18 19  2  0
 19 20  1  0
 20 21  2  0
 21 22  1  0
 22 23  2  0
 23 24  1  0
 24 25  2  0
  8  3  1  0
 25 16  1  0
 24 19  1  0
  4 26  1  0
  5 27  1  0
  6 28  1  0
  7 29  1  0
  9 30  1  0
 12 31  1  0
 12 32  1  0
 13 33  1  0
 17 34  1  0
 18 35  1  0
 20 36  1  0
 21 37  1  0
 22 38  1  0
 23 39  1  0
M  END
>  <smiles>  (49) 
N#Cc1ccccc1NC(=O)CNC(=O)c1ccc2ccccc2n1

>  <score_type>  (49) 
oracle

>  <origin>  (49) 
autodockgpu

>  <m_score__min__energy>  (49) 
-8.8100000000000005

>  <m_primary>  (49) 
energy

>  <rmsd>  (49) 
2.956197783000905

>  <m_score__min__rmsd>  (49) 
2.956197783000905

>  <meeko>  (49) 
{"free_energy": -8.76, "intermolecular_energy": -10.25, "internal_energy": -1.03, "cluster_size": 35, "cluster_id": 1, "rank_in_cluster": 19}

>  <energy>  (49) 
-7.68

>  <cluster_rmsd>  (49) 
1.17

>  <cluster>  (49) 
2

$$$$

     RDKit          3D

 39 41  0  0  0  0  0  0  0  0999 V2000
  139.2030   67.4060  224.6250 N   0  0  0  0  0  0  0  0  0  0  0  0
  139.6080   68.2090  225.3800 C   0  0  0  0  0  0  0  0  0  0  0  0
  140.1260   69.1880  226.3030 C   0  0  0  0  0  0  0  0  0  0  0  0
  140.5860   68.7580  227.5210 C   0  0  0  0  0  0  0  0  0  0  0  0
  141.1010   69.6090  228.4760 C   0  0  0  0  0  0  0  0  0  0  0  0
  141.1400   70.9470  228.1600 C   0  0  0  0  0  0  0  0  0  0  0  0
  140.6720   71.3780  226.9250 C   0  0  0  0  0  0  0  0  0  0  0  0
  140.1650   70.5470  225.9830 C   0  0  0  0  0  0  0  0  0  0  0  0
  139.6720   70.9060  224.7110 N   0  0  0  0  0  0  0  0  0  0  0  0
  138.3440   70.7250  224.2600 C   0  0  0  0  0  0  0  0  0  0  0  0
  137.4410   70.2160  224.9520 O   0  0  0  0  0  0  0  0  0  0  0  0
  137.9530   71.1540  222.8740 C   0  0  0  0  0  0  0  0  0  0  0  0
  138.5150   72.4280  222.5400 N   0  0  0  0  0  0  0  0  0  0  0  0
  139.8330   72.4910  222.0200 C   0  0  0  0  0  0  0  0  0  0  0  0
  140.5460   71.4700  221.8350 O   0  0  0  0  0  0  0  0  0  0  0  0
  140.3700   73.8230  221.6890 C   0  0  0  0  0  0  0  0  0  0  0  0
  141.4160   73.9770  220.7990 C   0  0  0  0  0  0  0  0  0  0  0  0
  141.9120   75.2440  220.4970 C   0  0  0  0  0  0  0  0  0  0  0  0
  141.3720   76.3690  221.0810 C   0  0  0  0  0  0  0  0  0  0  0  0
  141.8220   77.6290  220.8190 C   0  0  0  0  0  0  0  0  0  0  0  0
  141.2540   78.7460  221.4250 C   0  0  0  0  0  0  0  0  0  0  0  0
  140.2100   78.5570  222.3100 C   0  0  0  0  0  0  0  0  0  0  0  0
  139.7600   77.2780  222.5710 C   0  0  0  0  0  0  0  0  0  0  0  0
  140.3300   76.1830  221.9650 C   0  0  0  0  0  0  0  0  0  0  0  0
  139.8720   74.9470  222.2350 N   0  0  0  0  0  0  0  0  0  0  0  0
  140.5421   67.6824  227.7472 H   0  0  0  0  0  0  0  0  0  0  0  0
  141.4636   69.2353  229.4450 H   0  0  0  0  0  0  0  0  0  0  0  0
  141.5404   71.6733  228.8826 H   0  0  0  0  0  0  0  0  0  0  0  0
  140.7156   72.4538  226.6996 H   0  0  0  0  0  0  0  0  0  0  0  0
  140.3270   71.3540  224.0070 H   0  0  0  0  0  0  0  0  0  0  0  0
  138.3127   70.4048  222.1533 H   0  0  0  0  0  0  0  0  0  0  0  0
  136.8570   71.2400  222.8360 H   0  0  0  0  0  0  0  0  0  0  0  0
  137.9630   73.3050  222.6760 H   0  0  0  0  0  0  0  0  0  0  0  0
  141.8617   73.0905  220.3241 H   0  0  0  0  0  0  0  0  0  0  0  0
  142.7438   75.3469  219.7845 H   0  0  0  0  0  0  0  0  0  0  0  0
  142.6535   77.7661  220.1121 H   0  0  0  0  0  0  0  0  0  0  0  0
  141.6280   79.7566  221.2042 H   0  0  0  0  0  0  0  0  0  0  0  0
  139.7401   79.4204  222.8038 H   0  0  0  0  0  0  0  0  0  0  0  0
  138.9295   77.1321  223.2773 H   0  0  0  0  0  0  0  0  0  0  0  0
  1  2  3  0
  2  3  1  0
  3  4  2  0
  4  5  1  0
  5  6  2  0
  6  7  1  0
  7  8  2  0
  8  9  1  0
  9 10  1  0
 10 11  2  0
 10 12  1  0
 12 13  1  0
 13 14  1  0
 14 15  2  0
 14 16  1  0
 16 17  2  0
 17 18  1  0
 18 19  2  0
 19 20  1  0
 20 21  2  0
 21 22  1  0
 22 23  2  0
 23 24  1  0
 24 25  2  0
  8  3  1  0
 25 16  1  0
 24 19  1  0
  4 26  1  0
  5 27  1  0
  6 28  1  0
  7 29  1  0
  9 30  1  0
 12 31  1  0
 12 32  1  0
 13 33  1  0
 17 34  1  0
 18 35  1  0
 20 36  1  0
 21 37  1  0
 22 38  1  0
 23 39  1  0
M  END
>  <smiles>  (50) 
N#Cc1ccccc1NC(=O)CNC(=O)c1ccc2ccccc2n1

>  <score_type>  (50) 
oracle

>  <origin>  (50) 
autodockgpu

>  <m_score__min__energy>  (50) 
-8.8100000000000005

>  <m_primary>  (50) 
energy

>  <rmsd>  (50) 
8.26306364460994

>  <m_score__min__rmsd>  (50) 
8.26306364460994

>  <meeko>  (50) 
{"free_energy": -7.95, "intermolecular_energy": -9.44, "internal_energy": -1.78, "cluster_size": 15, "cluster_id": 2, "rank_in_cluster": 4}

>  <energy>  (50) 
-7.64

>  <cluster_rmsd>  (50) 
1.22

>  <cluster>  (50) 
2

$$$$
