
     RDKit          3D

 50 53  0  0  0  0  0  0  0  0999 V2000
  139.6680   74.1260  222.2150 O   0  0  0  0  0  0  0  0  0  0  0  0
  140.2600   73.0370  222.0880 C   0  0  0  0  0  0  0  0  0  0  0  0
  141.0020   72.7430  220.9070 N   0  0  0  0  0  0  0  0  0  0  0  0
  141.0510   73.7350  219.8670 C   0  0  0  0  0  0  0  0  0  0  0  0
  142.3580   74.4700  219.8650 C   0  0  0  0  0  0  0  0  0  0  0  0
  143.3600   74.0060  220.4890 O   0  0  0  0  0  0  0  0  0  0  0  0
  142.4260   75.6940  219.1420 N   0  0  0  0  0  0  0  0  0  0  0  0
  142.3430   75.8780  217.6840 C   0  0  0  0  0  0  0  0  0  0  0  0
  142.1140   77.3430  217.4870 C   0  0  2  0  0  0  0  0  0  0  0  0
  142.6740   77.6810  216.2540 O   0  0  0  0  0  0  0  0  0  0  0  0
  142.9490   77.9170  218.6360 C   0  0  0  0  0  0  0  0  0  0  0  0
  142.5950   76.9920  219.7590 C   0  0  1  0  0  0  0  0  0  0  0  0
  141.2590   77.3440  220.3790 C   0  0  0  0  0  0  0  0  0  0  0  0
  141.3720   78.1600  221.5610 N   0  0  0  0  0  0  0  0  0  0  0  0
  140.6850   77.9710  222.7010 C   0  0  0  0  0  0  0  0  0  0  0  0
  141.0830   78.9580  223.5740 C   0  0  0  0  0  0  0  0  0  0  0  0
  142.0300   79.7720  222.9720 C   0  0  0  0  0  0  0  0  0  0  0  0
  142.1870   79.2370  221.7010 C   0  0  0  0  0  0  0  0  0  0  0  0
  140.2180   72.0150  223.1440 C   0  0  0  0  0  0  0  0  0  0  0  0
  139.6940   70.7580  222.8620 C   0  0  0  0  0  0  0  0  0  0  0  0
  139.6310   69.7670  223.8120 C   0  0  0  0  0  0  0  0  0  0  0  0
  140.1010   70.0430  225.0690 C   0  0  0  0  0  0  0  0  0  0  0  0
  140.0880   69.1240  226.1040 C   0  0  0  0  0  0  0  0  0  0  0  0
  140.5710   69.4390  227.3540 C   0  0  0  0  0  0  0  0  0  0  0  0
  140.5660   68.3000  228.6760 Cl  0  0  0  0  0  0  0  0  0  0  0  0
  141.0900   70.7090  227.6090 C   0  0  0  0  0  0  0  0  0  0  0  0
  141.1130   71.6430  226.5860 C   0  0  0  0  0  0  0  0  0  0  0  0
  140.6200   71.3000  225.3330 C   0  0  0  0  0  0  0  0  0  0  0  0
  140.6750   72.2610  224.3860 N   0  0  0  0  0  0  0  0  0  0  0  0
  141.4880   71.8090  220.8410 H   0  0  0  0  0  0  0  0  0  0  0  0
  140.9192   73.2388  218.8942 H   0  0  0  0  0  0  0  0  0  0  0  0
  140.2473   74.4637  220.0490 H   0  0  0  0  0  0  0  0  0  0  0  0
  143.2810   75.5657  217.2016 H   0  0  0  0  0  0  0  0  0  0  0  0
  141.5404   75.2724  217.2378 H   0  0  0  0  0  0  0  0  0  0  0  0
  141.0693   77.6875  217.4886 H   0  0  0  0  0  0  0  0  0  0  0  0
  143.3380   78.4130  216.3080 H   0  0  0  0  0  0  0  0  0  0  0  0
  144.0245   77.8785  218.4085 H   0  0  0  0  0  0  0  0  0  0  0  0
  142.7465   78.9769  218.8494 H   0  0  0  0  0  0  0  0  0  0  0  0
  143.3699   77.0395  220.5383 H   0  0  0  0  0  0  0  0  0  0  0  0
  140.6625   77.8908  219.6339 H   0  0  0  0  0  0  0  0  0  0  0  0
  140.7835   76.3994  220.6817 H   0  0  0  0  0  0  0  0  0  0  0  0
  139.9468   77.1797  222.8982 H   0  0  0  0  0  0  0  0  0  0  0  0
  140.7049   79.0826  224.5994 H   0  0  0  0  0  0  0  0  0  0  0  0
  142.5415   80.6448  223.4041 H   0  0  0  0  0  0  0  0  0  0  0  0
  142.8660   79.6251  220.9275 H   0  0  0  0  0  0  0  0  0  0  0  0
  139.3190   70.5510  221.8488 H   0  0  0  0  0  0  0  0  0  0  0  0
  139.2142   68.7783  223.5696 H   0  0  0  0  0  0  0  0  0  0  0  0
  139.6820   68.1178  225.9233 H   0  0  0  0  0  0  0  0  0  0  0  0
  141.4750   70.9647  228.6072 H   0  0  0  0  0  0  0  0  0  0  0  0
  141.5190   72.6496  226.7646 H   0  0  0  0  0  0  0  0  0  0  0  0
  1  2  2  0
  2  3  1  0
  3  4  1  0
  4  5  1  0
  5  6  2  0
  5  7  1  0
  7  8  1  0
  8  9  1  0
  9 10  1  0
  9 11  1  0
 11 12  1  0
 12 13  1  0
 13 14  1  0
 14 15  1  0
 15 16  2  0
 16 17  1  0
 17 18  2  0
  2 19  1  0
 19 20  2  0
 20 21  1  0
 21 22  2  0
 22 23  1  0
 23 24  2  0
 24 25  1  0
 24 26  1  0
 26 27  2  0
 27 28  1  0
 28 29  2  0
 12  7  1  0
 18 14  1  0
 29 19  1  0
 28 22  1  0
  3 30  1  0
  4 31  1  0
  4 32  1  0
  8 33  1  0
  8 34  1  0
  9 35  1  6
 10 36  1  0
 11 37  1  0
 11 38  1  0
 12 39  1  1
 13 40  1  0
 13 41  1  0
 15 42  1  0
 16 43  1  0
 17 44  1  0
 18 45  1  0
 20 46  1  0
 21 47  1  0
 23 48  1  0
 26 49  1  0
 27 50  1  0
M  END
>  <smiles>  (1) 
O=C(NCC(=O)N1C[C@H](O)C[C@H]1Cn1cccc1)c1ccc2cc(Cl)ccc2n1

>  <score_type>  (1) 
oracle

>  <origin>  (1) 
autodockgpu

>  <m_score__min__energy>  (1) 
-8.1199999999999992

>  <m_primary>  (1) 
energy

>  <rmsd>  (1) 
2.467333452893472

>  <m_score__min__rmsd>  (1) 
2.467333452893472

>  <meeko>  (1) 
{"free_energy": -7.78, "intermolecular_energy": -9.87, "internal_energy": -1.32, "cluster_size": 2, "cluster_id": 5, "rank_in_cluster": 1}

>  <energy>  (1) 
-8.12

>  <cluster_rmsd>  (1) 
0.0

>  <cluster>  (1) 
1

$$$$

     RDKit          3D

 50 53  0  0  0  0  0  0  0  0999 V2000
  140.5180   72.5160  220.8300 O   0  0  0  0  0  0  0  0  0  0  0  0
  139.9690   72.7540  221.9240 C   0  0  0  0  0  0  0  0  0  0  0  0
  139.2810   73.9820  222.1440 N   0  0  0  0  0  0  0  0  0  0  0  0
  139.2350   74.9400  221.0740 C   0  0  0  0  0  0  0  0  0  0  0  0
  138.7850   76.2870  221.5560 C   0  0  0  0  0  0  0  0  0  0  0  0
  137.7420   76.4020  222.2680 O   0  0  0  0  0  0  0  0  0  0  0  0
  139.5690   77.4160  221.1870 N   0  0  0  0  0  0  0  0  0  0  0  0
  139.1220   78.6140  220.4570 C   0  0  0  0  0  0  0  0  0  0  0  0
  140.2180   79.6170  220.6450 C   0  0  2  0  0  0  0  0  0  0  0  0
  140.2110   80.4420  219.5190 O   0  0  0  0  0  0  0  0  0  0  0  0
  141.4440   78.7000  220.6350 C   0  0  0  0  0  0  0  0  0  0  0  0
  140.9770   77.5600  221.4860 C   0  0  1  0  0  0  0  0  0  0  0  0
  141.0660   77.8840  222.9620 C   0  0  0  0  0  0  0  0  0  0  0  0
  141.6400   79.1770  223.2330 N   0  0  0  0  0  0  0  0  0  0  0  0
  140.9600   80.2500  223.6710 C   0  0  0  0  0  0  0  0  0  0  0  0
  141.8710   81.2730  223.8010 C   0  0  0  0  0  0  0  0  0  0  0  0
  143.1360   80.8330  223.4420 C   0  0  0  0  0  0  0  0  0  0  0  0
  142.9510   79.5040  223.0890 C   0  0  0  0  0  0  0  0  0  0  0  0
  140.0100   71.7820  223.0270 C   0  0  0  0  0  0  0  0  0  0  0  0
  139.5350   70.4920  222.8230 C   0  0  0  0  0  0  0  0  0  0  0  0
  139.5490   69.5450  223.8200 C   0  0  0  0  0  0  0  0  0  0  0  0
  140.0490   69.9020  225.0440 C   0  0  0  0  0  0  0  0  0  0  0  0
  140.1130   69.0330  226.1200 C   0  0  0  0  0  0  0  0  0  0  0  0
  140.6230   69.4280  227.3360 C   0  0  0  0  0  0  0  0  0  0  0  0
  140.7160   68.3540  228.7090 Cl  0  0  0  0  0  0  0  0  0  0  0  0
  141.0930   70.7300  227.5130 C   0  0  0  0  0  0  0  0  0  0  0  0
  141.0380   71.6140  226.4480 C   0  0  0  0  0  0  0  0  0  0  0  0
  140.5190   71.1900  225.2300 C   0  0  0  0  0  0  0  0  0  0  0  0
  140.4970   72.1070  224.2390 N   0  0  0  0  0  0  0  0  0  0  0  0
  138.8310   74.1410  223.0850 H   0  0  0  0  0  0  0  0  0  0  0  0
  140.2399   75.0350  220.6368 H   0  0  0  0  0  0  0  0  0  0  0  0
  138.5121   74.5841  220.3252 H   0  0  0  0  0  0  0  0  0  0  0  0
  138.9852   78.3870  219.3894 H   0  0  0  0  0  0  0  0  0  0  0  0
  138.1552   78.9856  220.8275 H   0  0  0  0  0  0  0  0  0  0  0  0
  140.1574   80.2599  221.5355 H   0  0  0  0  0  0  0  0  0  0  0  0
  139.4420   80.2860  218.9170 H   0  0  0  0  0  0  0  0  0  0  0  0
  141.6868   78.3661  219.6154 H   0  0  0  0  0  0  0  0  0  0  0  0
  142.3643   79.1807  220.9982 H   0  0  0  0  0  0  0  0  0  0  0  0
  141.5898   76.6694  221.2826 H   0  0  0  0  0  0  0  0  0  0  0  0
  140.0513   77.8578  223.3860 H   0  0  0  0  0  0  0  0  0  0  0  0
  141.7285   77.1339  223.4185 H   0  0  0  0  0  0  0  0  0  0  0  0
  139.8821   80.3008  223.8846 H   0  0  0  0  0  0  0  0  0  0  0  0
  141.6308   82.2914  224.1403 H   0  0  0  0  0  0  0  0  0  0  0  0
  144.0740   81.4076  223.4380 H   0  0  0  0  0  0  0  0  0  0  0  0
  143.7424   78.8213  222.7460 H   0  0  0  0  0  0  0  0  0  0  0  0
  139.1360   70.2204  221.8346 H   0  0  0  0  0  0  0  0  0  0  0  0
  139.1690   68.5286  223.6394 H   0  0  0  0  0  0  0  0  0  0  0  0
  139.7476   68.0024  226.0003 H   0  0  0  0  0  0  0  0  0  0  0  0
  141.5009   71.0494  228.4834 H   0  0  0  0  0  0  0  0  0  0  0  0
  141.4027   72.6451  226.5653 H   0  0  0  0  0  0  0  0  0  0  0  0
  1  2  2  0
  2  3  1  0
  3  4  1  0
  4  5  1  0
  5  6  2  0
  5  7  1  0
  7  8  1  0
  8  9  1  0
  9 10  1  0
  9 11  1  0
 11 12  1  0
 12 13  1  0
 13 14  1  0
 14 15  1  0
 15 16  2  0
 16 17  1  0
 17 18  2  0
  2 19  1  0
 19 20  2  0
 20 21  1  0
 21 22  2  0
 22 23  1  0
 23 24  2  0
 24 25  1  0
 24 26  1  0
 26 27  2  0
 27 28  1  0
 28 29  2  0
 12  7  1  0
 18 14  1  0
 29 19  1  0
 28 22  1  0
  3 30  1  0
  4 31  1  0
  4 32  1  0
  8 33  1  0
  8 34  1  0
  9 35  1  1
 10 36  1  0
 11 37  1  0
 11 38  1  0
 12 39  1  1
 13 40  1  0
 13 41  1  0
 15 42  1  0
 16 43  1  0
 17 44  1  0
 18 45  1  0
 20 46  1  0
 21 47  1  0
 23 48  1  0
 26 49  1  0
 27 50  1  0
M  END
>  <smiles>  (2) 
O=C(NCC(=O)N1C[C@H](O)C[C@H]1Cn1cccc1)c1ccc2cc(Cl)ccc2n1

>  <score_type>  (2) 
oracle

>  <origin>  (2) 
autodockgpu

>  <m_score__min__energy>  (2) 
-8.1199999999999992

>  <m_primary>  (2) 
energy

>  <rmsd>  (2) 
2.716417416597843

>  <m_score__min__rmsd>  (2) 
2.716417416597843

>  <meeko>  (2) 
{"free_energy": -7.88, "intermolecular_energy": -9.97, "internal_energy": -1.29, "cluster_size": 13, "cluster_id": 3, "rank_in_cluster": 2}

>  <energy>  (2) 
-8.07

>  <cluster_rmsd>  (2) 
0.24

>  <cluster>  (2) 
1

$$$$

     RDKit          3D

 50 53  0  0  0  0  0  0  0  0999 V2000
  134.7940   68.2990  224.8140 O   0  0  0  0  0  0  0  0  0  0  0  0
  135.1240   69.4290  224.4040 C   0  0  0  0  0  0  0  0  0  0  0  0
  136.0150   69.5740  223.3020 N   0  0  0  0  0  0  0  0  0  0  0  0
  136.5240   68.3850  222.6730 C   0  0  0  0  0  0  0  0  0  0  0  0
  138.0110   68.4480  222.4920 C   0  0  0  0  0  0  0  0  0  0  0  0
  138.6370   67.4790  221.9650 O   0  0  0  0  0  0  0  0  0  0  0  0
  138.6810   69.6250  222.9280 N   0  0  0  0  0  0  0  0  0  0  0  0
  138.5500   70.9840  222.3790 C   0  0  0  0  0  0  0  0  0  0  0  0
  139.1770   71.8810  223.4010 C   0  0  2  0  0  0  0  0  0  0  0  0
  139.6840   72.9860  222.7160 O   0  0  0  0  0  0  0  0  0  0  0  0
  140.3150   70.9860  223.9010 C   0  0  0  0  0  0  0  0  0  0  0  0
  139.6290   69.6610  224.0210 C   0  0  1  0  0  0  0  0  0  0  0  0
  138.8140   69.5610  225.2930 C   0  0  0  0  0  0  0  0  0  0  0  0
  139.6020   69.2510  226.4570 N   0  0  0  0  0  0  0  0  0  0  0  0
  139.9950   68.0170  226.8210 C   0  0  0  0  0  0  0  0  0  0  0  0
  140.7230   68.1570  227.9810 C   0  0  0  0  0  0  0  0  0  0  0  0
  140.7880   69.4930  228.3440 C   0  0  0  0  0  0  0  0  0  0  0  0
  140.0680   70.1540  227.3590 C   0  0  0  0  0  0  0  0  0  0  0  0
  134.6110   70.6530  225.0380 C   0  0  0  0  0  0  0  0  0  0  0  0
  133.6340   70.5580  226.0230 C   0  0  0  0  0  0  0  0  0  0  0  0
  133.1200   71.6710  226.6470 C   0  0  0  0  0  0  0  0  0  0  0  0
  133.5950   72.9000  226.2730 C   0  0  0  0  0  0  0  0  0  0  0  0
  133.1530   74.0870  226.8320 C   0  0  0  0  0  0  0  0  0  0  0  0
  133.6550   75.3040  226.4310 C   0  0  0  0  0  0  0  0  0  0  0  0
  133.1140   76.8140  227.1170 Cl  0  0  0  0  0  0  0  0  0  0  0  0
  134.6350   75.3690  225.4400 C   0  0  0  0  0  0  0  0  0  0  0  0
  135.0920   74.1930  224.8680 C   0  0  0  0  0  0  0  0  0  0  0  0
  134.5680   72.9760  225.2910 C   0  0  0  0  0  0  0  0  0  0  0  0
  135.0620   71.8730  224.6890 N   0  0  0  0  0  0  0  0  0  0  0  0
  136.2670   70.5490  222.9880 H   0  0  0  0  0  0  0  0  0  0  0  0
  136.2776   67.5160  223.3007 H   0  0  0  0  0  0  0  0  0  0  0  0
  136.0605   68.2969  221.6793 H   0  0  0  0  0  0  0  0  0  0  0  0
  139.0791   71.0647  221.4180 H   0  0  0  0  0  0  0  0  0  0  0  0
  137.5004   71.2505  222.1858 H   0  0  0  0  0  0  0  0  0  0  0  0
  138.5245   72.2526  224.2048 H   0  0  0  0  0  0  0  0  0  0  0  0
  139.2080   73.8300  222.9180 H   0  0  0  0  0  0  0  0  0  0  0  0
  141.1413   70.9455  223.1760 H   0  0  0  0  0  0  0  0  0  0  0  0
  140.7795   71.3345  224.8353 H   0  0  0  0  0  0  0  0  0  0  0  0
  140.3761   68.8537  224.0161 H   0  0  0  0  0  0  0  0  0  0  0  0
  138.3100   70.5243  225.4602 H   0  0  0  0  0  0  0  0  0  0  0  0
  138.1005   68.7351  225.1560 H   0  0  0  0  0  0  0  0  0  0  0  0
  139.7766   67.0769  226.2933 H   0  0  0  0  0  0  0  0  0  0  0  0
  141.1857   67.3292  228.5385 H   0  0  0  0  0  0  0  0  0  0  0  0
  141.2958   69.9306  229.2161 H   0  0  0  0  0  0  0  0  0  0  0  0
  139.9005   71.2403  227.3152 H   0  0  0  0  0  0  0  0  0  0  0  0
  133.2614   69.5641  226.3115 H   0  0  0  0  0  0  0  0  0  0  0  0
  132.3484   71.5765  227.4253 H   0  0  0  0  0  0  0  0  0  0  0  0
  132.3818   74.0566  227.6158 H   0  0  0  0  0  0  0  0  0  0  0  0
  135.0389   76.3400  225.1176 H   0  0  0  0  0  0  0  0  0  0  0  0
  135.8638   74.2215  224.0848 H   0  0  0  0  0  0  0  0  0  0  0  0
  1  2  2  0
  2  3  1  0
  3  4  1  0
  4  5  1  0
  5  6  2  0
  5  7  1  0
  7  8  1  0
  8  9  1  0
  9 10  1  0
  9 11  1  0
 11 12  1  0
 12 13  1  0
 13 14  1  0
 14 15  1  0
 15 16  2  0
 16 17  1  0
 17 18  2  0
  2 19  1  0
 19 20  2  0
 20 21  1  0
 21 22  2  0
 22 23  1  0
 23 24  2  0
 24 25  1  0
 24 26  1  0
 26 27  2  0
 27 28  1  0
 28 29  2  0
 12  7  1  0
 18 14  1  0
 29 19  1  0
 28 22  1  0
  3 30  1  0
  4 31  1  0
  4 32  1  0
  8 33  1  0
  8 34  1  0
  9 35  1  1
 10 36  1  0
 11 37  1  0
 11 38  1  0
 12 39  1  6
 13 40  1  0
 13 41  1  0
 15 42  1  0
 16 43  1  0
 17 44  1  0
 18 45  1  0
 20 46  1  0
 21 47  1  0
 23 48  1  0
 26 49  1  0
 27 50  1  0
M  END
>  <smiles>  (3) 
O=C(NCC(=O)N1C[C@H](O)C[C@H]1Cn1cccc1)c1ccc2cc(Cl)ccc2n1

>  <score_type>  (3) 
oracle

>  <origin>  (3) 
autodockgpu

>  <m_score__min__energy>  (3) 
-8.1199999999999992

>  <m_primary>  (3) 
energy

>  <rmsd>  (3) 
8.589778708521518

>  <m_score__min__rmsd>  (3) 
8.589778708521518

>  <meeko>  (3) 
{"free_energy": -7.26, "intermolecular_energy": -9.35, "internal_energy": -1.93, "cluster_size": 12, "cluster_id": 7, "rank_in_cluster": 5}

>  <energy>  (3) 
-8.05

>  <cluster_rmsd>  (3) 
0.15

>  <cluster>  (3) 
1

$$$$

     RDKit          3D

 50 53  0  0  0  0  0  0  0  0999 V2000
  136.1700   71.4330  223.0250 O   0  0  0  0  0  0  0  0  0  0  0  0
  136.1770   72.6440  223.3180 C   0  0  0  0  0  0  0  0  0  0  0  0
  137.0980   73.5390  222.7010 N   0  0  0  0  0  0  0  0  0  0  0  0
  138.0180   73.0110  221.7300 C   0  0  0  0  0  0  0  0  0  0  0  0
  139.2440   72.4430  222.3820 C   0  0  0  0  0  0  0  0  0  0  0  0
  140.3430   73.0750  222.3490 O   0  0  0  0  0  0  0  0  0  0  0  0
  139.1240   71.1820  223.0300 N   0  0  0  0  0  0  0  0  0  0  0  0
  138.9280   69.8670  222.3990 C   0  0  0  0  0  0  0  0  0  0  0  0
  139.2210   68.8690  223.4750 C   0  0  2  0  0  0  0  0  0  0  0  0
  138.4520   67.7370  223.2000 O   0  0  0  0  0  0  0  0  0  0  0  0
  138.6770   69.6080  224.7010 C   0  0  0  0  0  0  0  0  0  0  0  0
  139.1790   70.9980  224.4640 C   0  0  1  0  0  0  0  0  0  0  0  0
  140.6340   71.1470  224.8560 C   0  0  0  0  0  0  0  0  0  0  0  0
  140.8580   71.0610  226.2760 N   0  0  0  0  0  0  0  0  0  0  0  0
  141.0710   72.1080  227.0920 C   0  0  0  0  0  0  0  0  0  0  0  0
  141.2380   71.5970  228.3590 C   0  0  0  0  0  0  0  0  0  0  0  0
  141.1260   70.2150  228.3340 C   0  0  0  0  0  0  0  0  0  0  0  0
  140.8870   69.9120  227.0010 C   0  0  0  0  0  0  0  0  0  0  0  0
  135.2410   73.1980  224.3080 C   0  0  0  0  0  0  0  0  0  0  0  0
  134.4740   72.3370  225.0840 C   0  0  0  0  0  0  0  0  0  0  0  0
  133.5840   72.8010  226.0230 C   0  0  0  0  0  0  0  0  0  0  0  0
  133.4620   74.1560  226.1850 C   0  0  0  0  0  0  0  0  0  0  0  0
  132.6000   74.7370  227.0990 C   0  0  0  0  0  0  0  0  0  0  0  0
  132.5050   76.1030  227.2340 C   0  0  0  0  0  0  0  0  0  0  0  0
  131.4270   76.8620  228.3770 Cl  0  0  0  0  0  0  0  0  0  0  0  0
  133.2880   76.9440  226.4410 C   0  0  0  0  0  0  0  0  0  0  0  0
  134.1570   76.3830  225.5210 C   0  0  0  0  0  0  0  0  0  0  0  0
  134.2340   75.0000  225.4050 C   0  0  0  0  0  0  0  0  0  0  0  0
  135.1030   74.5260  224.4870 N   0  0  0  0  0  0  0  0  0  0  0  0
  137.0690   74.5570  222.9780 H   0  0  0  0  0  0  0  0  0  0  0  0
  137.5166   72.2158  221.1588 H   0  0  0  0  0  0  0  0  0  0  0  0
  138.3296   73.8331  221.0689 H   0  0  0  0  0  0  0  0  0  0  0  0
  137.8922   69.7595  222.0446 H   0  0  0  0  0  0  0  0  0  0  0  0
  139.5784   69.7301  221.5225 H   0  0  0  0  0  0  0  0  0  0  0  0
  140.2673   68.5476  223.5846 H   0  0  0  0  0  0  0  0  0  0  0  0
  138.9230   67.0610  222.6530 H   0  0  0  0  0  0  0  0  0  0  0  0
  137.5778   69.5784  224.7322 H   0  0  0  0  0  0  0  0  0  0  0  0
  138.9954   69.1756  225.6610 H   0  0  0  0  0  0  0  0  0  0  0  0
  138.5813   71.7134  225.0479 H   0  0  0  0  0  0  0  0  0  0  0  0
  141.2106   70.3501  224.3637 H   0  0  0  0  0  0  0  0  0  0  0  0
  140.9536   72.1504  224.5382 H   0  0  0  0  0  0  0  0  0  0  0  0
  141.1052   73.1687  226.8027 H   0  0  0  0  0  0  0  0  0  0  0  0
  141.4320   72.1973  229.2601 H   0  0  0  0  0  0  0  0  0  0  0  0
  141.2081   69.5166  229.1799 H   0  0  0  0  0  0  0  0  0  0  0  0
  140.7434   68.8999  226.5947 H   0  0  0  0  0  0  0  0  0  0  0  0
  134.5825   71.2516  224.9424 H   0  0  0  0  0  0  0  0  0  0  0  0
  132.9860   72.1035  226.6279 H   0  0  0  0  0  0  0  0  0  0  0  0
  131.9755   74.0906  227.7331 H   0  0  0  0  0  0  0  0  0  0  0  0
  133.2154   78.0366  226.5457 H   0  0  0  0  0  0  0  0  0  0  0  0
  134.7825   77.0275  224.8859 H   0  0  0  0  0  0  0  0  0  0  0  0
  1  2  2  0
  2  3  1  0
  3  4  1  0
  4  5  1  0
  5  6  2  0
  5  7  1  0
  7  8  1  0
  8  9  1  0
  9 10  1  0
  9 11  1  0
 11 12  1  0
 12 13  1  0
 13 14  1  0
 14 15  1  0
 15 16  2  0
 16 17  1  0
 17 18  2  0
  2 19  1  0
 19 20  2  0
 20 21  1  0
 21 22  2  0
 22 23  1  0
 23 24  2  0
 24 25  1  0
 24 26  1  0
 26 27  2  0
 27 28  1  0
 28 29  2  0
 12  7  1  0
 18 14  1  0
 29 19  1  0
 28 22  1  0
  3 30  1  0
  4 31  1  0
  4 32  1  0
  8 33  1  0
  8 34  1  0
  9 35  1  1
 10 36  1  0
 11 37  1  0
 11 38  1  0
 12 39  1  1
 13 40  1  0
 13 41  1  0
 15 42  1  0
 16 43  1  0
 17 44  1  0
 18 45  1  0
 20 46  1  0
 21 47  1  0
 23 48  1  0
 26 49  1  0
 27 50  1  0
M  END
>  <smiles>  (4) 
O=C(NCC(=O)N1C[C@H](O)C[C@H]1Cn1cccc1)c1ccc2cc(Cl)ccc2n1

>  <score_type>  (4) 
oracle

>  <origin>  (4) 
autodockgpu

>  <m_score__min__energy>  (4) 
-8.1199999999999992

>  <m_primary>  (4) 
energy

>  <rmsd>  (4) 
8.367227416190412

>  <m_score__min__rmsd>  (4) 
8.367227416190412

>  <meeko>  (4) 
{"free_energy": -7.01, "intermolecular_energy": -9.1, "internal_energy": -1.8, "cluster_size": 12, "cluster_id": 7, "rank_in_cluster": 12}

>  <energy>  (4) 
-8.03

>  <cluster_rmsd>  (4) 
0.35

>  <cluster>  (4) 
1

$$$$

     RDKit          3D

 50 53  0  0  0  0  0  0  0  0999 V2000
  135.0400   68.2820  224.8920 O   0  0  0  0  0  0  0  0  0  0  0  0
  135.2050   69.4590  224.5160 C   0  0  0  0  0  0  0  0  0  0  0  0
  136.0450   69.7590  223.4050 N   0  0  0  0  0  0  0  0  0  0  0  0
  136.6970   68.6710  222.7270 C   0  0  0  0  0  0  0  0  0  0  0  0
  138.0950   68.4640  223.2290 C   0  0  0  0  0  0  0  0  0  0  0  0
  138.5570   67.2920  223.3830 O   0  0  0  0  0  0  0  0  0  0  0  0
  138.8710   69.6200  223.5200 N   0  0  0  0  0  0  0  0  0  0  0  0
  138.7830   70.9410  222.8760 C   0  0  0  0  0  0  0  0  0  0  0  0
  139.5450   71.8650  223.7740 C   0  0  2  0  0  0  0  0  0  0  0  0
  140.0640   72.8790  222.9690 O   0  0  0  0  0  0  0  0  0  0  0  0
  140.6600   70.9330  224.2560 C   0  0  0  0  0  0  0  0  0  0  0  0
  139.9040   69.6710  224.5310 C   0  0  1  0  0  0  0  0  0  0  0  0
  139.1890   69.7210  225.8650 C   0  0  0  0  0  0  0  0  0  0  0  0
  140.0300   69.3680  226.9800 N   0  0  0  0  0  0  0  0  0  0  0  0
  140.7370   70.2380  227.7230 C   0  0  0  0  0  0  0  0  0  0  0  0
  141.3980   69.5000  228.6780 C   0  0  0  0  0  0  0  0  0  0  0  0
  141.1000   68.1540  228.5310 C   0  0  0  0  0  0  0  0  0  0  0  0
  140.2330   68.1090  227.4480 C   0  0  0  0  0  0  0  0  0  0  0  0
  134.5450   70.5810  225.2000 C   0  0  0  0  0  0  0  0  0  0  0  0
  133.5870   70.3230  226.1730 C   0  0  0  0  0  0  0  0  0  0  0  0
  132.9390   71.3340  226.8430 C   0  0  0  0  0  0  0  0  0  0  0  0
  133.2600   72.6280  226.5270 C   0  0  0  0  0  0  0  0  0  0  0  0
  132.6740   73.7250  227.1350 C   0  0  0  0  0  0  0  0  0  0  0  0
  133.0220   75.0120  226.7920 C   0  0  0  0  0  0  0  0  0  0  0  0
  132.3000   76.4120  227.5410 Cl  0  0  0  0  0  0  0  0  0  0  0  0
  133.9880   75.2410  225.8100 C   0  0  0  0  0  0  0  0  0  0  0  0
  134.5860   74.1570  225.1900 C   0  0  0  0  0  0  0  0  0  0  0  0
  134.2170   72.8680  225.5560 C   0  0  0  0  0  0  0  0  0  0  0  0
  134.8430   71.8610  224.9090 N   0  0  0  0  0  0  0  0  0  0  0  0
  136.1570   70.7690  223.1200 H   0  0  0  0  0  0  0  0  0  0  0  0
  136.1187   67.7500  222.8922 H   0  0  0  0  0  0  0  0  0  0  0  0
  136.7496   68.9161  221.6559 H   0  0  0  0  0  0  0  0  0  0  0  0
  139.2379   70.9135  221.8748 H   0  0  0  0  0  0  0  0  0  0  0  0
  137.7404   71.2647  222.7410 H   0  0  0  0  0  0  0  0  0  0  0  0
  138.9835   72.3388  224.5927 H   0  0  0  0  0  0  0  0  0  0  0  0
  139.6040   73.7490  223.0810 H   0  0  0  0  0  0  0  0  0  0  0  0
  141.4214   70.7824  223.4766 H   0  0  0  0  0  0  0  0  0  0  0  0
  141.2186   71.3164  225.1226 H   0  0  0  0  0  0  0  0  0  0  0  0
  140.5964   68.8162  224.5329 H   0  0  0  0  0  0  0  0  0  0  0  0
  138.8141   70.7433  226.0213 H   0  0  0  0  0  0  0  0  0  0  0  0
  138.3762   68.9809  225.8250 H   0  0  0  0  0  0  0  0  0  0  0  0
  140.7788   71.3294  227.5924 H   0  0  0  0  0  0  0  0  0  0  0  0
  142.0656   69.9173  229.4462 H   0  0  0  0  0  0  0  0  0  0  0  0
  141.4676   67.3120  229.1359 H   0  0  0  0  0  0  0  0  0  0  0  0
  139.7807   67.1961  227.0333 H   0  0  0  0  0  0  0  0  0  0  0  0
  133.3396   69.2787  226.4145 H   0  0  0  0  0  0  0  0  0  0  0  0
  132.1841   71.1102  227.6111 H   0  0  0  0  0  0  0  0  0  0  0  0
  131.9115   73.5643  227.9113 H   0  0  0  0  0  0  0  0  0  0  0  0
  134.2698   76.2676  225.5330 H   0  0  0  0  0  0  0  0  0  0  0  0
  135.3482   74.3150  224.4128 H   0  0  0  0  0  0  0  0  0  0  0  0
  1  2  2  0
  2  3  1  0
  3  4  1  0
  4  5  1  0
  5  6  2  0
  5  7  1  0
  7  8  1  0
  8  9  1  0
  9 10  1  0
  9 11  1  0
 11 12  1  0
 12 13  1  0
 13 14  1  0
 14 15  1  0
 15 16  2  0
 16 17  1  0
 17 18  2  0
  2 19  1  0
 19 20  2  0
 20 21  1  0
 21 22  2  0
 22 23  1  0
 23 24  2  0
 24 25  1  0
 24 26  1  0
 26 27  2  0
 27 28  1  0
 28 29  2  0
 12  7  1  0
 18 14  1  0
 29 19  1  0
 28 22  1  0
  3 30  1  0
  4 31  1  0
  4 32  1  0
  8 33  1  0
  8 34  1  0
  9 35  1  1
 10 36  1  0
 11 37  1  0
 11 38  1  0
 12 39  1  1
 13 40  1  0
 13 41  1  0
 15 42  1  0
 16 43  1  0
 17 44  1  0
 18 45  1  0
 20 46  1  0
 21 47  1  0
 23 48  1  0
 26 49  1  0
 27 50  1  0
M  END
>  <smiles>  (5) 
O=C(NCC(=O)N1C[C@H](O)C[C@H]1Cn1cccc1)c1ccc2cc(Cl)ccc2n1

>  <score_type>  (5) 
oracle

>  <origin>  (5) 
autodockgpu

>  <m_score__min__energy>  (5) 
-8.1199999999999992

>  <m_primary>  (5) 
energy

>  <rmsd>  (5) 
8.855620655979497

>  <m_score__min__rmsd>  (5) 
8.855620655979497

>  <meeko>  (5) 
{"free_energy": -7.29, "intermolecular_energy": -9.38, "internal_energy": -1.79, "cluster_size": 12, "cluster_id": 7, "rank_in_cluster": 2}

>  <energy>  (5) 
-7.76

>  <cluster_rmsd>  (5) 
1.19

>  <cluster>  (5) 
1

$$$$

     RDKit          3D

 50 53  0  0  0  0  0  0  0  0999 V2000
  140.3240   73.8550  222.3100 O   0  0  0  0  0  0  0  0  0  0  0  0
  140.3120   72.6290  222.0870 C   0  0  0  0  0  0  0  0  0  0  0  0
  140.3670   72.1290  220.7540 N   0  0  0  0  0  0  0  0  0  0  0  0
  140.4400   73.0740  219.6730 C   0  0  0  0  0  0  0  0  0  0  0  0
  141.6170   72.8080  218.7830 C   0  0  0  0  0  0  0  0  0  0  0  0
  141.4480   72.4150  217.5890 O   0  0  0  0  0  0  0  0  0  0  0  0
  142.9160   73.0140  219.3270 N   0  0  0  0  0  0  0  0  0  0  0  0
  144.1440   72.2630  219.0180 C   0  0  0  0  0  0  0  0  0  0  0  0
  145.2590   73.0920  219.5740 C   0  0  2  0  0  0  0  0  0  0  0  0
  146.2860   72.2140  219.9220 O   0  0  0  0  0  0  0  0  0  0  0  0
  144.5890   73.6640  220.8260 C   0  0  0  0  0  0  0  0  0  0  0  0
  143.2350   74.0320  220.3040 C   0  0  1  0  0  0  0  0  0  0  0  0
  143.2570   75.3480  219.5550 C   0  0  0  0  0  0  0  0  0  0  0  0
  142.3610   76.3340  220.1010 N   0  0  0  0  0  0  0  0  0  0  0  0
  141.4850   76.1180  221.0980 C   0  0  0  0  0  0  0  0  0  0  0  0
  140.8280   77.3080  221.3150 C   0  0  0  0  0  0  0  0  0  0  0  0
  141.3010   78.2790  220.4460 C   0  0  0  0  0  0  0  0  0  0  0  0
  142.2680   77.6270  219.6940 C   0  0  0  0  0  0  0  0  0  0  0  0
  140.2380   71.6520  223.1840 C   0  0  0  0  0  0  0  0  0  0  0  0
  139.6740   70.4030  222.9540 C   0  0  0  0  0  0  0  0  0  0  0  0
  139.5800   69.4530  223.9440 C   0  0  0  0  0  0  0  0  0  0  0  0
  140.0620   69.7660  225.1880 C   0  0  0  0  0  0  0  0  0  0  0  0
  140.0210   68.8900  226.2600 C   0  0  0  0  0  0  0  0  0  0  0  0
  140.5160   69.2390  227.4950 C   0  0  0  0  0  0  0  0  0  0  0  0
  140.4770   68.1560  228.8630 Cl  0  0  0  0  0  0  0  0  0  0  0  0
  141.0770   70.5010  227.6980 C   0  0  0  0  0  0  0  0  0  0  0  0
  141.1280   71.3920  226.6380 C   0  0  0  0  0  0  0  0  0  0  0  0
  140.6220   71.0140  225.4000 C   0  0  0  0  0  0  0  0  0  0  0  0
  140.7050   71.9340  224.4150 N   0  0  0  0  0  0  0  0  0  0  0  0
  140.3540   71.0840  220.6110 H   0  0  0  0  0  0  0  0  0  0  0  0
  139.5187   73.0047  219.0760 H   0  0  0  0  0  0  0  0  0  0  0  0
  140.5558   74.0796  220.1036 H   0  0  0  0  0  0  0  0  0  0  0  0
  144.1224   71.2734  219.4978 H   0  0  0  0  0  0  0  0  0  0  0  0
  144.2594   72.0885  217.9381 H   0  0  0  0  0  0  0  0  0  0  0  0
  145.6836   73.8616  218.9126 H   0  0  0  0  0  0  0  0  0  0  0  0
  146.2190   71.8730  220.8480 H   0  0  0  0  0  0  0  0  0  0  0  0
  144.5199   72.9099  221.6239 H   0  0  0  0  0  0  0  0  0  0  0  0
  145.1354   74.5032  221.2812 H   0  0  0  0  0  0  0  0  0  0  0  0
  142.5244   74.1139  221.1396 H   0  0  0  0  0  0  0  0  0  0  0  0
  144.2801   75.7507  219.5883 H   0  0  0  0  0  0  0  0  0  0  0  0
  142.9237   75.1413  218.5273 H   0  0  0  0  0  0  0  0  0  0  0  0
  141.3243   75.1724  221.6365 H   0  0  0  0  0  0  0  0  0  0  0  0
  140.0421   77.4655  222.0683 H   0  0  0  0  0  0  0  0  0  0  0  0
  140.9819   79.3289  220.3698 H   0  0  0  0  0  0  0  0  0  0  0  0
  142.8663   78.0857  218.8929 H   0  0  0  0  0  0  0  0  0  0  0  0
  139.2913   70.1671  221.9501 H   0  0  0  0  0  0  0  0  0  0  0  0
  139.1305   68.4694  223.7429 H   0  0  0  0  0  0  0  0  0  0  0  0
  139.5820   67.8911  226.1204 H   0  0  0  0  0  0  0  0  0  0  0  0
  141.4726   70.7839  228.6846 H   0  0  0  0  0  0  0  0  0  0  0  0
  141.5660   72.3916  226.7754 H   0  0  0  0  0  0  0  0  0  0  0  0
  1  2  2  0
  2  3  1  0
  3  4  1  0
  4  5  1  0
  5  6  2  0
  5  7  1  0
  7  8  1  0
  8  9  1  0
  9 10  1  0
  9 11  1  0
 11 12  1  0
 12 13  1  0
 13 14  1  0
 14 15  1  0
 15 16  2  0
 16 17  1  0
 17 18  2  0
  2 19  1  0
 19 20  2  0
 20 21  1  0
 21 22  2  0
 22 23  1  0
 23 24  2  0
 24 25  1  0
 24 26  1  0
 26 27  2  0
 27 28  1  0
 28 29  2  0
 12  7  1  0
 18 14  1  0
 29 19  1  0
 28 22  1  0
  3 30  1  0
  4 31  1  0
  4 32  1  0
  8 33  1  0
  8 34  1  0
  9 35  1  6
 10 36  1  0
 11 37  1  0
 11 38  1  0
 12 39  1  1
 13 40  1  0
 13 41  1  0
 15 42  1  0
 16 43  1  0
 17 44  1  0
 18 45  1  0
 20 46  1  0
 21 47  1  0
 23 48  1  0
 26 49  1  0
 27 50  1  0
M  END
>  <smiles>  (6) 
O=C(NCC(=O)N1C[C@H](O)C[C@H]1Cn1cccc1)c1ccc2cc(Cl)ccc2n1

>  <score_type>  (6) 
oracle

>  <origin>  (6) 
autodockgpu

>  <m_score__min__energy>  (6) 
-8.1199999999999992

>  <m_primary>  (6) 
energy

>  <rmsd>  (6) 
3.606230244949808

>  <m_score__min__rmsd>  (6) 
3.606230244949808

>  <meeko>  (6) 
{"free_energy": -7.74, "intermolecular_energy": -9.83, "internal_energy": -1.55, "cluster_size": 7, "cluster_id": 4, "rank_in_cluster": 3}

>  <energy>  (6) 
-7.73

>  <cluster_rmsd>  (6) 
0.52

>  <cluster>  (6) 
1

$$$$

     RDKit          3D

 50 53  0  0  0  0  0  0  0  0999 V2000
  140.0040   74.1260  222.1500 O   0  0  0  0  0  0  0  0  0  0  0  0
  140.2170   72.9140  221.9510 C   0  0  0  0  0  0  0  0  0  0  0  0
  140.5260   72.4320  220.6460 N   0  0  0  0  0  0  0  0  0  0  0  0
  140.5860   73.3780  219.5650 C   0  0  0  0  0  0  0  0  0  0  0  0
  141.7700   73.1310  218.6790 C   0  0  0  0  0  0  0  0  0  0  0  0
  141.6100   72.8410  217.4540 O   0  0  0  0  0  0  0  0  0  0  0  0
  143.0640   73.2360  219.2610 N   0  0  0  0  0  0  0  0  0  0  0  0
  144.2350   72.3830  218.9970 C   0  0  0  0  0  0  0  0  0  0  0  0
  145.3970   73.1250  219.5790 C   0  0  2  0  0  0  0  0  0  0  0  0
  146.3370   72.1690  219.9670 O   0  0  0  0  0  0  0  0  0  0  0  0
  144.7390   73.7650  220.8050 C   0  0  0  0  0  0  0  0  0  0  0  0
  143.4360   74.2360  220.2380 C   0  0  1  0  0  0  0  0  0  0  0  0
  143.5890   75.5360  219.4770 C   0  0  0  0  0  0  0  0  0  0  0  0
  142.5750   76.5090  219.7920 N   0  0  0  0  0  0  0  0  0  0  0  0
  142.4090   77.6870  219.1660 C   0  0  0  0  0  0  0  0  0  0  0  0
  141.3390   78.3100  219.7660 C   0  0  0  0  0  0  0  0  0  0  0  0
  140.8290   77.5110  220.7790 C   0  0  0  0  0  0  0  0  0  0  0  0
  141.6360   76.3820  220.7660 C   0  0  0  0  0  0  0  0  0  0  0  0
  140.1590   71.9370  223.0480 C   0  0  0  0  0  0  0  0  0  0  0  0
  139.6070   70.6820  222.8210 C   0  0  0  0  0  0  0  0  0  0  0  0
  139.5280   69.7310  223.8110 C   0  0  0  0  0  0  0  0  0  0  0  0
  140.0120   70.0480  225.0530 C   0  0  0  0  0  0  0  0  0  0  0  0
  139.9860   69.1720  226.1240 C   0  0  0  0  0  0  0  0  0  0  0  0
  140.4830   69.5260  227.3580 C   0  0  0  0  0  0  0  0  0  0  0  0
  140.4620   68.4430  228.7250 Cl  0  0  0  0  0  0  0  0  0  0  0  0
  141.0320   70.7940  227.5580 C   0  0  0  0  0  0  0  0  0  0  0  0
  141.0680   71.6850  226.4980 C   0  0  0  0  0  0  0  0  0  0  0  0
  140.5600   71.3020  225.2620 C   0  0  0  0  0  0  0  0  0  0  0  0
  140.6290   72.2240  224.2770 N   0  0  0  0  0  0  0  0  0  0  0  0
  140.6990   71.3990  220.5230 H   0  0  0  0  0  0  0  0  0  0  0  0
  139.6678   73.2931  218.9653 H   0  0  0  0  0  0  0  0  0  0  0  0
  140.6832   74.3857  219.9953 H   0  0  0  0  0  0  0  0  0  0  0  0
  144.1179   71.4044  219.4855 H   0  0  0  0  0  0  0  0  0  0  0  0
  144.3678   72.1863  217.9229 H   0  0  0  0  0  0  0  0  0  0  0  0
  145.9029   73.8496  218.9240 H   0  0  0  0  0  0  0  0  0  0  0  0
  146.1740   71.7950  220.8690 H   0  0  0  0  0  0  0  0  0  0  0  0
  144.5845   73.0287  221.6075 H   0  0  0  0  0  0  0  0  0  0  0  0
  145.3386   74.5620  221.2689 H   0  0  0  0  0  0  0  0  0  0  0  0
  142.7098   74.3857  221.0505 H   0  0  0  0  0  0  0  0  0  0  0  0
  144.5719   75.9670  219.7181 H   0  0  0  0  0  0  0  0  0  0  0  0
  143.4885   75.2986  218.4076 H   0  0  0  0  0  0  0  0  0  0  0  0
  143.0128   78.0779  218.3337 H   0  0  0  0  0  0  0  0  0  0  0  0
  140.9453   79.2976  219.4837 H   0  0  0  0  0  0  0  0  0  0  0  0
  139.9777   77.7241  221.4423 H   0  0  0  0  0  0  0  0  0  0  0  0
  141.5317   75.5185  221.4395 H   0  0  0  0  0  0  0  0  0  0  0  0
  139.2216   70.4421  221.8190 H   0  0  0  0  0  0  0  0  0  0  0  0
  139.0882   68.7427  223.6113 H   0  0  0  0  0  0  0  0  0  0  0  0
  139.5577   68.1683  225.9859 H   0  0  0  0  0  0  0  0  0  0  0  0
  141.4300   71.0811  228.5425 H   0  0  0  0  0  0  0  0  0  0  0  0
  141.4959   72.6893  226.6334 H   0  0  0  0  0  0  0  0  0  0  0  0
  1  2  2  0
  2  3  1  0
  3  4  1  0
  4  5  1  0
  5  6  2  0
  5  7  1  0
  7  8  1  0
  8  9  1  0
  9 10  1  0
  9 11  1  0
 11 12  1  0
 12 13  1  0
 13 14  1  0
 14 15  1  0
 15 16  2  0
 16 17  1  0
 17 18  2  0
  2 19  1  0
 19 20  2  0
 20 21  1  0
 21 22  2  0
 22 23  1  0
 23 24  2  0
 24 25  1  0
 24 26  1  0
 26 27  2  0
 27 28  1  0
 28 29  2  0
 12  7  1  0
 18 14  1  0
 29 19  1  0
 28 22  1  0
  3 30  1  0
  4 31  1  0
  4 32  1  0
  8 33  1  0
  8 34  1  0
  9 35  1  6
 10 36  1  0
 11 37  1  0
 11 38  1  0
 12 39  1  1
 13 40  1  0
 13 41  1  0
 15 42  1  0
 16 43  1  0
 17 44  1  0
 18 45  1  0
 20 46  1  0
 21 47  1  0
 23 48  1  0
 26 49  1  0
 27 50  1  0
M  END
>  <smiles>  (7) 
O=C(NCC(=O)N1C[C@H](O)C[C@H]1Cn1cccc1)c1ccc2cc(Cl)ccc2n1

>  <score_type>  (7) 
oracle

>  <origin>  (7) 
autodockgpu

>  <m_score__min__energy>  (7) 
-8.1199999999999992

>  <m_primary>  (7) 
energy

>  <rmsd>  (7) 
3.8797142668833415

>  <m_score__min__rmsd>  (7) 
3.8797142668833415

>  <meeko>  (7) 
{"free_energy": -7.84, "intermolecular_energy": -9.92, "internal_energy": -1.6, "cluster_size": 7, "cluster_id": 4, "rank_in_cluster": 1}

>  <energy>  (7) 
-7.68

>  <cluster_rmsd>  (7) 
0.57

>  <cluster>  (7) 
1

$$$$

     RDKit          3D

 50 53  0  0  0  0  0  0  0  0999 V2000
  138.8720   72.1980  220.7490 O   0  0  0  0  0  0  0  0  0  0  0  0
  139.6230   72.4520  221.7100 C   0  0  0  0  0  0  0  0  0  0  0  0
  140.4270   73.6290  221.7170 N   0  0  0  0  0  0  0  0  0  0  0  0
  140.3490   74.5160  220.5880 C   0  0  0  0  0  0  0  0  0  0  0  0
  141.0020   75.8350  220.8740 C   0  0  0  0  0  0  0  0  0  0  0  0
  140.8850   76.3780  222.0140 O   0  0  0  0  0  0  0  0  0  0  0  0
  141.7500   76.4430  219.8270 N   0  0  0  0  0  0  0  0  0  0  0  0
  141.6060   77.8110  219.3040 C   0  0  0  0  0  0  0  0  0  0  0  0
  142.8360   78.0480  218.4850 C   0  0  2  0  0  0  0  0  0  0  0  0
  142.4890   78.9520  217.4800 O   0  0  0  0  0  0  0  0  0  0  0  0
  143.0600   76.6500  217.9010 C   0  0  0  0  0  0  0  0  0  0  0  0
  142.8040   75.7800  219.0920 C   0  0  1  0  0  0  0  0  0  0  0  0
  144.0000   75.7270  220.0200 C   0  0  0  0  0  0  0  0  0  0  0  0
  144.4460   74.3880  220.3060 N   0  0  0  0  0  0  0  0  0  0  0  0
  143.6770   73.2870  220.2510 C   0  0  0  0  0  0  0  0  0  0  0  0
  144.4800   72.2230  220.5930 C   0  0  0  0  0  0  0  0  0  0  0  0
  145.7660   72.6640  220.8630 C   0  0  0  0  0  0  0  0  0  0  0  0
  145.7070   74.0380  220.6720 C   0  0  0  0  0  0  0  0  0  0  0  0
  139.7120   71.5540  222.8710 C   0  0  0  0  0  0  0  0  0  0  0  0
  139.2060   70.2630  222.7800 C   0  0  0  0  0  0  0  0  0  0  0  0
  139.2630   69.3820  223.8350 C   0  0  0  0  0  0  0  0  0  0  0  0
  139.8390   69.8080  225.0030 C   0  0  0  0  0  0  0  0  0  0  0  0
  139.9520   69.0110  226.1280 C   0  0  0  0  0  0  0  0  0  0  0  0
  140.5380   69.4730  227.2840 C   0  0  0  0  0  0  0  0  0  0  0  0
  140.6940   68.4900  228.7170 Cl  0  0  0  0  0  0  0  0  0  0  0  0
  141.0380   70.7750  227.3470 C   0  0  0  0  0  0  0  0  0  0  0  0
  140.9350   71.5890  226.2310 C   0  0  0  0  0  0  0  0  0  0  0  0
  140.3390   71.0970  225.0760 C   0  0  0  0  0  0  0  0  0  0  0  0
  140.2740   71.9480  224.0300 N   0  0  0  0  0  0  0  0  0  0  0  0
  141.0480   73.8050  222.5510 H   0  0  0  0  0  0  0  0  0  0  0  0
  140.8534   74.0469  219.7304 H   0  0  0  0  0  0  0  0  0  0  0  0
  139.2869   74.6993  220.3682 H   0  0  0  0  0  0  0  0  0  0  0  0
  140.7045   77.8924  218.6790 H   0  0  0  0  0  0  0  0  0  0  0  0
  141.4997   78.5511  220.1108 H   0  0  0  0  0  0  0  0  0  0  0  0
  143.7141   78.4502  219.0115 H   0  0  0  0  0  0  0  0  0  0  0  0
  143.2690   79.3630  217.0300 H   0  0  0  0  0  0  0  0  0  0  0  0
  142.3503   76.4364  217.0882 H   0  0  0  0  0  0  0  0  0  0  0  0
  144.0528   76.5083  217.4492 H   0  0  0  0  0  0  0  0  0  0  0  0
  142.5683   74.7578  218.7610 H   0  0  0  0  0  0  0  0  0  0  0  0
  144.8290   76.2775  219.5514 H   0  0  0  0  0  0  0  0  0  0  0  0
  143.6887   76.1754  220.9750 H   0  0  0  0  0  0  0  0  0  0  0  0
  142.6108   73.2446  219.9840 H   0  0  0  0  0  0  0  0  0  0  0  0
  144.1494   71.1751  220.6446 H   0  0  0  0  0  0  0  0  0  0  0  0
  146.6367   72.0615  221.1612 H   0  0  0  0  0  0  0  0  0  0  0  0
  146.5493   74.7343  220.7973 H   0  0  0  0  0  0  0  0  0  0  0  0
  138.7460   69.9357  221.8359 H   0  0  0  0  0  0  0  0  0  0  0  0
  138.8574   68.3636  223.7435 H   0  0  0  0  0  0  0  0  0  0  0  0
  139.5637   67.9823  226.0977 H   0  0  0  0  0  0  0  0  0  0  0  0
  141.5068   71.1489  228.2692 H   0  0  0  0  0  0  0  0  0  0  0  0
  141.3224   72.6181  226.2588 H   0  0  0  0  0  0  0  0  0  0  0  0
  1  2  2  0
  2  3  1  0
  3  4  1  0
  4  5  1  0
  5  6  2  0
  5  7  1  0
  7  8  1  0
  8  9  1  0
  9 10  1  0
  9 11  1  0
 11 12  1  0
 12 13  1  0
 13 14  1  0
 14 15  1  0
 15 16  2  0
 16 17  1  0
 17 18  2  0
  2 19  1  0
 19 20  2  0
 20 21  1  0
 21 22  2  0
 22 23  1  0
 23 24  2  0
 24 25  1  0
 24 26  1  0
 26 27  2  0
 27 28  1  0
 28 29  2  0
 12  7  1  0
 18 14  1  0
 29 19  1  0
 28 22  1  0
  3 30  1  0
  4 31  1  0
  4 32  1  0
  8 33  1  0
  8 34  1  0
  9 35  1  1
 10 36  1  0
 11 37  1  0
 11 38  1  0
 12 39  1  6
 13 40  1  0
 13 41  1  0
 15 42  1  0
 16 43  1  0
 17 44  1  0
 18 45  1  0
 20 46  1  0
 21 47  1  0
 23 48  1  0
 26 49  1  0
 27 50  1  0
M  END
>  <smiles>  (8) 
O=C(NCC(=O)N1C[C@H](O)C[C@H]1Cn1cccc1)c1ccc2cc(Cl)ccc2n1

>  <score_type>  (8) 
oracle

>  <origin>  (8) 
autodockgpu

>  <m_score__min__energy>  (8) 
-8.1199999999999992

>  <m_primary>  (8) 
energy

>  <rmsd>  (8) 
4.283089905304118

>  <m_score__min__rmsd>  (8) 
4.283089905304118

>  <meeko>  (8) 
{"free_energy": -7.68, "intermolecular_energy": -9.76, "internal_energy": -1.84, "cluster_size": 11, "cluster_id": 1, "rank_in_cluster": 7}

>  <energy>  (8) 
-7.67

>  <cluster_rmsd>  (8) 
0.35

>  <cluster>  (8) 
1

$$$$

     RDKit          3D

 50 53  0  0  0  0  0  0  0  0999 V2000
  140.0000   72.5800  220.7880 O   0  0  0  0  0  0  0  0  0  0  0  0
  139.7930   72.8970  221.9760 C   0  0  0  0  0  0  0  0  0  0  0  0
  139.4510   74.2350  222.3250 N   0  0  0  0  0  0  0  0  0  0  0  0
  139.3480   75.2110  221.2740 C   0  0  0  0  0  0  0  0  0  0  0  0
  138.1270   76.0670  221.4300 C   0  0  0  0  0  0  0  0  0  0  0  0
  136.9740   75.5940  221.1930 O   0  0  0  0  0  0  0  0  0  0  0  0
  138.3130   77.4140  221.8500 N   0  0  0  0  0  0  0  0  0  0  0  0
  137.4250   78.2130  222.7110 C   0  0  0  0  0  0  0  0  0  0  0  0
  138.2410   79.3980  223.1210 C   0  0  2  0  0  0  0  0  0  0  0  0
  137.3510   80.4530  223.3300 O   0  0  0  0  0  0  0  0  0  0  0  0
  139.0630   79.6290  221.8490 C   0  0  0  0  0  0  0  0  0  0  0  0
  139.4480   78.2300  221.4800 C   0  0  1  0  0  0  0  0  0  0  0  0
  140.6170   77.7310  222.3020 C   0  0  0  0  0  0  0  0  0  0  0  0
  141.4680   78.7850  222.7900 N   0  0  0  0  0  0  0  0  0  0  0  0
  141.6230   79.1210  224.0830 C   0  0  0  0  0  0  0  0  0  0  0  0
  142.5150   80.1680  224.1190 C   0  0  0  0  0  0  0  0  0  0  0  0
  142.9230   80.4900  222.8330 C   0  0  0  0  0  0  0  0  0  0  0  0
  142.2410   79.5950  222.0200 C   0  0  0  0  0  0  0  0  0  0  0  0
  139.8950   71.9090  223.0610 C   0  0  0  0  0  0  0  0  0  0  0  0
  139.4910   70.5990  222.8350 C   0  0  0  0  0  0  0  0  0  0  0  0
  139.5640   69.6360  223.8140 C   0  0  0  0  0  0  0  0  0  0  0  0
  140.0510   69.9980  225.0430 C   0  0  0  0  0  0  0  0  0  0  0  0
  140.1710   69.1150  226.1020 C   0  0  0  0  0  0  0  0  0  0  0  0
  140.6660   69.5150  227.3220 C   0  0  0  0  0  0  0  0  0  0  0  0
  140.8270   68.4240  228.6740 Cl  0  0  0  0  0  0  0  0  0  0  0  0
  141.0640   70.8380  227.5200 C   0  0  0  0  0  0  0  0  0  0  0  0
  140.9530   71.7370  226.4720 C   0  0  0  0  0  0  0  0  0  0  0  0
  140.4500   71.3070  225.2500 C   0  0  0  0  0  0  0  0  0  0  0  0
  140.3710   72.2390  224.2760 N   0  0  0  0  0  0  0  0  0  0  0  0
  139.2840   74.4600  223.3420 H   0  0  0  0  0  0  0  0  0  0  0  0
  140.2398   75.8546  221.2965 H   0  0  0  0  0  0  0  0  0  0  0  0
  139.2718   74.6763  220.3157 H   0  0  0  0  0  0  0  0  0  0  0  0
  136.5324   78.5332  222.1535 H   0  0  0  0  0  0  0  0  0  0  0  0
  137.0672   77.6393  223.5787 H   0  0  0  0  0  0  0  0  0  0  0  0
  138.8547   79.2894  224.0274 H   0  0  0  0  0  0  0  0  0  0  0  0
  136.9380   80.7940  222.4980 H   0  0  0  0  0  0  0  0  0  0  0  0
  138.4579   80.0999  221.0603 H   0  0  0  0  0  0  0  0  0  0  0  0
  139.9185   80.3067  221.9864 H   0  0  0  0  0  0  0  0  0  0  0  0
  139.7227   78.1888  220.4156 H   0  0  0  0  0  0  0  0  0  0  0  0
  140.2232   77.1739  223.1649 H   0  0  0  0  0  0  0  0  0  0  0  0
  141.2302   77.0997  221.6422 H   0  0  0  0  0  0  0  0  0  0  0  0
  141.1310   78.6492  224.9463 H   0  0  0  0  0  0  0  0  0  0  0  0
  142.8549   80.6755  225.0339 H   0  0  0  0  0  0  0  0  0  0  0  0
  143.6279   81.2769  222.5265 H   0  0  0  0  0  0  0  0  0  0  0  0
  142.3148   79.5487  220.9235 H   0  0  0  0  0  0  0  0  0  0  0  0
  139.1013   70.3241  221.8438 H   0  0  0  0  0  0  0  0  0  0  0  0
  139.2404   68.6035  223.6162 H   0  0  0  0  0  0  0  0  0  0  0  0
  139.8632   68.0679  225.9650 H   0  0  0  0  0  0  0  0  0  0  0  0
  141.4599   71.1620  228.4938 H   0  0  0  0  0  0  0  0  0  0  0  0
  141.2610   72.7844  226.6062 H   0  0  0  0  0  0  0  0  0  0  0  0
  1  2  2  0
  2  3  1  0
  3  4  1  0
  4  5  1  0
  5  6  2  0
  5  7  1  0
  7  8  1  0
  8  9  1  0
  9 10  1  0
  9 11  1  0
 11 12  1  0
 12 13  1  0
 13 14  1  0
 14 15  1  0
 15 16  2  0
 16 17  1  0
 17 18  2  0
  2 19  1  0
 19 20  2  0
 20 21  1  0
 21 22  2  0
 22 23  1  0
 23 24  2  0
 24 25  1  0
 24 26  1  0
 26 27  2  0
 27 28  1  0
 28 29  2  0
 12  7  1  0
 18 14  1  0
 29 19  1  0
 28 22  1  0
  3 30  1  0
  4 31  1  0
  4 32  1  0
  8 33  1  0
  8 34  1  0
  9 35  1  1
 10 36  1  0
 11 37  1  0
 11 38  1  0
 12 39  1  6
 13 40  1  0
 13 41  1  0
 15 42  1  0
 16 43  1  0
 17 44  1  0
 18 45  1  0
 20 46  1  0
 21 47  1  0
 23 48  1  0
 26 49  1  0
 27 50  1  0
M  END
>  <smiles>  (9) 
O=C(NCC(=O)N1C[C@H](O)C[C@H]1Cn1cccc1)c1ccc2cc(Cl)ccc2n1

>  <score_type>  (9) 
oracle

>  <origin>  (9) 
autodockgpu

>  <m_score__min__energy>  (9) 
-8.1199999999999992

>  <m_primary>  (9) 
energy

>  <rmsd>  (9) 
3.2036290286019833

>  <m_score__min__rmsd>  (9) 
3.2036290286019833

>  <meeko>  (9) 
{"free_energy": -7.63, "intermolecular_energy": -9.72, "internal_energy": -1.23, "cluster_size": 13, "cluster_id": 3, "rank_in_cluster": 9}

>  <energy>  (9) 
-7.56

>  <cluster_rmsd>  (9) 
0.4

>  <cluster>  (9) 
1

$$$$

     RDKit          3D

 50 53  0  0  0  0  0  0  0  0999 V2000
  135.3900   68.5210  224.9880 O   0  0  0  0  0  0  0  0  0  0  0  0
  135.3410   69.6480  224.4590 C   0  0  0  0  0  0  0  0  0  0  0  0
  135.9250   69.8810  223.1810 N   0  0  0  0  0  0  0  0  0  0  0  0
  136.5720   68.7830  222.5150 C   0  0  0  0  0  0  0  0  0  0  0  0
  137.9690   68.5760  223.0180 C   0  0  0  0  0  0  0  0  0  0  0  0
  138.4230   67.4050  223.1940 O   0  0  0  0  0  0  0  0  0  0  0  0
  138.7540   69.7320  223.2860 N   0  0  0  0  0  0  0  0  0  0  0  0
  138.6650   71.0450  222.6260 C   0  0  0  0  0  0  0  0  0  0  0  0
  139.4400   71.9770  223.5040 C   0  0  2  0  0  0  0  0  0  0  0  0
  139.9560   72.9780  222.6790 O   0  0  0  0  0  0  0  0  0  0  0  0
  140.5570   71.0460  223.9860 C   0  0  0  0  0  0  0  0  0  0  0  0
  139.7970   69.7910  224.2860 C   0  0  1  0  0  0  0  0  0  0  0  0
  139.0970   69.8620  225.6260 C   0  0  0  0  0  0  0  0  0  0  0  0
  139.7940   69.1630  226.6750 N   0  0  0  0  0  0  0  0  0  0  0  0
  140.6480   68.1410  226.4910 C   0  0  0  0  0  0  0  0  0  0  0  0
  141.0910   67.7630  227.7380 C   0  0  0  0  0  0  0  0  0  0  0  0
  140.5070   68.5580  228.7120 C   0  0  0  0  0  0  0  0  0  0  0  0
  139.6940   69.4310  228.0040 C   0  0  0  0  0  0  0  0  0  0  0  0
  134.6820   70.7800  225.1290 C   0  0  0  0  0  0  0  0  0  0  0  0
  133.7470   70.5360  226.1290 C   0  0  0  0  0  0  0  0  0  0  0  0
  133.1020   71.5560  226.7860 C   0  0  0  0  0  0  0  0  0  0  0  0
  133.4020   72.8460  226.4330 C   0  0  0  0  0  0  0  0  0  0  0  0
  132.8170   73.9510  227.0260 C   0  0  0  0  0  0  0  0  0  0  0  0
  133.1440   75.2320  226.6440 C   0  0  0  0  0  0  0  0  0  0  0  0
  132.4210   76.6430  227.3740 Cl  0  0  0  0  0  0  0  0  0  0  0  0
  134.0860   75.4480  225.6370 C   0  0  0  0  0  0  0  0  0  0  0  0
  134.6840   74.3550  225.0310 C   0  0  0  0  0  0  0  0  0  0  0  0
  134.3360   73.0710  225.4360 C   0  0  0  0  0  0  0  0  0  0  0  0
  134.9600   72.0560  224.8000 N   0  0  0  0  0  0  0  0  0  0  0  0
  135.8600   70.8510  222.7700 H   0  0  0  0  0  0  0  0  0  0  0  0
  135.9901   67.8663  222.6910 H   0  0  0  0  0  0  0  0  0  0  0  0
  136.6248   69.0158  221.4412 H   0  0  0  0  0  0  0  0  0  0  0  0
  139.1094   71.0026  221.6207 H   0  0  0  0  0  0  0  0  0  0  0  0
  137.6225   71.3715  222.4976 H   0  0  0  0  0  0  0  0  0  0  0  0
  138.8891   72.4638  224.3223 H   0  0  0  0  0  0  0  0  0  0  0  0
  139.5220   73.8580  222.8060 H   0  0  0  0  0  0  0  0  0  0  0  0
  141.3090   70.8814  223.2002 H   0  0  0  0  0  0  0  0  0  0  0  0
  141.1276   71.4380  224.8409 H   0  0  0  0  0  0  0  0  0  0  0  0
  140.4847   68.9325  224.2926 H   0  0  0  0  0  0  0  0  0  0  0  0
  139.0033   70.9194  225.9145 H   0  0  0  0  0  0  0  0  0  0  0  0
  138.1182   69.3744  225.5065 H   0  0  0  0  0  0  0  0  0  0  0  0
  140.9370   67.6931  225.5288 H   0  0  0  0  0  0  0  0  0  0  0  0
  141.8044   66.9488  227.9333 H   0  0  0  0  0  0  0  0  0  0  0  0
  140.6549   68.5079  229.8009 H   0  0  0  0  0  0  0  0  0  0  0  0
  139.0664   70.2174  228.4486 H   0  0  0  0  0  0  0  0  0  0  0  0
  133.5169   69.4956  226.4022 H   0  0  0  0  0  0  0  0  0  0  0  0
  132.3647   71.3430  227.5741 H   0  0  0  0  0  0  0  0  0  0  0  0
  132.0726   73.8018  227.8220 H   0  0  0  0  0  0  0  0  0  0  0  0
  134.3496   76.4706  225.3291 H   0  0  0  0  0  0  0  0  0  0  0  0
  135.4289   74.5019  224.2350 H   0  0  0  0  0  0  0  0  0  0  0  0
  1  2  2  0
  2  3  1  0
  3  4  1  0
  4  5  1  0
  5  6  2  0
  5  7  1  0
  7  8  1  0
  8  9  1  0
  9 10  1  0
  9 11  1  0
 11 12  1  0
 12 13  1  0
 13 14  1  0
 14 15  1  0
 15 16  2  0
 16 17  1  0
 17 18  2  0
  2 19  1  0
 19 20  2  0
 20 21  1  0
 21 22  2  0
 22 23  1  0
 23 24  2  0
 24 25  1  0
 24 26  1  0
 26 27  2  0
 27 28  1  0
 28 29  2  0
 12  7  1  0
 18 14  1  0
 29 19  1  0
 28 22  1  0
  3 30  1  0
  4 31  1  0
  4 32  1  0
  8 33  1  0
  8 34  1  0
  9 35  1  1
 10 36  1  0
 11 37  1  0
 11 38  1  0
 12 39  1  1
 13 40  1  0
 13 41  1  0
 15 42  1  0
 16 43  1  0
 17 44  1  0
 18 45  1  0
 20 46  1  0
 21 47  1  0
 23 48  1  0
 26 49  1  0
 27 50  1  0
M  END
>  <smiles>  (10) 
O=C(NCC(=O)N1C[C@H](O)C[C@H]1Cn1cccc1)c1ccc2cc(Cl)ccc2n1

>  <score_type>  (10) 
oracle

>  <origin>  (10) 
autodockgpu

>  <m_score__min__energy>  (10) 
-8.1199999999999992

>  <m_primary>  (10) 
energy

>  <rmsd>  (10) 
8.788165094583524

>  <m_score__min__rmsd>  (10) 
8.788165094583524

>  <meeko>  (10) 
{"free_energy": -7.11, "intermolecular_energy": -9.2, "internal_energy": -1.88, "cluster_size": 12, "cluster_id": 7, "rank_in_cluster": 11}

>  <energy>  (10) 
-7.55

>  <cluster_rmsd>  (10) 
0.48

>  <cluster>  (10) 
1

$$$$

     RDKit          3D

 50 53  0  0  0  0  0  0  0  0999 V2000
  140.3390   72.4290  220.5990 O   0  0  0  0  0  0  0  0  0  0  0  0
  140.0950   72.8060  221.7620 C   0  0  0  0  0  0  0  0  0  0  0  0
  139.8130   74.1740  222.0420 N   0  0  0  0  0  0  0  0  0  0  0  0
  139.8150   75.1090  220.9500 C   0  0  0  0  0  0  0  0  0  0  0  0
  140.8440   76.1840  221.1430 C   0  0  0  0  0  0  0  0  0  0  0  0
  141.0280   76.7020  222.2860 O   0  0  0  0  0  0  0  0  0  0  0  0
  141.5960   76.5910  220.0050 N   0  0  0  0  0  0  0  0  0  0  0  0
  141.6380   77.9290  219.3930 C   0  0  0  0  0  0  0  0  0  0  0  0
  142.8210   77.9030  218.4780 C   0  0  2  0  0  0  0  0  0  0  0  0
  142.5480   78.7890  217.4350 O   0  0  0  0  0  0  0  0  0  0  0  0
  142.7650   76.4540  217.9850 C   0  0  0  0  0  0  0  0  0  0  0  0
  142.4660   75.7150  219.2520 C   0  0  1  0  0  0  0  0  0  0  0  0
  143.7070   75.5180  220.0970 C   0  0  0  0  0  0  0  0  0  0  0  0
  144.1100   74.1400  220.2120 N   0  0  0  0  0  0  0  0  0  0  0  0
  143.2850   73.1100  220.4670 C   0  0  0  0  0  0  0  0  0  0  0  0
  144.0630   71.9750  220.4950 C   0  0  0  0  0  0  0  0  0  0  0  0
  145.3890   72.3000  220.2540 C   0  0  0  0  0  0  0  0  0  0  0  0
  145.3810   73.6770  220.0800 C   0  0  0  0  0  0  0  0  0  0  0  0
  140.0900   71.8600  222.8880 C   0  0  0  0  0  0  0  0  0  0  0  0
  139.5820   70.5790  222.7050 C   0  0  0  0  0  0  0  0  0  0  0  0
  139.5530   69.6560  223.7240 C   0  0  0  0  0  0  0  0  0  0  0  0
  140.0420   70.0270  224.9490 C   0  0  0  0  0  0  0  0  0  0  0  0
  140.0630   69.1830  226.0460 C   0  0  0  0  0  0  0  0  0  0  0  0
  140.5630   69.5920  227.2610 C   0  0  0  0  0  0  0  0  0  0  0  0
  140.6020   68.5500  228.6590 Cl  0  0  0  0  0  0  0  0  0  0  0  0
  141.0660   70.8850  227.4160 C   0  0  0  0  0  0  0  0  0  0  0  0
  141.0540   71.7450  226.3300 C   0  0  0  0  0  0  0  0  0  0  0  0
  140.5440   71.3070  225.1130 C   0  0  0  0  0  0  0  0  0  0  0  0
  140.5650   72.2000  224.1010 N   0  0  0  0  0  0  0  0  0  0  0  0
  139.6120   74.4490  223.0400 H   0  0  0  0  0  0  0  0  0  0  0  0
  140.0348   74.5681  220.0177 H   0  0  0  0  0  0  0  0  0  0  0  0
  138.8248   75.5858  220.9044 H   0  0  0  0  0  0  0  0  0  0  0  0
  140.7156   78.1233  218.8260 H   0  0  0  0  0  0  0  0  0  0  0  0
  141.7189   78.7248  220.1481 H   0  0  0  0  0  0  0  0  0  0  0  0
  143.7923   78.1819  218.9124 H   0  0  0  0  0  0  0  0  0  0  0  0
  143.3550   79.2310  217.0690 H   0  0  0  0  0  0  0  0  0  0  0  0
  141.9670   76.3139  217.2410 H   0  0  0  0  0  0  0  0  0  0  0  0
  143.6816   76.1187  217.4776 H   0  0  0  0  0  0  0  0  0  0  0  0
  142.0409   74.7284  219.0155 H   0  0  0  0  0  0  0  0  0  0  0  0
  144.5321   76.0854  219.6417 H   0  0  0  0  0  0  0  0  0  0  0  0
  143.4679   75.8713  221.1109 H   0  0  0  0  0  0  0  0  0  0  0  0
  142.1975   73.1638  220.6232 H   0  0  0  0  0  0  0  0  0  0  0  0
  143.6874   70.9581  220.6814 H   0  0  0  0  0  0  0  0  0  0  0  0
  146.2526   71.6200  220.2105 H   0  0  0  0  0  0  0  0  0  0  0  0
  146.2649   74.2966  219.8684 H   0  0  0  0  0  0  0  0  0  0  0  0
  139.1919   70.2954  221.7164 H   0  0  0  0  0  0  0  0  0  0  0  0
  139.1479   68.6465  223.5600 H   0  0  0  0  0  0  0  0  0  0  0  0
  139.6704   68.1605  225.9440 H   0  0  0  0  0  0  0  0  0  0  0  0
  141.4658   71.2160  228.3858 H   0  0  0  0  0  0  0  0  0  0  0  0
  141.4456   72.7681  226.4299 H   0  0  0  0  0  0  0  0  0  0  0  0
  1  2  2  0
  2  3  1  0
  3  4  1  0
  4  5  1  0
  5  6  2  0
  5  7  1  0
  7  8  1  0
  8  9  1  0
  9 10  1  0
  9 11  1  0
 11 12  1  0
 12 13  1  0
 13 14  1  0
 14 15  1  0
 15 16  2  0
 16 17  1  0
 17 18  2  0
  2 19  1  0
 19 20  2  0
 20 21  1  0
 21 22  2  0
 22 23  1  0
 23 24  2  0
 24 25  1  0
 24 26  1  0
 26 27  2  0
 27 28  1  0
 28 29  2  0
 12  7  1  0
 18 14  1  0
 29 19  1  0
 28 22  1  0
  3 30  1  0
  4 31  1  0
  4 32  1  0
  8 33  1  0
  8 34  1  0
  9 35  1  1
 10 36  1  0
 11 37  1  0
 11 38  1  0
 12 39  1  6
 13 40  1  0
 13 41  1  0
 15 42  1  0
 16 43  1  0
 17 44  1  0
 18 45  1  0
 20 46  1  0
 21 47  1  0
 23 48  1  0
 26 49  1  0
 27 50  1  0
M  END
>  <smiles>  (11) 
O=C(NCC(=O)N1C[C@H](O)C[C@H]1Cn1cccc1)c1ccc2cc(Cl)ccc2n1

>  <score_type>  (11) 
oracle

>  <origin>  (11) 
autodockgpu

>  <m_score__min__energy>  (11) 
-8.1199999999999992

>  <m_primary>  (11) 
energy

>  <rmsd>  (11) 
4.308133215253672

>  <m_score__min__rmsd>  (11) 
4.308133215253672

>  <meeko>  (11) 
{"free_energy": -8.07, "intermolecular_energy": -10.16, "internal_energy": -1.86, "cluster_size": 11, "cluster_id": 1, "rank_in_cluster": 2}

>  <energy>  (11) 
-6.8

>  <cluster_rmsd>  (11) 
0.72

>  <cluster>  (11) 
1

$$$$

     RDKit          3D

 50 53  0  0  0  0  0  0  0  0999 V2000
  139.2960   72.0260  220.5500 O   0  0  0  0  0  0  0  0  0  0  0  0
  139.8080   72.3950  221.6250 C   0  0  0  0  0  0  0  0  0  0  0  0
  140.3850   73.6920  221.7520 N   0  0  0  0  0  0  0  0  0  0  0  0
  140.3610   74.5650  220.6090 C   0  0  0  0  0  0  0  0  0  0  0  0
  141.0800   75.8520  220.8810 C   0  0  0  0  0  0  0  0  0  0  0  0
  141.0970   76.3460  222.0490 O   0  0  0  0  0  0  0  0  0  0  0  0
  141.7340   76.4880  219.7890 N   0  0  0  0  0  0  0  0  0  0  0  0
  141.5270   77.8600  219.2990 C   0  0  0  0  0  0  0  0  0  0  0  0
  142.6860   78.1300  218.3910 C   0  0  2  0  0  0  0  0  0  0  0  0
  142.2470   79.0410  217.4290 O   0  0  0  0  0  0  0  0  0  0  0  0
  142.8870   76.7440  217.7710 C   0  0  0  0  0  0  0  0  0  0  0  0
  142.7390   75.8530  218.9650 C   0  0  1  0  0  0  0  0  0  0  0  0
  144.0040   75.8090  219.7960 C   0  0  0  0  0  0  0  0  0  0  0  0
  144.3240   74.4940  220.2870 N   0  0  0  0  0  0  0  0  0  0  0  0
  145.5010   74.1330  220.8260 C   0  0  0  0  0  0  0  0  0  0  0  0
  145.3940   72.8020  221.1630 C   0  0  0  0  0  0  0  0  0  0  0  0
  144.1340   72.3280  220.8310 C   0  0  0  0  0  0  0  0  0  0  0  0
  143.4860   73.4240  220.2800 C   0  0  0  0  0  0  0  0  0  0  0  0
  139.8380   71.5120  222.8010 C   0  0  0  0  0  0  0  0  0  0  0  0
  139.2660   70.2480  222.7250 C   0  0  0  0  0  0  0  0  0  0  0  0
  139.2660   69.3840  223.7950 C   0  0  0  0  0  0  0  0  0  0  0  0
  139.8530   69.7980  224.9620 C   0  0  0  0  0  0  0  0  0  0  0  0
  139.9130   69.0140  226.1010 C   0  0  0  0  0  0  0  0  0  0  0  0
  140.5120   69.4650  227.2550 C   0  0  0  0  0  0  0  0  0  0  0  0
  140.6020   68.4980  228.7050 Cl  0  0  0  0  0  0  0  0  0  0  0  0
  141.0790   70.7390  227.3030 C   0  0  0  0  0  0  0  0  0  0  0  0
  141.0300   71.5390  226.1730 C   0  0  0  0  0  0  0  0  0  0  0  0
  140.4200   71.0600  225.0200 C   0  0  0  0  0  0  0  0  0  0  0  0
  140.4090   71.8960  223.9590 N   0  0  0  0  0  0  0  0  0  0  0  0
  140.8070   73.9630  222.6800 H   0  0  0  0  0  0  0  0  0  0  0  0
  140.8460   74.0574  219.7622 H   0  0  0  0  0  0  0  0  0  0  0  0
  139.3115   74.7999  220.3781 H   0  0  0  0  0  0  0  0  0  0  0  0
  140.5786   77.9336  218.7466 H   0  0  0  0  0  0  0  0  0  0  0  0
  141.4710   78.5872  220.1224 H   0  0  0  0  0  0  0  0  0  0  0  0
  143.5954   78.5408  218.8539 H   0  0  0  0  0  0  0  0  0  0  0  0
  142.9670   79.3690  216.8360 H   0  0  0  0  0  0  0  0  0  0  0  0
  142.1198   76.5289  217.0126 H   0  0  0  0  0  0  0  0  0  0  0  0
  143.8441   76.6261  217.2418 H   0  0  0  0  0  0  0  0  0  0  0  0
  142.4955   74.8311  218.6387 H   0  0  0  0  0  0  0  0  0  0  0  0
  144.8407   76.1618  219.1752 H   0  0  0  0  0  0  0  0  0  0  0  0
  143.8363   76.4499  220.6741 H   0  0  0  0  0  0  0  0  0  0  0  0
  146.3810   74.7771  220.9703 H   0  0  0  0  0  0  0  0  0  0  0  0
  146.1911   72.2029  221.6274 H   0  0  0  0  0  0  0  0  0  0  0  0
  143.7375   71.3118  220.9726 H   0  0  0  0  0  0  0  0  0  0  0  0
  142.4548   73.4266  219.8972 H   0  0  0  0  0  0  0  0  0  0  0  0
  138.7995   69.9290  221.7813 H   0  0  0  0  0  0  0  0  0  0  0  0
  138.8071   68.3874  223.7162 H   0  0  0  0  0  0  0  0  0  0  0  0
  139.4715   68.0066  226.0834 H   0  0  0  0  0  0  0  0  0  0  0  0
  141.5577   71.1027  228.2242 H   0  0  0  0  0  0  0  0  0  0  0  0
  141.4710   72.5466  226.1884 H   0  0  0  0  0  0  0  0  0  0  0  0
  1  2  2  0
  2  3  1  0
  3  4  1  0
  4  5  1  0
  5  6  2  0
  5  7  1  0
  7  8  1  0
  8  9  1  0
  9 10  1  0
  9 11  1  0
 11 12  1  0
 12 13  1  0
 13 14  1  0
 14 15  1  0
 15 16  2  0
 16 17  1  0
 17 18  2  0
  2 19  1  0
 19 20  2  0
 20 21  1  0
 21 22  2  0
 22 23  1  0
 23 24  2  0
 24 25  1  0
 24 26  1  0
 26 27  2  0
 27 28  1  0
 28 29  2  0
 12  7  1  0
 18 14  1  0
 29 19  1  0
 28 22  1  0
  3 30  1  0
  4 31  1  0
  4 32  1  0
  8 33  1  0
  8 34  1  0
  9 35  1  1
 10 36  1  0
 11 37  1  0
 11 38  1  0
 12 39  1  6
 13 40  1  0
 13 41  1  0
 15 42  1  0
 16 43  1  0
 17 44  1  0
 18 45  1  0
 20 46  1  0
 21 47  1  0
 23 48  1  0
 26 49  1  0
 27 50  1  0
M  END
>  <smiles>  (12) 
O=C(NCC(=O)N1C[C@H](O)C[C@H]1Cn1cccc1)c1ccc2cc(Cl)ccc2n1

>  <score_type>  (12) 
oracle

>  <origin>  (12) 
autodockgpu

>  <m_score__min__energy>  (12) 
-8.1199999999999992

>  <m_primary>  (12) 
energy

>  <rmsd>  (12) 
4.196950969446628

>  <m_score__min__rmsd>  (12) 
4.196950969446628

>  <meeko>  (12) 
{"free_energy": -7.55, "intermolecular_energy": -9.63, "internal_energy": -2.1, "cluster_size": 11, "cluster_id": 1, "rank_in_cluster": 10}

>  <energy>  (12) 
-8.0

>  <cluster_rmsd>  (12) 
0.0

>  <cluster>  (12) 
2

$$$$

     RDKit          3D

 50 53  0  0  0  0  0  0  0  0999 V2000
  134.9990   68.3820  224.8220 O   0  0  0  0  0  0  0  0  0  0  0  0
  135.2020   69.5170  224.3500 C   0  0  0  0  0  0  0  0  0  0  0  0
  135.9610   69.6870  223.1560 N   0  0  0  0  0  0  0  0  0  0  0  0
  136.4860   68.5160  222.5080 C   0  0  0  0  0  0  0  0  0  0  0  0
  137.9800   68.4440  222.6200 C   0  0  0  0  0  0  0  0  0  0  0  0
  138.5940   67.3640  222.3670 O   0  0  0  0  0  0  0  0  0  0  0  0
  138.6700   69.6240  223.0150 N   0  0  0  0  0  0  0  0  0  0  0  0
  138.5380   70.9720  222.4390 C   0  0  0  0  0  0  0  0  0  0  0  0
  139.1960   71.8850  223.4260 C   0  0  2  0  0  0  0  0  0  0  0  0
  139.6960   72.9710  222.7070 O   0  0  0  0  0  0  0  0  0  0  0  0
  140.3380   70.9910  223.9190 C   0  0  0  0  0  0  0  0  0  0  0  0
  139.6440   69.6750  224.0840 C   0  0  1  0  0  0  0  0  0  0  0  0
  138.8590   69.6090  225.3770 C   0  0  0  0  0  0  0  0  0  0  0  0
  139.6680   69.2940  226.5250 N   0  0  0  0  0  0  0  0  0  0  0  0
  139.9450   68.0520  226.9610 C   0  0  0  0  0  0  0  0  0  0  0  0
  140.7430   68.1900  228.0740 C   0  0  0  0  0  0  0  0  0  0  0  0
  140.9680   69.5320  228.3360 C   0  0  0  0  0  0  0  0  0  0  0  0
  140.2740   70.2000  227.3370 C   0  0  0  0  0  0  0  0  0  0  0  0
  134.6700   70.7230  225.0020 C   0  0  0  0  0  0  0  0  0  0  0  0
  133.7010   70.5980  225.9900 C   0  0  0  0  0  0  0  0  0  0  0  0
  133.1700   71.6930  226.6320 C   0  0  0  0  0  0  0  0  0  0  0  0
  133.6210   72.9350  226.2720 C   0  0  0  0  0  0  0  0  0  0  0  0
  133.1600   74.1060  226.8480 C   0  0  0  0  0  0  0  0  0  0  0  0
  133.6370   75.3370  226.4610 C   0  0  0  0  0  0  0  0  0  0  0  0
  133.0730   76.8290  227.1700 Cl  0  0  0  0  0  0  0  0  0  0  0  0
  134.6110   75.4330  225.4660 C   0  0  0  0  0  0  0  0  0  0  0  0
  135.0860   74.2730  224.8770 C   0  0  0  0  0  0  0  0  0  0  0  0
  134.5870   73.0420  225.2860 C   0  0  0  0  0  0  0  0  0  0  0  0
  135.0970   71.9560  224.6670 N   0  0  0  0  0  0  0  0  0  0  0  0
  136.1080   70.6660  222.7910 H   0  0  0  0  0  0  0  0  0  0  0  0
  136.0496   67.6223  222.9780 H   0  0  0  0  0  0  0  0  0  0  0  0
  136.2237   68.5674  221.4409 H   0  0  0  0  0  0  0  0  0  0  0  0
  139.0454   71.0268  221.4646 H   0  0  0  0  0  0  0  0  0  0  0  0
  137.4866   71.2438  222.2640 H   0  0  0  0  0  0  0  0  0  0  0  0
  138.5650   72.2793  224.2361 H   0  0  0  0  0  0  0  0  0  0  0  0
  139.2030   73.8140  222.8680 H   0  0  0  0  0  0  0  0  0  0  0  0
  141.1467   70.9274  223.1761 H   0  0  0  0  0  0  0  0  0  0  0  0
  140.8271   71.3556  224.8343 H   0  0  0  0  0  0  0  0  0  0  0  0
  140.3841   68.8613  224.0789 H   0  0  0  0  0  0  0  0  0  0  0  0
  138.3820   70.5859  225.5448 H   0  0  0  0  0  0  0  0  0  0  0  0
  138.1234   68.7985  225.2676 H   0  0  0  0  0  0  0  0  0  0  0  0
  139.6002   67.1079  226.5141 H   0  0  0  0  0  0  0  0  0  0  0  0
  141.1438   67.3562  228.6690 H   0  0  0  0  0  0  0  0  0  0  0  0
  141.5625   69.9691  229.1517 H   0  0  0  0  0  0  0  0  0  0  0  0
  140.2224   71.2926  227.2205 H   0  0  0  0  0  0  0  0  0  0  0  0
  133.3479   69.5937  226.2671 H   0  0  0  0  0  0  0  0  0  0  0  0
  132.4044   71.5741  227.4128 H   0  0  0  0  0  0  0  0  0  0  0  0
  132.3932   74.0511  227.6348 H   0  0  0  0  0  0  0  0  0  0  0  0
  134.9956   76.4153  225.1543 H   0  0  0  0  0  0  0  0  0  0  0  0
  135.8533   74.3256  224.0905 H   0  0  0  0  0  0  0  0  0  0  0  0
  1  2  2  0
  2  3  1  0
  3  4  1  0
  4  5  1  0
  5  6  2  0
  5  7  1  0
  7  8  1  0
  8  9  1  0
  9 10  1  0
  9 11  1  0
 11 12  1  0
 12 13  1  0
 13 14  1  0
 14 15  1  0
 15 16  2  0
 16 17  1  0
 17 18  2  0
  2 19  1  0
 19 20  2  0
 20 21  1  0
 21 22  2  0
 22 23  1  0
 23 24  2  0
 24 25  1  0
 24 26  1  0
 26 27  2  0
 27 28  1  0
 28 29  2  0
 12  7  1  0
 18 14  1  0
 29 19  1  0
 28 22  1  0
  3 30  1  0
  4 31  1  0
  4 32  1  0
  8 33  1  0
  8 34  1  0
  9 35  1  1
 10 36  1  0
 11 37  1  0
 11 38  1  0
 12 39  1  6
 13 40  1  0
 13 41  1  0
 15 42  1  0
 16 43  1  0
 17 44  1  0
 18 45  1  0
 20 46  1  0
 21 47  1  0
 23 48  1  0
 26 49  1  0
 27 50  1  0
M  END
>  <smiles>  (13) 
O=C(NCC(=O)N1C[C@H](O)C[C@H]1Cn1cccc1)c1ccc2cc(Cl)ccc2n1

>  <score_type>  (13) 
oracle

>  <origin>  (13) 
autodockgpu

>  <m_score__min__energy>  (13) 
-8.1199999999999992

>  <m_primary>  (13) 
energy

>  <rmsd>  (13) 
8.573100435392881

>  <m_score__min__rmsd>  (13) 
8.573100435392881

>  <meeko>  (13) 
{"free_energy": -7.26, "intermolecular_energy": -9.35, "internal_energy": -1.91, "cluster_size": 12, "cluster_id": 7, "rank_in_cluster": 4}

>  <energy>  (13) 
-7.96

>  <cluster_rmsd>  (13) 
0.89

>  <cluster>  (13) 
2

$$$$

     RDKit          3D

 50 53  0  0  0  0  0  0  0  0999 V2000
  140.2580   72.5840  220.5220 O   0  0  0  0  0  0  0  0  0  0  0  0
  140.0340   72.9240  221.7000 C   0  0  0  0  0  0  0  0  0  0  0  0
  139.7480   74.2820  222.0260 N   0  0  0  0  0  0  0  0  0  0  0  0
  139.7240   75.2490  220.9620 C   0  0  0  0  0  0  0  0  0  0  0  0
  140.8350   76.2480  221.0970 C   0  0  0  0  0  0  0  0  0  0  0  0
  141.1270   76.7360  222.2310 O   0  0  0  0  0  0  0  0  0  0  0  0
  141.5370   76.6190  219.9170 N   0  0  0  0  0  0  0  0  0  0  0  0
  141.4490   77.8940  219.1880 C   0  0  0  0  0  0  0  0  0  0  0  0
  142.6230   77.8960  218.2600 C   0  0  2  0  0  0  0  0  0  0  0  0
  142.2610   78.6550  217.1460 O   0  0  0  0  0  0  0  0  0  0  0  0
  142.7000   76.4100  217.8990 C   0  0  0  0  0  0  0  0  0  0  0  0
  142.4800   75.7630  219.2310 C   0  0  1  0  0  0  0  0  0  0  0  0
  143.7400   75.7590  220.0720 C   0  0  0  0  0  0  0  0  0  0  0  0
  144.2190   74.4370  220.3830 N   0  0  0  0  0  0  0  0  0  0  0  0
  143.4500   73.3390  220.4860 C   0  0  0  0  0  0  0  0  0  0  0  0
  144.2900   72.2930  220.7920 C   0  0  0  0  0  0  0  0  0  0  0  0
  145.5990   72.7430  220.8810 C   0  0  0  0  0  0  0  0  0  0  0  0
  145.5150   74.1020  220.6160 C   0  0  0  0  0  0  0  0  0  0  0  0
  140.0550   71.9450  222.7960 C   0  0  0  0  0  0  0  0  0  0  0  0
  139.5650   70.6620  222.5800 C   0  0  0  0  0  0  0  0  0  0  0  0
  139.5610   69.7080  223.5710 C   0  0  0  0  0  0  0  0  0  0  0  0
  140.0580   70.0510  224.8010 C   0  0  0  0  0  0  0  0  0  0  0  0
  140.1050   69.1740  225.8710 C   0  0  0  0  0  0  0  0  0  0  0  0
  140.6120   69.5540  227.0930 C   0  0  0  0  0  0  0  0  0  0  0  0
  140.6820   68.4710  228.4590 Cl  0  0  0  0  0  0  0  0  0  0  0  0
  141.0960   70.8490  227.2820 C   0  0  0  0  0  0  0  0  0  0  0  0
  141.0590   71.7410  226.2230 C   0  0  0  0  0  0  0  0  0  0  0  0
  140.5420   71.3320  224.9990 C   0  0  0  0  0  0  0  0  0  0  0  0
  140.5380   72.2560  224.0140 N   0  0  0  0  0  0  0  0  0  0  0  0
  139.5640   74.5250  223.0360 H   0  0  0  0  0  0  0  0  0  0  0  0
  139.8305   74.7247  220.0009 H   0  0  0  0  0  0  0  0  0  0  0  0
  138.7676   75.7901  221.0111 H   0  0  0  0  0  0  0  0  0  0  0  0
  140.5084   77.9499  218.6205 H   0  0  0  0  0  0  0  0  0  0  0  0
  141.4605   78.7585  219.8680 H   0  0  0  0  0  0  0  0  0  0  0  0
  143.5666   78.3025  218.6529 H   0  0  0  0  0  0  0  0  0  0  0  0
  143.0120   79.1690  216.7550 H   0  0  0  0  0  0  0  0  0  0  0  0
  141.9138   76.1301  217.1824 H   0  0  0  0  0  0  0  0  0  0  0  0
  143.6408   76.1172  217.4100 H   0  0  0  0  0  0  0  0  0  0  0  0
  142.1475   74.7241  219.0889 H   0  0  0  0  0  0  0  0  0  0  0  0
  144.5277   76.2942  219.5215 H   0  0  0  0  0  0  0  0  0  0  0  0
  143.4933   76.2466  221.0267 H   0  0  0  0  0  0  0  0  0  0  0  0
  142.3595   73.2869  220.3515 H   0  0  0  0  0  0  0  0  0  0  0  0
  143.9700   71.2516  220.9439 H   0  0  0  0  0  0  0  0  0  0  0  0
  146.5001   72.1551  221.1100 H   0  0  0  0  0  0  0  0  0  0  0  0
  146.3652   74.7998  220.5974 H   0  0  0  0  0  0  0  0  0  0  0  0
  139.1688   70.4021  221.5873 H   0  0  0  0  0  0  0  0  0  0  0  0
  139.1696   68.6976  223.3813 H   0  0  0  0  0  0  0  0  0  0  0  0
  139.7281   68.1487  225.7416 H   0  0  0  0  0  0  0  0  0  0  0  0
  141.5008   71.1569  228.2574 H   0  0  0  0  0  0  0  0  0  0  0  0
  141.4363   72.7665  226.3497 H   0  0  0  0  0  0  0  0  0  0  0  0
  1  2  2  0
  2  3  1  0
  3  4  1  0
  4  5  1  0
  5  6  2  0
  5  7  1  0
  7  8  1  0
  8  9  1  0
  9 10  1  0
  9 11  1  0
 11 12  1  0
 12 13  1  0
 13 14  1  0
 14 15  1  0
 15 16  2  0
 16 17  1  0
 17 18  2  0
  2 19  1  0
 19 20  2  0
 20 21  1  0
 21 22  2  0
 22 23  1  0
 23 24  2  0
 24 25  1  0
 24 26  1  0
 26 27  2  0
 27 28  1  0
 28 29  2  0
 12  7  1  0
 18 14  1  0
 29 19  1  0
 28 22  1  0
  3 30  1  0
  4 31  1  0
  4 32  1  0
  8 33  1  0
  8 34  1  0
  9 35  1  1
 10 36  1  0
 11 37  1  0
 11 38  1  0
 12 39  1  6
 13 40  1  0
 13 41  1  0
 15 42  1  0
 16 43  1  0
 17 44  1  0
 18 45  1  0
 20 46  1  0
 21 47  1  0
 23 48  1  0
 26 49  1  0
 27 50  1  0
M  END
>  <smiles>  (14) 
O=C(NCC(=O)N1C[C@H](O)C[C@H]1Cn1cccc1)c1ccc2cc(Cl)ccc2n1

>  <score_type>  (14) 
oracle

>  <origin>  (14) 
autodockgpu

>  <m_score__min__energy>  (14) 
-8.1199999999999992

>  <m_primary>  (14) 
energy

>  <rmsd>  (14) 
4.212884526243503

>  <m_score__min__rmsd>  (14) 
4.212884526243503

>  <meeko>  (14) 
{"free_energy": -8.05, "intermolecular_energy": -10.14, "internal_energy": -1.86, "cluster_size": 11, "cluster_id": 1, "rank_in_cluster": 3}

>  <energy>  (14) 
-7.88

>  <cluster_rmsd>  (14) 
0.0

>  <cluster>  (14) 
3

$$$$

     RDKit          3D

 50 53  0  0  0  0  0  0  0  0999 V2000
  139.9750   72.2480  220.6640 O   0  0  0  0  0  0  0  0  0  0  0  0
  139.8570   72.6260  221.8460 C   0  0  0  0  0  0  0  0  0  0  0  0
  139.6640   74.0040  222.1560 N   0  0  0  0  0  0  0  0  0  0  0  0
  139.6090   74.9460  221.0710 C   0  0  0  0  0  0  0  0  0  0  0  0
  140.0890   76.3030  221.4920 C   0  0  0  0  0  0  0  0  0  0  0  0
  140.0940   76.6340  222.7160 O   0  0  0  0  0  0  0  0  0  0  0  0
  140.5350   77.1910  220.4730 N   0  0  0  0  0  0  0  0  0  0  0  0
  140.1350   77.2010  219.0570 C   0  0  0  0  0  0  0  0  0  0  0  0
  140.6070   78.5180  218.5260 C   0  0  2  0  0  0  0  0  0  0  0  0
  140.8760   78.3380  217.1690 O   0  0  0  0  0  0  0  0  0  0  0  0
  141.9060   78.6920  219.3170 C   0  0  0  0  0  0  0  0  0  0  0  0
  141.4870   78.2590  220.6880 C   0  0  1  0  0  0  0  0  0  0  0  0
  140.7400   79.3530  221.4210 C   0  0  0  0  0  0  0  0  0  0  0  0
  141.5360   80.0270  222.4140 N   0  0  0  0  0  0  0  0  0  0  0  0
  141.1920   81.1640  223.0430 C   0  0  0  0  0  0  0  0  0  0  0  0
  142.2190   81.4690  223.9060 C   0  0  0  0  0  0  0  0  0  0  0  0
  143.2160   80.5100  223.8170 C   0  0  0  0  0  0  0  0  0  0  0  0
  142.7500   79.6150  222.8650 C   0  0  0  0  0  0  0  0  0  0  0  0
  139.9110   71.6730  222.9640 C   0  0  0  0  0  0  0  0  0  0  0  0
  139.4280   70.3810  222.7890 C   0  0  0  0  0  0  0  0  0  0  0  0
  139.4540   69.4510  223.8010 C   0  0  0  0  0  0  0  0  0  0  0  0
  139.9750   69.8260  225.0120 C   0  0  0  0  0  0  0  0  0  0  0  0
  140.0540   68.9750  226.1010 C   0  0  0  0  0  0  0  0  0  0  0  0
  140.5850   69.3870  227.3010 C   0  0  0  0  0  0  0  0  0  0  0  0
  140.6960   68.3360  228.6900 Cl  0  0  0  0  0  0  0  0  0  0  0  0
  141.0630   70.6900  227.4490 C   0  0  0  0  0  0  0  0  0  0  0  0
  140.9940   71.5570  226.3700 C   0  0  0  0  0  0  0  0  0  0  0  0
  140.4530   71.1150  225.1690 C   0  0  0  0  0  0  0  0  0  0  0  0
  140.4190   72.0160  224.1630 N   0  0  0  0  0  0  0  0  0  0  0  0
  139.5680   74.2800  223.1690 H   0  0  0  0  0  0  0  0  0  0  0  0
  140.2439   74.5819  220.2498 H   0  0  0  0  0  0  0  0  0  0  0  0
  138.5615   75.0370  220.7477 H   0  0  0  0  0  0  0  0  0  0  0  0
  140.6140   76.3723  218.5149 H   0  0  0  0  0  0  0  0  0  0  0  0
  139.0492   77.0736  218.9353 H   0  0  0  0  0  0  0  0  0  0  0  0
  139.9169   79.3692  218.6221 H   0  0  0  0  0  0  0  0  0  0  0  0
  140.1540   77.8710  216.6800 H   0  0  0  0  0  0  0  0  0  0  0  0
  142.7060   78.0495  218.9206 H   0  0  0  0  0  0  0  0  0  0  0  0
  142.3199   79.7104  219.2774 H   0  0  0  0  0  0  0  0  0  0  0  0
  142.3731   77.9809  221.2775 H   0  0  0  0  0  0  0  0  0  0  0  0
  140.4000   80.0959  220.6845 H   0  0  0  0  0  0  0  0  0  0  0  0
  139.9019   78.8744  221.9488 H   0  0  0  0  0  0  0  0  0  0  0  0
  140.2666   81.7402  222.8959 H   0  0  0  0  0  0  0  0  0  0  0  0
  142.2452   82.3458  224.5697 H   0  0  0  0  0  0  0  0  0  0  0  0
  144.1629   80.4681  224.3752 H   0  0  0  0  0  0  0  0  0  0  0  0
  143.2805   78.7124  222.5277 H   0  0  0  0  0  0  0  0  0  0  0  0
  139.0127   70.0945  221.8116 H   0  0  0  0  0  0  0  0  0  0  0  0
  139.0671   68.4334  223.6432 H   0  0  0  0  0  0  0  0  0  0  0  0
  139.6830   67.9440  226.0042 H   0  0  0  0  0  0  0  0  0  0  0  0
  141.4879   71.0236  228.4072 H   0  0  0  0  0  0  0  0  0  0  0  0
  141.3651   72.5883  226.4638 H   0  0  0  0  0  0  0  0  0  0  0  0
  1  2  2  0
  2  3  1  0
  3  4  1  0
  4  5  1  0
  5  6  2  0
  5  7  1  0
  7  8  1  0
  8  9  1  0
  9 10  1  0
  9 11  1  0
 11 12  1  0
 12 13  1  0
 13 14  1  0
 14 15  1  0
 15 16  2  0
 16 17  1  0
 17 18  2  0
  2 19  1  0
 19 20  2  0
 20 21  1  0
 21 22  2  0
 22 23  1  0
 23 24  2  0
 24 25  1  0
 24 26  1  0
 26 27  2  0
 27 28  1  0
 28 29  2  0
 12  7  1  0
 18 14  1  0
 29 19  1  0
 28 22  1  0
  3 30  1  0
  4 31  1  0
  4 32  1  0
  8 33  1  0
  8 34  1  0
  9 35  1  6
 10 36  1  0
 11 37  1  0
 11 38  1  0
 12 39  1  1
 13 40  1  0
 13 41  1  0
 15 42  1  0
 16 43  1  0
 17 44  1  0
 18 45  1  0
 20 46  1  0
 21 47  1  0
 23 48  1  0
 26 49  1  0
 27 50  1  0
M  END
>  <smiles>  (15) 
O=C(NCC(=O)N1C[C@H](O)C[C@H]1Cn1cccc1)c1ccc2cc(Cl)ccc2n1

>  <score_type>  (15) 
oracle

>  <origin>  (15) 
autodockgpu

>  <m_score__min__energy>  (15) 
-8.1199999999999992

>  <m_primary>  (15) 
energy

>  <rmsd>  (15) 
2.329393621621331

>  <m_score__min__rmsd>  (15) 
2.329393621621331

>  <meeko>  (15) 
{"free_energy": -7.73, "intermolecular_energy": -9.82, "internal_energy": -1.63, "cluster_size": 13, "cluster_id": 3, "rank_in_cluster": 7}

>  <energy>  (15) 
-7.88

>  <cluster_rmsd>  (15) 
0.31

>  <cluster>  (15) 
3

$$$$

     RDKit          3D

 50 53  0  0  0  0  0  0  0  0999 V2000
  134.7240   68.2120  224.6740 O   0  0  0  0  0  0  0  0  0  0  0  0
  135.0120   69.3840  224.3610 C   0  0  0  0  0  0  0  0  0  0  0  0
  135.9080   69.6530  223.2870 N   0  0  0  0  0  0  0  0  0  0  0  0
  136.4720   68.5400  222.5720 C   0  0  0  0  0  0  0  0  0  0  0  0
  137.9510   68.4320  222.7920 C   0  0  0  0  0  0  0  0  0  0  0  0
  138.5410   67.3160  222.6710 O   0  0  0  0  0  0  0  0  0  0  0  0
  138.6570   69.6190  223.1360 N   0  0  0  0  0  0  0  0  0  0  0  0
  138.5210   70.9500  222.5220 C   0  0  0  0  0  0  0  0  0  0  0  0
  139.2040   71.8880  223.4660 C   0  0  2  0  0  0  0  0  0  0  0  0
  139.6960   72.9480  222.7030 O   0  0  0  0  0  0  0  0  0  0  0  0
  140.3500   71.0030  223.9640 C   0  0  0  0  0  0  0  0  0  0  0  0
  139.6510   69.6970  224.1840 C   0  0  1  0  0  0  0  0  0  0  0  0
  138.8910   69.6770  225.4930 C   0  0  0  0  0  0  0  0  0  0  0  0
  139.7140   69.3520  226.6300 N   0  0  0  0  0  0  0  0  0  0  0  0
  139.9350   68.1110  227.0970 C   0  0  0  0  0  0  0  0  0  0  0  0
  140.7690   68.2380  228.1840 C   0  0  0  0  0  0  0  0  0  0  0  0
  141.0740   69.5730  228.3980 C   0  0  0  0  0  0  0  0  0  0  0  0
  140.3900   70.2480  227.3970 C   0  0  0  0  0  0  0  0  0  0  0  0
  134.4420   70.5310  225.0840 C   0  0  0  0  0  0  0  0  0  0  0  0
  133.5570   70.3100  226.1330 C   0  0  0  0  0  0  0  0  0  0  0  0
  132.9960   71.3460  226.8410 C   0  0  0  0  0  0  0  0  0  0  0  0
  133.3300   72.6280  226.4890 C   0  0  0  0  0  0  0  0  0  0  0  0
  132.8280   73.7470  227.1300 C   0  0  0  0  0  0  0  0  0  0  0  0
  133.1880   75.0190  226.7480 C   0  0  0  0  0  0  0  0  0  0  0  0
  132.5700   76.4470  227.5380 Cl  0  0  0  0  0  0  0  0  0  0  0  0
  134.0790   75.2110  225.6910 C   0  0  0  0  0  0  0  0  0  0  0  0
  134.5940   74.1030  225.0370 C   0  0  0  0  0  0  0  0  0  0  0  0
  134.2140   72.8290  225.4430 C   0  0  0  0  0  0  0  0  0  0  0  0
  134.7560   71.7990  224.7580 N   0  0  0  0  0  0  0  0  0  0  0  0
  136.1240   70.6600  223.0560 H   0  0  0  0  0  0  0  0  0  0  0  0
  135.9914   67.6132  222.9185 H   0  0  0  0  0  0  0  0  0  0  0  0
  136.2956   68.6976  221.4977 H   0  0  0  0  0  0  0  0  0  0  0  0
  139.0085   70.9718  221.5361 H   0  0  0  0  0  0  0  0  0  0  0  0
  137.4677   71.2231  222.3607 H   0  0  0  0  0  0  0  0  0  0  0  0
  138.5918   72.3113  224.2760 H   0  0  0  0  0  0  0  0  0  0  0  0
  139.1960   73.7920  222.8280 H   0  0  0  0  0  0  0  0  0  0  0  0
  141.1433   70.9108  223.2076 H   0  0  0  0  0  0  0  0  0  0  0  0
  140.8597   71.3929  224.8574 H   0  0  0  0  0  0  0  0  0  0  0  0
  140.3857   68.8784  224.1908 H   0  0  0  0  0  0  0  0  0  0  0  0
  138.4503   70.6717  225.6550 H   0  0  0  0  0  0  0  0  0  0  0  0
  138.1264   68.8904  225.4114 H   0  0  0  0  0  0  0  0  0  0  0  0
  139.5276   67.1743  226.6888 H   0  0  0  0  0  0  0  0  0  0  0  0
  141.1398   67.4015  228.7945 H   0  0  0  0  0  0  0  0  0  0  0  0
  141.7138   70.0008  229.1839 H   0  0  0  0  0  0  0  0  0  0  0  0
  140.3941   71.3378  227.2475 H   0  0  0  0  0  0  0  0  0  0  0  0
  133.2981   69.2759  226.4044 H   0  0  0  0  0  0  0  0  0  0  0  0
  132.2975   71.1515  227.6682 H   0  0  0  0  0  0  0  0  0  0  0  0
  132.1241   73.6165  227.9652 H   0  0  0  0  0  0  0  0  0  0  0  0
  134.3680   76.2263  225.3817 H   0  0  0  0  0  0  0  0  0  0  0  0
  135.2988   74.2308  224.2022 H   0  0  0  0  0  0  0  0  0  0  0  0
  1  2  2  0
  2  3  1  0
  3  4  1  0
  4  5  1  0
  5  6  2  0
  5  7  1  0
  7  8  1  0
  8  9  1  0
  9 10  1  0
  9 11  1  0
 11 12  1  0
 12 13  1  0
 13 14  1  0
 14 15  1  0
 15 16  2  0
 16 17  1  0
 17 18  2  0
  2 19  1  0
 19 20  2  0
 20 21  1  0
 21 22  2  0
 22 23  1  0
 23 24  2  0
 24 25  1  0
 24 26  1  0
 26 27  2  0
 27 28  1  0
 28 29  2  0
 12  7  1  0
 18 14  1  0
 29 19  1  0
 28 22  1  0
  3 30  1  0
  4 31  1  0
  4 32  1  0
  8 33  1  0
  8 34  1  0
  9 35  1  1
 10 36  1  0
 11 37  1  0
 11 38  1  0
 12 39  1  1
 13 40  1  0
 13 41  1  0
 15 42  1  0
 16 43  1  0
 17 44  1  0
 18 45  1  0
 20 46  1  0
 21 47  1  0
 23 48  1  0
 26 49  1  0
 27 50  1  0
M  END
>  <smiles>  (16) 
O=C(NCC(=O)N1C[C@H](O)C[C@H]1Cn1cccc1)c1ccc2cc(Cl)ccc2n1

>  <score_type>  (16) 
oracle

>  <origin>  (16) 
autodockgpu

>  <m_score__min__energy>  (16) 
-8.1199999999999992

>  <m_primary>  (16) 
energy

>  <rmsd>  (16) 
8.630841770664178

>  <m_score__min__rmsd>  (16) 
8.630841770664178

>  <meeko>  (16) 
{"free_energy": -7.32, "intermolecular_energy": -9.41, "internal_energy": -1.84, "cluster_size": 12, "cluster_id": 7, "rank_in_cluster": 1}

>  <energy>  (16) 
-7.78

>  <cluster_rmsd>  (16) 
0.31

>  <cluster>  (16) 
3

$$$$

     RDKit          3D

 50 53  0  0  0  0  0  0  0  0999 V2000
  140.8130   73.7820  220.7900 O   0  0  0  0  0  0  0  0  0  0  0  0
  140.1430   73.7820  221.8410 C   0  0  0  0  0  0  0  0  0  0  0  0
  139.5850   74.9900  222.3510 N   0  0  0  0  0  0  0  0  0  0  0  0
  139.8120   76.2090  221.6220 C   0  0  0  0  0  0  0  0  0  0  0  0
  139.2970   77.4040  222.3680 C   0  0  0  0  0  0  0  0  0  0  0  0
  138.0800   77.4700  222.7160 O   0  0  0  0  0  0  0  0  0  0  0  0
  140.2200   78.4460  222.6650 N   0  0  0  0  0  0  0  0  0  0  0  0
  141.5780   78.6180  222.1240 C   0  0  0  0  0  0  0  0  0  0  0  0
  141.9630   80.0210  222.4740 C   0  0  2  0  0  0  0  0  0  0  0  0
  143.3510   80.0400  222.6150 O   0  0  0  0  0  0  0  0  0  0  0  0
  141.2790   80.1700  223.8360 C   0  0  0  0  0  0  0  0  0  0  0  0
  139.9490   79.5340  223.5780 C   0  0  1  0  0  0  0  0  0  0  0  0
  139.0050   80.4710  222.8540 C   0  0  0  0  0  0  0  0  0  0  0  0
  138.0600   81.1210  223.7260 N   0  0  0  0  0  0  0  0  0  0  0  0
  137.2820   82.1630  223.3850 C   0  0  0  0  0  0  0  0  0  0  0  0
  136.5310   82.4780  224.4950 C   0  0  0  0  0  0  0  0  0  0  0  0
  136.8440   81.6230  225.5400 C   0  0  0  0  0  0  0  0  0  0  0  0
  137.8140   80.7790  225.0170 C   0  0  0  0  0  0  0  0  0  0  0  0
  139.9020   72.5430  222.5950 C   0  0  0  0  0  0  0  0  0  0  0  0
  138.9780   71.6190  222.1210 C   0  0  0  0  0  0  0  0  0  0  0  0
  138.7150   70.4460  222.7870 C   0  0  0  0  0  0  0  0  0  0  0  0
  139.3930   70.1960  223.9510 C   0  0  0  0  0  0  0  0  0  0  0  0
  139.2100   69.0500  224.7050 C   0  0  0  0  0  0  0  0  0  0  0  0
  139.9100   68.8330  225.8700 C   0  0  0  0  0  0  0  0  0  0  0  0
  139.6990   67.3980  226.8400 Cl  0  0  0  0  0  0  0  0  0  0  0  0
  140.8320   69.7780  226.3230 C   0  0  0  0  0  0  0  0  0  0  0  0
  141.0300   70.9320  225.5820 C   0  0  0  0  0  0  0  0  0  0  0  0
  140.3100   71.1260  224.4090 C   0  0  0  0  0  0  0  0  0  0  0  0
  140.5560   72.2740  223.7410 N   0  0  0  0  0  0  0  0  0  0  0  0
  139.0240   74.9440  223.2430 H   0  0  0  0  0  0  0  0  0  0  0  0
  140.8928   76.3300  221.4570 H   0  0  0  0  0  0  0  0  0  0  0  0
  139.2729   76.1427  220.6654 H   0  0  0  0  0  0  0  0  0  0  0  0
  142.2716   77.9005  222.5867 H   0  0  0  0  0  0  0  0  0  0  0  0
  141.6149   78.4392  221.0392 H   0  0  0  0  0  0  0  0  0  0  0  0
  141.6867   80.8065  221.7552 H   0  0  0  0  0  0  0  0  0  0  0  0
  143.8140   79.3580  222.0680 H   0  0  0  0  0  0  0  0  0  0  0  0
  141.8325   79.6371  224.6232 H   0  0  0  0  0  0  0  0  0  0  0  0
  141.2159   81.2085  224.1931 H   0  0  0  0  0  0  0  0  0  0  0  0
  139.4882   79.2376  224.5318 H   0  0  0  0  0  0  0  0  0  0  0  0
  139.6018   81.2446  222.3487 H   0  0  0  0  0  0  0  0  0  0  0  0
  138.4252   79.8620  222.1447 H   0  0  0  0  0  0  0  0  0  0  0  0
  137.2514   82.6667  222.4076 H   0  0  0  0  0  0  0  0  0  0  0  0
  135.7905   83.2899  224.5452 H   0  0  0  0  0  0  0  0  0  0  0  0
  136.4195   81.6151  226.5548 H   0  0  0  0  0  0  0  0  0  0  0  0
  138.3065   79.9609  225.5630 H   0  0  0  0  0  0  0  0  0  0  0  0
  138.4413   71.8331  221.1850 H   0  0  0  0  0  0  0  0  0  0  0  0
  137.9799   69.7271  222.3960 H   0  0  0  0  0  0  0  0  0  0  0  0
  138.4872   68.2938  224.3648 H   0  0  0  0  0  0  0  0  0  0  0  0
  141.3929   69.6092  227.2541 H   0  0  0  0  0  0  0  0  0  0  0  0
  141.7523   71.6897  225.9199 H   0  0  0  0  0  0  0  0  0  0  0  0
  1  2  2  0
  2  3  1  0
  3  4  1  0
  4  5  1  0
  5  6  2  0
  5  7  1  0
  7  8  1  0
  8  9  1  0
  9 10  1  0
  9 11  1  0
 11 12  1  0
 12 13  1  0
 13 14  1  0
 14 15  1  0
 15 16  2  0
 16 17  1  0
 17 18  2  0
  2 19  1  0
 19 20  2  0
 20 21  1  0
 21 22  2  0
 22 23  1  0
 23 24  2  0
 24 25  1  0
 24 26  1  0
 26 27  2  0
 27 28  1  0
 28 29  2  0
 12  7  1  0
 18 14  1  0
 29 19  1  0
 28 22  1  0
  3 30  1  0
  4 31  1  0
  4 32  1  0
  8 33  1  0
  8 34  1  0
  9 35  1  6
 10 36  1  0
 11 37  1  0
 11 38  1  0
 12 39  1  1
 13 40  1  0
 13 41  1  0
 15 42  1  0
 16 43  1  0
 17 44  1  0
 18 45  1  0
 20 46  1  0
 21 47  1  0
 23 48  1  0
 26 49  1  0
 27 50  1  0
M  END
>  <smiles>  (17) 
O=C(NCC(=O)N1C[C@H](O)C[C@H]1Cn1cccc1)c1ccc2cc(Cl)ccc2n1

>  <score_type>  (17) 
oracle

>  <origin>  (17) 
autodockgpu

>  <m_score__min__energy>  (17) 
-8.1199999999999992

>  <m_primary>  (17) 
energy

>  <rmsd>  (17) 
4.458687679808419

>  <m_score__min__rmsd>  (17) 
4.458687679808419

>  <meeko>  (17) 
{"free_energy": -8.0, "intermolecular_energy": -10.09, "internal_energy": -1.25, "cluster_size": 2, "cluster_id": 2, "rank_in_cluster": 1}

>  <energy>  (17) 
-7.77

>  <cluster_rmsd>  (17) 
0.63

>  <cluster>  (17) 
3

$$$$

     RDKit          3D

 50 53  0  0  0  0  0  0  0  0999 V2000
  139.3710   72.0540  220.7730 O   0  0  0  0  0  0  0  0  0  0  0  0
  139.4830   72.4520  221.9490 C   0  0  0  0  0  0  0  0  0  0  0  0
  139.4650   73.8430  222.2550 N   0  0  0  0  0  0  0  0  0  0  0  0
  139.3130   74.7780  221.1730 C   0  0  0  0  0  0  0  0  0  0  0  0
  140.0970   76.0340  221.4120 C   0  0  0  0  0  0  0  0  0  0  0  0
  140.0940   76.5880  222.5530 O   0  0  0  0  0  0  0  0  0  0  0  0
  140.8350   76.5700  220.3210 N   0  0  0  0  0  0  0  0  0  0  0  0
  140.7280   76.1990  218.9000 C   0  0  0  0  0  0  0  0  0  0  0  0
  141.4430   77.2830  218.1580 C   0  0  2  0  0  0  0  0  0  0  0  0
  141.9550   76.7100  216.9930 O   0  0  0  0  0  0  0  0  0  0  0  0
  142.5710   77.6040  219.1430 C   0  0  0  0  0  0  0  0  0  0  0  0
  141.8410   77.6020  220.4500 C   0  0  1  0  0  0  0  0  0  0  0  0
  141.0930   78.8980  220.6810 C   0  0  0  0  0  0  0  0  0  0  0  0
  141.4230   79.5370  221.9290 N   0  0  0  0  0  0  0  0  0  0  0  0
  140.5440   80.1480  222.7420 C   0  0  0  0  0  0  0  0  0  0  0  0
  141.2600   80.6210  223.8180 C   0  0  0  0  0  0  0  0  0  0  0  0
  142.6010   80.3020  223.6750 C   0  0  0  0  0  0  0  0  0  0  0  0
  142.6660   79.6170  222.4700 C   0  0  0  0  0  0  0  0  0  0  0  0
  139.6390   71.5060  223.0650 C   0  0  0  0  0  0  0  0  0  0  0  0
  139.2070   70.1930  222.9170 C   0  0  0  0  0  0  0  0  0  0  0  0
  139.3280   69.2690  223.9280 C   0  0  0  0  0  0  0  0  0  0  0  0
  139.8940   69.6720  225.1090 C   0  0  0  0  0  0  0  0  0  0  0  0
  140.0680   68.8300  226.1940 C   0  0  0  0  0  0  0  0  0  0  0  0
  140.6410   69.2710  227.3650 C   0  0  0  0  0  0  0  0  0  0  0  0
  140.8710   68.2320  228.7470 Cl  0  0  0  0  0  0  0  0  0  0  0  0
  141.0660   70.5950  227.4850 C   0  0  0  0  0  0  0  0  0  0  0  0
  140.9020   71.4540  226.4100 C   0  0  0  0  0  0  0  0  0  0  0  0
  140.3200   70.9830  225.2390 C   0  0  0  0  0  0  0  0  0  0  0  0
  140.1930   71.8770  224.2350 N   0  0  0  0  0  0  0  0  0  0  0  0
  139.5620   74.1350  223.2640 H   0  0  0  0  0  0  0  0  0  0  0  0
  139.6668   74.3082  220.2434 H   0  0  0  0  0  0  0  0  0  0  0  0
  138.2489   75.0466  221.0984 H   0  0  0  0  0  0  0  0  0  0  0  0
  141.2073   75.2258  218.7180 H   0  0  0  0  0  0  0  0  0  0  0  0
  139.6808   76.1013  218.5778 H   0  0  0  0  0  0  0  0  0  0  0  0
  140.8490   78.1625  217.8688 H   0  0  0  0  0  0  0  0  0  0  0  0
  141.5180   77.0330  216.1660 H   0  0  0  0  0  0  0  0  0  0  0  0
  143.3550   76.8328  219.1202 H   0  0  0  0  0  0  0  0  0  0  0  0
  143.0985   78.5448  218.9272 H   0  0  0  0  0  0  0  0  0  0  0  0
  142.5550   77.4554  221.2739 H   0  0  0  0  0  0  0  0  0  0  0  0
  141.3342   79.5902  219.8609 H   0  0  0  0  0  0  0  0  0  0  0  0
  140.0216   78.6513  220.7170 H   0  0  0  0  0  0  0  0  0  0  0  0
  139.4610   80.2503  222.5787 H   0  0  0  0  0  0  0  0  0  0  0  0
  140.8304   81.1720  224.6677 H   0  0  0  0  0  0  0  0  0  0  0  0
  143.4272   80.5384  224.3616 H   0  0  0  0  0  0  0  0  0  0  0  0
  143.5818   79.2032  222.0227 H   0  0  0  0  0  0  0  0  0  0  0  0
  138.7550   69.8841  221.9629 H   0  0  0  0  0  0  0  0  0  0  0  0
  138.9799   68.2344  223.7924 H   0  0  0  0  0  0  0  0  0  0  0  0
  139.7402   67.7827  226.1183 H   0  0  0  0  0  0  0  0  0  0  0  0
  141.5244   70.9514  228.4192 H   0  0  0  0  0  0  0  0  0  0  0  0
  141.2301   72.5014  226.4830 H   0  0  0  0  0  0  0  0  0  0  0  0
  1  2  2  0
  2  3  1  0
  3  4  1  0
  4  5  1  0
  5  6  2  0
  5  7  1  0
  7  8  1  0
  8  9  1  0
  9 10  1  0
  9 11  1  0
 11 12  1  0
 12 13  1  0
 13 14  1  0
 14 15  1  0
 15 16  2  0
 16 17  1  0
 17 18  2  0
  2 19  1  0
 19 20  2  0
 20 21  1  0
 21 22  2  0
 22 23  1  0
 23 24  2  0
 24 25  1  0
 24 26  1  0
 26 27  2  0
 27 28  1  0
 28 29  2  0
 12  7  1  0
 18 14  1  0
 29 19  1  0
 28 22  1  0
  3 30  1  0
  4 31  1  0
  4 32  1  0
  8 33  1  0
  8 34  1  0
  9 35  1  6
 10 36  1  0
 11 37  1  0
 11 38  1  0
 12 39  1  1
 13 40  1  0
 13 41  1  0
 15 42  1  0
 16 43  1  0
 17 44  1  0
 18 45  1  0
 20 46  1  0
 21 47  1  0
 23 48  1  0
 26 49  1  0
 27 50  1  0
M  END
>  <smiles>  (18) 
O=C(NCC(=O)N1C[C@H](O)C[C@H]1Cn1cccc1)c1ccc2cc(Cl)ccc2n1

>  <score_type>  (18) 
oracle

>  <origin>  (18) 
autodockgpu

>  <m_score__min__energy>  (18) 
-8.1199999999999992

>  <m_primary>  (18) 
energy

>  <rmsd>  (18) 
1.993080689925237

>  <m_score__min__rmsd>  (18) 
1.993080689925237

>  <meeko>  (18) 
{"free_energy": -7.55, "intermolecular_energy": -9.64, "internal_energy": -1.63, "cluster_size": 13, "cluster_id": 3, "rank_in_cluster": 11}

>  <energy>  (18) 
-7.77

>  <cluster_rmsd>  (18) 
1.05

>  <cluster>  (18) 
3

$$$$

     RDKit          3D

 50 53  0  0  0  0  0  0  0  0999 V2000
  134.7700   68.2610  224.8300 O   0  0  0  0  0  0  0  0  0  0  0  0
  135.1110   69.3920  224.4320 C   0  0  0  0  0  0  0  0  0  0  0  0
  136.0260   69.5400  223.3500 N   0  0  0  0  0  0  0  0  0  0  0  0
  136.5450   68.3520  222.7270 C   0  0  0  0  0  0  0  0  0  0  0  0
  138.0210   68.4540  222.4830 C   0  0  0  0  0  0  0  0  0  0  0  0
  138.6440   67.5160  221.9010 O   0  0  0  0  0  0  0  0  0  0  0  0
  138.6840   69.6330  222.9250 N   0  0  0  0  0  0  0  0  0  0  0  0
  138.5640   70.9890  222.3660 C   0  0  0  0  0  0  0  0  0  0  0  0
  139.1720   71.8910  223.3940 C   0  0  2  0  0  0  0  0  0  0  0  0
  139.6920   72.9930  222.7130 O   0  0  0  0  0  0  0  0  0  0  0  0
  140.3000   70.9990  223.9200 C   0  0  0  0  0  0  0  0  0  0  0  0
  139.6110   69.6750  224.0350 C   0  0  1  0  0  0  0  0  0  0  0  0
  138.7720   69.5820  225.2930 C   0  0  0  0  0  0  0  0  0  0  0  0
  139.5440   69.3210  226.4800 N   0  0  0  0  0  0  0  0  0  0  0  0
  139.9780   70.2570  227.3430 C   0  0  0  0  0  0  0  0  0  0  0  0
  140.6700   69.5950  228.3320 C   0  0  0  0  0  0  0  0  0  0  0  0
  140.6680   68.2310  228.0830 C   0  0  0  0  0  0  0  0  0  0  0  0
  139.9470   68.0960  226.9050 C   0  0  0  0  0  0  0  0  0  0  0  0
  134.5880   70.6150  225.0600 C   0  0  0  0  0  0  0  0  0  0  0  0
  133.6070   70.5170  226.0400 C   0  0  0  0  0  0  0  0  0  0  0  0
  133.0840   71.6270  226.6590 C   0  0  0  0  0  0  0  0  0  0  0  0
  133.5540   72.8590  226.2850 C   0  0  0  0  0  0  0  0  0  0  0  0
  133.1020   74.0440  226.8390 C   0  0  0  0  0  0  0  0  0  0  0  0
  133.5990   75.2630  226.4380 C   0  0  0  0  0  0  0  0  0  0  0  0
  133.0470   76.7720  227.1180 Cl  0  0  0  0  0  0  0  0  0  0  0  0
  134.5840   75.3320  225.4510 C   0  0  0  0  0  0  0  0  0  0  0  0
  135.0500   74.1560  224.8850 C   0  0  0  0  0  0  0  0  0  0  0  0
  134.5320   72.9380  225.3080 C   0  0  0  0  0  0  0  0  0  0  0  0
  135.0340   71.8360  224.7110 N   0  0  0  0  0  0  0  0  0  0  0  0
  136.2870   70.5150  223.0450 H   0  0  0  0  0  0  0  0  0  0  0  0
  136.3508   67.4911  223.3836 H   0  0  0  0  0  0  0  0  0  0  0  0
  136.0444   68.2273  221.7555 H   0  0  0  0  0  0  0  0  0  0  0  0
  139.1110   71.0641  221.4146 H   0  0  0  0  0  0  0  0  0  0  0  0
  137.5183   71.2549  222.1518 H   0  0  0  0  0  0  0  0  0  0  0  0
  138.5044   72.2668  224.1834 H   0  0  0  0  0  0  0  0  0  0  0  0
  139.1730   73.8240  222.8480 H   0  0  0  0  0  0  0  0  0  0  0  0
  141.1395   70.9539  223.2106 H   0  0  0  0  0  0  0  0  0  0  0  0
  140.7475   71.3528  224.8605 H   0  0  0  0  0  0  0  0  0  0  0  0
  140.3578   68.8674  224.0489 H   0  0  0  0  0  0  0  0  0  0  0  0
  138.2386   70.5346  225.4270 H   0  0  0  0  0  0  0  0  0  0  0  0
  138.0842   68.7338  225.1613 H   0  0  0  0  0  0  0  0  0  0  0  0
  139.8120   71.3421  227.2722 H   0  0  0  0  0  0  0  0  0  0  0  0
  141.1539   70.0777  229.1939 H   0  0  0  0  0  0  0  0  0  0  0  0
  141.1330   67.4354  228.6837 H   0  0  0  0  0  0  0  0  0  0  0  0
  139.7350   67.1447  226.3950 H   0  0  0  0  0  0  0  0  0  0  0  0
  133.2384   69.5216  226.3286 H   0  0  0  0  0  0  0  0  0  0  0  0
  132.3092   71.5293  227.4336 H   0  0  0  0  0  0  0  0  0  0  0  0
  132.3268   74.0106  227.6187 H   0  0  0  0  0  0  0  0  0  0  0  0
  134.9839   76.3044  225.1277 H   0  0  0  0  0  0  0  0  0  0  0  0
  135.8254   74.1866  224.1054 H   0  0  0  0  0  0  0  0  0  0  0  0
  1  2  2  0
  2  3  1  0
  3  4  1  0
  4  5  1  0
  5  6  2  0
  5  7  1  0
  7  8  1  0
  8  9  1  0
  9 10  1  0
  9 11  1  0
 11 12  1  0
 12 13  1  0
 13 14  1  0
 14 15  1  0
 15 16  2  0
 16 17  1  0
 17 18  2  0
  2 19  1  0
 19 20  2  0
 20 21  1  0
 21 22  2  0
 22 23  1  0
 23 24  2  0
 24 25  1  0
 24 26  1  0
 26 27  2  0
 27 28  1  0
 28 29  2  0
 12  7  1  0
 18 14  1  0
 29 19  1  0
 28 22  1  0
  3 30  1  0
  4 31  1  0
  4 32  1  0
  8 33  1  0
  8 34  1  0
  9 35  1  1
 10 36  1  0
 11 37  1  0
 11 38  1  0
 12 39  1  6
 13 40  1  0
 13 41  1  0
 15 42  1  0
 16 43  1  0
 17 44  1  0
 18 45  1  0
 20 46  1  0
 21 47  1  0
 23 48  1  0
 26 49  1  0
 27 50  1  0
M  END
>  <smiles>  (19) 
O=C(NCC(=O)N1C[C@H](O)C[C@H]1Cn1cccc1)c1ccc2cc(Cl)ccc2n1

>  <score_type>  (19) 
oracle

>  <origin>  (19) 
autodockgpu

>  <m_score__min__energy>  (19) 
-8.1199999999999992

>  <m_primary>  (19) 
energy

>  <rmsd>  (19) 
8.696019563779654

>  <m_score__min__rmsd>  (19) 
8.696019563779654

>  <meeko>  (19) 
{"free_energy": -7.25, "intermolecular_energy": -9.34, "internal_energy": -1.94, "cluster_size": 12, "cluster_id": 7, "rank_in_cluster": 7}

>  <energy>  (19) 
-7.74

>  <cluster_rmsd>  (19) 
1.03

>  <cluster>  (19) 
3

$$$$

     RDKit          3D

 50 53  0  0  0  0  0  0  0  0999 V2000
  139.5780   73.7110  222.4180 O   0  0  0  0  0  0  0  0  0  0  0  0
  139.9240   72.5300  222.2260 C   0  0  0  0  0  0  0  0  0  0  0  0
  140.2770   72.0760  220.9220 N   0  0  0  0  0  0  0  0  0  0  0  0
  140.2270   73.0150  219.8350 C   0  0  0  0  0  0  0  0  0  0  0  0
  141.2640   72.7140  218.7940 C   0  0  0  0  0  0  0  0  0  0  0  0
  140.9560   72.0740  217.7440 O   0  0  0  0  0  0  0  0  0  0  0  0
  142.5910   73.1710  219.0320 N   0  0  0  0  0  0  0  0  0  0  0  0
  143.8170   72.7630  218.3270 C   0  0  0  0  0  0  0  0  0  0  0  0
  144.8460   73.7800  218.7120 C   0  0  2  0  0  0  0  0  0  0  0  0
  146.0860   73.1410  218.6670 O   0  0  0  0  0  0  0  0  0  0  0  0
  144.4350   74.0620  220.1600 C   0  0  0  0  0  0  0  0  0  0  0  0
  142.9450   74.1440  220.0420 C   0  0  1  0  0  0  0  0  0  0  0  0
  142.4940   75.4890  219.5130 C   0  0  0  0  0  0  0  0  0  0  0  0
  141.8660   76.3170  220.5100 N   0  0  0  0  0  0  0  0  0  0  0  0
  141.8630   77.6620  220.5110 C   0  0  0  0  0  0  0  0  0  0  0  0
  141.1610   78.0580  221.6260 C   0  0  0  0  0  0  0  0  0  0  0  0
  140.7190   76.9480  222.3300 C   0  0  0  0  0  0  0  0  0  0  0  0
  141.1840   75.8660  221.5950 C   0  0  0  0  0  0  0  0  0  0  0  0
  139.9800   71.5590  223.3290 C   0  0  0  0  0  0  0  0  0  0  0  0
  139.5070   70.2670  223.1310 C   0  0  0  0  0  0  0  0  0  0  0  0
  139.5360   69.3210  224.1280 C   0  0  0  0  0  0  0  0  0  0  0  0
  140.0480   69.6810  225.3470 C   0  0  0  0  0  0  0  0  0  0  0  0
  140.1270   68.8130  226.4230 C   0  0  0  0  0  0  0  0  0  0  0  0
  140.6490   69.2110  227.6330 C   0  0  0  0  0  0  0  0  0  0  0  0
  140.7600   68.1390  229.0060 Cl  0  0  0  0  0  0  0  0  0  0  0  0
  141.1150   70.5150  227.8040 C   0  0  0  0  0  0  0  0  0  0  0  0
  141.0450   71.3980  226.7390 C   0  0  0  0  0  0  0  0  0  0  0  0
  140.5150   70.9710  225.5270 C   0  0  0  0  0  0  0  0  0  0  0  0
  140.4790   71.8870  224.5360 N   0  0  0  0  0  0  0  0  0  0  0  0
  140.5640   71.0670  220.8050 H   0  0  0  0  0  0  0  0  0  0  0  0
  139.2312   72.9693  219.3699 H   0  0  0  0  0  0  0  0  0  0  0  0
  140.4277   74.0183  220.2390 H   0  0  0  0  0  0  0  0  0  0  0  0
  144.1295   71.7578  218.6461 H   0  0  0  0  0  0  0  0  0  0  0  0
  143.6701   72.7178  217.2378 H   0  0  0  0  0  0  0  0  0  0  0  0
  144.9098   74.6845  218.0893 H   0  0  0  0  0  0  0  0  0  0  0  0
  146.8520   73.7660  218.6350 H   0  0  0  0  0  0  0  0  0  0  0  0
  144.7398   73.2444  220.8298 H   0  0  0  0  0  0  0  0  0  0  0  0
  144.8992   74.9624  220.5887 H   0  0  0  0  0  0  0  0  0  0  0  0
  142.4845   73.9803  221.0275 H   0  0  0  0  0  0  0  0  0  0  0  0
  143.3731   76.0217  219.1214 H   0  0  0  0  0  0  0  0  0  0  0  0
  141.7426   75.2947  218.7335 H   0  0  0  0  0  0  0  0  0  0  0  0
  142.3318   78.3192  219.7638 H   0  0  0  0  0  0  0  0  0  0  0  0
  140.9771   79.1028  221.9167 H   0  0  0  0  0  0  0  0  0  0  0  0
  140.1325   76.9291  223.2604 H   0  0  0  0  0  0  0  0  0  0  0  0
  141.0250   74.8081  221.8512 H   0  0  0  0  0  0  0  0  0  0  0  0
  139.0974   69.9935  222.1474 H   0  0  0  0  0  0  0  0  0  0  0  0
  139.1585   68.3029  223.9521 H   0  0  0  0  0  0  0  0  0  0  0  0
  139.7640   67.7810  226.3082 H   0  0  0  0  0  0  0  0  0  0  0  0
  141.5316   70.8369  228.7698 H   0  0  0  0  0  0  0  0  0  0  0  0
  141.4066   72.4307  226.8517 H   0  0  0  0  0  0  0  0  0  0  0  0
  1  2  2  0
  2  3  1  0
  3  4  1  0
  4  5  1  0
  5  6  2  0
  5  7  1  0
  7  8  1  0
  8  9  1  0
  9 10  1  0
  9 11  1  0
 11 12  1  0
 12 13  1  0
 13 14  1  0
 14 15  1  0
 15 16  2  0
 16 17  1  0
 17 18  2  0
  2 19  1  0
 19 20  2  0
 20 21  1  0
 21 22  2  0
 22 23  1  0
 23 24  2  0
 24 25  1  0
 24 26  1  0
 26 27  2  0
 27 28  1  0
 28 29  2  0
 12  7  1  0
 18 14  1  0
 29 19  1  0
 28 22  1  0
  3 30  1  0
  4 31  1  0
  4 32  1  0
  8 33  1  0
  8 34  1  0
  9 35  1  6
 10 36  1  0
 11 37  1  0
 11 38  1  0
 12 39  1  1
 13 40  1  0
 13 41  1  0
 15 42  1  0
 16 43  1  0
 17 44  1  0
 18 45  1  0
 20 46  1  0
 21 47  1  0
 23 48  1  0
 26 49  1  0
 27 50  1  0
M  END
>  <smiles>  (20) 
O=C(NCC(=O)N1C[C@H](O)C[C@H]1Cn1cccc1)c1ccc2cc(Cl)ccc2n1

>  <score_type>  (20) 
oracle

>  <origin>  (20) 
autodockgpu

>  <m_score__min__energy>  (20) 
-8.1199999999999992

>  <m_primary>  (20) 
energy

>  <rmsd>  (20) 
3.616897464292063

>  <m_score__min__rmsd>  (20) 
3.616897464292063

>  <meeko>  (20) 
{"free_energy": -7.71, "intermolecular_energy": -9.8, "internal_energy": -1.45, "cluster_size": 7, "cluster_id": 4, "rank_in_cluster": 4}

>  <energy>  (20) 
-7.73

>  <cluster_rmsd>  (20) 
1.33

>  <cluster>  (20) 
3

$$$$

     RDKit          3D

 50 53  0  0  0  0  0  0  0  0999 V2000
  134.7720   68.2760  224.7380 O   0  0  0  0  0  0  0  0  0  0  0  0
  135.0380   69.4370  224.3720 C   0  0  0  0  0  0  0  0  0  0  0  0
  135.8960   69.6730  223.2600 N   0  0  0  0  0  0  0  0  0  0  0  0
  136.4470   68.5390  222.5680 C   0  0  0  0  0  0  0  0  0  0  0  0
  137.9260   68.4220  222.7850 C   0  0  0  0  0  0  0  0  0  0  0  0
  138.5090   67.3030  222.6590 O   0  0  0  0  0  0  0  0  0  0  0  0
  138.6380   69.6040  223.1320 N   0  0  0  0  0  0  0  0  0  0  0  0
  138.4910   70.9440  222.5390 C   0  0  0  0  0  0  0  0  0  0  0  0
  139.1930   71.8690  223.4830 C   0  0  2  0  0  0  0  0  0  0  0  0
  139.6690   72.9390  222.7250 O   0  0  0  0  0  0  0  0  0  0  0  0
  140.3490   70.9760  223.9440 C   0  0  0  0  0  0  0  0  0  0  0  0
  139.6540   69.6680  224.1590 C   0  0  1  0  0  0  0  0  0  0  0  0
  138.9210   69.6290  225.4840 C   0  0  0  0  0  0  0  0  0  0  0  0
  139.7470   69.2040  226.5850 N   0  0  0  0  0  0  0  0  0  0  0  0
  140.3930   68.0270  226.6600 C   0  0  0  0  0  0  0  0  0  0  0  0
  141.0630   68.0170  227.8620 C   0  0  0  0  0  0  0  0  0  0  0  0
  140.8330   69.2010  228.5460 C   0  0  0  0  0  0  0  0  0  0  0  0
  139.9970   69.9260  227.7080 C   0  0  0  0  0  0  0  0  0  0  0  0
  134.4820   70.6060  225.0710 C   0  0  0  0  0  0  0  0  0  0  0  0
  133.5900   70.4180  226.1200 C   0  0  0  0  0  0  0  0  0  0  0  0
  133.0400   71.4750  226.8060 C   0  0  0  0  0  0  0  0  0  0  0  0
  133.3940   72.7450  226.4300 C   0  0  0  0  0  0  0  0  0  0  0  0
  132.9050   73.8830  227.0470 C   0  0  0  0  0  0  0  0  0  0  0  0
  133.2840   75.1420  226.6420 C   0  0  0  0  0  0  0  0  0  0  0  0
  132.6830   76.5940  227.4020 Cl  0  0  0  0  0  0  0  0  0  0  0  0
  134.1810   75.3010  225.5850 C   0  0  0  0  0  0  0  0  0  0  0  0
  134.6830   74.1740  224.9540 C   0  0  0  0  0  0  0  0  0  0  0  0
  134.2840   72.9140  225.3830 C   0  0  0  0  0  0  0  0  0  0  0  0
  134.8140   71.8630  224.7210 N   0  0  0  0  0  0  0  0  0  0  0  0
  136.0950   70.6720  222.9850 H   0  0  0  0  0  0  0  0  0  0  0  0
  135.9591   67.6247  222.9369 H   0  0  0  0  0  0  0  0  0  0  0  0
  136.2680   68.6742  221.4911 H   0  0  0  0  0  0  0  0  0  0  0  0
  138.9594   70.9793  221.5443 H   0  0  0  0  0  0  0  0  0  0  0  0
  137.4350   71.2197  222.4018 H   0  0  0  0  0  0  0  0  0  0  0  0
  138.5982   72.2809  224.3116 H   0  0  0  0  0  0  0  0  0  0  0  0
  139.1700   73.7810  222.8700 H   0  0  0  0  0  0  0  0  0  0  0  0
  141.1263   70.8947  223.1700 H   0  0  0  0  0  0  0  0  0  0  0  0
  140.8776   71.3524  224.8322 H   0  0  0  0  0  0  0  0  0  0  0  0
  140.3890   68.8498  224.1377 H   0  0  0  0  0  0  0  0  0  0  0  0
  138.5422   70.6384  225.7022 H   0  0  0  0  0  0  0  0  0  0  0  0
  138.1106   68.8920  225.3840 H   0  0  0  0  0  0  0  0  0  0  0  0
  140.3870   67.2263  225.9058 H   0  0  0  0  0  0  0  0  0  0  0  0
  141.6898   67.1900  228.2270 H   0  0  0  0  0  0  0  0  0  0  0  0
  141.2244   69.4984  229.5300 H   0  0  0  0  0  0  0  0  0  0  0  0
  139.5989   70.9292  227.9203 H   0  0  0  0  0  0  0  0  0  0  0  0
  133.3158   69.3930  226.4101 H   0  0  0  0  0  0  0  0  0  0  0  0
  132.3354   71.3063  227.6337 H   0  0  0  0  0  0  0  0  0  0  0  0
  132.1960   73.7785  227.8815 H   0  0  0  0  0  0  0  0  0  0  0  0
  134.4851   76.3061  225.2575 H   0  0  0  0  0  0  0  0  0  0  0  0
  135.3923   74.2761  224.1194 H   0  0  0  0  0  0  0  0  0  0  0  0
  1  2  2  0
  2  3  1  0
  3  4  1  0
  4  5  1  0
  5  6  2  0
  5  7  1  0
  7  8  1  0
  8  9  1  0
  9 10  1  0
  9 11  1  0
 11 12  1  0
 12 13  1  0
 13 14  1  0
 14 15  1  0
 15 16  2  0
 16 17  1  0
 17 18  2  0
  2 19  1  0
 19 20  2  0
 20 21  1  0
 21 22  2  0
 22 23  1  0
 23 24  2  0
 24 25  1  0
 24 26  1  0
 26 27  2  0
 27 28  1  0
 28 29  2  0
 12  7  1  0
 18 14  1  0
 29 19  1  0
 28 22  1  0
  3 30  1  0
  4 31  1  0
  4 32  1  0
  8 33  1  0
  8 34  1  0
  9 35  1  1
 10 36  1  0
 11 37  1  0
 11 38  1  0
 12 39  1  1
 13 40  1  0
 13 41  1  0
 15 42  1  0
 16 43  1  0
 17 44  1  0
 18 45  1  0
 20 46  1  0
 21 47  1  0
 23 48  1  0
 26 49  1  0
 27 50  1  0
M  END
>  <smiles>  (21) 
O=C(NCC(=O)N1C[C@H](O)C[C@H]1Cn1cccc1)c1ccc2cc(Cl)ccc2n1

>  <score_type>  (21) 
oracle

>  <origin>  (21) 
autodockgpu

>  <m_score__min__energy>  (21) 
-8.1199999999999992

>  <m_primary>  (21) 
energy

>  <rmsd>  (21) 
8.709025105694224

>  <m_score__min__rmsd>  (21) 
8.709025105694224

>  <meeko>  (21) 
{"free_energy": -7.24, "intermolecular_energy": -9.33, "internal_energy": -1.85, "cluster_size": 12, "cluster_id": 7, "rank_in_cluster": 8}

>  <energy>  (21) 
-7.72

>  <cluster_rmsd>  (21) 
1.43

>  <cluster>  (21) 
3

$$$$

     RDKit          3D

 50 53  0  0  0  0  0  0  0  0999 V2000
  140.1460   74.1560  222.1270 O   0  0  0  0  0  0  0  0  0  0  0  0
  140.2690   72.9330  221.9220 C   0  0  0  0  0  0  0  0  0  0  0  0
  140.4790   72.4300  220.6050 N   0  0  0  0  0  0  0  0  0  0  0  0
  140.5480   73.3700  219.5190 C   0  0  0  0  0  0  0  0  0  0  0  0
  141.7460   73.1250  218.6510 C   0  0  0  0  0  0  0  0  0  0  0  0
  141.6050   72.8110  217.4300 O   0  0  0  0  0  0  0  0  0  0  0  0
  143.0320   73.2600  219.2460 N   0  0  0  0  0  0  0  0  0  0  0  0
  144.2280   72.4440  218.9840 C   0  0  0  0  0  0  0  0  0  0  0  0
  145.3640   73.2120  219.5840 C   0  0  2  0  0  0  0  0  0  0  0  0
  146.3270   72.2780  219.9710 O   0  0  0  0  0  0  0  0  0  0  0  0
  144.6770   73.8190  220.8110 C   0  0  0  0  0  0  0  0  0  0  0  0
  143.3660   74.2590  220.2370 C   0  0  1  0  0  0  0  0  0  0  0  0
  143.4890   75.5720  219.4930 C   0  0  0  0  0  0  0  0  0  0  0  0
  142.4810   76.5350  219.8560 N   0  0  0  0  0  0  0  0  0  0  0  0
  142.3130   77.7370  219.2770 C   0  0  0  0  0  0  0  0  0  0  0  0
  141.2510   78.3390  219.9130 C   0  0  0  0  0  0  0  0  0  0  0  0
  140.7500   77.5040  220.8990 C   0  0  0  0  0  0  0  0  0  0  0  0
  141.5520   76.3730  220.8340 C   0  0  0  0  0  0  0  0  0  0  0  0
  140.2000   71.9620  223.0250 C   0  0  0  0  0  0  0  0  0  0  0  0
  139.6460   70.7070  222.8000 C   0  0  0  0  0  0  0  0  0  0  0  0
  139.5580   69.7620  223.7950 C   0  0  0  0  0  0  0  0  0  0  0  0
  140.0340   70.0850  225.0390 C   0  0  0  0  0  0  0  0  0  0  0  0
  139.9980   69.2150  226.1150 C   0  0  0  0  0  0  0  0  0  0  0  0
  140.4870   69.5750  227.3500 C   0  0  0  0  0  0  0  0  0  0  0  0
  140.4540   68.4990  228.7230 Cl  0  0  0  0  0  0  0  0  0  0  0  0
  141.0380   70.8420  227.5460 C   0  0  0  0  0  0  0  0  0  0  0  0
  141.0840   71.7270  226.4820 C   0  0  0  0  0  0  0  0  0  0  0  0
  140.5840   71.3390  225.2450 C   0  0  0  0  0  0  0  0  0  0  0  0
  140.6620   72.2540  224.2550 N   0  0  0  0  0  0  0  0  0  0  0  0
  140.5770   71.3880  220.4780 H   0  0  0  0  0  0  0  0  0  0  0  0
  139.6388   73.2757  218.9071 H   0  0  0  0  0  0  0  0  0  0  0  0
  140.6327   74.3809  219.9443 H   0  0  0  0  0  0  0  0  0  0  0  0
  144.1343   71.4574  219.4612 H   0  0  0  0  0  0  0  0  0  0  0  0
  144.3756   72.2628  217.9091 H   0  0  0  0  0  0  0  0  0  0  0  0
  145.8552   73.9574  218.9413 H   0  0  0  0  0  0  0  0  0  0  0  0
  146.1810   71.9100  220.8770 H   0  0  0  0  0  0  0  0  0  0  0  0
  144.5365   73.0695  221.6038 H   0  0  0  0  0  0  0  0  0  0  0  0
  145.2493   74.6275  221.2894 H   0  0  0  0  0  0  0  0  0  0  0  0
  142.6278   74.3785  221.0437 H   0  0  0  0  0  0  0  0  0  0  0  0
  144.4772   76.0038  219.7099 H   0  0  0  0  0  0  0  0  0  0  0  0
  143.3555   75.3515  218.4236 H   0  0  0  0  0  0  0  0  0  0  0  0
  142.9092   78.1579  218.4540 H   0  0  0  0  0  0  0  0  0  0  0  0
  140.8572   79.3378  219.6734 H   0  0  0  0  0  0  0  0  0  0  0  0
  139.9070   77.6945  221.5795 H   0  0  0  0  0  0  0  0  0  0  0  0
  141.4512   75.4843  221.4743 H   0  0  0  0  0  0  0  0  0  0  0  0
  139.2669   70.4628  221.7967 H   0  0  0  0  0  0  0  0  0  0  0  0
  139.1175   68.7735  223.5979 H   0  0  0  0  0  0  0  0  0  0  0  0
  139.5681   68.2116  225.9797 H   0  0  0  0  0  0  0  0  0  0  0  0
  141.4301   71.1335  228.5315 H   0  0  0  0  0  0  0  0  0  0  0  0
  141.5136   72.7308  226.6152 H   0  0  0  0  0  0  0  0  0  0  0  0
  1  2  2  0
  2  3  1  0
  3  4  1  0
  4  5  1  0
  5  6  2  0
  5  7  1  0
  7  8  1  0
  8  9  1  0
  9 10  1  0
  9 11  1  0
 11 12  1  0
 12 13  1  0
 13 14  1  0
 14 15  1  0
 15 16  2  0
 16 17  1  0
 17 18  2  0
  2 19  1  0
 19 20  2  0
 20 21  1  0
 21 22  2  0
 22 23  1  0
 23 24  2  0
 24 25  1  0
 24 26  1  0
 26 27  2  0
 27 28  1  0
 28 29  2  0
 12  7  1  0
 18 14  1  0
 29 19  1  0
 28 22  1  0
  3 30  1  0
  4 31  1  0
  4 32  1  0
  8 33  1  0
  8 34  1  0
  9 35  1  6
 10 36  1  0
 11 37  1  0
 11 38  1  0
 12 39  1  1
 13 40  1  0
 13 41  1  0
 15 42  1  0
 16 43  1  0
 17 44  1  0
 18 45  1  0
 20 46  1  0
 21 47  1  0
 23 48  1  0
 26 49  1  0
 27 50  1  0
M  END
>  <smiles>  (22) 
O=C(NCC(=O)N1C[C@H](O)C[C@H]1Cn1cccc1)c1ccc2cc(Cl)ccc2n1

>  <score_type>  (22) 
oracle

>  <origin>  (22) 
autodockgpu

>  <m_score__min__energy>  (22) 
-8.1199999999999992

>  <m_primary>  (22) 
energy

>  <rmsd>  (22) 
3.85674704283833

>  <m_score__min__rmsd>  (22) 
3.85674704283833

>  <meeko>  (22) 
{"free_energy": -7.84, "intermolecular_energy": -9.92, "internal_energy": -1.6, "cluster_size": 7, "cluster_id": 4, "rank_in_cluster": 2}

>  <energy>  (22) 
-7.63

>  <cluster_rmsd>  (22) 
1.57

>  <cluster>  (22) 
3

$$$$

     RDKit          3D

 50 53  0  0  0  0  0  0  0  0999 V2000
  134.7960   68.2830  224.9100 O   0  0  0  0  0  0  0  0  0  0  0  0
  135.1140   69.4080  224.4790 C   0  0  0  0  0  0  0  0  0  0  0  0
  135.9940   69.5420  223.3660 N   0  0  0  0  0  0  0  0  0  0  0  0
  136.5030   68.3460  222.7500 C   0  0  0  0  0  0  0  0  0  0  0  0
  137.9510   68.4840  222.3870 C   0  0  0  0  0  0  0  0  0  0  0  0
  138.5270   67.5970  221.6860 O   0  0  0  0  0  0  0  0  0  0  0  0
  138.6430   69.6360  222.8540 N   0  0  0  0  0  0  0  0  0  0  0  0
  138.5460   71.0100  222.3340 C   0  0  0  0  0  0  0  0  0  0  0  0
  139.1830   71.8700  223.3800 C   0  0  2  0  0  0  0  0  0  0  0  0
  139.7190   72.9790  222.7230 O   0  0  0  0  0  0  0  0  0  0  0  0
  140.2980   70.9410  223.8690 C   0  0  0  0  0  0  0  0  0  0  0  0
  139.5820   69.6280  223.9540 C   0  0  1  0  0  0  0  0  0  0  0  0
  138.7550   69.5180  225.2180 C   0  0  0  0  0  0  0  0  0  0  0  0
  139.5350   69.2080  226.3890 N   0  0  0  0  0  0  0  0  0  0  0  0
  139.6200   69.9770  227.4890 C   0  0  0  0  0  0  0  0  0  0  0  0
  140.4580   69.3260  228.3650 C   0  0  0  0  0  0  0  0  0  0  0  0
  140.9010   68.1370  227.8070 C   0  0  0  0  0  0  0  0  0  0  0  0
  140.2970   68.0960  226.5580 C   0  0  0  0  0  0  0  0  0  0  0  0
  134.6010   70.6390  225.0990 C   0  0  0  0  0  0  0  0  0  0  0  0
  133.6220   70.5550  226.0830 C   0  0  0  0  0  0  0  0  0  0  0  0
  133.1070   71.6740  226.6940 C   0  0  0  0  0  0  0  0  0  0  0  0
  133.5840   72.8990  226.3090 C   0  0  0  0  0  0  0  0  0  0  0  0
  133.1410   74.0920  226.8550 C   0  0  0  0  0  0  0  0  0  0  0  0
  133.6450   75.3050  226.4430 C   0  0  0  0  0  0  0  0  0  0  0  0
  133.1040   76.8220  227.1130 Cl  0  0  0  0  0  0  0  0  0  0  0  0
  134.6270   75.3590  225.4530 C   0  0  0  0  0  0  0  0  0  0  0  0
  135.0850   74.1770  224.8950 C   0  0  0  0  0  0  0  0  0  0  0  0
  134.5600   72.9650  225.3290 C   0  0  0  0  0  0  0  0  0  0  0  0
  135.0540   71.8550  224.7390 N   0  0  0  0  0  0  0  0  0  0  0  0
  136.2370   70.5130  223.0340 H   0  0  0  0  0  0  0  0  0  0  0  0
  136.3897   67.5070  223.4523 H   0  0  0  0  0  0  0  0  0  0  0  0
  135.9330   68.1659  221.8266 H   0  0  0  0  0  0  0  0  0  0  0  0
  139.0850   71.1003  221.3794 H   0  0  0  0  0  0  0  0  0  0  0  0
  137.5041   71.3035  222.1384 H   0  0  0  0  0  0  0  0  0  0  0  0
  138.5317   72.2371  224.1869 H   0  0  0  0  0  0  0  0  0  0  0  0
  139.1810   73.8030  222.8330 H   0  0  0  0  0  0  0  0  0  0  0  0
  141.1293   70.8988  223.1499 H   0  0  0  0  0  0  0  0  0  0  0  0
  140.7625   71.2589  224.8141 H   0  0  0  0  0  0  0  0  0  0  0  0
  140.3115   68.8048  223.9364 H   0  0  0  0  0  0  0  0  0  0  0  0
  138.2435   70.4775  225.3842 H   0  0  0  0  0  0  0  0  0  0  0  0
  138.0476   68.6885  225.0711 H   0  0  0  0  0  0  0  0  0  0  0  0
  139.1166   70.9407  227.6562 H   0  0  0  0  0  0  0  0  0  0  0  0
  140.7360   69.6955  229.3631 H   0  0  0  0  0  0  0  0  0  0  0  0
  141.5782   67.3939  228.2532 H   0  0  0  0  0  0  0  0  0  0  0  0
  140.4166   67.2890  225.8201 H   0  0  0  0  0  0  0  0  0  0  0  0
  133.2486   69.5643  226.3813 H   0  0  0  0  0  0  0  0  0  0  0  0
  132.3330   71.5878  227.4708 H   0  0  0  0  0  0  0  0  0  0  0  0
  132.3676   74.0699  227.6369 H   0  0  0  0  0  0  0  0  0  0  0  0
  135.0315   76.3264  225.1206 H   0  0  0  0  0  0  0  0  0  0  0  0
  135.8590   74.1970  224.1136 H   0  0  0  0  0  0  0  0  0  0  0  0
  1  2  2  0
  2  3  1  0
  3  4  1  0
  4  5  1  0
  5  6  2  0
  5  7  1  0
  7  8  1  0
  8  9  1  0
  9 10  1  0
  9 11  1  0
 11 12  1  0
 12 13  1  0
 13 14  1  0
 14 15  1  0
 15 16  2  0
 16 17  1  0
 17 18  2  0
  2 19  1  0
 19 20  2  0
 20 21  1  0
 21 22  2  0
 22 23  1  0
 23 24  2  0
 24 25  1  0
 24 26  1  0
 26 27  2  0
 27 28  1  0
 28 29  2  0
 12  7  1  0
 18 14  1  0
 29 19  1  0
 28 22  1  0
  3 30  1  0
  4 31  1  0
  4 32  1  0
  8 33  1  0
  8 34  1  0
  9 35  1  1
 10 36  1  0
 11 37  1  0
 11 38  1  0
 12 39  1  6
 13 40  1  0
 13 41  1  0
 15 42  1  0
 16 43  1  0
 17 44  1  0
 18 45  1  0
 20 46  1  0
 21 47  1  0
 23 48  1  0
 26 49  1  0
 27 50  1  0
M  END
>  <smiles>  (23) 
O=C(NCC(=O)N1C[C@H](O)C[C@H]1Cn1cccc1)c1ccc2cc(Cl)ccc2n1

>  <score_type>  (23) 
oracle

>  <origin>  (23) 
autodockgpu

>  <m_score__min__energy>  (23) 
-8.1199999999999992

>  <m_primary>  (23) 
energy

>  <rmsd>  (23) 
8.697754250436146

>  <m_score__min__rmsd>  (23) 
8.697754250436146

>  <meeko>  (23) 
{"free_energy": -7.17, "intermolecular_energy": -9.26, "internal_energy": -1.95, "cluster_size": 12, "cluster_id": 7, "rank_in_cluster": 10}

>  <energy>  (23) 
-7.6

>  <cluster_rmsd>  (23) 
0.51

>  <cluster>  (23) 
3

$$$$

     RDKit          3D

 50 53  0  0  0  0  0  0  0  0999 V2000
  142.2490   73.4420  220.7550 O   0  0  0  0  0  0  0  0  0  0  0  0
  141.4250   74.1780  221.3330 C   0  0  0  0  0  0  0  0  0  0  0  0
  140.3720   73.6210  222.1150 N   0  0  0  0  0  0  0  0  0  0  0  0
  140.2840   72.1900  222.2230 C   0  0  0  0  0  0  0  0  0  0  0  0
  138.9300   71.7530  222.6990 C   0  0  0  0  0  0  0  0  0  0  0  0
  137.9590   72.5690  222.7170 O   0  0  0  0  0  0  0  0  0  0  0  0
  138.7830   70.4030  223.1230 N   0  0  0  0  0  0  0  0  0  0  0  0
  138.5550   69.2200  222.2780 C   0  0  0  0  0  0  0  0  0  0  0  0
  138.8280   68.0460  223.1650 C   0  0  2  0  0  0  0  0  0  0  0  0
  138.0330   66.9950  222.7070 O   0  0  0  0  0  0  0  0  0  0  0  0
  138.3060   68.5760  224.5030 C   0  0  0  0  0  0  0  0  0  0  0  0
  138.8390   69.9750  224.5040 C   0  0  1  0  0  0  0  0  0  0  0  0
  140.2980   70.0230  224.9050 C   0  0  0  0  0  0  0  0  0  0  0  0
  140.5320   70.7290  226.1380 N   0  0  0  0  0  0  0  0  0  0  0  0
  140.0320   70.3820  227.3370 C   0  0  0  0  0  0  0  0  0  0  0  0
  140.4920   71.3100  228.2440 C   0  0  0  0  0  0  0  0  0  0  0  0
  141.2890   72.2460  227.6040 C   0  0  0  0  0  0  0  0  0  0  0  0
  141.2920   71.8470  226.2750 C   0  0  0  0  0  0  0  0  0  0  0  0
  141.5040   75.6430  221.2320 C   0  0  0  0  0  0  0  0  0  0  0  0
  142.0690   76.2230  220.1020 C   0  0  0  0  0  0  0  0  0  0  0  0
  142.1690   77.5860  219.9570 C   0  0  0  0  0  0  0  0  0  0  0  0
  141.6920   78.3810  220.9660 C   0  0  0  0  0  0  0  0  0  0  0  0
  141.7380   79.7640  220.9300 C   0  0  0  0  0  0  0  0  0  0  0  0
  141.2480   80.5300  221.9630 C   0  0  0  0  0  0  0  0  0  0  0  0
  141.2940   82.2740  221.9430 Cl  0  0  0  0  0  0  0  0  0  0  0  0
  140.6860   79.9200  223.0850 C   0  0  0  0  0  0  0  0  0  0  0  0
  140.6300   78.5370  223.1410 C   0  0  0  0  0  0  0  0  0  0  0  0
  141.1310   77.7870  222.0840 C   0  0  0  0  0  0  0  0  0  0  0  0
  141.0420   76.4460  222.2090 N   0  0  0  0  0  0  0  0  0  0  0  0
  139.6970   74.2810  222.5870 H   0  0  0  0  0  0  0  0  0  0  0  0
  140.4756   71.7453  221.2353 H   0  0  0  0  0  0  0  0  0  0  0  0
  141.0311   71.8544  222.9573 H   0  0  0  0  0  0  0  0  0  0  0  0
  137.5159   69.1978  221.9176 H   0  0  0  0  0  0  0  0  0  0  0  0
  139.1998   69.2208  221.3868 H   0  0  0  0  0  0  0  0  0  0  0  0
  139.8669   67.6874  223.2096 H   0  0  0  0  0  0  0  0  0  0  0  0
  138.2760   66.6790  221.8020 H   0  0  0  0  0  0  0  0  0  0  0  0
  137.2066   68.5657  224.5369 H   0  0  0  0  0  0  0  0  0  0  0  0
  138.6181   67.9786  225.3723 H   0  0  0  0  0  0  0  0  0  0  0  0
  138.2600   70.5926  225.2064 H   0  0  0  0  0  0  0  0  0  0  0  0
  140.6615   68.9912  225.0202 H   0  0  0  0  0  0  0  0  0  0  0  0
  140.8333   70.5681  224.1135 H   0  0  0  0  0  0  0  0  0  0  0  0
  139.3806   69.5220  227.5519 H   0  0  0  0  0  0  0  0  0  0  0  0
  140.2608   71.3088  229.3194 H   0  0  0  0  0  0  0  0  0  0  0  0
  141.8033   73.1104  228.0493 H   0  0  0  0  0  0  0  0  0  0  0  0
  141.8263   72.3564  225.4595 H   0  0  0  0  0  0  0  0  0  0  0  0
  142.4472   75.5718  219.3002 H   0  0  0  0  0  0  0  0  0  0  0  0
  142.6197   78.0267  219.0555 H   0  0  0  0  0  0  0  0  0  0  0  0
  142.1772   80.2633  220.0537 H   0  0  0  0  0  0  0  0  0  0  0  0
  140.2932   80.5284  223.9130 H   0  0  0  0  0  0  0  0  0  0  0  0
  140.1917   78.0358  224.0166 H   0  0  0  0  0  0  0  0  0  0  0  0
  1  2  2  0
  2  3  1  0
  3  4  1  0
  4  5  1  0
  5  6  2  0
  5  7  1  0
  7  8  1  0
  8  9  1  0
  9 10  1  0
  9 11  1  0
 11 12  1  0
 12 13  1  0
 13 14  1  0
 14 15  1  0
 15 16  2  0
 16 17  1  0
 17 18  2  0
  2 19  1  0
 19 20  2  0
 20 21  1  0
 21 22  2  0
 22 23  1  0
 23 24  2  0
 24 25  1  0
 24 26  1  0
 26 27  2  0
 27 28  1  0
 28 29  2  0
 12  7  1  0
 18 14  1  0
 29 19  1  0
 28 22  1  0
  3 30  1  0
  4 31  1  0
  4 32  1  0
  8 33  1  0
  8 34  1  0
  9 35  1  1
 10 36  1  0
 11 37  1  0
 11 38  1  0
 12 39  1  1
 13 40  1  0
 13 41  1  0
 15 42  1  0
 16 43  1  0
 17 44  1  0
 18 45  1  0
 20 46  1  0
 21 47  1  0
 23 48  1  0
 26 49  1  0
 27 50  1  0
M  END
>  <smiles>  (24) 
O=C(NCC(=O)N1C[C@H](O)C[C@H]1Cn1cccc1)c1ccc2cc(Cl)ccc2n1

>  <score_type>  (24) 
oracle

>  <origin>  (24) 
autodockgpu

>  <m_score__min__energy>  (24) 
-8.1199999999999992

>  <m_primary>  (24) 
energy

>  <rmsd>  (24) 
9.02767866831031

>  <m_score__min__rmsd>  (24) 
9.02767866831031

>  <meeko>  (24) 
{"free_energy": -7.06, "intermolecular_energy": -9.15, "internal_energy": -1.72, "cluster_size": 2, "cluster_id": 6, "rank_in_cluster": 2}

>  <energy>  (24) 
-7.55

>  <cluster_rmsd>  (24) 
1.71

>  <cluster>  (24) 
3

$$$$

     RDKit          3D

 50 53  0  0  0  0  0  0  0  0999 V2000
  140.2380   72.7800  220.7690 O   0  0  0  0  0  0  0  0  0  0  0  0
  139.9510   73.0380  221.9540 C   0  0  0  0  0  0  0  0  0  0  0  0
  139.5690   74.3540  222.3430 N   0  0  0  0  0  0  0  0  0  0  0  0
  139.5220   75.3780  221.3350 C   0  0  0  0  0  0  0  0  0  0  0  0
  139.1200   76.7030  221.9090 C   0  0  0  0  0  0  0  0  0  0  0  0
  138.4920   76.7640  223.0100 O   0  0  0  0  0  0  0  0  0  0  0  0
  139.4670   77.8740  221.1780 N   0  0  0  0  0  0  0  0  0  0  0  0
  138.8990   79.2230  221.3280 C   0  0  0  0  0  0  0  0  0  0  0  0
  139.8400   80.1270  220.5960 C   0  0  2  0  0  0  0  0  0  0  0  0
  139.0870   81.2050  220.1270 O   0  0  0  0  0  0  0  0  0  0  0  0
  140.2610   79.2180  219.4370 C   0  0  0  0  0  0  0  0  0  0  0  0
  140.4720   77.9120  220.1380 C   0  0  1  0  0  0  0  0  0  0  0  0
  141.8130   77.8590  220.8410 C   0  0  0  0  0  0  0  0  0  0  0  0
  141.8670   78.6610  222.0360 N   0  0  0  0  0  0  0  0  0  0  0  0
  142.3600   79.9100  222.1090 C   0  0  0  0  0  0  0  0  0  0  0  0
  142.2250   80.3140  223.4180 C   0  0  0  0  0  0  0  0  0  0  0  0
  141.6410   79.3070  224.1700 C   0  0  0  0  0  0  0  0  0  0  0  0
  141.4290   78.2780  223.2630 C   0  0  0  0  0  0  0  0  0  0  0  0
  139.9940   72.0000  222.9960 C   0  0  0  0  0  0  0  0  0  0  0  0
  139.5320   70.7210  222.7090 C   0  0  0  0  0  0  0  0  0  0  0  0
  139.5500   69.7140  223.6460 C   0  0  0  0  0  0  0  0  0  0  0  0
  140.0400   69.9990  224.8930 C   0  0  0  0  0  0  0  0  0  0  0  0
  140.1070   69.0660  225.9140 C   0  0  0  0  0  0  0  0  0  0  0  0
  140.6070   69.3890  227.1540 C   0  0  0  0  0  0  0  0  0  0  0  0
  140.7020   68.2340  228.4580 Cl  0  0  0  0  0  0  0  0  0  0  0  0
  141.0640   70.6820  227.4140 C   0  0  0  0  0  0  0  0  0  0  0  0
  141.0070   71.6300  226.4050 C   0  0  0  0  0  0  0  0  0  0  0  0
  140.4970   71.2780  225.1610 C   0  0  0  0  0  0  0  0  0  0  0  0
  140.4720   72.2540  224.2290 N   0  0  0  0  0  0  0  0  0  0  0  0
  139.3340   74.5280  223.3570 H   0  0  0  0  0  0  0  0  0  0  0  0
  140.5181   75.4747  220.8784 H   0  0  0  0  0  0  0  0  0  0  0  0
  138.7713   75.0871  220.5854 H   0  0  0  0  0  0  0  0  0  0  0  0
  137.8940   79.2703  220.8833 H   0  0  0  0  0  0  0  0  0  0  0  0
  138.7915   79.5092  222.3847 H   0  0  0  0  0  0  0  0  0  0  0  0
  140.6880   80.5308  221.1685 H   0  0  0  0  0  0  0  0  0  0  0  0
  138.4740   80.9690  219.3880 H   0  0  0  0  0  0  0  0  0  0  0  0
  139.4683   79.1424  218.6781 H   0  0  0  0  0  0  0  0  0  0  0  0
  141.1425   79.5766  218.8853 H   0  0  0  0  0  0  0  0  0  0  0  0
  140.4216   77.0876  219.4115 H   0  0  0  0  0  0  0  0  0  0  0  0
  142.0224   76.8140  221.1132 H   0  0  0  0  0  0  0  0  0  0  0  0
  142.5602   78.2662  220.1439 H   0  0  0  0  0  0  0  0  0  0  0  0
  142.7884   80.4957  221.2823 H   0  0  0  0  0  0  0  0  0  0  0  0
  142.5355   81.2937  223.8101 H   0  0  0  0  0  0  0  0  0  0  0  0
  141.4000   79.3202  225.2432 H   0  0  0  0  0  0  0  0  0  0  0  0
  140.9766   77.3040  223.5010 H   0  0  0  0  0  0  0  0  0  0  0  0
  139.1406   70.5078  221.7034 H   0  0  0  0  0  0  0  0  0  0  0  0
  139.1809   68.7072  223.4005 H   0  0  0  0  0  0  0  0  0  0  0  0
  139.7517   68.0415  225.7289 H   0  0  0  0  0  0  0  0  0  0  0  0
  141.4633   70.9444  228.4048 H   0  0  0  0  0  0  0  0  0  0  0  0
  141.3632   72.6546  226.5874 H   0  0  0  0  0  0  0  0  0  0  0  0
  1  2  2  0
  2  3  1  0
  3  4  1  0
  4  5  1  0
  5  6  2  0
  5  7  1  0
  7  8  1  0
  8  9  1  0
  9 10  1  0
  9 11  1  0
 11 12  1  0
 12 13  1  0
 13 14  1  0
 14 15  1  0
 15 16  2  0
 16 17  1  0
 17 18  2  0
  2 19  1  0
 19 20  2  0
 20 21  1  0
 21 22  2  0
 22 23  1  0
 23 24  2  0
 24 25  1  0
 24 26  1  0
 26 27  2  0
 27 28  1  0
 28 29  2  0
 12  7  1  0
 18 14  1  0
 29 19  1  0
 28 22  1  0
  3 30  1  0
  4 31  1  0
  4 32  1  0
  8 33  1  0
  8 34  1  0
  9 35  1  1
 10 36  1  0
 11 37  1  0
 11 38  1  0
 12 39  1  6
 13 40  1  0
 13 41  1  0
 15 42  1  0
 16 43  1  0
 17 44  1  0
 18 45  1  0
 20 46  1  0
 21 47  1  0
 23 48  1  0
 26 49  1  0
 27 50  1  0
M  END
>  <smiles>  (25) 
O=C(NCC(=O)N1C[C@H](O)C[C@H]1Cn1cccc1)c1ccc2cc(Cl)ccc2n1

>  <score_type>  (25) 
oracle

>  <origin>  (25) 
autodockgpu

>  <m_score__min__energy>  (25) 
-8.1199999999999992

>  <m_primary>  (25) 
energy

>  <rmsd>  (25) 
3.0364851671802815

>  <m_score__min__rmsd>  (25) 
3.0364851671802815

>  <meeko>  (25) 
{"free_energy": -7.3, "intermolecular_energy": -9.39, "internal_energy": -1.58, "cluster_size": 13, "cluster_id": 3, "rank_in_cluster": 13}

>  <energy>  (25) 
-7.4

>  <cluster_rmsd>  (25) 
1.6

>  <cluster>  (25) 
3

$$$$

     RDKit          3D

 50 53  0  0  0  0  0  0  0  0999 V2000
  139.9620   72.2000  220.6570 O   0  0  0  0  0  0  0  0  0  0  0  0
  139.6780   72.5480  221.8200 C   0  0  0  0  0  0  0  0  0  0  0  0
  139.2140   73.8670  222.0950 N   0  0  0  0  0  0  0  0  0  0  0  0
  139.0810   74.7860  220.9980 C   0  0  0  0  0  0  0  0  0  0  0  0
  138.8490   76.1890  221.4760 C   0  0  0  0  0  0  0  0  0  0  0  0
  137.8470   76.4640  222.2030 O   0  0  0  0  0  0  0  0  0  0  0  0
  139.7890   77.1840  221.0860 N   0  0  0  0  0  0  0  0  0  0  0  0
  139.7600   78.0130  219.8700 C   0  0  0  0  0  0  0  0  0  0  0  0
  140.7490   79.1080  220.1210 C   0  0  2  0  0  0  0  0  0  0  0  0
  141.2570   79.4900  218.8780 O   0  0  0  0  0  0  0  0  0  0  0  0
  141.8080   78.3530  220.9290 C   0  0  0  0  0  0  0  0  0  0  0  0
  140.9590   77.5420  221.8580 C   0  0  1  0  0  0  0  0  0  0  0  0
  140.4600   78.3620  223.0290 C   0  0  0  0  0  0  0  0  0  0  0  0
  141.2280   79.5580  223.2600 N   0  0  0  0  0  0  0  0  0  0  0  0
  140.7920   80.8130  223.0470 C   0  0  0  0  0  0  0  0  0  0  0  0
  141.8240   81.6560  223.3910 C   0  0  0  0  0  0  0  0  0  0  0  0
  142.9160   80.9210  223.8250 C   0  0  0  0  0  0  0  0  0  0  0  0
  142.5030   79.5990  223.7290 C   0  0  0  0  0  0  0  0  0  0  0  0
  139.8100   71.6170  222.9510 C   0  0  0  0  0  0  0  0  0  0  0  0
  139.4100   70.2940  222.8010 C   0  0  0  0  0  0  0  0  0  0  0  0
  139.5110   69.3830  223.8260 C   0  0  0  0  0  0  0  0  0  0  0  0
  140.0240   69.8090  225.0230 C   0  0  0  0  0  0  0  0  0  0  0  0
  140.1730   68.9820  226.1230 C   0  0  0  0  0  0  0  0  0  0  0  0
  140.6930   69.4460  227.3090 C   0  0  0  0  0  0  0  0  0  0  0  0
  140.8910   68.4260  228.7110 Cl  0  0  0  0  0  0  0  0  0  0  0  0
  141.0870   70.7800  227.4310 C   0  0  0  0  0  0  0  0  0  0  0  0
  140.9460   71.6240  226.3420 C   0  0  0  0  0  0  0  0  0  0  0  0
  140.4190   71.1300  225.1550 C   0  0  0  0  0  0  0  0  0  0  0  0
  140.3120   72.0110  224.1370 N   0  0  0  0  0  0  0  0  0  0  0  0
  138.9860   74.1180  223.0940 H   0  0  0  0  0  0  0  0  0  0  0  0
  140.0028   74.7613  220.3982 H   0  0  0  0  0  0  0  0  0  0  0  0
  138.2120   74.4799  220.3970 H   0  0  0  0  0  0  0  0  0  0  0  0
  140.0547   77.4203  218.9914 H   0  0  0  0  0  0  0  0  0  0  0  0
  138.7537   78.4060  219.6630 H   0  0  0  0  0  0  0  0  0  0  0  0
  140.3741   80.0112  220.6247 H   0  0  0  0  0  0  0  0  0  0  0  0
  140.5580   79.7160  218.2160 H   0  0  0  0  0  0  0  0  0  0  0  0
  142.4224   77.7094  220.2823 H   0  0  0  0  0  0  0  0  0  0  0  0
  142.5303   79.0067  221.4398 H   0  0  0  0  0  0  0  0  0  0  0  0
  141.5399   76.6920  222.2452 H   0  0  0  0  0  0  0  0  0  0  0  0
  139.4167   78.6503  222.8330 H   0  0  0  0  0  0  0  0  0  0  0  0
  140.5573   77.7357  223.9281 H   0  0  0  0  0  0  0  0  0  0  0  0
  139.8015   81.1083  222.6705 H   0  0  0  0  0  0  0  0  0  0  0  0
  141.7875   82.7537  223.3303 H   0  0  0  0  0  0  0  0  0  0  0  0
  143.8901   81.2997  224.1681 H   0  0  0  0  0  0  0  0  0  0  0  0
  143.1125   78.7217  223.9915 H   0  0  0  0  0  0  0  0  0  0  0  0
  139.0007   69.9664  221.8340 H   0  0  0  0  0  0  0  0  0  0  0  0
  139.1886   68.3403  223.6887 H   0  0  0  0  0  0  0  0  0  0  0  0
  139.8681   67.9279  226.0469 H   0  0  0  0  0  0  0  0  0  0  0  0
  141.5031   71.1549  228.3777 H   0  0  0  0  0  0  0  0  0  0  0  0
  141.2493   72.6788  226.4163 H   0  0  0  0  0  0  0  0  0  0  0  0
  1  2  2  0
  2  3  1  0
  3  4  1  0
  4  5  1  0
  5  6  2  0
  5  7  1  0
  7  8  1  0
  8  9  1  0
  9 10  1  0
  9 11  1  0
 11 12  1  0
 12 13  1  0
 13 14  1  0
 14 15  1  0
 15 16  2  0
 16 17  1  0
 17 18  2  0
  2 19  1  0
 19 20  2  0
 20 21  1  0
 21 22  2  0
 22 23  1  0
 23 24  2  0
 24 25  1  0
 24 26  1  0
 26 27  2  0
 27 28  1  0
 28 29  2  0
 12  7  1  0
 18 14  1  0
 29 19  1  0
 28 22  1  0
  3 30  1  0
  4 31  1  0
  4 32  1  0
  8 33  1  0
  8 34  1  0
  9 35  1  1
 10 36  1  0
 11 37  1  0
 11 38  1  0
 12 39  1  1
 13 40  1  0
 13 41  1  0
 15 42  1  0
 16 43  1  0
 17 44  1  0
 18 45  1  0
 20 46  1  0
 21 47  1  0
 23 48  1  0
 26 49  1  0
 27 50  1  0
M  END
>  <smiles>  (26) 
O=C(NCC(=O)N1C[C@H](O)C[C@H]1Cn1cccc1)c1ccc2cc(Cl)ccc2n1

>  <score_type>  (26) 
oracle

>  <origin>  (26) 
autodockgpu

>  <m_score__min__energy>  (26) 
-8.1199999999999992

>  <m_primary>  (26) 
energy

>  <rmsd>  (26) 
2.632105299272005

>  <m_score__min__rmsd>  (26) 
2.632105299272005

>  <meeko>  (26) 
{"free_energy": -7.77, "intermolecular_energy": -9.86, "internal_energy": -1.38, "cluster_size": 13, "cluster_id": 3, "rank_in_cluster": 4}

>  <energy>  (26) 
-7.3

>  <cluster_rmsd>  (26) 
0.95

>  <cluster>  (26) 
3

$$$$

     RDKit          3D

 50 53  0  0  0  0  0  0  0  0999 V2000
  138.9160   71.9640  220.7830 O   0  0  0  0  0  0  0  0  0  0  0  0
  139.1930   72.3860  221.9220 C   0  0  0  0  0  0  0  0  0  0  0  0
  139.2860   73.7840  222.1810 N   0  0  0  0  0  0  0  0  0  0  0  0
  139.0510   74.6960  221.0950 C   0  0  0  0  0  0  0  0  0  0  0  0
  138.9640   76.1150  221.5730 C   0  0  0  0  0  0  0  0  0  0  0  0
  138.0020   76.4880  222.3110 O   0  0  0  0  0  0  0  0  0  0  0  0
  139.9910   77.0130  221.1700 N   0  0  0  0  0  0  0  0  0  0  0  0
  140.2560   77.5180  219.8130 C   0  0  0  0  0  0  0  0  0  0  0  0
  141.1900   78.6720  220.0000 C   0  0  2  0  0  0  0  0  0  0  0  0
  141.9730   78.7540  218.8470 O   0  0  0  0  0  0  0  0  0  0  0  0
  142.0230   78.1710  221.1840 C   0  0  0  0  0  0  0  0  0  0  0  0
  140.9680   77.5860  222.0700 C   0  0  1  0  0  0  0  0  0  0  0  0
  140.2410   78.6520  222.8630 C   0  0  0  0  0  0  0  0  0  0  0  0
  141.0400   79.8230  223.1170 N   0  0  0  0  0  0  0  0  0  0  0  0
  140.8000   81.0480  222.6180 C   0  0  0  0  0  0  0  0  0  0  0  0
  141.7890   81.8750  223.1010 C   0  0  0  0  0  0  0  0  0  0  0  0
  142.6560   81.1580  223.9120 C   0  0  0  0  0  0  0  0  0  0  0  0
  142.1510   79.8650  223.8990 C   0  0  0  0  0  0  0  0  0  0  0  0
  139.4350   71.4630  223.0420 C   0  0  0  0  0  0  0  0  0  0  0  0
  139.0750   70.1260  222.9200 C   0  0  0  0  0  0  0  0  0  0  0  0
  139.2790   69.2220  223.9350 C   0  0  0  0  0  0  0  0  0  0  0  0
  139.8550   69.6700  225.0950 C   0  0  0  0  0  0  0  0  0  0  0  0
  140.1080   68.8520  226.1820 C   0  0  0  0  0  0  0  0  0  0  0  0
  140.6890   69.3380  227.3310 C   0  0  0  0  0  0  0  0  0  0  0  0
  141.0190   68.3290  228.7160 Cl  0  0  0  0  0  0  0  0  0  0  0  0
  141.0410   70.6850  227.4260 C   0  0  0  0  0  0  0  0  0  0  0  0
  140.7970   71.5210  226.3480 C   0  0  0  0  0  0  0  0  0  0  0  0
  140.2090   71.0050  225.2000 C   0  0  0  0  0  0  0  0  0  0  0  0
  140.0010   71.8780  224.1910 N   0  0  0  0  0  0  0  0  0  0  0  0
  139.5230   74.0970  223.1600 H   0  0  0  0  0  0  0  0  0  0  0  0
  139.8774   74.6125  220.3739 H   0  0  0  0  0  0  0  0  0  0  0  0
  138.0915   74.4320  220.6262 H   0  0  0  0  0  0  0  0  0  0  0  0
  140.7254   76.7378  219.1958 H   0  0  0  0  0  0  0  0  0  0  0  0
  139.3314   77.8165  219.2973 H   0  0  0  0  0  0  0  0  0  0  0  0
  140.7340   79.6587  220.1689 H   0  0  0  0  0  0  0  0  0  0  0  0
  142.9410   78.6460  219.0170 H   0  0  0  0  0  0  0  0  0  0  0  0
  142.7502   77.4083  220.8687 H   0  0  0  0  0  0  0  0  0  0  0  0
  142.6290   78.9521  221.6664 H   0  0  0  0  0  0  0  0  0  0  0  0
  141.4266   76.8749  222.7728 H   0  0  0  0  0  0  0  0  0  0  0  0
  139.3466   78.9561  222.2995 H   0  0  0  0  0  0  0  0  0  0  0  0
  139.9890   78.2136  223.8399 H   0  0  0  0  0  0  0  0  0  0  0  0
  139.9727   81.3344  221.9520 H   0  0  0  0  0  0  0  0  0  0  0  0
  141.8785   82.9481  222.8764 H   0  0  0  0  0  0  0  0  0  0  0  0
  143.5434   81.5299  224.4451 H   0  0  0  0  0  0  0  0  0  0  0  0
  142.5825   79.0083  224.4374 H   0  0  0  0  0  0  0  0  0  0  0  0
  138.6130   69.7811  221.9832 H   0  0  0  0  0  0  0  0  0  0  0  0
  138.9879   68.1675  223.8194 H   0  0  0  0  0  0  0  0  0  0  0  0
  139.8381   67.7871  226.1264 H   0  0  0  0  0  0  0  0  0  0  0  0
  141.5052   71.0773  228.3428 H   0  0  0  0  0  0  0  0  0  0  0  0
  141.0671   72.5860  226.4010 H   0  0  0  0  0  0  0  0  0  0  0  0
  1  2  2  0
  2  3  1  0
  3  4  1  0
  4  5  1  0
  5  6  2  0
  5  7  1  0
  7  8  1  0
  8  9  1  0
  9 10  1  0
  9 11  1  0
 11 12  1  0
 12 13  1  0
 13 14  1  0
 14 15  1  0
 15 16  2  0
 16 17  1  0
 17 18  2  0
  2 19  1  0
 19 20  2  0
 20 21  1  0
 21 22  2  0
 22 23  1  0
 23 24  2  0
 24 25  1  0
 24 26  1  0
 26 27  2  0
 27 28  1  0
 28 29  2  0
 12  7  1  0
 18 14  1  0
 29 19  1  0
 28 22  1  0
  3 30  1  0
  4 31  1  0
  4 32  1  0
  8 33  1  0
  8 34  1  0
  9 35  1  1
 10 36  1  0
 11 37  1  0
 11 38  1  0
 12 39  1  1
 13 40  1  0
 13 41  1  0
 15 42  1  0
 16 43  1  0
 17 44  1  0
 18 45  1  0
 20 46  1  0
 21 47  1  0
 23 48  1  0
 26 49  1  0
 27 50  1  0
M  END
>  <smiles>  (27) 
O=C(NCC(=O)N1C[C@H](O)C[C@H]1Cn1cccc1)c1ccc2cc(Cl)ccc2n1

>  <score_type>  (27) 
oracle

>  <origin>  (27) 
autodockgpu

>  <m_score__min__energy>  (27) 
-8.1199999999999992

>  <m_primary>  (27) 
energy

>  <rmsd>  (27) 
2.572216871332373

>  <m_score__min__rmsd>  (27) 
2.572216871332373

>  <meeko>  (27) 
{"free_energy": -7.77, "intermolecular_energy": -9.86, "internal_energy": -1.47, "cluster_size": 13, "cluster_id": 3, "rank_in_cluster": 5}

>  <energy>  (27) 
-7.84

>  <cluster_rmsd>  (27) 
0.0

>  <cluster>  (27) 
4

$$$$

     RDKit          3D

 50 53  0  0  0  0  0  0  0  0999 V2000
  138.9950   71.8350  220.7920 O   0  0  0  0  0  0  0  0  0  0  0  0
  139.3700   72.2530  221.9050 C   0  0  0  0  0  0  0  0  0  0  0  0
  139.6430   73.6370  222.1100 N   0  0  0  0  0  0  0  0  0  0  0  0
  139.4730   74.5380  221.0030 C   0  0  0  0  0  0  0  0  0  0  0  0
  140.2320   75.8150  221.2070 C   0  0  0  0  0  0  0  0  0  0  0  0
  140.2860   76.3570  222.3530 O   0  0  0  0  0  0  0  0  0  0  0  0
  140.8820   76.3860  220.0770 N   0  0  0  0  0  0  0  0  0  0  0  0
  140.6900   77.7360  219.5220 C   0  0  0  0  0  0  0  0  0  0  0  0
  141.8410   77.9420  218.5890 C   0  0  2  0  0  0  0  0  0  0  0  0
  141.4040   78.8120  217.5890 O   0  0  0  0  0  0  0  0  0  0  0  0
  142.0130   76.5250  218.0350 C   0  0  0  0  0  0  0  0  0  0  0  0
  141.8670   75.6960  219.2730 C   0  0  1  0  0  0  0  0  0  0  0  0
  143.1410   75.6730  220.0910 C   0  0  0  0  0  0  0  0  0  0  0  0
  143.6210   74.3440  220.3690 N   0  0  0  0  0  0  0  0  0  0  0  0
  142.8430   73.2670  220.5750 C   0  0  0  0  0  0  0  0  0  0  0  0
  143.6870   72.2040  220.8050 C   0  0  0  0  0  0  0  0  0  0  0  0
  145.0070   72.6220  220.7410 C   0  0  0  0  0  0  0  0  0  0  0  0
  144.9260   73.9790  220.4640 C   0  0  0  0  0  0  0  0  0  0  0  0
  139.5480   71.3420  223.0450 C   0  0  0  0  0  0  0  0  0  0  0  0
  139.1240   70.0230  222.9420 C   0  0  0  0  0  0  0  0  0  0  0  0
  139.2650   69.1290  223.9770 C   0  0  0  0  0  0  0  0  0  0  0  0
  139.8440   69.5710  225.1380 C   0  0  0  0  0  0  0  0  0  0  0  0
  140.0380   68.7620  226.2450 C   0  0  0  0  0  0  0  0  0  0  0  0
  140.6240   69.2420  227.3940 C   0  0  0  0  0  0  0  0  0  0  0  0
  140.8810   68.2450  228.8040 Cl  0  0  0  0  0  0  0  0  0  0  0  0
  141.0410   70.5710  227.4700 C   0  0  0  0  0  0  0  0  0  0  0  0
  140.8560   71.3970  226.3730 C   0  0  0  0  0  0  0  0  0  0  0  0
  140.2620   70.8880  225.2240 C   0  0  0  0  0  0  0  0  0  0  0  0
  140.1140   71.7510  224.1960 N   0  0  0  0  0  0  0  0  0  0  0  0
  139.9580   73.9470  223.0680 H   0  0  0  0  0  0  0  0  0  0  0  0
  139.8362   74.0497  220.0867 H   0  0  0  0  0  0  0  0  0  0  0  0
  138.4039   74.7834  220.9211 H   0  0  0  0  0  0  0  0  0  0  0  0
  139.7361   77.7975  218.9777 H   0  0  0  0  0  0  0  0  0  0  0  0
  140.6553   78.5037  220.3090 H   0  0  0  0  0  0  0  0  0  0  0  0
  142.7625   78.3597  219.0208 H   0  0  0  0  0  0  0  0  0  0  0  0
  142.1180   79.3960  217.2310 H   0  0  0  0  0  0  0  0  0  0  0  0
  141.2329   76.2853  217.2975 H   0  0  0  0  0  0  0  0  0  0  0  0
  142.9611   76.3664  217.5003 H   0  0  0  0  0  0  0  0  0  0  0  0
  141.6047   74.6634  218.9994 H   0  0  0  0  0  0  0  0  0  0  0  0
  143.9206   76.2159  219.5366 H   0  0  0  0  0  0  0  0  0  0  0  0
  142.9129   76.1437  221.0587 H   0  0  0  0  0  0  0  0  0  0  0  0
  141.7434   73.2403  220.5622 H   0  0  0  0  0  0  0  0  0  0  0  0
  143.3614   71.1734  221.0097 H   0  0  0  0  0  0  0  0  0  0  0  0
  145.9139   72.0149  220.8787 H   0  0  0  0  0  0  0  0  0  0  0  0
  145.7853   74.6546  220.3405 H   0  0  0  0  0  0  0  0  0  0  0  0
  138.6613   69.6835  222.0036 H   0  0  0  0  0  0  0  0  0  0  0  0
  138.9228   68.0885  223.8761 H   0  0  0  0  0  0  0  0  0  0  0  0
  139.7161   67.7109  226.2050 H   0  0  0  0  0  0  0  0  0  0  0  0
  141.5097   70.9574  228.3871 H   0  0  0  0  0  0  0  0  0  0  0  0
  141.1770   72.4484  226.4111 H   0  0  0  0  0  0  0  0  0  0  0  0
  1  2  2  0
  2  3  1  0
  3  4  1  0
  4  5  1  0
  5  6  2  0
  5  7  1  0
  7  8  1  0
  8  9  1  0
  9 10  1  0
  9 11  1  0
 11 12  1  0
 12 13  1  0
 13 14  1  0
 14 15  1  0
 15 16  2  0
 16 17  1  0
 17 18  2  0
  2 19  1  0
 19 20  2  0
 20 21  1  0
 21 22  2  0
 22 23  1  0
 23 24  2  0
 24 25  1  0
 24 26  1  0
 26 27  2  0
 27 28  1  0
 28 29  2  0
 12  7  1  0
 18 14  1  0
 29 19  1  0
 28 22  1  0
  3 30  1  0
  4 31  1  0
  4 32  1  0
  8 33  1  0
  8 34  1  0
  9 35  1  1
 10 36  1  0
 11 37  1  0
 11 38  1  0
 12 39  1  6
 13 40  1  0
 13 41  1  0
 15 42  1  0
 16 43  1  0
 17 44  1  0
 18 45  1  0
 20 46  1  0
 21 47  1  0
 23 48  1  0
 26 49  1  0
 27 50  1  0
M  END
>  <smiles>  (28) 
O=C(NCC(=O)N1C[C@H](O)C[C@H]1Cn1cccc1)c1ccc2cc(Cl)ccc2n1

>  <score_type>  (28) 
oracle

>  <origin>  (28) 
autodockgpu

>  <m_score__min__energy>  (28) 
-8.1199999999999992

>  <m_primary>  (28) 
energy

>  <rmsd>  (28) 
3.956875734792645

>  <m_score__min__rmsd>  (28) 
3.956875734792645

>  <meeko>  (28) 
{"free_energy": -6.8, "intermolecular_energy": -8.89, "internal_energy": -2.05, "cluster_size": 11, "cluster_id": 1, "rank_in_cluster": 11}

>  <energy>  (28) 
-7.84

>  <cluster_rmsd>  (28) 
0.09

>  <cluster>  (28) 
4

$$$$

     RDKit          3D

 50 53  0  0  0  0  0  0  0  0999 V2000
  140.0630   73.7300  222.3510 O   0  0  0  0  0  0  0  0  0  0  0  0
  140.0410   72.5000  222.1490 C   0  0  0  0  0  0  0  0  0  0  0  0
  139.9920   71.9790  220.8230 N   0  0  0  0  0  0  0  0  0  0  0  0
  139.9700   72.9070  219.7250 C   0  0  0  0  0  0  0  0  0  0  0  0
  141.1200   72.6840  218.7880 C   0  0  0  0  0  0  0  0  0  0  0  0
  140.9410   72.1020  217.6760 O   0  0  0  0  0  0  0  0  0  0  0  0
  142.4030   73.1470  219.1940 N   0  0  0  0  0  0  0  0  0  0  0  0
  143.7020   72.8340  218.5790 C   0  0  0  0  0  0  0  0  0  0  0  0
  144.6570   73.8330  219.1520 C   0  0  2  0  0  0  0  0  0  0  0  0
  145.9160   73.2290  219.1710 O   0  0  0  0  0  0  0  0  0  0  0  0
  144.1030   73.9710  220.5720 C   0  0  0  0  0  0  0  0  0  0  0  0
  142.6280   74.0300  220.3180 C   0  0  1  0  0  0  0  0  0  0  0  0
  142.1880   75.4080  219.8700 C   0  0  0  0  0  0  0  0  0  0  0  0
  141.0850   75.9340  220.6320 N   0  0  0  0  0  0  0  0  0  0  0  0
  139.8360   76.1100  220.1670 C   0  0  0  0  0  0  0  0  0  0  0  0
  139.0940   76.6290  221.2040 C   0  0  0  0  0  0  0  0  0  0  0  0
  139.8890   76.7780  222.3300 C   0  0  0  0  0  0  0  0  0  0  0  0
  141.1400   76.3290  221.9310 C   0  0  0  0  0  0  0  0  0  0  0  0
  140.0640   71.5400  223.2630 C   0  0  0  0  0  0  0  0  0  0  0  0
  139.5820   70.2510  223.0680 C   0  0  0  0  0  0  0  0  0  0  0  0
  139.5800   69.3150  224.0750 C   0  0  0  0  0  0  0  0  0  0  0  0
  140.0700   69.6820  225.3010 C   0  0  0  0  0  0  0  0  0  0  0  0
  140.1170   68.8250  226.3870 C   0  0  0  0  0  0  0  0  0  0  0  0
  140.6180   69.2300  227.6040 C   0  0  0  0  0  0  0  0  0  0  0  0
  140.6890   68.1710  228.9890 Cl  0  0  0  0  0  0  0  0  0  0  0  0
  141.0940   70.5310  227.7710 C   0  0  0  0  0  0  0  0  0  0  0  0
  141.0560   71.4040  226.6960 C   0  0  0  0  0  0  0  0  0  0  0  0
  140.5460   70.9700  225.4780 C   0  0  0  0  0  0  0  0  0  0  0  0
  140.5410   71.8760  224.4770 N   0  0  0  0  0  0  0  0  0  0  0  0
  139.9760   70.9320  220.6980 H   0  0  0  0  0  0  0  0  0  0  0  0
  139.0285   72.7810  219.1704 H   0  0  0  0  0  0  0  0  0  0  0  0
  140.0529   73.9247  220.1340 H   0  0  0  0  0  0  0  0  0  0  0  0
  144.0139   71.8108  218.8355 H   0  0  0  0  0  0  0  0  0  0  0  0
  143.6609   72.8867  217.4810 H   0  0  0  0  0  0  0  0  0  0  0  0
  144.7508   74.7922  218.6217 H   0  0  0  0  0  0  0  0  0  0  0  0
  146.6560   73.8480  218.9540 H   0  0  0  0  0  0  0  0  0  0  0  0
  144.3686   73.1023  221.1923 H   0  0  0  0  0  0  0  0  0  0  0  0
  144.4964   74.8383  221.1225 H   0  0  0  0  0  0  0  0  0  0  0  0
  142.0810   73.7656  221.2350 H   0  0  0  0  0  0  0  0  0  0  0  0
  143.0405   76.0958  219.9709 H   0  0  0  0  0  0  0  0  0  0  0  0
  141.8474   75.3164  218.8281 H   0  0  0  0  0  0  0  0  0  0  0  0
  139.4760   75.8829  219.1527 H   0  0  0  0  0  0  0  0  0  0  0  0
  138.0263   76.8877  221.1474 H   0  0  0  0  0  0  0  0  0  0  0  0
  139.5946   77.1648  223.3168 H   0  0  0  0  0  0  0  0  0  0  0  0
  142.0367   76.2977  222.5673 H   0  0  0  0  0  0  0  0  0  0  0  0
  139.1906   69.9715  222.0787 H   0  0  0  0  0  0  0  0  0  0  0  0
  139.1955   68.2991  223.9013 H   0  0  0  0  0  0  0  0  0  0  0  0
  139.7452   67.7958  226.2751 H   0  0  0  0  0  0  0  0  0  0  0  0
  141.4936   70.8586  228.7421 H   0  0  0  0  0  0  0  0  0  0  0  0
  141.4270   72.4337  226.8056 H   0  0  0  0  0  0  0  0  0  0  0  0
  1  2  2  0
  2  3  1  0
  3  4  1  0
  4  5  1  0
  5  6  2  0
  5  7  1  0
  7  8  1  0
  8  9  1  0
  9 10  1  0
  9 11  1  0
 11 12  1  0
 12 13  1  0
 13 14  1  0
 14 15  1  0
 15 16  2  0
 16 17  1  0
 17 18  2  0
  2 19  1  0
 19 20  2  0
 20 21  1  0
 21 22  2  0
 22 23  1  0
 23 24  2  0
 24 25  1  0
 24 26  1  0
 26 27  2  0
 27 28  1  0
 28 29  2  0
 12  7  1  0
 18 14  1  0
 29 19  1  0
 28 22  1  0
  3 30  1  0
  4 31  1  0
  4 32  1  0
  8 33  1  0
  8 34  1  0
  9 35  1  6
 10 36  1  0
 11 37  1  0
 11 38  1  0
 12 39  1  1
 13 40  1  0
 13 41  1  0
 15 42  1  0
 16 43  1  0
 17 44  1  0
 18 45  1  0
 20 46  1  0
 21 47  1  0
 23 48  1  0
 26 49  1  0
 27 50  1  0
M  END
>  <smiles>  (29) 
O=C(NCC(=O)N1C[C@H](O)C[C@H]1Cn1cccc1)c1ccc2cc(Cl)ccc2n1

>  <score_type>  (29) 
oracle

>  <origin>  (29) 
autodockgpu

>  <m_score__min__energy>  (29) 
-8.1199999999999992

>  <m_primary>  (29) 
energy

>  <rmsd>  (29) 
3.645855624301701

>  <m_score__min__rmsd>  (29) 
3.645855624301701

>  <meeko>  (29) 
{"free_energy": -7.26, "intermolecular_energy": -9.35, "internal_energy": -1.68, "cluster_size": 7, "cluster_id": 4, "rank_in_cluster": 5}

>  <energy>  (29) 
-7.74

>  <cluster_rmsd>  (29) 
0.37

>  <cluster>  (29) 
4

$$$$

     RDKit          3D

 50 53  0  0  0  0  0  0  0  0999 V2000
  140.5520   72.3210  220.9650 O   0  0  0  0  0  0  0  0  0  0  0  0
  139.8920   72.5000  222.0070 C   0  0  0  0  0  0  0  0  0  0  0  0
  139.0600   73.6470  222.1560 N   0  0  0  0  0  0  0  0  0  0  0  0
  138.9990   74.5920  221.0740 C   0  0  0  0  0  0  0  0  0  0  0  0
  140.1480   75.5560  221.1150 C   0  0  0  0  0  0  0  0  0  0  0  0
  141.3400   75.1340  221.2150 O   0  0  0  0  0  0  0  0  0  0  0  0
  139.8480   76.9450  221.0360 N   0  0  0  0  0  0  0  0  0  0  0  0
  138.5490   77.5630  220.7240 C   0  0  0  0  0  0  0  0  0  0  0  0
  138.6950   78.9990  221.1150 C   0  0  2  0  0  0  0  0  0  0  0  0
  137.8510   79.7370  220.2840 O   0  0  0  0  0  0  0  0  0  0  0  0
  140.1620   79.2440  220.7490 C   0  0  0  0  0  0  0  0  0  0  0  0
  140.8140   77.9970  221.2610 C   0  0  1  0  0  0  0  0  0  0  0  0
  141.0420   78.0530  222.7570 C   0  0  0  0  0  0  0  0  0  0  0  0
  141.6440   79.2830  223.2010 N   0  0  0  0  0  0  0  0  0  0  0  0
  140.9900   80.2950  223.7980 C   0  0  0  0  0  0  0  0  0  0  0  0
  141.9230   81.2720  224.0600 C   0  0  0  0  0  0  0  0  0  0  0  0
  143.1740   80.8660  223.6230 C   0  0  0  0  0  0  0  0  0  0  0  0
  142.9590   79.6040  223.0860 C   0  0  0  0  0  0  0  0  0  0  0  0
  139.9460   71.5410  223.1210 C   0  0  0  0  0  0  0  0  0  0  0  0
  139.4780   70.2460  222.9340 C   0  0  0  0  0  0  0  0  0  0  0  0
  139.5050   69.3110  223.9420 C   0  0  0  0  0  0  0  0  0  0  0  0
  140.0090   69.6850  225.1600 C   0  0  0  0  0  0  0  0  0  0  0  0
  140.0850   68.8300  226.2450 C   0  0  0  0  0  0  0  0  0  0  0  0
  140.5990   69.2420  227.4540 C   0  0  0  0  0  0  0  0  0  0  0  0
  140.7070   68.1850  228.8380 Cl  0  0  0  0  0  0  0  0  0  0  0  0
  141.0610   70.5490  227.6130 C   0  0  0  0  0  0  0  0  0  0  0  0
  140.9940   71.4210  226.5380 C   0  0  0  0  0  0  0  0  0  0  0  0
  140.4710   70.9790  225.3280 C   0  0  0  0  0  0  0  0  0  0  0  0
  140.4370   71.8840  224.3270 N   0  0  0  0  0  0  0  0  0  0  0  0
  138.5190   73.7590  223.0550 H   0  0  0  0  0  0  0  0  0  0  0  0
  139.0266   74.0445  220.1203 H   0  0  0  0  0  0  0  0  0  0  0  0
  138.0657   75.1659  221.1716 H   0  0  0  0  0  0  0  0  0  0  0  0
  138.3283   77.4760  219.6499 H   0  0  0  0  0  0  0  0  0  0  0  0
  137.7214   77.0732  221.2581 H   0  0  0  0  0  0  0  0  0  0  0  0
  138.4524   79.2570  222.1564 H   0  0  0  0  0  0  0  0  0  0  0  0
  137.6060   79.2650  219.4490 H   0  0  0  0  0  0  0  0  0  0  0  0
  140.2923   79.3473  219.6616 H   0  0  0  0  0  0  0  0  0  0  0  0
  140.5787   80.1711  221.1695 H   0  0  0  0  0  0  0  0  0  0  0  0
  141.7836   77.8524  220.7621 H   0  0  0  0  0  0  0  0  0  0  0  0
  140.0713   77.9386  223.2616 H   0  0  0  0  0  0  0  0  0  0  0  0
  141.7412   77.2418  223.0081 H   0  0  0  0  0  0  0  0  0  0  0  0
  139.9159   80.3343  224.0319 H   0  0  0  0  0  0  0  0  0  0  0  0
  141.7073   82.2351  224.5456 H   0  0  0  0  0  0  0  0  0  0  0  0
  144.1228   81.4188  223.6872 H   0  0  0  0  0  0  0  0  0  0  0  0
  143.7328   78.9638  222.6373 H   0  0  0  0  0  0  0  0  0  0  0  0
  139.0743   69.9606  221.9514 H   0  0  0  0  0  0  0  0  0  0  0  0
  139.1319   68.2898  223.7749 H   0  0  0  0  0  0  0  0  0  0  0  0
  139.7260   67.7956  226.1391 H   0  0  0  0  0  0  0  0  0  0  0  0
  141.4723   70.8822  228.5773 H   0  0  0  0  0  0  0  0  0  0  0  0
  141.3522   72.4559  226.6413 H   0  0  0  0  0  0  0  0  0  0  0  0
  1  2  2  0
  2  3  1  0
  3  4  1  0
  4  5  1  0
  5  6  2  0
  5  7  1  0
  7  8  1  0
  8  9  1  0
  9 10  1  0
  9 11  1  0
 11 12  1  0
 12 13  1  0
 13 14  1  0
 14 15  1  0
 15 16  2  0
 16 17  1  0
 17 18  2  0
  2 19  1  0
 19 20  2  0
 20 21  1  0
 21 22  2  0
 22 23  1  0
 23 24  2  0
 24 25  1  0
 24 26  1  0
 26 27  2  0
 27 28  1  0
 28 29  2  0
 12  7  1  0
 18 14  1  0
 29 19  1  0
 28 22  1  0
  3 30  1  0
  4 31  1  0
  4 32  1  0
  8 33  1  0
  8 34  1  0
  9 35  1  1
 10 36  1  0
 11 37  1  0
 11 38  1  0
 12 39  1  6
 13 40  1  0
 13 41  1  0
 15 42  1  0
 16 43  1  0
 17 44  1  0
 18 45  1  0
 20 46  1  0
 21 47  1  0
 23 48  1  0
 26 49  1  0
 27 50  1  0
M  END
>  <smiles>  (30) 
O=C(NCC(=O)N1C[C@H](O)C[C@H]1Cn1cccc1)c1ccc2cc(Cl)ccc2n1

>  <score_type>  (30) 
oracle

>  <origin>  (30) 
autodockgpu

>  <m_score__min__energy>  (30) 
-8.1199999999999992

>  <m_primary>  (30) 
energy

>  <rmsd>  (30) 
2.577894154462354

>  <m_score__min__rmsd>  (30) 
2.577894154462354

>  <meeko>  (30) 
{"free_energy": -7.74, "intermolecular_energy": -9.82, "internal_energy": -1.22, "cluster_size": 13, "cluster_id": 3, "rank_in_cluster": 6}

>  <energy>  (30) 
-7.71

>  <cluster_rmsd>  (30) 
0.97

>  <cluster>  (30) 
4

$$$$

     RDKit          3D

 50 53  0  0  0  0  0  0  0  0999 V2000
  139.5190   72.4590  220.3150 O   0  0  0  0  0  0  0  0  0  0  0  0
  139.7980   72.8480  221.4660 C   0  0  0  0  0  0  0  0  0  0  0  0
  140.0550   74.2240  221.7290 N   0  0  0  0  0  0  0  0  0  0  0  0
  139.9830   75.1540  220.6340 C   0  0  0  0  0  0  0  0  0  0  0  0
  140.8920   76.3280  220.8450 C   0  0  0  0  0  0  0  0  0  0  0  0
  141.0350   76.8330  222.0000 O   0  0  0  0  0  0  0  0  0  0  0  0
  141.5790   76.8440  219.7110 N   0  0  0  0  0  0  0  0  0  0  0  0
  141.4820   78.2010  219.1480 C   0  0  0  0  0  0  0  0  0  0  0  0
  142.6440   78.3190  218.2120 C   0  0  2  0  0  0  0  0  0  0  0  0
  142.2670   79.2110  217.2060 O   0  0  0  0  0  0  0  0  0  0  0  0
  142.7140   76.8900  217.6670 C   0  0  0  0  0  0  0  0  0  0  0  0
  142.5120   76.0810  218.9110 C   0  0  1  0  0  0  0  0  0  0  0  0
  143.7820   75.9740  219.7270 C   0  0  0  0  0  0  0  0  0  0  0  0
  144.0680   74.6340  220.1710 N   0  0  0  0  0  0  0  0  0  0  0  0
  143.1550   73.6610  220.3370 C   0  0  0  0  0  0  0  0  0  0  0  0
  143.8360   72.5450  220.7670 C   0  0  0  0  0  0  0  0  0  0  0  0
  145.1900   72.8230  220.8700 C   0  0  0  0  0  0  0  0  0  0  0  0
  145.2990   74.1520  220.4850 C   0  0  0  0  0  0  0  0  0  0  0  0
  139.8740   71.9070  222.5940 C   0  0  0  0  0  0  0  0  0  0  0  0
  139.4130   70.6060  222.4340 C   0  0  0  0  0  0  0  0  0  0  0  0
  139.4600   69.6870  223.4560 C   0  0  0  0  0  0  0  0  0  0  0  0
  139.9800   70.0840  224.6600 C   0  0  0  0  0  0  0  0  0  0  0  0
  140.0790   69.2460  225.7570 C   0  0  0  0  0  0  0  0  0  0  0  0
  140.6080   69.6800  226.9510 C   0  0  0  0  0  0  0  0  0  0  0  0
  140.7430   68.6460  228.3500 Cl  0  0  0  0  0  0  0  0  0  0  0  0
  141.0630   70.9930  227.0830 C   0  0  0  0  0  0  0  0  0  0  0  0
  140.9740   71.8470  225.9960 C   0  0  0  0  0  0  0  0  0  0  0  0
  140.4360   71.3830  224.8010 C   0  0  0  0  0  0  0  0  0  0  0  0
  140.3810   72.2720  223.7860 N   0  0  0  0  0  0  0  0  0  0  0  0
  140.2870   74.5090  222.7180 H   0  0  0  0  0  0  0  0  0  0  0  0
  140.2758   74.6380  219.7077 H   0  0  0  0  0  0  0  0  0  0  0  0
  138.9502   75.5267  220.5670 H   0  0  0  0  0  0  0  0  0  0  0  0
  140.5340   78.3267  218.6044 H   0  0  0  0  0  0  0  0  0  0  0  0
  141.5028   78.9741  219.9302 H   0  0  0  0  0  0  0  0  0  0  0  0
  143.5934   78.6733  218.6400 H   0  0  0  0  0  0  0  0  0  0  0  0
  143.0330   79.6180  216.7300 H   0  0  0  0  0  0  0  0  0  0  0  0
  141.9174   76.7015  216.9322 H   0  0  0  0  0  0  0  0  0  0  0  0
  143.6475   76.6612  217.1319 H   0  0  0  0  0  0  0  0  0  0  0  0
  142.1774   75.0674  218.6451 H   0  0  0  0  0  0  0  0  0  0  0  0
  144.6229   76.3233  219.1099 H   0  0  0  0  0  0  0  0  0  0  0  0
  143.6412   76.5902  220.6273 H   0  0  0  0  0  0  0  0  0  0  0  0
  142.0719   73.7415  220.1626 H   0  0  0  0  0  0  0  0  0  0  0  0
  143.3731   71.5737  220.9957 H   0  0  0  0  0  0  0  0  0  0  0  0
  145.9958   72.1440  221.1855 H   0  0  0  0  0  0  0  0  0  0  0  0
  146.2364   74.7260  220.4409 H   0  0  0  0  0  0  0  0  0  0  0  0
  138.9983   70.3023  221.4615 H   0  0  0  0  0  0  0  0  0  0  0  0
  139.0903   68.6612  223.3109 H   0  0  0  0  0  0  0  0  0  0  0  0
  139.7262   68.2076  225.6724 H   0  0  0  0  0  0  0  0  0  0  0  0
  141.4859   71.3442  228.0358 H   0  0  0  0  0  0  0  0  0  0  0  0
  141.3268   72.8857  226.0778 H   0  0  0  0  0  0  0  0  0  0  0  0
  1  2  2  0
  2  3  1  0
  3  4  1  0
  4  5  1  0
  5  6  2  0
  5  7  1  0
  7  8  1  0
  8  9  1  0
  9 10  1  0
  9 11  1  0
 11 12  1  0
 12 13  1  0
 13 14  1  0
 14 15  1  0
 15 16  2  0
 16 17  1  0
 17 18  2  0
  2 19  1  0
 19 20  2  0
 20 21  1  0
 21 22  2  0
 22 23  1  0
 23 24  2  0
 24 25  1  0
 24 26  1  0
 26 27  2  0
 27 28  1  0
 28 29  2  0
 12  7  1  0
 18 14  1  0
 29 19  1  0
 28 22  1  0
  3 30  1  0
  4 31  1  0
  4 32  1  0
  8 33  1  0
  8 34  1  0
  9 35  1  1
 10 36  1  0
 11 37  1  0
 11 38  1  0
 12 39  1  6
 13 40  1  0
 13 41  1  0
 15 42  1  0
 16 43  1  0
 17 44  1  0
 18 45  1  0
 20 46  1  0
 21 47  1  0
 23 48  1  0
 26 49  1  0
 27 50  1  0
M  END
>  <smiles>  (31) 
O=C(NCC(=O)N1C[C@H](O)C[C@H]1Cn1cccc1)c1ccc2cc(Cl)ccc2n1

>  <score_type>  (31) 
oracle

>  <origin>  (31) 
autodockgpu

>  <m_score__min__energy>  (31) 
-8.1199999999999992

>  <m_primary>  (31) 
energy

>  <rmsd>  (31) 
4.17065751876327

>  <m_score__min__rmsd>  (31) 
4.17065751876327

>  <meeko>  (31) 
{"free_energy": -7.56, "intermolecular_energy": -9.65, "internal_energy": -2.14, "cluster_size": 11, "cluster_id": 1, "rank_in_cluster": 9}

>  <energy>  (31) 
-7.26

>  <cluster_rmsd>  (31) 
1.1

>  <cluster>  (31) 
4

$$$$

     RDKit          3D

 50 53  0  0  0  0  0  0  0  0999 V2000
  139.2670   72.8340  220.5120 O   0  0  0  0  0  0  0  0  0  0  0  0
  140.0330   72.9280  221.4910 C   0  0  0  0  0  0  0  0  0  0  0  0
  141.0180   73.9550  221.5500 N   0  0  0  0  0  0  0  0  0  0  0  0
  141.1070   74.8820  220.4540 C   0  0  0  0  0  0  0  0  0  0  0  0
  141.9430   74.3370  219.3340 C   0  0  0  0  0  0  0  0  0  0  0  0
  141.5130   74.3550  218.1410 O   0  0  0  0  0  0  0  0  0  0  0  0
  143.2220   73.8060  219.6630 N   0  0  0  0  0  0  0  0  0  0  0  0
  144.3110   74.4820  220.3860 C   0  0  0  0  0  0  0  0  0  0  0  0
  145.2630   73.3910  220.7660 C   0  0  2  0  0  0  0  0  0  0  0  0
  146.5350   73.9630  220.8220 O   0  0  0  0  0  0  0  0  0  0  0  0
  145.1380   72.4700  219.5490 C   0  0  0  0  0  0  0  0  0  0  0  0
  143.6580   72.4700  219.3210 C   0  0  1  0  0  0  0  0  0  0  0  0
  142.9410   71.5330  220.2690 C   0  0  0  0  0  0  0  0  0  0  0  0
  141.8470   70.8230  219.6570 N   0  0  0  0  0  0  0  0  0  0  0  0
  141.3210   69.6710  220.1100 C   0  0  0  0  0  0  0  0  0  0  0  0
  140.3040   69.3320  219.2470 C   0  0  0  0  0  0  0  0  0  0  0  0
  140.1940   70.2830  218.2440 C   0  0  0  0  0  0  0  0  0  0  0  0
  141.1840   71.2090  218.5360 C   0  0  0  0  0  0  0  0  0  0  0  0
  139.9530   71.9880  222.6190 C   0  0  0  0  0  0  0  0  0  0  0  0
  139.2330   70.8070  222.4790 C   0  0  0  0  0  0  0  0  0  0  0  0
  139.1260   69.8940  223.5010 C   0  0  0  0  0  0  0  0  0  0  0  0
  139.7540   70.1730  224.6870 C   0  0  0  0  0  0  0  0  0  0  0  0
  139.7160   69.3290  225.7830 C   0  0  0  0  0  0  0  0  0  0  0  0
  140.3600   69.6430  226.9580 C   0  0  0  0  0  0  0  0  0  0  0  0
  140.3280   68.5990  228.3550 Cl  0  0  0  0  0  0  0  0  0  0  0  0
  141.0760   70.8360  227.0700 C   0  0  0  0  0  0  0  0  0  0  0  0
  141.1270   71.6940  225.9840 C   0  0  0  0  0  0  0  0  0  0  0  0
  140.4680   71.3530  224.8090 C   0  0  0  0  0  0  0  0  0  0  0  0
  140.5620   72.2380  223.7940 N   0  0  0  0  0  0  0  0  0  0  0  0
  141.6460   73.9990  222.3970 H   0  0  0  0  0  0  0  0  0  0  0  0
  140.0942   75.0861  220.0764 H   0  0  0  0  0  0  0  0  0  0  0  0
  141.5833   75.8030  220.8212 H   0  0  0  0  0  0  0  0  0  0  0  0
  144.8069   75.2184  219.7365 H   0  0  0  0  0  0  0  0  0  0  0  0
  143.9431   75.0324  221.2645 H   0  0  0  0  0  0  0  0  0  0  0  0
  145.0791   72.8811  221.7232 H   0  0  0  0  0  0  0  0  0  0  0  0
  146.7440   74.5420  220.0480 H   0  0  0  0  0  0  0  0  0  0  0  0
  145.6777   72.8766  218.6810 H   0  0  0  0  0  0  0  0  0  0  0  0
  145.5671   71.4685  219.7002 H   0  0  0  0  0  0  0  0  0  0  0  0
  143.4411   72.1600  218.2881 H   0  0  0  0  0  0  0  0  0  0  0  0
  143.6663   70.7970  220.6460 H   0  0  0  0  0  0  0  0  0  0  0  0
  142.5161   72.1502  221.0743 H   0  0  0  0  0  0  0  0  0  0  0  0
  141.6419   69.1082  220.9990 H   0  0  0  0  0  0  0  0  0  0  0  0
  139.6709   68.4372  219.3394 H   0  0  0  0  0  0  0  0  0  0  0  0
  139.4820   70.2992  217.4057 H   0  0  0  0  0  0  0  0  0  0  0  0
  141.3990   72.1153  217.9508 H   0  0  0  0  0  0  0  0  0  0  0  0
  138.7339   70.5968  221.5215 H   0  0  0  0  0  0  0  0  0  0  0  0
  138.5520   68.9647  223.3706 H   0  0  0  0  0  0  0  0  0  0  0  0
  139.1574   68.3840  225.7133 H   0  0  0  0  0  0  0  0  0  0  0  0
  141.5923   71.0910  228.0073 H   0  0  0  0  0  0  0  0  0  0  0  0
  141.6855   72.6393  226.0511 H   0  0  0  0  0  0  0  0  0  0  0  0
  1  2  2  0
  2  3  1  0
  3  4  1  0
  4  5  1  0
  5  6  2  0
  5  7  1  0
  7  8  1  0
  8  9  1  0
  9 10  1  0
  9 11  1  0
 11 12  1  0
 12 13  1  0
 13 14  1  0
 14 15  1  0
 15 16  2  0
 16 17  1  0
 17 18  2  0
  2 19  1  0
 19 20  2  0
 20 21  1  0
 21 22  2  0
 22 23  1  0
 23 24  2  0
 24 25  1  0
 24 26  1  0
 26 27  2  0
 27 28  1  0
 28 29  2  0
 12  7  1  0
 18 14  1  0
 29 19  1  0
 28 22  1  0
  3 30  1  0
  4 31  1  0
  4 32  1  0
  8 33  1  0
  8 34  1  0
  9 35  1  1
 10 36  1  0
 11 37  1  0
 11 38  1  0
 12 39  1  6
 13 40  1  0
 13 41  1  0
 15 42  1  0
 16 43  1  0
 17 44  1  0
 18 45  1  0
 20 46  1  0
 21 47  1  0
 23 48  1  0
 26 49  1  0
 27 50  1  0
M  END
>  <smiles>  (32) 
O=C(NCC(=O)N1C[C@H](O)C[C@H]1Cn1cccc1)c1ccc2cc(Cl)ccc2n1

>  <score_type>  (32) 
oracle

>  <origin>  (32) 
autodockgpu

>  <m_score__min__energy>  (32) 
-8.1199999999999992

>  <m_primary>  (32) 
energy

>  <rmsd>  (32) 
5.764388406610656

>  <m_score__min__rmsd>  (32) 
5.764388406610656

>  <meeko>  (32) 
{"free_energy": -5.96, "intermolecular_energy": -8.05, "internal_energy": -2.64, "cluster_size": 7, "cluster_id": 4, "rank_in_cluster": 7}

>  <energy>  (32) 
-5.98

>  <cluster_rmsd>  (32) 
1.92

>  <cluster>  (32) 
4

$$$$

     RDKit          3D

 50 53  0  0  0  0  0  0  0  0999 V2000
  139.8340   72.3070  220.7650 O   0  0  0  0  0  0  0  0  0  0  0  0
  139.7640   72.6640  221.9570 C   0  0  0  0  0  0  0  0  0  0  0  0
  139.5850   74.0360  222.2990 N   0  0  0  0  0  0  0  0  0  0  0  0
  139.4860   74.9980  221.2340 C   0  0  0  0  0  0  0  0  0  0  0  0
  138.7040   76.2070  221.6510 C   0  0  0  0  0  0  0  0  0  0  0  0
  137.6180   76.0820  222.2940 O   0  0  0  0  0  0  0  0  0  0  0  0
  139.2250   77.4840  221.3020 N   0  0  0  0  0  0  0  0  0  0  0  0
  138.4850   78.6320  220.7530 C   0  0  0  0  0  0  0  0  0  0  0  0
  139.4080   79.8000  220.9020 C   0  0  2  0  0  0  0  0  0  0  0  0
  139.1060   80.6920  219.8720 O   0  0  0  0  0  0  0  0  0  0  0  0
  140.7600   79.1250  220.6540 C   0  0  0  0  0  0  0  0  0  0  0  0
  140.6150   77.8590  221.4390 C   0  0  1  0  0  0  0  0  0  0  0  0
  140.8500   78.0830  222.9190 C   0  0  0  0  0  0  0  0  0  0  0  0
  141.6280   79.2600  223.2050 N   0  0  0  0  0  0  0  0  0  0  0  0
  142.9430   79.3990  222.9580 C   0  0  0  0  0  0  0  0  0  0  0  0
  143.2950   80.6630  223.3750 C   0  0  0  0  0  0  0  0  0  0  0  0
  142.1870   81.3210  223.8870 C   0  0  0  0  0  0  0  0  0  0  0  0
  141.1530   80.4040  223.7630 C   0  0  0  0  0  0  0  0  0  0  0  0
  139.8640   71.6910  223.0550 C   0  0  0  0  0  0  0  0  0  0  0  0
  139.4440   70.3820  222.8520 C   0  0  0  0  0  0  0  0  0  0  0  0
  139.5140   69.4330  223.8440 C   0  0  0  0  0  0  0  0  0  0  0  0
  140.0150   69.8070  225.0640 C   0  0  0  0  0  0  0  0  0  0  0  0
  140.1340   68.9380  226.1350 C   0  0  0  0  0  0  0  0  0  0  0  0
  140.6430   69.3500  227.3450 C   0  0  0  0  0  0  0  0  0  0  0  0
  140.8030   68.2770  228.7110 Cl  0  0  0  0  0  0  0  0  0  0  0  0
  141.0570   70.6710  227.5210 C   0  0  0  0  0  0  0  0  0  0  0  0
  140.9470   71.5570  226.4610 C   0  0  0  0  0  0  0  0  0  0  0  0
  140.4300   71.1150  225.2490 C   0  0  0  0  0  0  0  0  0  0  0  0
  140.3530   72.0330  224.2620 N   0  0  0  0  0  0  0  0  0  0  0  0
  139.5310   74.2940  223.3200 H   0  0  0  0  0  0  0  0  0  0  0  0
  140.4989   75.3118  220.9416 H   0  0  0  0  0  0  0  0  0  0  0  0
  138.9618   74.5241  220.3910 H   0  0  0  0  0  0  0  0  0  0  0  0
  138.2431   78.4641  219.6932 H   0  0  0  0  0  0  0  0  0  0  0  0
  137.5298   78.7932  221.2742 H   0  0  0  0  0  0  0  0  0  0  0  0
  139.3609   80.3532  221.8516 H   0  0  0  0  0  0  0  0  0  0  0  0
  139.6900   80.5950  219.0790 H   0  0  0  0  0  0  0  0  0  0  0  0
  140.9150   78.9184  219.5848 H   0  0  0  0  0  0  0  0  0  0  0  0
  141.6254   79.7367  220.9487 H   0  0  0  0  0  0  0  0  0  0  0  0
  141.3362   77.1122  221.0754 H   0  0  0  0  0  0  0  0  0  0  0  0
  139.8735   78.1819  223.4156 H   0  0  0  0  0  0  0  0  0  0  0  0
  141.4212   77.2194  223.2904 H   0  0  0  0  0  0  0  0  0  0  0  0
  143.6090   78.6473  222.5092 H   0  0  0  0  0  0  0  0  0  0  0  0
  144.3073   81.0887  223.3113 H   0  0  0  0  0  0  0  0  0  0  0  0
  142.1386   82.3400  224.2986 H   0  0  0  0  0  0  0  0  0  0  0  0
  140.1106   80.5765  224.0690 H   0  0  0  0  0  0  0  0  0  0  0  0
  139.0435   70.0967  221.8680 H   0  0  0  0  0  0  0  0  0  0  0  0
  139.1772   68.4015  223.6638 H   0  0  0  0  0  0  0  0  0  0  0  0
  139.8138   67.8924  226.0157 H   0  0  0  0  0  0  0  0  0  0  0  0
  141.4646   71.0041  228.4868 H   0  0  0  0  0  0  0  0  0  0  0  0
  141.2667   72.6030  226.5781 H   0  0  0  0  0  0  0  0  0  0  0  0
  1  2  2  0
  2  3  1  0
  3  4  1  0
  4  5  1  0
  5  6  2  0
  5  7  1  0
  7  8  1  0
  8  9  1  0
  9 10  1  0
  9 11  1  0
 11 12  1  0
 12 13  1  0
 13 14  1  0
 14 15  1  0
 15 16  2  0
 16 17  1  0
 17 18  2  0
  2 19  1  0
 19 20  2  0
 20 21  1  0
 21 22  2  0
 22 23  1  0
 23 24  2  0
 24 25  1  0
 24 26  1  0
 26 27  2  0
 27 28  1  0
 28 29  2  0
 12  7  1  0
 18 14  1  0
 29 19  1  0
 28 22  1  0
  3 30  1  0
  4 31  1  0
  4 32  1  0
  8 33  1  0
  8 34  1  0
  9 35  1  1
 10 36  1  0
 11 37  1  0
 11 38  1  0
 12 39  1  6
 13 40  1  0
 13 41  1  0
 15 42  1  0
 16 43  1  0
 17 44  1  0
 18 45  1  0
 20 46  1  0
 21 47  1  0
 23 48  1  0
 26 49  1  0
 27 50  1  0
M  END
>  <smiles>  (33) 
O=C(NCC(=O)N1C[C@H](O)C[C@H]1Cn1cccc1)c1ccc2cc(Cl)ccc2n1

>  <score_type>  (33) 
oracle

>  <origin>  (33) 
autodockgpu

>  <m_score__min__energy>  (33) 
-8.1199999999999992

>  <m_primary>  (33) 
energy

>  <rmsd>  (33) 
2.788729121507218

>  <m_score__min__rmsd>  (33) 
2.788729121507218

>  <meeko>  (33) 
{"free_energy": -7.6, "intermolecular_energy": -9.69, "internal_energy": -1.45, "cluster_size": 13, "cluster_id": 3, "rank_in_cluster": 10}

>  <energy>  (33) 
-5.96

>  <cluster_rmsd>  (33) 
2.0

>  <cluster>  (33) 
4

$$$$

     RDKit          3D

 50 53  0  0  0  0  0  0  0  0999 V2000
  134.7870   68.5710  225.3360 O   0  0  0  0  0  0  0  0  0  0  0  0
  135.0450   69.7640  225.0840 C   0  0  0  0  0  0  0  0  0  0  0  0
  136.0900   70.1100  224.1790 N   0  0  0  0  0  0  0  0  0  0  0  0
  136.8390   69.0480  223.5630 C   0  0  0  0  0  0  0  0  0  0  0  0
  138.2340   68.9670  224.1070 C   0  0  0  0  0  0  0  0  0  0  0  0
  138.6280   67.9270  224.7170 O   0  0  0  0  0  0  0  0  0  0  0  0
  139.0860   70.0900  223.9130 N   0  0  0  0  0  0  0  0  0  0  0  0
  138.8670   71.2330  223.0110 C   0  0  0  0  0  0  0  0  0  0  0  0
  139.8550   72.2690  223.4470 C   0  0  2  0  0  0  0  0  0  0  0  0
  140.1750   73.0260  222.3190 O   0  0  0  0  0  0  0  0  0  0  0  0
  141.0350   71.3810  223.8530 C   0  0  0  0  0  0  0  0  0  0  0  0
  140.3440   70.2820  224.6000 C   0  0  1  0  0  0  0  0  0  0  0  0
  139.9960   70.6940  226.0150 C   0  0  0  0  0  0  0  0  0  0  0  0
  140.2720   69.6750  226.9940 N   0  0  0  0  0  0  0  0  0  0  0  0
  139.7910   69.6560  228.2500 C   0  0  0  0  0  0  0  0  0  0  0  0
  140.2890   68.5220  228.8500 C   0  0  0  0  0  0  0  0  0  0  0  0
  141.0890   67.8240  227.9580 C   0  0  0  0  0  0  0  0  0  0  0  0
  141.0550   68.5820  226.7970 C   0  0  0  0  0  0  0  0  0  0  0  0
  134.2860   70.8590  225.7070 C   0  0  0  0  0  0  0  0  0  0  0  0
  133.1940   70.5650  226.5140 C   0  0  0  0  0  0  0  0  0  0  0  0
  132.4500   71.5500  227.1200 C   0  0  0  0  0  0  0  0  0  0  0  0
  132.8110   72.8550  226.9100 C   0  0  0  0  0  0  0  0  0  0  0  0
  132.1370   73.9280  227.4670 C   0  0  0  0  0  0  0  0  0  0  0  0
  132.5300   75.2260  227.2340 C   0  0  0  0  0  0  0  0  0  0  0  0
  131.6990   76.5970  227.9230 Cl  0  0  0  0  0  0  0  0  0  0  0  0
  133.6310   75.4920  226.4190 C   0  0  0  0  0  0  0  0  0  0  0  0
  134.3190   74.4320  225.8520 C   0  0  0  0  0  0  0  0  0  0  0  0
  133.9020   73.1310  226.1040 C   0  0  0  0  0  0  0  0  0  0  0  0
  134.6210   72.1500  225.5170 N   0  0  0  0  0  0  0  0  0  0  0  0
  136.2730   71.1320  223.9940 H   0  0  0  0  0  0  0  0  0  0  0  0
  136.3263   68.0934  223.7524 H   0  0  0  0  0  0  0  0  0  0  0  0
  136.9024   69.2533  222.4842 H   0  0  0  0  0  0  0  0  0  0  0  0
  139.0494   70.9409  221.9663 H   0  0  0  0  0  0  0  0  0  0  0  0
  137.8326   71.6039  223.0596 H   0  0  0  0  0  0  0  0  0  0  0  0
  139.5328   72.9613  224.2388 H   0  0  0  0  0  0  0  0  0  0  0  0
  139.6130   73.8340  222.2120 H   0  0  0  0  0  0  0  0  0  0  0  0
  141.5675   70.9939  222.9718 H   0  0  0  0  0  0  0  0  0  0  0  0
  141.8063   71.9029  224.4384 H   0  0  0  0  0  0  0  0  0  0  0  0
  140.9928   69.3946  224.6400 H   0  0  0  0  0  0  0  0  0  0  0  0
  140.5808   71.5899  226.2706 H   0  0  0  0  0  0  0  0  0  0  0  0
  138.9125   70.8819  226.0401 H   0  0  0  0  0  0  0  0  0  0  0  0
  139.1272   70.4032  228.7093 H   0  0  0  0  0  0  0  0  0  0  0  0
  140.0826   68.2143  229.8857 H   0  0  0  0  0  0  0  0  0  0  0  0
  141.6289   66.8815  228.1320 H   0  0  0  0  0  0  0  0  0  0  0  0
  141.5802   68.3366  225.8621 H   0  0  0  0  0  0  0  0  0  0  0  0
  132.9162   69.5126  226.6730 H   0  0  0  0  0  0  0  0  0  0  0  0
  131.5887   71.2972  227.7558 H   0  0  0  0  0  0  0  0  0  0  0  0
  131.2660   73.7385  228.1116 H   0  0  0  0  0  0  0  0  0  0  0  0
  133.9478   76.5282  226.2296 H   0  0  0  0  0  0  0  0  0  0  0  0
  135.1898   74.6191  225.2065 H   0  0  0  0  0  0  0  0  0  0  0  0
  1  2  2  0
  2  3  1  0
  3  4  1  0
  4  5  1  0
  5  6  2  0
  5  7  1  0
  7  8  1  0
  8  9  1  0
  9 10  1  0
  9 11  1  0
 11 12  1  0
 12 13  1  0
 13 14  1  0
 14 15  1  0
 15 16  2  0
 16 17  1  0
 17 18  2  0
  2 19  1  0
 19 20  2  0
 20 21  1  0
 21 22  2  0
 22 23  1  0
 23 24  2  0
 24 25  1  0
 24 26  1  0
 26 27  2  0
 27 28  1  0
 28 29  2  0
 12  7  1  0
 18 14  1  0
 29 19  1  0
 28 22  1  0
  3 30  1  0
  4 31  1  0
  4 32  1  0
  8 33  1  0
  8 34  1  0
  9 35  1  1
 10 36  1  0
 11 37  1  0
 11 38  1  0
 12 39  1  1
 13 40  1  0
 13 41  1  0
 15 42  1  0
 16 43  1  0
 17 44  1  0
 18 45  1  0
 20 46  1  0
 21 47  1  0
 23 48  1  0
 26 49  1  0
 27 50  1  0
M  END
>  <smiles>  (34) 
O=C(NCC(=O)N1C[C@H](O)C[C@H]1Cn1cccc1)c1ccc2cc(Cl)ccc2n1

>  <score_type>  (34) 
oracle

>  <origin>  (34) 
autodockgpu

>  <m_score__min__energy>  (34) 
-8.1199999999999992

>  <m_primary>  (34) 
energy

>  <rmsd>  (34) 
8.86215019570477

>  <m_score__min__rmsd>  (34) 
8.86215019570477

>  <meeko>  (34) 
{"free_energy": -7.28, "intermolecular_energy": -9.37, "internal_energy": -1.75, "cluster_size": 12, "cluster_id": 7, "rank_in_cluster": 3}

>  <energy>  (34) 
-7.78

>  <cluster_rmsd>  (34) 
0.0

>  <cluster>  (34) 
5

$$$$

     RDKit          3D

 50 53  0  0  0  0  0  0  0  0999 V2000
  135.1030   68.4800  224.7670 O   0  0  0  0  0  0  0  0  0  0  0  0
  135.1010   69.6330  224.2960 C   0  0  0  0  0  0  0  0  0  0  0  0
  135.6830   69.9030  223.0230 N   0  0  0  0  0  0  0  0  0  0  0  0
  136.2710   68.8120  222.2960 C   0  0  0  0  0  0  0  0  0  0  0  0
  137.6810   68.5490  222.7360 C   0  0  0  0  0  0  0  0  0  0  0  0
  138.1280   67.3630  222.7890 O   0  0  0  0  0  0  0  0  0  0  0  0
  138.4840   69.6700  223.0860 N   0  0  0  0  0  0  0  0  0  0  0  0
  138.4120   71.0300  222.5280 C   0  0  0  0  0  0  0  0  0  0  0  0
  139.2050   71.8810  223.4690 C   0  0  2  0  0  0  0  0  0  0  0  0
  139.7320   72.9350  222.7200 O   0  0  0  0  0  0  0  0  0  0  0  0
  140.3100   70.9010  223.8730 C   0  0  0  0  0  0  0  0  0  0  0  0
  139.5330   69.6380  224.0810 C   0  0  1  0  0  0  0  0  0  0  0  0
  138.8400   69.6170  225.4280 C   0  0  0  0  0  0  0  0  0  0  0  0
  139.7110   69.2560  226.5160 N   0  0  0  0  0  0  0  0  0  0  0  0
  140.2490   68.0390  226.7060 C   0  0  0  0  0  0  0  0  0  0  0  0
  141.0120   68.1150  227.8490 C   0  0  0  0  0  0  0  0  0  0  0  0
  140.9500   69.3950  228.3790 C   0  0  0  0  0  0  0  0  0  0  0  0
  140.1190   70.0880  227.5100 C   0  0  0  0  0  0  0  0  0  0  0  0
  134.5020   70.7590  225.0290 C   0  0  0  0  0  0  0  0  0  0  0  0
  133.6060   70.5060  226.0620 C   0  0  0  0  0  0  0  0  0  0  0  0
  133.0180   71.5210  226.7790 C   0  0  0  0  0  0  0  0  0  0  0  0
  133.3350   72.8130  226.4520 C   0  0  0  0  0  0  0  0  0  0  0  0
  132.8050   73.9130  227.1040 C   0  0  0  0  0  0  0  0  0  0  0  0
  133.1480   75.1970  226.7480 C   0  0  0  0  0  0  0  0  0  0  0  0
  132.4950   76.6010  227.5530 Cl  0  0  0  0  0  0  0  0  0  0  0  0
  134.0510   75.4210  225.7080 C   0  0  0  0  0  0  0  0  0  0  0  0
  134.5930   74.3340  225.0420 C   0  0  0  0  0  0  0  0  0  0  0  0
  134.2300   73.0470  225.4220 C   0  0  0  0  0  0  0  0  0  0  0  0
  134.7980   72.0370  224.7280 N   0  0  0  0  0  0  0  0  0  0  0  0
  135.6580   70.8940  222.6630 H   0  0  0  0  0  0  0  0  0  0  0  0
  135.6700   67.9062  222.4644 H   0  0  0  0  0  0  0  0  0  0  0  0
  136.2886   69.0802  221.2293 H   0  0  0  0  0  0  0  0  0  0  0  0
  138.8509   71.0573  221.5197 H   0  0  0  0  0  0  0  0  0  0  0  0
  137.3740   71.3808  222.4309 H   0  0  0  0  0  0  0  0  0  0  0  0
  138.6648   72.3119  224.3248 H   0  0  0  0  0  0  0  0  0  0  0  0
  139.2630   73.7940  222.8600 H   0  0  0  0  0  0  0  0  0  0  0  0
  141.0562   70.7858  223.0731 H   0  0  0  0  0  0  0  0  0  0  0  0
  140.8899   71.2189  224.7520 H   0  0  0  0  0  0  0  0  0  0  0  0
  140.2081   68.7719  224.0177 H   0  0  0  0  0  0  0  0  0  0  0  0
  138.4328   70.6195  225.6258 H   0  0  0  0  0  0  0  0  0  0  0  0
  138.0530   68.8502  225.3752 H   0  0  0  0  0  0  0  0  0  0  0  0
  140.1068   67.1527  226.0702 H   0  0  0  0  0  0  0  0  0  0  0  0
  141.5871   67.2819  228.2793 H   0  0  0  0  0  0  0  0  0  0  0  0
  141.4471   69.7751  229.2837 H   0  0  0  0  0  0  0  0  0  0  0  0
  139.8349   71.1459  227.6102 H   0  0  0  0  0  0  0  0  0  0  0  0
  133.3606   69.4634  226.3127 H   0  0  0  0  0  0  0  0  0  0  0  0
  132.3119   71.3016  227.5934 H   0  0  0  0  0  0  0  0  0  0  0  0
  132.0921   73.7568  227.9270 H   0  0  0  0  0  0  0  0  0  0  0  0
  134.3284   76.4460  225.4211 H   0  0  0  0  0  0  0  0  0  0  0  0
  135.3056   74.4881  224.2183 H   0  0  0  0  0  0  0  0  0  0  0  0
  1  2  2  0
  2  3  1  0
  3  4  1  0
  4  5  1  0
  5  6  2  0
  5  7  1  0
  7  8  1  0
  8  9  1  0
  9 10  1  0
  9 11  1  0
 11 12  1  0
 12 13  1  0
 13 14  1  0
 14 15  1  0
 15 16  2  0
 16 17  1  0
 17 18  2  0
  2 19  1  0
 19 20  2  0
 20 21  1  0
 21 22  2  0
 22 23  1  0
 23 24  2  0
 24 25  1  0
 24 26  1  0
 26 27  2  0
 27 28  1  0
 28 29  2  0
 12  7  1  0
 18 14  1  0
 29 19  1  0
 28 22  1  0
  3 30  1  0
  4 31  1  0
  4 32  1  0
  8 33  1  0
  8 34  1  0
  9 35  1  1
 10 36  1  0
 11 37  1  0
 11 38  1  0
 12 39  1  6
 13 40  1  0
 13 41  1  0
 15 42  1  0
 16 43  1  0
 17 44  1  0
 18 45  1  0
 20 46  1  0
 21 47  1  0
 23 48  1  0
 26 49  1  0
 27 50  1  0
M  END
>  <smiles>  (35) 
O=C(NCC(=O)N1C[C@H](O)C[C@H]1Cn1cccc1)c1ccc2cc(Cl)ccc2n1

>  <score_type>  (35) 
oracle

>  <origin>  (35) 
autodockgpu

>  <m_score__min__energy>  (35) 
-8.1199999999999992

>  <m_primary>  (35) 
energy

>  <rmsd>  (35) 
8.658510972711651

>  <m_score__min__rmsd>  (35) 
8.658510972711651

>  <meeko>  (35) 
{"free_energy": -7.22, "intermolecular_energy": -9.31, "internal_energy": -1.88, "cluster_size": 12, "cluster_id": 7, "rank_in_cluster": 9}

>  <energy>  (35) 
-7.27

>  <cluster_rmsd>  (35) 
0.98

>  <cluster>  (35) 
5

$$$$

     RDKit          3D

 50 53  0  0  0  0  0  0  0  0999 V2000
  139.7770   72.0550  220.6210 O   0  0  0  0  0  0  0  0  0  0  0  0
  139.6540   72.4520  221.7960 C   0  0  0  0  0  0  0  0  0  0  0  0
  139.3850   73.8230  222.0790 N   0  0  0  0  0  0  0  0  0  0  0  0
  139.2580   74.7360  220.9760 C   0  0  0  0  0  0  0  0  0  0  0  0
  140.3650   75.7480  220.9650 C   0  0  0  0  0  0  0  0  0  0  0  0
  140.3350   76.7440  221.7500 O   0  0  0  0  0  0  0  0  0  0  0  0
  141.4350   75.5470  220.0490 N   0  0  0  0  0  0  0  0  0  0  0  0
  142.2120   76.5770  219.3410 C   0  0  0  0  0  0  0  0  0  0  0  0
  143.4100   75.8620  218.8020 C   0  0  2  0  0  0  0  0  0  0  0  0
  143.7960   76.5320  217.6400 O   0  0  0  0  0  0  0  0  0  0  0  0
  142.7970   74.5000  218.4620 C   0  0  0  0  0  0  0  0  0  0  0  0
  141.9380   74.2470  219.6620 C   0  0  1  0  0  0  0  0  0  0  0  0
  142.7460   73.7370  220.8370 C   0  0  0  0  0  0  0  0  0  0  0  0
  144.0840   73.3390  220.4850 N   0  0  0  0  0  0  0  0  0  0  0  0
  144.4130   72.1930  219.8630 C   0  0  0  0  0  0  0  0  0  0  0  0
  145.7810   72.2000  219.7130 C   0  0  0  0  0  0  0  0  0  0  0  0
  146.3130   73.3640  220.2460 C   0  0  0  0  0  0  0  0  0  0  0  0
  145.2110   74.0590  220.7240 C   0  0  0  0  0  0  0  0  0  0  0  0
  139.7820   71.5280  222.9330 C   0  0  0  0  0  0  0  0  0  0  0  0
  139.3640   70.2100  222.7960 C   0  0  0  0  0  0  0  0  0  0  0  0
  139.4600   69.3050  223.8270 C   0  0  0  0  0  0  0  0  0  0  0  0
  139.9860   69.7340  225.0180 C   0  0  0  0  0  0  0  0  0  0  0  0
  140.1320   68.9140  226.1230 C   0  0  0  0  0  0  0  0  0  0  0  0
  140.6650   69.3800  227.3020 C   0  0  0  0  0  0  0  0  0  0  0  0
  140.8600   68.3680  228.7100 Cl  0  0  0  0  0  0  0  0  0  0  0  0
  141.0770   70.7090  227.4110 C   0  0  0  0  0  0  0  0  0  0  0  0
  140.9400   71.5470  226.3160 C   0  0  0  0  0  0  0  0  0  0  0  0
  140.3990   71.0500  225.1370 C   0  0  0  0  0  0  0  0  0  0  0  0
  140.2960   71.9250  224.1130 N   0  0  0  0  0  0  0  0  0  0  0  0
  139.2890   74.1150  223.0890 H   0  0  0  0  0  0  0  0  0  0  0  0
  139.2866   74.1658  220.0358 H   0  0  0  0  0  0  0  0  0  0  0  0
  138.3034   75.2722  221.0821 H   0  0  0  0  0  0  0  0  0  0  0  0
  141.6206   77.0111  218.5214 H   0  0  0  0  0  0  0  0  0  0  0  0
  142.4930   77.4086  220.0039 H   0  0  0  0  0  0  0  0  0  0  0  0
  144.2882   75.7965  219.4612 H   0  0  0  0  0  0  0  0  0  0  0  0
  144.7320   76.3530  217.3710 H   0  0  0  0  0  0  0  0  0  0  0  0
  142.1963   74.5489  217.5418 H   0  0  0  0  0  0  0  0  0  0  0  0
  143.5392   73.7113  218.2693 H   0  0  0  0  0  0  0  0  0  0  0  0
  141.1655   73.5036  219.4159 H   0  0  0  0  0  0  0  0  0  0  0  0
  142.8074   74.5362  221.5903 H   0  0  0  0  0  0  0  0  0  0  0  0
  142.2324   72.8422  221.2186 H   0  0  0  0  0  0  0  0  0  0  0  0
  143.7216   71.4021  219.5368 H   0  0  0  0  0  0  0  0  0  0  0  0
  146.3670   71.3987  219.2392 H   0  0  0  0  0  0  0  0  0  0  0  0
  147.3696   73.6679  220.2819 H   0  0  0  0  0  0  0  0  0  0  0  0
  145.2448   75.0405  221.2195 H   0  0  0  0  0  0  0  0  0  0  0  0
  138.9438   69.8807  221.8343 H   0  0  0  0  0  0  0  0  0  0  0  0
  139.1240   68.2654  223.6995 H   0  0  0  0  0  0  0  0  0  0  0  0
  139.8138   67.8631  226.0567 H   0  0  0  0  0  0  0  0  0  0  0  0
  141.5041   71.0856  228.3521 H   0  0  0  0  0  0  0  0  0  0  0  0
  141.2574   72.5983  226.3799 H   0  0  0  0  0  0  0  0  0  0  0  0
  1  2  2  0
  2  3  1  0
  3  4  1  0
  4  5  1  0
  5  6  2  0
  5  7  1  0
  7  8  1  0
  8  9  1  0
  9 10  1  0
  9 11  1  0
 11 12  1  0
 12 13  1  0
 13 14  1  0
 14 15  1  0
 15 16  2  0
 16 17  1  0
 17 18  2  0
  2 19  1  0
 19 20  2  0
 20 21  1  0
 21 22  2  0
 22 23  1  0
 23 24  2  0
 24 25  1  0
 24 26  1  0
 26 27  2  0
 27 28  1  0
 28 29  2  0
 12  7  1  0
 18 14  1  0
 29 19  1  0
 28 22  1  0
  3 30  1  0
  4 31  1  0
  4 32  1  0
  8 33  1  0
  8 34  1  0
  9 35  1  1
 10 36  1  0
 11 37  1  0
 11 38  1  0
 12 39  1  6
 13 40  1  0
 13 41  1  0
 15 42  1  0
 16 43  1  0
 17 44  1  0
 18 45  1  0
 20 46  1  0
 21 47  1  0
 23 48  1  0
 26 49  1  0
 27 50  1  0
M  END
>  <smiles>  (36) 
O=C(NCC(=O)N1C[C@H](O)C[C@H]1Cn1cccc1)c1ccc2cc(Cl)ccc2n1

>  <score_type>  (36) 
oracle

>  <origin>  (36) 
autodockgpu

>  <m_score__min__energy>  (36) 
-8.1199999999999992

>  <m_primary>  (36) 
energy

>  <rmsd>  (36) 
4.373446226304632

>  <m_score__min__rmsd>  (36) 
4.373446226304632

>  <meeko>  (36) 
{"free_energy": -7.76, "intermolecular_energy": -9.85, "internal_energy": -1.69, "cluster_size": 11, "cluster_id": 1, "rank_in_cluster": 5}

>  <energy>  (36) 
-7.34

>  <cluster_rmsd>  (36) 
0.0

>  <cluster>  (36) 
6

$$$$

     RDKit          3D

 50 53  0  0  0  0  0  0  0  0999 V2000
  139.9660   74.7890  222.0260 O   0  0  0  0  0  0  0  0  0  0  0  0
  139.9280   73.6270  221.5780 C   0  0  0  0  0  0  0  0  0  0  0  0
  140.0350   73.3800  220.1790 N   0  0  0  0  0  0  0  0  0  0  0  0
  140.1900   74.5050  219.2960 C   0  0  0  0  0  0  0  0  0  0  0  0
  141.5920   75.0380  219.3200 C   0  0  0  0  0  0  0  0  0  0  0  0
  142.5390   74.3380  219.7910 O   0  0  0  0  0  0  0  0  0  0  0  0
  141.8120   76.3430  218.7970 N   0  0  0  0  0  0  0  0  0  0  0  0
  141.6390   76.7890  217.4050 C   0  0  0  0  0  0  0  0  0  0  0  0
  141.6540   78.2840  217.4690 C   0  0  2  0  0  0  0  0  0  0  0  0
  142.1580   78.7390  216.2500 O   0  0  0  0  0  0  0  0  0  0  0  0
  142.6700   78.5080  218.5920 C   0  0  0  0  0  0  0  0  0  0  0  0
  142.2560   77.4690  219.5880 C   0  0  1  0  0  0  0  0  0  0  0  0
  141.0600   77.9140  220.4030 C   0  0  0  0  0  0  0  0  0  0  0  0
  141.4130   78.4740  221.6820 N   0  0  0  0  0  0  0  0  0  0  0  0
  142.1060   79.6110  221.8660 C   0  0  0  0  0  0  0  0  0  0  0  0
  142.2270   79.7890  223.2250 C   0  0  0  0  0  0  0  0  0  0  0  0
  141.6010   78.7510  223.8980 C   0  0  0  0  0  0  0  0  0  0  0  0
  141.0980   77.9390  222.8910 C   0  0  0  0  0  0  0  0  0  0  0  0
  139.7700   72.4680  222.4690 C   0  0  0  0  0  0  0  0  0  0  0  0
  138.8410   71.4820  222.1550 C   0  0  0  0  0  0  0  0  0  0  0  0
  138.6530   70.3780  222.9530 C   0  0  0  0  0  0  0  0  0  0  0  0
  139.4120   70.2640  224.0890 C   0  0  0  0  0  0  0  0  0  0  0  0
  139.3090   69.1980  224.9660 C   0  0  0  0  0  0  0  0  0  0  0  0
  140.0890   69.1180  226.0970 C   0  0  0  0  0  0  0  0  0  0  0  0
  139.9800   67.7870  227.2200 Cl  0  0  0  0  0  0  0  0  0  0  0  0
  141.0130   70.1220  226.3880 C   0  0  0  0  0  0  0  0  0  0  0  0
  141.1310   71.1970  225.5220 C   0  0  0  0  0  0  0  0  0  0  0  0
  140.3320   71.2540  224.3860 C   0  0  0  0  0  0  0  0  0  0  0  0
  140.5030   72.3320  223.5900 N   0  0  0  0  0  0  0  0  0  0  0  0
  139.9980   72.3810  219.8430 H   0  0  0  0  0  0  0  0  0  0  0  0
  139.9455   74.1902  218.2708 H   0  0  0  0  0  0  0  0  0  0  0  0
  139.5131   75.3033  219.6344 H   0  0  0  0  0  0  0  0  0  0  0  0
  142.4635   76.4212  216.7765 H   0  0  0  0  0  0  0  0  0  0  0  0
  140.7081   76.4051  216.9623 H   0  0  0  0  0  0  0  0  0  0  0  0
  140.6899   78.7843  217.6427 H   0  0  0  0  0  0  0  0  0  0  0  0
  143.0170   79.2230  216.3320 H   0  0  0  0  0  0  0  0  0  0  0  0
  143.6989   78.3397  218.2413 H   0  0  0  0  0  0  0  0  0  0  0  0
  142.6749   79.5328  218.9917 H   0  0  0  0  0  0  0  0  0  0  0  0
  143.0901   77.2566  220.2730 H   0  0  0  0  0  0  0  0  0  0  0  0
  140.5113   78.6752  219.8291 H   0  0  0  0  0  0  0  0  0  0  0  0
  140.4505   77.0194  220.5984 H   0  0  0  0  0  0  0  0  0  0  0  0
  142.5007   80.2724  221.0806 H   0  0  0  0  0  0  0  0  0  0  0  0
  142.7446   80.6315  223.7070 H   0  0  0  0  0  0  0  0  0  0  0  0
  141.5210   78.6041  224.9852 H   0  0  0  0  0  0  0  0  0  0  0  0
  140.5329   77.0082  223.0470 H   0  0  0  0  0  0  0  0  0  0  0  0
  138.2385   71.5884  221.2409 H   0  0  0  0  0  0  0  0  0  0  0  0
  137.9141   69.6077  222.6872 H   0  0  0  0  0  0  0  0  0  0  0  0
  138.5867   68.3959  224.7539 H   0  0  0  0  0  0  0  0  0  0  0  0
  141.6382   70.0610  227.2910 H   0  0  0  0  0  0  0  0  0  0  0  0
  141.8524   72.0004  225.7321 H   0  0  0  0  0  0  0  0  0  0  0  0
  1  2  2  0
  2  3  1  0
  3  4  1  0
  4  5  1  0
  5  6  2  0
  5  7  1  0
  7  8  1  0
  8  9  1  0
  9 10  1  0
  9 11  1  0
 11 12  1  0
 12 13  1  0
 13 14  1  0
 14 15  1  0
 15 16  2  0
 16 17  1  0
 17 18  2  0
  2 19  1  0
 19 20  2  0
 20 21  1  0
 21 22  2  0
 22 23  1  0
 23 24  2  0
 24 25  1  0
 24 26  1  0
 26 27  2  0
 27 28  1  0
 28 29  2  0
 12  7  1  0
 18 14  1  0
 29 19  1  0
 28 22  1  0
  3 30  1  0
  4 31  1  0
  4 32  1  0
  8 33  1  0
  8 34  1  0
  9 35  1  1
 10 36  1  0
 11 37  1  0
 11 38  1  0
 12 39  1  1
 13 40  1  0
 13 41  1  0
 15 42  1  0
 16 43  1  0
 17 44  1  0
 18 45  1  0
 20 46  1  0
 21 47  1  0
 23 48  1  0
 26 49  1  0
 27 50  1  0
M  END
>  <smiles>  (37) 
O=C(NCC(=O)N1C[C@H](O)C[C@H]1Cn1cccc1)c1ccc2cc(Cl)ccc2n1

>  <score_type>  (37) 
oracle

>  <origin>  (37) 
autodockgpu

>  <m_score__min__energy>  (37) 
-8.1199999999999992

>  <m_primary>  (37) 
energy

>  <rmsd>  (37) 
2.9233403314388067

>  <m_score__min__rmsd>  (37) 
2.9233403314388067

>  <meeko>  (37) 
{"free_energy": -7.27, "intermolecular_energy": -9.36, "internal_energy": -1.39, "cluster_size": 2, "cluster_id": 5, "rank_in_cluster": 2}

>  <energy>  (37) 
-7.06

>  <cluster_rmsd>  (37) 
1.47

>  <cluster>  (37) 
6

$$$$

     RDKit          3D

 50 53  0  0  0  0  0  0  0  0999 V2000
  134.8250   68.3240  224.8120 O   0  0  0  0  0  0  0  0  0  0  0  0
  135.1450   69.4540  224.3940 C   0  0  0  0  0  0  0  0  0  0  0  0
  136.0230   69.5990  223.2820 N   0  0  0  0  0  0  0  0  0  0  0  0
  136.5310   68.4100  222.6520 C   0  0  0  0  0  0  0  0  0  0  0  0
  138.0220   68.4570  222.5000 C   0  0  0  0  0  0  0  0  0  0  0  0
  138.6500   67.4770  221.9970 O   0  0  0  0  0  0  0  0  0  0  0  0
  138.6940   69.6330  222.9360 N   0  0  0  0  0  0  0  0  0  0  0  0
  138.5790   70.9890  222.3750 C   0  0  0  0  0  0  0  0  0  0  0  0
  139.1970   71.8900  223.3980 C   0  0  2  0  0  0  0  0  0  0  0  0
  139.7210   72.9870  222.7110 O   0  0  0  0  0  0  0  0  0  0  0  0
  140.3230   70.9920  223.9200 C   0  0  0  0  0  0  0  0  0  0  0  0
  139.6270   69.6720  224.0410 C   0  0  1  0  0  0  0  0  0  0  0  0
  138.7940   69.5870  225.3030 C   0  0  0  0  0  0  0  0  0  0  0  0
  139.5680   69.3060  226.4840 N   0  0  0  0  0  0  0  0  0  0  0  0
  140.0110   70.2270  227.3580 C   0  0  0  0  0  0  0  0  0  0  0  0
  140.7030   69.5480  228.3350 C   0  0  0  0  0  0  0  0  0  0  0  0
  140.6910   68.1870  228.0700 C   0  0  0  0  0  0  0  0  0  0  0  0
  139.9650   68.0720  226.8920 C   0  0  0  0  0  0  0  0  0  0  0  0
  134.6330   70.6780  225.0280 C   0  0  0  0  0  0  0  0  0  0  0  0
  133.6670   70.5830  226.0240 C   0  0  0  0  0  0  0  0  0  0  0  0
  133.1550   71.6950  226.6490 C   0  0  0  0  0  0  0  0  0  0  0  0
  133.6200   72.9250  226.2660 C   0  0  0  0  0  0  0  0  0  0  0  0
  133.1780   74.1120  226.8250 C   0  0  0  0  0  0  0  0  0  0  0  0
  133.6700   75.3300  226.4140 C   0  0  0  0  0  0  0  0  0  0  0  0
  133.1300   76.8400  227.1000 Cl  0  0  0  0  0  0  0  0  0  0  0  0
  134.6390   75.3950  225.4120 C   0  0  0  0  0  0  0  0  0  0  0  0
  135.0950   74.2190  224.8400 C   0  0  0  0  0  0  0  0  0  0  0  0
  134.5820   73.0020  225.2740 C   0  0  0  0  0  0  0  0  0  0  0  0
  135.0750   71.8990  224.6710 N   0  0  0  0  0  0  0  0  0  0  0  0
  136.2670   70.5740  222.9610 H   0  0  0  0  0  0  0  0  0  0  0  0
  136.2626   67.5383  223.2668 H   0  0  0  0  0  0  0  0  0  0  0  0
  136.0861   68.3366  221.6487 H   0  0  0  0  0  0  0  0  0  0  0  0
  139.1218   71.0591  221.4208 H   0  0  0  0  0  0  0  0  0  0  0  0
  137.5337   71.2603  222.1657 H   0  0  0  0  0  0  0  0  0  0  0  0
  138.5356   72.2718  224.1897 H   0  0  0  0  0  0  0  0  0  0  0  0
  139.1950   73.8160  222.8310 H   0  0  0  0  0  0  0  0  0  0  0  0
  141.1586   70.9408  223.2064 H   0  0  0  0  0  0  0  0  0  0  0  0
  140.7773   71.3449  224.8576 H   0  0  0  0  0  0  0  0  0  0  0  0
  140.3691   68.8601  224.0525 H   0  0  0  0  0  0  0  0  0  0  0  0
  138.2783   70.5481  225.4452 H   0  0  0  0  0  0  0  0  0  0  0  0
  138.0906   68.7517  225.1708 H   0  0  0  0  0  0  0  0  0  0  0  0
  139.8511   71.3139  227.3027 H   0  0  0  0  0  0  0  0  0  0  0  0
  141.1942   70.0169  229.2004 H   0  0  0  0  0  0  0  0  0  0  0  0
  141.1522   67.3809  228.6595 H   0  0  0  0  0  0  0  0  0  0  0  0
  139.7454   67.1289  226.3702 H   0  0  0  0  0  0  0  0  0  0  0  0
  133.3019   69.5886  226.3204 H   0  0  0  0  0  0  0  0  0  0  0  0
  132.3922   71.5996  227.4358 H   0  0  0  0  0  0  0  0  0  0  0  0
  132.4151   74.0809  227.6168 H   0  0  0  0  0  0  0  0  0  0  0  0
  135.0351   76.3664  225.0812 H   0  0  0  0  0  0  0  0  0  0  0  0
  135.8577   74.2477  224.0479 H   0  0  0  0  0  0  0  0  0  0  0  0
  1  2  2  0
  2  3  1  0
  3  4  1  0
  4  5  1  0
  5  6  2  0
  5  7  1  0
  7  8  1  0
  8  9  1  0
  9 10  1  0
  9 11  1  0
 11 12  1  0
 12 13  1  0
 13 14  1  0
 14 15  1  0
 15 16  2  0
 16 17  1  0
 17 18  2  0
  2 19  1  0
 19 20  2  0
 20 21  1  0
 21 22  2  0
 22 23  1  0
 23 24  2  0
 24 25  1  0
 24 26  1  0
 26 27  2  0
 27 28  1  0
 28 29  2  0
 12  7  1  0
 18 14  1  0
 29 19  1  0
 28 22  1  0
  3 30  1  0
  4 31  1  0
  4 32  1  0
  8 33  1  0
  8 34  1  0
  9 35  1  1
 10 36  1  0
 11 37  1  0
 11 38  1  0
 12 39  1  6
 13 40  1  0
 13 41  1  0
 15 42  1  0
 16 43  1  0
 17 44  1  0
 18 45  1  0
 20 46  1  0
 21 47  1  0
 23 48  1  0
 26 49  1  0
 27 50  1  0
M  END
>  <smiles>  (38) 
O=C(NCC(=O)N1C[C@H](O)C[C@H]1Cn1cccc1)c1ccc2cc(Cl)ccc2n1

>  <score_type>  (38) 
oracle

>  <origin>  (38) 
autodockgpu

>  <m_score__min__energy>  (38) 
-8.1199999999999992

>  <m_primary>  (38) 
energy

>  <rmsd>  (38) 
8.69194612313819

>  <m_score__min__rmsd>  (38) 
8.69194612313819

>  <meeko>  (38) 
{"free_energy": -7.26, "intermolecular_energy": -9.34, "internal_energy": -1.94, "cluster_size": 12, "cluster_id": 7, "rank_in_cluster": 6}

>  <energy>  (38) 
-7.32

>  <cluster_rmsd>  (38) 
0.0

>  <cluster>  (38) 
7

$$$$

     RDKit          3D

 50 53  0  0  0  0  0  0  0  0999 V2000
  140.6540   72.6840  220.9300 O   0  0  0  0  0  0  0  0  0  0  0  0
  140.0130   72.8650  221.9840 C   0  0  0  0  0  0  0  0  0  0  0  0
  139.2240   74.0370  222.1660 N   0  0  0  0  0  0  0  0  0  0  0  0
  139.1840   75.0060  221.1050 C   0  0  0  0  0  0  0  0  0  0  0  0
  138.7470   76.3520  221.6000 C   0  0  0  0  0  0  0  0  0  0  0  0
  137.7090   76.4690  222.3190 O   0  0  0  0  0  0  0  0  0  0  0  0
  139.5370   77.4780  221.2360 N   0  0  0  0  0  0  0  0  0  0  0  0
  139.0890   78.7010  220.5500 C   0  0  0  0  0  0  0  0  0  0  0  0
  140.2050   79.6820  220.7300 C   0  0  2  0  0  0  0  0  0  0  0  0
  140.1780   80.5350  219.6260 O   0  0  0  0  0  0  0  0  0  0  0  0
  141.4160   78.7470  220.6610 C   0  0  0  0  0  0  0  0  0  0  0  0
  140.9560   77.5930  221.4970 C   0  0  1  0  0  0  0  0  0  0  0  0
  141.0940   77.8780  222.9780 C   0  0  0  0  0  0  0  0  0  0  0  0
  141.6280   79.1850  223.2640 N   0  0  0  0  0  0  0  0  0  0  0  0
  140.9140   80.2330  223.7100 C   0  0  0  0  0  0  0  0  0  0  0  0
  141.7940   81.2820  223.8540 C   0  0  0  0  0  0  0  0  0  0  0  0
  143.0730   80.8830  223.4950 C   0  0  0  0  0  0  0  0  0  0  0  0
  142.9290   79.5520  223.1280 C   0  0  0  0  0  0  0  0  0  0  0  0
  140.0450   71.8810  223.0770 C   0  0  0  0  0  0  0  0  0  0  0  0
  139.5690   70.5940  222.8560 C   0  0  0  0  0  0  0  0  0  0  0  0
  139.5750   69.6370  223.8430 C   0  0  0  0  0  0  0  0  0  0  0  0
  140.0690   69.9800  225.0750 C   0  0  0  0  0  0  0  0  0  0  0  0
  140.1250   69.1000  226.1420 C   0  0  0  0  0  0  0  0  0  0  0  0
  140.6290   69.4810  227.3650 C   0  0  0  0  0  0  0  0  0  0  0  0
  140.7110   68.3940  228.7260 Cl  0  0  0  0  0  0  0  0  0  0  0  0
  141.1000   70.7810  227.5580 C   0  0  0  0  0  0  0  0  0  0  0  0
  141.0530   71.6760  226.5020 C   0  0  0  0  0  0  0  0  0  0  0  0
  140.5400   71.2660  225.2770 C   0  0  0  0  0  0  0  0  0  0  0  0
  140.5260   72.1930  224.2950 N   0  0  0  0  0  0  0  0  0  0  0  0
  138.6970   74.1490  223.0740 H   0  0  0  0  0  0  0  0  0  0  0  0
  140.1888   75.0963  220.6666 H   0  0  0  0  0  0  0  0  0  0  0  0
  138.4561   74.6634  220.3548 H   0  0  0  0  0  0  0  0  0  0  0  0
  138.9175   78.5034  219.4816 H   0  0  0  0  0  0  0  0  0  0  0  0
  138.1399   79.0779  220.9588 H   0  0  0  0  0  0  0  0  0  0  0  0
  140.1806   80.3031  221.6375 H   0  0  0  0  0  0  0  0  0  0  0  0
  141.0430   80.5950  219.1500 H   0  0  0  0  0  0  0  0  0  0  0  0
  141.6236   78.4354  219.6267 H   0  0  0  0  0  0  0  0  0  0  0  0
  142.3540   79.2045  221.0086 H   0  0  0  0  0  0  0  0  0  0  0  0
  141.5481   76.6985  221.2536 H   0  0  0  0  0  0  0  0  0  0  0  0
  140.0998   77.7989  223.4420 H   0  0  0  0  0  0  0  0  0  0  0  0
  141.8036   77.1423  223.3845 H   0  0  0  0  0  0  0  0  0  0  0  0
  139.8343   80.2493  223.9196 H   0  0  0  0  0  0  0  0  0  0  0  0
  141.5225   82.2893  224.2028 H   0  0  0  0  0  0  0  0  0  0  0  0
  143.9935   81.4852  223.5000 H   0  0  0  0  0  0  0  0  0  0  0  0
  143.7415   78.8966  222.7812 H   0  0  0  0  0  0  0  0  0  0  0  0
  139.1759   70.3335  221.8622 H   0  0  0  0  0  0  0  0  0  0  0  0
  139.1937   68.6235  223.6495 H   0  0  0  0  0  0  0  0  0  0  0  0
  139.7580   68.0715  226.0094 H   0  0  0  0  0  0  0  0  0  0  0  0
  141.5024   71.0898  228.5341 H   0  0  0  0  0  0  0  0  0  0  0  0
  141.4194   72.7050  226.6320 H   0  0  0  0  0  0  0  0  0  0  0  0
  1  2  2  0
  2  3  1  0
  3  4  1  0
  4  5  1  0
  5  6  2  0
  5  7  1  0
  7  8  1  0
  8  9  1  0
  9 10  1  0
  9 11  1  0
 11 12  1  0
 12 13  1  0
 13 14  1  0
 14 15  1  0
 15 16  2  0
 16 17  1  0
 17 18  2  0
  2 19  1  0
 19 20  2  0
 20 21  1  0
 21 22  2  0
 22 23  1  0
 23 24  2  0
 24 25  1  0
 24 26  1  0
 26 27  2  0
 27 28  1  0
 28 29  2  0
 12  7  1  0
 18 14  1  0
 29 19  1  0
 28 22  1  0
  3 30  1  0
  4 31  1  0
  4 32  1  0
  8 33  1  0
  8 34  1  0
  9 35  1  1
 10 36  1  0
 11 37  1  0
 11 38  1  0
 12 39  1  6
 13 40  1  0
 13 41  1  0
 15 42  1  0
 16 43  1  0
 17 44  1  0
 18 45  1  0
 20 46  1  0
 21 47  1  0
 23 48  1  0
 26 49  1  0
 27 50  1  0
M  END
>  <smiles>  (39) 
O=C(NCC(=O)N1C[C@H](O)C[C@H]1Cn1cccc1)c1ccc2cc(Cl)ccc2n1

>  <score_type>  (39) 
oracle

>  <origin>  (39) 
autodockgpu

>  <m_score__min__energy>  (39) 
-8.1199999999999992

>  <m_primary>  (39) 
energy

>  <rmsd>  (39) 
2.762482973230459

>  <m_score__min__rmsd>  (39) 
2.762482973230459

>  <meeko>  (39) 
{"free_energy": -7.88, "intermolecular_energy": -9.97, "internal_energy": -1.25, "cluster_size": 13, "cluster_id": 3, "rank_in_cluster": 1}

>  <energy>  (39) 
-7.29

>  <cluster_rmsd>  (39) 
0.36

>  <cluster>  (39) 
7

$$$$

     RDKit          3D

 50 53  0  0  0  0  0  0  0  0999 V2000
  141.6130   73.1300  220.4820 O   0  0  0  0  0  0  0  0  0  0  0  0
  140.9910   73.8890  221.2520 C   0  0  0  0  0  0  0  0  0  0  0  0
  140.0460   73.3690  222.1830 N   0  0  0  0  0  0  0  0  0  0  0  0
  139.8280   71.9480  222.2140 C   0  0  0  0  0  0  0  0  0  0  0  0
  139.6170   71.4510  223.6130 C   0  0  0  0  0  0  0  0  0  0  0  0
  140.3440   71.8710  224.5630 O   0  0  0  0  0  0  0  0  0  0  0  0
  138.5790   70.5010  223.8270 N   0  0  0  0  0  0  0  0  0  0  0  0
  137.5900   70.0210  222.8480 C   0  0  0  0  0  0  0  0  0  0  0  0
  136.9810   68.8050  223.4710 C   0  0  2  0  0  0  0  0  0  0  0  0
  135.6770   68.7070  222.9850 O   0  0  0  0  0  0  0  0  0  0  0  0
  136.9790   69.2150  224.9470 C   0  0  0  0  0  0  0  0  0  0  0  0
  138.3320   69.8400  225.0900 C   0  0  1  0  0  0  0  0  0  0  0  0
  139.4210   68.7990  225.2440 C   0  0  0  0  0  0  0  0  0  0  0  0
  140.0910   68.8540  226.5180 N   0  0  0  0  0  0  0  0  0  0  0  0
  140.4090   69.9810  227.1790 C   0  0  0  0  0  0  0  0  0  0  0  0
  141.0320   69.5970  228.3440 C   0  0  0  0  0  0  0  0  0  0  0  0
  141.1040   68.2140  228.4130 C   0  0  0  0  0  0  0  0  0  0  0  0
  140.4990   67.7790  227.2420 C   0  0  0  0  0  0  0  0  0  0  0  0
  141.2050   75.3440  221.2300 C   0  0  0  0  0  0  0  0  0  0  0  0
  141.9820   75.9080  220.2260 C   0  0  0  0  0  0  0  0  0  0  0  0
  142.2140   77.2620  220.1590 C   0  0  0  0  0  0  0  0  0  0  0  0
  141.6550   78.0620  221.1210 C   0  0  0  0  0  0  0  0  0  0  0  0
  141.8200   79.4360  221.1550 C   0  0  0  0  0  0  0  0  0  0  0  0
  141.2420   80.2080  222.1370 C   0  0  0  0  0  0  0  0  0  0  0  0
  141.4340   81.9410  222.2040 Cl  0  0  0  0  0  0  0  0  0  0  0  0
  140.4670   79.6140  223.1340 C   0  0  0  0  0  0  0  0  0  0  0  0
  140.2900   78.2400  223.1180 C   0  0  0  0  0  0  0  0  0  0  0  0
  140.8840   77.4840  222.1140 C   0  0  0  0  0  0  0  0  0  0  0  0
  140.6670   76.1520  222.1630 N   0  0  0  0  0  0  0  0  0  0  0  0
  139.5430   74.0470  222.8160 H   0  0  0  0  0  0  0  0  0  0  0  0
  138.9379   71.7105  221.6130 H   0  0  0  0  0  0  0  0  0  0  0  0
  140.7220   71.4543  221.8053 H   0  0  0  0  0  0  0  0  0  0  0  0
  136.8222   70.7877  222.6675 H   0  0  0  0  0  0  0  0  0  0  0  0
  138.0500   69.7978  221.8740 H   0  0  0  0  0  0  0  0  0  0  0  0
  137.4836   67.8449  223.2822 H   0  0  0  0  0  0  0  0  0  0  0  0
  135.4730   69.3540  222.2640 H   0  0  0  0  0  0  0  0  0  0  0  0
  136.1785   69.9384  225.1612 H   0  0  0  0  0  0  0  0  0  0  0  0
  136.7962   68.3819  225.6417 H   0  0  0  0  0  0  0  0  0  0  0  0
  138.3461   70.4986  225.9710 H   0  0  0  0  0  0  0  0  0  0  0  0
  138.9690   67.8026  225.1308 H   0  0  0  0  0  0  0  0  0  0  0  0
  140.1767   69.0039  224.4714 H   0  0  0  0  0  0  0  0  0  0  0  0
  140.2094   71.0119  226.8512 H   0  0  0  0  0  0  0  0  0  0  0  0
  141.4170   70.2868  229.1094 H   0  0  0  0  0  0  0  0  0  0  0  0
  141.5416   67.6005  229.2143 H   0  0  0  0  0  0  0  0  0  0  0  0
  140.3699   66.7274  226.9461 H   0  0  0  0  0  0  0  0  0  0  0  0
  142.4248   75.2522  219.4619 H   0  0  0  0  0  0  0  0  0  0  0  0
  142.8311   77.6908  219.3556 H   0  0  0  0  0  0  0  0  0  0  0  0
  142.4280   79.9228  220.3782 H   0  0  0  0  0  0  0  0  0  0  0  0
  140.0036   80.2275  223.9207 H   0  0  0  0  0  0  0  0  0  0  0  0
  139.6836   77.7507  223.8944 H   0  0  0  0  0  0  0  0  0  0  0  0
  1  2  2  0
  2  3  1  0
  3  4  1  0
  4  5  1  0
  5  6  2  0
  5  7  1  0
  7  8  1  0
  8  9  1  0
  9 10  1  0
  9 11  1  0
 11 12  1  0
 12 13  1  0
 13 14  1  0
 14 15  1  0
 15 16  2  0
 16 17  1  0
 17 18  2  0
  2 19  1  0
 19 20  2  0
 20 21  1  0
 21 22  2  0
 22 23  1  0
 23 24  2  0
 24 25  1  0
 24 26  1  0
 26 27  2  0
 27 28  1  0
 28 29  2  0
 12  7  1  0
 18 14  1  0
 29 19  1  0
 28 22  1  0
  3 30  1  0
  4 31  1  0
  4 32  1  0
  8 33  1  0
  8 34  1  0
  9 35  1  1
 10 36  1  0
 11 37  1  0
 11 38  1  0
 12 39  1  1
 13 40  1  0
 13 41  1  0
 15 42  1  0
 16 43  1  0
 17 44  1  0
 18 45  1  0
 20 46  1  0
 21 47  1  0
 23 48  1  0
 26 49  1  0
 27 50  1  0
M  END
>  <smiles>  (40) 
O=C(NCC(=O)N1C[C@H](O)C[C@H]1Cn1cccc1)c1ccc2cc(Cl)ccc2n1

>  <score_type>  (40) 
oracle

>  <origin>  (40) 
autodockgpu

>  <m_score__min__energy>  (40) 
-8.1199999999999992

>  <m_primary>  (40) 
energy

>  <rmsd>  (40) 
9.649990518978834

>  <m_score__min__rmsd>  (40) 
9.649990518978834

>  <meeko>  (40) 
{"free_energy": -7.34, "intermolecular_energy": -9.43, "internal_energy": -1.53, "cluster_size": 2, "cluster_id": 6, "rank_in_cluster": 1}

>  <energy>  (40) 
-7.28

>  <cluster_rmsd>  (40) 
0.98

>  <cluster>  (40) 
7

$$$$

     RDKit          3D

 50 53  0  0  0  0  0  0  0  0999 V2000
  139.0400   72.2040  220.6750 O   0  0  0  0  0  0  0  0  0  0  0  0
  139.6490   72.5300  221.7130 C   0  0  0  0  0  0  0  0  0  0  0  0
  140.2940   73.7960  221.8140 N   0  0  0  0  0  0  0  0  0  0  0  0
  140.2240   74.6910  220.6900 C   0  0  0  0  0  0  0  0  0  0  0  0
  141.0320   75.9330  220.9200 C   0  0  0  0  0  0  0  0  0  0  0  0
  141.0340   76.4990  222.0550 O   0  0  0  0  0  0  0  0  0  0  0  0
  141.7870   76.4420  219.8270 N   0  0  0  0  0  0  0  0  0  0  0  0
  141.6630   77.7640  219.1930 C   0  0  0  0  0  0  0  0  0  0  0  0
  142.8950   77.9150  218.3580 C   0  0  2  0  0  0  0  0  0  0  0  0
  142.5600   78.7390  217.2820 O   0  0  0  0  0  0  0  0  0  0  0  0
  143.0980   76.4710  217.8900 C   0  0  0  0  0  0  0  0  0  0  0  0
  142.8310   75.7050  219.1490 C   0  0  1  0  0  0  0  0  0  0  0  0
  144.0270   75.7110  220.0770 C   0  0  0  0  0  0  0  0  0  0  0  0
  144.5620   74.3990  220.3330 N   0  0  0  0  0  0  0  0  0  0  0  0
  145.7820   74.1440  220.8390 C   0  0  0  0  0  0  0  0  0  0  0  0
  145.8990   72.7760  220.9260 C   0  0  0  0  0  0  0  0  0  0  0  0
  144.7400   72.1680  220.4690 C   0  0  0  0  0  0  0  0  0  0  0  0
  143.9180   73.2250  220.1020 C   0  0  0  0  0  0  0  0  0  0  0  0
  139.7290   71.6240  222.8690 C   0  0  0  0  0  0  0  0  0  0  0  0
  139.2090   70.3390  222.7710 C   0  0  0  0  0  0  0  0  0  0  0  0
  139.2570   69.4530  223.8210 C   0  0  0  0  0  0  0  0  0  0  0  0
  139.8360   69.8670  224.9920 C   0  0  0  0  0  0  0  0  0  0  0  0
  139.9410   69.0620  226.1130 C   0  0  0  0  0  0  0  0  0  0  0  0
  140.5310   69.5130  227.2720 C   0  0  0  0  0  0  0  0  0  0  0  0
  140.6760   68.5210  228.7000 Cl  0  0  0  0  0  0  0  0  0  0  0  0
  141.0450   70.8090  227.3420 C   0  0  0  0  0  0  0  0  0  0  0  0
  140.9500   71.6300  226.2300 C   0  0  0  0  0  0  0  0  0  0  0  0
  140.3500   71.1500  225.0720 C   0  0  0  0  0  0  0  0  0  0  0  0
  140.2940   72.0070  224.0300 N   0  0  0  0  0  0  0  0  0  0  0  0
  140.7980   74.0300  222.7110 H   0  0  0  0  0  0  0  0  0  0  0  0
  140.6095   74.1747  219.7985 H   0  0  0  0  0  0  0  0  0  0  0  0
  139.1734   74.9858  220.5508 H   0  0  0  0  0  0  0  0  0  0  0  0
  140.7623   77.8068  218.5630 H   0  0  0  0  0  0  0  0  0  0  0  0
  141.5685   78.5694  219.9362 H   0  0  0  0  0  0  0  0  0  0  0  0
  143.7794   78.3459  218.8502 H   0  0  0  0  0  0  0  0  0  0  0  0
  143.3070   79.3090  216.9710 H   0  0  0  0  0  0  0  0  0  0  0  0
  142.3841   76.2019  217.0976 H   0  0  0  0  0  0  0  0  0  0  0  0
  144.0880   76.2783  217.4508 H   0  0  0  0  0  0  0  0  0  0  0  0
  142.5801   74.6625  218.9038 H   0  0  0  0  0  0  0  0  0  0  0  0
  144.8172   76.3266  219.6225 H   0  0  0  0  0  0  0  0  0  0  0  0
  143.6860   76.1152  221.0416 H   0  0  0  0  0  0  0  0  0  0  0  0
  146.5404   74.8866  221.1278 H   0  0  0  0  0  0  0  0  0  0  0  0
  146.7837   72.2422  221.3034 H   0  0  0  0  0  0  0  0  0  0  0  0
  144.5211   71.0916  220.4104 H   0  0  0  0  0  0  0  0  0  0  0  0
  142.9033   73.1273  219.6886 H   0  0  0  0  0  0  0  0  0  0  0  0
  138.7453   70.0215  221.8254 H   0  0  0  0  0  0  0  0  0  0  0  0
  138.8418   68.4390  223.7238 H   0  0  0  0  0  0  0  0  0  0  0  0
  139.5433   68.0370  226.0769 H   0  0  0  0  0  0  0  0  0  0  0  0
  141.5182   71.1729  228.2659 H   0  0  0  0  0  0  0  0  0  0  0  0
  141.3470   72.6553  226.2635 H   0  0  0  0  0  0  0  0  0  0  0  0
  1  2  2  0
  2  3  1  0
  3  4  1  0
  4  5  1  0
  5  6  2  0
  5  7  1  0
  7  8  1  0
  8  9  1  0
  9 10  1  0
  9 11  1  0
 11 12  1  0
 12 13  1  0
 13 14  1  0
 14 15  1  0
 15 16  2  0
 16 17  1  0
 17 18  2  0
  2 19  1  0
 19 20  2  0
 20 21  1  0
 21 22  2  0
 22 23  1  0
 23 24  2  0
 24 25  1  0
 24 26  1  0
 26 27  2  0
 27 28  1  0
 28 29  2  0
 12  7  1  0
 18 14  1  0
 29 19  1  0
 28 22  1  0
  3 30  1  0
  4 31  1  0
  4 32  1  0
  8 33  1  0
  8 34  1  0
  9 35  1  1
 10 36  1  0
 11 37  1  0
 11 38  1  0
 12 39  1  6
 13 40  1  0
 13 41  1  0
 15 42  1  0
 16 43  1  0
 17 44  1  0
 18 45  1  0
 20 46  1  0
 21 47  1  0
 23 48  1  0
 26 49  1  0
 27 50  1  0
M  END
>  <smiles>  (41) 
O=C(NCC(=O)N1C[C@H](O)C[C@H]1Cn1cccc1)c1ccc2cc(Cl)ccc2n1

>  <score_type>  (41) 
oracle

>  <origin>  (41) 
autodockgpu

>  <m_score__min__energy>  (41) 
-8.1199999999999992

>  <m_primary>  (41) 
energy

>  <rmsd>  (41) 
4.3114777231249395

>  <m_score__min__rmsd>  (41) 
4.3114777231249395

>  <meeko>  (41) 
{"free_energy": -7.73, "intermolecular_energy": -9.81, "internal_energy": -1.85, "cluster_size": 11, "cluster_id": 1, "rank_in_cluster": 6}

>  <energy>  (41) 
-7.26

>  <cluster_rmsd>  (41) 
0.33

>  <cluster>  (41) 
7

$$$$

     RDKit          3D

 50 53  0  0  0  0  0  0  0  0999 V2000
  139.1520   73.5980  220.1250 O   0  0  0  0  0  0  0  0  0  0  0  0
  139.9250   73.5650  221.1020 C   0  0  0  0  0  0  0  0  0  0  0  0
  141.0070   74.4850  221.2090 N   0  0  0  0  0  0  0  0  0  0  0  0
  141.1850   75.4550  220.1620 C   0  0  0  0  0  0  0  0  0  0  0  0
  140.3640   76.6870  220.4040 C   0  0  0  0  0  0  0  0  0  0  0  0
  139.2690   76.8620  219.7880 O   0  0  0  0  0  0  0  0  0  0  0  0
  140.8580   77.6370  221.3410 N   0  0  0  0  0  0  0  0  0  0  0  0
  141.8510   78.6960  221.1010 C   0  0  0  0  0  0  0  0  0  0  0  0
  141.7440   79.6080  222.2830 C   0  0  2  0  0  0  0  0  0  0  0  0
  143.0020   80.1810  222.4710 O   0  0  0  0  0  0  0  0  0  0  0  0
  141.4400   78.5960  223.3920 C   0  0  0  0  0  0  0  0  0  0  0  0
  140.4400   77.7050  222.7240 C   0  0  1  0  0  0  0  0  0  0  0  0
  139.0540   78.3150  222.7200 C   0  0  0  0  0  0  0  0  0  0  0  0
  137.9960   77.3380  222.7200 N   0  0  0  0  0  0  0  0  0  0  0  0
  136.6810   77.6190  222.7380 C   0  0  0  0  0  0  0  0  0  0  0  0
  136.0170   76.4140  222.7300 C   0  0  0  0  0  0  0  0  0  0  0  0
  136.9270   75.3680  222.7060 C   0  0  0  0  0  0  0  0  0  0  0  0
  138.1670   75.9900  222.6990 C   0  0  0  0  0  0  0  0  0  0  0  0
  139.7540   72.5780  222.1790 C   0  0  0  0  0  0  0  0  0  0  0  0
  138.8130   71.5650  222.0390 C   0  0  0  0  0  0  0  0  0  0  0  0
  138.6140   70.6170  223.0150 C   0  0  0  0  0  0  0  0  0  0  0  0
  139.3730   70.6900  224.1540 C   0  0  0  0  0  0  0  0  0  0  0  0
  139.2590   69.7930  225.2010 C   0  0  0  0  0  0  0  0  0  0  0  0
  140.0400   69.8980  226.3290 C   0  0  0  0  0  0  0  0  0  0  0  0
  139.9180   68.7810  227.6640 Cl  0  0  0  0  0  0  0  0  0  0  0  0
  140.9780   70.9260  226.4430 C   0  0  0  0  0  0  0  0  0  0  0  0
  141.1070   71.8340  225.4050 C   0  0  0  0  0  0  0  0  0  0  0  0
  140.3060   71.7050  224.2760 C   0  0  0  0  0  0  0  0  0  0  0  0
  140.4890   72.6270  223.3070 N   0  0  0  0  0  0  0  0  0  0  0  0
  141.6370   74.4210  222.0520 H   0  0  0  0  0  0  0  0  0  0  0  0
  142.2470   75.7376  220.1142 H   0  0  0  0  0  0  0  0  0  0  0  0
  140.8553   75.0029  219.2150 H   0  0  0  0  0  0  0  0  0  0  0  0
  142.8623   78.2686  221.0336 H   0  0  0  0  0  0  0  0  0  0  0  0
  141.6673   79.2256  220.1546 H   0  0  0  0  0  0  0  0  0  0  0  0
  141.0087   80.4235  222.2175 H   0  0  0  0  0  0  0  0  0  0  0  0
  143.7310   79.6960  222.0110 H   0  0  0  0  0  0  0  0  0  0  0  0
  142.3420   78.0382  223.6841 H   0  0  0  0  0  0  0  0  0  0  0  0
  141.0785   79.0518  224.3256 H   0  0  0  0  0  0  0  0  0  0  0  0
  140.3974   76.7374  223.2454 H   0  0  0  0  0  0  0  0  0  0  0  0
  138.9476   78.9433  223.6166 H   0  0  0  0  0  0  0  0  0  0  0  0
  138.9586   78.8950  221.7902 H   0  0  0  0  0  0  0  0  0  0  0  0
  136.2242   78.6195  222.7557 H   0  0  0  0  0  0  0  0  0  0  0  0
  134.9233   76.2973  222.7410 H   0  0  0  0  0  0  0  0  0  0  0  0
  136.7138   74.2889  222.6950 H   0  0  0  0  0  0  0  0  0  0  0  0
  139.1375   75.4726  222.6795 H   0  0  0  0  0  0  0  0  0  0  0  0
  138.2096   71.5202  221.1204 H   0  0  0  0  0  0  0  0  0  0  0  0
  137.8657   69.8213  222.8851 H   0  0  0  0  0  0  0  0  0  0  0  0
  138.5261   68.9758  225.1300 H   0  0  0  0  0  0  0  0  0  0  0  0
  141.6046   71.0134  227.3429 H   0  0  0  0  0  0  0  0  0  0  0  0
  141.8389   72.6523  225.4735 H   0  0  0  0  0  0  0  0  0  0  0  0
  1  2  2  0
  2  3  1  0
  3  4  1  0
  4  5  1  0
  5  6  2  0
  5  7  1  0
  7  8  1  0
  8  9  1  0
  9 10  1  0
  9 11  1  0
 11 12  1  0
 12 13  1  0
 13 14  1  0
 14 15  1  0
 15 16  2  0
 16 17  1  0
 17 18  2  0
  2 19  1  0
 19 20  2  0
 20 21  1  0
 21 22  2  0
 22 23  1  0
 23 24  2  0
 24 25  1  0
 24 26  1  0
 26 27  2  0
 27 28  1  0
 28 29  2  0
 12  7  1  0
 18 14  1  0
 29 19  1  0
 28 22  1  0
  3 30  1  0
  4 31  1  0
  4 32  1  0
  8 33  1  0
  8 34  1  0
  9 35  1  6
 10 36  1  0
 11 37  1  0
 11 38  1  0
 12 39  1  1
 13 40  1  0
 13 41  1  0
 15 42  1  0
 16 43  1  0
 17 44  1  0
 18 45  1  0
 20 46  1  0
 21 47  1  0
 23 48  1  0
 26 49  1  0
 27 50  1  0
M  END
>  <smiles>  (42) 
O=C(NCC(=O)N1C[C@H](O)C[C@H]1Cn1cccc1)c1ccc2cc(Cl)ccc2n1

>  <score_type>  (42) 
oracle

>  <origin>  (42) 
autodockgpu

>  <m_score__min__energy>  (42) 
-8.1199999999999992

>  <m_primary>  (42) 
energy

>  <rmsd>  (42) 
4.3538437346039975

>  <m_score__min__rmsd>  (42) 
4.3538437346039975

>  <meeko>  (42) 
{"free_energy": -6.59, "intermolecular_energy": -8.68, "internal_energy": -2.2, "cluster_size": 1, "cluster_id": 8, "rank_in_cluster": 1}

>  <energy>  (42) 
-7.26

>  <cluster_rmsd>  (42) 
0.36

>  <cluster>  (42) 
7

$$$$

     RDKit          3D

 50 53  0  0  0  0  0  0  0  0999 V2000
  140.4430   72.1530  220.4400 O   0  0  0  0  0  0  0  0  0  0  0  0
  140.2210   72.6090  221.5780 C   0  0  0  0  0  0  0  0  0  0  0  0
  140.0370   74.0080  221.7800 N   0  0  0  0  0  0  0  0  0  0  0  0
  140.1130   74.8790  220.6390 C   0  0  0  0  0  0  0  0  0  0  0  0
  140.8650   76.1380  220.9530 C   0  0  0  0  0  0  0  0  0  0  0  0
  140.8900   76.5960  222.1350 O   0  0  0  0  0  0  0  0  0  0  0  0
  141.5430   76.7870  219.8830 N   0  0  0  0  0  0  0  0  0  0  0  0
  141.4540   78.2050  219.4990 C   0  0  0  0  0  0  0  0  0  0  0  0
  142.6040   78.4300  218.5680 C   0  0  2  0  0  0  0  0  0  0  0  0
  142.2250   79.4470  217.6900 O   0  0  0  0  0  0  0  0  0  0  0  0
  142.6500   77.0810  217.8440 C   0  0  0  0  0  0  0  0  0  0  0  0
  142.4550   76.1230  218.9780 C   0  0  1  0  0  0  0  0  0  0  0  0
  143.7350   75.8990  219.7540 C   0  0  0  0  0  0  0  0  0  0  0  0
  143.9740   74.5170  220.0810 N   0  0  0  0  0  0  0  0  0  0  0  0
  143.1190   73.5060  219.8470 C   0  0  0  0  0  0  0  0  0  0  0  0
  143.7240   72.3580  220.3050 C   0  0  0  0  0  0  0  0  0  0  0  0
  144.9720   72.6550  220.8310 C   0  0  0  0  0  0  0  0  0  0  0  0
  145.0950   74.0280  220.6730 C   0  0  0  0  0  0  0  0  0  0  0  0
  140.1400   71.7290  222.7540 C   0  0  0  0  0  0  0  0  0  0  0  0
  139.5200   70.4900  222.6420 C   0  0  0  0  0  0  0  0  0  0  0  0
  139.4170   69.6290  223.7090 C   0  0  0  0  0  0  0  0  0  0  0  0
  139.9460   70.0220  224.9110 C   0  0  0  0  0  0  0  0  0  0  0  0
  139.9020   69.2390  226.0520 C   0  0  0  0  0  0  0  0  0  0  0  0
  140.4440   69.6670  227.2410 C   0  0  0  0  0  0  0  0  0  0  0  0
  140.4020   68.7020  228.6940 Cl  0  0  0  0  0  0  0  0  0  0  0  0
  141.0610   70.9170  227.3250 C   0  0  0  0  0  0  0  0  0  0  0  0
  141.1160   71.7150  226.1940 C   0  0  0  0  0  0  0  0  0  0  0  0
  140.5600   71.2590  225.0040 C   0  0  0  0  0  0  0  0  0  0  0  0
  140.6520   72.0910  223.9450 N   0  0  0  0  0  0  0  0  0  0  0  0
  139.8510   74.3510  222.7600 H   0  0  0  0  0  0  0  0  0  0  0  0
  140.6259   74.3517  219.8212 H   0  0  0  0  0  0  0  0  0  0  0  0
  139.0885   75.1543  220.3482 H   0  0  0  0  0  0  0  0  0  0  0  0
  140.5000   78.4082  218.9904 H   0  0  0  0  0  0  0  0  0  0  0  0
  141.4947   78.8719  220.3729 H   0  0  0  0  0  0  0  0  0  0  0  0
  143.5632   78.7174  219.0235 H   0  0  0  0  0  0  0  0  0  0  0  0
  142.9470   79.7310  217.0760 H   0  0  0  0  0  0  0  0  0  0  0  0
  141.8415   76.9955  217.1030 H   0  0  0  0  0  0  0  0  0  0  0  0
  143.5732   76.9127  217.2701 H   0  0  0  0  0  0  0  0  0  0  0  0
  142.1036   75.1554  218.5903 H   0  0  0  0  0  0  0  0  0  0  0  0
  144.5777   76.2643  219.1486 H   0  0  0  0  0  0  0  0  0  0  0  0
  143.6369   76.4441  220.7044 H   0  0  0  0  0  0  0  0  0  0  0  0
  142.1263   73.5820  219.3792 H   0  0  0  0  0  0  0  0  0  0  0  0
  143.2820   71.3517  220.2603 H   0  0  0  0  0  0  0  0  0  0  0  0
  145.7001   71.9593  221.2736 H   0  0  0  0  0  0  0  0  0  0  0  0
  145.9649   74.6275  220.9794 H   0  0  0  0  0  0  0  0  0  0  0  0
  139.0993   70.1895  221.6711 H   0  0  0  0  0  0  0  0  0  0  0  0
  138.9237   68.6517  223.6011 H   0  0  0  0  0  0  0  0  0  0  0  0
  139.4217   68.2504  226.0062 H   0  0  0  0  0  0  0  0  0  0  0  0
  141.4964   71.2625  228.2742 H   0  0  0  0  0  0  0  0  0  0  0  0
  141.5967   72.7035  226.2371 H   0  0  0  0  0  0  0  0  0  0  0  0
  1  2  2  0
  2  3  1  0
  3  4  1  0
  4  5  1  0
  5  6  2  0
  5  7  1  0
  7  8  1  0
  8  9  1  0
  9 10  1  0
  9 11  1  0
 11 12  1  0
 12 13  1  0
 13 14  1  0
 14 15  1  0
 15 16  2  0
 16 17  1  0
 17 18  2  0
  2 19  1  0
 19 20  2  0
 20 21  1  0
 21 22  2  0
 22 23  1  0
 23 24  2  0
 24 25  1  0
 24 26  1  0
 26 27  2  0
 27 28  1  0
 28 29  2  0
 12  7  1  0
 18 14  1  0
 29 19  1  0
 28 22  1  0
  3 30  1  0
  4 31  1  0
  4 32  1  0
  8 33  1  0
  8 34  1  0
  9 35  1  1
 10 36  1  0
 11 37  1  0
 11 38  1  0
 12 39  1  6
 13 40  1  0
 13 41  1  0
 15 42  1  0
 16 43  1  0
 17 44  1  0
 18 45  1  0
 20 46  1  0
 21 47  1  0
 23 48  1  0
 26 49  1  0
 27 50  1  0
M  END
>  <smiles>  (43) 
O=C(NCC(=O)N1C[C@H](O)C[C@H]1Cn1cccc1)c1ccc2cc(Cl)ccc2n1

>  <score_type>  (43) 
oracle

>  <origin>  (43) 
autodockgpu

>  <m_score__min__energy>  (43) 
-8.1199999999999992

>  <m_primary>  (43) 
energy

>  <rmsd>  (43) 
4.198315461501764

>  <m_score__min__rmsd>  (43) 
4.198315461501764

>  <meeko>  (43) 
{"free_energy": -7.67, "intermolecular_energy": -9.76, "internal_energy": -2.02, "cluster_size": 11, "cluster_id": 1, "rank_in_cluster": 8}

>  <energy>  (43) 
-7.26

>  <cluster_rmsd>  (43) 
0.37

>  <cluster>  (43) 
7

$$$$

     RDKit          3D

 50 53  0  0  0  0  0  0  0  0999 V2000
  140.7350   72.7650  221.0120 O   0  0  0  0  0  0  0  0  0  0  0  0
  140.0330   72.8930  222.0340 C   0  0  0  0  0  0  0  0  0  0  0  0
  139.1830   74.0250  222.1980 N   0  0  0  0  0  0  0  0  0  0  0  0
  139.1550   75.0150  221.1560 C   0  0  0  0  0  0  0  0  0  0  0  0
  138.8520   76.3810  221.6970 C   0  0  0  0  0  0  0  0  0  0  0  0
  137.8710   76.5600  222.4810 O   0  0  0  0  0  0  0  0  0  0  0  0
  139.7000   77.4520  221.3010 N   0  0  0  0  0  0  0  0  0  0  0  0
  139.3100   78.6940  220.6140 C   0  0  0  0  0  0  0  0  0  0  0  0
  140.4900   79.6050  220.7540 C   0  0  2  0  0  0  0  0  0  0  0  0
  140.4860   80.4490  219.6420 O   0  0  0  0  0  0  0  0  0  0  0  0
  141.6380   78.5960  220.6630 C   0  0  0  0  0  0  0  0  0  0  0  0
  141.1300   77.4800  221.5220 C   0  0  1  0  0  0  0  0  0  0  0  0
  141.3250   77.7690  222.9960 C   0  0  0  0  0  0  0  0  0  0  0  0
  141.5410   79.1630  223.2840 N   0  0  0  0  0  0  0  0  0  0  0  0
  140.5950   80.0230  223.7010 C   0  0  0  0  0  0  0  0  0  0  0  0
  141.2100   81.2440  223.8600 C   0  0  0  0  0  0  0  0  0  0  0  0
  142.5560   81.1460  223.5390 C   0  0  0  0  0  0  0  0  0  0  0  0
  142.7280   79.8160  223.1800 C   0  0  0  0  0  0  0  0  0  0  0  0
  140.0520   71.8880  223.1070 C   0  0  0  0  0  0  0  0  0  0  0  0
  139.5640   70.6100  222.8600 C   0  0  0  0  0  0  0  0  0  0  0  0
  139.5580   69.6340  223.8280 C   0  0  0  0  0  0  0  0  0  0  0  0
  140.0520   69.9470  225.0670 C   0  0  0  0  0  0  0  0  0  0  0  0
  140.0970   69.0460  226.1160 C   0  0  0  0  0  0  0  0  0  0  0  0
  140.6010   69.3970  227.3480 C   0  0  0  0  0  0  0  0  0  0  0  0
  140.6690   68.2810  228.6880 Cl  0  0  0  0  0  0  0  0  0  0  0  0
  141.0850   70.6870  227.5680 C   0  0  0  0  0  0  0  0  0  0  0  0
  141.0490   71.6040  226.5300 C   0  0  0  0  0  0  0  0  0  0  0  0
  140.5350   71.2240  225.2960 C   0  0  0  0  0  0  0  0  0  0  0  0
  140.5330   72.1710  224.3330 N   0  0  0  0  0  0  0  0  0  0  0  0
  138.6060   74.0940  223.0790 H   0  0  0  0  0  0  0  0  0  0  0  0
  140.1362   75.0378  220.6594 H   0  0  0  0  0  0  0  0  0  0  0  0
  138.3602   74.7432  220.4458 H   0  0  0  0  0  0  0  0  0  0  0  0
  139.0975   78.4978  219.5527 H   0  0  0  0  0  0  0  0  0  0  0  0
  138.3974   79.1331  221.0434 H   0  0  0  0  0  0  0  0  0  0  0  0
  140.5291   80.2343  221.6554 H   0  0  0  0  0  0  0  0  0  0  0  0
  140.6280   81.4020  219.8680 H   0  0  0  0  0  0  0  0  0  0  0  0
  141.7983   78.2634  219.6268 H   0  0  0  0  0  0  0  0  0  0  0  0
  142.6114   78.9972  220.9816 H   0  0  0  0  0  0  0  0  0  0  0  0
  141.6584   76.5484  221.2714 H   0  0  0  0  0  0  0  0  0  0  0  0
  140.4273   77.4365  223.5378 H   0  0  0  0  0  0  0  0  0  0  0  0
  142.2286   77.2288  223.3150 H   0  0  0  0  0  0  0  0  0  0  0  0
  139.5340   79.7946  223.8805 H   0  0  0  0  0  0  0  0  0  0  0  0
  140.7073   82.1639  224.1932 H   0  0  0  0  0  0  0  0  0  0  0  0
  143.3150   81.9418  223.5634 H   0  0  0  0  0  0  0  0  0  0  0  0
  143.6776   79.3615  222.8610 H   0  0  0  0  0  0  0  0  0  0  0  0
  139.1710   70.3727  221.8604 H   0  0  0  0  0  0  0  0  0  0  0  0
  139.1670   68.6285  223.6136 H   0  0  0  0  0  0  0  0  0  0  0  0
  139.7208   68.0239  225.9617 H   0  0  0  0  0  0  0  0  0  0  0  0
  141.4891   70.9717  228.5507 H   0  0  0  0  0  0  0  0  0  0  0  0
  141.4249   72.6266  226.6817 H   0  0  0  0  0  0  0  0  0  0  0  0
  1  2  2  0
  2  3  1  0
  3  4  1  0
  4  5  1  0
  5  6  2  0
  5  7  1  0
  7  8  1  0
  8  9  1  0
  9 10  1  0
  9 11  1  0
 11 12  1  0
 12 13  1  0
 13 14  1  0
 14 15  1  0
 15 16  2  0
 16 17  1  0
 17 18  2  0
  2 19  1  0
 19 20  2  0
 20 21  1  0
 21 22  2  0
 22 23  1  0
 23 24  2  0
 24 25  1  0
 24 26  1  0
 26 27  2  0
 27 28  1  0
 28 29  2  0
 12  7  1  0
 18 14  1  0
 29 19  1  0
 28 22  1  0
  3 30  1  0
  4 31  1  0
  4 32  1  0
  8 33  1  0
  8 34  1  0
  9 35  1  1
 10 36  1  0
 11 37  1  0
 11 38  1  0
 12 39  1  6
 13 40  1  0
 13 41  1  0
 15 42  1  0
 16 43  1  0
 17 44  1  0
 18 45  1  0
 20 46  1  0
 21 47  1  0
 23 48  1  0
 26 49  1  0
 27 50  1  0
M  END
>  <smiles>  (44) 
O=C(NCC(=O)N1C[C@H](O)C[C@H]1Cn1cccc1)c1ccc2cc(Cl)ccc2n1

>  <score_type>  (44) 
oracle

>  <origin>  (44) 
autodockgpu

>  <m_score__min__energy>  (44) 
-8.1199999999999992

>  <m_primary>  (44) 
energy

>  <rmsd>  (44) 
2.7182309431319154

>  <m_score__min__rmsd>  (44) 
2.7182309431319154

>  <meeko>  (44) 
{"free_energy": -7.78, "intermolecular_energy": -9.87, "internal_energy": -1.11, "cluster_size": 13, "cluster_id": 3, "rank_in_cluster": 3}

>  <energy>  (44) 
-7.25

>  <cluster_rmsd>  (44) 
0.35

>  <cluster>  (44) 
7

$$$$

     RDKit          3D

 50 53  0  0  0  0  0  0  0  0999 V2000
  140.4090   72.4670  220.5790 O   0  0  0  0  0  0  0  0  0  0  0  0
  140.1270   72.8280  221.7380 C   0  0  0  0  0  0  0  0  0  0  0  0
  139.8090   74.1880  222.0220 N   0  0  0  0  0  0  0  0  0  0  0  0
  139.8210   75.1330  220.9380 C   0  0  0  0  0  0  0  0  0  0  0  0
  140.8580   76.1960  221.1420 C   0  0  0  0  0  0  0  0  0  0  0  0
  141.0880   76.6580  222.3010 O   0  0  0  0  0  0  0  0  0  0  0  0
  141.5650   76.6580  219.9970 N   0  0  0  0  0  0  0  0  0  0  0  0
  141.4810   77.9880  219.3710 C   0  0  0  0  0  0  0  0  0  0  0  0
  142.6580   78.0610  218.4500 C   0  0  2  0  0  0  0  0  0  0  0  0
  142.3000   78.9070  217.3980 O   0  0  0  0  0  0  0  0  0  0  0  0
  142.7350   76.6080  217.9730 C   0  0  0  0  0  0  0  0  0  0  0  0
  142.5090   75.8580  219.2490 C   0  0  1  0  0  0  0  0  0  0  0  0
  143.7660   75.7860  220.0900 C   0  0  0  0  0  0  0  0  0  0  0  0
  144.1880   74.4400  220.3790 N   0  0  0  0  0  0  0  0  0  0  0  0
  143.3760   73.3700  220.4410 C   0  0  0  0  0  0  0  0  0  0  0  0
  144.1690   72.2850  220.7390 C   0  0  0  0  0  0  0  0  0  0  0  0
  145.4910   72.6820  220.8640 C   0  0  0  0  0  0  0  0  0  0  0  0
  145.4650   74.0500  220.6300 C   0  0  0  0  0  0  0  0  0  0  0  0
  140.1110   71.8720  222.8550 C   0  0  0  0  0  0  0  0  0  0  0  0
  139.5920   70.5970  222.6600 C   0  0  0  0  0  0  0  0  0  0  0  0
  139.5530   69.6650  223.6700 C   0  0  0  0  0  0  0  0  0  0  0  0
  140.0440   70.0210  224.8990 C   0  0  0  0  0  0  0  0  0  0  0  0
  140.0570   69.1670  225.9880 C   0  0  0  0  0  0  0  0  0  0  0  0
  140.5590   69.5600  227.2070 C   0  0  0  0  0  0  0  0  0  0  0  0
  140.5870   68.5040  228.5960 Cl  0  0  0  0  0  0  0  0  0  0  0  0
  141.0740   70.8460  227.3750 C   0  0  0  0  0  0  0  0  0  0  0  0
  141.0710   71.7160  226.2970 C   0  0  0  0  0  0  0  0  0  0  0  0
  140.5580   71.2940  225.0760 C   0  0  0  0  0  0  0  0  0  0  0  0
  140.5880   72.1970  224.0720 N   0  0  0  0  0  0  0  0  0  0  0  0
  139.5770   74.4490  223.0170 H   0  0  0  0  0  0  0  0  0  0  0  0
  140.0376   74.5985  220.0013 H   0  0  0  0  0  0  0  0  0  0  0  0
  138.8351   75.6189  220.8951 H   0  0  0  0  0  0  0  0  0  0  0  0
  140.5423   78.0905  218.8068 H   0  0  0  0  0  0  0  0  0  0  0  0
  141.4913   78.7960  220.1174 H   0  0  0  0  0  0  0  0  0  0  0  0
  143.6010   78.4333  218.8768 H   0  0  0  0  0  0  0  0  0  0  0  0
  143.0710   79.3620  216.9770 H   0  0  0  0  0  0  0  0  0  0  0  0
  141.9514   76.3866  217.2334 H   0  0  0  0  0  0  0  0  0  0  0  0
  143.6775   76.3535  217.4661 H   0  0  0  0  0  0  0  0  0  0  0  0
  142.1751   74.8342  219.0247 H   0  0  0  0  0  0  0  0  0  0  0  0
  144.5765   76.2963  219.5490 H   0  0  0  0  0  0  0  0  0  0  0  0
  143.5389   76.2674  221.0527 H   0  0  0  0  0  0  0  0  0  0  0  0
  142.2873   73.3630  220.2838 H   0  0  0  0  0  0  0  0  0  0  0  0
  143.8064   71.2536  220.8602 H   0  0  0  0  0  0  0  0  0  0  0  0
  146.3641   72.0545  221.0963 H   0  0  0  0  0  0  0  0  0  0  0  0
  146.3414   74.7145  220.6454 H   0  0  0  0  0  0  0  0  0  0  0  0
  139.2010   70.3259  221.6682 H   0  0  0  0  0  0  0  0  0  0  0  0
  139.1389   68.6608  223.4964 H   0  0  0  0  0  0  0  0  0  0  0  0
  139.6560   68.1488  225.8760 H   0  0  0  0  0  0  0  0  0  0  0  0
  141.4761   71.1639  228.3483 H   0  0  0  0  0  0  0  0  0  0  0  0
  141.4721   72.7344  226.4066 H   0  0  0  0  0  0  0  0  0  0  0  0
  1  2  2  0
  2  3  1  0
  3  4  1  0
  4  5  1  0
  5  6  2  0
  5  7  1  0
  7  8  1  0
  8  9  1  0
  9 10  1  0
  9 11  1  0
 11 12  1  0
 12 13  1  0
 13 14  1  0
 14 15  1  0
 15 16  2  0
 16 17  1  0
 17 18  2  0
  2 19  1  0
 19 20  2  0
 20 21  1  0
 21 22  2  0
 22 23  1  0
 23 24  2  0
 24 25  1  0
 24 26  1  0
 26 27  2  0
 27 28  1  0
 28 29  2  0
 12  7  1  0
 18 14  1  0
 29 19  1  0
 28 22  1  0
  3 30  1  0
  4 31  1  0
  4 32  1  0
  8 33  1  0
  8 34  1  0
  9 35  1  1
 10 36  1  0
 11 37  1  0
 11 38  1  0
 12 39  1  6
 13 40  1  0
 13 41  1  0
 15 42  1  0
 16 43  1  0
 17 44  1  0
 18 45  1  0
 20 46  1  0
 21 47  1  0
 23 48  1  0
 26 49  1  0
 27 50  1  0
M  END
>  <smiles>  (45) 
O=C(NCC(=O)N1C[C@H](O)C[C@H]1Cn1cccc1)c1ccc2cc(Cl)ccc2n1

>  <score_type>  (45) 
oracle

>  <origin>  (45) 
autodockgpu

>  <m_score__min__energy>  (45) 
-8.1199999999999992

>  <m_primary>  (45) 
energy

>  <rmsd>  (45) 
4.216930822248314

>  <m_score__min__rmsd>  (45) 
4.216930822248314

>  <meeko>  (45) 
{"free_energy": -8.12, "intermolecular_energy": -10.21, "internal_energy": -1.86, "cluster_size": 11, "cluster_id": 1, "rank_in_cluster": 1}

>  <energy>  (45) 
-7.24

>  <cluster_rmsd>  (45) 
0.22

>  <cluster>  (45) 
7

$$$$

     RDKit          3D

 50 53  0  0  0  0  0  0  0  0999 V2000
  140.5340   73.6530  222.0030 O   0  0  0  0  0  0  0  0  0  0  0  0
  139.6400   72.8110  222.2160 C   0  0  0  0  0  0  0  0  0  0  0  0
  138.4420   72.8080  221.4450 N   0  0  0  0  0  0  0  0  0  0  0  0
  138.2890   73.7990  220.4140 C   0  0  0  0  0  0  0  0  0  0  0  0
  138.1320   75.1750  220.9890 C   0  0  0  0  0  0  0  0  0  0  0  0
  136.9860   75.6080  221.3200 O   0  0  0  0  0  0  0  0  0  0  0  0
  139.3050   75.9640  221.1460 N   0  0  0  0  0  0  0  0  0  0  0  0
  140.3800   76.1740  220.1630 C   0  0  0  0  0  0  0  0  0  0  0  0
  141.1650   77.3360  220.6830 C   0  0  2  0  0  0  0  0  0  0  0  0
  142.4790   77.1720  220.2410 O   0  0  0  0  0  0  0  0  0  0  0  0
  141.0690   77.0890  222.1920 C   0  0  0  0  0  0  0  0  0  0  0  0
  139.6290   76.7070  222.3440 C   0  0  1  0  0  0  0  0  0  0  0  0
  138.7210   77.9190  222.3510 C   0  0  0  0  0  0  0  0  0  0  0  0
  139.4120   79.1530  222.6220 N   0  0  0  0  0  0  0  0  0  0  0  0
  139.8920   79.5250  223.8220 C   0  0  0  0  0  0  0  0  0  0  0  0
  140.4770   80.7590  223.6510 C   0  0  0  0  0  0  0  0  0  0  0  0
  140.3610   81.1620  222.3290 C   0  0  0  0  0  0  0  0  0  0  0  0
  139.6830   80.1220  221.7090 C   0  0  0  0  0  0  0  0  0  0  0  0
  139.7830   71.7920  223.2660 C   0  0  0  0  0  0  0  0  0  0  0  0
  139.3790   70.4860  223.0150 C   0  0  0  0  0  0  0  0  0  0  0  0
  139.4910   69.4950  223.9620 C   0  0  0  0  0  0  0  0  0  0  0  0
  140.0170   69.8240  225.1840 C   0  0  0  0  0  0  0  0  0  0  0  0
  140.1770   68.9100  226.2110 C   0  0  0  0  0  0  0  0  0  0  0  0
  140.7110   69.2770  227.4260 C   0  0  0  0  0  0  0  0  0  0  0  0
  140.9230   68.1470  228.7380 Cl  0  0  0  0  0  0  0  0  0  0  0  0
  141.1080   70.5960  227.6500 C   0  0  0  0  0  0  0  0  0  0  0  0
  140.9570   71.5250  226.6340 C   0  0  0  0  0  0  0  0  0  0  0  0
  140.4150   71.1290  225.4170 C   0  0  0  0  0  0  0  0  0  0  0  0
  140.2980   72.0890  224.4750 N   0  0  0  0  0  0  0  0  0  0  0  0
  137.7120   72.0770  221.6590 H   0  0  0  0  0  0  0  0  0  0  0  0
  139.1789   73.7818  219.7676 H   0  0  0  0  0  0  0  0  0  0  0  0
  137.3814   73.5607  219.8400 H   0  0  0  0  0  0  0  0  0  0  0  0
  141.0166   75.2798  220.0905 H   0  0  0  0  0  0  0  0  0  0  0  0
  139.9838   76.3637  219.1545 H   0  0  0  0  0  0  0  0  0  0  0  0
  140.8291   78.3383  220.3786 H   0  0  0  0  0  0  0  0  0  0  0  0
  143.1520   77.5930  220.8310 H   0  0  0  0  0  0  0  0  0  0  0  0
  141.7361   76.2736  222.5084 H   0  0  0  0  0  0  0  0  0  0  0  0
  141.3706   77.9502  222.8063 H   0  0  0  0  0  0  0  0  0  0  0  0
  139.4886   76.1557  223.2855 H   0  0  0  0  0  0  0  0  0  0  0  0
  138.2394   77.9989  221.3653 H   0  0  0  0  0  0  0  0  0  0  0  0
  137.9915   77.7720  223.1611 H   0  0  0  0  0  0  0  0  0  0  0  0
  139.8291   78.9531  224.7596 H   0  0  0  0  0  0  0  0  0  0  0  0
  140.9653   81.3407  224.4467 H   0  0  0  0  0  0  0  0  0  0  0  0
  140.7244   82.0955  221.8745 H   0  0  0  0  0  0  0  0  0  0  0  0
  139.4079   80.0875  220.6445 H   0  0  0  0  0  0  0  0  0  0  0  0
  138.9572   70.2377  222.0299 H   0  0  0  0  0  0  0  0  0  0  0  0
  139.1672   68.4665  223.7446 H   0  0  0  0  0  0  0  0  0  0  0  0
  139.8703   67.8655  226.0528 H   0  0  0  0  0  0  0  0  0  0  0  0
  141.5346   70.8934  228.6193 H   0  0  0  0  0  0  0  0  0  0  0  0
  141.2641   72.5698  226.7893 H   0  0  0  0  0  0  0  0  0  0  0  0
  1  2  2  0
  2  3  1  0
  3  4  1  0
  4  5  1  0
  5  6  2  0
  5  7  1  0
  7  8  1  0
  8  9  1  0
  9 10  1  0
  9 11  1  0
 11 12  1  0
 12 13  1  0
 13 14  1  0
 14 15  1  0
 15 16  2  0
 16 17  1  0
 17 18  2  0
  2 19  1  0
 19 20  2  0
 20 21  1  0
 21 22  2  0
 22 23  1  0
 23 24  2  0
 24 25  1  0
 24 26  1  0
 26 27  2  0
 27 28  1  0
 28 29  2  0
 12  7  1  0
 18 14  1  0
 29 19  1  0
 28 22  1  0
  3 30  1  0
  4 31  1  0
  4 32  1  0
  8 33  1  0
  8 34  1  0
  9 35  1  1
 10 36  1  0
 11 37  1  0
 11 38  1  0
 12 39  1  1
 13 40  1  0
 13 41  1  0
 15 42  1  0
 16 43  1  0
 17 44  1  0
 18 45  1  0
 20 46  1  0
 21 47  1  0
 23 48  1  0
 26 49  1  0
 27 50  1  0
M  END
>  <smiles>  (46) 
O=C(NCC(=O)N1C[C@H](O)C[C@H]1Cn1cccc1)c1ccc2cc(Cl)ccc2n1

>  <score_type>  (46) 
oracle

>  <origin>  (46) 
autodockgpu

>  <m_score__min__energy>  (46) 
-8.1199999999999992

>  <m_primary>  (46) 
energy

>  <rmsd>  (46) 
2.2978060780195584

>  <m_score__min__rmsd>  (46) 
2.2978060780195584

>  <meeko>  (46) 
{"free_energy": -7.4, "intermolecular_energy": -9.49, "internal_energy": -1.38, "cluster_size": 13, "cluster_id": 3, "rank_in_cluster": 12}

>  <energy>  (46) 
-7.22

>  <cluster_rmsd>  (46) 
0.29

>  <cluster>  (46) 
7

$$$$

     RDKit          3D

 50 53  0  0  0  0  0  0  0  0999 V2000
  139.9300   72.3410  220.7690 O   0  0  0  0  0  0  0  0  0  0  0  0
  139.8290   72.6990  221.9590 C   0  0  0  0  0  0  0  0  0  0  0  0
  139.6470   74.0710  222.2960 N   0  0  0  0  0  0  0  0  0  0  0  0
  139.5820   75.0340  221.2300 C   0  0  0  0  0  0  0  0  0  0  0  0
  140.3690   76.2700  221.5510 C   0  0  0  0  0  0  0  0  0  0  0  0
  140.7280   76.5130  222.7430 O   0  0  0  0  0  0  0  0  0  0  0  0
  140.6910   77.1450  220.4780 N   0  0  0  0  0  0  0  0  0  0  0  0
  140.2160   77.0680  219.0870 C   0  0  0  0  0  0  0  0  0  0  0  0
  140.5580   78.3930  218.4820 C   0  0  2  0  0  0  0  0  0  0  0  0
  140.7670   78.1770  217.1190 O   0  0  0  0  0  0  0  0  0  0  0  0
  141.8820   78.6940  219.1910 C   0  0  0  0  0  0  0  0  0  0  0  0
  141.5710   78.2880  220.5980 C   0  0  1  0  0  0  0  0  0  0  0  0
  140.7840   79.3530  221.3320 C   0  0  0  0  0  0  0  0  0  0  0  0
  141.5420   80.0240  222.3570 N   0  0  0  0  0  0  0  0  0  0  0  0
  142.6670   79.5520  222.9220 C   0  0  0  0  0  0  0  0  0  0  0  0
  143.0720   80.4880  223.8450 C   0  0  0  0  0  0  0  0  0  0  0  0
  142.1900   81.5580  223.8570 C   0  0  0  0  0  0  0  0  0  0  0  0
  141.2370   81.2290  222.9030 C   0  0  0  0  0  0  0  0  0  0  0  0
  139.8930   71.7240  223.0590 C   0  0  0  0  0  0  0  0  0  0  0  0
  139.4100   70.4360  222.8630 C   0  0  0  0  0  0  0  0  0  0  0  0
  139.4460   69.4870  223.8570 C   0  0  0  0  0  0  0  0  0  0  0  0
  139.9770   69.8390  225.0700 C   0  0  0  0  0  0  0  0  0  0  0  0
  140.0650   68.9680  226.1420 C   0  0  0  0  0  0  0  0  0  0  0  0
  140.6060   69.3590  227.3460 C   0  0  0  0  0  0  0  0  0  0  0  0
  140.7290   68.2820  228.7140 Cl  0  0  0  0  0  0  0  0  0  0  0  0
  141.0840   70.6590  227.5140 C   0  0  0  0  0  0  0  0  0  0  0  0
  141.0050   71.5460  226.4530 C   0  0  0  0  0  0  0  0  0  0  0  0
  140.4550   71.1260  225.2480 C   0  0  0  0  0  0  0  0  0  0  0  0
  140.4110   72.0460  224.2590 N   0  0  0  0  0  0  0  0  0  0  0  0
  139.5660   74.3290  223.3160 H   0  0  0  0  0  0  0  0  0  0  0  0
  139.9886   74.5802  220.3142 H   0  0  0  0  0  0  0  0  0  0  0  0
  138.5297   75.3233  221.0925 H   0  0  0  0  0  0  0  0  0  0  0  0
  140.7264   76.2552  218.5495 H   0  0  0  0  0  0  0  0  0  0  0  0
  139.1379   76.8567  219.0317 H   0  0  0  0  0  0  0  0  0  0  0  0
  139.8118   79.1945  218.5858 H   0  0  0  0  0  0  0  0  0  0  0  0
  140.7230   77.2240  216.8570 H   0  0  0  0  0  0  0  0  0  0  0  0
  142.7055   78.0959  218.7737 H   0  0  0  0  0  0  0  0  0  0  0  0
  142.2157   79.7373  219.0903 H   0  0  0  0  0  0  0  0  0  0  0  0
  142.5066   78.0999  221.1451 H   0  0  0  0  0  0  0  0  0  0  0  0
  140.4471   80.1028  220.6010 H   0  0  0  0  0  0  0  0  0  0  0  0
  139.9430   78.8482  221.8298 H   0  0  0  0  0  0  0  0  0  0  0  0
  143.1674   78.6002  222.6906 H   0  0  0  0  0  0  0  0  0  0  0  0
  143.9653   80.4005  224.4809 H   0  0  0  0  0  0  0  0  0  0  0  0
  142.2353   82.4626  224.4812 H   0  0  0  0  0  0  0  0  0  0  0  0
  140.3694   81.8484  222.6315 H   0  0  0  0  0  0  0  0  0  0  0  0
  138.9864   70.1678  221.8839 H   0  0  0  0  0  0  0  0  0  0  0  0
  139.0588   68.4722  223.6831 H   0  0  0  0  0  0  0  0  0  0  0  0
  139.6938   67.9387  226.0293 H   0  0  0  0  0  0  0  0  0  0  0  0
  141.5171   70.9748  228.4746 H   0  0  0  0  0  0  0  0  0  0  0  0
  141.3752   72.5759  226.5636 H   0  0  0  0  0  0  0  0  0  0  0  0
  1  2  2  0
  2  3  1  0
  3  4  1  0
  4  5  1  0
  5  6  2  0
  5  7  1  0
  7  8  1  0
  8  9  1  0
  9 10  1  0
  9 11  1  0
 11 12  1  0
 12 13  1  0
 13 14  1  0
 14 15  1  0
 15 16  2  0
 16 17  1  0
 17 18  2  0
  2 19  1  0
 19 20  2  0
 20 21  1  0
 21 22  2  0
 22 23  1  0
 23 24  2  0
 24 25  1  0
 24 26  1  0
 26 27  2  0
 27 28  1  0
 28 29  2  0
 12  7  1  0
 18 14  1  0
 29 19  1  0
 28 22  1  0
  3 30  1  0
  4 31  1  0
  4 32  1  0
  8 33  1  0
  8 34  1  0
  9 35  1  6
 10 36  1  0
 11 37  1  0
 11 38  1  0
 12 39  1  1
 13 40  1  0
 13 41  1  0
 15 42  1  0
 16 43  1  0
 17 44  1  0
 18 45  1  0
 20 46  1  0
 21 47  1  0
 23 48  1  0
 26 49  1  0
 27 50  1  0
M  END
>  <smiles>  (47) 
O=C(NCC(=O)N1C[C@H](O)C[C@H]1Cn1cccc1)c1ccc2cc(Cl)ccc2n1

>  <score_type>  (47) 
oracle

>  <origin>  (47) 
autodockgpu

>  <m_score__min__energy>  (47) 
-8.1199999999999992

>  <m_primary>  (47) 
energy

>  <rmsd>  (47) 
2.119496215301796

>  <m_score__min__rmsd>  (47) 
2.119496215301796

>  <meeko>  (47) 
{"free_energy": -7.72, "intermolecular_energy": -9.81, "internal_energy": -1.58, "cluster_size": 13, "cluster_id": 3, "rank_in_cluster": 8}

>  <energy>  (47) 
-7.17

>  <cluster_rmsd>  (47) 
0.45

>  <cluster>  (47) 
7

$$$$

     RDKit          3D

 50 53  0  0  0  0  0  0  0  0999 V2000
  138.9230   73.1170  220.7530 O   0  0  0  0  0  0  0  0  0  0  0  0
  139.8070   73.0600  221.6290 C   0  0  0  0  0  0  0  0  0  0  0  0
  140.9380   73.9260  221.5820 N   0  0  0  0  0  0  0  0  0  0  0  0
  141.0330   74.8680  220.5000 C   0  0  0  0  0  0  0  0  0  0  0  0
  141.8820   74.3430  219.3820 C   0  0  0  0  0  0  0  0  0  0  0  0
  141.4680   74.3850  218.1840 O   0  0  0  0  0  0  0  0  0  0  0  0
  143.1560   73.8050  219.7160 N   0  0  0  0  0  0  0  0  0  0  0  0
  144.2580   74.4840  220.4160 C   0  0  0  0  0  0  0  0  0  0  0  0
  145.1990   73.3910  220.8180 C   0  0  2  0  0  0  0  0  0  0  0  0
  146.4780   73.9480  220.8530 O   0  0  0  0  0  0  0  0  0  0  0  0
  145.0540   72.4420  219.6250 C   0  0  0  0  0  0  0  0  0  0  0  0
  143.5740   72.4550  219.4050 C   0  0  1  0  0  0  0  0  0  0  0  0
  142.8500   71.5510  220.3800 C   0  0  0  0  0  0  0  0  0  0  0  0
  141.6820   70.9200  219.8210 N   0  0  0  0  0  0  0  0  0  0  0  0
  140.9940   69.9170  220.3940 C   0  0  0  0  0  0  0  0  0  0  0  0
  139.9590   69.6070  219.5420 C   0  0  0  0  0  0  0  0  0  0  0  0
  140.0000   70.4270  218.4240 C   0  0  0  0  0  0  0  0  0  0  0  0
  141.1020   71.2440  218.6360 C   0  0  0  0  0  0  0  0  0  0  0  0
  139.7220   72.1010  222.7410 C   0  0  0  0  0  0  0  0  0  0  0  0
  138.8750   71.0040  222.6380 C   0  0  0  0  0  0  0  0  0  0  0  0
  138.7580   70.0780  223.6470 C   0  0  0  0  0  0  0  0  0  0  0  0
  139.5050   70.2590  224.7820 C   0  0  0  0  0  0  0  0  0  0  0  0
  139.4690   69.3920  225.8600 C   0  0  0  0  0  0  0  0  0  0  0  0
  140.2350   69.6060  226.9830 C   0  0  0  0  0  0  0  0  0  0  0  0
  140.2080   68.5310  228.3580 Cl  0  0  0  0  0  0  0  0  0  0  0  0
  141.0770   70.7170  227.0600 C   0  0  0  0  0  0  0  0  0  0  0  0
  141.1280   71.5960  225.9900 C   0  0  0  0  0  0  0  0  0  0  0  0
  140.3440   71.3560  224.8670 C   0  0  0  0  0  0  0  0  0  0  0  0
  140.4470   72.2560  223.8650 N   0  0  0  0  0  0  0  0  0  0  0  0
  141.6630   73.8440  222.3450 H   0  0  0  0  0  0  0  0  0  0  0  0
  140.0229   75.0722  220.1152 H   0  0  0  0  0  0  0  0  0  0  0  0
  141.5010   75.7863  220.8844 H   0  0  0  0  0  0  0  0  0  0  0  0
  144.7593   75.1977  219.7457 H   0  0  0  0  0  0  0  0  0  0  0  0
  143.9020   75.0600  221.2829 H   0  0  0  0  0  0  0  0  0  0  0  0
  145.0154   72.9073  221.7888 H   0  0  0  0  0  0  0  0  0  0  0  0
  146.6750   74.5380  220.0830 H   0  0  0  0  0  0  0  0  0  0  0  0
  145.5936   72.8199  218.7441 H   0  0  0  0  0  0  0  0  0  0  0  0
  145.4707   71.4390  219.7991 H   0  0  0  0  0  0  0  0  0  0  0  0
  143.3481   72.1221  218.3812 H   0  0  0  0  0  0  0  0  0  0  0  0
  143.5462   70.7654  220.7090 H   0  0  0  0  0  0  0  0  0  0  0  0
  142.5086   72.1823  221.2136 H   0  0  0  0  0  0  0  0  0  0  0  0
  141.2159   69.4366  221.3584 H   0  0  0  0  0  0  0  0  0  0  0  0
  139.2084   68.8231  219.7214 H   0  0  0  0  0  0  0  0  0  0  0  0
  139.3143   70.4293  217.5639 H   0  0  0  0  0  0  0  0  0  0  0  0
  141.4512   72.0310  217.9513 H   0  0  0  0  0  0  0  0  0  0  0  0
  138.2806   70.8729  221.7218 H   0  0  0  0  0  0  0  0  0  0  0  0
  138.0832   69.2151  223.5464 H   0  0  0  0  0  0  0  0  0  0  0  0
  138.8123   68.5106  225.8182 H   0  0  0  0  0  0  0  0  0  0  0  0
  141.6904   70.8919  227.9562 H   0  0  0  0  0  0  0  0  0  0  0  0
  141.7844   72.4778  226.0288 H   0  0  0  0  0  0  0  0  0  0  0  0
  1  2  2  0
  2  3  1  0
  3  4  1  0
  4  5  1  0
  5  6  2  0
  5  7  1  0
  7  8  1  0
  8  9  1  0
  9 10  1  0
  9 11  1  0
 11 12  1  0
 12 13  1  0
 13 14  1  0
 14 15  1  0
 15 16  2  0
 16 17  1  0
 17 18  2  0
  2 19  1  0
 19 20  2  0
 20 21  1  0
 21 22  2  0
 22 23  1  0
 23 24  2  0
 24 25  1  0
 24 26  1  0
 26 27  2  0
 27 28  1  0
 28 29  2  0
 12  7  1  0
 18 14  1  0
 29 19  1  0
 28 22  1  0
  3 30  1  0
  4 31  1  0
  4 32  1  0
  8 33  1  0
  8 34  1  0
  9 35  1  1
 10 36  1  0
 11 37  1  0
 11 38  1  0
 12 39  1  6
 13 40  1  0
 13 41  1  0
 15 42  1  0
 16 43  1  0
 17 44  1  0
 18 45  1  0
 20 46  1  0
 21 47  1  0
 23 48  1  0
 26 49  1  0
 27 50  1  0
M  END
>  <smiles>  (48) 
O=C(NCC(=O)N1C[C@H](O)C[C@H]1Cn1cccc1)c1ccc2cc(Cl)ccc2n1

>  <score_type>  (48) 
oracle

>  <origin>  (48) 
autodockgpu

>  <m_score__min__energy>  (48) 
-8.1199999999999992

>  <m_primary>  (48) 
energy

>  <rmsd>  (48) 
5.698454233768769

>  <m_score__min__rmsd>  (48) 
5.698454233768769

>  <meeko>  (48) 
{"free_energy": -5.98, "intermolecular_energy": -8.07, "internal_energy": -2.61, "cluster_size": 7, "cluster_id": 4, "rank_in_cluster": 6}

>  <energy>  (48) 
-7.11

>  <cluster_rmsd>  (48) 
0.45

>  <cluster>  (48) 
7

$$$$

     RDKit          3D

 50 53  0  0  0  0  0  0  0  0999 V2000
  139.9260   72.7680  220.7300 O   0  0  0  0  0  0  0  0  0  0  0  0
  139.7820   73.0410  221.9380 C   0  0  0  0  0  0  0  0  0  0  0  0
  139.5350   74.3790  222.3590 N   0  0  0  0  0  0  0  0  0  0  0  0
  139.4560   75.4080  221.3570 C   0  0  0  0  0  0  0  0  0  0  0  0
  138.8910   76.6810  221.9130 C   0  0  0  0  0  0  0  0  0  0  0  0
  137.6380   76.8350  222.0260 O   0  0  0  0  0  0  0  0  0  0  0  0
  139.8090   77.6950  222.3060 N   0  0  0  0  0  0  0  0  0  0  0  0
  141.1840   77.8940  221.8170 C   0  0  0  0  0  0  0  0  0  0  0  0
  141.5640   79.2690  222.2710 C   0  0  2  0  0  0  0  0  0  0  0  0
  142.9480   79.2690  222.4530 O   0  0  0  0  0  0  0  0  0  0  0  0
  140.8410   79.3310  223.6200 C   0  0  0  0  0  0  0  0  0  0  0  0
  139.5160   78.7210  223.2820 C   0  0  1  0  0  0  0  0  0  0  0  0
  138.5980   79.7100  222.5960 C   0  0  0  0  0  0  0  0  0  0  0  0
  137.9720   80.6370  223.5020 N   0  0  0  0  0  0  0  0  0  0  0  0
  137.2390   81.7040  223.1370 C   0  0  0  0  0  0  0  0  0  0  0  0
  136.8270   82.3200  224.2960 C   0  0  0  0  0  0  0  0  0  0  0  0
  137.3080   81.6310  225.3990 C   0  0  0  0  0  0  0  0  0  0  0  0
  138.0260   80.5740  224.8580 C   0  0  0  0  0  0  0  0  0  0  0  0
  139.8610   71.9990  222.9730 C   0  0  0  0  0  0  0  0  0  0  0  0
  139.3920   70.7200  222.6960 C   0  0  0  0  0  0  0  0  0  0  0  0
  139.4420   69.7100  223.6270 C   0  0  0  0  0  0  0  0  0  0  0  0
  139.9710   69.9900  224.8590 C   0  0  0  0  0  0  0  0  0  0  0  0
  140.0720   69.0530  225.8730 C   0  0  0  0  0  0  0  0  0  0  0  0
  140.6110   69.3720  227.0990 C   0  0  0  0  0  0  0  0  0  0  0  0
  140.7500   68.2120  228.3940 Cl  0  0  0  0  0  0  0  0  0  0  0  0
  141.0730   70.6650  227.3490 C   0  0  0  0  0  0  0  0  0  0  0  0
  140.9810   71.6170  226.3470 C   0  0  0  0  0  0  0  0  0  0  0  0
  140.4340   71.2690  225.1180 C   0  0  0  0  0  0  0  0  0  0  0  0
  140.3770   72.2490  224.1910 N   0  0  0  0  0  0  0  0  0  0  0  0
  139.4190   74.5660  223.3910 H   0  0  0  0  0  0  0  0  0  0  0  0
  140.4660   75.6058  220.9687 H   0  0  0  0  0  0  0  0  0  0  0  0
  138.7879   75.0569  220.5567 H   0  0  0  0  0  0  0  0  0  0  0  0
  141.8607   77.1432  222.2510 H   0  0  0  0  0  0  0  0  0  0  0  0
  141.2525   77.7870  220.7244 H   0  0  0  0  0  0  0  0  0  0  0  0
  141.3118   80.1026  221.5990 H   0  0  0  0  0  0  0  0  0  0  0  0
  143.4230   78.6180  221.8800 H   0  0  0  0  0  0  0  0  0  0  0  0
  141.3693   78.7438  224.3855 H   0  0  0  0  0  0  0  0  0  0  0  0
  140.7715   80.3438  224.0435 H   0  0  0  0  0  0  0  0  0  0  0  0
  139.0266   78.3637  224.2000 H   0  0  0  0  0  0  0  0  0  0  0  0
  139.1873   80.2824  221.8645 H   0  0  0  0  0  0  0  0  0  0  0  0
  137.7937   79.1289  222.1211 H   0  0  0  0  0  0  0  0  0  0  0  0
  137.0124   82.0229  222.1089 H   0  0  0  0  0  0  0  0  0  0  0  0
  136.2064   83.2271  224.3412 H   0  0  0  0  0  0  0  0  0  0  0  0
  137.1550   81.8685  226.4621 H   0  0  0  0  0  0  0  0  0  0  0  0
  138.5568   79.8042  225.4374 H   0  0  0  0  0  0  0  0  0  0  0  0
  138.9685   70.5101  221.7027 H   0  0  0  0  0  0  0  0  0  0  0  0
  139.0671   68.7036  223.3890 H   0  0  0  0  0  0  0  0  0  0  0  0
  139.7129   68.0287  225.6948 H   0  0  0  0  0  0  0  0  0  0  0  0
  141.5038   70.9243  228.3273 H   0  0  0  0  0  0  0  0  0  0  0  0
  141.3388   72.6422  226.5231 H   0  0  0  0  0  0  0  0  0  0  0  0
  1  2  2  0
  2  3  1  0
  3  4  1  0
  4  5  1  0
  5  6  2  0
  5  7  1  0
  7  8  1  0
  8  9  1  0
  9 10  1  0
  9 11  1  0
 11 12  1  0
 12 13  1  0
 13 14  1  0
 14 15  1  0
 15 16  2  0
 16 17  1  0
 17 18  2  0
  2 19  1  0
 19 20  2  0
 20 21  1  0
 21 22  2  0
 22 23  1  0
 23 24  2  0
 24 25  1  0
 24 26  1  0
 26 27  2  0
 27 28  1  0
 28 29  2  0
 12  7  1  0
 18 14  1  0
 29 19  1  0
 28 22  1  0
  3 30  1  0
  4 31  1  0
  4 32  1  0
  8 33  1  0
  8 34  1  0
  9 35  1  6
 10 36  1  0
 11 37  1  0
 11 38  1  0
 12 39  1  1
 13 40  1  0
 13 41  1  0
 15 42  1  0
 16 43  1  0
 17 44  1  0
 18 45  1  0
 20 46  1  0
 21 47  1  0
 23 48  1  0
 26 49  1  0
 27 50  1  0
M  END
>  <smiles>  (49) 
O=C(NCC(=O)N1C[C@H](O)C[C@H]1Cn1cccc1)c1ccc2cc(Cl)ccc2n1

>  <score_type>  (49) 
oracle

>  <origin>  (49) 
autodockgpu

>  <m_score__min__energy>  (49) 
-8.1199999999999992

>  <m_primary>  (49) 
energy

>  <rmsd>  (49) 
3.9215503024611804

>  <m_score__min__rmsd>  (49) 
3.9215503024611804

>  <meeko>  (49) 
{"free_energy": -7.96, "intermolecular_energy": -10.04, "internal_energy": -1.29, "cluster_size": 2, "cluster_id": 2, "rank_in_cluster": 2}

>  <energy>  (49) 
-7.01

>  <cluster_rmsd>  (49) 
1.94

>  <cluster>  (49) 
7

$$$$

     RDKit          3D

 50 53  0  0  0  0  0  0  0  0999 V2000
  140.2920   72.5070  220.6020 O   0  0  0  0  0  0  0  0  0  0  0  0
  140.0500   72.8660  221.7710 C   0  0  0  0  0  0  0  0  0  0  0  0
  139.7580   74.2280  222.0710 N   0  0  0  0  0  0  0  0  0  0  0  0
  139.7480   75.1780  220.9910 C   0  0  0  0  0  0  0  0  0  0  0  0
  140.8480   76.1870  221.1320 C   0  0  0  0  0  0  0  0  0  0  0  0
  141.0890   76.7250  222.2550 O   0  0  0  0  0  0  0  0  0  0  0  0
  141.6000   76.5120  219.9690 N   0  0  0  0  0  0  0  0  0  0  0  0
  141.6870   77.8180  219.2960 C   0  0  0  0  0  0  0  0  0  0  0  0
  142.8560   77.7030  218.3690 C   0  0  2  0  0  0  0  0  0  0  0  0
  142.6050   78.5510  217.2890 O   0  0  0  0  0  0  0  0  0  0  0  0
  142.7360   76.2370  217.9430 C   0  0  0  0  0  0  0  0  0  0  0  0
  142.4240   75.5680  219.2460 C   0  0  1  0  0  0  0  0  0  0  0  0
  143.6680   75.3600  220.0850 C   0  0  0  0  0  0  0  0  0  0  0  0
  144.0930   73.9860  220.1500 N   0  0  0  0  0  0  0  0  0  0  0  0
  143.3070   72.9460  220.4820 C   0  0  0  0  0  0  0  0  0  0  0  0
  144.0940   71.8180  220.4230 C   0  0  0  0  0  0  0  0  0  0  0  0
  145.3850   72.1570  220.0500 C   0  0  0  0  0  0  0  0  0  0  0  0
  145.3470   73.5350  219.8870 C   0  0  0  0  0  0  0  0  0  0  0  0
  140.0570   71.9040  222.8840 C   0  0  0  0  0  0  0  0  0  0  0  0
  139.5510   70.6240  222.6880 C   0  0  0  0  0  0  0  0  0  0  0  0
  139.5330   69.6870  223.6940 C   0  0  0  0  0  0  0  0  0  0  0  0
  140.0320   70.0440  224.9190 C   0  0  0  0  0  0  0  0  0  0  0  0
  140.0660   69.1850  226.0040 C   0  0  0  0  0  0  0  0  0  0  0  0
  140.5760   69.5780  227.2200 C   0  0  0  0  0  0  0  0  0  0  0  0
  140.6300   68.5170  228.6040 Cl  0  0  0  0  0  0  0  0  0  0  0  0
  141.0770   70.8700  227.3880 C   0  0  0  0  0  0  0  0  0  0  0  0
  141.0530   71.7450  226.3150 C   0  0  0  0  0  0  0  0  0  0  0  0
  140.5330   71.3220  225.0970 C   0  0  0  0  0  0  0  0  0  0  0  0
  140.5420   72.2300  224.0970 N   0  0  0  0  0  0  0  0  0  0  0  0
  139.5590   74.4880  223.0740 H   0  0  0  0  0  0  0  0  0  0  0  0
  139.8776   74.6393  220.0407 H   0  0  0  0  0  0  0  0  0  0  0  0
  138.7867   75.7124  221.0123 H   0  0  0  0  0  0  0  0  0  0  0  0
  140.7655   78.0235  218.7315 H   0  0  0  0  0  0  0  0  0  0  0  0
  141.8097   78.6432  220.0129 H   0  0  0  0  0  0  0  0  0  0  0  0
  143.8430   77.9622  218.7796 H   0  0  0  0  0  0  0  0  0  0  0  0
  143.3620   79.1490  217.0700 H   0  0  0  0  0  0  0  0  0  0  0  0
  141.9235   76.0960  217.2150 H   0  0  0  0  0  0  0  0  0  0  0  0
  143.6319   75.8425  217.4412 H   0  0  0  0  0  0  0  0  0  0  0  0
  141.9564   74.5900  219.0594 H   0  0  0  0  0  0  0  0  0  0  0  0
  144.4841   75.9569  219.6518 H   0  0  0  0  0  0  0  0  0  0  0  0
  143.4226   75.6719  221.1109 H   0  0  0  0  0  0  0  0  0  0  0  0
  142.2408   72.9887  220.7492 H   0  0  0  0  0  0  0  0  0  0  0  0
  143.7485   70.7965  220.6403 H   0  0  0  0  0  0  0  0  0  0  0  0
  146.2456   71.4856  219.9138 H   0  0  0  0  0  0  0  0  0  0  0  0
  146.1996   74.1638  219.5909 H   0  0  0  0  0  0  0  0  0  0  0  0
  139.1533   70.3529  221.6989 H   0  0  0  0  0  0  0  0  0  0  0  0
  139.1292   68.6787  223.5202 H   0  0  0  0  0  0  0  0  0  0  0  0
  139.6756   68.1628  225.8912 H   0  0  0  0  0  0  0  0  0  0  0  0
  141.4849   71.1884  228.3587 H   0  0  0  0  0  0  0  0  0  0  0  0
  141.4427   72.7677  226.4256 H   0  0  0  0  0  0  0  0  0  0  0  0
  1  2  2  0
  2  3  1  0
  3  4  1  0
  4  5  1  0
  5  6  2  0
  5  7  1  0
  7  8  1  0
  8  9  1  0
  9 10  1  0
  9 11  1  0
 11 12  1  0
 12 13  1  0
 13 14  1  0
 14 15  1  0
 15 16  2  0
 16 17  1  0
 17 18  2  0
  2 19  1  0
 19 20  2  0
 20 21  1  0
 21 22  2  0
 22 23  1  0
 23 24  2  0
 24 25  1  0
 24 26  1  0
 26 27  2  0
 27 28  1  0
 28 29  2  0
 12  7  1  0
 18 14  1  0
 29 19  1  0
 28 22  1  0
  3 30  1  0
  4 31  1  0
  4 32  1  0
  8 33  1  0
  8 34  1  0
  9 35  1  1
 10 36  1  0
 11 37  1  0
 11 38  1  0
 12 39  1  6
 13 40  1  0
 13 41  1  0
 15 42  1  0
 16 43  1  0
 17 44  1  0
 18 45  1  0
 20 46  1  0
 21 47  1  0
 23 48  1  0
 26 49  1  0
 27 50  1  0
M  END
>  <smiles>  (50) 
O=C(NCC(=O)N1C[C@H](O)C[C@H]1Cn1cccc1)c1ccc2cc(Cl)ccc2n1

>  <score_type>  (50) 
oracle

>  <origin>  (50) 
autodockgpu

>  <m_score__min__energy>  (50) 
-8.1199999999999992

>  <m_primary>  (50) 
energy

>  <rmsd>  (50) 
4.351618160416624

>  <m_score__min__rmsd>  (50) 
4.351618160416624

>  <meeko>  (50) 
{"free_energy": -8.03, "intermolecular_energy": -10.12, "internal_energy": -1.85, "cluster_size": 11, "cluster_id": 1, "rank_in_cluster": 4}

>  <energy>  (50) 
-6.59

>  <cluster_rmsd>  (50) 
0.0

>  <cluster>  (50) 
8

$$$$
