
     RDKit          3D

 55 59  0  0  0  0  0  0  0  0999 V2000
  138.8340   75.2740  221.8840 O   0  0  0  0  0  0  0  0  0  0  0  0
  139.9890   75.7680  222.0500 C   0  0  0  0  0  0  0  0  0  0  0  0
  141.1150   74.8870  221.8160 N   0  0  0  0  0  0  0  0  0  0  0  0
  140.7950   73.5590  221.4230 C   0  0  0  0  0  0  0  0  0  0  0  0
  141.8910   72.7640  220.8930 C   0  0  0  0  0  0  0  0  0  0  0  0
  141.8120   71.5010  221.2080 O   0  0  0  0  0  0  0  0  0  0  0  0
  143.0130   73.1050  220.1070 N   0  0  0  0  0  0  0  0  0  0  0  0
  143.5470   72.5070  218.8950 C   0  0  0  0  0  0  0  0  0  0  0  0
  144.8700   73.2680  218.6600 C   0  0  0  0  0  0  0  0  0  0  0  0
  145.2160   73.7930  220.0530 C   0  0  0  0  0  0  0  0  0  0  0  0
  143.8470   74.2660  220.4810 C   0  0  1  0  0  0  0  0  0  0  0  0
  143.4200   75.4810  219.7810 C   0  0  0  0  0  0  0  0  0  0  0  0
  142.5670   76.4480  220.2170 N   0  0  0  0  0  0  0  0  0  0  0  0
  142.4370   77.3880  219.2890 C   0  0  0  0  0  0  0  0  0  0  0  0
  141.6200   78.6010  219.3440 C   0  0  0  0  0  0  0  0  0  0  0  0
  140.2450   78.5060  219.4190 C   0  0  0  0  0  0  0  0  0  0  0  0
  139.4890   79.6590  219.4710 C   0  0  0  0  0  0  0  0  0  0  0  0
  140.0830   80.9160  219.4480 C   0  0  0  0  0  0  0  0  0  0  0  0
  141.4580   81.0030  219.3720 C   0  0  0  0  0  0  0  0  0  0  0  0
  142.2050   79.8430  219.3210 C   0  0  0  0  0  0  0  0  0  0  0  0
  143.2310   77.0150  218.2230 C   0  0  0  0  0  0  0  0  0  0  0  0
  143.8160   75.8500  218.5570 N   0  0  0  0  0  0  0  0  0  0  0  0
  140.1830   77.1450  222.4540 C   0  0  0  0  0  0  0  0  0  0  0  0
  139.0920   77.9170  222.7030 C   0  0  0  0  0  0  0  0  0  0  0  0
  139.2040   79.2470  223.0950 C   0  0  0  0  0  0  0  0  0  0  0  0
  140.4830   79.7680  223.2250 C   0  0  0  0  0  0  0  0  0  0  0  0
  140.6020   81.0780  223.6100 C   0  0  0  0  0  0  0  0  0  0  0  0
  141.8580   81.6190  223.7470 C   0  0  0  0  0  0  0  0  0  0  0  0
  142.9720   80.8270  223.4900 C   0  0  0  0  0  0  0  0  0  0  0  0
  142.8510   79.5060  223.1000 C   0  0  0  0  0  0  0  0  0  0  0  0
  141.5800   78.9750  222.9690 C   0  0  0  0  0  0  0  0  0  0  0  0
  141.4110   77.6830  222.5890 N   0  0  0  0  0  0  0  0  0  0  0  0
  142.0290   75.3280  221.9690 H   0  0  0  0  0  0  0  0  0  0  0  0
  140.3962   73.0352  222.3043 H   0  0  0  0  0  0  0  0  0  0  0  0
  140.0789   73.6620  220.5944 H   0  0  0  0  0  0  0  0  0  0  0  0
  143.7332   71.4323  219.0376 H   0  0  0  0  0  0  0  0  0  0  0  0
  142.8555   72.5833  218.0429 H   0  0  0  0  0  0  0  0  0  0  0  0
  145.6536   72.5927  218.2860 H   0  0  0  0  0  0  0  0  0  0  0  0
  144.7845   74.0638  217.9055 H   0  0  0  0  0  0  0  0  0  0  0  0
  145.6001   72.9977  220.7087 H   0  0  0  0  0  0  0  0  0  0  0  0
  146.0087   74.5550  220.0853 H   0  0  0  0  0  0  0  0  0  0  0  0
  143.7939   74.5487  221.5427 H   0  0  0  0  0  0  0  0  0  0  0  0
  139.7566   77.5205  219.4372 H   0  0  0  0  0  0  0  0  0  0  0  0
  138.3934   79.5822  219.5319 H   0  0  0  0  0  0  0  0  0  0  0  0
  139.4668   81.8262  219.4897 H   0  0  0  0  0  0  0  0  0  0  0  0
  141.9532   81.9850  219.3523 H   0  0  0  0  0  0  0  0  0  0  0  0
  143.3009   79.9159  219.2602 H   0  0  0  0  0  0  0  0  0  0  0  0
  143.3608   77.5656  217.2796 H   0  0  0  0  0  0  0  0  0  0  0  0
  144.4720   75.3540  217.9130 H   0  0  0  0  0  0  0  0  0  0  0  0
  138.0903   77.4766  222.5911 H   0  0  0  0  0  0  0  0  0  0  0  0
  138.3135   79.8613  223.2940 H   0  0  0  0  0  0  0  0  0  0  0  0
  139.7069   81.6865  223.8062 H   0  0  0  0  0  0  0  0  0  0  0  0
  141.9809   82.6674  224.0566 H   0  0  0  0  0  0  0  0  0  0  0  0
  143.9759   81.2631  223.5999 H   0  0  0  0  0  0  0  0  0  0  0  0
  143.7421   78.8931  222.8991 H   0  0  0  0  0  0  0  0  0  0  0  0
  1  2  2  0
  2  3  1  0
  3  4  1  0
  4  5  1  0
  5  6  2  0
  5  7  1  0
  7  8  1  0
  8  9  1  0
  9 10  1  0
 10 11  1  0
 11 12  1  0
 12 13  2  0
 13 14  1  0
 14 15  1  0
 15 16  2  0
 16 17  1  0
 17 18  2  0
 18 19  1  0
 19 20  2  0
 14 21  2  0
 21 22  1  0
  2 23  1  0
 23 24  2  0
 24 25  1  0
 25 26  2  0
 26 27  1  0
 27 28  2  0
 28 29  1  0
 29 30  2  0
 30 31  1  0
 31 32  2  0
 11  7  1  0
 22 12  1  0
 32 23  1  0
 20 15  1  0
 31 26  1  0
  3 33  1  0
  4 34  1  0
  4 35  1  0
  8 36  1  0
  8 37  1  0
  9 38  1  0
  9 39  1  0
 10 40  1  0
 10 41  1  0
 11 42  1  1
 16 43  1  0
 17 44  1  0
 18 45  1  0
 19 46  1  0
 20 47  1  0
 21 48  1  0
 22 49  1  0
 24 50  1  0
 25 51  1  0
 27 52  1  0
 28 53  1  0
 29 54  1  0
 30 55  1  0
M  END
>  <smiles>  (1) 
O=C(NCC(=O)N1CCC[C@H]1c1nc(-c2ccccc2)c[nH]1)c1ccc2ccccc2n1

>  <score_type>  (1) 
oracle

>  <origin>  (1) 
autodockgpu

>  <m_score__min__energy>  (1) 
-9.4399999999999995

>  <m_primary>  (1) 
energy

>  <rmsd>  (1) 
6.867329302445035

>  <m_score__min__rmsd>  (1) 
6.867329302445035

>  <meeko>  (1) 
{"free_energy": -7.73, "intermolecular_energy": -9.52, "internal_energy": -4.07, "cluster_size": 20, "cluster_id": 4, "rank_in_cluster": 8}

>  <energy>  (1) 
-9.44

>  <cluster_rmsd>  (1) 
0.0

>  <cluster>  (1) 
1

$$$$

     RDKit          3D

 55 59  0  0  0  0  0  0  0  0999 V2000
  138.8550   75.2680  221.9250 O   0  0  0  0  0  0  0  0  0  0  0  0
  140.0090   75.7830  222.0250 C   0  0  0  0  0  0  0  0  0  0  0  0
  141.1340   74.9210  221.7220 N   0  0  0  0  0  0  0  0  0  0  0  0
  140.8150   73.5890  221.3440 C   0  0  0  0  0  0  0  0  0  0  0  0
  141.9380   72.7310  221.0030 C   0  0  0  0  0  0  0  0  0  0  0  0
  141.9080   71.5760  221.6080 O   0  0  0  0  0  0  0  0  0  0  0  0
  143.0440   72.9160  220.1450 N   0  0  0  0  0  0  0  0  0  0  0  0
  143.4570   72.1990  218.9510 C   0  0  0  0  0  0  0  0  0  0  0  0
  144.8300   72.8160  218.6060 C   0  0  0  0  0  0  0  0  0  0  0  0
  145.2960   73.3890  219.9440 C   0  0  0  0  0  0  0  0  0  0  0  0
  144.0000   74.0140  220.4050 C   0  0  1  0  0  0  0  0  0  0  0  0
  143.6500   75.2200  219.6480 C   0  0  0  0  0  0  0  0  0  0  0  0
  142.8610   76.2590  220.0380 N   0  0  0  0  0  0  0  0  0  0  0  0
  142.7890   77.1610  219.0660 C   0  0  0  0  0  0  0  0  0  0  0  0
  142.0520   78.4250  219.0650 C   0  0  0  0  0  0  0  0  0  0  0  0
  140.7790   78.4840  219.5940 C   0  0  0  0  0  0  0  0  0  0  0  0
  140.0970   79.6830  219.5850 C   0  0  0  0  0  0  0  0  0  0  0  0
  140.6660   80.8360  219.0520 C   0  0  0  0  0  0  0  0  0  0  0  0
  141.9380   80.7680  218.5240 C   0  0  0  0  0  0  0  0  0  0  0  0
  142.6120   79.5630  218.5380 C   0  0  0  0  0  0  0  0  0  0  0  0
  143.5550   76.6880  218.0200 C   0  0  0  0  0  0  0  0  0  0  0  0
  144.0650   75.5050  218.4080 N   0  0  0  0  0  0  0  0  0  0  0  0
  140.2020   77.1610  222.4220 C   0  0  0  0  0  0  0  0  0  0  0  0
  139.1110   77.9340  222.6690 C   0  0  0  0  0  0  0  0  0  0  0  0
  139.2230   79.2650  223.0540 C   0  0  0  0  0  0  0  0  0  0  0  0
  140.5010   79.7880  223.1800 C   0  0  0  0  0  0  0  0  0  0  0  0
  140.6200   81.1000  223.5590 C   0  0  0  0  0  0  0  0  0  0  0  0
  141.8760   81.6430  223.6930 C   0  0  0  0  0  0  0  0  0  0  0  0
  142.9900   80.8500  223.4380 C   0  0  0  0  0  0  0  0  0  0  0  0
  142.8700   79.5270  223.0560 C   0  0  0  0  0  0  0  0  0  0  0  0
  141.5980   78.9950  222.9280 C   0  0  0  0  0  0  0  0  0  0  0  0
  141.4300   77.7010  222.5540 N   0  0  0  0  0  0  0  0  0  0  0  0
  142.0480   75.3790  221.8230 H   0  0  0  0  0  0  0  0  0  0  0  0
  140.2785   73.1217  222.1829 H   0  0  0  0  0  0  0  0  0  0  0  0
  140.2232   73.6791  220.4211 H   0  0  0  0  0  0  0  0  0  0  0  0
  143.5514   71.1220  219.1538 H   0  0  0  0  0  0  0  0  0  0  0  0
  142.7318   72.2893  218.1289 H   0  0  0  0  0  0  0  0  0  0  0  0
  145.5277   72.0482  218.2403 H   0  0  0  0  0  0  0  0  0  0  0  0
  144.7777   73.5697  217.8065 H   0  0  0  0  0  0  0  0  0  0  0  0
  145.6405   72.6020  220.6310 H   0  0  0  0  0  0  0  0  0  0  0  0
  146.1553   74.0735  219.8892 H   0  0  0  0  0  0  0  0  0  0  0  0
  144.0286   74.3629  221.4478 H   0  0  0  0  0  0  0  0  0  0  0  0
  140.3123   77.5832  220.0190 H   0  0  0  0  0  0  0  0  0  0  0  0
  139.0825   79.7288  220.0078 H   0  0  0  0  0  0  0  0  0  0  0  0
  140.1104   81.7854  219.0520 H   0  0  0  0  0  0  0  0  0  0  0  0
  142.4108   81.6643  218.0961 H   0  0  0  0  0  0  0  0  0  0  0  0
  143.6262   79.5130  218.1151 H   0  0  0  0  0  0  0  0  0  0  0  0
  143.7178   77.1844  217.0520 H   0  0  0  0  0  0  0  0  0  0  0  0
  144.6860   74.9380  217.7890 H   0  0  0  0  0  0  0  0  0  0  0  0
  138.1092   77.4927  222.5609 H   0  0  0  0  0  0  0  0  0  0  0  0
  138.3323   79.8796  223.2511 H   0  0  0  0  0  0  0  0  0  0  0  0
  139.7246   81.7088  223.7529 H   0  0  0  0  0  0  0  0  0  0  0  0
  141.9985   82.6926  223.9984 H   0  0  0  0  0  0  0  0  0  0  0  0
  143.9937   81.2876  223.5432 H   0  0  0  0  0  0  0  0  0  0  0  0
  143.7612   78.9131  222.8589 H   0  0  0  0  0  0  0  0  0  0  0  0
  1  2  2  0
  2  3  1  0
  3  4  1  0
  4  5  1  0
  5  6  2  0
  5  7  1  0
  7  8  1  0
  8  9  1  0
  9 10  1  0
 10 11  1  0
 11 12  1  0
 12 13  2  0
 13 14  1  0
 14 15  1  0
 15 16  2  0
 16 17  1  0
 17 18  2  0
 18 19  1  0
 19 20  2  0
 14 21  2  0
 21 22  1  0
  2 23  1  0
 23 24  2  0
 24 25  1  0
 25 26  2  0
 26 27  1  0
 27 28  2  0
 28 29  1  0
 29 30  2  0
 30 31  1  0
 31 32  2  0
 11  7  1  0
 22 12  1  0
 32 23  1  0
 20 15  1  0
 31 26  1  0
  3 33  1  0
  4 34  1  0
  4 35  1  0
  8 36  1  0
  8 37  1  0
  9 38  1  0
  9 39  1  0
 10 40  1  0
 10 41  1  0
 11 42  1  1
 16 43  1  0
 17 44  1  0
 18 45  1  0
 19 46  1  0
 20 47  1  0
 21 48  1  0
 22 49  1  0
 24 50  1  0
 25 51  1  0
 27 52  1  0
 28 53  1  0
 29 54  1  0
 30 55  1  0
M  END
>  <smiles>  (2) 
O=C(NCC(=O)N1CCC[C@H]1c1nc(-c2ccccc2)c[nH]1)c1ccc2ccccc2n1

>  <score_type>  (2) 
oracle

>  <origin>  (2) 
autodockgpu

>  <m_score__min__energy>  (2) 
-9.4399999999999995

>  <m_primary>  (2) 
energy

>  <rmsd>  (2) 
6.977190743267498

>  <m_score__min__rmsd>  (2) 
6.977190743267498

>  <meeko>  (2) 
{"free_energy": -7.7, "intermolecular_energy": -9.49, "internal_energy": -3.83, "cluster_size": 20, "cluster_id": 4, "rank_in_cluster": 9}

>  <energy>  (2) 
-9.29

>  <cluster_rmsd>  (2) 
0.0

>  <cluster>  (2) 
2

$$$$

     RDKit          3D

 55 59  0  0  0  0  0  0  0  0999 V2000
  138.8560   75.1550  221.9740 O   0  0  0  0  0  0  0  0  0  0  0  0
  140.0120   75.6720  222.0420 C   0  0  0  0  0  0  0  0  0  0  0  0
  141.1330   74.8000  221.7570 N   0  0  0  0  0  0  0  0  0  0  0  0
  140.8090   73.4550  221.4310 C   0  0  0  0  0  0  0  0  0  0  0  0
  141.7830   72.7370  220.6250 C   0  0  0  0  0  0  0  0  0  0  0  0
  141.4800   71.4810  220.4470 O   0  0  0  0  0  0  0  0  0  0  0  0
  142.9840   73.1460  220.0060 N   0  0  0  0  0  0  0  0  0  0  0  0
  143.6990   72.6090  218.8610 C   0  0  0  0  0  0  0  0  0  0  0  0
  145.0080   73.4270  218.8250 C   0  0  0  0  0  0  0  0  0  0  0  0
  145.1450   73.9180  220.2660 C   0  0  0  0  0  0  0  0  0  0  0  0
  143.7120   74.3250  220.5210 C   0  0  1  0  0  0  0  0  0  0  0  0
  143.3320   75.5460  219.8040 C   0  0  0  0  0  0  0  0  0  0  0  0
  142.4770   76.5260  220.2060 N   0  0  0  0  0  0  0  0  0  0  0  0
  142.3970   77.4670  219.2730 C   0  0  0  0  0  0  0  0  0  0  0  0
  141.5990   78.6930  219.2970 C   0  0  0  0  0  0  0  0  0  0  0  0
  142.2210   79.9240  219.3180 C   0  0  0  0  0  0  0  0  0  0  0  0
  141.4540   81.0700  219.3400 C   0  0  0  0  0  0  0  0  0  0  0  0
  140.0640   81.0120  219.3430 C   0  0  0  0  0  0  0  0  0  0  0  0
  139.4490   79.7770  219.3230 C   0  0  0  0  0  0  0  0  0  0  0  0
  140.2270   78.6360  219.3010 C   0  0  0  0  0  0  0  0  0  0  0  0
  143.2260   77.0800  218.2390 C   0  0  0  0  0  0  0  0  0  0  0  0
  143.7790   75.9060  218.5960 N   0  0  0  0  0  0  0  0  0  0  0  0
  140.2090   77.0640  222.3870 C   0  0  0  0  0  0  0  0  0  0  0  0
  139.1210   77.8650  222.5390 C   0  0  0  0  0  0  0  0  0  0  0  0
  139.2380   79.2110  222.8710 C   0  0  0  0  0  0  0  0  0  0  0  0
  140.5180   79.7180  223.0420 C   0  0  0  0  0  0  0  0  0  0  0  0
  140.6410   81.0430  223.3680 C   0  0  0  0  0  0  0  0  0  0  0  0
  141.8980   81.5700  223.5440 C   0  0  0  0  0  0  0  0  0  0  0  0
  143.0090   80.7480  223.3860 C   0  0  0  0  0  0  0  0  0  0  0  0
  142.8840   79.4110  223.0570 C   0  0  0  0  0  0  0  0  0  0  0  0
  141.6110   78.8950  222.8840 C   0  0  0  0  0  0  0  0  0  0  0  0
  141.4390   77.5890  222.5610 N   0  0  0  0  0  0  0  0  0  0  0  0
  142.0470   75.2600  221.8310 H   0  0  0  0  0  0  0  0  0  0  0  0
  140.6811   72.9027  222.3737 H   0  0  0  0  0  0  0  0  0  0  0  0
  139.9009   73.5127  220.8129 H   0  0  0  0  0  0  0  0  0  0  0  0
  143.9101   71.5382  218.9982 H   0  0  0  0  0  0  0  0  0  0  0  0
  143.1238   72.6868  217.9266 H   0  0  0  0  0  0  0  0  0  0  0  0
  145.8618   72.7948  218.5397 H   0  0  0  0  0  0  0  0  0  0  0  0
  144.9892   74.2436  218.0883 H   0  0  0  0  0  0  0  0  0  0  0  0
  145.4720   73.1163  220.9445 H   0  0  0  0  0  0  0  0  0  0  0  0
  145.8941   74.7077  220.4250 H   0  0  0  0  0  0  0  0  0  0  0  0
  143.5065   74.5698  221.5735 H   0  0  0  0  0  0  0  0  0  0  0  0
  143.3189   79.9910  219.3172 H   0  0  0  0  0  0  0  0  0  0  0  0
  141.9519   82.0508  219.3555 H   0  0  0  0  0  0  0  0  0  0  0  0
  139.4656   81.9348  219.3610 H   0  0  0  0  0  0  0  0  0  0  0  0
  138.3516   79.7020  219.3246 H   0  0  0  0  0  0  0  0  0  0  0  0
  139.7333   77.6531  219.2862 H   0  0  0  0  0  0  0  0  0  0  0  0
  143.4013   77.6274  217.3011 H   0  0  0  0  0  0  0  0  0  0  0  0
  144.4510   75.3990  217.9780 H   0  0  0  0  0  0  0  0  0  0  0  0
  138.1183   77.4361  222.3952 H   0  0  0  0  0  0  0  0  0  0  0  0
  138.3500   79.8485  222.9932 H   0  0  0  0  0  0  0  0  0  0  0  0
  139.7483   81.6746  223.4869 H   0  0  0  0  0  0  0  0  0  0  0  0
  142.0242   82.6306  223.8070 H   0  0  0  0  0  0  0  0  0  0  0  0
  144.0138   81.1731  223.5266 H   0  0  0  0  0  0  0  0  0  0  0  0
  143.7726   78.7740  222.9359 H   0  0  0  0  0  0  0  0  0  0  0  0
  1  2  2  0
  2  3  1  0
  3  4  1  0
  4  5  1  0
  5  6  2  0
  5  7  1  0
  7  8  1  0
  8  9  1  0
  9 10  1  0
 10 11  1  0
 11 12  1  0
 12 13  2  0
 13 14  1  0
 14 15  1  0
 15 16  2  0
 16 17  1  0
 17 18  2  0
 18 19  1  0
 19 20  2  0
 14 21  2  0
 21 22  1  0
  2 23  1  0
 23 24  2  0
 24 25  1  0
 25 26  2  0
 26 27  1  0
 27 28  2  0
 28 29  1  0
 29 30  2  0
 30 31  1  0
 31 32  2  0
 11  7  1  0
 22 12  1  0
 32 23  1  0
 20 15  1  0
 31 26  1  0
  3 33  1  0
  4 34  1  0
  4 35  1  0
  8 36  1  0
  8 37  1  0
  9 38  1  0
  9 39  1  0
 10 40  1  0
 10 41  1  0
 11 42  1  1
 16 43  1  0
 17 44  1  0
 18 45  1  0
 19 46  1  0
 20 47  1  0
 21 48  1  0
 22 49  1  0
 24 50  1  0
 25 51  1  0
 27 52  1  0
 28 53  1  0
 29 54  1  0
 30 55  1  0
M  END
>  <smiles>  (3) 
O=C(NCC(=O)N1CCC[C@H]1c1nc(-c2ccccc2)c[nH]1)c1ccc2ccccc2n1

>  <score_type>  (3) 
oracle

>  <origin>  (3) 
autodockgpu

>  <m_score__min__energy>  (3) 
-9.4399999999999995

>  <m_primary>  (3) 
energy

>  <rmsd>  (3) 
6.9270632304519495

>  <m_score__min__rmsd>  (3) 
6.9270632304519495

>  <meeko>  (3) 
{"free_energy": -7.57, "intermolecular_energy": -9.36, "internal_energy": -3.99, "cluster_size": 20, "cluster_id": 4, "rank_in_cluster": 12}

>  <energy>  (3) 
-9.27

>  <cluster_rmsd>  (3) 
0.63

>  <cluster>  (3) 
2

$$$$

     RDKit          3D

 55 59  0  0  0  0  0  0  0  0999 V2000
  138.9310   75.1440  222.0480 O   0  0  0  0  0  0  0  0  0  0  0  0
  140.0630   75.7150  222.0410 C   0  0  0  0  0  0  0  0  0  0  0  0
  141.1940   74.9130  221.6190 N   0  0  0  0  0  0  0  0  0  0  0  0
  140.9050   73.5700  221.2570 C   0  0  0  0  0  0  0  0  0  0  0  0
  142.0270   72.7760  220.7830 C   0  0  0  0  0  0  0  0  0  0  0  0
  141.8720   71.4950  220.9740 O   0  0  0  0  0  0  0  0  0  0  0  0
  143.2420   73.1330  220.1590 N   0  0  0  0  0  0  0  0  0  0  0  0
  143.9960   72.4900  219.0970 C   0  0  0  0  0  0  0  0  0  0  0  0
  145.2980   73.3170  219.0140 C   0  0  0  0  0  0  0  0  0  0  0  0
  145.3860   73.9560  220.3990 C   0  0  0  0  0  0  0  0  0  0  0  0
  143.9430   74.3690  220.5690 C   0  0  1  0  0  0  0  0  0  0  0  0
  143.5720   75.5040  219.7190 C   0  0  0  0  0  0  0  0  0  0  0  0
  142.9440   76.6560  220.0800 N   0  0  0  0  0  0  0  0  0  0  0  0
  142.7870   77.4370  219.0170 C   0  0  0  0  0  0  0  0  0  0  0  0
  142.1640   78.7600  218.9570 C   0  0  0  0  0  0  0  0  0  0  0  0
  141.0040   79.0110  219.6630 C   0  0  0  0  0  0  0  0  0  0  0  0
  140.4290   80.2630  219.5950 C   0  0  0  0  0  0  0  0  0  0  0  0
  140.9930   81.2790  218.8300 C   0  0  0  0  0  0  0  0  0  0  0  0
  142.1510   81.0200  218.1270 C   0  0  0  0  0  0  0  0  0  0  0  0
  142.7180   79.7630  218.2020 C   0  0  0  0  0  0  0  0  0  0  0  0
  143.3300   76.7660  217.9400 C   0  0  0  0  0  0  0  0  0  0  0  0
  143.7990   75.5930  218.4030 N   0  0  0  0  0  0  0  0  0  0  0  0
  140.2270   77.0980  222.4350 C   0  0  0  0  0  0  0  0  0  0  0  0
  139.1190   77.8480  222.6790 C   0  0  0  0  0  0  0  0  0  0  0  0
  139.2020   79.1820  223.0610 C   0  0  0  0  0  0  0  0  0  0  0  0
  140.4690   79.7330  223.1860 C   0  0  0  0  0  0  0  0  0  0  0  0
  140.5600   81.0480  223.5620 C   0  0  0  0  0  0  0  0  0  0  0  0
  141.8030   81.6180  223.6940 C   0  0  0  0  0  0  0  0  0  0  0  0
  142.9340   80.8480  223.4420 C   0  0  0  0  0  0  0  0  0  0  0  0
  142.8430   79.5220  223.0620 C   0  0  0  0  0  0  0  0  0  0  0  0
  141.5830   78.9620  222.9360 C   0  0  0  0  0  0  0  0  0  0  0  0
  141.4430   77.6640  222.5650 N   0  0  0  0  0  0  0  0  0  0  0  0
  142.0890   75.4150  221.6350 H   0  0  0  0  0  0  0  0  0  0  0  0
  140.4879   73.0666  222.1416 H   0  0  0  0  0  0  0  0  0  0  0  0
  140.2124   73.6379  220.4051 H   0  0  0  0  0  0  0  0  0  0  0  0
  144.2134   71.4419  219.3504 H   0  0  0  0  0  0  0  0  0  0  0  0
  143.4483   72.4635  218.1434 H   0  0  0  0  0  0  0  0  0  0  0  0
  146.1662   72.6697  218.8210 H   0  0  0  0  0  0  0  0  0  0  0  0
  145.2938   74.0524  218.1960 H   0  0  0  0  0  0  0  0  0  0  0  0
  145.7000   73.2330  221.1663 H   0  0  0  0  0  0  0  0  0  0  0  0
  146.1221   74.7676  220.4966 H   0  0  0  0  0  0  0  0  0  0  0  0
  143.7041   74.7194  221.5840 H   0  0  0  0  0  0  0  0  0  0  0  0
  140.5431   78.2205  220.2735 H   0  0  0  0  0  0  0  0  0  0  0  0
  139.5050   80.4623  220.1575 H   0  0  0  0  0  0  0  0  0  0  0  0
  140.5231   82.2726  218.7865 H   0  0  0  0  0  0  0  0  0  0  0  0
  142.6174   81.8053  217.5139 H   0  0  0  0  0  0  0  0  0  0  0  0
  143.6413   79.5597  217.6397 H   0  0  0  0  0  0  0  0  0  0  0  0
  143.3715   77.1226  216.9002 H   0  0  0  0  0  0  0  0  0  0  0  0
  144.2630   74.8960  217.7780 H   0  0  0  0  0  0  0  0  0  0  0  0
  138.1271   77.3849  222.5708 H   0  0  0  0  0  0  0  0  0  0  0  0
  138.2981   79.7776  223.2566 H   0  0  0  0  0  0  0  0  0  0  0  0
  139.6518   81.6378  223.7551 H   0  0  0  0  0  0  0  0  0  0  0  0
  141.9029   82.6711  223.9955 H   0  0  0  0  0  0  0  0  0  0  0  0
  143.9280   81.3070  223.5481 H   0  0  0  0  0  0  0  0  0  0  0  0
  143.7474   78.9277  222.8650 H   0  0  0  0  0  0  0  0  0  0  0  0
  1  2  2  0
  2  3  1  0
  3  4  1  0
  4  5  1  0
  5  6  2  0
  5  7  1  0
  7  8  1  0
  8  9  1  0
  9 10  1  0
 10 11  1  0
 11 12  1  0
 12 13  2  0
 13 14  1  0
 14 15  1  0
 15 16  2  0
 16 17  1  0
 17 18  2  0
 18 19  1  0
 19 20  2  0
 14 21  2  0
 21 22  1  0
  2 23  1  0
 23 24  2  0
 24 25  1  0
 25 26  2  0
 26 27  1  0
 27 28  2  0
 28 29  1  0
 29 30  2  0
 30 31  1  0
 31 32  2  0
 11  7  1  0
 22 12  1  0
 32 23  1  0
 20 15  1  0
 31 26  1  0
  3 33  1  0
  4 34  1  0
  4 35  1  0
  8 36  1  0
  8 37  1  0
  9 38  1  0
  9 39  1  0
 10 40  1  0
 10 41  1  0
 11 42  1  1
 16 43  1  0
 17 44  1  0
 18 45  1  0
 19 46  1  0
 20 47  1  0
 21 48  1  0
 22 49  1  0
 24 50  1  0
 25 51  1  0
 27 52  1  0
 28 53  1  0
 29 54  1  0
 30 55  1  0
M  END
>  <smiles>  (4) 
O=C(NCC(=O)N1CCC[C@H]1c1nc(-c2ccccc2)c[nH]1)c1ccc2ccccc2n1

>  <score_type>  (4) 
oracle

>  <origin>  (4) 
autodockgpu

>  <m_score__min__energy>  (4) 
-9.4399999999999995

>  <m_primary>  (4) 
energy

>  <rmsd>  (4) 
6.971796589254555

>  <m_score__min__rmsd>  (4) 
6.971796589254555

>  <meeko>  (4) 
{"free_energy": -7.99, "intermolecular_energy": -9.78, "internal_energy": -3.72, "cluster_size": 20, "cluster_id": 4, "rank_in_cluster": 4}

>  <energy>  (4) 
-9.14

>  <cluster_rmsd>  (4) 
0.71

>  <cluster>  (4) 
2

$$$$

     RDKit          3D

 55 59  0  0  0  0  0  0  0  0999 V2000
  138.8730   75.1400  222.2540 O   0  0  0  0  0  0  0  0  0  0  0  0
  140.0140   75.6910  222.2330 C   0  0  0  0  0  0  0  0  0  0  0  0
  141.1380   74.8480  221.8800 N   0  0  0  0  0  0  0  0  0  0  0  0
  140.8330   73.4900  221.5950 C   0  0  0  0  0  0  0  0  0  0  0  0
  141.2820   72.9870  220.3070 C   0  0  0  0  0  0  0  0  0  0  0  0
  140.4890   72.0850  219.7990 O   0  0  0  0  0  0  0  0  0  0  0  0
  142.4080   73.2940  219.5110 N   0  0  0  0  0  0  0  0  0  0  0  0
  142.8010   72.8290  218.1930 C   0  0  0  0  0  0  0  0  0  0  0  0
  144.2080   73.4330  217.9920 C   0  0  0  0  0  0  0  0  0  0  0  0
  144.6830   73.6800  219.4230 C   0  0  0  0  0  0  0  0  0  0  0  0
  143.4140   74.2590  220.0030 C   0  0  1  0  0  0  0  0  0  0  0  0
  143.1350   75.6160  219.5220 C   0  0  0  0  0  0  0  0  0  0  0  0
  142.2570   76.5240  220.0280 N   0  0  0  0  0  0  0  0  0  0  0  0
  142.2980   77.6410  219.3100 C   0  0  0  0  0  0  0  0  0  0  0  0
  141.5210   78.8650  219.5050 C   0  0  0  0  0  0  0  0  0  0  0  0
  140.1420   78.8130  219.5280 C   0  0  0  0  0  0  0  0  0  0  0  0
  139.4230   79.9760  219.7120 C   0  0  0  0  0  0  0  0  0  0  0  0
  140.0600   81.2020  219.8750 C   0  0  0  0  0  0  0  0  0  0  0  0
  141.4380   81.2460  219.8500 C   0  0  0  0  0  0  0  0  0  0  0  0
  142.1470   80.0760  219.6640 C   0  0  0  0  0  0  0  0  0  0  0  0
  143.2310   77.4440  218.3120 C   0  0  0  0  0  0  0  0  0  0  0  0
  143.7210   76.2010  218.4710 N   0  0  0  0  0  0  0  0  0  0  0  0
  140.1940   77.0930  222.5450 C   0  0  0  0  0  0  0  0  0  0  0  0
  139.0950   77.8750  222.7160 C   0  0  0  0  0  0  0  0  0  0  0  0
  139.1940   79.2290  223.0180 C   0  0  0  0  0  0  0  0  0  0  0  0
  140.4680   79.7650  223.1390 C   0  0  0  0  0  0  0  0  0  0  0  0
  140.5740   81.0980  223.4360 C   0  0  0  0  0  0  0  0  0  0  0  0
  141.8240   81.6540  223.5630 C   0  0  0  0  0  0  0  0  0  0  0  0
  142.9460   80.8520  223.3860 C   0  0  0  0  0  0  0  0  0  0  0  0
  142.8390   79.5060  223.0870 C   0  0  0  0  0  0  0  0  0  0  0  0
  141.5720   78.9620  222.9640 C   0  0  0  0  0  0  0  0  0  0  0  0
  141.4170   77.6460  222.6700 N   0  0  0  0  0  0  0  0  0  0  0  0
  142.0420   75.3360  221.8820 H   0  0  0  0  0  0  0  0  0  0  0  0
  141.2967   72.8708  222.3771 H   0  0  0  0  0  0  0  0  0  0  0  0
  139.7348   73.4354  221.5652 H   0  0  0  0  0  0  0  0  0  0  0  0
  142.8382   71.7301  218.1604 H   0  0  0  0  0  0  0  0  0  0  0  0
  142.0928   73.1311  217.4073 H   0  0  0  0  0  0  0  0  0  0  0  0
  144.8711   72.7262  217.4717 H   0  0  0  0  0  0  0  0  0  0  0  0
  144.2053   74.3422  217.3729 H   0  0  0  0  0  0  0  0  0  0  0  0
  144.9769   72.7469  219.9259 H   0  0  0  0  0  0  0  0  0  0  0  0
  145.5768   74.3138  219.5196 H   0  0  0  0  0  0  0  0  0  0  0  0
  143.4462   74.3749  221.0964 H   0  0  0  0  0  0  0  0  0  0  0  0
  139.6208   77.8527  219.4007 H   0  0  0  0  0  0  0  0  0  0  0  0
  138.3240   79.9330  219.7302 H   0  0  0  0  0  0  0  0  0  0  0  0
  139.4740   82.1213  220.0214 H   0  0  0  0  0  0  0  0  0  0  0  0
  141.9664   82.2024  219.9768 H   0  0  0  0  0  0  0  0  0  0  0  0
  143.2461   80.1156  219.6426 H   0  0  0  0  0  0  0  0  0  0  0  0
  143.5193   78.1663  217.5341 H   0  0  0  0  0  0  0  0  0  0  0  0
  144.4510   75.8070  217.8360 H   0  0  0  0  0  0  0  0  0  0  0  0
  138.0975   77.4231  222.6124 H   0  0  0  0  0  0  0  0  0  0  0  0
  138.2971   79.8508  223.1556 H   0  0  0  0  0  0  0  0  0  0  0  0
  139.6725   81.7137  223.5707 H   0  0  0  0  0  0  0  0  0  0  0  0
  141.9359   82.7219  223.8021 H   0  0  0  0  0  0  0  0  0  0  0  0
  143.9455   81.3002  223.4865 H   0  0  0  0  0  0  0  0  0  0  0  0
  143.7363   78.8845  222.9506 H   0  0  0  0  0  0  0  0  0  0  0  0
  1  2  2  0
  2  3  1  0
  3  4  1  0
  4  5  1  0
  5  6  2  0
  5  7  1  0
  7  8  1  0
  8  9  1  0
  9 10  1  0
 10 11  1  0
 11 12  1  0
 12 13  2  0
 13 14  1  0
 14 15  1  0
 15 16  2  0
 16 17  1  0
 17 18  2  0
 18 19  1  0
 19 20  2  0
 14 21  2  0
 21 22  1  0
  2 23  1  0
 23 24  2  0
 24 25  1  0
 25 26  2  0
 26 27  1  0
 27 28  2  0
 28 29  1  0
 29 30  2  0
 30 31  1  0
 31 32  2  0
 11  7  1  0
 22 12  1  0
 32 23  1  0
 20 15  1  0
 31 26  1  0
  3 33  1  0
  4 34  1  0
  4 35  1  0
  8 36  1  0
  8 37  1  0
  9 38  1  0
  9 39  1  0
 10 40  1  0
 10 41  1  0
 11 42  1  1
 16 43  1  0
 17 44  1  0
 18 45  1  0
 19 46  1  0
 20 47  1  0
 21 48  1  0
 22 49  1  0
 24 50  1  0
 25 51  1  0
 27 52  1  0
 28 53  1  0
 29 54  1  0
 30 55  1  0
M  END
>  <smiles>  (5) 
O=C(NCC(=O)N1CCC[C@H]1c1nc(-c2ccccc2)c[nH]1)c1ccc2ccccc2n1

>  <score_type>  (5) 
oracle

>  <origin>  (5) 
autodockgpu

>  <m_score__min__energy>  (5) 
-9.4399999999999995

>  <m_primary>  (5) 
energy

>  <rmsd>  (5) 
6.731236379205225

>  <m_score__min__rmsd>  (5) 
6.731236379205225

>  <meeko>  (5) 
{"free_energy": -7.18, "intermolecular_energy": -8.97, "internal_energy": -4.23, "cluster_size": 20, "cluster_id": 4, "rank_in_cluster": 20}

>  <energy>  (5) 
-8.98

>  <cluster_rmsd>  (5) 
1.02

>  <cluster>  (5) 
2

$$$$

     RDKit          3D

 55 59  0  0  0  0  0  0  0  0999 V2000
  138.9180   75.1720  221.9330 O   0  0  0  0  0  0  0  0  0  0  0  0
  140.0590   75.7220  221.9910 C   0  0  0  0  0  0  0  0  0  0  0  0
  141.1960   74.9030  221.6240 N   0  0  0  0  0  0  0  0  0  0  0  0
  140.9030   73.5670  221.2390 C   0  0  0  0  0  0  0  0  0  0  0  0
  142.0390   72.7420  220.8610 C   0  0  0  0  0  0  0  0  0  0  0  0
  141.9180   71.4960  221.2250 O   0  0  0  0  0  0  0  0  0  0  0  0
  143.2390   73.0410  220.1780 N   0  0  0  0  0  0  0  0  0  0  0  0
  143.9070   72.3610  219.0810 C   0  0  0  0  0  0  0  0  0  0  0  0
  145.2420   73.1230  218.9340 C   0  0  0  0  0  0  0  0  0  0  0  0
  145.4300   73.7570  220.3120 C   0  0  0  0  0  0  0  0  0  0  0  0
  144.0180   74.2400  220.5510 C   0  0  1  0  0  0  0  0  0  0  0  0
  143.6620   75.3920  219.7170 C   0  0  0  0  0  0  0  0  0  0  0  0
  142.9780   76.5120  220.0770 N   0  0  0  0  0  0  0  0  0  0  0  0
  142.8590   77.3250  219.0340 C   0  0  0  0  0  0  0  0  0  0  0  0
  142.1990   78.6290  218.9790 C   0  0  0  0  0  0  0  0  0  0  0  0
  141.0310   78.8440  219.6830 C   0  0  0  0  0  0  0  0  0  0  0  0
  140.4210   80.0790  219.6210 C   0  0  0  0  0  0  0  0  0  0  0  0
  140.9580   81.1150  218.8640 C   0  0  0  0  0  0  0  0  0  0  0  0
  142.1250   80.8930  218.1630 C   0  0  0  0  0  0  0  0  0  0  0  0
  142.7270   79.6520  218.2310 C   0  0  0  0  0  0  0  0  0  0  0  0
  143.4850   76.7070  217.9690 C   0  0  0  0  0  0  0  0  0  0  0  0
  143.9630   75.5330  218.4210 N   0  0  0  0  0  0  0  0  0  0  0  0
  140.2260   77.1000  222.4020 C   0  0  0  0  0  0  0  0  0  0  0  0
  139.1200   77.8520  222.6460 C   0  0  0  0  0  0  0  0  0  0  0  0
  139.2070   79.1820  223.0440 C   0  0  0  0  0  0  0  0  0  0  0  0
  140.4750   79.7250  223.1850 C   0  0  0  0  0  0  0  0  0  0  0  0
  140.5690   81.0350  223.5770 C   0  0  0  0  0  0  0  0  0  0  0  0
  141.8140   81.5970  223.7260 C   0  0  0  0  0  0  0  0  0  0  0  0
  142.9430   80.8250  223.4740 C   0  0  0  0  0  0  0  0  0  0  0  0
  142.8480   79.5040  223.0790 C   0  0  0  0  0  0  0  0  0  0  0  0
  141.5870   78.9520  222.9350 C   0  0  0  0  0  0  0  0  0  0  0  0
  141.4440   77.6590  222.5490 N   0  0  0  0  0  0  0  0  0  0  0  0
  142.0980   75.3880  221.6920 H   0  0  0  0  0  0  0  0  0  0  0  0
  140.3997   73.0769  222.0855 H   0  0  0  0  0  0  0  0  0  0  0  0
  140.2869   73.6515  220.3317 H   0  0  0  0  0  0  0  0  0  0  0  0
  144.0843   71.3033  219.3254 H   0  0  0  0  0  0  0  0  0  0  0  0
  143.3128   72.3612  218.1553 H   0  0  0  0  0  0  0  0  0  0  0  0
  146.0668   72.4338  218.7001 H   0  0  0  0  0  0  0  0  0  0  0  0
  145.2333   73.8585  218.1161 H   0  0  0  0  0  0  0  0  0  0  0  0
  145.7456   73.0196  221.0647 H   0  0  0  0  0  0  0  0  0  0  0  0
  146.2090   74.5313  220.3718 H   0  0  0  0  0  0  0  0  0  0  0  0
  143.8461   74.6012  221.5757 H   0  0  0  0  0  0  0  0  0  0  0  0
  140.5911   78.0374  220.2879 H   0  0  0  0  0  0  0  0  0  0  0  0
  139.4901   80.2485  220.1820 H   0  0  0  0  0  0  0  0  0  0  0  0
  140.4602   82.0952  218.8250 H   0  0  0  0  0  0  0  0  0  0  0  0
  142.5710   81.6952  217.5568 H   0  0  0  0  0  0  0  0  0  0  0  0
  143.6567   79.4781  217.6694 H   0  0  0  0  0  0  0  0  0  0  0  0
  143.5756   77.0999  216.9456 H   0  0  0  0  0  0  0  0  0  0  0  0
  144.4840   74.8720  217.8030 H   0  0  0  0  0  0  0  0  0  0  0  0
  138.1267   77.3951  222.5251 H   0  0  0  0  0  0  0  0  0  0  0  0
  138.3046   79.7800  223.2394 H   0  0  0  0  0  0  0  0  0  0  0  0
  139.6621   81.6271  223.7693 H   0  0  0  0  0  0  0  0  0  0  0  0
  141.9166   82.6459  224.0411 H   0  0  0  0  0  0  0  0  0  0  0  0
  143.9384   81.2780  223.5923 H   0  0  0  0  0  0  0  0  0  0  0  0
  143.7511   78.9069  222.8841 H   0  0  0  0  0  0  0  0  0  0  0  0
  1  2  2  0
  2  3  1  0
  3  4  1  0
  4  5  1  0
  5  6  2  0
  5  7  1  0
  7  8  1  0
  8  9  1  0
  9 10  1  0
 10 11  1  0
 11 12  1  0
 12 13  2  0
 13 14  1  0
 14 15  1  0
 15 16  2  0
 16 17  1  0
 17 18  2  0
 18 19  1  0
 19 20  2  0
 14 21  2  0
 21 22  1  0
  2 23  1  0
 23 24  2  0
 24 25  1  0
 25 26  2  0
 26 27  1  0
 27 28  2  0
 28 29  1  0
 29 30  2  0
 30 31  1  0
 31 32  2  0
 11  7  1  0
 22 12  1  0
 32 23  1  0
 20 15  1  0
 31 26  1  0
  3 33  1  0
  4 34  1  0
  4 35  1  0
  8 36  1  0
  8 37  1  0
  9 38  1  0
  9 39  1  0
 10 40  1  0
 10 41  1  0
 11 42  1  1
 16 43  1  0
 17 44  1  0
 18 45  1  0
 19 46  1  0
 20 47  1  0
 21 48  1  0
 22 49  1  0
 24 50  1  0
 25 51  1  0
 27 52  1  0
 28 53  1  0
 29 54  1  0
 30 55  1  0
M  END
>  <smiles>  (6) 
O=C(NCC(=O)N1CCC[C@H]1c1nc(-c2ccccc2)c[nH]1)c1ccc2ccccc2n1

>  <score_type>  (6) 
oracle

>  <origin>  (6) 
autodockgpu

>  <m_score__min__energy>  (6) 
-9.4399999999999995

>  <m_primary>  (6) 
energy

>  <rmsd>  (6) 
6.982594927583987

>  <m_score__min__rmsd>  (6) 
6.982594927583987

>  <meeko>  (6) 
{"free_energy": -8.01, "intermolecular_energy": -9.8, "internal_energy": -3.72, "cluster_size": 20, "cluster_id": 4, "rank_in_cluster": 3}

>  <energy>  (6) 
-8.98

>  <cluster_rmsd>  (6) 
1.98

>  <cluster>  (6) 
2

$$$$

     RDKit          3D

 55 59  0  0  0  0  0  0  0  0999 V2000
  138.9440   75.0660  222.3340 O   0  0  0  0  0  0  0  0  0  0  0  0
  140.0580   75.6560  222.1970 C   0  0  0  0  0  0  0  0  0  0  0  0
  141.1600   74.8570  221.6980 N   0  0  0  0  0  0  0  0  0  0  0  0
  140.8640   73.4960  221.4160 C   0  0  0  0  0  0  0  0  0  0  0  0
  141.8000   72.8020  220.5450 C   0  0  0  0  0  0  0  0  0  0  0  0
  141.3790   71.6290  220.1640 O   0  0  0  0  0  0  0  0  0  0  0  0
  143.0690   73.1640  220.0410 N   0  0  0  0  0  0  0  0  0  0  0  0
  143.9020   72.5490  219.0220 C   0  0  0  0  0  0  0  0  0  0  0  0
  145.2170   73.3570  219.0830 C   0  0  0  0  0  0  0  0  0  0  0  0
  145.1960   73.9410  220.4950 C   0  0  0  0  0  0  0  0  0  0  0  0
  143.7490   74.3710  220.5580 C   0  0  1  0  0  0  0  0  0  0  0  0
  143.4670   75.5440  219.7250 C   0  0  0  0  0  0  0  0  0  0  0  0
  142.8260   76.6920  220.0770 N   0  0  0  0  0  0  0  0  0  0  0  0
  142.7700   77.5160  219.0370 C   0  0  0  0  0  0  0  0  0  0  0  0
  142.1730   78.8500  218.9770 C   0  0  0  0  0  0  0  0  0  0  0  0
  141.1180   79.1740  219.8070 C   0  0  0  0  0  0  0  0  0  0  0  0
  140.5660   80.4350  219.7380 C   0  0  0  0  0  0  0  0  0  0  0  0
  141.0480   81.3900  218.8490 C   0  0  0  0  0  0  0  0  0  0  0  0
  142.1020   81.0580  218.0220 C   0  0  0  0  0  0  0  0  0  0  0  0
  142.6470   79.7920  218.0990 C   0  0  0  0  0  0  0  0  0  0  0  0
  143.3930   76.8770  217.9840 C   0  0  0  0  0  0  0  0  0  0  0  0
  143.8060   75.6790  218.4380 N   0  0  0  0  0  0  0  0  0  0  0  0
  140.2300   77.0550  222.5210 C   0  0  0  0  0  0  0  0  0  0  0  0
  139.1270   77.8300  222.6980 C   0  0  0  0  0  0  0  0  0  0  0  0
  139.2190   79.1820  223.0120 C   0  0  0  0  0  0  0  0  0  0  0  0
  140.4890   79.7240  223.1390 C   0  0  0  0  0  0  0  0  0  0  0  0
  140.5880   81.0550  223.4470 C   0  0  0  0  0  0  0  0  0  0  0  0
  141.8350   81.6160  223.5800 C   0  0  0  0  0  0  0  0  0  0  0  0
  142.9620   80.8210  223.3970 C   0  0  0  0  0  0  0  0  0  0  0  0
  142.8620   79.4780  223.0850 C   0  0  0  0  0  0  0  0  0  0  0  0
  141.5980   78.9280  222.9570 C   0  0  0  0  0  0  0  0  0  0  0  0
  141.4500   77.6130  222.6520 N   0  0  0  0  0  0  0  0  0  0  0  0
  142.0420   75.3740  221.6090 H   0  0  0  0  0  0  0  0  0  0  0  0
  140.8314   72.9545  222.3729 H   0  0  0  0  0  0  0  0  0  0  0  0
  139.9089   73.5095  220.8704 H   0  0  0  0  0  0  0  0  0  0  0  0
  144.0828   71.4885  219.2514 H   0  0  0  0  0  0  0  0  0  0  0  0
  143.4375   72.5675  218.0251 H   0  0  0  0  0  0  0  0  0  0  0  0
  146.0898   72.7033  218.9384 H   0  0  0  0  0  0  0  0  0  0  0  0
  145.2917   74.1237  218.2977 H   0  0  0  0  0  0  0  0  0  0  0  0
  145.4339   73.1841  221.2569 H   0  0  0  0  0  0  0  0  0  0  0  0
  145.9321   74.7356  220.6868 H   0  0  0  0  0  0  0  0  0  0  0  0
  143.4292   74.6858  221.5623 H   0  0  0  0  0  0  0  0  0  0  0  0
  140.7219   78.4326  220.5166 H   0  0  0  0  0  0  0  0  0  0  0  0
  139.7261   80.6917  220.4003 H   0  0  0  0  0  0  0  0  0  0  0  0
  140.5970   82.3924  218.8058 H   0  0  0  0  0  0  0  0  0  0  0  0
  142.5032   81.7939  217.3096 H   0  0  0  0  0  0  0  0  0  0  0  0
  143.4858   79.5307  217.4371 H   0  0  0  0  0  0  0  0  0  0  0  0
  143.5267   77.2721  216.9661 H   0  0  0  0  0  0  0  0  0  0  0  0
  144.3110   74.9990  217.8280 H   0  0  0  0  0  0  0  0  0  0  0  0
  138.1318   77.3741  222.5896 H   0  0  0  0  0  0  0  0  0  0  0  0
  138.3186   79.7977  223.1541 H   0  0  0  0  0  0  0  0  0  0  0  0
  139.6833   81.6651  223.5857 H   0  0  0  0  0  0  0  0  0  0  0  0
  141.9413   82.6823  223.8285 H   0  0  0  0  0  0  0  0  0  0  0  0
  143.9591   81.2731  223.5034 H   0  0  0  0  0  0  0  0  0  0  0  0
  143.7627   78.8628  222.9423 H   0  0  0  0  0  0  0  0  0  0  0  0
  1  2  2  0
  2  3  1  0
  3  4  1  0
  4  5  1  0
  5  6  2  0
  5  7  1  0
  7  8  1  0
  8  9  1  0
  9 10  1  0
 10 11  1  0
 11 12  1  0
 12 13  2  0
 13 14  1  0
 14 15  1  0
 15 16  2  0
 16 17  1  0
 17 18  2  0
 18 19  1  0
 19 20  2  0
 14 21  2  0
 21 22  1  0
  2 23  1  0
 23 24  2  0
 24 25  1  0
 25 26  2  0
 26 27  1  0
 27 28  2  0
 28 29  1  0
 29 30  2  0
 30 31  1  0
 31 32  2  0
 11  7  1  0
 22 12  1  0
 32 23  1  0
 20 15  1  0
 31 26  1  0
  3 33  1  0
  4 34  1  0
  4 35  1  0
  8 36  1  0
  8 37  1  0
  9 38  1  0
  9 39  1  0
 10 40  1  0
 10 41  1  0
 11 42  1  1
 16 43  1  0
 17 44  1  0
 18 45  1  0
 19 46  1  0
 20 47  1  0
 21 48  1  0
 22 49  1  0
 24 50  1  0
 25 51  1  0
 27 52  1  0
 28 53  1  0
 29 54  1  0
 30 55  1  0
M  END
>  <smiles>  (7) 
O=C(NCC(=O)N1CCC[C@H]1c1nc(-c2ccccc2)c[nH]1)c1ccc2ccccc2n1

>  <score_type>  (7) 
oracle

>  <origin>  (7) 
autodockgpu

>  <m_score__min__energy>  (7) 
-9.4399999999999995

>  <m_primary>  (7) 
energy

>  <rmsd>  (7) 
6.9420258674582005

>  <m_score__min__rmsd>  (7) 
6.9420258674582005

>  <meeko>  (7) 
{"free_energy": -7.88, "intermolecular_energy": -9.67, "internal_energy": -3.6, "cluster_size": 20, "cluster_id": 4, "rank_in_cluster": 5}

>  <energy>  (7) 
-8.94

>  <cluster_rmsd>  (7) 
0.81

>  <cluster>  (7) 
2

$$$$

     RDKit          3D

 55 59  0  0  0  0  0  0  0  0999 V2000
  140.9650   72.2970  222.0850 O   0  0  0  0  0  0  0  0  0  0  0  0
  140.1360   71.4750  222.5820 C   0  0  0  0  0  0  0  0  0  0  0  0
  139.0870   70.9980  221.7040 N   0  0  0  0  0  0  0  0  0  0  0  0
  139.1050   71.5070  220.3780 C   0  0  0  0  0  0  0  0  0  0  0  0
  138.5150   72.8230  220.1860 C   0  0  0  0  0  0  0  0  0  0  0  0
  138.5690   73.2380  218.9520 O   0  0  0  0  0  0  0  0  0  0  0  0
  137.9000   73.7240  221.0830 N   0  0  0  0  0  0  0  0  0  0  0  0
  137.2280   73.4990  222.3510 C   0  0  0  0  0  0  0  0  0  0  0  0
  136.6550   74.8860  222.7160 C   0  0  0  0  0  0  0  0  0  0  0  0
  136.5680   75.5890  221.3620 C   0  0  0  0  0  0  0  0  0  0  0  0
  137.9000   75.1720  220.7860 C   0  0  1  0  0  0  0  0  0  0  0  0
  139.0330   75.8500  221.4230 C   0  0  0  0  0  0  0  0  0  0  0  0
  139.1460   77.1640  221.7600 N   0  0  0  0  0  0  0  0  0  0  0  0
  140.3290   77.3880  222.3190 C   0  0  0  0  0  0  0  0  0  0  0  0
  140.8600   78.6530  222.8260 C   0  0  0  0  0  0  0  0  0  0  0  0
  140.0030   79.6140  223.3230 C   0  0  0  0  0  0  0  0  0  0  0  0
  140.5190   80.8020  223.7960 C   0  0  0  0  0  0  0  0  0  0  0  0
  141.8880   81.0540  223.7840 C   0  0  0  0  0  0  0  0  0  0  0  0
  142.7380   80.0890  223.2850 C   0  0  0  0  0  0  0  0  0  0  0  0
  142.2100   78.9030  222.8130 C   0  0  0  0  0  0  0  0  0  0  0  0
  140.9980   76.1810  222.3420 C   0  0  0  0  0  0  0  0  0  0  0  0
  140.1800   75.2670  221.7890 N   0  0  0  0  0  0  0  0  0  0  0  0
  140.2270   71.0320  223.9570 C   0  0  0  0  0  0  0  0  0  0  0  0
  140.7240   71.8850  224.8920 C   0  0  0  0  0  0  0  0  0  0  0  0
  140.8390   71.5240  226.2300 C   0  0  0  0  0  0  0  0  0  0  0  0
  140.4270   70.2490  226.5860 C   0  0  0  0  0  0  0  0  0  0  0  0
  140.5380   69.8860  227.9030 C   0  0  0  0  0  0  0  0  0  0  0  0
  140.1350   68.6280  228.2830 C   0  0  0  0  0  0  0  0  0  0  0  0
  139.6290   67.7580  227.3240 C   0  0  0  0  0  0  0  0  0  0  0  0
  139.5170   68.1240  225.9950 C   0  0  0  0  0  0  0  0  0  0  0  0
  139.9260   69.3950  225.6290 C   0  0  0  0  0  0  0  0  0  0  0  0
  139.8350   69.7990  224.3370 N   0  0  0  0  0  0  0  0  0  0  0  0
  138.4370   70.3410  222.1510 H   0  0  0  0  0  0  0  0  0  0  0  0
  140.1546   71.5593  220.0530 H   0  0  0  0  0  0  0  0  0  0  0  0
  138.4821   70.8170  219.7899 H   0  0  0  0  0  0  0  0  0  0  0  0
  136.4219   72.7586  222.2413 H   0  0  0  0  0  0  0  0  0  0  0  0
  137.9012   73.1002  223.1241 H   0  0  0  0  0  0  0  0  0  0  0  0
  135.6611   74.7940  223.1783 H   0  0  0  0  0  0  0  0  0  0  0  0
  137.2697   75.4300  223.4482 H   0  0  0  0  0  0  0  0  0  0  0  0
  135.7253   75.2188  220.7597 H   0  0  0  0  0  0  0  0  0  0  0  0
  136.3930   76.6741  221.4055 H   0  0  0  0  0  0  0  0  0  0  0  0
  138.0144   75.4242  219.7214 H   0  0  0  0  0  0  0  0  0  0  0  0
  138.9180   79.4338  223.3416 H   0  0  0  0  0  0  0  0  0  0  0  0
  139.8343   81.5668  224.1912 H   0  0  0  0  0  0  0  0  0  0  0  0
  142.2851   82.0061  224.1658 H   0  0  0  0  0  0  0  0  0  0  0  0
  143.8241   80.2619  223.2632 H   0  0  0  0  0  0  0  0  0  0  0  0
  142.8911   78.1364  222.4150 H   0  0  0  0  0  0  0  0  0  0  0  0
  142.0085   76.0005  222.7375 H   0  0  0  0  0  0  0  0  0  0  0  0
  140.4550   74.2640  221.6890 H   0  0  0  0  0  0  0  0  0  0  0  0
  141.0445   72.8902  224.5809 H   0  0  0  0  0  0  0  0  0  0  0  0
  141.2416   72.2234  226.9775 H   0  0  0  0  0  0  0  0  0  0  0  0
  140.9433   70.5904  228.6443 H   0  0  0  0  0  0  0  0  0  0  0  0
  140.2120   68.3132  229.3342 H   0  0  0  0  0  0  0  0  0  0  0  0
  139.3090   66.7512  227.6305 H   0  0  0  0  0  0  0  0  0  0  0  0
  139.1137   67.4238  225.2486 H   0  0  0  0  0  0  0  0  0  0  0  0
  1  2  2  0
  2  3  1  0
  3  4  1  0
  4  5  1  0
  5  6  2  0
  5  7  1  0
  7  8  1  0
  8  9  1  0
  9 10  1  0
 10 11  1  0
 11 12  1  0
 12 13  2  0
 13 14  1  0
 14 15  1  0
 15 16  2  0
 16 17  1  0
 17 18  2  0
 18 19  1  0
 19 20  2  0
 14 21  2  0
 21 22  1  0
  2 23  1  0
 23 24  2  0
 24 25  1  0
 25 26  2  0
 26 27  1  0
 27 28  2  0
 28 29  1  0
 29 30  2  0
 30 31  1  0
 31 32  2  0
 11  7  1  0
 22 12  1  0
 32 23  1  0
 20 15  1  0
 31 26  1  0
  3 33  1  0
  4 34  1  0
  4 35  1  0
  8 36  1  0
  8 37  1  0
  9 38  1  0
  9 39  1  0
 10 40  1  0
 10 41  1  0
 11 42  1  6
 16 43  1  0
 17 44  1  0
 18 45  1  0
 19 46  1  0
 20 47  1  0
 21 48  1  0
 22 49  1  0
 24 50  1  0
 25 51  1  0
 27 52  1  0
 28 53  1  0
 29 54  1  0
 30 55  1  0
M  END
>  <smiles>  (8) 
O=C(NCC(=O)N1CCC[C@H]1c1nc(-c2ccccc2)c[nH]1)c1ccc2ccccc2n1

>  <score_type>  (8) 
oracle

>  <origin>  (8) 
autodockgpu

>  <m_score__min__energy>  (8) 
-9.4399999999999995

>  <m_primary>  (8) 
energy

>  <rmsd>  (8) 
3.923224105174892

>  <m_score__min__rmsd>  (8) 
3.923224105174892

>  <meeko>  (8) 
{"free_energy": -8.19, "intermolecular_energy": -9.98, "internal_energy": -2.84, "cluster_size": 24, "cluster_id": 2, "rank_in_cluster": 23}

>  <energy>  (8) 
-8.86

>  <cluster_rmsd>  (8) 
1.37

>  <cluster>  (8) 
2

$$$$

     RDKit          3D

 55 59  0  0  0  0  0  0  0  0999 V2000
  138.8770   75.1440  221.9880 O   0  0  0  0  0  0  0  0  0  0  0  0
  140.0270   75.6750  222.0460 C   0  0  0  0  0  0  0  0  0  0  0  0
  141.1590   74.8040  221.8020 N   0  0  0  0  0  0  0  0  0  0  0  0
  140.8500   73.4460  221.5230 C   0  0  0  0  0  0  0  0  0  0  0  0
  141.7480   72.7570  220.6090 C   0  0  0  0  0  0  0  0  0  0  0  0
  141.3610   71.5470  220.3180 O   0  0  0  0  0  0  0  0  0  0  0  0
  142.9500   73.1560  219.9840 N   0  0  0  0  0  0  0  0  0  0  0  0
  143.6590   72.6090  218.8410 C   0  0  0  0  0  0  0  0  0  0  0  0
  144.9730   73.4200  218.7980 C   0  0  0  0  0  0  0  0  0  0  0  0
  145.1150   73.9180  220.2360 C   0  0  0  0  0  0  0  0  0  0  0  0
  143.6860   74.3340  220.4910 C   0  0  1  0  0  0  0  0  0  0  0  0
  143.3100   75.5530  219.7680 C   0  0  0  0  0  0  0  0  0  0  0  0
  142.4610   76.5390  220.1650 N   0  0  0  0  0  0  0  0  0  0  0  0
  142.3850   77.4760  219.2270 C   0  0  0  0  0  0  0  0  0  0  0  0
  141.5910   78.7050  219.2450 C   0  0  0  0  0  0  0  0  0  0  0  0
  140.2150   78.6410  219.1710 C   0  0  0  0  0  0  0  0  0  0  0  0
  139.4810   79.8090  219.1880 C   0  0  0  0  0  0  0  0  0  0  0  0
  140.0990   81.0520  219.2780 C   0  0  0  0  0  0  0  0  0  0  0  0
  141.4760   81.1070  219.3510 C   0  0  0  0  0  0  0  0  0  0  0  0
  142.2000   79.9320  219.3330 C   0  0  0  0  0  0  0  0  0  0  0  0
  143.2100   77.0790  218.1940 C   0  0  0  0  0  0  0  0  0  0  0  0
  143.7580   75.9050  218.5570 N   0  0  0  0  0  0  0  0  0  0  0  0
  140.2090   77.0800  222.3420 C   0  0  0  0  0  0  0  0  0  0  0  0
  139.1150   77.8870  222.4010 C   0  0  0  0  0  0  0  0  0  0  0  0
  139.2170   79.2460  222.6800 C   0  0  0  0  0  0  0  0  0  0  0  0
  140.4860   79.7600  222.8980 C   0  0  0  0  0  0  0  0  0  0  0  0
  140.5950   81.0980  223.1730 C   0  0  0  0  0  0  0  0  0  0  0  0
  141.8410   81.6330  223.3940 C   0  0  0  0  0  0  0  0  0  0  0  0
  142.9570   80.8050  223.3310 C   0  0  0  0  0  0  0  0  0  0  0  0
  142.8480   79.4560  223.0530 C   0  0  0  0  0  0  0  0  0  0  0  0
  141.5850   78.9320  222.8350 C   0  0  0  0  0  0  0  0  0  0  0  0
  141.4280   77.6130  222.5580 N   0  0  0  0  0  0  0  0  0  0  0  0
  142.0680   75.2760  221.8650 H   0  0  0  0  0  0  0  0  0  0  0  0
  140.8564   72.8977  222.4766 H   0  0  0  0  0  0  0  0  0  0  0  0
  139.8732   73.4645  221.0175 H   0  0  0  0  0  0  0  0  0  0  0  0
  143.8644   71.5378  218.9836 H   0  0  0  0  0  0  0  0  0  0  0  0
  143.0823   72.6847  217.9074 H   0  0  0  0  0  0  0  0  0  0  0  0
  145.8228   72.7816  218.5147 H   0  0  0  0  0  0  0  0  0  0  0  0
  144.9576   74.2326  218.0567 H   0  0  0  0  0  0  0  0  0  0  0  0
  145.4386   73.1182  220.9183 H   0  0  0  0  0  0  0  0  0  0  0  0
  145.8686   74.7044  220.3894 H   0  0  0  0  0  0  0  0  0  0  0  0
  143.4849   74.5860  221.5427 H   0  0  0  0  0  0  0  0  0  0  0  0
  139.7077   77.6676  219.0991 H   0  0  0  0  0  0  0  0  0  0  0  0
  138.3838   79.7563  219.1291 H   0  0  0  0  0  0  0  0  0  0  0  0
  139.5006   81.9749  219.2908 H   0  0  0  0  0  0  0  0  0  0  0  0
  141.9908   82.0764  219.4227 H   0  0  0  0  0  0  0  0  0  0  0  0
  143.2974   79.9803  219.3909 H   0  0  0  0  0  0  0  0  0  0  0  0
  143.3861   77.6199  217.2525 H   0  0  0  0  0  0  0  0  0  0  0  0
  144.4270   75.3910  217.9410 H   0  0  0  0  0  0  0  0  0  0  0  0
  138.1206   77.4519  222.2228 H   0  0  0  0  0  0  0  0  0  0  0  0
  138.3251   79.8881  222.7259 H   0  0  0  0  0  0  0  0  0  0  0  0
  139.6986   81.7340  223.2162 H   0  0  0  0  0  0  0  0  0  0  0  0
  141.9548   82.7039  223.6182 H   0  0  0  0  0  0  0  0  0  0  0  0
  143.9536   81.2360  223.5073 H   0  0  0  0  0  0  0  0  0  0  0  0
  143.7409   78.8153  223.0061 H   0  0  0  0  0  0  0  0  0  0  0  0
  1  2  2  0
  2  3  1  0
  3  4  1  0
  4  5  1  0
  5  6  2  0
  5  7  1  0
  7  8  1  0
  8  9  1  0
  9 10  1  0
 10 11  1  0
 11 12  1  0
 12 13  2  0
 13 14  1  0
 14 15  1  0
 15 16  2  0
 16 17  1  0
 17 18  2  0
 18 19  1  0
 19 20  2  0
 14 21  2  0
 21 22  1  0
  2 23  1  0
 23 24  2  0
 24 25  1  0
 25 26  2  0
 26 27  1  0
 27 28  2  0
 28 29  1  0
 29 30  2  0
 30 31  1  0
 31 32  2  0
 11  7  1  0
 22 12  1  0
 32 23  1  0
 20 15  1  0
 31 26  1  0
  3 33  1  0
  4 34  1  0
  4 35  1  0
  8 36  1  0
  8 37  1  0
  9 38  1  0
  9 39  1  0
 10 40  1  0
 10 41  1  0
 11 42  1  1
 16 43  1  0
 17 44  1  0
 18 45  1  0
 19 46  1  0
 20 47  1  0
 21 48  1  0
 22 49  1  0
 24 50  1  0
 25 51  1  0
 27 52  1  0
 28 53  1  0
 29 54  1  0
 30 55  1  0
M  END
>  <smiles>  (9) 
O=C(NCC(=O)N1CCC[C@H]1c1nc(-c2ccccc2)c[nH]1)c1ccc2ccccc2n1

>  <score_type>  (9) 
oracle

>  <origin>  (9) 
autodockgpu

>  <m_score__min__energy>  (9) 
-9.4399999999999995

>  <m_primary>  (9) 
energy

>  <rmsd>  (9) 
6.886498798620314

>  <m_score__min__rmsd>  (9) 
6.886498798620314

>  <meeko>  (9) 
{"free_energy": -7.56, "intermolecular_energy": -9.35, "internal_energy": -4.04, "cluster_size": 20, "cluster_id": 4, "rank_in_cluster": 13}

>  <energy>  (9) 
-8.86

>  <cluster_rmsd>  (9) 
1.93

>  <cluster>  (9) 
2

$$$$

     RDKit          3D

 55 59  0  0  0  0  0  0  0  0999 V2000
  140.5160   73.2520  222.3760 O   0  0  0  0  0  0  0  0  0  0  0  0
  139.8840   72.1600  222.5030 C   0  0  0  0  0  0  0  0  0  0  0  0
  139.1600   71.6880  221.3400 N   0  0  0  0  0  0  0  0  0  0  0  0
  139.2400   72.5080  220.1820 C   0  0  0  0  0  0  0  0  0  0  0  0
  138.2720   73.5900  220.0920 C   0  0  0  0  0  0  0  0  0  0  0  0
  137.8520   73.8070  218.8770 O   0  0  0  0  0  0  0  0  0  0  0  0
  137.7090   74.4390  221.0700 N   0  0  0  0  0  0  0  0  0  0  0  0
  137.0700   74.1410  222.3400 C   0  0  0  0  0  0  0  0  0  0  0  0
  136.5460   75.5120  222.8210 C   0  0  0  0  0  0  0  0  0  0  0  0
  136.4360   76.3110  221.5230 C   0  0  0  0  0  0  0  0  0  0  0  0
  137.7390   75.9050  220.8750 C   0  0  1  0  0  0  0  0  0  0  0  0
  138.9080   76.5080  221.5220 C   0  0  0  0  0  0  0  0  0  0  0  0
  139.1480   77.8250  221.7670 N   0  0  0  0  0  0  0  0  0  0  0  0
  140.3220   77.9660  222.3720 C   0  0  0  0  0  0  0  0  0  0  0  0
  140.9640   79.2040  222.8120 C   0  0  0  0  0  0  0  0  0  0  0  0
  140.3350   80.4180  222.6180 C   0  0  0  0  0  0  0  0  0  0  0  0
  140.9530   81.5760  223.0390 C   0  0  0  0  0  0  0  0  0  0  0  0
  142.2000   81.5490  223.6560 C   0  0  0  0  0  0  0  0  0  0  0  0
  142.8230   80.3320  223.8460 C   0  0  0  0  0  0  0  0  0  0  0  0
  142.1940   79.1790  223.4200 C   0  0  0  0  0  0  0  0  0  0  0  0
  140.8530   76.7000  222.5190 C   0  0  0  0  0  0  0  0  0  0  0  0
  139.9660   75.8370  221.9920 N   0  0  0  0  0  0  0  0  0  0  0  0
  139.8820   71.4150  223.7440 C   0  0  0  0  0  0  0  0  0  0  0  0
  139.2740   70.2000  223.7810 C   0  0  0  0  0  0  0  0  0  0  0  0
  139.2340   69.4310  224.9390 C   0  0  0  0  0  0  0  0  0  0  0  0
  139.8420   69.9510  226.0720 C   0  0  0  0  0  0  0  0  0  0  0  0
  139.8070   69.2000  227.2180 C   0  0  0  0  0  0  0  0  0  0  0  0
  140.4020   69.6910  228.3540 C   0  0  0  0  0  0  0  0  0  0  0  0
  141.0220   70.9360  228.3130 C   0  0  0  0  0  0  0  0  0  0  0  0
  141.0570   71.6940  227.1580 C   0  0  0  0  0  0  0  0  0  0  0  0
  140.4540   71.1840  226.0210 C   0  0  0  0  0  0  0  0  0  0  0  0
  140.4630   71.8910  224.8630 N   0  0  0  0  0  0  0  0  0  0  0  0
  138.6600   70.8050  221.4910 H   0  0  0  0  0  0  0  0  0  0  0  0
  140.2451   72.9541  220.1557 H   0  0  0  0  0  0  0  0  0  0  0  0
  139.0169   71.8428  219.3348 H   0  0  0  0  0  0  0  0  0  0  0  0
  136.2412   73.4306  222.2042 H   0  0  0  0  0  0  0  0  0  0  0  0
  137.7556   73.6715  223.0608 H   0  0  0  0  0  0  0  0  0  0  0  0
  135.5649   75.4118  223.3082 H   0  0  0  0  0  0  0  0  0  0  0  0
  137.1972   75.9873  223.5694 H   0  0  0  0  0  0  0  0  0  0  0  0
  135.5658   76.0044  220.9240 H   0  0  0  0  0  0  0  0  0  0  0  0
  136.2909   77.3941  221.6486 H   0  0  0  0  0  0  0  0  0  0  0  0
  137.8281   76.2299  219.8279 H   0  0  0  0  0  0  0  0  0  0  0  0
  139.3493   80.4606  222.1317 H   0  0  0  0  0  0  0  0  0  0  0  0
  140.4498   82.5418  222.8840 H   0  0  0  0  0  0  0  0  0  0  0  0
  142.6809   82.4814  223.9866 H   0  0  0  0  0  0  0  0  0  0  0  0
  143.8090   80.2813  224.3311 H   0  0  0  0  0  0  0  0  0  0  0  0
  142.6940   78.2111  223.5726 H   0  0  0  0  0  0  0  0  0  0  0  0
  141.8188   76.4453  222.9799 H   0  0  0  0  0  0  0  0  0  0  0  0
  140.1350   74.8060  221.9800 H   0  0  0  0  0  0  0  0  0  0  0  0
  138.7992   69.8132  222.8673 H   0  0  0  0  0  0  0  0  0  0  0  0
  138.7394   68.4486  224.9557 H   0  0  0  0  0  0  0  0  0  0  0  0
  139.3098   68.2188  227.2276 H   0  0  0  0  0  0  0  0  0  0  0  0
  140.3886   69.1067  229.2859 H   0  0  0  0  0  0  0  0  0  0  0  0
  141.4971   71.3275  229.2246 H   0  0  0  0  0  0  0  0  0  0  0  0
  141.5510   72.6767  227.1425 H   0  0  0  0  0  0  0  0  0  0  0  0
  1  2  2  0
  2  3  1  0
  3  4  1  0
  4  5  1  0
  5  6  2  0
  5  7  1  0
  7  8  1  0
  8  9  1  0
  9 10  1  0
 10 11  1  0
 11 12  1  0
 12 13  2  0
 13 14  1  0
 14 15  1  0
 15 16  2  0
 16 17  1  0
 17 18  2  0
 18 19  1  0
 19 20  2  0
 14 21  2  0
 21 22  1  0
  2 23  1  0
 23 24  2  0
 24 25  1  0
 25 26  2  0
 26 27  1  0
 27 28  2  0
 28 29  1  0
 29 30  2  0
 30 31  1  0
 31 32  2  0
 11  7  1  0
 22 12  1  0
 32 23  1  0
 20 15  1  0
 31 26  1  0
  3 33  1  0
  4 34  1  0
  4 35  1  0
  8 36  1  0
  8 37  1  0
  9 38  1  0
  9 39  1  0
 10 40  1  0
 10 41  1  0
 11 42  1  6
 16 43  1  0
 17 44  1  0
 18 45  1  0
 19 46  1  0
 20 47  1  0
 21 48  1  0
 22 49  1  0
 24 50  1  0
 25 51  1  0
 27 52  1  0
 28 53  1  0
 29 54  1  0
 30 55  1  0
M  END
>  <smiles>  (10) 
O=C(NCC(=O)N1CCC[C@H]1c1nc(-c2ccccc2)c[nH]1)c1ccc2ccccc2n1

>  <score_type>  (10) 
oracle

>  <origin>  (10) 
autodockgpu

>  <m_score__min__energy>  (10) 
-9.4399999999999995

>  <m_primary>  (10) 
energy

>  <rmsd>  (10) 
3.421949595582259

>  <m_score__min__rmsd>  (10) 
3.421949595582259

>  <meeko>  (10) 
{"free_energy": -8.86, "intermolecular_energy": -10.65, "internal_energy": -2.59, "cluster_size": 24, "cluster_id": 2, "rank_in_cluster": 8}

>  <energy>  (10) 
-8.8

>  <cluster_rmsd>  (10) 
1.77

>  <cluster>  (10) 
2

$$$$

     RDKit          3D

 55 59  0  0  0  0  0  0  0  0999 V2000
  140.4060   73.0710  222.3340 O   0  0  0  0  0  0  0  0  0  0  0  0
  139.5500   72.2350  222.7570 C   0  0  0  0  0  0  0  0  0  0  0  0
  138.3050   72.1500  222.0210 N   0  0  0  0  0  0  0  0  0  0  0  0
  138.1820   73.0160  220.9020 C   0  0  0  0  0  0  0  0  0  0  0  0
  137.0680   73.9490  220.9300 C   0  0  0  0  0  0  0  0  0  0  0  0
  136.1670   73.7060  220.0190 O   0  0  0  0  0  0  0  0  0  0  0  0
  136.7840   75.0590  221.7550 N   0  0  0  0  0  0  0  0  0  0  0  0
  136.1880   75.1380  223.0780 C   0  0  0  0  0  0  0  0  0  0  0  0
  136.0240   76.6550  223.3200 C   0  0  0  0  0  0  0  0  0  0  0  0
  136.0040   77.2280  221.9030 C   0  0  0  0  0  0  0  0  0  0  0  0
  137.1310   76.4220  221.2990 C   0  0  1  0  0  0  0  0  0  0  0  0
  138.4500   76.8330  221.7890 C   0  0  0  0  0  0  0  0  0  0  0  0
  138.8810   78.0870  222.0950 N   0  0  0  0  0  0  0  0  0  0  0  0
  140.1430   78.0440  222.5070 C   0  0  0  0  0  0  0  0  0  0  0  0
  140.9890   79.1580  222.9330 C   0  0  0  0  0  0  0  0  0  0  0  0
  140.4260   80.2650  223.5340 C   0  0  0  0  0  0  0  0  0  0  0  0
  141.2370   81.3080  223.9300 C   0  0  0  0  0  0  0  0  0  0  0  0
  142.6140   81.2680  223.7350 C   0  0  0  0  0  0  0  0  0  0  0  0
  143.1700   80.1580  223.1320 C   0  0  0  0  0  0  0  0  0  0  0  0
  142.3480   79.1210  222.7400 C   0  0  0  0  0  0  0  0  0  0  0  0
  140.5350   76.7200  222.4640 C   0  0  0  0  0  0  0  0  0  0  0  0
  139.4800   76.0110  222.0230 N   0  0  0  0  0  0  0  0  0  0  0  0
  139.7980   71.4060  223.9170 C   0  0  0  0  0  0  0  0  0  0  0  0
  139.5300   70.0750  223.8430 C   0  0  0  0  0  0  0  0  0  0  0  0
  139.7450   69.2190  224.9190 C   0  0  0  0  0  0  0  0  0  0  0  0
  140.2450   69.7750  226.0870 C   0  0  0  0  0  0  0  0  0  0  0  0
  140.4580   68.9390  227.1510 C   0  0  0  0  0  0  0  0  0  0  0  0
  140.9550   69.4640  228.3200 C   0  0  0  0  0  0  0  0  0  0  0  0
  141.2260   70.8260  228.3930 C   0  0  0  0  0  0  0  0  0  0  0  0
  141.0110   71.6700  227.3190 C   0  0  0  0  0  0  0  0  0  0  0  0
  140.5110   71.1250  226.1480 C   0  0  0  0  0  0  0  0  0  0  0  0
  140.2840   71.9130  225.0670 N   0  0  0  0  0  0  0  0  0  0  0  0
  137.6420   71.4660  222.4030 H   0  0  0  0  0  0  0  0  0  0  0  0
  139.1093   73.6032  220.8289 H   0  0  0  0  0  0  0  0  0  0  0  0
  137.9924   72.3581  220.0410 H   0  0  0  0  0  0  0  0  0  0  0  0
  135.2124   74.6304  223.0990 H   0  0  0  0  0  0  0  0  0  0  0  0
  136.8003   74.6485  223.8497 H   0  0  0  0  0  0  0  0  0  0  0  0
  135.0835   76.8720  223.8477 H   0  0  0  0  0  0  0  0  0  0  0  0
  136.8183   77.0823  223.9496 H   0  0  0  0  0  0  0  0  0  0  0  0
  135.0459   77.0394  221.3965 H   0  0  0  0  0  0  0  0  0  0  0  0
  136.1176   78.3200  221.8353 H   0  0  0  0  0  0  0  0  0  0  0  0
  137.2153   76.5353  220.2081 H   0  0  0  0  0  0  0  0  0  0  0  0
  139.3392   80.3153  223.6960 H   0  0  0  0  0  0  0  0  0  0  0  0
  140.7860   82.1892  224.4096 H   0  0  0  0  0  0  0  0  0  0  0  0
  143.2489   82.1070  224.0560 H   0  0  0  0  0  0  0  0  0  0  0  0
  144.2558   80.1005  222.9658 H   0  0  0  0  0  0  0  0  0  0  0  0
  142.7948   78.2386  222.2586 H   0  0  0  0  0  0  0  0  0  0  0  0
  141.5227   76.3210  222.7384 H   0  0  0  0  0  0  0  0  0  0  0  0
  139.5200   74.9750  221.9010 H   0  0  0  0  0  0  0  0  0  0  0  0
  139.1313   69.6625  222.9045 H   0  0  0  0  0  0  0  0  0  0  0  0
  139.5269   68.1433  224.8459 H   0  0  0  0  0  0  0  0  0  0  0  0
  140.2349   67.8648  227.0712 H   0  0  0  0  0  0  0  0  0  0  0  0
  141.1364   68.8138  229.1885 H   0  0  0  0  0  0  0  0  0  0  0  0
  141.6221   71.2433  229.3305 H   0  0  0  0  0  0  0  0  0  0  0  0
  141.2311   72.7452  227.3927 H   0  0  0  0  0  0  0  0  0  0  0  0
  1  2  2  0
  2  3  1  0
  3  4  1  0
  4  5  1  0
  5  6  2  0
  5  7  1  0
  7  8  1  0
  8  9  1  0
  9 10  1  0
 10 11  1  0
 11 12  1  0
 12 13  2  0
 13 14  1  0
 14 15  1  0
 15 16  2  0
 16 17  1  0
 17 18  2  0
 18 19  1  0
 19 20  2  0
 14 21  2  0
 21 22  1  0
  2 23  1  0
 23 24  2  0
 24 25  1  0
 25 26  2  0
 26 27  1  0
 27 28  2  0
 28 29  1  0
 29 30  2  0
 30 31  1  0
 31 32  2  0
 11  7  1  0
 22 12  1  0
 32 23  1  0
 20 15  1  0
 31 26  1  0
  3 33  1  0
  4 34  1  0
  4 35  1  0
  8 36  1  0
  8 37  1  0
  9 38  1  0
  9 39  1  0
 10 40  1  0
 10 41  1  0
 11 42  1  6
 16 43  1  0
 17 44  1  0
 18 45  1  0
 19 46  1  0
 20 47  1  0
 21 48  1  0
 22 49  1  0
 24 50  1  0
 25 51  1  0
 27 52  1  0
 28 53  1  0
 29 54  1  0
 30 55  1  0
M  END
>  <smiles>  (11) 
O=C(NCC(=O)N1CCC[C@H]1c1nc(-c2ccccc2)c[nH]1)c1ccc2ccccc2n1

>  <score_type>  (11) 
oracle

>  <origin>  (11) 
autodockgpu

>  <m_score__min__energy>  (11) 
-9.4399999999999995

>  <m_primary>  (11) 
energy

>  <rmsd>  (11) 
3.65628193853827

>  <m_score__min__rmsd>  (11) 
3.65628193853827

>  <meeko>  (11) 
{"free_energy": -8.89, "intermolecular_energy": -10.68, "internal_energy": -2.39, "cluster_size": 3, "cluster_id": 3, "rank_in_cluster": 2}

>  <energy>  (11) 
-8.8

>  <cluster_rmsd>  (11) 
1.95

>  <cluster>  (11) 
2

$$$$

     RDKit          3D

 55 59  0  0  0  0  0  0  0  0999 V2000
  139.9500   73.0980  222.7560 O   0  0  0  0  0  0  0  0  0  0  0  0
  139.9620   71.8360  222.8760 C   0  0  0  0  0  0  0  0  0  0  0  0
  139.7940   71.0650  221.6610 N   0  0  0  0  0  0  0  0  0  0  0  0
  139.6330   71.8150  220.4650 C   0  0  0  0  0  0  0  0  0  0  0  0
  140.7460   72.6700  220.0880 C   0  0  0  0  0  0  0  0  0  0  0  0
  141.9050   72.2100  220.4690 O   0  0  0  0  0  0  0  0  0  0  0  0
  140.8020   73.8970  219.3890 N   0  0  0  0  0  0  0  0  0  0  0  0
  139.9250   74.4610  218.3780 C   0  0  0  0  0  0  0  0  0  0  0  0
  140.6550   75.7460  217.9310 C   0  0  0  0  0  0  0  0  0  0  0  0
  142.1090   75.4640  218.3090 C   0  0  0  0  0  0  0  0  0  0  0  0
  141.8920   74.8550  219.6740 C   0  0  1  0  0  0  0  0  0  0  0  0
  141.4880   75.8430  220.6790 C   0  0  0  0  0  0  0  0  0  0  0  0
  141.9060   77.1320  220.8080 N   0  0  0  0  0  0  0  0  0  0  0  0
  141.3060   77.7000  221.8480 C   0  0  0  0  0  0  0  0  0  0  0  0
  141.4650   79.0680  222.3410 C   0  0  0  0  0  0  0  0  0  0  0  0
  142.2170   79.3130  223.4720 C   0  0  0  0  0  0  0  0  0  0  0  0
  142.3570   80.6080  223.9250 C   0  0  0  0  0  0  0  0  0  0  0  0
  141.7550   81.6750  223.2660 C   0  0  0  0  0  0  0  0  0  0  0  0
  141.0050   81.4220  222.1360 C   0  0  0  0  0  0  0  0  0  0  0  0
  140.8710   80.1210  221.6920 C   0  0  0  0  0  0  0  0  0  0  0  0
  140.4780   76.7460  222.4050 C   0  0  0  0  0  0  0  0  0  0  0  0
  140.6130   75.6280  221.6680 N   0  0  0  0  0  0  0  0  0  0  0  0
  140.1360   71.1900  224.1590 C   0  0  0  0  0  0  0  0  0  0  0  0
  140.7040   71.8900  225.1770 C   0  0  0  0  0  0  0  0  0  0  0  0
  140.9000   71.3320  226.4360 C   0  0  0  0  0  0  0  0  0  0  0  0
  140.4940   70.0190  226.6230 C   0  0  0  0  0  0  0  0  0  0  0  0
  140.6840   69.4620  227.8600 C   0  0  0  0  0  0  0  0  0  0  0  0
  140.2890   68.1630  228.0730 C   0  0  0  0  0  0  0  0  0  0  0  0
  139.7100   67.4490  227.0290 C   0  0  0  0  0  0  0  0  0  0  0  0
  139.5170   68.0110  225.7810 C   0  0  0  0  0  0  0  0  0  0  0  0
  139.9200   69.3210  225.5830 C   0  0  0  0  0  0  0  0  0  0  0  0
  139.7520   69.9160  224.3750 N   0  0  0  0  0  0  0  0  0  0  0  0
  139.8040   70.0490  221.8080 H   0  0  0  0  0  0  0  0  0  0  0  0
  139.4632   71.1037  219.6433 H   0  0  0  0  0  0  0  0  0  0  0  0
  138.7907   72.4962  220.6563 H   0  0  0  0  0  0  0  0  0  0  0  0
  139.8026   73.7663  217.5340 H   0  0  0  0  0  0  0  0  0  0  0  0
  138.9113   74.6580  218.7568 H   0  0  0  0  0  0  0  0  0  0  0  0
  140.5515   75.9029  216.8472 H   0  0  0  0  0  0  0  0  0  0  0  0
  140.2543   76.6574  218.3986 H   0  0  0  0  0  0  0  0  0  0  0  0
  142.5849   74.7566  217.6140 H   0  0  0  0  0  0  0  0  0  0  0  0
  142.7791   76.3360  218.2841 H   0  0  0  0  0  0  0  0  0  0  0  0
  142.7999   74.4064  220.1034 H   0  0  0  0  0  0  0  0  0  0  0  0
  142.7005   78.4826  224.0074 H   0  0  0  0  0  0  0  0  0  0  0  0
  142.9572   80.8013  224.8263 H   0  0  0  0  0  0  0  0  0  0  0  0
  141.8749   82.7027  223.6394 H   0  0  0  0  0  0  0  0  0  0  0  0
  140.5192   82.2472  221.5947 H   0  0  0  0  0  0  0  0  0  0  0  0
  140.2706   79.9232  220.7918 H   0  0  0  0  0  0  0  0  0  0  0  0
  139.8304   76.8752  223.2847 H   0  0  0  0  0  0  0  0  0  0  0  0
  140.0850   74.7540  221.8860 H   0  0  0  0  0  0  0  0  0  0  0  0
  141.0180   72.9292  224.9995 H   0  0  0  0  0  0  0  0  0  0  0  0
  141.3592   71.9097  227.2517 H   0  0  0  0  0  0  0  0  0  0  0  0
  141.1456   70.0454  228.6703 H   0  0  0  0  0  0  0  0  0  0  0  0
  140.4291   67.6933  229.0578 H   0  0  0  0  0  0  0  0  0  0  0  0
  139.3972   66.4086  227.2013 H   0  0  0  0  0  0  0  0  0  0  0  0
  139.0555   67.4330  224.9668 H   0  0  0  0  0  0  0  0  0  0  0  0
  1  2  2  0
  2  3  1  0
  3  4  1  0
  4  5  1  0
  5  6  2  0
  5  7  1  0
  7  8  1  0
  8  9  1  0
  9 10  1  0
 10 11  1  0
 11 12  1  0
 12 13  2  0
 13 14  1  0
 14 15  1  0
 15 16  2  0
 16 17  1  0
 17 18  2  0
 18 19  1  0
 19 20  2  0
 14 21  2  0
 21 22  1  0
  2 23  1  0
 23 24  2  0
 24 25  1  0
 25 26  2  0
 26 27  1  0
 27 28  2  0
 28 29  1  0
 29 30  2  0
 30 31  1  0
 31 32  2  0
 11  7  1  0
 22 12  1  0
 32 23  1  0
 20 15  1  0
 31 26  1  0
  3 33  1  0
  4 34  1  0
  4 35  1  0
  8 36  1  0
  8 37  1  0
  9 38  1  0
  9 39  1  0
 10 40  1  0
 10 41  1  0
 11 42  1  1
 16 43  1  0
 17 44  1  0
 18 45  1  0
 19 46  1  0
 20 47  1  0
 21 48  1  0
 22 49  1  0
 24 50  1  0
 25 51  1  0
 27 52  1  0
 28 53  1  0
 29 54  1  0
 30 55  1  0
M  END
>  <smiles>  (12) 
O=C(NCC(=O)N1CCC[C@H]1c1nc(-c2ccccc2)c[nH]1)c1ccc2ccccc2n1

>  <score_type>  (12) 
oracle

>  <origin>  (12) 
autodockgpu

>  <m_score__min__energy>  (12) 
-9.4399999999999995

>  <m_primary>  (12) 
energy

>  <rmsd>  (12) 
3.0458530864525635

>  <m_score__min__rmsd>  (12) 
3.0458530864525635

>  <meeko>  (12) 
{"free_energy": -8.67, "intermolecular_energy": -10.46, "internal_energy": -2.66, "cluster_size": 24, "cluster_id": 2, "rank_in_cluster": 18}

>  <energy>  (12) 
-8.76

>  <cluster_rmsd>  (12) 
1.04

>  <cluster>  (12) 
2

$$$$

     RDKit          3D

 55 59  0  0  0  0  0  0  0  0999 V2000
  138.9970   74.9870  222.1410 O   0  0  0  0  0  0  0  0  0  0  0  0
  140.1090   75.5950  222.0860 C   0  0  0  0  0  0  0  0  0  0  0  0
  141.2500   74.8250  221.6340 N   0  0  0  0  0  0  0  0  0  0  0  0
  140.9920   73.4680  221.3000 C   0  0  0  0  0  0  0  0  0  0  0  0
  142.1520   72.6570  220.9650 C   0  0  0  0  0  0  0  0  0  0  0  0
  142.1270   71.4700  221.5030 O   0  0  0  0  0  0  0  0  0  0  0  0
  143.2900   72.9180  220.1690 N   0  0  0  0  0  0  0  0  0  0  0  0
  143.8480   72.1990  219.0370 C   0  0  0  0  0  0  0  0  0  0  0  0
  145.1750   72.9350  218.7500 C   0  0  0  0  0  0  0  0  0  0  0  0
  145.4930   73.6020  220.0870 C   0  0  0  0  0  0  0  0  0  0  0  0
  144.1160   74.1140  220.4370 C   0  0  1  0  0  0  0  0  0  0  0  0
  143.7020   75.2490  219.6060 C   0  0  0  0  0  0  0  0  0  0  0  0
  143.1250   76.4160  220.0020 N   0  0  0  0  0  0  0  0  0  0  0  0
  142.9010   77.1910  218.9480 C   0  0  0  0  0  0  0  0  0  0  0  0
  142.3000   78.5240  218.9220 C   0  0  0  0  0  0  0  0  0  0  0  0
  141.1240   78.7660  219.6030 C   0  0  0  0  0  0  0  0  0  0  0  0
  140.5690   80.0280  219.5680 C   0  0  0  0  0  0  0  0  0  0  0  0
  141.1700   81.0650  218.8610 C   0  0  0  0  0  0  0  0  0  0  0  0
  142.3450   80.8150  218.1830 C   0  0  0  0  0  0  0  0  0  0  0  0
  142.8910   79.5480  218.2240 C   0  0  0  0  0  0  0  0  0  0  0  0
  143.3490   76.5010  217.8390 C   0  0  0  0  0  0  0  0  0  0  0  0
  143.8310   75.3230  218.2760 N   0  0  0  0  0  0  0  0  0  0  0  0
  140.2400   76.9880  222.4550 C   0  0  0  0  0  0  0  0  0  0  0  0
  139.1140   77.7240  222.6550 C   0  0  0  0  0  0  0  0  0  0  0  0
  139.1660   79.0680  223.0110 C   0  0  0  0  0  0  0  0  0  0  0  0
  140.4210   79.6420  223.1580 C   0  0  0  0  0  0  0  0  0  0  0  0
  140.4800   80.9650  223.5080 C   0  0  0  0  0  0  0  0  0  0  0  0
  141.7110   81.5580  223.6610 C   0  0  0  0  0  0  0  0  0  0  0  0
  142.8600   80.8020  223.4540 C   0  0  0  0  0  0  0  0  0  0  0  0
  142.8000   79.4670  223.1000 C   0  0  0  0  0  0  0  0  0  0  0  0
  141.5520   78.8840  222.9520 C   0  0  0  0  0  0  0  0  0  0  0  0
  141.4430   77.5770  222.6050 N   0  0  0  0  0  0  0  0  0  0  0  0
  142.1280   75.3560  221.6120 H   0  0  0  0  0  0  0  0  0  0  0  0
  140.4925   72.9997  222.1609 H   0  0  0  0  0  0  0  0  0  0  0  0
  140.3820   73.5010  220.3852 H   0  0  0  0  0  0  0  0  0  0  0  0
  144.0321   71.1455  219.2942 H   0  0  0  0  0  0  0  0  0  0  0  0
  143.1734   72.1845  218.1682 H   0  0  0  0  0  0  0  0  0  0  0  0
  145.9662   72.2266  218.4633 H   0  0  0  0  0  0  0  0  0  0  0  0
  145.1039   73.6481  217.9155 H   0  0  0  0  0  0  0  0  0  0  0  0
  145.8642   72.8797  220.8290 H   0  0  0  0  0  0  0  0  0  0  0  0
  146.2847   74.3650  220.0556 H   0  0  0  0  0  0  0  0  0  0  0  0
  144.0421   74.5056  221.4623 H   0  0  0  0  0  0  0  0  0  0  0  0
  140.6340   77.9596  220.1684 H   0  0  0  0  0  0  0  0  0  0  0  0
  139.6313   80.2189  220.1105 H   0  0  0  0  0  0  0  0  0  0  0  0
  140.7159   82.0668  218.8431 H   0  0  0  0  0  0  0  0  0  0  0  0
  142.8413   81.6164  217.6160 H   0  0  0  0  0  0  0  0  0  0  0  0
  143.8277   79.3528  217.6812 H   0  0  0  0  0  0  0  0  0  0  0  0
  143.3178   76.8485  216.7958 H   0  0  0  0  0  0  0  0  0  0  0  0
  144.2330   74.6120  217.6250 H   0  0  0  0  0  0  0  0  0  0  0  0
  138.1328   77.2423  222.5316 H   0  0  0  0  0  0  0  0  0  0  0  0
  138.2480   79.6529  223.1698 H   0  0  0  0  0  0  0  0  0  0  0  0
  139.5576   81.5436  223.6641 H   0  0  0  0  0  0  0  0  0  0  0  0
  141.7863   82.6183  223.9439 H   0  0  0  0  0  0  0  0  0  0  0  0
  143.8435   81.2795  223.5753 H   0  0  0  0  0  0  0  0  0  0  0  0
  143.7186   78.8833  222.9401 H   0  0  0  0  0  0  0  0  0  0  0  0
  1  2  2  0
  2  3  1  0
  3  4  1  0
  4  5  1  0
  5  6  2  0
  5  7  1  0
  7  8  1  0
  8  9  1  0
  9 10  1  0
 10 11  1  0
 11 12  1  0
 12 13  2  0
 13 14  1  0
 14 15  1  0
 15 16  2  0
 16 17  1  0
 17 18  2  0
 18 19  1  0
 19 20  2  0
 14 21  2  0
 21 22  1  0
  2 23  1  0
 23 24  2  0
 24 25  1  0
 25 26  2  0
 26 27  1  0
 27 28  2  0
 28 29  1  0
 29 30  2  0
 30 31  1  0
 31 32  2  0
 11  7  1  0
 22 12  1  0
 32 23  1  0
 20 15  1  0
 31 26  1  0
  3 33  1  0
  4 34  1  0
  4 35  1  0
  8 36  1  0
  8 37  1  0
  9 38  1  0
  9 39  1  0
 10 40  1  0
 10 41  1  0
 11 42  1  1
 16 43  1  0
 17 44  1  0
 18 45  1  0
 19 46  1  0
 20 47  1  0
 21 48  1  0
 22 49  1  0
 24 50  1  0
 25 51  1  0
 27 52  1  0
 28 53  1  0
 29 54  1  0
 30 55  1  0
M  END
>  <smiles>  (13) 
O=C(NCC(=O)N1CCC[C@H]1c1nc(-c2ccccc2)c[nH]1)c1ccc2ccccc2n1

>  <score_type>  (13) 
oracle

>  <origin>  (13) 
autodockgpu

>  <m_score__min__energy>  (13) 
-9.4399999999999995

>  <m_primary>  (13) 
energy

>  <rmsd>  (13) 
6.986961985064204

>  <m_score__min__rmsd>  (13) 
6.986961985064204

>  <meeko>  (13) 
{"free_energy": -7.81, "intermolecular_energy": -9.6, "internal_energy": -3.7, "cluster_size": 20, "cluster_id": 4, "rank_in_cluster": 6}

>  <energy>  (13) 
-8.75

>  <cluster_rmsd>  (13) 
1.38

>  <cluster>  (13) 
2

$$$$

     RDKit          3D

 55 59  0  0  0  0  0  0  0  0999 V2000
  141.1210   73.3520  221.9980 O   0  0  0  0  0  0  0  0  0  0  0  0
  140.0460   73.0140  222.5790 C   0  0  0  0  0  0  0  0  0  0  0  0
  138.8830   73.8410  222.3310 N   0  0  0  0  0  0  0  0  0  0  0  0
  139.0790   74.9450  221.4580 C   0  0  0  0  0  0  0  0  0  0  0  0
  139.2620   76.2410  222.0910 C   0  0  0  0  0  0  0  0  0  0  0  0
  138.3640   76.5040  222.9990 O   0  0  0  0  0  0  0  0  0  0  0  0
  140.2260   77.2560  221.9060 N   0  0  0  0  0  0  0  0  0  0  0  0
  141.0450   77.9820  222.8620 C   0  0  0  0  0  0  0  0  0  0  0  0
  141.7530   79.0530  222.0040 C   0  0  0  0  0  0  0  0  0  0  0  0
  140.8320   79.1860  220.7920 C   0  0  0  0  0  0  0  0  0  0  0  0
  140.5480   77.7240  220.5410 C   0  0  1  0  0  0  0  0  0  0  0  0
  141.7000   77.0080  219.9860 C   0  0  0  0  0  0  0  0  0  0  0  0
  142.3090   75.8910  220.4690 N   0  0  0  0  0  0  0  0  0  0  0  0
  143.3200   75.5490  219.6790 C   0  0  0  0  0  0  0  0  0  0  0  0
  144.2370   74.4190  219.8280 C   0  0  0  0  0  0  0  0  0  0  0  0
  144.1100   73.3130  219.0110 C   0  0  0  0  0  0  0  0  0  0  0  0
  144.9810   72.2550  219.1640 C   0  0  0  0  0  0  0  0  0  0  0  0
  145.9860   72.2770  220.1250 C   0  0  0  0  0  0  0  0  0  0  0  0
  146.1060   73.3850  220.9390 C   0  0  0  0  0  0  0  0  0  0  0  0
  145.2280   74.4390  220.7770 C   0  0  0  0  0  0  0  0  0  0  0  0
  143.3630   76.4760  218.6570 C   0  0  0  0  0  0  0  0  0  0  0  0
  142.3630   77.3490  218.8740 N   0  0  0  0  0  0  0  0  0  0  0  0
  139.9770   71.8600  223.4500 C   0  0  0  0  0  0  0  0  0  0  0  0
  139.3960   70.7200  222.9880 C   0  0  0  0  0  0  0  0  0  0  0  0
  139.2960   69.5750  223.7700 C   0  0  0  0  0  0  0  0  0  0  0  0
  139.8140   69.6320  225.0560 C   0  0  0  0  0  0  0  0  0  0  0  0
  139.7180   68.5080  225.8330 C   0  0  0  0  0  0  0  0  0  0  0  0
  140.2240   68.5370  227.1100 C   0  0  0  0  0  0  0  0  0  0  0  0
  140.8170   69.7040  227.5800 C   0  0  0  0  0  0  0  0  0  0  0  0
  140.9130   70.8390  226.7960 C   0  0  0  0  0  0  0  0  0  0  0  0
  140.3990   70.7920  225.5110 C   0  0  0  0  0  0  0  0  0  0  0  0
  140.4700   71.8810  224.7040 N   0  0  0  0  0  0  0  0  0  0  0  0
  138.0390   73.5320  222.8270 H   0  0  0  0  0  0  0  0  0  0  0  0
  139.9734   74.7386  220.8519 H   0  0  0  0  0  0  0  0  0  0  0  0
  138.1480   75.0300  220.8784 H   0  0  0  0  0  0  0  0  0  0  0  0
  140.4203   78.4508  223.6365 H   0  0  0  0  0  0  0  0  0  0  0  0
  141.7518   77.3307  223.3969 H   0  0  0  0  0  0  0  0  0  0  0  0
  141.8318   80.0062  222.5473 H   0  0  0  0  0  0  0  0  0  0  0  0
  142.7850   78.7818  221.7367 H   0  0  0  0  0  0  0  0  0  0  0  0
  139.9168   79.7478  221.0305 H   0  0  0  0  0  0  0  0  0  0  0  0
  141.2541   79.7366  219.9384 H   0  0  0  0  0  0  0  0  0  0  0  0
  139.7561   77.5534  219.7968 H   0  0  0  0  0  0  0  0  0  0  0  0
  143.3212   73.2763  218.2452 H   0  0  0  0  0  0  0  0  0  0  0  0
  144.8787   71.3749  218.5121 H   0  0  0  0  0  0  0  0  0  0  0  0
  146.6737   71.4255  220.2345 H   0  0  0  0  0  0  0  0  0  0  0  0
  146.8916   73.4283  221.7077 H   0  0  0  0  0  0  0  0  0  0  0  0
  145.3261   75.3203  221.4279 H   0  0  0  0  0  0  0  0  0  0  0  0
  144.0797   76.4968  217.8228 H   0  0  0  0  0  0  0  0  0  0  0  0
  142.1800   78.1540  218.2350 H   0  0  0  0  0  0  0  0  0  0  0  0
  138.9931   70.7037  221.9646 H   0  0  0  0  0  0  0  0  0  0  0  0
  138.8244   68.6591  223.3842 H   0  0  0  0  0  0  0  0  0  0  0  0
  139.2433   67.5965  225.4407 H   0  0  0  0  0  0  0  0  0  0  0  0
  140.1608   67.6471  227.7536 H   0  0  0  0  0  0  0  0  0  0  0  0
  141.2206   69.7246  228.6031 H   0  0  0  0  0  0  0  0  0  0  0  0
  141.3848   71.7544  227.1826 H   0  0  0  0  0  0  0  0  0  0  0  0
  1  2  2  0
  2  3  1  0
  3  4  1  0
  4  5  1  0
  5  6  2  0
  5  7  1  0
  7  8  1  0
  8  9  1  0
  9 10  1  0
 10 11  1  0
 11 12  1  0
 12 13  2  0
 13 14  1  0
 14 15  1  0
 15 16  2  0
 16 17  1  0
 17 18  2  0
 18 19  1  0
 19 20  2  0
 14 21  2  0
 21 22  1  0
  2 23  1  0
 23 24  2  0
 24 25  1  0
 25 26  2  0
 26 27  1  0
 27 28  2  0
 28 29  1  0
 29 30  2  0
 30 31  1  0
 31 32  2  0
 11  7  1  0
 22 12  1  0
 32 23  1  0
 20 15  1  0
 31 26  1  0
  3 33  1  0
  4 34  1  0
  4 35  1  0
  8 36  1  0
  8 37  1  0
  9 38  1  0
  9 39  1  0
 10 40  1  0
 10 41  1  0
 11 42  1  6
 16 43  1  0
 17 44  1  0
 18 45  1  0
 19 46  1  0
 20 47  1  0
 21 48  1  0
 22 49  1  0
 24 50  1  0
 25 51  1  0
 27 52  1  0
 28 53  1  0
 29 54  1  0
 30 55  1  0
M  END
>  <smiles>  (14) 
O=C(NCC(=O)N1CCC[C@H]1c1nc(-c2ccccc2)c[nH]1)c1ccc2ccccc2n1

>  <score_type>  (14) 
oracle

>  <origin>  (14) 
autodockgpu

>  <m_score__min__energy>  (14) 
-9.4399999999999995

>  <m_primary>  (14) 
energy

>  <rmsd>  (14) 
5.4341146648365175

>  <m_score__min__rmsd>  (14) 
5.4341146648365175

>  <meeko>  (14) 
{"free_energy": -9.44, "intermolecular_energy": -11.23, "internal_energy": -1.92, "cluster_size": 1, "cluster_id": 1, "rank_in_cluster": 1}

>  <energy>  (14) 
-8.75

>  <cluster_rmsd>  (14) 
1.88

>  <cluster>  (14) 
2

$$$$

     RDKit          3D

 55 59  0  0  0  0  0  0  0  0999 V2000
  140.0310   73.4270  222.7160 O   0  0  0  0  0  0  0  0  0  0  0  0
  139.6330   72.2230  222.7130 C   0  0  0  0  0  0  0  0  0  0  0  0
  139.0510   71.7330  221.4790 N   0  0  0  0  0  0  0  0  0  0  0  0
  138.9930   72.6630  220.4060 C   0  0  0  0  0  0  0  0  0  0  0  0
  137.8270   73.5310  220.3710 C   0  0  0  0  0  0  0  0  0  0  0  0
  137.0910   73.3650  219.3080 O   0  0  0  0  0  0  0  0  0  0  0  0
  137.3500   74.5110  221.2680 N   0  0  0  0  0  0  0  0  0  0  0  0
  136.7070   74.3870  222.5650 C   0  0  0  0  0  0  0  0  0  0  0  0
  136.3040   75.8350  222.9190 C   0  0  0  0  0  0  0  0  0  0  0  0
  136.2410   76.5170  221.5520 C   0  0  0  0  0  0  0  0  0  0  0  0
  137.4960   75.9450  220.9370 C   0  0  1  0  0  0  0  0  0  0  0  0
  138.7200   76.5070  221.5160 C   0  0  0  0  0  0  0  0  0  0  0  0
  138.9850   77.8050  221.8280 N   0  0  0  0  0  0  0  0  0  0  0  0
  140.2080   77.9080  222.3340 C   0  0  0  0  0  0  0  0  0  0  0  0
  140.8910   79.1150  222.7990 C   0  0  0  0  0  0  0  0  0  0  0  0
  140.5340   80.3500  222.2950 C   0  0  0  0  0  0  0  0  0  0  0  0
  141.1880   81.4790  222.7430 C   0  0  0  0  0  0  0  0  0  0  0  0
  142.2000   81.4000  223.6940 C   0  0  0  0  0  0  0  0  0  0  0  0
  142.5510   80.1630  224.1930 C   0  0  0  0  0  0  0  0  0  0  0  0
  141.8910   79.0390  223.7360 C   0  0  0  0  0  0  0  0  0  0  0  0
  140.7470   76.6370  222.3460 C   0  0  0  0  0  0  0  0  0  0  0  0
  139.8150   75.8090  221.8420 N   0  0  0  0  0  0  0  0  0  0  0  0
  139.7500   71.3740  223.8790 C   0  0  0  0  0  0  0  0  0  0  0  0
  139.2640   70.1050  223.8200 C   0  0  0  0  0  0  0  0  0  0  0  0
  139.3440   69.2360  224.9030 C   0  0  0  0  0  0  0  0  0  0  0  0
  139.9410   69.7100  226.0610 C   0  0  0  0  0  0  0  0  0  0  0  0
  140.0220   68.8600  227.1330 C   0  0  0  0  0  0  0  0  0  0  0  0
  140.6100   69.3050  228.2920 C   0  0  0  0  0  0  0  0  0  0  0  0
  141.1040   70.6030  228.3490 C   0  0  0  0  0  0  0  0  0  0  0  0
  141.0220   71.4620  227.2680 C   0  0  0  0  0  0  0  0  0  0  0  0
  140.4280   70.9980  226.1070 C   0  0  0  0  0  0  0  0  0  0  0  0
  140.3240   71.8040  225.0200 N   0  0  0  0  0  0  0  0  0  0  0  0
  138.7380   70.7570  221.5260 H   0  0  0  0  0  0  0  0  0  0  0  0
  139.8858   73.3026  220.4677 H   0  0  0  0  0  0  0  0  0  0  0  0
  138.9343   72.0542  219.4917 H   0  0  0  0  0  0  0  0  0  0  0  0
  135.8209   73.7383  222.5022 H   0  0  0  0  0  0  0  0  0  0  0  0
  137.3626   73.9318  223.3220 H   0  0  0  0  0  0  0  0  0  0  0  0
  135.3251   75.8619  223.4200 H   0  0  0  0  0  0  0  0  0  0  0  0
  137.0026   76.3220  223.6152 H   0  0  0  0  0  0  0  0  0  0  0  0
  135.3399   76.2299  220.9902 H   0  0  0  0  0  0  0  0  0  0  0  0
  136.1873   77.6154  221.5762 H   0  0  0  0  0  0  0  0  0  0  0  0
  137.5953   76.1621  219.8632 H   0  0  0  0  0  0  0  0  0  0  0  0
  139.7354   80.4328  221.5431 H   0  0  0  0  0  0  0  0  0  0  0  0
  140.9033   82.4620  222.3398 H   0  0  0  0  0  0  0  0  0  0  0  0
  142.7120   82.3091  224.0424 H   0  0  0  0  0  0  0  0  0  0  0  0
  143.3475   80.0726  224.9463 H   0  0  0  0  0  0  0  0  0  0  0  0
  142.1752   78.0540  224.1347 H   0  0  0  0  0  0  0  0  0  0  0  0
  141.7493   76.3550  222.7007 H   0  0  0  0  0  0  0  0  0  0  0  0
  139.9790   74.7820  221.7450 H   0  0  0  0  0  0  0  0  0  0  0  0
  138.7941   69.7559  222.8887 H   0  0  0  0  0  0  0  0  0  0  0  0
  138.9485   68.2113  224.8430 H   0  0  0  0  0  0  0  0  0  0  0  0
  139.6224   67.8373  227.0664 H   0  0  0  0  0  0  0  0  0  0  0  0
  140.6891   68.6413  229.1656 H   0  0  0  0  0  0  0  0  0  0  0  0
  141.5729   70.9567  229.2791 H   0  0  0  0  0  0  0  0  0  0  0  0
  141.4182   72.4863  227.3293 H   0  0  0  0  0  0  0  0  0  0  0  0
  1  2  2  0
  2  3  1  0
  3  4  1  0
  4  5  1  0
  5  6  2  0
  5  7  1  0
  7  8  1  0
  8  9  1  0
  9 10  1  0
 10 11  1  0
 11 12  1  0
 12 13  2  0
 13 14  1  0
 14 15  1  0
 15 16  2  0
 16 17  1  0
 17 18  2  0
 18 19  1  0
 19 20  2  0
 14 21  2  0
 21 22  1  0
  2 23  1  0
 23 24  2  0
 24 25  1  0
 25 26  2  0
 26 27  1  0
 27 28  2  0
 28 29  1  0
 29 30  2  0
 30 31  1  0
 31 32  2  0
 11  7  1  0
 22 12  1  0
 32 23  1  0
 20 15  1  0
 31 26  1  0
  3 33  1  0
  4 34  1  0
  4 35  1  0
  8 36  1  0
  8 37  1  0
  9 38  1  0
  9 39  1  0
 10 40  1  0
 10 41  1  0
 11 42  1  6
 16 43  1  0
 17 44  1  0
 18 45  1  0
 19 46  1  0
 20 47  1  0
 21 48  1  0
 22 49  1  0
 24 50  1  0
 25 51  1  0
 27 52  1  0
 28 53  1  0
 29 54  1  0
 30 55  1  0
M  END
>  <smiles>  (15) 
O=C(NCC(=O)N1CCC[C@H]1c1nc(-c2ccccc2)c[nH]1)c1ccc2ccccc2n1

>  <score_type>  (15) 
oracle

>  <origin>  (15) 
autodockgpu

>  <m_score__min__energy>  (15) 
-9.4399999999999995

>  <m_primary>  (15) 
energy

>  <rmsd>  (15) 
3.554226381137801

>  <m_score__min__rmsd>  (15) 
3.554226381137801

>  <meeko>  (15) 
{"free_energy": -8.8, "intermolecular_energy": -10.59, "internal_energy": -2.48, "cluster_size": 24, "cluster_id": 2, "rank_in_cluster": 10}

>  <energy>  (15) 
-8.73

>  <cluster_rmsd>  (15) 
1.99

>  <cluster>  (15) 
2

$$$$

     RDKit          3D

 55 59  0  0  0  0  0  0  0  0999 V2000
  138.3520   70.3700  221.7450 O   0  0  0  0  0  0  0  0  0  0  0  0
  138.1790   70.9970  222.8340 C   0  0  0  0  0  0  0  0  0  0  0  0
  137.3370   72.1750  222.7800 N   0  0  0  0  0  0  0  0  0  0  0  0
  136.7960   72.4960  221.5060 C   0  0  0  0  0  0  0  0  0  0  0  0
  137.7330   73.0070  220.5190 C   0  0  0  0  0  0  0  0  0  0  0  0
  137.2020   73.1790  219.3410 O   0  0  0  0  0  0  0  0  0  0  0  0
  139.1010   73.3480  220.6020 N   0  0  0  0  0  0  0  0  0  0  0  0
  140.1320   73.4180  219.5800 C   0  0  0  0  0  0  0  0  0  0  0  0
  141.4250   73.6950  220.3780 C   0  0  0  0  0  0  0  0  0  0  0  0
  141.0830   73.1800  221.7750 C   0  0  0  0  0  0  0  0  0  0  0  0
  139.6840   73.7360  221.9040 C   0  0  1  0  0  0  0  0  0  0  0  0
  139.6650   75.1900  222.0880 C   0  0  0  0  0  0  0  0  0  0  0  0
  140.7240   76.0370  222.2090 N   0  0  0  0  0  0  0  0  0  0  0  0
  140.2910   77.2830  222.3610 C   0  0  0  0  0  0  0  0  0  0  0  0
  141.0880   78.4990  222.5260 C   0  0  0  0  0  0  0  0  0  0  0  0
  141.4880   78.8990  223.7850 C   0  0  0  0  0  0  0  0  0  0  0  0
  142.2390   80.0480  223.9230 C   0  0  0  0  0  0  0  0  0  0  0  0
  142.6020   80.8140  222.8200 C   0  0  0  0  0  0  0  0  0  0  0  0
  142.1980   80.4070  221.5650 C   0  0  0  0  0  0  0  0  0  0  0  0
  141.4460   79.2560  221.4380 C   0  0  0  0  0  0  0  0  0  0  0  0
  138.9120   77.2360  222.3380 C   0  0  0  0  0  0  0  0  0  0  0  0
  138.5650   75.9470  222.1700 N   0  0  0  0  0  0  0  0  0  0  0  0
  138.7900   70.5650  224.0720 C   0  0  0  0  0  0  0  0  0  0  0  0
  138.6550   69.2670  224.4550 C   0  0  0  0  0  0  0  0  0  0  0  0
  139.2160   68.7840  225.6330 C   0  0  0  0  0  0  0  0  0  0  0  0
  139.9270   69.6810  226.4160 C   0  0  0  0  0  0  0  0  0  0  0  0
  140.4820   69.2130  227.5780 C   0  0  0  0  0  0  0  0  0  0  0  0
  141.1930   70.0800  228.3730 C   0  0  0  0  0  0  0  0  0  0  0  0
  141.3270   71.4070  227.9790 C   0  0  0  0  0  0  0  0  0  0  0  0
  140.7670   71.8800  226.8070 C   0  0  0  0  0  0  0  0  0  0  0  0
  140.0560   70.9930  226.0170 C   0  0  0  0  0  0  0  0  0  0  0  0
  139.4870   71.4100  224.8580 N   0  0  0  0  0  0  0  0  0  0  0  0
  137.2320   72.6530  223.6820 H   0  0  0  0  0  0  0  0  0  0  0  0
  136.3412   71.5826  221.0951 H   0  0  0  0  0  0  0  0  0  0  0  0
  136.0847   73.3153  221.6872 H   0  0  0  0  0  0  0  0  0  0  0  0
  140.2059   72.4669  219.0323 H   0  0  0  0  0  0  0  0  0  0  0  0
  139.9273   74.1882  218.8218 H   0  0  0  0  0  0  0  0  0  0  0  0
  142.2778   73.1462  219.9520 H   0  0  0  0  0  0  0  0  0  0  0  0
  141.7230   74.7538  220.3670 H   0  0  0  0  0  0  0  0  0  0  0  0
  141.0948   72.0811  221.8225 H   0  0  0  0  0  0  0  0  0  0  0  0
  141.7825   73.4774  222.5702 H   0  0  0  0  0  0  0  0  0  0  0  0
  139.1416   73.3578  222.7831 H   0  0  0  0  0  0  0  0  0  0  0  0
  141.2107   78.3073  224.6699 H   0  0  0  0  0  0  0  0  0  0  0  0
  142.5576   80.3653  224.9269 H   0  0  0  0  0  0  0  0  0  0  0  0
  143.2006   81.7282  222.9461 H   0  0  0  0  0  0  0  0  0  0  0  0
  142.4720   80.9931  220.6754 H   0  0  0  0  0  0  0  0  0  0  0  0
  141.1243   78.9362  220.4359 H   0  0  0  0  0  0  0  0  0  0  0  0
  138.2265   78.0904  222.4381 H   0  0  0  0  0  0  0  0  0  0  0  0
  137.5670   75.6430  222.1180 H   0  0  0  0  0  0  0  0  0  0  0  0
  138.0851   68.5783  223.8141 H   0  0  0  0  0  0  0  0  0  0  0  0
  139.1001   67.7317  225.9316 H   0  0  0  0  0  0  0  0  0  0  0  0
  140.3604   68.1595  227.8702 H   0  0  0  0  0  0  0  0  0  0  0  0
  141.6505   69.7285  229.3096 H   0  0  0  0  0  0  0  0  0  0  0  0
  141.8945   72.0996  228.6179 H   0  0  0  0  0  0  0  0  0  0  0  0
  140.8832   72.9328  226.5101 H   0  0  0  0  0  0  0  0  0  0  0  0
  1  2  2  0
  2  3  1  0
  3  4  1  0
  4  5  1  0
  5  6  2  0
  5  7  1  0
  7  8  1  0
  8  9  1  0
  9 10  1  0
 10 11  1  0
 11 12  1  0
 12 13  2  0
 13 14  1  0
 14 15  1  0
 15 16  2  0
 16 17  1  0
 17 18  2  0
 18 19  1  0
 19 20  2  0
 14 21  2  0
 21 22  1  0
  2 23  1  0
 23 24  2  0
 24 25  1  0
 25 26  2  0
 26 27  1  0
 27 28  2  0
 28 29  1  0
 29 30  2  0
 30 31  1  0
 31 32  2  0
 11  7  1  0
 22 12  1  0
 32 23  1  0
 20 15  1  0
 31 26  1  0
  3 33  1  0
  4 34  1  0
  4 35  1  0
  8 36  1  0
  8 37  1  0
  9 38  1  0
  9 39  1  0
 10 40  1  0
 10 41  1  0
 11 42  1  1
 16 43  1  0
 17 44  1  0
 18 45  1  0
 19 46  1  0
 20 47  1  0
 21 48  1  0
 22 49  1  0
 24 50  1  0
 25 51  1  0
 27 52  1  0
 28 53  1  0
 29 54  1  0
 30 55  1  0
M  END
>  <smiles>  (16) 
O=C(NCC(=O)N1CCC[C@H]1c1nc(-c2ccccc2)c[nH]1)c1ccc2ccccc2n1

>  <score_type>  (16) 
oracle

>  <origin>  (16) 
autodockgpu

>  <m_score__min__energy>  (16) 
-9.4399999999999995

>  <m_primary>  (16) 
energy

>  <rmsd>  (16) 
3.074346314200086

>  <m_score__min__rmsd>  (16) 
3.074346314200086

>  <meeko>  (16) 
{"free_energy": -8.94, "intermolecular_energy": -10.73, "internal_energy": -2.07, "cluster_size": 24, "cluster_id": 2, "rank_in_cluster": 6}

>  <energy>  (16) 
-8.72

>  <cluster_rmsd>  (16) 
1.93

>  <cluster>  (16) 
2

$$$$

     RDKit          3D

 55 59  0  0  0  0  0  0  0  0999 V2000
  139.5820   74.4520  222.7160 O   0  0  0  0  0  0  0  0  0  0  0  0
  139.7610   75.4120  221.9070 C   0  0  0  0  0  0  0  0  0  0  0  0
  139.8110   75.0770  220.4980 N   0  0  0  0  0  0  0  0  0  0  0  0
  139.6530   73.7010  220.1800 C   0  0  0  0  0  0  0  0  0  0  0  0
  140.8620   72.8930  220.1970 C   0  0  0  0  0  0  0  0  0  0  0  0
  140.6980   71.7290  220.7600 O   0  0  0  0  0  0  0  0  0  0  0  0
  142.1690   73.1360  219.7190 N   0  0  0  0  0  0  0  0  0  0  0  0
  142.8910   72.5800  218.5880 C   0  0  0  0  0  0  0  0  0  0  0  0
  144.3150   73.1570  218.7390 C   0  0  0  0  0  0  0  0  0  0  0  0
  144.3920   73.4960  220.2270 C   0  0  0  0  0  0  0  0  0  0  0  0
  143.0300   74.1240  220.4050 C   0  0  1  0  0  0  0  0  0  0  0  0
  142.9280   75.4470  219.7830 C   0  0  0  0  0  0  0  0  0  0  0  0
  142.0820   76.4640  220.1020 N   0  0  0  0  0  0  0  0  0  0  0  0
  142.3010   77.5030  219.3050 C   0  0  0  0  0  0  0  0  0  0  0  0
  141.6180   78.7960  219.3020 C   0  0  0  0  0  0  0  0  0  0  0  0
  140.2840   78.8750  219.6490 C   0  0  0  0  0  0  0  0  0  0  0  0
  139.6540   80.1020  219.6420 C   0  0  0  0  0  0  0  0  0  0  0  0
  140.3350   81.2640  219.2920 C   0  0  0  0  0  0  0  0  0  0  0  0
  141.6670   81.1770  218.9460 C   0  0  0  0  0  0  0  0  0  0  0  0
  142.2880   79.9430  218.9560 C   0  0  0  0  0  0  0  0  0  0  0  0
  143.3210   77.1420  218.4460 C   0  0  0  0  0  0  0  0  0  0  0  0
  143.6790   75.8850  218.7660 N   0  0  0  0  0  0  0  0  0  0  0  0
  139.9090   76.7780  222.3610 C   0  0  0  0  0  0  0  0  0  0  0  0
  138.7940   77.5020  222.6440 C   0  0  0  0  0  0  0  0  0  0  0  0
  138.8630   78.8200  223.0850 C   0  0  0  0  0  0  0  0  0  0  0  0
  140.1230   79.3810  223.2270 C   0  0  0  0  0  0  0  0  0  0  0  0
  140.2000   80.6780  223.6600 C   0  0  0  0  0  0  0  0  0  0  0  0
  141.4370   81.2580  223.8100 C   0  0  0  0  0  0  0  0  0  0  0  0
  142.5750   80.5150  223.5170 C   0  0  0  0  0  0  0  0  0  0  0  0
  142.4990   79.2060  223.0800 C   0  0  0  0  0  0  0  0  0  0  0  0
  141.2450   78.6360  222.9360 C   0  0  0  0  0  0  0  0  0  0  0  0
  141.1190   77.3540  222.5090 N   0  0  0  0  0  0  0  0  0  0  0  0
  139.9640   75.8840  219.8830 H   0  0  0  0  0  0  0  0  0  0  0  0
  138.9500   73.2676  220.9066 H   0  0  0  0  0  0  0  0  0  0  0  0
  139.3002   73.6793  219.1383 H   0  0  0  0  0  0  0  0  0  0  0  0
  142.9066   71.4811  218.6352 H   0  0  0  0  0  0  0  0  0  0  0  0
  142.4295   72.8346  217.6225 H   0  0  0  0  0  0  0  0  0  0  0  0
  145.0751   72.4112  218.4635 H   0  0  0  0  0  0  0  0  0  0  0  0
  144.5037   74.0224  218.0867 H   0  0  0  0  0  0  0  0  0  0  0  0
  144.5143   72.5963  220.8479 H   0  0  0  0  0  0  0  0  0  0  0  0
  145.2431   74.1274  220.5219 H   0  0  0  0  0  0  0  0  0  0  0  0
  142.7686   74.3131  221.4566 H   0  0  0  0  0  0  0  0  0  0  0  0
  139.7286   77.9676  219.9285 H   0  0  0  0  0  0  0  0  0  0  0  0
  138.5912   80.1633  219.9188 H   0  0  0  0  0  0  0  0  0  0  0  0
  139.8194   82.2357  219.2914 H   0  0  0  0  0  0  0  0  0  0  0  0
  142.2288   82.0801  218.6652 H   0  0  0  0  0  0  0  0  0  0  0  0
  143.3504   79.8777  218.6786 H   0  0  0  0  0  0  0  0  0  0  0  0
  143.7578   77.7643  217.6510 H   0  0  0  0  0  0  0  0  0  0  0  0
  144.4380   75.3790  218.2580 H   0  0  0  0  0  0  0  0  0  0  0  0
  137.8072   77.0318  222.5207 H   0  0  0  0  0  0  0  0  0  0  0  0
  137.9530   79.3947  223.3122 H   0  0  0  0  0  0  0  0  0  0  0  0
  139.2857   81.2469  223.8843 H   0  0  0  0  0  0  0  0  0  0  0  0
  141.5256   82.2978  224.1578 H   0  0  0  0  0  0  0  0  0  0  0  0
  143.5637   80.9821  223.6363 H   0  0  0  0  0  0  0  0  0  0  0  0
  143.4097   78.6325  222.8527 H   0  0  0  0  0  0  0  0  0  0  0  0
  1  2  2  0
  2  3  1  0
  3  4  1  0
  4  5  1  0
  5  6  2  0
  5  7  1  0
  7  8  1  0
  8  9  1  0
  9 10  1  0
 10 11  1  0
 11 12  1  0
 12 13  2  0
 13 14  1  0
 14 15  1  0
 15 16  2  0
 16 17  1  0
 17 18  2  0
 18 19  1  0
 19 20  2  0
 14 21  2  0
 21 22  1  0
  2 23  1  0
 23 24  2  0
 24 25  1  0
 25 26  2  0
 26 27  1  0
 27 28  2  0
 28 29  1  0
 29 30  2  0
 30 31  1  0
 31 32  2  0
 11  7  1  0
 22 12  1  0
 32 23  1  0
 20 15  1  0
 31 26  1  0
  3 33  1  0
  4 34  1  0
  4 35  1  0
  8 36  1  0
  8 37  1  0
  9 38  1  0
  9 39  1  0
 10 40  1  0
 10 41  1  0
 11 42  1  1
 16 43  1  0
 17 44  1  0
 18 45  1  0
 19 46  1  0
 20 47  1  0
 21 48  1  0
 22 49  1  0
 24 50  1  0
 25 51  1  0
 27 52  1  0
 28 53  1  0
 29 54  1  0
 30 55  1  0
M  END
>  <smiles>  (17) 
O=C(NCC(=O)N1CCC[C@H]1c1nc(-c2ccccc2)c[nH]1)c1ccc2ccccc2n1

>  <score_type>  (17) 
oracle

>  <origin>  (17) 
autodockgpu

>  <m_score__min__energy>  (17) 
-9.4399999999999995

>  <m_primary>  (17) 
energy

>  <rmsd>  (17) 
6.548359194108351

>  <m_score__min__rmsd>  (17) 
6.548359194108351

>  <meeko>  (17) 
{"free_energy": -7.22, "intermolecular_energy": -9.01, "internal_energy": -3.84, "cluster_size": 20, "cluster_id": 4, "rank_in_cluster": 19}

>  <energy>  (17) 
-8.71

>  <cluster_rmsd>  (17) 
1.99

>  <cluster>  (17) 
2

$$$$

     RDKit          3D

 55 59  0  0  0  0  0  0  0  0999 V2000
  137.9090   72.0850  222.4130 O   0  0  0  0  0  0  0  0  0  0  0  0
  138.7250   71.1200  222.5190 C   0  0  0  0  0  0  0  0  0  0  0  0
  139.1520   70.4900  221.2860 N   0  0  0  0  0  0  0  0  0  0  0  0
  138.6060   71.0290  220.0900 C   0  0  0  0  0  0  0  0  0  0  0  0
  139.1000   72.3360  219.6890 C   0  0  0  0  0  0  0  0  0  0  0  0
  138.2490   73.0130  218.9700 O   0  0  0  0  0  0  0  0  0  0  0  0
  140.3220   73.0020  219.9350 N   0  0  0  0  0  0  0  0  0  0  0  0
  141.3020   73.5660  219.0230 C   0  0  0  0  0  0  0  0  0  0  0  0
  142.4630   73.9930  219.9470 C   0  0  0  0  0  0  0  0  0  0  0  0
  142.2640   73.1110  221.1790 C   0  0  0  0  0  0  0  0  0  0  0  0
  140.7650   73.2340  221.3260 C   0  0  1  0  0  0  0  0  0  0  0  0
  140.3470   74.5530  221.8090 C   0  0  0  0  0  0  0  0  0  0  0  0
  141.0610   75.7110  221.8170 N   0  0  0  0  0  0  0  0  0  0  0  0
  140.3300   76.6900  222.3380 C   0  0  0  0  0  0  0  0  0  0  0  0
  140.7080   78.0890  222.5340 C   0  0  0  0  0  0  0  0  0  0  0  0
  139.9190   78.9180  223.3070 C   0  0  0  0  0  0  0  0  0  0  0  0
  140.2890   80.2350  223.4820 C   0  0  0  0  0  0  0  0  0  0  0  0
  141.4410   80.7480  222.8960 C   0  0  0  0  0  0  0  0  0  0  0  0
  142.2240   79.9140  222.1240 C   0  0  0  0  0  0  0  0  0  0  0  0
  141.8450   78.5970  221.9550 C   0  0  0  0  0  0  0  0  0  0  0  0
  139.1080   76.1430  222.6770 C   0  0  0  0  0  0  0  0  0  0  0  0
  139.1530   74.8410  222.3400 N   0  0  0  0  0  0  0  0  0  0  0  0
  139.2100   70.6640  223.8040 C   0  0  0  0  0  0  0  0  0  0  0  0
  139.0700   69.3510  224.1320 C   0  0  0  0  0  0  0  0  0  0  0  0
  139.5130   68.8450  225.3500 C   0  0  0  0  0  0  0  0  0  0  0  0
  140.1090   69.7340  226.2320 C   0  0  0  0  0  0  0  0  0  0  0  0
  140.5480   69.2430  227.4340 C   0  0  0  0  0  0  0  0  0  0  0  0
  141.1440   70.1020  228.3260 C   0  0  0  0  0  0  0  0  0  0  0  0
  141.2840   71.4440  227.9880 C   0  0  0  0  0  0  0  0  0  0  0  0
  140.8410   71.9390  226.7750 C   0  0  0  0  0  0  0  0  0  0  0  0
  140.2450   71.0600  225.8870 C   0  0  0  0  0  0  0  0  0  0  0  0
  139.7940   71.5000  224.6850 N   0  0  0  0  0  0  0  0  0  0  0  0
  139.8070   69.7110  221.4210 H   0  0  0  0  0  0  0  0  0  0  0  0
  138.8236   70.3236  219.2745 H   0  0  0  0  0  0  0  0  0  0  0  0
  137.5344   71.1702  220.2941 H   0  0  0  0  0  0  0  0  0  0  0  0
  141.6377   72.8135  218.2943 H   0  0  0  0  0  0  0  0  0  0  0  0
  140.9004   74.4016  218.4310 H   0  0  0  0  0  0  0  0  0  0  0  0
  143.4368   73.7979  219.4742 H   0  0  0  0  0  0  0  0  0  0  0  0
  142.4597   75.0683  220.1786 H   0  0  0  0  0  0  0  0  0  0  0  0
  142.5756   72.0721  220.9959 H   0  0  0  0  0  0  0  0  0  0  0  0
  142.8491   73.4002  222.0644 H   0  0  0  0  0  0  0  0  0  0  0  0
  140.3392   72.5418  222.0674 H   0  0  0  0  0  0  0  0  0  0  0  0
  139.0037   78.5313  223.7789 H   0  0  0  0  0  0  0  0  0  0  0  0
  139.6594   80.8937  224.0983 H   0  0  0  0  0  0  0  0  0  0  0  0
  141.7234   81.8006  223.0452 H   0  0  0  0  0  0  0  0  0  0  0  0
  143.1401   80.2943  221.6484 H   0  0  0  0  0  0  0  0  0  0  0  0
  142.4719   77.9357  221.3388 H   0  0  0  0  0  0  0  0  0  0  0  0
  138.2591   76.6713  223.1355 H   0  0  0  0  0  0  0  0  0  0  0  0
  138.3440   74.2000  222.4960 H   0  0  0  0  0  0  0  0  0  0  0  0
  138.5924   68.6693  223.4129 H   0  0  0  0  0  0  0  0  0  0  0  0
  139.3951   67.7811  225.6036 H   0  0  0  0  0  0  0  0  0  0  0  0
  140.4252   68.1781  227.6809 H   0  0  0  0  0  0  0  0  0  0  0  0
  141.5063   69.7323  229.2966 H   0  0  0  0  0  0  0  0  0  0  0  0
  141.7597   72.1298  228.7045 H   0  0  0  0  0  0  0  0  0  0  0  0
  140.9591   73.0031  226.5225 H   0  0  0  0  0  0  0  0  0  0  0  0
  1  2  2  0
  2  3  1  0
  3  4  1  0
  4  5  1  0
  5  6  2  0
  5  7  1  0
  7  8  1  0
  8  9  1  0
  9 10  1  0
 10 11  1  0
 11 12  1  0
 12 13  2  0
 13 14  1  0
 14 15  1  0
 15 16  2  0
 16 17  1  0
 17 18  2  0
 18 19  1  0
 19 20  2  0
 14 21  2  0
 21 22  1  0
  2 23  1  0
 23 24  2  0
 24 25  1  0
 25 26  2  0
 26 27  1  0
 27 28  2  0
 28 29  1  0
 29 30  2  0
 30 31  1  0
 31 32  2  0
 11  7  1  0
 22 12  1  0
 32 23  1  0
 20 15  1  0
 31 26  1  0
  3 33  1  0
  4 34  1  0
  4 35  1  0
  8 36  1  0
  8 37  1  0
  9 38  1  0
  9 39  1  0
 10 40  1  0
 10 41  1  0
 11 42  1  1
 16 43  1  0
 17 44  1  0
 18 45  1  0
 19 46  1  0
 20 47  1  0
 21 48  1  0
 22 49  1  0
 24 50  1  0
 25 51  1  0
 27 52  1  0
 28 53  1  0
 29 54  1  0
 30 55  1  0
M  END
>  <smiles>  (18) 
O=C(NCC(=O)N1CCC[C@H]1c1nc(-c2ccccc2)c[nH]1)c1ccc2ccccc2n1

>  <score_type>  (18) 
oracle

>  <origin>  (18) 
autodockgpu

>  <m_score__min__energy>  (18) 
-9.4399999999999995

>  <m_primary>  (18) 
energy

>  <rmsd>  (18) 
3.1485205425515383

>  <m_score__min__rmsd>  (18) 
3.1485205425515383

>  <meeko>  (18) 
{"free_energy": -8.35, "intermolecular_energy": -10.14, "internal_energy": -2.65, "cluster_size": 24, "cluster_id": 2, "rank_in_cluster": 22}

>  <energy>  (18) 
-8.69

>  <cluster_rmsd>  (18) 
1.8

>  <cluster>  (18) 
2

$$$$

     RDKit          3D

 55 59  0  0  0  0  0  0  0  0999 V2000
  140.0100   73.1270  222.4090 O   0  0  0  0  0  0  0  0  0  0  0  0
  139.3910   72.0870  222.7880 C   0  0  0  0  0  0  0  0  0  0  0  0
  138.2690   71.6640  221.9750 N   0  0  0  0  0  0  0  0  0  0  0  0
  137.9870   72.4680  220.8370 C   0  0  0  0  0  0  0  0  0  0  0  0
  136.9000   73.4230  220.9790 C   0  0  0  0  0  0  0  0  0  0  0  0
  136.0560   73.3970  219.9850 O   0  0  0  0  0  0  0  0  0  0  0  0
  136.5920   74.3640  221.9860 N   0  0  0  0  0  0  0  0  0  0  0  0
  136.1730   74.1840  223.3650 C   0  0  0  0  0  0  0  0  0  0  0  0
  135.8550   75.6170  223.8450 C   0  0  0  0  0  0  0  0  0  0  0  0
  135.5740   76.3610  222.5400 C   0  0  0  0  0  0  0  0  0  0  0  0
  136.7020   75.8100  221.6990 C   0  0  1  0  0  0  0  0  0  0  0  0
  138.0120   76.3370  222.0890 C   0  0  0  0  0  0  0  0  0  0  0  0
  138.3830   77.6370  222.2500 N   0  0  0  0  0  0  0  0  0  0  0  0
  139.6600   77.7020  222.6100 C   0  0  0  0  0  0  0  0  0  0  0  0
  140.4570   78.8970  222.8860 C   0  0  0  0  0  0  0  0  0  0  0  0
  139.8710   80.1460  222.8420 C   0  0  0  0  0  0  0  0  0  0  0  0
  140.6360   81.2630  223.1040 C   0  0  0  0  0  0  0  0  0  0  0  0
  141.9890   81.1580  223.4130 C   0  0  0  0  0  0  0  0  0  0  0  0
  142.5680   79.9060  223.4550 C   0  0  0  0  0  0  0  0  0  0  0  0
  141.7920   78.7950  223.1900 C   0  0  0  0  0  0  0  0  0  0  0  0
  140.1240   76.4040  222.6820 C   0  0  0  0  0  0  0  0  0  0  0  0
  139.0950   75.5990  222.3590 N   0  0  0  0  0  0  0  0  0  0  0  0
  139.7810   71.3530  223.9730 C   0  0  0  0  0  0  0  0  0  0  0  0
  140.7000   71.9000  224.8130 C   0  0  0  0  0  0  0  0  0  0  0  0
  141.1190   71.2500  225.9690 C   0  0  0  0  0  0  0  0  0  0  0  0
  140.5630   70.0090  226.2420 C   0  0  0  0  0  0  0  0  0  0  0  0
  140.9720   69.3620  227.3790 C   0  0  0  0  0  0  0  0  0  0  0  0
  140.4360   68.1310  227.6730 C   0  0  0  0  0  0  0  0  0  0  0  0
  139.4980   67.5750  226.8110 C   0  0  0  0  0  0  0  0  0  0  0  0
  139.0850   68.2270  225.6640 C   0  0  0  0  0  0  0  0  0  0  0  0
  139.6340   69.4670  225.3830 C   0  0  0  0  0  0  0  0  0  0  0  0
  139.2600   70.1450  224.2680 N   0  0  0  0  0  0  0  0  0  0  0  0
  137.7960   70.8230  222.3230 H   0  0  0  0  0  0  0  0  0  0  0  0
  138.8988   73.0317  220.5901 H   0  0  0  0  0  0  0  0  0  0  0  0
  137.6622   71.7666  220.0543 H   0  0  0  0  0  0  0  0  0  0  0  0
  135.2799   73.5444  223.4226 H   0  0  0  0  0  0  0  0  0  0  0  0
  136.9390   73.6899  223.9807 H   0  0  0  0  0  0  0  0  0  0  0  0
  134.9741   75.6272  224.5037 H   0  0  0  0  0  0  0  0  0  0  0  0
  136.6669   76.0672  224.4350 H   0  0  0  0  0  0  0  0  0  0  0  0
  134.5881   76.1052  222.1246 H   0  0  0  0  0  0  0  0  0  0  0  0
  135.5395   77.4575  222.6212 H   0  0  0  0  0  0  0  0  0  0  0  0
  136.6252   76.0757  220.6343 H   0  0  0  0  0  0  0  0  0  0  0  0
  138.8029   80.2494  222.6000 H   0  0  0  0  0  0  0  0  0  0  0  0
  140.1673   82.2575  223.0681 H   0  0  0  0  0  0  0  0  0  0  0  0
  142.5868   82.0578  223.6202 H   0  0  0  0  0  0  0  0  0  0  0  0
  143.6353   79.7944  223.6968 H   0  0  0  0  0  0  0  0  0  0  0  0
  142.2572   77.7988  223.2234 H   0  0  0  0  0  0  0  0  0  0  0  0
  141.1422   76.0874  222.9523 H   0  0  0  0  0  0  0  0  0  0  0  0
  139.1890   74.5590  222.3400 H   0  0  0  0  0  0  0  0  0  0  0  0
  141.1244   72.8856  224.5711 H   0  0  0  0  0  0  0  0  0  0  0  0
  141.8629   71.7028  226.6410 H   0  0  0  0  0  0  0  0  0  0  0  0
  141.7173   69.8206  228.0455 H   0  0  0  0  0  0  0  0  0  0  0  0
  140.7459   67.5918  228.5803 H   0  0  0  0  0  0  0  0  0  0  0  0
  139.0724   66.5887  227.0481 H   0  0  0  0  0  0  0  0  0  0  0  0
  138.3408   67.7733  224.9930 H   0  0  0  0  0  0  0  0  0  0  0  0
  1  2  2  0
  2  3  1  0
  3  4  1  0
  4  5  1  0
  5  6  2  0
  5  7  1  0
  7  8  1  0
  8  9  1  0
  9 10  1  0
 10 11  1  0
 11 12  1  0
 12 13  2  0
 13 14  1  0
 14 15  1  0
 15 16  2  0
 16 17  1  0
 17 18  2  0
 18 19  1  0
 19 20  2  0
 14 21  2  0
 21 22  1  0
  2 23  1  0
 23 24  2  0
 24 25  1  0
 25 26  2  0
 26 27  1  0
 27 28  2  0
 28 29  1  0
 29 30  2  0
 30 31  1  0
 31 32  2  0
 11  7  1  0
 22 12  1  0
 32 23  1  0
 20 15  1  0
 31 26  1  0
  3 33  1  0
  4 34  1  0
  4 35  1  0
  8 36  1  0
  8 37  1  0
  9 38  1  0
  9 39  1  0
 10 40  1  0
 10 41  1  0
 11 42  1  6
 16 43  1  0
 17 44  1  0
 18 45  1  0
 19 46  1  0
 20 47  1  0
 21 48  1  0
 22 49  1  0
 24 50  1  0
 25 51  1  0
 27 52  1  0
 28 53  1  0
 29 54  1  0
 30 55  1  0
M  END
>  <smiles>  (19) 
O=C(NCC(=O)N1CCC[C@H]1c1nc(-c2ccccc2)c[nH]1)c1ccc2ccccc2n1

>  <score_type>  (19) 
oracle

>  <origin>  (19) 
autodockgpu

>  <m_score__min__energy>  (19) 
-9.4399999999999995

>  <m_primary>  (19) 
energy

>  <rmsd>  (19) 
4.3245311856282616

>  <m_score__min__rmsd>  (19) 
4.3245311856282616

>  <meeko>  (19) 
{"free_energy": -8.71, "intermolecular_energy": -10.5, "internal_energy": -2.84, "cluster_size": 24, "cluster_id": 2, "rank_in_cluster": 16}

>  <energy>  (19) 
-8.67

>  <cluster_rmsd>  (19) 
1.72

>  <cluster>  (19) 
2

$$$$

     RDKit          3D

 55 59  0  0  0  0  0  0  0  0999 V2000
  138.9360   75.1420  222.0900 O   0  0  0  0  0  0  0  0  0  0  0  0
  140.0660   75.7180  222.0540 C   0  0  0  0  0  0  0  0  0  0  0  0
  141.1880   74.9220  221.5990 N   0  0  0  0  0  0  0  0  0  0  0  0
  140.8940   73.5780  221.2410 C   0  0  0  0  0  0  0  0  0  0  0  0
  142.0300   72.7490  220.8710 C   0  0  0  0  0  0  0  0  0  0  0  0
  141.8870   71.4970  221.2070 O   0  0  0  0  0  0  0  0  0  0  0  0
  143.2470   73.0470  220.2200 N   0  0  0  0  0  0  0  0  0  0  0  0
  143.9600   72.3510  219.1640 C   0  0  0  0  0  0  0  0  0  0  0  0
  145.2890   73.1290  219.0400 C   0  0  0  0  0  0  0  0  0  0  0  0
  145.4220   73.7990  220.4070 C   0  0  0  0  0  0  0  0  0  0  0  0
  143.9970   74.2670  220.5870 C   0  0  1  0  0  0  0  0  0  0  0  0
  143.6530   75.3930  219.7140 C   0  0  0  0  0  0  0  0  0  0  0  0
  143.0640   76.5720  220.0520 N   0  0  0  0  0  0  0  0  0  0  0  0
  142.9200   77.3320  218.9730 C   0  0  0  0  0  0  0  0  0  0  0  0
  142.3370   78.6710  218.8870 C   0  0  0  0  0  0  0  0  0  0  0  0
  141.3380   79.0490  219.7610 C   0  0  0  0  0  0  0  0  0  0  0  0
  140.7980   80.3140  219.6670 C   0  0  0  0  0  0  0  0  0  0  0  0
  141.2390   81.2200  218.7080 C   0  0  0  0  0  0  0  0  0  0  0  0
  142.2380   80.8360  217.8370 C   0  0  0  0  0  0  0  0  0  0  0  0
  142.7710   79.5660  217.9400 C   0  0  0  0  0  0  0  0  0  0  0  0
  143.4320   76.6200  217.9080 C   0  0  0  0  0  0  0  0  0  0  0  0
  143.8700   75.4440  218.3940 N   0  0  0  0  0  0  0  0  0  0  0  0
  140.2340   77.1000  222.4480 C   0  0  0  0  0  0  0  0  0  0  0  0
  139.1290   77.8560  222.6860 C   0  0  0  0  0  0  0  0  0  0  0  0
  139.2170   79.1900  223.0680 C   0  0  0  0  0  0  0  0  0  0  0  0
  140.4860   79.7350  223.1990 C   0  0  0  0  0  0  0  0  0  0  0  0
  140.5820   81.0490  223.5740 C   0  0  0  0  0  0  0  0  0  0  0  0
  141.8270   81.6130  223.7120 C   0  0  0  0  0  0  0  0  0  0  0  0
  142.9550   80.8380  223.4650 C   0  0  0  0  0  0  0  0  0  0  0  0
  142.8590   79.5120  223.0860 C   0  0  0  0  0  0  0  0  0  0  0  0
  141.5970   78.9580  222.9540 C   0  0  0  0  0  0  0  0  0  0  0  0
  141.4520   77.6600  222.5840 N   0  0  0  0  0  0  0  0  0  0  0  0
  142.0810   75.4270  221.5930 H   0  0  0  0  0  0  0  0  0  0  0  0
  140.3974   73.1029  222.0999 H   0  0  0  0  0  0  0  0  0  0  0  0
  140.2707   73.6438  220.3370 H   0  0  0  0  0  0  0  0  0  0  0  0
  144.1443   71.3025  219.4410 H   0  0  0  0  0  0  0  0  0  0  0  0
  143.3963   72.3197  218.2199 H   0  0  0  0  0  0  0  0  0  0  0  0
  146.1307   72.4467  218.8503 H   0  0  0  0  0  0  0  0  0  0  0  0
  145.2974   73.8435  218.2037 H   0  0  0  0  0  0  0  0  0  0  0  0
  145.7223   73.0848  221.1878 H   0  0  0  0  0  0  0  0  0  0  0  0
  146.1879   74.5858  220.4733 H   0  0  0  0  0  0  0  0  0  0  0  0
  143.7861   74.6513  221.5959 H   0  0  0  0  0  0  0  0  0  0  0  0
  140.9756   78.3468  220.5262 H   0  0  0  0  0  0  0  0  0  0  0  0
  140.0020   80.6131  220.3648 H   0  0  0  0  0  0  0  0  0  0  0  0
  140.7986   82.2260  218.6450 H   0  0  0  0  0  0  0  0  0  0  0  0
  142.6056   81.5332  217.0697 H   0  0  0  0  0  0  0  0  0  0  0  0
  143.5663   79.2625  217.2432 H   0  0  0  0  0  0  0  0  0  0  0  0
  143.4742   76.9510  216.8598 H   0  0  0  0  0  0  0  0  0  0  0  0
  144.3070   74.7190  217.7820 H   0  0  0  0  0  0  0  0  0  0  0  0
  138.1352   77.3982  222.5729 H   0  0  0  0  0  0  0  0  0  0  0  0
  138.3151   79.7901  223.2590 H   0  0  0  0  0  0  0  0  0  0  0  0
  139.6758   81.6436  223.7618 H   0  0  0  0  0  0  0  0  0  0  0  0
  141.9305   82.6655  224.0144 H   0  0  0  0  0  0  0  0  0  0  0  0
  143.9508   81.2925  223.5742 H   0  0  0  0  0  0  0  0  0  0  0  0
  143.7614   78.9129  222.8944 H   0  0  0  0  0  0  0  0  0  0  0  0
  1  2  2  0
  2  3  1  0
  3  4  1  0
  4  5  1  0
  5  6  2  0
  5  7  1  0
  7  8  1  0
  8  9  1  0
  9 10  1  0
 10 11  1  0
 11 12  1  0
 12 13  2  0
 13 14  1  0
 14 15  1  0
 15 16  2  0
 16 17  1  0
 17 18  2  0
 18 19  1  0
 19 20  2  0
 14 21  2  0
 21 22  1  0
  2 23  1  0
 23 24  2  0
 24 25  1  0
 25 26  2  0
 26 27  1  0
 27 28  2  0
 28 29  1  0
 29 30  2  0
 30 31  1  0
 31 32  2  0
 11  7  1  0
 22 12  1  0
 32 23  1  0
 20 15  1  0
 31 26  1  0
  3 33  1  0
  4 34  1  0
  4 35  1  0
  8 36  1  0
  8 37  1  0
  9 38  1  0
  9 39  1  0
 10 40  1  0
 10 41  1  0
 11 42  1  1
 16 43  1  0
 17 44  1  0
 18 45  1  0
 19 46  1  0
 20 47  1  0
 21 48  1  0
 22 49  1  0
 24 50  1  0
 25 51  1  0
 27 52  1  0
 28 53  1  0
 29 54  1  0
 30 55  1  0
M  END
>  <smiles>  (20) 
O=C(NCC(=O)N1CCC[C@H]1c1nc(-c2ccccc2)c[nH]1)c1ccc2ccccc2n1

>  <score_type>  (20) 
oracle

>  <origin>  (20) 
autodockgpu

>  <m_score__min__energy>  (20) 
-9.4399999999999995

>  <m_primary>  (20) 
energy

>  <rmsd>  (20) 
7.014551954426059

>  <m_score__min__rmsd>  (20) 
7.014551954426059

>  <meeko>  (20) 
{"free_energy": -8.04, "intermolecular_energy": -9.83, "internal_energy": -3.63, "cluster_size": 20, "cluster_id": 4, "rank_in_cluster": 1}

>  <energy>  (20) 
-8.67

>  <cluster_rmsd>  (20) 
1.95

>  <cluster>  (20) 
2

$$$$

     RDKit          3D

 55 59  0  0  0  0  0  0  0  0999 V2000
  138.1800   69.9540  221.7890 O   0  0  0  0  0  0  0  0  0  0  0  0
  138.3060   70.7030  222.8040 C   0  0  0  0  0  0  0  0  0  0  0  0
  137.8100   72.0590  222.6790 N   0  0  0  0  0  0  0  0  0  0  0  0
  137.2340   72.3980  221.4240 C   0  0  0  0  0  0  0  0  0  0  0  0
  138.1640   72.6160  220.3280 C   0  0  0  0  0  0  0  0  0  0  0  0
  137.6640   72.3240  219.1600 O   0  0  0  0  0  0  0  0  0  0  0  0
  139.4960   73.0830  220.2960 N   0  0  0  0  0  0  0  0  0  0  0  0
  140.3720   73.3980  219.1810 C   0  0  0  0  0  0  0  0  0  0  0  0
  141.7310   73.6960  219.8500 C   0  0  0  0  0  0  0  0  0  0  0  0
  141.6240   72.9620  221.1860 C   0  0  0  0  0  0  0  0  0  0  0  0
  140.2120   73.3480  221.5630 C   0  0  1  0  0  0  0  0  0  0  0  0
  140.0940   74.7530  221.9620 C   0  0  0  0  0  0  0  0  0  0  0  0
  141.0450   75.7260  221.9100 N   0  0  0  0  0  0  0  0  0  0  0  0
  140.5460   76.8700  222.3640 C   0  0  0  0  0  0  0  0  0  0  0  0
  141.2220   78.1620  222.4810 C   0  0  0  0  0  0  0  0  0  0  0  0
  141.5930   78.6380  223.7220 C   0  0  0  0  0  0  0  0  0  0  0  0
  142.2290   79.8590  223.8170 C   0  0  0  0  0  0  0  0  0  0  0  0
  142.5040   80.6220  222.6860 C   0  0  0  0  0  0  0  0  0  0  0  0
  142.1290   80.1390  221.4490 C   0  0  0  0  0  0  0  0  0  0  0  0
  141.4930   78.9170  221.3670 C   0  0  0  0  0  0  0  0  0  0  0  0
  139.2340   76.6250  222.7190 C   0  0  0  0  0  0  0  0  0  0  0  0
  138.9930   75.3270  222.4610 N   0  0  0  0  0  0  0  0  0  0  0  0
  138.9150   70.2350  224.0310 C   0  0  0  0  0  0  0  0  0  0  0  0
  138.9580   68.8980  224.2760 C   0  0  0  0  0  0  0  0  0  0  0  0
  139.5280   68.3790  225.4340 C   0  0  0  0  0  0  0  0  0  0  0  0
  140.0570   69.2820  226.3450 C   0  0  0  0  0  0  0  0  0  0  0  0
  140.6200   68.7780  227.4880 C   0  0  0  0  0  0  0  0  0  0  0  0
  141.1530   69.6500  228.4070 C   0  0  0  0  0  0  0  0  0  0  0  0
  141.1050   71.0170  228.1540 C   0  0  0  0  0  0  0  0  0  0  0  0
  140.5370   71.5250  227.0000 C   0  0  0  0  0  0  0  0  0  0  0  0
  140.0070   70.6330  226.0840 C   0  0  0  0  0  0  0  0  0  0  0  0
  139.4380   71.0840  224.9370 N   0  0  0  0  0  0  0  0  0  0  0  0
  137.9390   72.6290  223.5220 H   0  0  0  0  0  0  0  0  0  0  0  0
  136.5584   71.5801  221.1331 H   0  0  0  0  0  0  0  0  0  0  0  0
  136.7336   73.3648  221.5817 H   0  0  0  0  0  0  0  0  0  0  0  0
  140.4532   72.5433  218.4934 H   0  0  0  0  0  0  0  0  0  0  0  0
  140.0032   74.2394  218.5760 H   0  0  0  0  0  0  0  0  0  0  0  0
  142.5630   73.3021  219.2479 H   0  0  0  0  0  0  0  0  0  0  0  0
  141.9332   74.7715  219.9610 H   0  0  0  0  0  0  0  0  0  0  0  0
  141.7354   71.8741  221.0678 H   0  0  0  0  0  0  0  0  0  0  0  0
  142.3956   73.2183  221.9269 H   0  0  0  0  0  0  0  0  0  0  0  0
  139.8255   72.7997  222.4348 H   0  0  0  0  0  0  0  0  0  0  0  0
  141.3836   78.0494  224.6274 H   0  0  0  0  0  0  0  0  0  0  0  0
  142.5246   80.2369  224.8068 H   0  0  0  0  0  0  0  0  0  0  0  0
  143.0117   81.5936  222.7767 H   0  0  0  0  0  0  0  0  0  0  0  0
  142.3346   80.7213  220.5387 H   0  0  0  0  0  0  0  0  0  0  0  0
  141.1942   78.5365  220.3791 H   0  0  0  0  0  0  0  0  0  0  0  0
  138.5214   77.3530  223.1339 H   0  0  0  0  0  0  0  0  0  0  0  0
  138.0620   74.8890  222.6440 H   0  0  0  0  0  0  0  0  0  0  0  0
  138.5291   68.2061  223.5362 H   0  0  0  0  0  0  0  0  0  0  0  0
  139.5581   67.2953  225.6201 H   0  0  0  0  0  0  0  0  0  0  0  0
  140.6450   67.6930  227.6672 H   0  0  0  0  0  0  0  0  0  0  0  0
  141.6123   69.2712  229.3320 H   0  0  0  0  0  0  0  0  0  0  0  0
  141.5305   71.7129  228.8920 H   0  0  0  0  0  0  0  0  0  0  0  0
  140.5072   72.6089  226.8150 H   0  0  0  0  0  0  0  0  0  0  0  0
  1  2  2  0
  2  3  1  0
  3  4  1  0
  4  5  1  0
  5  6  2  0
  5  7  1  0
  7  8  1  0
  8  9  1  0
  9 10  1  0
 10 11  1  0
 11 12  1  0
 12 13  2  0
 13 14  1  0
 14 15  1  0
 15 16  2  0
 16 17  1  0
 17 18  2  0
 18 19  1  0
 19 20  2  0
 14 21  2  0
 21 22  1  0
  2 23  1  0
 23 24  2  0
 24 25  1  0
 25 26  2  0
 26 27  1  0
 27 28  2  0
 28 29  1  0
 29 30  2  0
 30 31  1  0
 31 32  2  0
 11  7  1  0
 22 12  1  0
 32 23  1  0
 20 15  1  0
 31 26  1  0
  3 33  1  0
  4 34  1  0
  4 35  1  0
  8 36  1  0
  8 37  1  0
  9 38  1  0
  9 39  1  0
 10 40  1  0
 10 41  1  0
 11 42  1  1
 16 43  1  0
 17 44  1  0
 18 45  1  0
 19 46  1  0
 20 47  1  0
 21 48  1  0
 22 49  1  0
 24 50  1  0
 25 51  1  0
 27 52  1  0
 28 53  1  0
 29 54  1  0
 30 55  1  0
M  END
>  <smiles>  (21) 
O=C(NCC(=O)N1CCC[C@H]1c1nc(-c2ccccc2)c[nH]1)c1ccc2ccccc2n1

>  <score_type>  (21) 
oracle

>  <origin>  (21) 
autodockgpu

>  <m_score__min__energy>  (21) 
-9.4399999999999995

>  <m_primary>  (21) 
energy

>  <rmsd>  (21) 
3.0512287428110416

>  <m_score__min__rmsd>  (21) 
3.0512287428110416

>  <meeko>  (21) 
{"free_energy": -9.27, "intermolecular_energy": -11.06, "internal_energy": -2.09, "cluster_size": 24, "cluster_id": 2, "rank_in_cluster": 2}

>  <energy>  (21) 
-8.62

>  <cluster_rmsd>  (21) 
1.93

>  <cluster>  (21) 
2

$$$$

     RDKit          3D

 55 59  0  0  0  0  0  0  0  0999 V2000
  140.2810   73.3860  222.7060 O   0  0  0  0  0  0  0  0  0  0  0  0
  139.8100   72.2090  222.6930 C   0  0  0  0  0  0  0  0  0  0  0  0
  139.2050   71.7630  221.4550 N   0  0  0  0  0  0  0  0  0  0  0  0
  139.2090   72.7010  220.3870 C   0  0  0  0  0  0  0  0  0  0  0  0
  138.0460   73.5690  220.2890 C   0  0  0  0  0  0  0  0  0  0  0  0
  137.3210   73.3440  219.2290 O   0  0  0  0  0  0  0  0  0  0  0  0
  137.5610   74.5990  221.1240 N   0  0  0  0  0  0  0  0  0  0  0  0
  136.8300   74.5480  222.3780 C   0  0  0  0  0  0  0  0  0  0  0  0
  136.4790   76.0250  222.6620 C   0  0  0  0  0  0  0  0  0  0  0  0
  136.5390   76.6640  221.2760 C   0  0  0  0  0  0  0  0  0  0  0  0
  137.8010   76.0130  220.7620 C   0  0  1  0  0  0  0  0  0  0  0  0
  139.0120   76.5330  221.4040 C   0  0  0  0  0  0  0  0  0  0  0  0
  139.3020   77.8210  221.7350 N   0  0  0  0  0  0  0  0  0  0  0  0
  140.5010   77.8830  222.3010 C   0  0  0  0  0  0  0  0  0  0  0  0
  141.1980   79.0670  222.8060 C   0  0  0  0  0  0  0  0  0  0  0  0
  140.4800   80.1130  223.3500 C   0  0  0  0  0  0  0  0  0  0  0  0
  141.1520   81.2220  223.8200 C   0  0  0  0  0  0  0  0  0  0  0  0
  142.5390   81.3090  223.7580 C   0  0  0  0  0  0  0  0  0  0  0  0
  143.2490   80.2600  223.2120 C   0  0  0  0  0  0  0  0  0  0  0  0
  142.5660   79.1550  222.7440 C   0  0  0  0  0  0  0  0  0  0  0  0
  140.9980   76.5960  222.3360 C   0  0  0  0  0  0  0  0  0  0  0  0
  140.0650   75.7990  221.7820 N   0  0  0  0  0  0  0  0  0  0  0  0
  139.8690   71.3470  223.8550 C   0  0  0  0  0  0  0  0  0  0  0  0
  139.3450   70.0950  223.7720 C   0  0  0  0  0  0  0  0  0  0  0  0
  139.3680   69.2140  224.8490 C   0  0  0  0  0  0  0  0  0  0  0  0
  139.9480   69.6610  226.0270 C   0  0  0  0  0  0  0  0  0  0  0  0
  139.9740   68.7990  227.0920 C   0  0  0  0  0  0  0  0  0  0  0  0
  140.5440   69.2160  228.2710 C   0  0  0  0  0  0  0  0  0  0  0  0
  141.0770   70.4980  228.3520 C   0  0  0  0  0  0  0  0  0  0  0  0
  141.0510   71.3680  227.2780 C   0  0  0  0  0  0  0  0  0  0  0  0
  140.4740   70.9320  226.0970 C   0  0  0  0  0  0  0  0  0  0  0  0
  140.4250   71.7490  225.0150 N   0  0  0  0  0  0  0  0  0  0  0  0
  138.8320   70.8080  221.4930 H   0  0  0  0  0  0  0  0  0  0  0  0
  140.0959   73.3407  220.5058 H   0  0  0  0  0  0  0  0  0  0  0  0
  139.2045   72.0985  219.4667 H   0  0  0  0  0  0  0  0  0  0  0  0
  135.9181   73.9415  222.2753 H   0  0  0  0  0  0  0  0  0  0  0  0
  137.4108   74.0858  223.1898 H   0  0  0  0  0  0  0  0  0  0  0  0
  135.4724   76.1159  223.0962 H   0  0  0  0  0  0  0  0  0  0  0  0
  137.1552   76.4997  223.3883 H   0  0  0  0  0  0  0  0  0  0  0  0
  135.6629   76.4026  220.6644 H   0  0  0  0  0  0  0  0  0  0  0  0
  136.5391   77.7639  221.2648 H   0  0  0  0  0  0  0  0  0  0  0  0
  137.9808   76.1910  219.6915 H   0  0  0  0  0  0  0  0  0  0  0  0
  139.3827   80.0625  223.4081 H   0  0  0  0  0  0  0  0  0  0  0  0
  140.5791   82.0552  224.2530 H   0  0  0  0  0  0  0  0  0  0  0  0
  143.0609   82.1996  224.1381 H   0  0  0  0  0  0  0  0  0  0  0  0
  144.3464   80.3032  223.1502 H   0  0  0  0  0  0  0  0  0  0  0  0
  143.1353   78.3206  222.3086 H   0  0  0  0  0  0  0  0  0  0  0  0
  141.9715   76.2812  222.7398 H   0  0  0  0  0  0  0  0  0  0  0  0
  140.2010   74.7680  221.6880 H   0  0  0  0  0  0  0  0  0  0  0  0
  138.8894   69.7689  222.8254 H   0  0  0  0  0  0  0  0  0  0  0  0
  138.9428   68.2026  224.7692 H   0  0  0  0  0  0  0  0  0  0  0  0
  139.5456   67.7896  227.0046 H   0  0  0  0  0  0  0  0  0  0  0  0
  140.5783   68.5434  229.1407 H   0  0  0  0  0  0  0  0  0  0  0  0
  141.5320   70.8290  229.2972 H   0  0  0  0  0  0  0  0  0  0  0  0
  141.4770   72.3789  227.3593 H   0  0  0  0  0  0  0  0  0  0  0  0
  1  2  2  0
  2  3  1  0
  3  4  1  0
  4  5  1  0
  5  6  2  0
  5  7  1  0
  7  8  1  0
  8  9  1  0
  9 10  1  0
 10 11  1  0
 11 12  1  0
 12 13  2  0
 13 14  1  0
 14 15  1  0
 15 16  2  0
 16 17  1  0
 17 18  2  0
 18 19  1  0
 19 20  2  0
 14 21  2  0
 21 22  1  0
  2 23  1  0
 23 24  2  0
 24 25  1  0
 25 26  2  0
 26 27  1  0
 27 28  2  0
 28 29  1  0
 29 30  2  0
 30 31  1  0
 31 32  2  0
 11  7  1  0
 22 12  1  0
 32 23  1  0
 20 15  1  0
 31 26  1  0
  3 33  1  0
  4 34  1  0
  4 35  1  0
  8 36  1  0
  8 37  1  0
  9 38  1  0
  9 39  1  0
 10 40  1  0
 10 41  1  0
 11 42  1  6
 16 43  1  0
 17 44  1  0
 18 45  1  0
 19 46  1  0
 20 47  1  0
 21 48  1  0
 22 49  1  0
 24 50  1  0
 25 51  1  0
 27 52  1  0
 28 53  1  0
 29 54  1  0
 30 55  1  0
M  END
>  <smiles>  (22) 
O=C(NCC(=O)N1CCC[C@H]1c1nc(-c2ccccc2)c[nH]1)c1ccc2ccccc2n1

>  <score_type>  (22) 
oracle

>  <origin>  (22) 
autodockgpu

>  <m_score__min__energy>  (22) 
-9.4399999999999995

>  <m_primary>  (22) 
energy

>  <rmsd>  (22) 
3.3730748733355993

>  <m_score__min__rmsd>  (22) 
3.3730748733355993

>  <meeko>  (22) 
{"free_energy": -8.98, "intermolecular_energy": -10.77, "internal_energy": -2.46, "cluster_size": 24, "cluster_id": 2, "rank_in_cluster": 5}

>  <energy>  (22) 
-8.43

>  <cluster_rmsd>  (22) 
1.86

>  <cluster>  (22) 
2

$$$$

     RDKit          3D

 55 59  0  0  0  0  0  0  0  0999 V2000
  140.0120   73.4840  222.3840 O   0  0  0  0  0  0  0  0  0  0  0  0
  140.5310   72.3360  222.5310 C   0  0  0  0  0  0  0  0  0  0  0  0
  141.4030   71.8750  221.4700 N   0  0  0  0  0  0  0  0  0  0  0  0
  141.5810   72.7670  220.3780 C   0  0  0  0  0  0  0  0  0  0  0  0
  140.3720   73.1890  219.6890 C   0  0  0  0  0  0  0  0  0  0  0  0
  139.5510   72.2080  219.4370 O   0  0  0  0  0  0  0  0  0  0  0  0
  139.9270   74.4550  219.2480 N   0  0  0  0  0  0  0  0  0  0  0  0
  138.6230   74.9040  218.7940 C   0  0  0  0  0  0  0  0  0  0  0  0
  138.8760   76.3490  218.3130 C   0  0  0  0  0  0  0  0  0  0  0  0
  140.3740   76.3530  218.0120 C   0  0  0  0  0  0  0  0  0  0  0  0
  140.8670   75.5960  219.2220 C   0  0  1  0  0  0  0  0  0  0  0  0
  140.7900   76.3820  220.4560 C   0  0  0  0  0  0  0  0  0  0  0  0
  141.4100   77.5590  220.7450 N   0  0  0  0  0  0  0  0  0  0  0  0
  141.0840   77.9540  221.9700 C   0  0  0  0  0  0  0  0  0  0  0  0
  141.5250   79.1580  222.6750 C   0  0  0  0  0  0  0  0  0  0  0  0
  140.5950   80.0540  223.1620 C   0  0  0  0  0  0  0  0  0  0  0  0
  141.0260   81.1840  223.8240 C   0  0  0  0  0  0  0  0  0  0  0  0
  142.3810   81.4420  224.0120 C   0  0  0  0  0  0  0  0  0  0  0  0
  143.3040   80.5410  223.5210 C   0  0  0  0  0  0  0  0  0  0  0  0
  142.8610   79.4130  222.8600 C   0  0  0  0  0  0  0  0  0  0  0  0
  140.2290   77.0010  222.4860 C   0  0  0  0  0  0  0  0  0  0  0  0
  140.0710   76.0590  221.5380 N   0  0  0  0  0  0  0  0  0  0  0  0
  140.2690   71.5200  223.6970 C   0  0  0  0  0  0  0  0  0  0  0  0
  139.5320   70.3850  223.5550 C   0  0  0  0  0  0  0  0  0  0  0  0
  139.2430   69.5550  224.6330 C   0  0  0  0  0  0  0  0  0  0  0  0
  139.7340   69.9270  225.8750 C   0  0  0  0  0  0  0  0  0  0  0  0
  139.4530   69.1140  226.9420 C   0  0  0  0  0  0  0  0  0  0  0  0
  139.9290   69.4590  228.1850 C   0  0  0  0  0  0  0  0  0  0  0  0
  140.6800   70.6200  228.3270 C   0  0  0  0  0  0  0  0  0  0  0  0
  140.9640   71.4400  227.2500 C   0  0  0  0  0  0  0  0  0  0  0  0
  140.4790   71.0780  226.0050 C   0  0  0  0  0  0  0  0  0  0  0  0
  140.7310   71.8520  224.9190 N   0  0  0  0  0  0  0  0  0  0  0  0
  141.7940   70.9390  221.6290 H   0  0  0  0  0  0  0  0  0  0  0  0
  142.0817   73.6690  220.7598 H   0  0  0  0  0  0  0  0  0  0  0  0
  142.1638   72.2063  219.6324 H   0  0  0  0  0  0  0  0  0  0  0  0
  138.2577   74.2749  217.9689 H   0  0  0  0  0  0  0  0  0  0  0  0
  137.8564   74.8464  219.5807 H   0  0  0  0  0  0  0  0  0  0  0  0
  138.2904   76.5732  217.4092 H   0  0  0  0  0  0  0  0  0  0  0  0
  138.5797   77.1097  219.0503 H   0  0  0  0  0  0  0  0  0  0  0  0
  140.6066   75.8266  217.0745 H   0  0  0  0  0  0  0  0  0  0  0  0
  140.8216   77.3469  217.8642 H   0  0  0  0  0  0  0  0  0  0  0  0
  141.9294   75.3174  219.1607 H   0  0  0  0  0  0  0  0  0  0  0  0
  139.5197   79.8683  223.0232 H   0  0  0  0  0  0  0  0  0  0  0  0
  140.2834   81.8968  224.2119 H   0  0  0  0  0  0  0  0  0  0  0  0
  142.7101   82.3477  224.5424 H   0  0  0  0  0  0  0  0  0  0  0  0
  144.3811   80.7198  223.6549 H   0  0  0  0  0  0  0  0  0  0  0  0
  143.6001   78.6977  222.4702 H   0  0  0  0  0  0  0  0  0  0  0  0
  139.7648   77.0099  223.4832 H   0  0  0  0  0  0  0  0  0  0  0  0
  139.4630   75.2220  221.6830 H   0  0  0  0  0  0  0  0  0  0  0  0
  139.1535   70.1159  222.5579 H   0  0  0  0  0  0  0  0  0  0  0  0
  138.6478   68.6388  224.5050 H   0  0  0  0  0  0  0  0  0  0  0  0
  138.8562   68.2000  226.8061 H   0  0  0  0  0  0  0  0  0  0  0  0
  139.7178   68.8232  229.0574 H   0  0  0  0  0  0  0  0  0  0  0  0
  141.0586   70.8940  229.3228 H   0  0  0  0  0  0  0  0  0  0  0  0
  141.5596   72.3557  227.3794 H   0  0  0  0  0  0  0  0  0  0  0  0
  1  2  2  0
  2  3  1  0
  3  4  1  0
  4  5  1  0
  5  6  2  0
  5  7  1  0
  7  8  1  0
  8  9  1  0
  9 10  1  0
 10 11  1  0
 11 12  1  0
 12 13  2  0
 13 14  1  0
 14 15  1  0
 15 16  2  0
 16 17  1  0
 17 18  2  0
 18 19  1  0
 19 20  2  0
 14 21  2  0
 21 22  1  0
  2 23  1  0
 23 24  2  0
 24 25  1  0
 25 26  2  0
 26 27  1  0
 27 28  2  0
 28 29  1  0
 29 30  2  0
 30 31  1  0
 31 32  2  0
 11  7  1  0
 22 12  1  0
 32 23  1  0
 20 15  1  0
 31 26  1  0
  3 33  1  0
  4 34  1  0
  4 35  1  0
  8 36  1  0
  8 37  1  0
  9 38  1  0
  9 39  1  0
 10 40  1  0
 10 41  1  0
 11 42  1  6
 16 43  1  0
 17 44  1  0
 18 45  1  0
 19 46  1  0
 20 47  1  0
 21 48  1  0
 22 49  1  0
 24 50  1  0
 25 51  1  0
 27 52  1  0
 28 53  1  0
 29 54  1  0
 30 55  1  0
M  END
>  <smiles>  (23) 
O=C(NCC(=O)N1CCC[C@H]1c1nc(-c2ccccc2)c[nH]1)c1ccc2ccccc2n1

>  <score_type>  (23) 
oracle

>  <origin>  (23) 
autodockgpu

>  <m_score__min__energy>  (23) 
-9.4399999999999995

>  <m_primary>  (23) 
energy

>  <rmsd>  (23) 
2.6310581782575

>  <m_score__min__rmsd>  (23) 
2.6310581782575

>  <meeko>  (23) 
{"free_energy": -8.62, "intermolecular_energy": -10.41, "internal_energy": -2.37, "cluster_size": 24, "cluster_id": 2, "rank_in_cluster": 20}

>  <energy>  (23) 
-8.35

>  <cluster_rmsd>  (23) 
1.29

>  <cluster>  (23) 
2

$$$$

     RDKit          3D

 55 59  0  0  0  0  0  0  0  0999 V2000
  139.3970   70.8830  221.9460 O   0  0  0  0  0  0  0  0  0  0  0  0
  138.9030   71.2760  223.0450 C   0  0  0  0  0  0  0  0  0  0  0  0
  137.6810   72.0500  222.9690 N   0  0  0  0  0  0  0  0  0  0  0  0
  137.1700   72.2810  221.6630 C   0  0  0  0  0  0  0  0  0  0  0  0
  137.7600   73.3890  220.9290 C   0  0  0  0  0  0  0  0  0  0  0  0
  136.8790   74.1420  220.3310 O   0  0  0  0  0  0  0  0  0  0  0  0
  139.1000   73.7960  220.7460 N   0  0  0  0  0  0  0  0  0  0  0  0
  139.9340   73.8310  219.5580 C   0  0  0  0  0  0  0  0  0  0  0  0
  141.3270   74.2260  220.0950 C   0  0  0  0  0  0  0  0  0  0  0  0
  141.2600   73.8070  221.5630 C   0  0  0  0  0  0  0  0  0  0  0  0
  139.8750   74.3090  221.8960 C   0  0  1  0  0  0  0  0  0  0  0  0
  139.8060   75.7710  221.9810 C   0  0  0  0  0  0  0  0  0  0  0  0
  140.7240   76.6290  222.5030 N   0  0  0  0  0  0  0  0  0  0  0  0
  140.2910   77.8790  222.3900 C   0  0  0  0  0  0  0  0  0  0  0  0
  140.9620   79.1060  222.8200 C   0  0  0  0  0  0  0  0  0  0  0  0
  142.2040   79.0420  223.4180 C   0  0  0  0  0  0  0  0  0  0  0  0
  142.8240   80.2080  223.8180 C   0  0  0  0  0  0  0  0  0  0  0  0
  142.2220   81.4490  223.6320 C   0  0  0  0  0  0  0  0  0  0  0  0
  140.9800   81.5040  223.0340 C   0  0  0  0  0  0  0  0  0  0  0  0
  140.3690   80.3310  222.6380 C   0  0  0  0  0  0  0  0  0  0  0  0
  139.0550   77.8230  221.7780 C   0  0  0  0  0  0  0  0  0  0  0  0
  138.7910   76.5250  221.5420 N   0  0  0  0  0  0  0  0  0  0  0  0
  139.5230   70.9730  224.3170 C   0  0  0  0  0  0  0  0  0  0  0  0
  140.4050   71.8620  224.8480 C   0  0  0  0  0  0  0  0  0  0  0  0
  141.0370   71.6340  226.0650 C   0  0  0  0  0  0  0  0  0  0  0  0
  140.7370   70.4540  226.7300 C   0  0  0  0  0  0  0  0  0  0  0  0
  141.3570   70.2230  227.9300 C   0  0  0  0  0  0  0  0  0  0  0  0
  141.0760   69.0620  228.6100 C   0  0  0  0  0  0  0  0  0  0  0  0
  140.1750   68.1540  228.0640 C   0  0  0  0  0  0  0  0  0  0  0  0
  139.5500   68.3880  226.8530 C   0  0  0  0  0  0  0  0  0  0  0  0
  139.8430   69.5630  226.1810 C   0  0  0  0  0  0  0  0  0  0  0  0
  139.2540   69.8360  224.9890 N   0  0  0  0  0  0  0  0  0  0  0  0
  137.3210   72.3520  223.8810 H   0  0  0  0  0  0  0  0  0  0  0  0
  137.3288   71.3658  221.0738 H   0  0  0  0  0  0  0  0  0  0  0  0
  136.1131   72.5512  221.8042 H   0  0  0  0  0  0  0  0  0  0  0  0
  139.9666   72.8441  219.0733 H   0  0  0  0  0  0  0  0  0  0  0  0
  139.5587   74.5301  218.7961 H   0  0  0  0  0  0  0  0  0  0  0  0
  142.1237   73.6835  219.5648 H   0  0  0  0  0  0  0  0  0  0  0  0
  141.5581   75.2927  219.9584 H   0  0  0  0  0  0  0  0  0  0  0  0
  141.3425   72.7168  221.6838 H   0  0  0  0  0  0  0  0  0  0  0  0
  142.0675   74.1960  222.2007 H   0  0  0  0  0  0  0  0  0  0  0  0
  139.5131   73.9763  222.8800 H   0  0  0  0  0  0  0  0  0  0  0  0
  142.6953   78.0703  223.5744 H   0  0  0  0  0  0  0  0  0  0  0  0
  143.8145   80.1556  224.2937 H   0  0  0  0  0  0  0  0  0  0  0  0
  142.7279   82.3703  223.9563 H   0  0  0  0  0  0  0  0  0  0  0  0
  140.4820   82.4718  222.8745 H   0  0  0  0  0  0  0  0  0  0  0  0
  139.3781   80.3792  222.1628 H   0  0  0  0  0  0  0  0  0  0  0  0
  138.4084   78.6777  221.5302 H   0  0  0  0  0  0  0  0  0  0  0  0
  137.9070   76.2140  221.0810 H   0  0  0  0  0  0  0  0  0  0  0  0
  140.6247   72.7890  224.2980 H   0  0  0  0  0  0  0  0  0  0  0  0
  141.7477   72.3613  226.4846 H   0  0  0  0  0  0  0  0  0  0  0  0
  142.0677   70.9545  228.3422 H   0  0  0  0  0  0  0  0  0  0  0  0
  141.5588   68.8532  229.5761 H   0  0  0  0  0  0  0  0  0  0  0  0
  139.9537   67.2251  228.6100 H   0  0  0  0  0  0  0  0  0  0  0  0
  138.8391   67.6604  226.4345 H   0  0  0  0  0  0  0  0  0  0  0  0
  1  2  2  0
  2  3  1  0
  3  4  1  0
  4  5  1  0
  5  6  2  0
  5  7  1  0
  7  8  1  0
  8  9  1  0
  9 10  1  0
 10 11  1  0
 11 12  1  0
 12 13  2  0
 13 14  1  0
 14 15  1  0
 15 16  2  0
 16 17  1  0
 17 18  2  0
 18 19  1  0
 19 20  2  0
 14 21  2  0
 21 22  1  0
  2 23  1  0
 23 24  2  0
 24 25  1  0
 25 26  2  0
 26 27  1  0
 27 28  2  0
 28 29  1  0
 29 30  2  0
 30 31  1  0
 31 32  2  0
 11  7  1  0
 22 12  1  0
 32 23  1  0
 20 15  1  0
 31 26  1  0
  3 33  1  0
  4 34  1  0
  4 35  1  0
  8 36  1  0
  8 37  1  0
  9 38  1  0
  9 39  1  0
 10 40  1  0
 10 41  1  0
 11 42  1  1
 16 43  1  0
 17 44  1  0
 18 45  1  0
 19 46  1  0
 20 47  1  0
 21 48  1  0
 22 49  1  0
 24 50  1  0
 25 51  1  0
 27 52  1  0
 28 53  1  0
 29 54  1  0
 30 55  1  0
M  END
>  <smiles>  (24) 
O=C(NCC(=O)N1CCC[C@H]1c1nc(-c2ccccc2)c[nH]1)c1ccc2ccccc2n1

>  <score_type>  (24) 
oracle

>  <origin>  (24) 
autodockgpu

>  <m_score__min__energy>  (24) 
-9.4399999999999995

>  <m_primary>  (24) 
energy

>  <rmsd>  (24) 
3.4729816055598017

>  <m_score__min__rmsd>  (24) 
3.4729816055598017

>  <meeko>  (24) 
{"free_energy": -8.76, "intermolecular_energy": -10.55, "internal_energy": -2.36, "cluster_size": 24, "cluster_id": 2, "rank_in_cluster": 11}

>  <energy>  (24) 
-8.19

>  <cluster_rmsd>  (24) 
1.67

>  <cluster>  (24) 
2

$$$$

     RDKit          3D

 55 59  0  0  0  0  0  0  0  0999 V2000
  138.7770   75.4320  221.9180 O   0  0  0  0  0  0  0  0  0  0  0  0
  139.9510   75.8830  222.0830 C   0  0  0  0  0  0  0  0  0  0  0  0
  141.0420   74.9620  221.8390 N   0  0  0  0  0  0  0  0  0  0  0  0
  140.6730   73.6500  221.4400 C   0  0  0  0  0  0  0  0  0  0  0  0
  141.7340   72.8230  220.8870 C   0  0  0  0  0  0  0  0  0  0  0  0
  141.7570   71.6150  221.3760 O   0  0  0  0  0  0  0  0  0  0  0  0
  142.7330   73.0860  219.9240 N   0  0  0  0  0  0  0  0  0  0  0  0
  142.9790   72.5010  218.6180 C   0  0  0  0  0  0  0  0  0  0  0  0
  144.3170   73.1320  218.1750 C   0  0  0  0  0  0  0  0  0  0  0  0
  144.9570   73.5430  219.5010 C   0  0  0  0  0  0  0  0  0  0  0  0
  143.7450   74.1330  220.1830 C   0  0  1  0  0  0  0  0  0  0  0  0
  143.3420   75.4210  219.6110 C   0  0  0  0  0  0  0  0  0  0  0  0
  142.4650   76.3300  220.1190 N   0  0  0  0  0  0  0  0  0  0  0  0
  142.3700   77.3730  219.3020 C   0  0  0  0  0  0  0  0  0  0  0  0
  141.5450   78.5700  219.4640 C   0  0  0  0  0  0  0  0  0  0  0  0
  140.1680   78.4710  219.4330 C   0  0  0  0  0  0  0  0  0  0  0  0
  139.4050   79.6090  219.5860 C   0  0  0  0  0  0  0  0  0  0  0  0
  139.9920   80.8570  219.7710 C   0  0  0  0  0  0  0  0  0  0  0  0
  141.3680   80.9470  219.8000 C   0  0  0  0  0  0  0  0  0  0  0  0
  142.1230   79.8020  219.6450 C   0  0  0  0  0  0  0  0  0  0  0  0
  143.2110   77.1260  218.2360 C   0  0  0  0  0  0  0  0  0  0  0  0
  143.7870   75.9310  218.4570 N   0  0  0  0  0  0  0  0  0  0  0  0
  140.1960   77.2490  222.4950 C   0  0  0  0  0  0  0  0  0  0  0  0
  139.1350   78.0510  222.7770 C   0  0  0  0  0  0  0  0  0  0  0  0
  139.2980   79.3730  223.1790 C   0  0  0  0  0  0  0  0  0  0  0  0
  140.5940   79.8540  223.2830 C   0  0  0  0  0  0  0  0  0  0  0  0
  140.7630   81.1550  223.6770 C   0  0  0  0  0  0  0  0  0  0  0  0
  142.0370   81.6570  223.7890 C   0  0  0  0  0  0  0  0  0  0  0  0
  143.1200   80.8340  223.4980 C   0  0  0  0  0  0  0  0  0  0  0  0
  142.9500   79.5210  223.1000 C   0  0  0  0  0  0  0  0  0  0  0  0
  141.6600   79.0310  222.9930 C   0  0  0  0  0  0  0  0  0  0  0  0
  141.4430   77.7480  222.6060 N   0  0  0  0  0  0  0  0  0  0  0  0
  141.9720   75.3690  221.9920 H   0  0  0  0  0  0  0  0  0  0  0  0
  140.2698   73.1321  222.3227 H   0  0  0  0  0  0  0  0  0  0  0  0
  139.9492   73.7843  220.6227 H   0  0  0  0  0  0  0  0  0  0  0  0
  143.0669   71.4068  218.6894 H   0  0  0  0  0  0  0  0  0  0  0  0
  142.1627   72.6935  217.9062 H   0  0  0  0  0  0  0  0  0  0  0  0
  144.9429   72.4000  217.6437 H   0  0  0  0  0  0  0  0  0  0  0  0
  144.1906   73.9713  217.4753 H   0  0  0  0  0  0  0  0  0  0  0  0
  145.3577   72.6781  220.0500 H   0  0  0  0  0  0  0  0  0  0  0  0
  145.8236   74.2153  219.4170 H   0  0  0  0  0  0  0  0  0  0  0  0
  143.9090   74.3628  221.2461 H   0  0  0  0  0  0  0  0  0  0  0  0
  139.6846   77.4937  219.2876 H   0  0  0  0  0  0  0  0  0  0  0  0
  138.3082   79.5287  219.5613 H   0  0  0  0  0  0  0  0  0  0  0  0
  139.3696   81.7559  219.8920 H   0  0  0  0  0  0  0  0  0  0  0  0
  141.8584   81.9209  219.9451 H   0  0  0  0  0  0  0  0  0  0  0  0
  143.2201   79.8789  219.6672 H   0  0  0  0  0  0  0  0  0  0  0  0
  143.3785   77.7825  217.3694 H   0  0  0  0  0  0  0  0  0  0  0  0
  144.4740   75.5140  217.7890 H   0  0  0  0  0  0  0  0  0  0  0  0
  138.1178   77.6427  222.6846 H   0  0  0  0  0  0  0  0  0  0  0  0
  138.4318   80.0120  223.4056 H   0  0  0  0  0  0  0  0  0  0  0  0
  139.8918   81.7883  223.9004 H   0  0  0  0  0  0  0  0  0  0  0  0
  142.1988   82.6981  224.1052 H   0  0  0  0  0  0  0  0  0  0  0  0
  144.1390   81.2387  223.5869 H   0  0  0  0  0  0  0  0  0  0  0  0
  143.8170   78.8827  222.8744 H   0  0  0  0  0  0  0  0  0  0  0  0
  1  2  2  0
  2  3  1  0
  3  4  1  0
  4  5  1  0
  5  6  2  0
  5  7  1  0
  7  8  1  0
  8  9  1  0
  9 10  1  0
 10 11  1  0
 11 12  1  0
 12 13  2  0
 13 14  1  0
 14 15  1  0
 15 16  2  0
 16 17  1  0
 17 18  2  0
 18 19  1  0
 19 20  2  0
 14 21  2  0
 21 22  1  0
  2 23  1  0
 23 24  2  0
 24 25  1  0
 25 26  2  0
 26 27  1  0
 27 28  2  0
 28 29  1  0
 29 30  2  0
 30 31  1  0
 31 32  2  0
 11  7  1  0
 22 12  1  0
 32 23  1  0
 20 15  1  0
 31 26  1  0
  3 33  1  0
  4 34  1  0
  4 35  1  0
  8 36  1  0
  8 37  1  0
  9 38  1  0
  9 39  1  0
 10 40  1  0
 10 41  1  0
 11 42  1  1
 16 43  1  0
 17 44  1  0
 18 45  1  0
 19 46  1  0
 20 47  1  0
 21 48  1  0
 22 49  1  0
 24 50  1  0
 25 51  1  0
 27 52  1  0
 28 53  1  0
 29 54  1  0
 30 55  1  0
M  END
>  <smiles>  (25) 
O=C(NCC(=O)N1CCC[C@H]1c1nc(-c2ccccc2)c[nH]1)c1ccc2ccccc2n1

>  <score_type>  (25) 
oracle

>  <origin>  (25) 
autodockgpu

>  <m_score__min__energy>  (25) 
-9.4399999999999995

>  <m_primary>  (25) 
energy

>  <rmsd>  (25) 
6.837802258620353

>  <m_score__min__rmsd>  (25) 
6.837802258620353

>  <meeko>  (25) 
{"free_energy": -7.46, "intermolecular_energy": -9.25, "internal_energy": -4.19, "cluster_size": 20, "cluster_id": 4, "rank_in_cluster": 15}

>  <energy>  (25) 
-8.03

>  <cluster_rmsd>  (25) 
1.56

>  <cluster>  (25) 
2

$$$$

     RDKit          3D

 55 59  0  0  0  0  0  0  0  0999 V2000
  140.1380   74.5730  222.3040 O   0  0  0  0  0  0  0  0  0  0  0  0
  139.5730   75.5920  221.8030 C   0  0  0  0  0  0  0  0  0  0  0  0
  138.6620   75.3550  220.7010 N   0  0  0  0  0  0  0  0  0  0  0  0
  138.5020   74.0000  220.3050 C   0  0  0  0  0  0  0  0  0  0  0  0
  137.4790   73.2420  221.0060 C   0  0  0  0  0  0  0  0  0  0  0  0
  136.4720   73.9720  221.3980 O   0  0  0  0  0  0  0  0  0  0  0  0
  137.3750   71.8730  221.3360 N   0  0  0  0  0  0  0  0  0  0  0  0
  137.6070   70.6790  220.5420 C   0  0  0  0  0  0  0  0  0  0  0  0
  137.1570   69.5260  221.4660 C   0  0  0  0  0  0  0  0  0  0  0  0
  136.1960   70.2180  222.4330 C   0  0  0  0  0  0  0  0  0  0  0  0
  136.9890   71.4740  222.7070 C   0  0  1  0  0  0  0  0  0  0  0  0
  138.1660   71.2330  223.5460 C   0  0  0  0  0  0  0  0  0  0  0  0
  138.3080   70.3330  224.5580 N   0  0  0  0  0  0  0  0  0  0  0  0
  139.5280   70.4220  225.0740 C   0  0  0  0  0  0  0  0  0  0  0  0
  140.0990   69.6430  226.1740 C   0  0  0  0  0  0  0  0  0  0  0  0
  140.5100   70.2760  227.3290 C   0  0  0  0  0  0  0  0  0  0  0  0
  141.0470   69.5280  228.3560 C   0  0  0  0  0  0  0  0  0  0  0  0
  141.1830   68.1480  228.2530 C   0  0  0  0  0  0  0  0  0  0  0  0
  140.7700   67.5220  227.0940 C   0  0  0  0  0  0  0  0  0  0  0  0
  140.2350   68.2810  226.0720 C   0  0  0  0  0  0  0  0  0  0  0  0
  140.1910   71.4090  224.3730 C   0  0  0  0  0  0  0  0  0  0  0  0
  139.3330   71.8810  223.4510 N   0  0  0  0  0  0  0  0  0  0  0  0
  139.8220   76.9280  222.3000 C   0  0  0  0  0  0  0  0  0  0  0  0
  138.7680   77.6890  222.6970 C   0  0  0  0  0  0  0  0  0  0  0  0
  138.9340   78.9810  223.1850 C   0  0  0  0  0  0  0  0  0  0  0  0
  140.2280   79.4760  223.2540 C   0  0  0  0  0  0  0  0  0  0  0  0
  140.4000   80.7480  223.7330 C   0  0  0  0  0  0  0  0  0  0  0  0
  141.6720   81.2630  223.8120 C   0  0  0  0  0  0  0  0  0  0  0  0
  142.7480   80.4820  223.4030 C   0  0  0  0  0  0  0  0  0  0  0  0
  142.5740   79.1990  222.9200 C   0  0  0  0  0  0  0  0  0  0  0  0
  141.2870   78.6950  222.8480 C   0  0  0  0  0  0  0  0  0  0  0  0
  141.0670   77.4400  222.3790 N   0  0  0  0  0  0  0  0  0  0  0  0
  138.2350   76.2090  220.3240 H   0  0  0  0  0  0  0  0  0  0  0  0
  138.2513   73.9910  219.2340 H   0  0  0  0  0  0  0  0  0  0  0  0
  139.4539   73.5073  220.5521 H   0  0  0  0  0  0  0  0  0  0  0  0
  137.0069   70.6990  219.6204 H   0  0  0  0  0  0  0  0  0  0  0  0
  138.6540   70.5805  220.2195 H   0  0  0  0  0  0  0  0  0  0  0  0
  136.6443   68.7382  220.8947 H   0  0  0  0  0  0  0  0  0  0  0  0
  137.9943   69.0227  221.9716 H   0  0  0  0  0  0  0  0  0  0  0  0
  135.2265   70.4382  221.9623 H   0  0  0  0  0  0  0  0  0  0  0  0
  135.9206   69.6321  223.3223 H   0  0  0  0  0  0  0  0  0  0  0  0
  136.4248   72.2339  223.2676 H   0  0  0  0  0  0  0  0  0  0  0  0
  140.4104   71.3668  227.4299 H   0  0  0  0  0  0  0  0  0  0  0  0
  141.3746   70.0340  229.2761 H   0  0  0  0  0  0  0  0  0  0  0  0
  141.6124   67.5650  229.0811 H   0  0  0  0  0  0  0  0  0  0  0  0
  140.8660   66.4315  226.9859 H   0  0  0  0  0  0  0  0  0  0  0  0
  139.9083   67.7794  225.1492 H   0  0  0  0  0  0  0  0  0  0  0  0
  141.2252   71.7458  224.5373 H   0  0  0  0  0  0  0  0  0  0  0  0
  139.5960   72.6420  222.7860 H   0  0  0  0  0  0  0  0  0  0  0  0
  137.7529   77.2704  222.6304 H   0  0  0  0  0  0  0  0  0  0  0  0
  138.0728   79.5865  223.5037 H   0  0  0  0  0  0  0  0  0  0  0  0
  139.5338   81.3477  224.0494 H   0  0  0  0  0  0  0  0  0  0  0  0
  141.8372   82.2811  224.1943 H   0  0  0  0  0  0  0  0  0  0  0  0
  143.7648   80.8969  223.4657 H   0  0  0  0  0  0  0  0  0  0  0  0
  143.4357   78.5942  222.6011 H   0  0  0  0  0  0  0  0  0  0  0  0
  1  2  2  0
  2  3  1  0
  3  4  1  0
  4  5  1  0
  5  6  2  0
  5  7  1  0
  7  8  1  0
  8  9  1  0
  9 10  1  0
 10 11  1  0
 11 12  1  0
 12 13  2  0
 13 14  1  0
 14 15  1  0
 15 16  2  0
 16 17  1  0
 17 18  2  0
 18 19  1  0
 19 20  2  0
 14 21  2  0
 21 22  1  0
  2 23  1  0
 23 24  2  0
 24 25  1  0
 25 26  2  0
 26 27  1  0
 27 28  2  0
 28 29  1  0
 29 30  2  0
 30 31  1  0
 31 32  2  0
 11  7  1  0
 22 12  1  0
 32 23  1  0
 20 15  1  0
 31 26  1  0
  3 33  1  0
  4 34  1  0
  4 35  1  0
  8 36  1  0
  8 37  1  0
  9 38  1  0
  9 39  1  0
 10 40  1  0
 10 41  1  0
 11 42  1  1
 16 43  1  0
 17 44  1  0
 18 45  1  0
 19 46  1  0
 20 47  1  0
 21 48  1  0
 22 49  1  0
 24 50  1  0
 25 51  1  0
 27 52  1  0
 28 53  1  0
 29 54  1  0
 30 55  1  0
M  END
>  <smiles>  (26) 
O=C(NCC(=O)N1CCC[C@H]1c1nc(-c2ccccc2)c[nH]1)c1ccc2ccccc2n1

>  <score_type>  (26) 
oracle

>  <origin>  (26) 
autodockgpu

>  <m_score__min__energy>  (26) 
-9.4399999999999995

>  <m_primary>  (26) 
energy

>  <rmsd>  (26) 
9.799748386369254

>  <m_score__min__rmsd>  (26) 
9.799748386369254

>  <meeko>  (26) 
{"free_energy": -8.8, "intermolecular_energy": -10.59, "internal_energy": -2.43, "cluster_size": 24, "cluster_id": 2, "rank_in_cluster": 9}

>  <energy>  (26) 
-9.0

>  <cluster_rmsd>  (26) 
0.0

>  <cluster>  (26) 
3

$$$$

     RDKit          3D

 55 59  0  0  0  0  0  0  0  0999 V2000
  140.2870   73.1230  222.3050 O   0  0  0  0  0  0  0  0  0  0  0  0
  139.5840   72.0950  222.5440 C   0  0  0  0  0  0  0  0  0  0  0  0
  138.6420   71.6970  221.5170 N   0  0  0  0  0  0  0  0  0  0  0  0
  138.6130   72.5090  220.3510 C   0  0  0  0  0  0  0  0  0  0  0  0
  137.6640   73.6110  220.3590 C   0  0  0  0  0  0  0  0  0  0  0  0
  137.0810   73.7990  219.2080 O   0  0  0  0  0  0  0  0  0  0  0  0
  137.2620   74.5050  221.3750 N   0  0  0  0  0  0  0  0  0  0  0  0
  136.7210   74.2630  222.7010 C   0  0  0  0  0  0  0  0  0  0  0  0
  136.3520   75.6730  223.2130 C   0  0  0  0  0  0  0  0  0  0  0  0
  136.1870   76.4740  221.9220 C   0  0  0  0  0  0  0  0  0  0  0  0
  137.3890   75.9630  221.1630 C   0  0  1  0  0  0  0  0  0  0  0  0
  138.6560   76.4740  221.6930 C   0  0  0  0  0  0  0  0  0  0  0  0
  139.0370   77.7700  221.8600 N   0  0  0  0  0  0  0  0  0  0  0  0
  140.2620   77.8190  222.3700 C   0  0  0  0  0  0  0  0  0  0  0  0
  141.0510   79.0050  222.7050 C   0  0  0  0  0  0  0  0  0  0  0  0
  141.0600   80.0930  221.8550 C   0  0  0  0  0  0  0  0  0  0  0  0
  141.8090   81.2030  222.1850 C   0  0  0  0  0  0  0  0  0  0  0  0
  142.5560   81.2500  223.3570 C   0  0  0  0  0  0  0  0  0  0  0  0
  142.5430   80.1590  224.2010 C   0  0  0  0  0  0  0  0  0  0  0  0
  141.7900   79.0530  223.8610 C   0  0  0  0  0  0  0  0  0  0  0  0
  140.6820   76.5140  222.5360 C   0  0  0  0  0  0  0  0  0  0  0  0
  139.6790   75.7220  222.1150 N   0  0  0  0  0  0  0  0  0  0  0  0
  139.7100   71.3500  223.7780 C   0  0  0  0  0  0  0  0  0  0  0  0
  139.2000   70.0910  223.8420 C   0  0  0  0  0  0  0  0  0  0  0  0
  139.2860   69.3190  224.9960 C   0  0  0  0  0  0  0  0  0  0  0  0
  139.9160   69.8830  226.0960 C   0  0  0  0  0  0  0  0  0  0  0  0
  140.0040   69.1290  227.2370 C   0  0  0  0  0  0  0  0  0  0  0  0
  140.6250   69.6630  228.3410 C   0  0  0  0  0  0  0  0  0  0  0  0
  141.1440   70.9510  228.2720 C   0  0  0  0  0  0  0  0  0  0  0  0
  141.0550   71.7120  227.1210 C   0  0  0  0  0  0  0  0  0  0  0  0
  140.4280   71.1590  226.0180 C   0  0  0  0  0  0  0  0  0  0  0  0
  140.3160   71.8670  224.8650 N   0  0  0  0  0  0  0  0  0  0  0  0
  138.0920   70.8640  221.7560 H   0  0  0  0  0  0  0  0  0  0  0  0
  139.6185   72.9331  220.2124 H   0  0  0  0  0  0  0  0  0  0  0  0
  138.2855   71.8446  219.5378 H   0  0  0  0  0  0  0  0  0  0  0  0
  135.8302   73.6197  222.6491 H   0  0  0  0  0  0  0  0  0  0  0  0
  137.4311   73.7436  223.3613 H   0  0  0  0  0  0  0  0  0  0  0  0
  135.4146   75.6522  223.7881 H   0  0  0  0  0  0  0  0  0  0  0  0
  137.1040   76.0979  223.8941 H   0  0  0  0  0  0  0  0  0  0  0  0
  135.2442   76.2358  221.4078 H   0  0  0  0  0  0  0  0  0  0  0  0
  136.1399   77.5657  222.0486 H   0  0  0  0  0  0  0  0  0  0  0  0
  137.4068   76.2759  220.1086 H   0  0  0  0  0  0  0  0  0  0  0  0
  140.4753   80.0746  220.9234 H   0  0  0  0  0  0  0  0  0  0  0  0
  141.8157   82.0692  221.5070 H   0  0  0  0  0  0  0  0  0  0  0  0
  143.1478   82.1429  223.6070 H   0  0  0  0  0  0  0  0  0  0  0  0
  143.1257   80.1701  225.1339 H   0  0  0  0  0  0  0  0  0  0  0  0
  141.7819   78.1846  224.5362 H   0  0  0  0  0  0  0  0  0  0  0  0
  141.6522   76.1846  222.9363 H   0  0  0  0  0  0  0  0  0  0  0  0
  139.7480   74.6800  222.1380 H   0  0  0  0  0  0  0  0  0  0  0  0
  138.7045   69.6704  222.9545 H   0  0  0  0  0  0  0  0  0  0  0  0
  138.8707   68.3011  225.0349 H   0  0  0  0  0  0  0  0  0  0  0  0
  139.5844   68.1127  227.2689 H   0  0  0  0  0  0  0  0  0  0  0  0
  140.7104   69.0779  229.2686 H   0  0  0  0  0  0  0  0  0  0  0  0
  141.6390   71.3763  229.1575 H   0  0  0  0  0  0  0  0  0  0  0  0
  141.4713   72.7295  227.0830 H   0  0  0  0  0  0  0  0  0  0  0  0
  1  2  2  0
  2  3  1  0
  3  4  1  0
  4  5  1  0
  5  6  2  0
  5  7  1  0
  7  8  1  0
  8  9  1  0
  9 10  1  0
 10 11  1  0
 11 12  1  0
 12 13  2  0
 13 14  1  0
 14 15  1  0
 15 16  2  0
 16 17  1  0
 17 18  2  0
 18 19  1  0
 19 20  2  0
 14 21  2  0
 21 22  1  0
  2 23  1  0
 23 24  2  0
 24 25  1  0
 25 26  2  0
 26 27  1  0
 27 28  2  0
 28 29  1  0
 29 30  2  0
 30 31  1  0
 31 32  2  0
 11  7  1  0
 22 12  1  0
 32 23  1  0
 20 15  1  0
 31 26  1  0
  3 33  1  0
  4 34  1  0
  4 35  1  0
  8 36  1  0
  8 37  1  0
  9 38  1  0
  9 39  1  0
 10 40  1  0
 10 41  1  0
 11 42  1  6
 16 43  1  0
 17 44  1  0
 18 45  1  0
 19 46  1  0
 20 47  1  0
 21 48  1  0
 22 49  1  0
 24 50  1  0
 25 51  1  0
 27 52  1  0
 28 53  1  0
 29 54  1  0
 30 55  1  0
M  END
>  <smiles>  (27) 
O=C(NCC(=O)N1CCC[C@H]1c1nc(-c2ccccc2)c[nH]1)c1ccc2ccccc2n1

>  <score_type>  (27) 
oracle

>  <origin>  (27) 
autodockgpu

>  <m_score__min__energy>  (27) 
-9.4399999999999995

>  <m_primary>  (27) 
energy

>  <rmsd>  (27) 
3.6713007946400635

>  <m_score__min__rmsd>  (27) 
3.6713007946400635

>  <meeko>  (27) 
{"free_energy": -8.75, "intermolecular_energy": -10.54, "internal_energy": -2.58, "cluster_size": 24, "cluster_id": 2, "rank_in_cluster": 13}

>  <energy>  (27) 
-8.89

>  <cluster_rmsd>  (27) 
0.25

>  <cluster>  (27) 
3

$$$$

     RDKit          3D

 55 59  0  0  0  0  0  0  0  0999 V2000
  138.8550   75.1330  222.0560 O   0  0  0  0  0  0  0  0  0  0  0  0
  140.0050   75.6650  222.1000 C   0  0  0  0  0  0  0  0  0  0  0  0
  141.1350   74.7970  221.8410 N   0  0  0  0  0  0  0  0  0  0  0  0
  140.8260   73.4380  221.5640 C   0  0  0  0  0  0  0  0  0  0  0  0
  141.6920   72.7620  220.6120 C   0  0  0  0  0  0  0  0  0  0  0  0
  141.2710   71.5730  220.2830 O   0  0  0  0  0  0  0  0  0  0  0  0
  142.8950   73.1540  219.9840 N   0  0  0  0  0  0  0  0  0  0  0  0
  143.5920   72.6100  218.8310 C   0  0  0  0  0  0  0  0  0  0  0  0
  144.9130   73.4070  218.7880 C   0  0  0  0  0  0  0  0  0  0  0  0
  145.0690   73.8920  220.2290 C   0  0  0  0  0  0  0  0  0  0  0  0
  143.6460   74.3200  220.4970 C   0  0  1  0  0  0  0  0  0  0  0  0
  143.2780   75.5490  219.7870 C   0  0  0  0  0  0  0  0  0  0  0  0
  142.4230   76.5290  220.1880 N   0  0  0  0  0  0  0  0  0  0  0  0
  142.3580   77.4790  219.2630 C   0  0  0  0  0  0  0  0  0  0  0  0
  141.5640   78.7080  219.2880 C   0  0  0  0  0  0  0  0  0  0  0  0
  140.1870   78.6430  219.2280 C   0  0  0  0  0  0  0  0  0  0  0  0
  139.4520   79.8100  219.2530 C   0  0  0  0  0  0  0  0  0  0  0  0
  140.0710   81.0530  219.3370 C   0  0  0  0  0  0  0  0  0  0  0  0
  141.4480   81.1100  219.3960 C   0  0  0  0  0  0  0  0  0  0  0  0
  142.1730   79.9350  219.3700 C   0  0  0  0  0  0  0  0  0  0  0  0
  143.1960   77.0970  218.2340 C   0  0  0  0  0  0  0  0  0  0  0  0
  143.7400   75.9180  218.5870 N   0  0  0  0  0  0  0  0  0  0  0  0
  140.1880   77.0700  222.3950 C   0  0  0  0  0  0  0  0  0  0  0  0
  139.0940   77.8740  222.4730 C   0  0  0  0  0  0  0  0  0  0  0  0
  139.1970   79.2330  222.7530 C   0  0  0  0  0  0  0  0  0  0  0  0
  140.4690   79.7500  222.9510 C   0  0  0  0  0  0  0  0  0  0  0  0
  140.5780   81.0880  223.2260 C   0  0  0  0  0  0  0  0  0  0  0  0
  141.8270   81.6260  223.4270 C   0  0  0  0  0  0  0  0  0  0  0  0
  142.9430   80.8010  223.3450 C   0  0  0  0  0  0  0  0  0  0  0  0
  142.8330   79.4510  223.0660 C   0  0  0  0  0  0  0  0  0  0  0  0
  141.5680   78.9250  222.8680 C   0  0  0  0  0  0  0  0  0  0  0  0
  141.4100   77.6050  222.5920 N   0  0  0  0  0  0  0  0  0  0  0  0
  142.0450   75.2690  221.8930 H   0  0  0  0  0  0  0  0  0  0  0  0
  140.8734   72.8834  222.5128 H   0  0  0  0  0  0  0  0  0  0  0  0
  139.8306   73.4529  221.0960 H   0  0  0  0  0  0  0  0  0  0  0  0
  143.7870   71.5354  218.9623 H   0  0  0  0  0  0  0  0  0  0  0  0
  143.0107   72.7004  217.9015 H   0  0  0  0  0  0  0  0  0  0  0  0
  145.7544   72.7621  218.4946 H   0  0  0  0  0  0  0  0  0  0  0  0
  144.9014   74.2260  218.0538 H   0  0  0  0  0  0  0  0  0  0  0  0
  145.3892   73.0835  220.9027 H   0  0  0  0  0  0  0  0  0  0  0  0
  145.8313   74.6698  220.3837 H   0  0  0  0  0  0  0  0  0  0  0  0
  143.4539   74.5646  221.5521 H   0  0  0  0  0  0  0  0  0  0  0  0
  139.6799   77.6692  219.1608 H   0  0  0  0  0  0  0  0  0  0  0  0
  138.3543   79.7567  219.2056 H   0  0  0  0  0  0  0  0  0  0  0  0
  139.4721   81.9755  219.3561 H   0  0  0  0  0  0  0  0  0  0  0  0
  141.9625   82.0800  219.4630 H   0  0  0  0  0  0  0  0  0  0  0  0
  143.2709   79.9840  219.4164 H   0  0  0  0  0  0  0  0  0  0  0  0
  143.3833   77.6513  217.3025 H   0  0  0  0  0  0  0  0  0  0  0  0
  144.4170   75.4140  217.9720 H   0  0  0  0  0  0  0  0  0  0  0  0
  138.0979   77.4369  222.3099 H   0  0  0  0  0  0  0  0  0  0  0  0
  138.3043   79.8728  222.8150 H   0  0  0  0  0  0  0  0  0  0  0  0
  139.6806   81.7214  223.2850 H   0  0  0  0  0  0  0  0  0  0  0  0
  141.9421   82.6970  223.6502 H   0  0  0  0  0  0  0  0  0  0  0  0
  143.9412   81.2341  223.5065 H   0  0  0  0  0  0  0  0  0  0  0  0
  143.7265   78.8125  223.0031 H   0  0  0  0  0  0  0  0  0  0  0  0
  1  2  2  0
  2  3  1  0
  3  4  1  0
  4  5  1  0
  5  6  2  0
  5  7  1  0
  7  8  1  0
  8  9  1  0
  9 10  1  0
 10 11  1  0
 11 12  1  0
 12 13  2  0
 13 14  1  0
 14 15  1  0
 15 16  2  0
 16 17  1  0
 17 18  2  0
 18 19  1  0
 19 20  2  0
 14 21  2  0
 21 22  1  0
  2 23  1  0
 23 24  2  0
 24 25  1  0
 25 26  2  0
 26 27  1  0
 27 28  2  0
 28 29  1  0
 29 30  2  0
 30 31  1  0
 31 32  2  0
 11  7  1  0
 22 12  1  0
 32 23  1  0
 20 15  1  0
 31 26  1  0
  3 33  1  0
  4 34  1  0
  4 35  1  0
  8 36  1  0
  8 37  1  0
  9 38  1  0
  9 39  1  0
 10 40  1  0
 10 41  1  0
 11 42  1  1
 16 43  1  0
 17 44  1  0
 18 45  1  0
 19 46  1  0
 20 47  1  0
 21 48  1  0
 22 49  1  0
 24 50  1  0
 25 51  1  0
 27 52  1  0
 28 53  1  0
 29 54  1  0
 30 55  1  0
M  END
>  <smiles>  (28) 
O=C(NCC(=O)N1CCC[C@H]1c1nc(-c2ccccc2)c[nH]1)c1ccc2ccccc2n1

>  <score_type>  (28) 
oracle

>  <origin>  (28) 
autodockgpu

>  <m_score__min__energy>  (28) 
-9.4399999999999995

>  <m_primary>  (28) 
energy

>  <rmsd>  (28) 
6.863458680160265

>  <m_score__min__rmsd>  (28) 
6.863458680160265

>  <meeko>  (28) 
{"free_energy": -7.55, "intermolecular_energy": -9.34, "internal_energy": -4.04, "cluster_size": 20, "cluster_id": 4, "rank_in_cluster": 14}

>  <energy>  (28) 
-8.81

>  <cluster_rmsd>  (28) 
0.81

>  <cluster>  (28) 
3

$$$$

     RDKit          3D

 55 59  0  0  0  0  0  0  0  0999 V2000
  140.5590   73.1500  222.7100 O   0  0  0  0  0  0  0  0  0  0  0  0
  139.8840   72.1190  223.0120 C   0  0  0  0  0  0  0  0  0  0  0  0
  138.8140   71.7540  222.1070 N   0  0  0  0  0  0  0  0  0  0  0  0
  138.6400   72.5960  220.9760 C   0  0  0  0  0  0  0  0  0  0  0  0
  137.3800   73.3170  220.8990 C   0  0  0  0  0  0  0  0  0  0  0  0
  136.4590   72.6800  220.2310 O   0  0  0  0  0  0  0  0  0  0  0  0
  136.9740   74.5690  221.4110 N   0  0  0  0  0  0  0  0  0  0  0  0
  136.1410   74.9100  222.5510 C   0  0  0  0  0  0  0  0  0  0  0  0
  135.9730   76.4410  222.4420 C   0  0  0  0  0  0  0  0  0  0  0  0
  136.2360   76.7110  220.9610 C   0  0  0  0  0  0  0  0  0  0  0  0
  137.4350   75.8140  220.7600 C   0  0  1  0  0  0  0  0  0  0  0  0
  138.6480   76.3350  221.3970 C   0  0  0  0  0  0  0  0  0  0  0  0
  138.9540   77.6270  221.6950 N   0  0  0  0  0  0  0  0  0  0  0  0
  140.1490   77.6880  222.2700 C   0  0  0  0  0  0  0  0  0  0  0  0
  140.8590   78.8750  222.7470 C   0  0  0  0  0  0  0  0  0  0  0  0
  140.1660   79.8900  223.3750 C   0  0  0  0  0  0  0  0  0  0  0  0
  140.8490   81.0030  223.8190 C   0  0  0  0  0  0  0  0  0  0  0  0
  142.2240   81.1250  223.6470 C   0  0  0  0  0  0  0  0  0  0  0  0
  142.9100   80.1070  223.0180 C   0  0  0  0  0  0  0  0  0  0  0  0
  142.2160   78.9970  222.5770 C   0  0  0  0  0  0  0  0  0  0  0  0
  140.6270   76.3950  222.3440 C   0  0  0  0  0  0  0  0  0  0  0  0
  139.6880   75.5970  221.8040 N   0  0  0  0  0  0  0  0  0  0  0  0
  140.1630   71.3420  224.2010 C   0  0  0  0  0  0  0  0  0  0  0  0
  140.9940   71.8600  225.1450 C   0  0  0  0  0  0  0  0  0  0  0  0
  141.3050   71.1680  226.3110 C   0  0  0  0  0  0  0  0  0  0  0  0
  140.7340   69.9150  226.4820 C   0  0  0  0  0  0  0  0  0  0  0  0
  141.0360   69.2270  227.6280 C   0  0  0  0  0  0  0  0  0  0  0  0
  140.4830   67.9840  227.8230 C   0  0  0  0  0  0  0  0  0  0  0  0
  139.6360   67.4580  226.8540 C   0  0  0  0  0  0  0  0  0  0  0  0
  139.3310   68.1520  225.6980 C   0  0  0  0  0  0  0  0  0  0  0  0
  139.8950   69.4030  225.5180 C   0  0  0  0  0  0  0  0  0  0  0  0
  139.6260   70.1220  224.3990 N   0  0  0  0  0  0  0  0  0  0  0  0
  138.2920   70.9190  222.3960 H   0  0  0  0  0  0  0  0  0  0  0  0
  139.4515   73.3386  220.9827 H   0  0  0  0  0  0  0  0  0  0  0  0
  138.6476   71.9238  220.1053 H   0  0  0  0  0  0  0  0  0  0  0  0
  135.1664   74.4038  222.4891 H   0  0  0  0  0  0  0  0  0  0  0  0
  136.5836   74.5985  223.5086 H   0  0  0  0  0  0  0  0  0  0  0  0
  134.9555   76.7483  222.7253 H   0  0  0  0  0  0  0  0  0  0  0  0
  136.6447   76.9995  223.1105 H   0  0  0  0  0  0  0  0  0  0  0  0
  135.3864   76.4096  220.3306 H   0  0  0  0  0  0  0  0  0  0  0  0
  136.3886   77.7674  220.6950 H   0  0  0  0  0  0  0  0  0  0  0  0
  137.7258   75.7019  219.7051 H   0  0  0  0  0  0  0  0  0  0  0  0
  139.0784   79.8120  223.5202 H   0  0  0  0  0  0  0  0  0  0  0  0
  140.2950   81.8108  224.3194 H   0  0  0  0  0  0  0  0  0  0  0  0
  142.7554   82.0185  224.0066 H   0  0  0  0  0  0  0  0  0  0  0  0
  143.9976   80.1783  222.8692 H   0  0  0  0  0  0  0  0  0  0  0  0
  142.7664   78.1875  222.0752 H   0  0  0  0  0  0  0  0  0  0  0  0
  141.5925   76.0774  222.7647 H   0  0  0  0  0  0  0  0  0  0  0  0
  139.8100   74.5620  221.7400 H   0  0  0  0  0  0  0  0  0  0  0  0
  141.4330   72.8553  224.9816 H   0  0  0  0  0  0  0  0  0  0  0  0
  141.9775   71.5975  227.0681 H   0  0  0  0  0  0  0  0  0  0  0  0
  141.7103   69.6627  228.3800 H   0  0  0  0  0  0  0  0  0  0  0  0
  140.7079   67.4119  228.7352 H   0  0  0  0  0  0  0  0  0  0  0  0
  139.1964   66.4620  227.0116 H   0  0  0  0  0  0  0  0  0  0  0  0
  138.6582   67.7216  224.9416 H   0  0  0  0  0  0  0  0  0  0  0  0
  1  2  2  0
  2  3  1  0
  3  4  1  0
  4  5  1  0
  5  6  2  0
  5  7  1  0
  7  8  1  0
  8  9  1  0
  9 10  1  0
 10 11  1  0
 11 12  1  0
 12 13  2  0
 13 14  1  0
 14 15  1  0
 15 16  2  0
 16 17  1  0
 17 18  2  0
 18 19  1  0
 19 20  2  0
 14 21  2  0
 21 22  1  0
  2 23  1  0
 23 24  2  0
 24 25  1  0
 25 26  2  0
 26 27  1  0
 27 28  2  0
 28 29  1  0
 29 30  2  0
 30 31  1  0
 31 32  2  0
 11  7  1  0
 22 12  1  0
 32 23  1  0
 20 15  1  0
 31 26  1  0
  3 33  1  0
  4 34  1  0
  4 35  1  0
  8 36  1  0
  8 37  1  0
  9 38  1  0
  9 39  1  0
 10 40  1  0
 10 41  1  0
 11 42  1  6
 16 43  1  0
 17 44  1  0
 18 45  1  0
 19 46  1  0
 20 47  1  0
 21 48  1  0
 22 49  1  0
 24 50  1  0
 25 51  1  0
 27 52  1  0
 28 53  1  0
 29 54  1  0
 30 55  1  0
M  END
>  <smiles>  (29) 
O=C(NCC(=O)N1CCC[C@H]1c1nc(-c2ccccc2)c[nH]1)c1ccc2ccccc2n1

>  <score_type>  (29) 
oracle

>  <origin>  (29) 
autodockgpu

>  <m_score__min__energy>  (29) 
-9.4399999999999995

>  <m_primary>  (29) 
energy

>  <rmsd>  (29) 
3.955495538483347

>  <m_score__min__rmsd>  (29) 
3.955495538483347

>  <meeko>  (29) 
{"free_energy": -8.67, "intermolecular_energy": -10.46, "internal_energy": -2.67, "cluster_size": 24, "cluster_id": 2, "rank_in_cluster": 19}

>  <energy>  (29) 
-8.04

>  <cluster_rmsd>  (29) 
0.0

>  <cluster>  (29) 
4

$$$$

     RDKit          3D

 55 59  0  0  0  0  0  0  0  0999 V2000
  138.9730   75.0690  222.2620 O   0  0  0  0  0  0  0  0  0  0  0  0
  140.0770   75.6770  222.1240 C   0  0  0  0  0  0  0  0  0  0  0  0
  141.1840   74.9040  221.5980 N   0  0  0  0  0  0  0  0  0  0  0  0
  140.9060   73.5440  221.2940 C   0  0  0  0  0  0  0  0  0  0  0  0
  142.0480   72.7190  220.9350 C   0  0  0  0  0  0  0  0  0  0  0  0
  141.9990   71.5190  221.4420 O   0  0  0  0  0  0  0  0  0  0  0  0
  143.1890   72.9760  220.1430 N   0  0  0  0  0  0  0  0  0  0  0  0
  143.7190   72.2870  218.9800 C   0  0  0  0  0  0  0  0  0  0  0  0
  145.0670   72.9930  218.7140 C   0  0  0  0  0  0  0  0  0  0  0  0
  145.4130   73.5950  220.0760 C   0  0  0  0  0  0  0  0  0  0  0  0
  144.0540   74.1340  220.4550 C   0  0  1  0  0  0  0  0  0  0  0  0
  143.6720   75.3140  219.6740 C   0  0  0  0  0  0  0  0  0  0  0  0
  142.9000   76.3660  220.0600 N   0  0  0  0  0  0  0  0  0  0  0  0
  142.7870   77.2350  219.0630 C   0  0  0  0  0  0  0  0  0  0  0  0
  142.0500   78.4990  219.0490 C   0  0  0  0  0  0  0  0  0  0  0  0
  142.6100   79.6210  218.4730 C   0  0  0  0  0  0  0  0  0  0  0  0
  141.9030   80.8050  218.4680 C   0  0  0  0  0  0  0  0  0  0  0  0
  140.6350   80.8930  219.0330 C   0  0  0  0  0  0  0  0  0  0  0  0
  140.0820   79.7680  219.6090 C   0  0  0  0  0  0  0  0  0  0  0  0
  140.7990   78.5880  219.6080 C   0  0  0  0  0  0  0  0  0  0  0  0
  143.5090   76.7270  218.0020 C   0  0  0  0  0  0  0  0  0  0  0  0
  144.0350   75.5570  218.4090 N   0  0  0  0  0  0  0  0  0  0  0  0
  140.2320   77.0730  222.4730 C   0  0  0  0  0  0  0  0  0  0  0  0
  139.1190   77.8280  222.6760 C   0  0  0  0  0  0  0  0  0  0  0  0
  139.1950   79.1750  223.0140 C   0  0  0  0  0  0  0  0  0  0  0  0
  140.4590   79.7320  223.1380 C   0  0  0  0  0  0  0  0  0  0  0  0
  140.5410   81.0590  223.4710 C   0  0  0  0  0  0  0  0  0  0  0  0
  141.7820   81.6360  223.6010 C   0  0  0  0  0  0  0  0  0  0  0  0
  142.9170   80.8610  223.3910 C   0  0  0  0  0  0  0  0  0  0  0  0
  142.8340   79.5230  223.0560 C   0  0  0  0  0  0  0  0  0  0  0  0
  141.5770   78.9560  222.9300 C   0  0  0  0  0  0  0  0  0  0  0  0
  141.4450   77.6460  222.6020 N   0  0  0  0  0  0  0  0  0  0  0  0
  142.0580   75.4350  221.5100 H   0  0  0  0  0  0  0  0  0  0  0  0
  140.4311   73.0931  222.1778 H   0  0  0  0  0  0  0  0  0  0  0  0
  140.2675   73.5676  220.3986 H   0  0  0  0  0  0  0  0  0  0  0  0
  143.8718   71.2188  219.1936 H   0  0  0  0  0  0  0  0  0  0  0  0
  143.0399   72.3285  218.1156 H   0  0  0  0  0  0  0  0  0  0  0  0
  145.8342   72.2729  218.3934 H   0  0  0  0  0  0  0  0  0  0  0  0
  145.0137   73.7414  217.9096 H   0  0  0  0  0  0  0  0  0  0  0  0
  145.7655   72.8320  220.7856 H   0  0  0  0  0  0  0  0  0  0  0  0
  146.2278   74.3339  220.0709 H   0  0  0  0  0  0  0  0  0  0  0  0
  143.9973   74.4845  221.4961 H   0  0  0  0  0  0  0  0  0  0  0  0
  143.6119   79.5714  218.0217 H   0  0  0  0  0  0  0  0  0  0  0  0
  142.3509   81.6981  218.0078 H   0  0  0  0  0  0  0  0  0  0  0  0
  140.0823   81.8440  219.0208 H   0  0  0  0  0  0  0  0  0  0  0  0
  139.0813   79.8106  220.0638 H   0  0  0  0  0  0  0  0  0  0  0  0
  140.3550   77.6931  220.0685 H   0  0  0  0  0  0  0  0  0  0  0  0
  143.6313   77.1904  217.0119 H   0  0  0  0  0  0  0  0  0  0  0  0
  144.6310   74.9690  217.7830 H   0  0  0  0  0  0  0  0  0  0  0  0
  138.1295   77.3594  222.5697 H   0  0  0  0  0  0  0  0  0  0  0  0
  138.2877   79.7753  223.1767 H   0  0  0  0  0  0  0  0  0  0  0  0
  139.6289   81.6525  223.6316 H   0  0  0  0  0  0  0  0  0  0  0  0
  141.8759   82.6989  223.8682 H   0  0  0  0  0  0  0  0  0  0  0  0
  143.9086   81.3258  223.4944 H   0  0  0  0  0  0  0  0  0  0  0  0
  143.7423   78.9242  222.8937 H   0  0  0  0  0  0  0  0  0  0  0  0
  1  2  2  0
  2  3  1  0
  3  4  1  0
  4  5  1  0
  5  6  2  0
  5  7  1  0
  7  8  1  0
  8  9  1  0
  9 10  1  0
 10 11  1  0
 11 12  1  0
 12 13  2  0
 13 14  1  0
 14 15  1  0
 15 16  2  0
 16 17  1  0
 17 18  2  0
 18 19  1  0
 19 20  2  0
 14 21  2  0
 21 22  1  0
  2 23  1  0
 23 24  2  0
 24 25  1  0
 25 26  2  0
 26 27  1  0
 27 28  2  0
 28 29  1  0
 29 30  2  0
 30 31  1  0
 31 32  2  0
 11  7  1  0
 22 12  1  0
 32 23  1  0
 20 15  1  0
 31 26  1  0
  3 33  1  0
  4 34  1  0
  4 35  1  0
  8 36  1  0
  8 37  1  0
  9 38  1  0
  9 39  1  0
 10 40  1  0
 10 41  1  0
 11 42  1  1
 16 43  1  0
 17 44  1  0
 18 45  1  0
 19 46  1  0
 20 47  1  0
 21 48  1  0
 22 49  1  0
 24 50  1  0
 25 51  1  0
 27 52  1  0
 28 53  1  0
 29 54  1  0
 30 55  1  0
M  END
>  <smiles>  (30) 
O=C(NCC(=O)N1CCC[C@H]1c1nc(-c2ccccc2)c[nH]1)c1ccc2ccccc2n1

>  <score_type>  (30) 
oracle

>  <origin>  (30) 
autodockgpu

>  <m_score__min__energy>  (30) 
-9.4399999999999995

>  <m_primary>  (30) 
energy

>  <rmsd>  (30) 
7.054182462657993

>  <m_score__min__rmsd>  (30) 
7.054182462657993

>  <meeko>  (30) 
{"free_energy": -7.8, "intermolecular_energy": -9.59, "internal_energy": -3.78, "cluster_size": 20, "cluster_id": 4, "rank_in_cluster": 7}

>  <energy>  (30) 
-8.02

>  <cluster_rmsd>  (30) 
0.1

>  <cluster>  (30) 
4

$$$$

     RDKit          3D

 55 59  0  0  0  0  0  0  0  0999 V2000
  140.7090   72.6750  221.8180 O   0  0  0  0  0  0  0  0  0  0  0  0
  139.8800   71.7940  222.1990 C   0  0  0  0  0  0  0  0  0  0  0  0
  138.8880   71.3710  221.2310 N   0  0  0  0  0  0  0  0  0  0  0  0
  138.9570   71.9940  219.9560 C   0  0  0  0  0  0  0  0  0  0  0  0
  138.6100   73.4050  219.9100 C   0  0  0  0  0  0  0  0  0  0  0  0
  138.9420   73.9840  218.7900 O   0  0  0  0  0  0  0  0  0  0  0  0
  137.9840   74.2560  220.8470 N   0  0  0  0  0  0  0  0  0  0  0  0
  137.2530   73.9600  222.0670 C   0  0  0  0  0  0  0  0  0  0  0  0
  136.7050   75.3330  222.5130 C   0  0  0  0  0  0  0  0  0  0  0  0
  136.6950   76.1370  221.2130 C   0  0  0  0  0  0  0  0  0  0  0  0
  138.0380   75.7220  220.6600 C   0  0  1  0  0  0  0  0  0  0  0  0
  139.1620   76.3150  221.3910 C   0  0  0  0  0  0  0  0  0  0  0  0
  139.3790   77.6270  221.6800 N   0  0  0  0  0  0  0  0  0  0  0  0
  140.5120   77.7590  222.3600 C   0  0  0  0  0  0  0  0  0  0  0  0
  141.1200   78.9890  222.8670 C   0  0  0  0  0  0  0  0  0  0  0  0
  140.3230   80.0000  223.3650 C   0  0  0  0  0  0  0  0  0  0  0  0
  140.9110   81.1540  223.8390 C   0  0  0  0  0  0  0  0  0  0  0  0
  142.2920   81.3220  223.8260 C   0  0  0  0  0  0  0  0  0  0  0  0
  143.0820   80.3080  223.3250 C   0  0  0  0  0  0  0  0  0  0  0  0
  142.4820   79.1570  222.8530 C   0  0  0  0  0  0  0  0  0  0  0  0
  141.0400   76.4920  222.5120 C   0  0  0  0  0  0  0  0  0  0  0  0
  140.1920   75.6380  221.9110 N   0  0  0  0  0  0  0  0  0  0  0  0
  139.9160   71.2340  223.5330 C   0  0  0  0  0  0  0  0  0  0  0  0
  139.3600   70.0120  223.7490 C   0  0  0  0  0  0  0  0  0  0  0  0
  139.3590   69.4150  225.0050 C   0  0  0  0  0  0  0  0  0  0  0  0
  139.9500   70.1160  226.0460 C   0  0  0  0  0  0  0  0  0  0  0  0
  139.9520   69.5350  227.2870 C   0  0  0  0  0  0  0  0  0  0  0  0
  140.5320   70.2080  228.3360 C   0  0  0  0  0  0  0  0  0  0  0  0
  141.0980   71.4590  228.1110 C   0  0  0  0  0  0  0  0  0  0  0  0
  141.0950   72.0450  226.8600 C   0  0  0  0  0  0  0  0  0  0  0  0
  140.5090   71.3540  225.8140 C   0  0  0  0  0  0  0  0  0  0  0  0
  140.4810   71.8890  224.5670 N   0  0  0  0  0  0  0  0  0  0  0  0
  138.2360   70.6630  221.5850 H   0  0  0  0  0  0  0  0  0  0  0  0
  139.9882   71.8901  219.5873 H   0  0  0  0  0  0  0  0  0  0  0  0
  138.2014   71.4854  219.3393 H   0  0  0  0  0  0  0  0  0  0  0  0
  136.4313   73.2557  221.8700 H   0  0  0  0  0  0  0  0  0  0  0  0
  137.8820   73.4844  222.8340 H   0  0  0  0  0  0  0  0  0  0  0  0
  135.6904   75.2383  222.9273 H   0  0  0  0  0  0  0  0  0  0  0  0
  137.3035   75.8015  223.3082 H   0  0  0  0  0  0  0  0  0  0  0  0
  135.8680   75.8393  220.5516 H   0  0  0  0  0  0  0  0  0  0  0  0
  136.5495   77.2209  221.3313 H   0  0  0  0  0  0  0  0  0  0  0  0
  138.2043   76.0486  219.6228 H   0  0  0  0  0  0  0  0  0  0  0  0
  139.2290   79.8863  223.3836 H   0  0  0  0  0  0  0  0  0  0  0  0
  140.2745   81.9587  224.2358 H   0  0  0  0  0  0  0  0  0  0  0  0
  142.7464   82.2478  224.2088 H   0  0  0  0  0  0  0  0  0  0  0  0
  144.1765   80.4149  223.3017 H   0  0  0  0  0  0  0  0  0  0  0  0
  143.1149   78.3507  222.4538 H   0  0  0  0  0  0  0  0  0  0  0  0
  141.9763   76.2307  223.0268 H   0  0  0  0  0  0  0  0  0  0  0  0
  140.3660   74.6080  221.8870 H   0  0  0  0  0  0  0  0  0  0  0  0
  138.8971   69.4797  222.9049 H   0  0  0  0  0  0  0  0  0  0  0  0
  138.9071   68.4253  225.1668 H   0  0  0  0  0  0  0  0  0  0  0  0
  139.4967   68.5456  227.4414 H   0  0  0  0  0  0  0  0  0  0  0  0
  140.5485   69.7627  229.3417 H   0  0  0  0  0  0  0  0  0  0  0  0
  141.5605   71.9961  228.9522 H   0  0  0  0  0  0  0  0  0  0  0  0
  141.5466   73.0351  226.6995 H   0  0  0  0  0  0  0  0  0  0  0  0
  1  2  2  0
  2  3  1  0
  3  4  1  0
  4  5  1  0
  5  6  2  0
  5  7  1  0
  7  8  1  0
  8  9  1  0
  9 10  1  0
 10 11  1  0
 11 12  1  0
 12 13  2  0
 13 14  1  0
 14 15  1  0
 15 16  2  0
 16 17  1  0
 17 18  2  0
 18 19  1  0
 19 20  2  0
 14 21  2  0
 21 22  1  0
  2 23  1  0
 23 24  2  0
 24 25  1  0
 25 26  2  0
 26 27  1  0
 27 28  2  0
 28 29  1  0
 29 30  2  0
 30 31  1  0
 31 32  2  0
 11  7  1  0
 22 12  1  0
 32 23  1  0
 20 15  1  0
 31 26  1  0
  3 33  1  0
  4 34  1  0
  4 35  1  0
  8 36  1  0
  8 37  1  0
  9 38  1  0
  9 39  1  0
 10 40  1  0
 10 41  1  0
 11 42  1  6
 16 43  1  0
 17 44  1  0
 18 45  1  0
 19 46  1  0
 20 47  1  0
 21 48  1  0
 22 49  1  0
 24 50  1  0
 25 51  1  0
 27 52  1  0
 28 53  1  0
 29 54  1  0
 30 55  1  0
M  END
>  <smiles>  (31) 
O=C(NCC(=O)N1CCC[C@H]1c1nc(-c2ccccc2)c[nH]1)c1ccc2ccccc2n1

>  <score_type>  (31) 
oracle

>  <origin>  (31) 
autodockgpu

>  <m_score__min__energy>  (31) 
-9.4399999999999995

>  <m_primary>  (31) 
energy

>  <rmsd>  (31) 
3.294947902572291

>  <m_score__min__rmsd>  (31) 
3.294947902572291

>  <meeko>  (31) 
{"free_energy": -8.43, "intermolecular_energy": -10.22, "internal_energy": -2.62, "cluster_size": 24, "cluster_id": 2, "rank_in_cluster": 21}

>  <energy>  (31) 
-8.01

>  <cluster_rmsd>  (31) 
0.16

>  <cluster>  (31) 
4

$$$$

     RDKit          3D

 55 59  0  0  0  0  0  0  0  0999 V2000
  138.4270   70.1950  221.8660 O   0  0  0  0  0  0  0  0  0  0  0  0
  138.2710   70.6860  223.0240 C   0  0  0  0  0  0  0  0  0  0  0  0
  137.4930   71.9050  223.1150 N   0  0  0  0  0  0  0  0  0  0  0  0
  136.9880   72.4140  221.8880 C   0  0  0  0  0  0  0  0  0  0  0  0
  137.4150   73.7560  221.5250 C   0  0  0  0  0  0  0  0  0  0  0  0
  136.4930   74.6590  221.7070 O   0  0  0  0  0  0  0  0  0  0  0  0
  138.6340   74.2550  221.0160 N   0  0  0  0  0  0  0  0  0  0  0  0
  139.0700   74.5030  219.6530 C   0  0  0  0  0  0  0  0  0  0  0  0
  140.5570   74.8910  219.8050 C   0  0  0  0  0  0  0  0  0  0  0  0
  140.9390   74.2650  221.1450 C   0  0  0  0  0  0  0  0  0  0  0  0
  139.7160   74.6410  221.9470 C   0  0  1  0  0  0  0  0  0  0  0  0
  139.6630   76.0700  222.2680 C   0  0  0  0  0  0  0  0  0  0  0  0
  140.6980   76.9100  222.5430 N   0  0  0  0  0  0  0  0  0  0  0  0
  140.2380   78.1320  222.7830 C   0  0  0  0  0  0  0  0  0  0  0  0
  141.0040   79.3330  223.1190 C   0  0  0  0  0  0  0  0  0  0  0  0
  140.5680   80.5720  222.6950 C   0  0  0  0  0  0  0  0  0  0  0  0
  141.3020   81.6940  223.0190 C   0  0  0  0  0  0  0  0  0  0  0  0
  142.4730   81.6040  223.7640 C   0  0  0  0  0  0  0  0  0  0  0  0
  142.9020   80.3620  224.1840 C   0  0  0  0  0  0  0  0  0  0  0  0
  142.1600   79.2450  223.8540 C   0  0  0  0  0  0  0  0  0  0  0  0
  138.8640   78.0760  222.6590 C   0  0  0  0  0  0  0  0  0  0  0  0
  138.5480   76.8070  222.3440 N   0  0  0  0  0  0  0  0  0  0  0  0
  138.8400   70.0680  224.2020 C   0  0  0  0  0  0  0  0  0  0  0  0
  138.7570   68.7180  224.3420 C   0  0  0  0  0  0  0  0  0  0  0  0
  139.2830   68.0580  225.4480 C   0  0  0  0  0  0  0  0  0  0  0  0
  139.9020   68.8310  226.4190 C   0  0  0  0  0  0  0  0  0  0  0  0
  140.4210   68.1880  227.5110 C   0  0  0  0  0  0  0  0  0  0  0  0
  141.0410   68.9310  228.4880 C   0  0  0  0  0  0  0  0  0  0  0  0
  141.1230   70.3110  228.3420 C   0  0  0  0  0  0  0  0  0  0  0  0
  140.5990   70.9600  227.2400 C   0  0  0  0  0  0  0  0  0  0  0  0
  139.9790   70.1970  226.2650 C   0  0  0  0  0  0  0  0  0  0  0  0
  139.4490   70.7890  225.1640 N   0  0  0  0  0  0  0  0  0  0  0  0
  137.3990   72.2690  224.0700 H   0  0  0  0  0  0  0  0  0  0  0  0
  137.3061   71.7321  221.0856 H   0  0  0  0  0  0  0  0  0  0  0  0
  135.8981   72.4782  222.0224 H   0  0  0  0  0  0  0  0  0  0  0  0
  138.9624   73.5982  219.0367 H   0  0  0  0  0  0  0  0  0  0  0  0
  138.4767   75.2824  219.1524 H   0  0  0  0  0  0  0  0  0  0  0  0
  141.1607   74.4723  218.9864 H   0  0  0  0  0  0  0  0  0  0  0  0
  140.7280   75.9770  219.7689 H   0  0  0  0  0  0  0  0  0  0  0  0
  141.0619   73.1745  221.0693 H   0  0  0  0  0  0  0  0  0  0  0  0
  141.8984   74.6015  221.5648 H   0  0  0  0  0  0  0  0  0  0  0  0
  139.6721   74.1544  222.9325 H   0  0  0  0  0  0  0  0  0  0  0  0
  139.6444   80.6638  222.1046 H   0  0  0  0  0  0  0  0  0  0  0  0
  140.9537   82.6811  222.6809 H   0  0  0  0  0  0  0  0  0  0  0  0
  143.0475   82.5081  224.0142 H   0  0  0  0  0  0  0  0  0  0  0  0
  143.8244   80.2625  224.7749 H   0  0  0  0  0  0  0  0  0  0  0  0
  142.5053   78.2561  224.1899 H   0  0  0  0  0  0  0  0  0  0  0  0
  138.1607   78.9112  222.7925 H   0  0  0  0  0  0  0  0  0  0  0  0
  137.5610   76.5020  222.1940 H   0  0  0  0  0  0  0  0  0  0  0  0
  138.2589   68.1300  223.5570 H   0  0  0  0  0  0  0  0  0  0  0  0
  139.2107   66.9650  225.5485 H   0  0  0  0  0  0  0  0  0  0  0  0
  140.3432   67.0948  227.6051 H   0  0  0  0  0  0  0  0  0  0  0  0
  141.4671   68.4391  229.3748 H   0  0  0  0  0  0  0  0  0  0  0  0
  141.6188   70.9030  229.1254 H   0  0  0  0  0  0  0  0  0  0  0  0
  140.6725   72.0530  227.1402 H   0  0  0  0  0  0  0  0  0  0  0  0
  1  2  2  0
  2  3  1  0
  3  4  1  0
  4  5  1  0
  5  6  2  0
  5  7  1  0
  7  8  1  0
  8  9  1  0
  9 10  1  0
 10 11  1  0
 11 12  1  0
 12 13  2  0
 13 14  1  0
 14 15  1  0
 15 16  2  0
 16 17  1  0
 17 18  2  0
 18 19  1  0
 19 20  2  0
 14 21  2  0
 21 22  1  0
  2 23  1  0
 23 24  2  0
 24 25  1  0
 25 26  2  0
 26 27  1  0
 27 28  2  0
 28 29  1  0
 29 30  2  0
 30 31  1  0
 31 32  2  0
 11  7  1  0
 22 12  1  0
 32 23  1  0
 20 15  1  0
 31 26  1  0
  3 33  1  0
  4 34  1  0
  4 35  1  0
  8 36  1  0
  8 37  1  0
  9 38  1  0
  9 39  1  0
 10 40  1  0
 10 41  1  0
 11 42  1  1
 16 43  1  0
 17 44  1  0
 18 45  1  0
 19 46  1  0
 20 47  1  0
 21 48  1  0
 22 49  1  0
 24 50  1  0
 25 51  1  0
 27 52  1  0
 28 53  1  0
 29 54  1  0
 30 55  1  0
M  END
>  <smiles>  (32) 
O=C(NCC(=O)N1CCC[C@H]1c1nc(-c2ccccc2)c[nH]1)c1ccc2ccccc2n1

>  <score_type>  (32) 
oracle

>  <origin>  (32) 
autodockgpu

>  <m_score__min__energy>  (32) 
-9.4399999999999995

>  <m_primary>  (32) 
energy

>  <rmsd>  (32) 
2.8371145703738274

>  <m_score__min__rmsd>  (32) 
2.8371145703738274

>  <meeko>  (32) 
{"free_energy": -8.86, "intermolecular_energy": -10.65, "internal_energy": -2.4, "cluster_size": 24, "cluster_id": 2, "rank_in_cluster": 7}

>  <energy>  (32) 
-7.99

>  <cluster_rmsd>  (32) 
0.17

>  <cluster>  (32) 
4

$$$$

     RDKit          3D

 55 59  0  0  0  0  0  0  0  0999 V2000
  138.8620   75.1470  221.8560 O   0  0  0  0  0  0  0  0  0  0  0  0
  140.0160   75.6560  221.9880 C   0  0  0  0  0  0  0  0  0  0  0  0
  141.1450   74.7810  221.7440 N   0  0  0  0  0  0  0  0  0  0  0  0
  140.8290   73.4430  221.3820 C   0  0  0  0  0  0  0  0  0  0  0  0
  141.8850   72.6890  220.7250 C   0  0  0  0  0  0  0  0  0  0  0  0
  141.7030   71.3990  220.7700 O   0  0  0  0  0  0  0  0  0  0  0  0
  143.0590   73.0940  220.0530 N   0  0  0  0  0  0  0  0  0  0  0  0
  143.7360   72.5390  218.8940 C   0  0  0  0  0  0  0  0  0  0  0  0
  145.0360   73.3660  218.7940 C   0  0  0  0  0  0  0  0  0  0  0  0
  145.2210   73.8880  220.2180 C   0  0  0  0  0  0  0  0  0  0  0  0
  143.7960   74.2890  220.5170 C   0  0  1  0  0  0  0  0  0  0  0  0
  143.3790   75.4920  219.7900 C   0  0  0  0  0  0  0  0  0  0  0  0
  142.5280   76.4710  220.2000 N   0  0  0  0  0  0  0  0  0  0  0  0
  142.4080   77.3930  219.2520 C   0  0  0  0  0  0  0  0  0  0  0  0
  141.5960   78.6100  219.2780 C   0  0  0  0  0  0  0  0  0  0  0  0
  142.2060   79.8470  219.3260 C   0  0  0  0  0  0  0  0  0  0  0  0
  141.4280   80.9860  219.3510 C   0  0  0  0  0  0  0  0  0  0  0  0
  140.0390   80.9140  219.3280 C   0  0  0  0  0  0  0  0  0  0  0  0
  139.4360   79.6730  219.2800 C   0  0  0  0  0  0  0  0  0  0  0  0
  140.2260   78.5410  219.2560 C   0  0  0  0  0  0  0  0  0  0  0  0
  143.2070   76.9940  218.1990 C   0  0  0  0  0  0  0  0  0  0  0  0
  143.7840   75.8330  218.5610 N   0  0  0  0  0  0  0  0  0  0  0  0
  140.2050   77.0400  222.3650 C   0  0  0  0  0  0  0  0  0  0  0  0
  139.1120   77.8300  222.5380 C   0  0  0  0  0  0  0  0  0  0  0  0
  139.2200   79.1690  222.9000 C   0  0  0  0  0  0  0  0  0  0  0  0
  140.4960   79.6810  223.0790 C   0  0  0  0  0  0  0  0  0  0  0  0
  140.6110   80.9990  223.4350 C   0  0  0  0  0  0  0  0  0  0  0  0
  141.8650   81.5310  223.6200 C   0  0  0  0  0  0  0  0  0  0  0  0
  142.9810   80.7210  223.4400 C   0  0  0  0  0  0  0  0  0  0  0  0
  142.8650   79.3910  223.0810 C   0  0  0  0  0  0  0  0  0  0  0  0
  141.5950   78.8700  222.9000 C   0  0  0  0  0  0  0  0  0  0  0  0
  141.4310   77.5700  222.5470 N   0  0  0  0  0  0  0  0  0  0  0  0
  142.0570   75.2330  221.8690 H   0  0  0  0  0  0  0  0  0  0  0  0
  140.5525   72.9034  222.2998 H   0  0  0  0  0  0  0  0  0  0  0  0
  140.0193   73.5218  220.6417 H   0  0  0  0  0  0  0  0  0  0  0  0
  143.9607   71.4728  219.0450 H   0  0  0  0  0  0  0  0  0  0  0  0
  143.1267   72.5931  217.9798 H   0  0  0  0  0  0  0  0  0  0  0  0
  145.8841   72.7344  218.4910 H   0  0  0  0  0  0  0  0  0  0  0  0
  144.9837   74.1669  218.0418 H   0  0  0  0  0  0  0  0  0  0  0  0
  145.5793   73.1032  220.9005 H   0  0  0  0  0  0  0  0  0  0  0  0
  145.9685   74.6868  220.3329 H   0  0  0  0  0  0  0  0  0  0  0  0
  143.6278   74.5539  221.5713 H   0  0  0  0  0  0  0  0  0  0  0  0
  143.3031   79.9241  219.3442 H   0  0  0  0  0  0  0  0  0  0  0  0
  141.9159   81.9711  219.3899 H   0  0  0  0  0  0  0  0  0  0  0  0
  139.4312   81.8306  219.3477 H   0  0  0  0  0  0  0  0  0  0  0  0
  138.3395   79.5872  219.2611 H   0  0  0  0  0  0  0  0  0  0  0  0
  139.7423   77.5538  219.2181 H   0  0  0  0  0  0  0  0  0  0  0  0
  143.3457   77.5243  217.2453 H   0  0  0  0  0  0  0  0  0  0  0  0
  144.4410   75.3210  217.9310 H   0  0  0  0  0  0  0  0  0  0  0  0
  138.1120   77.3973  222.3872 H   0  0  0  0  0  0  0  0  0  0  0  0
  138.3277   79.7971  223.0388 H   0  0  0  0  0  0  0  0  0  0  0  0
  139.7143   81.6215  223.5706 H   0  0  0  0  0  0  0  0  0  0  0  0
  141.9844   82.5861  223.9073 H   0  0  0  0  0  0  0  0  0  0  0  0
  143.9831   81.1501  223.5873 H   0  0  0  0  0  0  0  0  0  0  0  0
  143.7578   78.7634  222.9428 H   0  0  0  0  0  0  0  0  0  0  0  0
  1  2  2  0
  2  3  1  0
  3  4  1  0
  4  5  1  0
  5  6  2  0
  5  7  1  0
  7  8  1  0
  8  9  1  0
  9 10  1  0
 10 11  1  0
 11 12  1  0
 12 13  2  0
 13 14  1  0
 14 15  1  0
 15 16  2  0
 16 17  1  0
 17 18  2  0
 18 19  1  0
 19 20  2  0
 14 21  2  0
 21 22  1  0
  2 23  1  0
 23 24  2  0
 24 25  1  0
 25 26  2  0
 26 27  1  0
 27 28  2  0
 28 29  1  0
 29 30  2  0
 30 31  1  0
 31 32  2  0
 11  7  1  0
 22 12  1  0
 32 23  1  0
 20 15  1  0
 31 26  1  0
  3 33  1  0
  4 34  1  0
  4 35  1  0
  8 36  1  0
  8 37  1  0
  9 38  1  0
  9 39  1  0
 10 40  1  0
 10 41  1  0
 11 42  1  1
 16 43  1  0
 17 44  1  0
 18 45  1  0
 19 46  1  0
 20 47  1  0
 21 48  1  0
 22 49  1  0
 24 50  1  0
 25 51  1  0
 27 52  1  0
 28 53  1  0
 29 54  1  0
 30 55  1  0
M  END
>  <smiles>  (33) 
O=C(NCC(=O)N1CCC[C@H]1c1nc(-c2ccccc2)c[nH]1)c1ccc2ccccc2n1

>  <score_type>  (33) 
oracle

>  <origin>  (33) 
autodockgpu

>  <m_score__min__energy>  (33) 
-9.4399999999999995

>  <m_primary>  (33) 
energy

>  <rmsd>  (33) 
6.9258120545033215

>  <m_score__min__rmsd>  (33) 
6.9258120545033215

>  <meeko>  (33) 
{"free_energy": -7.67, "intermolecular_energy": -9.45, "internal_energy": -4.02, "cluster_size": 20, "cluster_id": 4, "rank_in_cluster": 10}

>  <energy>  (33) 
-7.88

>  <cluster_rmsd>  (33) 
0.3

>  <cluster>  (33) 
4

$$$$

     RDKit          3D

 55 59  0  0  0  0  0  0  0  0999 V2000
  139.4430   70.3510  221.8540 O   0  0  0  0  0  0  0  0  0  0  0  0
  139.2410   71.1730  222.7980 C   0  0  0  0  0  0  0  0  0  0  0  0
  138.5200   72.3840  222.4640 N   0  0  0  0  0  0  0  0  0  0  0  0
  138.1180   72.5150  221.1070 C   0  0  0  0  0  0  0  0  0  0  0  0
  139.1820   72.5030  220.1160 C   0  0  0  0  0  0  0  0  0  0  0  0
  139.0480   71.5600  219.2260 O   0  0  0  0  0  0  0  0  0  0  0  0
  140.3220   73.3170  219.9430 N   0  0  0  0  0  0  0  0  0  0  0  0
  140.8820   73.9370  218.7550 C   0  0  0  0  0  0  0  0  0  0  0  0
  142.2120   74.5480  219.2470 C   0  0  0  0  0  0  0  0  0  0  0  0
  142.5290   73.7210  220.4930 C   0  0  0  0  0  0  0  0  0  0  0  0
  141.1520   73.6790  221.1130 C   0  0  1  0  0  0  0  0  0  0  0  0
  140.7440   74.9670  221.6820 C   0  0  0  0  0  0  0  0  0  0  0  0
  141.4130   76.1520  221.6490 N   0  0  0  0  0  0  0  0  0  0  0  0
  140.7110   77.0860  222.2780 C   0  0  0  0  0  0  0  0  0  0  0  0
  141.0590   78.4930  222.4770 C   0  0  0  0  0  0  0  0  0  0  0  0
  141.8430   79.1500  221.5490 C   0  0  0  0  0  0  0  0  0  0  0  0
  142.1630   80.4760  221.7510 C   0  0  0  0  0  0  0  0  0  0  0  0
  141.7120   81.1680  222.8700 C   0  0  0  0  0  0  0  0  0  0  0  0
  140.9300   80.5050  223.7930 C   0  0  0  0  0  0  0  0  0  0  0  0
  140.6160   79.1770  223.5820 C   0  0  0  0  0  0  0  0  0  0  0  0
  139.5540   76.4830  222.7310 C   0  0  0  0  0  0  0  0  0  0  0  0
  139.6070   75.1940  222.3500 N   0  0  0  0  0  0  0  0  0  0  0  0
  139.7060   70.9220  224.1460 C   0  0  0  0  0  0  0  0  0  0  0  0
  140.4340   71.8790  224.7800 C   0  0  0  0  0  0  0  0  0  0  0  0
  140.9110   71.7040  226.0750 C   0  0  0  0  0  0  0  0  0  0  0  0
  140.6180   70.5050  226.7080 C   0  0  0  0  0  0  0  0  0  0  0  0
  141.0850   70.3250  227.9830 C   0  0  0  0  0  0  0  0  0  0  0  0
  140.8080   69.1470  228.6330 C   0  0  0  0  0  0  0  0  0  0  0  0
  140.0640   68.1690  227.9810 C   0  0  0  0  0  0  0  0  0  0  0  0
  139.5930   68.3510  226.6940 C   0  0  0  0  0  0  0  0  0  0  0  0
  139.8800   69.5440  226.0530 C   0  0  0  0  0  0  0  0  0  0  0  0
  139.4390   69.7680  224.7900 N   0  0  0  0  0  0  0  0  0  0  0  0
  138.3860   73.0220  223.2570 H   0  0  0  0  0  0  0  0  0  0  0  0
  137.4367   71.6824  220.8774 H   0  0  0  0  0  0  0  0  0  0  0  0
  137.6585   73.5116  221.0320 H   0  0  0  0  0  0  0  0  0  0  0  0
  141.0622   73.1875  217.9703 H   0  0  0  0  0  0  0  0  0  0  0  0
  140.2100   74.6857  218.3103 H   0  0  0  0  0  0  0  0  0  0  0  0
  143.0015   74.4394  218.4888 H   0  0  0  0  0  0  0  0  0  0  0  0
  142.1455   75.6274  219.4480 H   0  0  0  0  0  0  0  0  0  0  0  0
  142.8960   72.7160  220.2374 H   0  0  0  0  0  0  0  0  0  0  0  0
  143.3232   74.1260  221.1373 H   0  0  0  0  0  0  0  0  0  0  0  0
  141.0764   72.9863  221.9642 H   0  0  0  0  0  0  0  0  0  0  0  0
  142.2088   78.6204  220.6570 H   0  0  0  0  0  0  0  0  0  0  0  0
  142.7883   80.9976  221.0114 H   0  0  0  0  0  0  0  0  0  0  0  0
  141.9745   82.2261  223.0165 H   0  0  0  0  0  0  0  0  0  0  0  0
  140.5606   81.0285  224.6872 H   0  0  0  0  0  0  0  0  0  0  0  0
  139.9928   78.6518  224.3207 H   0  0  0  0  0  0  0  0  0  0  0  0
  138.7429   76.9654  223.2962 H   0  0  0  0  0  0  0  0  0  0  0  0
  138.8420   74.5180  222.5720 H   0  0  0  0  0  0  0  0  0  0  0  0
  140.6524   72.8197  224.2534 H   0  0  0  0  0  0  0  0  0  0  0  0
  141.4981   72.4866  226.5779 H   0  0  0  0  0  0  0  0  0  0  0  0
  141.6728   71.1116  228.4788 H   0  0  0  0  0  0  0  0  0  0  0  0
  141.1705   68.9789  229.6578 H   0  0  0  0  0  0  0  0  0  0  0  0
  139.8447   67.2260  228.5032 H   0  0  0  0  0  0  0  0  0  0  0  0
  139.0054   67.5681  226.1923 H   0  0  0  0  0  0  0  0  0  0  0  0
  1  2  2  0
  2  3  1  0
  3  4  1  0
  4  5  1  0
  5  6  2  0
  5  7  1  0
  7  8  1  0
  8  9  1  0
  9 10  1  0
 10 11  1  0
 11 12  1  0
 12 13  2  0
 13 14  1  0
 14 15  1  0
 15 16  2  0
 16 17  1  0
 17 18  2  0
 18 19  1  0
 19 20  2  0
 14 21  2  0
 21 22  1  0
  2 23  1  0
 23 24  2  0
 24 25  1  0
 25 26  2  0
 26 27  1  0
 27 28  2  0
 28 29  1  0
 29 30  2  0
 30 31  1  0
 31 32  2  0
 11  7  1  0
 22 12  1  0
 32 23  1  0
 20 15  1  0
 31 26  1  0
  3 33  1  0
  4 34  1  0
  4 35  1  0
  8 36  1  0
  8 37  1  0
  9 38  1  0
  9 39  1  0
 10 40  1  0
 10 41  1  0
 11 42  1  1
 16 43  1  0
 17 44  1  0
 18 45  1  0
 19 46  1  0
 20 47  1  0
 21 48  1  0
 22 49  1  0
 24 50  1  0
 25 51  1  0
 27 52  1  0
 28 53  1  0
 29 54  1  0
 30 55  1  0
M  END
>  <smiles>  (34) 
O=C(NCC(=O)N1CCC[C@H]1c1nc(-c2ccccc2)c[nH]1)c1ccc2ccccc2n1

>  <score_type>  (34) 
oracle

>  <origin>  (34) 
autodockgpu

>  <m_score__min__energy>  (34) 
-9.4399999999999995

>  <m_primary>  (34) 
energy

>  <rmsd>  (34) 
3.4922391670525528

>  <m_score__min__rmsd>  (34) 
3.4922391670525528

>  <meeko>  (34) 
{"free_energy": -9.14, "intermolecular_energy": -10.93, "internal_energy": -1.83, "cluster_size": 24, "cluster_id": 2, "rank_in_cluster": 3}

>  <energy>  (34) 
-7.81

>  <cluster_rmsd>  (34) 
0.22

>  <cluster>  (34) 
4

$$$$

     RDKit          3D

 55 59  0  0  0  0  0  0  0  0999 V2000
  138.1060   69.9940  221.8050 O   0  0  0  0  0  0  0  0  0  0  0  0
  138.4300   70.8520  222.6810 C   0  0  0  0  0  0  0  0  0  0  0  0
  138.1750   72.2410  222.3580 N   0  0  0  0  0  0  0  0  0  0  0  0
  137.5850   72.4860  221.0880 C   0  0  0  0  0  0  0  0  0  0  0  0
  138.3090   73.3890  220.2070 C   0  0  0  0  0  0  0  0  0  0  0  0
  137.6120   73.7730  219.1750 O   0  0  0  0  0  0  0  0  0  0  0  0
  139.6160   73.9210  220.2650 N   0  0  0  0  0  0  0  0  0  0  0  0
  140.5290   74.3290  219.2100 C   0  0  0  0  0  0  0  0  0  0  0  0
  141.8370   74.6610  219.9610 C   0  0  0  0  0  0  0  0  0  0  0  0
  141.7010   73.8620  221.2570 C   0  0  0  0  0  0  0  0  0  0  0  0
  140.2550   74.1610  221.5760 C   0  0  1  0  0  0  0  0  0  0  0  0
  140.0460   75.5390  222.0300 C   0  0  0  0  0  0  0  0  0  0  0  0
  140.9820   76.4980  222.2680 N   0  0  0  0  0  0  0  0  0  0  0  0
  140.3920   77.6180  222.6670 C   0  0  0  0  0  0  0  0  0  0  0  0
  141.0210   78.8890  223.0260 C   0  0  0  0  0  0  0  0  0  0  0  0
  142.3930   79.0230  222.9650 C   0  0  0  0  0  0  0  0  0  0  0  0
  142.9710   80.2280  223.3080 C   0  0  0  0  0  0  0  0  0  0  0  0
  142.2000   81.3120  223.7140 C   0  0  0  0  0  0  0  0  0  0  0  0
  140.8290   81.1700  223.7730 C   0  0  0  0  0  0  0  0  0  0  0  0
  140.2610   79.9590  223.4280 C   0  0  0  0  0  0  0  0  0  0  0  0
  139.0330   77.3720  222.6870 C   0  0  0  0  0  0  0  0  0  0  0  0
  138.8590   76.0970  222.2930 N   0  0  0  0  0  0  0  0  0  0  0  0
  139.0270   70.4700  223.9430 C   0  0  0  0  0  0  0  0  0  0  0  0
  139.0150   69.1600  224.3080 C   0  0  0  0  0  0  0  0  0  0  0  0
  139.5700   68.7240  225.5060 C   0  0  0  0  0  0  0  0  0  0  0  0
  140.1450   69.6800  226.3300 C   0  0  0  0  0  0  0  0  0  0  0  0
  140.6940   69.2580  227.5120 C   0  0  0  0  0  0  0  0  0  0  0  0
  141.2700   70.1860  228.3460 C   0  0  0  0  0  0  0  0  0  0  0  0
  141.2800   71.5250  227.9710 C   0  0  0  0  0  0  0  0  0  0  0  0
  140.7260   71.9510  226.7780 C   0  0  0  0  0  0  0  0  0  0  0  0
  140.1500   71.0040  225.9480 C   0  0  0  0  0  0  0  0  0  0  0  0
  139.5940   71.3740  224.7670 N   0  0  0  0  0  0  0  0  0  0  0  0
  138.4590   72.8980  223.0930 H   0  0  0  0  0  0  0  0  0  0  0  0
  137.4872   71.5198  220.5714 H   0  0  0  0  0  0  0  0  0  0  0  0
  136.6280   72.9854  221.2994 H   0  0  0  0  0  0  0  0  0  0  0  0
  140.6869   73.5117  218.4909 H   0  0  0  0  0  0  0  0  0  0  0  0
  140.1484   75.1783  218.6237 H   0  0  0  0  0  0  0  0  0  0  0  0
  142.7166   74.3355  219.3862 H   0  0  0  0  0  0  0  0  0  0  0  0
  141.9791   75.7388  220.1288 H   0  0  0  0  0  0  0  0  0  0  0  0
  141.8735   72.7873  221.0978 H   0  0  0  0  0  0  0  0  0  0  0  0
  142.4207   74.1213  222.0475 H   0  0  0  0  0  0  0  0  0  0  0  0
  139.8548   73.5540  222.4015 H   0  0  0  0  0  0  0  0  0  0  0  0
  143.0199   78.1773  222.6460 H   0  0  0  0  0  0  0  0  0  0  0  0
  144.0648   80.3336  223.2593 H   0  0  0  0  0  0  0  0  0  0  0  0
  142.6754   82.2666  223.9836 H   0  0  0  0  0  0  0  0  0  0  0  0
  140.1956   82.0112  224.0910 H   0  0  0  0  0  0  0  0  0  0  0  0
  139.1676   79.8489  223.4768 H   0  0  0  0  0  0  0  0  0  0  0  0
  138.2432   78.0830  222.9709 H   0  0  0  0  0  0  0  0  0  0  0  0
  137.9110   75.6630  222.2220 H   0  0  0  0  0  0  0  0  0  0  0  0
  138.5522   68.4231  223.6351 H   0  0  0  0  0  0  0  0  0  0  0  0
  139.5537   67.6613  225.7894 H   0  0  0  0  0  0  0  0  0  0  0  0
  140.6741   68.1936  227.7890 H   0  0  0  0  0  0  0  0  0  0  0  0
  141.7185   69.8728  229.3003 H   0  0  0  0  0  0  0  0  0  0  0  0
  141.7410   72.2652  228.6415 H   0  0  0  0  0  0  0  0  0  0  0  0
  140.7424   73.0140  226.4957 H   0  0  0  0  0  0  0  0  0  0  0  0
  1  2  2  0
  2  3  1  0
  3  4  1  0
  4  5  1  0
  5  6  2  0
  5  7  1  0
  7  8  1  0
  8  9  1  0
  9 10  1  0
 10 11  1  0
 11 12  1  0
 12 13  2  0
 13 14  1  0
 14 15  1  0
 15 16  2  0
 16 17  1  0
 17 18  2  0
 18 19  1  0
 19 20  2  0
 14 21  2  0
 21 22  1  0
  2 23  1  0
 23 24  2  0
 24 25  1  0
 25 26  2  0
 26 27  1  0
 27 28  2  0
 28 29  1  0
 29 30  2  0
 30 31  1  0
 31 32  2  0
 11  7  1  0
 22 12  1  0
 32 23  1  0
 20 15  1  0
 31 26  1  0
  3 33  1  0
  4 34  1  0
  4 35  1  0
  8 36  1  0
  8 37  1  0
  9 38  1  0
  9 39  1  0
 10 40  1  0
 10 41  1  0
 11 42  1  1
 16 43  1  0
 17 44  1  0
 18 45  1  0
 19 46  1  0
 20 47  1  0
 21 48  1  0
 22 49  1  0
 24 50  1  0
 25 51  1  0
 27 52  1  0
 28 53  1  0
 29 54  1  0
 30 55  1  0
M  END
>  <smiles>  (35) 
O=C(NCC(=O)N1CCC[C@H]1c1nc(-c2ccccc2)c[nH]1)c1ccc2ccccc2n1

>  <score_type>  (35) 
oracle

>  <origin>  (35) 
autodockgpu

>  <m_score__min__energy>  (35) 
-9.4399999999999995

>  <m_primary>  (35) 
energy

>  <rmsd>  (35) 
3.0095341539983758

>  <m_score__min__rmsd>  (35) 
3.0095341539983758

>  <meeko>  (35) 
{"free_energy": -8.98, "intermolecular_energy": -10.77, "internal_energy": -2.01, "cluster_size": 24, "cluster_id": 2, "rank_in_cluster": 4}

>  <energy>  (35) 
-7.8

>  <cluster_rmsd>  (35) 
0.34

>  <cluster>  (35) 
4

$$$$

     RDKit          3D

 55 59  0  0  0  0  0  0  0  0999 V2000
  138.9510   75.1030  222.1200 O   0  0  0  0  0  0  0  0  0  0  0  0
  140.0720   75.6930  222.0620 C   0  0  0  0  0  0  0  0  0  0  0  0
  141.1950   74.9120  221.5850 N   0  0  0  0  0  0  0  0  0  0  0  0
  140.9110   73.5650  221.2310 C   0  0  0  0  0  0  0  0  0  0  0  0
  142.0400   72.7680  220.7800 C   0  0  0  0  0  0  0  0  0  0  0  0
  141.8760   71.4880  220.9630 O   0  0  0  0  0  0  0  0  0  0  0  0
  143.2710   73.1230  220.1830 N   0  0  0  0  0  0  0  0  0  0  0  0
  144.0560   72.4680  219.1520 C   0  0  0  0  0  0  0  0  0  0  0  0
  145.3560   73.3000  219.0920 C   0  0  0  0  0  0  0  0  0  0  0  0
  145.4040   73.9600  220.4700 C   0  0  0  0  0  0  0  0  0  0  0  0
  143.9540   74.3680  220.5940 C   0  0  1  0  0  0  0  0  0  0  0  0
  143.6010   75.4880  219.7180 C   0  0  0  0  0  0  0  0  0  0  0  0
  143.0240   76.6730  220.0570 N   0  0  0  0  0  0  0  0  0  0  0  0
  142.8660   77.4260  218.9750 C   0  0  0  0  0  0  0  0  0  0  0  0
  142.2890   78.7670  218.8880 C   0  0  0  0  0  0  0  0  0  0  0  0
  142.7200   79.6450  217.9130 C   0  0  0  0  0  0  0  0  0  0  0  0
  142.1660   80.9060  217.8450 C   0  0  0  0  0  0  0  0  0  0  0  0
  141.1800   81.3140  218.7370 C   0  0  0  0  0  0  0  0  0  0  0  0
  140.7550   80.4310  219.7090 C   0  0  0  0  0  0  0  0  0  0  0  0
  141.3170   79.1710  219.7690 C   0  0  0  0  0  0  0  0  0  0  0  0
  143.3570   76.7020  217.9060 C   0  0  0  0  0  0  0  0  0  0  0  0
  143.7970   75.5280  218.3940 N   0  0  0  0  0  0  0  0  0  0  0  0
  140.2300   77.0770  222.4540 C   0  0  0  0  0  0  0  0  0  0  0  0
  139.1190   77.8300  222.6710 C   0  0  0  0  0  0  0  0  0  0  0  0
  139.1970   79.1670  223.0500 C   0  0  0  0  0  0  0  0  0  0  0  0
  140.4630   79.7150  223.1990 C   0  0  0  0  0  0  0  0  0  0  0  0
  140.5480   81.0310  223.5710 C   0  0  0  0  0  0  0  0  0  0  0  0
  141.7900   81.5990  223.7270 C   0  0  0  0  0  0  0  0  0  0  0  0
  142.9240   80.8260  223.5010 C   0  0  0  0  0  0  0  0  0  0  0  0
  142.8380   79.4980  223.1260 C   0  0  0  0  0  0  0  0  0  0  0  0
  141.5790   78.9410  222.9750 C   0  0  0  0  0  0  0  0  0  0  0  0
  141.4440   77.6410  222.6070 N   0  0  0  0  0  0  0  0  0  0  0  0
  142.0810   75.4290  221.5620 H   0  0  0  0  0  0  0  0  0  0  0  0
  140.4818   73.0693  222.1142 H   0  0  0  0  0  0  0  0  0  0  0  0
  140.2299   73.6245  220.3693 H   0  0  0  0  0  0  0  0  0  0  0  0
  144.2710   71.4249  219.4269 H   0  0  0  0  0  0  0  0  0  0  0  0
  143.5345   72.4245  218.1844 H   0  0  0  0  0  0  0  0  0  0  0  0
  146.2320   72.6542  218.9319 H   0  0  0  0  0  0  0  0  0  0  0  0
  145.3705   74.0234  218.2635 H   0  0  0  0  0  0  0  0  0  0  0  0
  145.7004   73.2500  221.2562 H   0  0  0  0  0  0  0  0  0  0  0  0
  146.1336   74.7764  220.5759 H   0  0  0  0  0  0  0  0  0  0  0  0
  143.6856   74.7319  221.5968 H   0  0  0  0  0  0  0  0  0  0  0  0
  143.4981   79.3412  217.1972 H   0  0  0  0  0  0  0  0  0  0  0  0
  142.5114   81.6043  217.0684 H   0  0  0  0  0  0  0  0  0  0  0  0
  140.7465   82.3227  218.6690 H   0  0  0  0  0  0  0  0  0  0  0  0
  139.9772   80.7277  220.4280 H   0  0  0  0  0  0  0  0  0  0  0  0
  140.9757   78.4706  220.5455 H   0  0  0  0  0  0  0  0  0  0  0  0
  143.3833   77.0244  216.8546 H   0  0  0  0  0  0  0  0  0  0  0  0
  144.2190   74.7960  217.7810 H   0  0  0  0  0  0  0  0  0  0  0  0
  138.1286   77.3687  222.5432 H   0  0  0  0  0  0  0  0  0  0  0  0
  138.2908   79.7656  223.2245 H   0  0  0  0  0  0  0  0  0  0  0  0
  139.6371   81.6234  223.7420 H   0  0  0  0  0  0  0  0  0  0  0  0
  141.8860   82.6529  224.0272 H   0  0  0  0  0  0  0  0  0  0  0  0
  143.9166   81.2838  223.6240 H   0  0  0  0  0  0  0  0  0  0  0  0
  143.7448   78.9001  222.9523 H   0  0  0  0  0  0  0  0  0  0  0  0
  1  2  2  0
  2  3  1  0
  3  4  1  0
  4  5  1  0
  5  6  2  0
  5  7  1  0
  7  8  1  0
  8  9  1  0
  9 10  1  0
 10 11  1  0
 11 12  1  0
 12 13  2  0
 13 14  1  0
 14 15  1  0
 15 16  2  0
 16 17  1  0
 17 18  2  0
 18 19  1  0
 19 20  2  0
 14 21  2  0
 21 22  1  0
  2 23  1  0
 23 24  2  0
 24 25  1  0
 25 26  2  0
 26 27  1  0
 27 28  2  0
 28 29  1  0
 29 30  2  0
 30 31  1  0
 31 32  2  0
 11  7  1  0
 22 12  1  0
 32 23  1  0
 20 15  1  0
 31 26  1  0
  3 33  1  0
  4 34  1  0
  4 35  1  0
  8 36  1  0
  8 37  1  0
  9 38  1  0
  9 39  1  0
 10 40  1  0
 10 41  1  0
 11 42  1  1
 16 43  1  0
 17 44  1  0
 18 45  1  0
 19 46  1  0
 20 47  1  0
 21 48  1  0
 22 49  1  0
 24 50  1  0
 25 51  1  0
 27 52  1  0
 28 53  1  0
 29 54  1  0
 30 55  1  0
M  END
>  <smiles>  (36) 
O=C(NCC(=O)N1CCC[C@H]1c1nc(-c2ccccc2)c[nH]1)c1ccc2ccccc2n1

>  <score_type>  (36) 
oracle

>  <origin>  (36) 
autodockgpu

>  <m_score__min__energy>  (36) 
-9.4399999999999995

>  <m_primary>  (36) 
energy

>  <rmsd>  (36) 
7.062559879195765

>  <m_score__min__rmsd>  (36) 
7.062559879195765

>  <meeko>  (36) 
{"free_energy": -8.02, "intermolecular_energy": -9.81, "internal_energy": -3.63, "cluster_size": 20, "cluster_id": 4, "rank_in_cluster": 2}

>  <energy>  (36) 
-7.73

>  <cluster_rmsd>  (36) 
0.55

>  <cluster>  (36) 
4

$$$$

     RDKit          3D

 55 59  0  0  0  0  0  0  0  0999 V2000
  138.7980   75.3250  221.9450 O   0  0  0  0  0  0  0  0  0  0  0  0
  139.9580   75.8180  222.0860 C   0  0  0  0  0  0  0  0  0  0  0  0
  141.0770   74.9250  221.8600 N   0  0  0  0  0  0  0  0  0  0  0  0
  140.7460   73.5900  221.5030 C   0  0  0  0  0  0  0  0  0  0  0  0
  141.8370   72.7700  221.0020 C   0  0  0  0  0  0  0  0  0  0  0  0
  141.8840   71.5850  221.5450 O   0  0  0  0  0  0  0  0  0  0  0  0
  142.8450   73.0180  220.0450 N   0  0  0  0  0  0  0  0  0  0  0  0
  143.1230   72.3890  218.7650 C   0  0  0  0  0  0  0  0  0  0  0  0
  144.4540   73.0310  218.3180 C   0  0  0  0  0  0  0  0  0  0  0  0
  145.0650   73.5060  219.6360 C   0  0  0  0  0  0  0  0  0  0  0  0
  143.8310   74.0950  220.2780 C   0  0  1  0  0  0  0  0  0  0  0  0
  143.4100   75.3520  219.6520 C   0  0  0  0  0  0  0  0  0  0  0  0
  142.5400   76.2820  220.1330 N   0  0  0  0  0  0  0  0  0  0  0  0
  142.4220   77.2820  219.2680 C   0  0  0  0  0  0  0  0  0  0  0  0
  141.5950   78.4830  219.3880 C   0  0  0  0  0  0  0  0  0  0  0  0
  142.1900   79.7210  219.5300 C   0  0  0  0  0  0  0  0  0  0  0  0
  141.3970   80.8430  219.6420 C   0  0  0  0  0  0  0  0  0  0  0  0
  140.0080   80.7560  219.6150 C   0  0  0  0  0  0  0  0  0  0  0  0
  139.4220   79.5150  219.4730 C   0  0  0  0  0  0  0  0  0  0  0  0
  140.2260   78.3970  219.3620 C   0  0  0  0  0  0  0  0  0  0  0  0
  143.2410   76.9860  218.1970 C   0  0  0  0  0  0  0  0  0  0  0  0
  143.8270   75.8040  218.4640 N   0  0  0  0  0  0  0  0  0  0  0  0
  140.1630   77.2020  222.4560 C   0  0  0  0  0  0  0  0  0  0  0  0
  139.0780   77.9920  222.6730 C   0  0  0  0  0  0  0  0  0  0  0  0
  139.2010   79.3310  223.0310 C   0  0  0  0  0  0  0  0  0  0  0  0
  140.4840   79.8420  223.1600 C   0  0  0  0  0  0  0  0  0  0  0  0
  140.6140   81.1600  223.5120 C   0  0  0  0  0  0  0  0  0  0  0  0
  141.8740   81.6910  223.6470 C   0  0  0  0  0  0  0  0  0  0  0  0
  142.9810   80.8810  223.4220 C   0  0  0  0  0  0  0  0  0  0  0  0
  142.8510   79.5510  223.0670 C   0  0  0  0  0  0  0  0  0  0  0  0
  141.5740   79.0310  222.9360 C   0  0  0  0  0  0  0  0  0  0  0  0
  141.3960   77.7310  222.5890 N   0  0  0  0  0  0  0  0  0  0  0  0
  141.9940   75.3660  221.9920 H   0  0  0  0  0  0  0  0  0  0  0  0
  140.3373   73.0953  222.3964 H   0  0  0  0  0  0  0  0  0  0  0  0
  140.0353   73.6763  220.6679 H   0  0  0  0  0  0  0  0  0  0  0  0
  143.2323   71.3004  218.8793 H   0  0  0  0  0  0  0  0  0  0  0  0
  142.3139   72.5370  218.0346 H   0  0  0  0  0  0  0  0  0  0  0  0
  145.1031   72.2927  217.8244 H   0  0  0  0  0  0  0  0  0  0  0  0
  144.3208   73.8402  217.5849 H   0  0  0  0  0  0  0  0  0  0  0  0
  145.4757   72.6715  220.2233 H   0  0  0  0  0  0  0  0  0  0  0  0
  145.9182   74.1934  219.5383 H   0  0  0  0  0  0  0  0  0  0  0  0
  143.9744   74.3678  221.3339 H   0  0  0  0  0  0  0  0  0  0  0  0
  143.2861   79.8110  219.5535 H   0  0  0  0  0  0  0  0  0  0  0  0
  141.8722   81.8286  219.7552 H   0  0  0  0  0  0  0  0  0  0  0  0
  139.3886   81.6605  219.7053 H   0  0  0  0  0  0  0  0  0  0  0  0
  138.3267   79.4168  219.4485 H   0  0  0  0  0  0  0  0  0  0  0  0
  139.7549   77.4094  219.2495 H   0  0  0  0  0  0  0  0  0  0  0  0
  143.3871   77.5998  217.2960 H   0  0  0  0  0  0  0  0  0  0  0  0
  144.5000   75.3570  217.8020 H   0  0  0  0  0  0  0  0  0  0  0  0
  138.0726   77.5596  222.5622 H   0  0  0  0  0  0  0  0  0  0  0  0
  138.3153   79.9597  223.2049 H   0  0  0  0  0  0  0  0  0  0  0  0
  139.7238   81.7829  223.6837 H   0  0  0  0  0  0  0  0  0  0  0  0
  142.0053   82.7458  223.9301 H   0  0  0  0  0  0  0  0  0  0  0  0
  143.9882   81.3099  223.5293 H   0  0  0  0  0  0  0  0  0  0  0  0
  143.7374   78.9232  222.8934 H   0  0  0  0  0  0  0  0  0  0  0  0
  1  2  2  0
  2  3  1  0
  3  4  1  0
  4  5  1  0
  5  6  2  0
  5  7  1  0
  7  8  1  0
  8  9  1  0
  9 10  1  0
 10 11  1  0
 11 12  1  0
 12 13  2  0
 13 14  1  0
 14 15  1  0
 15 16  2  0
 16 17  1  0
 17 18  2  0
 18 19  1  0
 19 20  2  0
 14 21  2  0
 21 22  1  0
  2 23  1  0
 23 24  2  0
 24 25  1  0
 25 26  2  0
 26 27  1  0
 27 28  2  0
 28 29  1  0
 29 30  2  0
 30 31  1  0
 31 32  2  0
 11  7  1  0
 22 12  1  0
 32 23  1  0
 20 15  1  0
 31 26  1  0
  3 33  1  0
  4 34  1  0
  4 35  1  0
  8 36  1  0
  8 37  1  0
  9 38  1  0
  9 39  1  0
 10 40  1  0
 10 41  1  0
 11 42  1  1
 16 43  1  0
 17 44  1  0
 18 45  1  0
 19 46  1  0
 20 47  1  0
 21 48  1  0
 22 49  1  0
 24 50  1  0
 25 51  1  0
 27 52  1  0
 28 53  1  0
 29 54  1  0
 30 55  1  0
M  END
>  <smiles>  (37) 
O=C(NCC(=O)N1CCC[C@H]1c1nc(-c2ccccc2)c[nH]1)c1ccc2ccccc2n1

>  <score_type>  (37) 
oracle

>  <origin>  (37) 
autodockgpu

>  <m_score__min__energy>  (37) 
-9.4399999999999995

>  <m_primary>  (37) 
energy

>  <rmsd>  (37) 
6.950943262736547

>  <m_score__min__rmsd>  (37) 
6.950943262736547

>  <meeko>  (37) 
{"free_energy": -7.45, "intermolecular_energy": -9.24, "internal_energy": -4.19, "cluster_size": 20, "cluster_id": 4, "rank_in_cluster": 16}

>  <energy>  (37) 
-7.7

>  <cluster_rmsd>  (37) 
0.4

>  <cluster>  (37) 
4

$$$$

     RDKit          3D

 55 59  0  0  0  0  0  0  0  0999 V2000
  140.1970   73.2670  222.4760 O   0  0  0  0  0  0  0  0  0  0  0  0
  139.4920   72.2390  222.7100 C   0  0  0  0  0  0  0  0  0  0  0  0
  138.4320   71.9480  221.7660 N   0  0  0  0  0  0  0  0  0  0  0  0
  138.3010   72.8530  220.6790 C   0  0  0  0  0  0  0  0  0  0  0  0
  137.1920   73.7910  220.7530 C   0  0  0  0  0  0  0  0  0  0  0  0
  136.3520   73.6790  219.7620 O   0  0  0  0  0  0  0  0  0  0  0  0
  136.8610   74.7910  221.6930 N   0  0  0  0  0  0  0  0  0  0  0  0
  136.2950   74.6980  223.0270 C   0  0  0  0  0  0  0  0  0  0  0  0
  136.0440   76.1690  223.4260 C   0  0  0  0  0  0  0  0  0  0  0  0
  135.9530   76.8800  222.0760 C   0  0  0  0  0  0  0  0  0  0  0  0
  137.1110   76.2130  221.3720 C   0  0  1  0  0  0  0  0  0  0  0  0
  138.4140   76.6560  221.8770 C   0  0  0  0  0  0  0  0  0  0  0  0
  138.8420   77.9280  222.1000 N   0  0  0  0  0  0  0  0  0  0  0  0
  140.0880   77.9130  222.5600 C   0  0  0  0  0  0  0  0  0  0  0  0
  140.9260   79.0540  222.9280 C   0  0  0  0  0  0  0  0  0  0  0  0
  140.3520   80.1890  223.4650 C   0  0  0  0  0  0  0  0  0  0  0  0
  141.1560   81.2560  223.8070 C   0  0  0  0  0  0  0  0  0  0  0  0
  142.5340   81.2150  223.6220 C   0  0  0  0  0  0  0  0  0  0  0  0
  143.1000   80.0770  223.0840 C   0  0  0  0  0  0  0  0  0  0  0  0
  142.2860   79.0140  222.7450 C   0  0  0  0  0  0  0  0  0  0  0  0
  140.4730   76.5890  222.6340 C   0  0  0  0  0  0  0  0  0  0  0  0
  139.4300   75.8510  222.2110 N   0  0  0  0  0  0  0  0  0  0  0  0
  139.7280   71.3930  223.8600 C   0  0  0  0  0  0  0  0  0  0  0  0
  139.3950   70.0760  223.7890 C   0  0  0  0  0  0  0  0  0  0  0  0
  139.5950   69.2070  224.8560 C   0  0  0  0  0  0  0  0  0  0  0  0
  140.1520   69.7330  226.0130 C   0  0  0  0  0  0  0  0  0  0  0  0
  140.3510   68.8830  227.0690 C   0  0  0  0  0  0  0  0  0  0  0  0
  140.9020   69.3780  228.2260 C   0  0  0  0  0  0  0  0  0  0  0  0
  141.2400   70.7250  228.2960 C   0  0  0  0  0  0  0  0  0  0  0  0
  141.0390   71.5830  227.2310 C   0  0  0  0  0  0  0  0  0  0  0  0
  140.4840   71.0680  226.0720 C   0  0  0  0  0  0  0  0  0  0  0  0
  140.2670   71.8710  224.9990 N   0  0  0  0  0  0  0  0  0  0  0  0
  137.8850   71.1110  221.9990 H   0  0  0  0  0  0  0  0  0  0  0  0
  139.2308   73.4373  220.6152 H   0  0  0  0  0  0  0  0  0  0  0  0
  138.0977   72.2265  219.7980 H   0  0  0  0  0  0  0  0  0  0  0  0
  135.3533   74.1296  223.0141 H   0  0  0  0  0  0  0  0  0  0  0  0
  136.9555   74.1732  223.7330 H   0  0  0  0  0  0  0  0  0  0  0  0
  135.1056   76.2710  223.9907 H   0  0  0  0  0  0  0  0  0  0  0  0
  136.8262   76.5803  224.0810 H   0  0  0  0  0  0  0  0  0  0  0  0
  134.9958   76.6830  221.5710 H   0  0  0  0  0  0  0  0  0  0  0  0
  135.9975   77.9783  222.1185 H   0  0  0  0  0  0  0  0  0  0  0  0
  137.1600   76.4407  220.2969 H   0  0  0  0  0  0  0  0  0  0  0  0
  139.2641   80.2417  223.6185 H   0  0  0  0  0  0  0  0  0  0  0  0
  140.6975   82.1594  224.2356 H   0  0  0  0  0  0  0  0  0  0  0  0
  143.1617   82.0746  223.8996 H   0  0  0  0  0  0  0  0  0  0  0  0
  144.1871   80.0173  222.9270 H   0  0  0  0  0  0  0  0  0  0  0  0
  142.7406   78.1089  222.3159 H   0  0  0  0  0  0  0  0  0  0  0  0
  141.4477   76.2093  222.9743 H   0  0  0  0  0  0  0  0  0  0  0  0
  139.4680   74.8080  222.1720 H   0  0  0  0  0  0  0  0  0  0  0  0
  138.9542   69.6867  222.8594 H   0  0  0  0  0  0  0  0  0  0  0  0
  139.3222   68.1437  224.7856 H   0  0  0  0  0  0  0  0  0  0  0  0
  140.0740   67.8213  226.9916 H   0  0  0  0  0  0  0  0  0  0  0  0
  141.0739   68.7161  229.0876 H   0  0  0  0  0  0  0  0  0  0  0  0
  141.6794   71.1186  229.2244 H   0  0  0  0  0  0  0  0  0  0  0  0
  141.3126   72.6460  227.3025 H   0  0  0  0  0  0  0  0  0  0  0  0
  1  2  2  0
  2  3  1  0
  3  4  1  0
  4  5  1  0
  5  6  2  0
  5  7  1  0
  7  8  1  0
  8  9  1  0
  9 10  1  0
 10 11  1  0
 11 12  1  0
 12 13  2  0
 13 14  1  0
 14 15  1  0
 15 16  2  0
 16 17  1  0
 17 18  2  0
 18 19  1  0
 19 20  2  0
 14 21  2  0
 21 22  1  0
  2 23  1  0
 23 24  2  0
 24 25  1  0
 25 26  2  0
 26 27  1  0
 27 28  2  0
 28 29  1  0
 29 30  2  0
 30 31  1  0
 31 32  2  0
 11  7  1  0
 22 12  1  0
 32 23  1  0
 20 15  1  0
 31 26  1  0
  3 33  1  0
  4 34  1  0
  4 35  1  0
  8 36  1  0
  8 37  1  0
  9 38  1  0
  9 39  1  0
 10 40  1  0
 10 41  1  0
 11 42  1  6
 16 43  1  0
 17 44  1  0
 18 45  1  0
 19 46  1  0
 20 47  1  0
 21 48  1  0
 22 49  1  0
 24 50  1  0
 25 51  1  0
 27 52  1  0
 28 53  1  0
 29 54  1  0
 30 55  1  0
M  END
>  <smiles>  (38) 
O=C(NCC(=O)N1CCC[C@H]1c1nc(-c2ccccc2)c[nH]1)c1ccc2ccccc2n1

>  <score_type>  (38) 
oracle

>  <origin>  (38) 
autodockgpu

>  <m_score__min__energy>  (38) 
-9.4399999999999995

>  <m_primary>  (38) 
energy

>  <rmsd>  (38) 
3.6718958418593637

>  <m_score__min__rmsd>  (38) 
3.6718958418593637

>  <meeko>  (38) 
{"free_energy": -9.0, "intermolecular_energy": -10.79, "internal_energy": -2.49, "cluster_size": 3, "cluster_id": 3, "rank_in_cluster": 1}

>  <energy>  (38) 
-7.67

>  <cluster_rmsd>  (38) 
0.56

>  <cluster>  (38) 
4

$$$$

     RDKit          3D

 55 59  0  0  0  0  0  0  0  0999 V2000
  140.2640   73.1480  222.7260 O   0  0  0  0  0  0  0  0  0  0  0  0
  139.6260   72.0990  223.0400 C   0  0  0  0  0  0  0  0  0  0  0  0
  138.5430   71.7070  222.1620 N   0  0  0  0  0  0  0  0  0  0  0  0
  138.3170   72.5480  221.0380 C   0  0  0  0  0  0  0  0  0  0  0  0
  139.4350   72.7110  220.1230 C   0  0  0  0  0  0  0  0  0  0  0  0
  139.9760   71.5810  219.7610 O   0  0  0  0  0  0  0  0  0  0  0  0
  140.0350   73.8580  219.5580 N   0  0  0  0  0  0  0  0  0  0  0  0
  139.6890   74.6350  218.3810 C   0  0  0  0  0  0  0  0  0  0  0  0
  140.8490   75.6480  218.2530 C   0  0  0  0  0  0  0  0  0  0  0  0
  141.9870   74.9630  219.0080 C   0  0  0  0  0  0  0  0  0  0  0  0
  141.2170   74.4640  220.2080 C   0  0  1  0  0  0  0  0  0  0  0  0
  140.8310   75.5410  221.1240 C   0  0  0  0  0  0  0  0  0  0  0  0
  141.4550   76.7320  221.3340 N   0  0  0  0  0  0  0  0  0  0  0  0
  140.7940   77.4360  222.2450 C   0  0  0  0  0  0  0  0  0  0  0  0
  141.1160   78.7650  222.7650 C   0  0  0  0  0  0  0  0  0  0  0  0
  142.4330   79.1350  222.9490 C   0  0  0  0  0  0  0  0  0  0  0  0
  142.7210   80.3910  223.4400 C   0  0  0  0  0  0  0  0  0  0  0  0
  141.7120   81.2950  223.7550 C   0  0  0  0  0  0  0  0  0  0  0  0
  140.3980   80.9170  223.5700 C   0  0  0  0  0  0  0  0  0  0  0  0
  140.1210   79.6570  223.0780 C   0  0  0  0  0  0  0  0  0  0  0  0
  139.7100   76.6740  222.6330 C   0  0  0  0  0  0  0  0  0  0  0  0
  139.7630   75.5280  221.9310 N   0  0  0  0  0  0  0  0  0  0  0  0
  139.9560   71.3250  224.2190 C   0  0  0  0  0  0  0  0  0  0  0  0
  140.7720   71.8740  225.1580 C   0  0  0  0  0  0  0  0  0  0  0  0
  141.1300   71.1870  226.3140 C   0  0  0  0  0  0  0  0  0  0  0  0
  140.6220   69.9070  226.4800 C   0  0  0  0  0  0  0  0  0  0  0  0
  140.9710   69.2250  227.6150 C   0  0  0  0  0  0  0  0  0  0  0  0
  140.4810   67.9550  227.8050 C   0  0  0  0  0  0  0  0  0  0  0  0
  139.6480   67.3970  226.8410 C   0  0  0  0  0  0  0  0  0  0  0  0
  139.2960   68.0850  225.6950 C   0  0  0  0  0  0  0  0  0  0  0  0
  139.7970   69.3640  225.5200 C   0  0  0  0  0  0  0  0  0  0  0  0
  139.4800   70.0790  224.4110 N   0  0  0  0  0  0  0  0  0  0  0  0
  138.0510   70.8570  222.4590 H   0  0  0  0  0  0  0  0  0  0  0  0
  137.4754   72.1274  220.4680 H   0  0  0  0  0  0  0  0  0  0  0  0
  138.1278   73.5491  221.4528 H   0  0  0  0  0  0  0  0  0  0  0  0
  139.6304   73.9920  217.4904 H   0  0  0  0  0  0  0  0  0  0  0  0
  138.7066   75.1223  218.4670 H   0  0  0  0  0  0  0  0  0  0  0  0
  141.1163   75.8121  217.1987 H   0  0  0  0  0  0  0  0  0  0  0  0
  140.6017   76.6433  218.6508 H   0  0  0  0  0  0  0  0  0  0  0  0
  142.4265   74.1375  218.4289 H   0  0  0  0  0  0  0  0  0  0  0  0
  142.8520   75.6028  219.2368 H   0  0  0  0  0  0  0  0  0  0  0  0
  141.7953   73.7785  220.8449 H   0  0  0  0  0  0  0  0  0  0  0  0
  143.2454   78.4343  222.7062 H   0  0  0  0  0  0  0  0  0  0  0  0
  143.7711   80.6842  223.5857 H   0  0  0  0  0  0  0  0  0  0  0  0
  141.9573   82.2939  224.1448 H   0  0  0  0  0  0  0  0  0  0  0  0
  139.5802   81.6118  223.8118 H   0  0  0  0  0  0  0  0  0  0  0  0
  139.0721   79.3594  222.9326 H   0  0  0  0  0  0  0  0  0  0  0  0
  138.9475   76.9516  223.3756 H   0  0  0  0  0  0  0  0  0  0  0  0
  139.0470   74.7750  222.0420 H   0  0  0  0  0  0  0  0  0  0  0  0
  141.1604   72.8908  224.9992 H   0  0  0  0  0  0  0  0  0  0  0  0
  141.7904   71.6415  227.0671 H   0  0  0  0  0  0  0  0  0  0  0  0
  141.6329   69.6862  228.3628 H   0  0  0  0  0  0  0  0  0  0  0  0
  140.7446   67.3864  228.7090 H   0  0  0  0  0  0  0  0  0  0  0  0
  139.2585   66.3799  226.9949 H   0  0  0  0  0  0  0  0  0  0  0  0
  138.6359   67.6289  224.9425 H   0  0  0  0  0  0  0  0  0  0  0  0
  1  2  2  0
  2  3  1  0
  3  4  1  0
  4  5  1  0
  5  6  2  0
  5  7  1  0
  7  8  1  0
  8  9  1  0
  9 10  1  0
 10 11  1  0
 11 12  1  0
 12 13  2  0
 13 14  1  0
 14 15  1  0
 15 16  2  0
 16 17  1  0
 17 18  2  0
 18 19  1  0
 19 20  2  0
 14 21  2  0
 21 22  1  0
  2 23  1  0
 23 24  2  0
 24 25  1  0
 25 26  2  0
 26 27  1  0
 27 28  2  0
 28 29  1  0
 29 30  2  0
 30 31  1  0
 31 32  2  0
 11  7  1  0
 22 12  1  0
 32 23  1  0
 20 15  1  0
 31 26  1  0
  3 33  1  0
  4 34  1  0
  4 35  1  0
  8 36  1  0
  8 37  1  0
  9 38  1  0
  9 39  1  0
 10 40  1  0
 10 41  1  0
 11 42  1  1
 16 43  1  0
 17 44  1  0
 18 45  1  0
 19 46  1  0
 20 47  1  0
 21 48  1  0
 22 49  1  0
 24 50  1  0
 25 51  1  0
 27 52  1  0
 28 53  1  0
 29 54  1  0
 30 55  1  0
M  END
>  <smiles>  (39) 
O=C(NCC(=O)N1CCC[C@H]1c1nc(-c2ccccc2)c[nH]1)c1ccc2ccccc2n1

>  <score_type>  (39) 
oracle

>  <origin>  (39) 
autodockgpu

>  <m_score__min__energy>  (39) 
-9.4399999999999995

>  <m_primary>  (39) 
energy

>  <rmsd>  (39) 
3.2501473150991624

>  <m_score__min__rmsd>  (39) 
3.2501473150991624

>  <meeko>  (39) 
{"free_energy": -8.75, "intermolecular_energy": -10.54, "internal_energy": -2.58, "cluster_size": 24, "cluster_id": 2, "rank_in_cluster": 12}

>  <energy>  (39) 
-7.64

>  <cluster_rmsd>  (39) 
0.58

>  <cluster>  (39) 
4

$$$$

     RDKit          3D

 55 59  0  0  0  0  0  0  0  0999 V2000
  139.5790   74.4600  222.3850 O   0  0  0  0  0  0  0  0  0  0  0  0
  140.4850   74.9120  221.6210 C   0  0  0  0  0  0  0  0  0  0  0  0
  140.3930   76.3120  221.2600 N   0  0  0  0  0  0  0  0  0  0  0  0
  139.2920   77.0250  221.8070 C   0  0  0  0  0  0  0  0  0  0  0  0
  139.6150   78.2180  222.5730 C   0  0  0  0  0  0  0  0  0  0  0  0
  138.6960   78.5410  223.4400 O   0  0  0  0  0  0  0  0  0  0  0  0
  140.7320   79.0820  222.5520 N   0  0  0  0  0  0  0  0  0  0  0  0
  141.9540   79.0820  223.3370 C   0  0  0  0  0  0  0  0  0  0  0  0
  142.6640   80.3870  222.9160 C   0  0  0  0  0  0  0  0  0  0  0  0
  141.5160   81.2480  222.3920 C   0  0  0  0  0  0  0  0  0  0  0  0
  140.7760   80.2030  221.5900 C   0  0  1  0  0  0  0  0  0  0  0  0
  141.4790   79.8270  220.3600 C   0  0  0  0  0  0  0  0  0  0  0  0
  141.7450   78.5770  219.8910 N   0  0  0  0  0  0  0  0  0  0  0  0
  142.4030   78.6560  218.7400 C   0  0  0  0  0  0  0  0  0  0  0  0
  142.8810   77.5590  217.9000 C   0  0  0  0  0  0  0  0  0  0  0  0
  143.0070   77.7350  216.5370 C   0  0  0  0  0  0  0  0  0  0  0  0
  143.4590   76.6900  215.7580 C   0  0  0  0  0  0  0  0  0  0  0  0
  143.7920   75.4610  216.3170 C   0  0  0  0  0  0  0  0  0  0  0  0
  143.6630   75.2920  217.6810 C   0  0  0  0  0  0  0  0  0  0  0  0
  143.2090   76.3450  218.4500 C   0  0  0  0  0  0  0  0  0  0  0  0
  142.5650   79.9990  218.4610 C   0  0  0  0  0  0  0  0  0  0  0  0
  141.9900   80.6830  219.4670 N   0  0  0  0  0  0  0  0  0  0  0  0
  141.5600   74.0770  221.1290 C   0  0  0  0  0  0  0  0  0  0  0  0
  141.2720   72.8200  220.6980 C   0  0  0  0  0  0  0  0  0  0  0  0
  142.2560   71.9650  220.2130 C   0  0  0  0  0  0  0  0  0  0  0  0
  143.5580   72.4410  220.1830 C   0  0  0  0  0  0  0  0  0  0  0  0
  144.5330   71.6040  219.7070 C   0  0  0  0  0  0  0  0  0  0  0  0
  145.8320   72.0510  219.6650 C   0  0  0  0  0  0  0  0  0  0  0  0
  146.1230   73.3370  220.1080 C   0  0  0  0  0  0  0  0  0  0  0  0
  145.1390   74.1810  220.5890 C   0  0  0  0  0  0  0  0  0  0  0  0
  143.8360   73.7160  220.6230 C   0  0  0  0  0  0  0  0  0  0  0  0
  142.8360   74.5090  221.0860 N   0  0  0  0  0  0  0  0  0  0  0  0
  141.1420   76.6320  220.6360 H   0  0  0  0  0  0  0  0  0  0  0  0
  138.6410   77.3276  220.9736 H   0  0  0  0  0  0  0  0  0  0  0  0
  138.8213   76.3348  222.5226 H   0  0  0  0  0  0  0  0  0  0  0  0
  141.7279   79.0889  224.4135 H   0  0  0  0  0  0  0  0  0  0  0  0
  142.5706   78.1878  223.1632 H   0  0  0  0  0  0  0  0  0  0  0  0
  143.1561   80.8647  223.7760 H   0  0  0  0  0  0  0  0  0  0  0  0
  143.4605   80.2277  222.1742 H   0  0  0  0  0  0  0  0  0  0  0  0
  140.8997   81.6531  223.2081 H   0  0  0  0  0  0  0  0  0  0  0  0
  141.8180   82.1451  221.8316 H   0  0  0  0  0  0  0  0  0  0  0  0
  139.7927   80.5415  221.2315 H   0  0  0  0  0  0  0  0  0  0  0  0
  142.7493   78.6999  216.0759 H   0  0  0  0  0  0  0  0  0  0  0  0
  143.5581   76.8319  214.6717 H   0  0  0  0  0  0  0  0  0  0  0  0
  144.1522   74.6374  215.6830 H   0  0  0  0  0  0  0  0  0  0  0  0
  143.9188   74.3302  218.1495 H   0  0  0  0  0  0  0  0  0  0  0  0
  143.1071   76.2068  219.5365 H   0  0  0  0  0  0  0  0  0  0  0  0
  143.0689   80.4283  217.5824 H   0  0  0  0  0  0  0  0  0  0  0  0
  141.9780   81.7270  219.4910 H   0  0  0  0  0  0  0  0  0  0  0  0
  140.2301   72.4689  220.7339 H   0  0  0  0  0  0  0  0  0  0  0  0
  142.0108   70.9502  219.8665 H   0  0  0  0  0  0  0  0  0  0  0  0
  144.2799   70.5900  219.3638 H   0  0  0  0  0  0  0  0  0  0  0  0
  146.6325   71.3991  219.2853 H   0  0  0  0  0  0  0  0  0  0  0  0
  147.1636   73.6920  220.0748 H   0  0  0  0  0  0  0  0  0  0  0  0
  145.3855   75.1955  220.9356 H   0  0  0  0  0  0  0  0  0  0  0  0
  1  2  2  0
  2  3  1  0
  3  4  1  0
  4  5  1  0
  5  6  2  0
  5  7  1  0
  7  8  1  0
  8  9  1  0
  9 10  1  0
 10 11  1  0
 11 12  1  0
 12 13  2  0
 13 14  1  0
 14 15  1  0
 15 16  2  0
 16 17  1  0
 17 18  2  0
 18 19  1  0
 19 20  2  0
 14 21  2  0
 21 22  1  0
  2 23  1  0
 23 24  2  0
 24 25  1  0
 25 26  2  0
 26 27  1  0
 27 28  2  0
 28 29  1  0
 29 30  2  0
 30 31  1  0
 31 32  2  0
 11  7  1  0
 22 12  1  0
 32 23  1  0
 20 15  1  0
 31 26  1  0
  3 33  1  0
  4 34  1  0
  4 35  1  0
  8 36  1  0
  8 37  1  0
  9 38  1  0
  9 39  1  0
 10 40  1  0
 10 41  1  0
 11 42  1  6
 16 43  1  0
 17 44  1  0
 18 45  1  0
 19 46  1  0
 20 47  1  0
 21 48  1  0
 22 49  1  0
 24 50  1  0
 25 51  1  0
 27 52  1  0
 28 53  1  0
 29 54  1  0
 30 55  1  0
M  END
>  <smiles>  (40) 
O=C(NCC(=O)N1CCC[C@H]1c1nc(-c2ccccc2)c[nH]1)c1ccc2ccccc2n1

>  <score_type>  (40) 
oracle

>  <origin>  (40) 
autodockgpu

>  <m_score__min__energy>  (40) 
-9.4399999999999995

>  <m_primary>  (40) 
energy

>  <rmsd>  (40) 
6.674483425642268

>  <m_score__min__rmsd>  (40) 
6.674483425642268

>  <meeko>  (40) 
{"free_energy": -7.37, "intermolecular_energy": -9.16, "internal_energy": -3.43, "cluster_size": 1, "cluster_id": 6, "rank_in_cluster": 1}

>  <energy>  (40) 
-7.57

>  <cluster_rmsd>  (40) 
0.59

>  <cluster>  (40) 
4

$$$$

     RDKit          3D

 55 59  0  0  0  0  0  0  0  0999 V2000
  137.9990   71.5640  222.2820 O   0  0  0  0  0  0  0  0  0  0  0  0
  138.9980   71.7040  223.0510 C   0  0  0  0  0  0  0  0  0  0  0  0
  139.8820   72.8180  222.7750 N   0  0  0  0  0  0  0  0  0  0  0  0
  139.5270   73.6340  221.6670 C   0  0  0  0  0  0  0  0  0  0  0  0
  138.7430   74.8210  221.9670 C   0  0  0  0  0  0  0  0  0  0  0  0
  139.4360   75.7690  222.5330 O   0  0  0  0  0  0  0  0  0  0  0  0
  137.3810   75.1320  221.7590 N   0  0  0  0  0  0  0  0  0  0  0  0
  136.5060   74.8810  220.6270 C   0  0  0  0  0  0  0  0  0  0  0  0
  135.2020   75.6220  220.9950 C   0  0  0  0  0  0  0  0  0  0  0  0
  135.6760   76.6710  222.0000 C   0  0  0  0  0  0  0  0  0  0  0  0
  136.6130   75.8150  222.8210 C   0  0  1  0  0  0  0  0  0  0  0  0
  135.9060   74.8550  223.6740 C   0  0  0  0  0  0  0  0  0  0  0  0
  134.8530   75.0840  224.5060 N   0  0  0  0  0  0  0  0  0  0  0  0
  134.4970   73.9550  225.1060 C   0  0  0  0  0  0  0  0  0  0  0  0
  133.4180   73.7510  226.0730 C   0  0  0  0  0  0  0  0  0  0  0  0
  132.8630   74.8310  226.7280 C   0  0  0  0  0  0  0  0  0  0  0  0
  131.8470   74.6220  227.6380 C   0  0  0  0  0  0  0  0  0  0  0  0
  131.3700   73.3440  227.9100 C   0  0  0  0  0  0  0  0  0  0  0  0
  131.9300   72.2690  227.2510 C   0  0  0  0  0  0  0  0  0  0  0  0
  132.9470   72.4900  226.3430 C   0  0  0  0  0  0  0  0  0  0  0  0
  135.3480   72.9690  224.6470 C   0  0  0  0  0  0  0  0  0  0  0  0
  136.1920   73.5520  223.7760 N   0  0  0  0  0  0  0  0  0  0  0  0
  139.2500   70.7990  224.1530 C   0  0  0  0  0  0  0  0  0  0  0  0
  138.7320   69.5420  224.1030 C   0  0  0  0  0  0  0  0  0  0  0  0
  138.9350   68.6220  225.1260 C   0  0  0  0  0  0  0  0  0  0  0  0
  139.6910   69.0320  226.2140 C   0  0  0  0  0  0  0  0  0  0  0  0
  139.8950   68.1300  227.2260 C   0  0  0  0  0  0  0  0  0  0  0  0
  140.6410   68.5100  228.3150 C   0  0  0  0  0  0  0  0  0  0  0  0
  141.1680   69.7970  228.3630 C   0  0  0  0  0  0  0  0  0  0  0  0
  140.9620   70.7060  227.3420 C   0  0  0  0  0  0  0  0  0  0  0  0
  140.2090   70.3070  226.2510 C   0  0  0  0  0  0  0  0  0  0  0  0
  139.9800   71.1650  225.2250 N   0  0  0  0  0  0  0  0  0  0  0  0
  140.6780   72.8870  223.4180 H   0  0  0  0  0  0  0  0  0  0  0  0
  140.4574   73.9610  221.1797 H   0  0  0  0  0  0  0  0  0  0  0  0
  138.8803   73.0068  221.0358 H   0  0  0  0  0  0  0  0  0  0  0  0
  136.9385   75.2864  219.7004 H   0  0  0  0  0  0  0  0  0  0  0  0
  136.3472   73.8082  220.4429 H   0  0  0  0  0  0  0  0  0  0  0  0
  134.7534   76.0966  220.1098 H   0  0  0  0  0  0  0  0  0  0  0  0
  134.4235   74.9568  221.3967 H   0  0  0  0  0  0  0  0  0  0  0  0
  136.2024   77.5028  221.5091 H   0  0  0  0  0  0  0  0  0  0  0  0
  134.8786   77.1733  222.5673 H   0  0  0  0  0  0  0  0  0  0  0  0
  137.2226   76.3913  223.5325 H   0  0  0  0  0  0  0  0  0  0  0  0
  133.2271   75.8493  226.5267 H   0  0  0  0  0  0  0  0  0  0  0  0
  131.4051   75.4840  228.1592 H   0  0  0  0  0  0  0  0  0  0  0  0
  130.5597   73.1929  228.6384 H   0  0  0  0  0  0  0  0  0  0  0  0
  131.5707   71.2479  227.4465 H   0  0  0  0  0  0  0  0  0  0  0  0
  133.3927   71.6305  225.8209 H   0  0  0  0  0  0  0  0  0  0  0  0
  135.3379   71.9083  224.9381 H   0  0  0  0  0  0  0  0  0  0  0  0
  136.9400   73.0140  223.2850 H   0  0  0  0  0  0  0  0  0  0  0  0
  138.1353   69.2447  223.2280 H   0  0  0  0  0  0  0  0  0  0  0  0
  138.5121   67.6079  225.0742 H   0  0  0  0  0  0  0  0  0  0  0  0
  139.4681   67.1180  227.1669 H   0  0  0  0  0  0  0  0  0  0  0  0
  140.8198   67.8047  229.1400 H   0  0  0  0  0  0  0  0  0  0  0  0
  141.7643   70.0991  229.2366 H   0  0  0  0  0  0  0  0  0  0  0  0
  141.3854   71.7199  227.3951 H   0  0  0  0  0  0  0  0  0  0  0  0
  1  2  2  0
  2  3  1  0
  3  4  1  0
  4  5  1  0
  5  6  2  0
  5  7  1  0
  7  8  1  0
  8  9  1  0
  9 10  1  0
 10 11  1  0
 11 12  1  0
 12 13  2  0
 13 14  1  0
 14 15  1  0
 15 16  2  0
 16 17  1  0
 17 18  2  0
 18 19  1  0
 19 20  2  0
 14 21  2  0
 21 22  1  0
  2 23  1  0
 23 24  2  0
 24 25  1  0
 25 26  2  0
 26 27  1  0
 27 28  2  0
 28 29  1  0
 29 30  2  0
 30 31  1  0
 31 32  2  0
 11  7  1  0
 22 12  1  0
 32 23  1  0
 20 15  1  0
 31 26  1  0
  3 33  1  0
  4 34  1  0
  4 35  1  0
  8 36  1  0
  8 37  1  0
  9 38  1  0
  9 39  1  0
 10 40  1  0
 10 41  1  0
 11 42  1  1
 16 43  1  0
 17 44  1  0
 18 45  1  0
 19 46  1  0
 20 47  1  0
 21 48  1  0
 22 49  1  0
 24 50  1  0
 25 51  1  0
 27 52  1  0
 28 53  1  0
 29 54  1  0
 30 55  1  0
M  END
>  <smiles>  (41) 
O=C(NCC(=O)N1CCC[C@H]1c1nc(-c2ccccc2)c[nH]1)c1ccc2ccccc2n1

>  <score_type>  (41) 
oracle

>  <origin>  (41) 
autodockgpu

>  <m_score__min__energy>  (41) 
-9.4399999999999995

>  <m_primary>  (41) 
energy

>  <rmsd>  (41) 
6.856269121595244

>  <m_score__min__rmsd>  (41) 
6.856269121595244

>  <meeko>  (41) 
{"free_energy": -7.9, "intermolecular_energy": -9.69, "internal_energy": -2.84, "cluster_size": 1, "cluster_id": 5, "rank_in_cluster": 1}

>  <energy>  (41) 
-7.56

>  <cluster_rmsd>  (41) 
0.61

>  <cluster>  (41) 
4

$$$$

     RDKit          3D

 55 59  0  0  0  0  0  0  0  0999 V2000
  140.0890   73.0610  222.7250 O   0  0  0  0  0  0  0  0  0  0  0  0
  139.5140   71.9860  223.0730 C   0  0  0  0  0  0  0  0  0  0  0  0
  138.4810   71.4840  222.1880 N   0  0  0  0  0  0  0  0  0  0  0  0
  138.2290   72.2580  221.0230 C   0  0  0  0  0  0  0  0  0  0  0  0
  137.0380   73.0920  221.0510 C   0  0  0  0  0  0  0  0  0  0  0  0
  136.1090   72.6930  220.2290 O   0  0  0  0  0  0  0  0  0  0  0  0
  136.7070   74.2440  221.7990 N   0  0  0  0  0  0  0  0  0  0  0  0
  136.1540   74.3890  223.1340 C   0  0  0  0  0  0  0  0  0  0  0  0
  135.8940   75.9060  223.2630 C   0  0  0  0  0  0  0  0  0  0  0  0
  135.7830   76.3600  221.8080 C   0  0  0  0  0  0  0  0  0  0  0  0
  136.9410   75.5860  221.2240 C   0  0  1  0  0  0  0  0  0  0  0  0
  138.2440   76.1220  221.6250 C   0  0  0  0  0  0  0  0  0  0  0  0
  138.5410   77.3780  222.0580 N   0  0  0  0  0  0  0  0  0  0  0  0
  139.8380   77.4700  222.3250 C   0  0  0  0  0  0  0  0  0  0  0  0
  140.5760   78.6360  222.8120 C   0  0  0  0  0  0  0  0  0  0  0  0
  139.9000   79.6940  223.3850 C   0  0  0  0  0  0  0  0  0  0  0  0
  140.6100   80.7850  223.8390 C   0  0  0  0  0  0  0  0  0  0  0  0
  141.9960   80.8440  223.7320 C   0  0  0  0  0  0  0  0  0  0  0  0
  142.6650   79.7820  223.1580 C   0  0  0  0  0  0  0  0  0  0  0  0
  141.9440   78.6950  222.7060 C   0  0  0  0  0  0  0  0  0  0  0  0
  140.3930   76.2350  222.0550 C   0  0  0  0  0  0  0  0  0  0  0  0
  139.3950   75.4390  221.6320 N   0  0  0  0  0  0  0  0  0  0  0  0
  139.8640   71.2880  224.2910 C   0  0  0  0  0  0  0  0  0  0  0  0
  140.7120   71.8870  225.1710 C   0  0  0  0  0  0  0  0  0  0  0  0
  141.0900   71.2740  226.3610 C   0  0  0  0  0  0  0  0  0  0  0  0
  140.5710   70.0160  226.6260 C   0  0  0  0  0  0  0  0  0  0  0  0
  140.9400   69.4060  227.7960 C   0  0  0  0  0  0  0  0  0  0  0  0
  140.4380   68.1590  228.0830 C   0  0  0  0  0  0  0  0  0  0  0  0
  139.5730   67.5500  227.1800 C   0  0  0  0  0  0  0  0  0  0  0  0
  139.2010   68.1650  225.9990 C   0  0  0  0  0  0  0  0  0  0  0  0
  139.7140   69.4210  225.7260 C   0  0  0  0  0  0  0  0  0  0  0  0
  139.3770   70.0650  224.5790 N   0  0  0  0  0  0  0  0  0  0  0  0
  138.0400   70.6170  222.5130 H   0  0  0  0  0  0  0  0  0  0  0  0
  139.0958   72.9162  220.8635 H   0  0  0  0  0  0  0  0  0  0  0  0
  138.0590   71.5293  220.2167 H   0  0  0  0  0  0  0  0  0  0  0  0
  135.2173   73.8211  223.2338 H   0  0  0  0  0  0  0  0  0  0  0  0
  136.8251   74.0046  223.9162 H   0  0  0  0  0  0  0  0  0  0  0  0
  134.9604   76.1021  223.8108 H   0  0  0  0  0  0  0  0  0  0  0  0
  136.6791   76.4345  223.8236 H   0  0  0  0  0  0  0  0  0  0  0  0
  134.8232   76.0670  221.3575 H   0  0  0  0  0  0  0  0  0  0  0  0
  135.8166   77.4481  221.6503 H   0  0  0  0  0  0  0  0  0  0  0  0
  136.9782   75.6166  220.1251 H   0  0  0  0  0  0  0  0  0  0  0  0
  138.8043   79.6670  223.4786 H   0  0  0  0  0  0  0  0  0  0  0  0
  140.0692   81.6270  224.2957 H   0  0  0  0  0  0  0  0  0  0  0  0
  142.5488   81.7216  224.0984 H   0  0  0  0  0  0  0  0  0  0  0  0
  143.7606   79.8015  223.0618 H   0  0  0  0  0  0  0  0  0  0  0  0
  142.4809   77.8515  222.2475 H   0  0  0  0  0  0  0  0  0  0  0  0
  141.4511   75.9551  222.1650 H   0  0  0  0  0  0  0  0  0  0  0  0
  139.5560   74.4430  221.3620 H   0  0  0  0  0  0  0  0  0  0  0  0
  141.1100   72.8848  224.9343 H   0  0  0  0  0  0  0  0  0  0  0  0
  141.7749   71.7687  227.0653 H   0  0  0  0  0  0  0  0  0  0  0  0
  141.6270   69.9062  228.4945 H   0  0  0  0  0  0  0  0  0  0  0  0
  140.7173   67.6484  229.0164 H   0  0  0  0  0  0  0  0  0  0  0  0
  139.1739   66.5515  227.4119 H   0  0  0  0  0  0  0  0  0  0  0  0
  138.5159   67.6694  225.2954 H   0  0  0  0  0  0  0  0  0  0  0  0
  1  2  2  0
  2  3  1  0
  3  4  1  0
  4  5  1  0
  5  6  2  0
  5  7  1  0
  7  8  1  0
  8  9  1  0
  9 10  1  0
 10 11  1  0
 11 12  1  0
 12 13  2  0
 13 14  1  0
 14 15  1  0
 15 16  2  0
 16 17  1  0
 17 18  2  0
 18 19  1  0
 19 20  2  0
 14 21  2  0
 21 22  1  0
  2 23  1  0
 23 24  2  0
 24 25  1  0
 25 26  2  0
 26 27  1  0
 27 28  2  0
 28 29  1  0
 29 30  2  0
 30 31  1  0
 31 32  2  0
 11  7  1  0
 22 12  1  0
 32 23  1  0
 20 15  1  0
 31 26  1  0
  3 33  1  0
  4 34  1  0
  4 35  1  0
  8 36  1  0
  8 37  1  0
  9 38  1  0
  9 39  1  0
 10 40  1  0
 10 41  1  0
 11 42  1  6
 16 43  1  0
 17 44  1  0
 18 45  1  0
 19 46  1  0
 20 47  1  0
 21 48  1  0
 22 49  1  0
 24 50  1  0
 25 51  1  0
 27 52  1  0
 28 53  1  0
 29 54  1  0
 30 55  1  0
M  END
>  <smiles>  (42) 
O=C(NCC(=O)N1CCC[C@H]1c1nc(-c2ccccc2)c[nH]1)c1ccc2ccccc2n1

>  <score_type>  (42) 
oracle

>  <origin>  (42) 
autodockgpu

>  <m_score__min__energy>  (42) 
-9.4399999999999995

>  <m_primary>  (42) 
energy

>  <rmsd>  (42) 
4.225652680805793

>  <m_score__min__rmsd>  (42) 
4.225652680805793

>  <meeko>  (42) 
{"free_energy": -8.72, "intermolecular_energy": -10.51, "internal_energy": -2.77, "cluster_size": 24, "cluster_id": 2, "rank_in_cluster": 15}

>  <energy>  (42) 
-7.55

>  <cluster_rmsd>  (42) 
0.62

>  <cluster>  (42) 
4

$$$$

     RDKit          3D

 55 59  0  0  0  0  0  0  0  0999 V2000
  140.6330   72.3660  221.8830 O   0  0  0  0  0  0  0  0  0  0  0  0
  139.9110   71.4600  222.4000 C   0  0  0  0  0  0  0  0  0  0  0  0
  138.8980   70.8710  221.5500 N   0  0  0  0  0  0  0  0  0  0  0  0
  138.8260   71.3770  220.2230 C   0  0  0  0  0  0  0  0  0  0  0  0
  138.1850   72.6720  220.0630 C   0  0  0  0  0  0  0  0  0  0  0  0
  138.0120   73.0120  218.8170 O   0  0  0  0  0  0  0  0  0  0  0  0
  137.7180   73.6190  221.0010 N   0  0  0  0  0  0  0  0  0  0  0  0
  137.1490   73.4490  222.3270 C   0  0  0  0  0  0  0  0  0  0  0  0
  136.7100   74.8750  222.7260 C   0  0  0  0  0  0  0  0  0  0  0  0
  136.5490   75.5740  221.3770 C   0  0  0  0  0  0  0  0  0  0  0  0
  137.7920   75.0620  220.6880 C   0  0  1  0  0  0  0  0  0  0  0  0
  139.0220   75.6620  221.2120 C   0  0  0  0  0  0  0  0  0  0  0  0
  139.2890   76.9790  221.4310 N   0  0  0  0  0  0  0  0  0  0  0  0
  140.5180   77.1170  221.9140 C   0  0  0  0  0  0  0  0  0  0  0  0
  141.2050   78.3540  222.2860 C   0  0  0  0  0  0  0  0  0  0  0  0
  141.5220   78.5980  223.6070 C   0  0  0  0  0  0  0  0  0  0  0  0
  142.1700   79.7690  223.9420 C   0  0  0  0  0  0  0  0  0  0  0  0
  142.5100   80.7100  222.9760 C   0  0  0  0  0  0  0  0  0  0  0  0
  142.1900   80.4590  221.6580 C   0  0  0  0  0  0  0  0  0  0  0  0
  141.5410   79.2840  221.3340 C   0  0  0  0  0  0  0  0  0  0  0  0
  141.0580   75.8500  222.0080 C   0  0  0  0  0  0  0  0  0  0  0  0
  140.1200   74.9890  221.5740 N   0  0  0  0  0  0  0  0  0  0  0  0
  140.0850   71.0320  223.7720 C   0  0  0  0  0  0  0  0  0  0  0  0
  140.6700   71.8810  224.6580 C   0  0  0  0  0  0  0  0  0  0  0  0
  140.8680   71.5350  225.9900 C   0  0  0  0  0  0  0  0  0  0  0  0
  140.4460   70.2760  226.3920 C   0  0  0  0  0  0  0  0  0  0  0  0
  140.6380   69.9270  227.7030 C   0  0  0  0  0  0  0  0  0  0  0  0
  140.2270   68.6860  228.1280 C   0  0  0  0  0  0  0  0  0  0  0  0
  139.6310   67.8190  227.2190 C   0  0  0  0  0  0  0  0  0  0  0  0
  139.4370   68.1710  225.8960 C   0  0  0  0  0  0  0  0  0  0  0  0
  139.8550   69.4250  225.4840 C   0  0  0  0  0  0  0  0  0  0  0  0
  139.6860   69.8160  224.1960 N   0  0  0  0  0  0  0  0  0  0  0  0
  138.3350   70.1480  222.0120 H   0  0  0  0  0  0  0  0  0  0  0  0
  139.8537   71.4618  219.8401 H   0  0  0  0  0  0  0  0  0  0  0  0
  138.1939   70.6658  219.6710 H   0  0  0  0  0  0  0  0  0  0  0  0
  136.2863   72.7671  222.2986 H   0  0  0  0  0  0  0  0  0  0  0  0
  137.8597   73.0076  223.0411 H   0  0  0  0  0  0  0  0  0  0  0  0
  135.7586   74.8561  223.2777 H   0  0  0  0  0  0  0  0  0  0  0  0
  137.4253   75.3785  223.3929 H   0  0  0  0  0  0  0  0  0  0  0  0
  135.6317   75.2596  220.8577 H   0  0  0  0  0  0  0  0  0  0  0  0
  136.4536   76.6689  221.4228 H   0  0  0  0  0  0  0  0  0  0  0  0
  137.8271   75.3003  219.6147 H   0  0  0  0  0  0  0  0  0  0  0  0
  141.2605   77.8659  224.3852 H   0  0  0  0  0  0  0  0  0  0  0  0
  142.4230   79.9624  224.9949 H   0  0  0  0  0  0  0  0  0  0  0  0
  143.0258   81.6396  223.2585 H   0  0  0  0  0  0  0  0  0  0  0  0
  142.4487   81.1862  220.8743 H   0  0  0  0  0  0  0  0  0  0  0  0
  141.2858   79.0875  220.2822 H   0  0  0  0  0  0  0  0  0  0  0  0
  142.0647   75.5931  222.3694 H   0  0  0  0  0  0  0  0  0  0  0  0
  140.2840   73.9570  221.5460 H   0  0  0  0  0  0  0  0  0  0  0  0
  140.9967   72.8722  224.3104 H   0  0  0  0  0  0  0  0  0  0  0  0
  141.3407   72.2322  226.6974 H   0  0  0  0  0  0  0  0  0  0  0  0
  141.1134   70.6287  228.4042 H   0  0  0  0  0  0  0  0  0  0  0  0
  140.3681   68.3822  229.1758 H   0  0  0  0  0  0  0  0  0  0  0  0
  139.3049   66.8259  227.5617 H   0  0  0  0  0  0  0  0  0  0  0  0
  138.9632   67.4734  225.1897 H   0  0  0  0  0  0  0  0  0  0  0  0
  1  2  2  0
  2  3  1  0
  3  4  1  0
  4  5  1  0
  5  6  2  0
  5  7  1  0
  7  8  1  0
  8  9  1  0
  9 10  1  0
 10 11  1  0
 11 12  1  0
 12 13  2  0
 13 14  1  0
 14 15  1  0
 15 16  2  0
 16 17  1  0
 17 18  2  0
 18 19  1  0
 19 20  2  0
 14 21  2  0
 21 22  1  0
  2 23  1  0
 23 24  2  0
 24 25  1  0
 25 26  2  0
 26 27  1  0
 27 28  2  0
 28 29  1  0
 29 30  2  0
 30 31  1  0
 31 32  2  0
 11  7  1  0
 22 12  1  0
 32 23  1  0
 20 15  1  0
 31 26  1  0
  3 33  1  0
  4 34  1  0
  4 35  1  0
  8 36  1  0
  8 37  1  0
  9 38  1  0
  9 39  1  0
 10 40  1  0
 10 41  1  0
 11 42  1  6
 16 43  1  0
 17 44  1  0
 18 45  1  0
 19 46  1  0
 20 47  1  0
 21 48  1  0
 22 49  1  0
 24 50  1  0
 25 51  1  0
 27 52  1  0
 28 53  1  0
 29 54  1  0
 30 55  1  0
M  END
>  <smiles>  (43) 
O=C(NCC(=O)N1CCC[C@H]1c1nc(-c2ccccc2)c[nH]1)c1ccc2ccccc2n1

>  <score_type>  (43) 
oracle

>  <origin>  (43) 
autodockgpu

>  <m_score__min__energy>  (43) 
-9.4399999999999995

>  <m_primary>  (43) 
energy

>  <rmsd>  (43) 
3.9565209697763373

>  <m_score__min__rmsd>  (43) 
3.9565209697763373

>  <meeko>  (43) 
{"free_energy": -8.03, "intermolecular_energy": -9.82, "internal_energy": -2.93, "cluster_size": 24, "cluster_id": 2, "rank_in_cluster": 24}

>  <energy>  (43) 
-7.46

>  <cluster_rmsd>  (43) 
0.66

>  <cluster>  (43) 
4

$$$$

     RDKit          3D

 55 59  0  0  0  0  0  0  0  0999 V2000
  139.5650   74.7330  222.3990 O   0  0  0  0  0  0  0  0  0  0  0  0
  139.6570   75.7570  221.6560 C   0  0  0  0  0  0  0  0  0  0  0  0
  139.4760   75.5490  220.2340 N   0  0  0  0  0  0  0  0  0  0  0  0
  139.2130   74.2130  219.8290 C   0  0  0  0  0  0  0  0  0  0  0  0
  140.2430   73.2330  220.1360 C   0  0  0  0  0  0  0  0  0  0  0  0
  141.4490   73.7260  220.1090 O   0  0  0  0  0  0  0  0  0  0  0  0
  140.1760   71.8590  220.4550 N   0  0  0  0  0  0  0  0  0  0  0  0
  140.9880   70.7370  220.0180 C   0  0  0  0  0  0  0  0  0  0  0  0
  140.2730   69.5070  220.6200 C   0  0  0  0  0  0  0  0  0  0  0  0
  138.8460   70.0100  220.8330 C   0  0  0  0  0  0  0  0  0  0  0  0
  139.1520   71.3740  221.4050 C   0  0  1  0  0  0  0  0  0  0  0  0
  139.6750   71.3130  222.7730 C   0  0  0  0  0  0  0  0  0  0  0  0
  139.5470   70.3050  223.6790 N   0  0  0  0  0  0  0  0  0  0  0  0
  140.1630   70.6320  224.8090 C   0  0  0  0  0  0  0  0  0  0  0  0
  140.2720   69.8420  226.0350 C   0  0  0  0  0  0  0  0  0  0  0  0
  140.7740   70.4160  227.1860 C   0  0  0  0  0  0  0  0  0  0  0  0
  140.8710   69.6580  228.3340 C   0  0  0  0  0  0  0  0  0  0  0  0
  140.4730   68.3250  228.3580 C   0  0  0  0  0  0  0  0  0  0  0  0
  139.9730   67.7580  227.2030 C   0  0  0  0  0  0  0  0  0  0  0  0
  139.8810   68.5260  226.0600 C   0  0  0  0  0  0  0  0  0  0  0  0
  140.7030   71.8890  224.6240 C   0  0  0  0  0  0  0  0  0  0  0  0
  140.3870   72.2730  223.3740 N   0  0  0  0  0  0  0  0  0  0  0  0
  139.9310   77.0720  222.1960 C   0  0  0  0  0  0  0  0  0  0  0  0
  138.8970   77.8150  222.6740 C   0  0  0  0  0  0  0  0  0  0  0  0
  139.0880   79.0860  223.2060 C   0  0  0  0  0  0  0  0  0  0  0  0
  140.3840   79.5800  223.2330 C   0  0  0  0  0  0  0  0  0  0  0  0
  140.5800   80.8310  223.7550 C   0  0  0  0  0  0  0  0  0  0  0  0
  141.8540   81.3440  223.7940 C   0  0  0  0  0  0  0  0  0  0  0  0
  142.9090   80.5820  223.3020 C   0  0  0  0  0  0  0  0  0  0  0  0
  142.7110   79.3190  222.7750 C   0  0  0  0  0  0  0  0  0  0  0  0
  141.4210   78.8170  222.7450 C   0  0  0  0  0  0  0  0  0  0  0  0
  141.1780   77.5820  222.2360 N   0  0  0  0  0  0  0  0  0  0  0  0
  139.5650   76.4040  219.6740 H   0  0  0  0  0  0  0  0  0  0  0  0
  138.2846   73.8896  220.3225 H   0  0  0  0  0  0  0  0  0  0  0  0
  139.1557   74.2448  218.7309 H   0  0  0  0  0  0  0  0  0  0  0  0
  141.0141   70.6765  218.9200 H   0  0  0  0  0  0  0  0  0  0  0  0
  142.0363   70.8196  220.3410 H   0  0  0  0  0  0  0  0  0  0  0  0
  140.2927   68.6572  219.9219 H   0  0  0  0  0  0  0  0  0  0  0  0
  140.7455   69.1391  221.5427 H   0  0  0  0  0  0  0  0  0  0  0  0
  138.2877   70.0762  219.8875 H   0  0  0  0  0  0  0  0  0  0  0  0
  138.2097   69.3686  221.4604 H   0  0  0  0  0  0  0  0  0  0  0  0
  138.2659   72.0193  221.4970 H   0  0  0  0  0  0  0  0  0  0  0  0
  141.0937   71.4685  227.1873 H   0  0  0  0  0  0  0  0  0  0  0  0
  141.2715   70.1169  229.2500 H   0  0  0  0  0  0  0  0  0  0  0  0
  140.5554   67.7331  229.2815 H   0  0  0  0  0  0  0  0  0  0  0  0
  139.6516   66.7061  227.1937 H   0  0  0  0  0  0  0  0  0  0  0  0
  139.4825   68.0702  225.1416 H   0  0  0  0  0  0  0  0  0  0  0  0
  141.2820   72.4670  225.3593 H   0  0  0  0  0  0  0  0  0  0  0  0
  140.6830   73.1970  222.9860 H   0  0  0  0  0  0  0  0  0  0  0  0
  137.8795   77.3985  222.6389 H   0  0  0  0  0  0  0  0  0  0  0  0
  138.2436   79.6768  223.5906 H   0  0  0  0  0  0  0  0  0  0  0  0
  139.7305   81.4160  224.1372 H   0  0  0  0  0  0  0  0  0  0  0  0
  142.0378   82.3458  224.2095 H   0  0  0  0  0  0  0  0  0  0  0  0
  143.9279   80.9953  223.3331 H   0  0  0  0  0  0  0  0  0  0  0  0
  143.5557   78.7289  222.3899 H   0  0  0  0  0  0  0  0  0  0  0  0
  1  2  2  0
  2  3  1  0
  3  4  1  0
  4  5  1  0
  5  6  2  0
  5  7  1  0
  7  8  1  0
  8  9  1  0
  9 10  1  0
 10 11  1  0
 11 12  1  0
 12 13  2  0
 13 14  1  0
 14 15  1  0
 15 16  2  0
 16 17  1  0
 17 18  2  0
 18 19  1  0
 19 20  2  0
 14 21  2  0
 21 22  1  0
  2 23  1  0
 23 24  2  0
 24 25  1  0
 25 26  2  0
 26 27  1  0
 27 28  2  0
 28 29  1  0
 29 30  2  0
 30 31  1  0
 31 32  2  0
 11  7  1  0
 22 12  1  0
 32 23  1  0
 20 15  1  0
 31 26  1  0
  3 33  1  0
  4 34  1  0
  4 35  1  0
  8 36  1  0
  8 37  1  0
  9 38  1  0
  9 39  1  0
 10 40  1  0
 10 41  1  0
 11 42  1  1
 16 43  1  0
 17 44  1  0
 18 45  1  0
 19 46  1  0
 20 47  1  0
 21 48  1  0
 22 49  1  0
 24 50  1  0
 25 51  1  0
 27 52  1  0
 28 53  1  0
 29 54  1  0
 30 55  1  0
M  END
>  <smiles>  (44) 
O=C(NCC(=O)N1CCC[C@H]1c1nc(-c2ccccc2)c[nH]1)c1ccc2ccccc2n1

>  <score_type>  (44) 
oracle

>  <origin>  (44) 
autodockgpu

>  <m_score__min__energy>  (44) 
-9.4399999999999995

>  <m_primary>  (44) 
energy

>  <rmsd>  (44) 
9.584198544557879

>  <m_score__min__rmsd>  (44) 
9.584198544557879

>  <meeko>  (44) 
{"free_energy": -8.73, "intermolecular_energy": -10.52, "internal_energy": -2.45, "cluster_size": 24, "cluster_id": 2, "rank_in_cluster": 14}

>  <energy>  (44) 
-7.45

>  <cluster_rmsd>  (44) 
0.62

>  <cluster>  (44) 
4

$$$$

     RDKit          3D

 55 59  0  0  0  0  0  0  0  0999 V2000
  140.6950   73.1400  222.7040 O   0  0  0  0  0  0  0  0  0  0  0  0
  140.1740   71.9980  222.8830 C   0  0  0  0  0  0  0  0  0  0  0  0
  139.4730   71.4180  221.7560 N   0  0  0  0  0  0  0  0  0  0  0  0
  139.4480   72.2000  220.5690 C   0  0  0  0  0  0  0  0  0  0  0  0
  138.2730   73.0340  220.3730 C   0  0  0  0  0  0  0  0  0  0  0  0
  137.6260   72.7650  219.2740 O   0  0  0  0  0  0  0  0  0  0  0  0
  137.7100   74.0720  221.1480 N   0  0  0  0  0  0  0  0  0  0  0  0
  136.9570   74.0360  222.3890 C   0  0  0  0  0  0  0  0  0  0  0  0
  136.5120   75.5000  222.5940 C   0  0  0  0  0  0  0  0  0  0  0  0
  136.5630   76.0760  221.1790 C   0  0  0  0  0  0  0  0  0  0  0  0
  137.8730   75.4790  220.7220 C   0  0  1  0  0  0  0  0  0  0  0  0
  139.0360   76.1010  221.3600 C   0  0  0  0  0  0  0  0  0  0  0  0
  139.2390   77.4180  221.6370 N   0  0  0  0  0  0  0  0  0  0  0  0
  140.4200   77.5810  222.2210 C   0  0  0  0  0  0  0  0  0  0  0  0
  141.0320   78.8270  222.6830 C   0  0  0  0  0  0  0  0  0  0  0  0
  140.2910   79.7330  223.4140 C   0  0  0  0  0  0  0  0  0  0  0  0
  140.8820   80.9030  223.8420 C   0  0  0  0  0  0  0  0  0  0  0  0
  142.2120   81.1900  223.5530 C   0  0  0  0  0  0  0  0  0  0  0  0
  142.9470   80.2800  222.8220 C   0  0  0  0  0  0  0  0  0  0  0  0
  142.3440   79.1120  222.3980 C   0  0  0  0  0  0  0  0  0  0  0  0
  140.9950   76.3290  222.3220 C   0  0  0  0  0  0  0  0  0  0  0  0
  140.1250   75.4530  221.7890 N   0  0  0  0  0  0  0  0  0  0  0  0
  140.2700   71.3010  224.1480 C   0  0  0  0  0  0  0  0  0  0  0  0
  140.8360   71.9380  225.2080 C   0  0  0  0  0  0  0  0  0  0  0  0
  140.9610   71.3280  226.4520 C   0  0  0  0  0  0  0  0  0  0  0  0
  140.4840   70.0320  226.5790 C   0  0  0  0  0  0  0  0  0  0  0  0
  140.6030   69.4250  227.8020 C   0  0  0  0  0  0  0  0  0  0  0  0
  140.1380   68.1410  227.9550 C   0  0  0  0  0  0  0  0  0  0  0  0
  139.5620   67.4920  226.8680 C   0  0  0  0  0  0  0  0  0  0  0  0
  139.4410   68.1050  225.6350 C   0  0  0  0  0  0  0  0  0  0  0  0
  139.9130   69.3990  225.4970 C   0  0  0  0  0  0  0  0  0  0  0  0
  139.8170   70.0420  224.3060 N   0  0  0  0  0  0  0  0  0  0  0  0
  139.0630   70.4980  221.9490 H   0  0  0  0  0  0  0  0  0  0  0  0
  140.3286   72.8591  220.5830 H   0  0  0  0  0  0  0  0  0  0  0  0
  139.4363   71.4764  219.7406 H   0  0  0  0  0  0  0  0  0  0  0  0
  136.0856   73.3707  222.2992 H   0  0  0  0  0  0  0  0  0  0  0  0
  137.5471   73.6492  223.2329 H   0  0  0  0  0  0  0  0  0  0  0  0
  135.4927   75.5496  223.0046 H   0  0  0  0  0  0  0  0  0  0  0  0
  137.1429   76.0489  223.3086 H   0  0  0  0  0  0  0  0  0  0  0  0
  135.7177   75.7330  220.5643 H   0  0  0  0  0  0  0  0  0  0  0  0
  136.4968   77.1721  221.1140 H   0  0  0  0  0  0  0  0  0  0  0  0
  138.0653   75.6166  219.6477 H   0  0  0  0  0  0  0  0  0  0  0  0
  139.2379   79.5236  223.6532 H   0  0  0  0  0  0  0  0  0  0  0  0
  140.2895   81.6243  224.4240 H   0  0  0  0  0  0  0  0  0  0  0  0
  142.6701   82.1273  223.9017 H   0  0  0  0  0  0  0  0  0  0  0  0
  144.0008   80.4821  222.5797 H   0  0  0  0  0  0  0  0  0  0  0  0
  142.9327   78.3888  221.8146 H   0  0  0  0  0  0  0  0  0  0  0  0
  141.9779   76.0934  222.7560 H   0  0  0  0  0  0  0  0  0  0  0  0
  140.3260   74.4290  221.7440 H   0  0  0  0  0  0  0  0  0  0  0  0
  141.2058   72.9658  225.0778 H   0  0  0  0  0  0  0  0  0  0  0  0
  141.4205   71.8534  227.3022 H   0  0  0  0  0  0  0  0  0  0  0  0
  141.0633   69.9571  228.6475 H   0  0  0  0  0  0  0  0  0  0  0  0
  140.2204   67.6319  228.9266 H   0  0  0  0  0  0  0  0  0  0  0  0
  139.1929   66.4633  226.9929 H   0  0  0  0  0  0  0  0  0  0  0  0
  138.9816   67.5783  224.7856 H   0  0  0  0  0  0  0  0  0  0  0  0
  1  2  2  0
  2  3  1  0
  3  4  1  0
  4  5  1  0
  5  6  2  0
  5  7  1  0
  7  8  1  0
  8  9  1  0
  9 10  1  0
 10 11  1  0
 11 12  1  0
 12 13  2  0
 13 14  1  0
 14 15  1  0
 15 16  2  0
 16 17  1  0
 17 18  2  0
 18 19  1  0
 19 20  2  0
 14 21  2  0
 21 22  1  0
  2 23  1  0
 23 24  2  0
 24 25  1  0
 25 26  2  0
 26 27  1  0
 27 28  2  0
 28 29  1  0
 29 30  2  0
 30 31  1  0
 31 32  2  0
 11  7  1  0
 22 12  1  0
 32 23  1  0
 20 15  1  0
 31 26  1  0
  3 33  1  0
  4 34  1  0
  4 35  1  0
  8 36  1  0
  8 37  1  0
  9 38  1  0
  9 39  1  0
 10 40  1  0
 10 41  1  0
 11 42  1  6
 16 43  1  0
 17 44  1  0
 18 45  1  0
 19 46  1  0
 20 47  1  0
 21 48  1  0
 22 49  1  0
 24 50  1  0
 25 51  1  0
 27 52  1  0
 28 53  1  0
 29 54  1  0
 30 55  1  0
M  END
>  <smiles>  (45) 
O=C(NCC(=O)N1CCC[C@H]1c1nc(-c2ccccc2)c[nH]1)c1ccc2ccccc2n1

>  <score_type>  (45) 
oracle

>  <origin>  (45) 
autodockgpu

>  <m_score__min__energy>  (45) 
-9.4399999999999995

>  <m_primary>  (45) 
energy

>  <rmsd>  (45) 
3.8846161942113033

>  <m_score__min__rmsd>  (45) 
3.8846161942113033

>  <meeko>  (45) 
{"free_energy": -8.69, "intermolecular_energy": -10.48, "internal_energy": -2.78, "cluster_size": 24, "cluster_id": 2, "rank_in_cluster": 17}

>  <energy>  (45) 
-7.35

>  <cluster_rmsd>  (45) 
0.71

>  <cluster>  (45) 
4

$$$$

     RDKit          3D

 55 59  0  0  0  0  0  0  0  0999 V2000
  138.8560   75.3060  221.8820 O   0  0  0  0  0  0  0  0  0  0  0  0
  140.0150   75.7880  222.0620 C   0  0  0  0  0  0  0  0  0  0  0  0
  141.1330   74.8950  221.8360 N   0  0  0  0  0  0  0  0  0  0  0  0
  140.8040   73.5720  221.4360 C   0  0  0  0  0  0  0  0  0  0  0  0
  141.8920   72.7740  220.8960 C   0  0  0  0  0  0  0  0  0  0  0  0
  141.8610   71.5290  221.2820 O   0  0  0  0  0  0  0  0  0  0  0  0
  142.9670   73.0960  220.0380 N   0  0  0  0  0  0  0  0  0  0  0  0
  143.3950   72.5060  218.7820 C   0  0  0  0  0  0  0  0  0  0  0  0
  144.7220   73.2320  218.4660 C   0  0  0  0  0  0  0  0  0  0  0  0
  145.1820   73.7180  219.8400 C   0  0  0  0  0  0  0  0  0  0  0  0
  143.8620   74.2240  220.3730 C   0  0  1  0  0  0  0  0  0  0  0  0
  143.4260   75.4650  219.7270 C   0  0  0  0  0  0  0  0  0  0  0  0
  142.5720   76.4100  220.2080 N   0  0  0  0  0  0  0  0  0  0  0  0
  142.4320   77.3870  219.3200 C   0  0  0  0  0  0  0  0  0  0  0  0
  141.6110   78.5930  219.4310 C   0  0  0  0  0  0  0  0  0  0  0  0
  140.2340   78.4970  219.4260 C   0  0  0  0  0  0  0  0  0  0  0  0
  139.4750   79.6430  219.5320 C   0  0  0  0  0  0  0  0  0  0  0  0
  140.0670   80.8970  219.6430 C   0  0  0  0  0  0  0  0  0  0  0  0
  141.4440   80.9850  219.6460 C   0  0  0  0  0  0  0  0  0  0  0  0
  142.1950   79.8310  219.5400 C   0  0  0  0  0  0  0  0  0  0  0  0
  143.2190   77.0610  218.2340 C   0  0  0  0  0  0  0  0  0  0  0  0
  143.8110   75.8850  218.5160 N   0  0  0  0  0  0  0  0  0  0  0  0
  140.2180   77.1610  222.4720 C   0  0  0  0  0  0  0  0  0  0  0  0
  139.1320   77.9420  222.7170 C   0  0  0  0  0  0  0  0  0  0  0  0
  139.2550   79.2690  223.1150 C   0  0  0  0  0  0  0  0  0  0  0  0
  140.5370   79.7790  223.2550 C   0  0  0  0  0  0  0  0  0  0  0  0
  140.6660   81.0850  223.6460 C   0  0  0  0  0  0  0  0  0  0  0  0
  141.9260   81.6150  223.7940 C   0  0  0  0  0  0  0  0  0  0  0  0
  143.0340   80.8130  223.5410 C   0  0  0  0  0  0  0  0  0  0  0  0
  142.9040   79.4950  223.1460 C   0  0  0  0  0  0  0  0  0  0  0  0
  141.6280   78.9760  223.0040 C   0  0  0  0  0  0  0  0  0  0  0  0
  141.4500   77.6870  222.6180 N   0  0  0  0  0  0  0  0  0  0  0  0
  142.0500   75.3270  221.9990 H   0  0  0  0  0  0  0  0  0  0  0  0
  140.4062   73.0449  222.3157 H   0  0  0  0  0  0  0  0  0  0  0  0
  140.0851   73.6848  220.6111 H   0  0  0  0  0  0  0  0  0  0  0  0
  143.5574   71.4237  218.8928 H   0  0  0  0  0  0  0  0  0  0  0  0
  142.6478   72.6192  217.9827 H   0  0  0  0  0  0  0  0  0  0  0  0
  145.4555   72.5412  218.0248 H   0  0  0  0  0  0  0  0  0  0  0  0
  144.6083   74.0450  217.7338 H   0  0  0  0  0  0  0  0  0  0  0  0
  145.5859   72.8983  220.4523 H   0  0  0  0  0  0  0  0  0  0  0  0
  145.9988   74.4547  219.8295 H   0  0  0  0  0  0  0  0  0  0  0  0
  143.8926   74.4867  221.4407 H   0  0  0  0  0  0  0  0  0  0  0  0
  139.7466   77.5148  219.3382 H   0  0  0  0  0  0  0  0  0  0  0  0
  138.3778   79.5641  219.5287 H   0  0  0  0  0  0  0  0  0  0  0  0
  139.4482   81.8025  219.7269 H   0  0  0  0  0  0  0  0  0  0  0  0
  141.9383   81.9639  219.7319 H   0  0  0  0  0  0  0  0  0  0  0  0
  143.2925   79.9056  219.5430 H   0  0  0  0  0  0  0  0  0  0  0  0
  143.3396   77.6501  217.3129 H   0  0  0  0  0  0  0  0  0  0  0  0
  144.4640   75.4190  217.8470 H   0  0  0  0  0  0  0  0  0  0  0  0
  138.1268   77.5116  222.5969 H   0  0  0  0  0  0  0  0  0  0  0  0
  138.3689   79.8905  223.3113 H   0  0  0  0  0  0  0  0  0  0  0  0
  139.7751   81.7007  223.8387 H   0  0  0  0  0  0  0  0  0  0  0  0
  142.0563   82.6609  224.1088 H   0  0  0  0  0  0  0  0  0  0  0  0
  144.0411   81.2394  223.6585 H   0  0  0  0  0  0  0  0  0  0  0  0
  143.7908   78.8745  222.9496 H   0  0  0  0  0  0  0  0  0  0  0  0
  1  2  2  0
  2  3  1  0
  3  4  1  0
  4  5  1  0
  5  6  2  0
  5  7  1  0
  7  8  1  0
  8  9  1  0
  9 10  1  0
 10 11  1  0
 11 12  1  0
 12 13  2  0
 13 14  1  0
 14 15  1  0
 15 16  2  0
 16 17  1  0
 17 18  2  0
 18 19  1  0
 19 20  2  0
 14 21  2  0
 21 22  1  0
  2 23  1  0
 23 24  2  0
 24 25  1  0
 25 26  2  0
 26 27  1  0
 27 28  2  0
 28 29  1  0
 29 30  2  0
 30 31  1  0
 31 32  2  0
 11  7  1  0
 22 12  1  0
 32 23  1  0
 20 15  1  0
 31 26  1  0
  3 33  1  0
  4 34  1  0
  4 35  1  0
  8 36  1  0
  8 37  1  0
  9 38  1  0
  9 39  1  0
 10 40  1  0
 10 41  1  0
 11 42  1  1
 16 43  1  0
 17 44  1  0
 18 45  1  0
 19 46  1  0
 20 47  1  0
 21 48  1  0
 22 49  1  0
 24 50  1  0
 25 51  1  0
 27 52  1  0
 28 53  1  0
 29 54  1  0
 30 55  1  0
M  END
>  <smiles>  (46) 
O=C(NCC(=O)N1CCC[C@H]1c1nc(-c2ccccc2)c[nH]1)c1ccc2ccccc2n1

>  <score_type>  (46) 
oracle

>  <origin>  (46) 
autodockgpu

>  <m_score__min__energy>  (46) 
-9.4399999999999995

>  <m_primary>  (46) 
energy

>  <rmsd>  (46) 
6.85030041112941

>  <m_score__min__rmsd>  (46) 
6.85030041112941

>  <meeko>  (46) 
{"free_energy": -7.64, "intermolecular_energy": -9.43, "internal_energy": -4.15, "cluster_size": 20, "cluster_id": 4, "rank_in_cluster": 11}

>  <energy>  (46) 
-7.25

>  <cluster_rmsd>  (46) 
0.77

>  <cluster>  (46) 
4

$$$$

     RDKit          3D

 55 59  0  0  0  0  0  0  0  0999 V2000
  140.0380   73.2150  222.6930 O   0  0  0  0  0  0  0  0  0  0  0  0
  139.3610   72.2210  223.0940 C   0  0  0  0  0  0  0  0  0  0  0  0
  138.1270   71.9460  222.3860 N   0  0  0  0  0  0  0  0  0  0  0  0
  137.8140   72.8260  221.3150 C   0  0  0  0  0  0  0  0  0  0  0  0
  136.6210   73.6400  221.4790 C   0  0  0  0  0  0  0  0  0  0  0  0
  135.5710   73.1450  220.8850 O   0  0  0  0  0  0  0  0  0  0  0  0
  136.3910   74.8560  222.1600 N   0  0  0  0  0  0  0  0  0  0  0  0
  135.8050   75.1260  223.4610 C   0  0  0  0  0  0  0  0  0  0  0  0
  135.7120   76.6670  223.5120 C   0  0  0  0  0  0  0  0  0  0  0  0
  135.7120   77.0590  222.0340 C   0  0  0  0  0  0  0  0  0  0  0  0
  136.7980   76.1340  221.5380 C   0  0  1  0  0  0  0  0  0  0  0  0
  138.1360   76.5420  221.9750 C   0  0  0  0  0  0  0  0  0  0  0  0
  138.6150   77.8030  222.1560 N   0  0  0  0  0  0  0  0  0  0  0  0
  139.8790   77.7530  222.5600 C   0  0  0  0  0  0  0  0  0  0  0  0
  140.7690   78.8720  222.8700 C   0  0  0  0  0  0  0  0  0  0  0  0
  140.2870   79.9730  223.5470 C   0  0  0  0  0  0  0  0  0  0  0  0
  141.1380   81.0200  223.8320 C   0  0  0  0  0  0  0  0  0  0  0  0
  142.4760   80.9900  223.4500 C   0  0  0  0  0  0  0  0  0  0  0  0
  142.9510   79.8860  222.7730 C   0  0  0  0  0  0  0  0  0  0  0  0
  142.0890   78.8440  222.4930 C   0  0  0  0  0  0  0  0  0  0  0  0
  140.2240   76.4190  222.6390 C   0  0  0  0  0  0  0  0  0  0  0  0
  139.1400   75.7090  222.2770 N   0  0  0  0  0  0  0  0  0  0  0  0
  139.7910   71.3980  224.2040 C   0  0  0  0  0  0  0  0  0  0  0  0
  140.7310   71.8840  225.0580 C   0  0  0  0  0  0  0  0  0  0  0  0
  141.1900   71.1470  226.1450 C   0  0  0  0  0  0  0  0  0  0  0  0
  140.6520   69.8820  226.3330 C   0  0  0  0  0  0  0  0  0  0  0  0
  141.0990   69.1500  227.4010 C   0  0  0  0  0  0  0  0  0  0  0  0
  140.5820   67.8950  227.6100 C   0  0  0  0  0  0  0  0  0  0  0  0
  139.6220   67.4000  226.7340 C   0  0  0  0  0  0  0  0  0  0  0  0
  139.1700   68.1390  225.6560 C   0  0  0  0  0  0  0  0  0  0  0  0
  139.7010   69.4030  225.4600 C   0  0  0  0  0  0  0  0  0  0  0  0
  139.2890   70.1650  224.4150 N   0  0  0  0  0  0  0  0  0  0  0  0
  137.6100   71.1370  222.7490 H   0  0  0  0  0  0  0  0  0  0  0  0
  138.6679   73.5061  221.1793 H   0  0  0  0  0  0  0  0  0  0  0  0
  137.6097   72.1763  220.4512 H   0  0  0  0  0  0  0  0  0  0  0  0
  134.8071   74.6705  223.5432 H   0  0  0  0  0  0  0  0  0  0  0  0
  136.3971   74.7084  224.2887 H   0  0  0  0  0  0  0  0  0  0  0  0
  134.7849   76.9912  224.0073 H   0  0  0  0  0  0  0  0  0  0  0  0
  136.5278   77.1324  224.0846 H   0  0  0  0  0  0  0  0  0  0  0  0
  134.7443   76.8524  221.5535 H   0  0  0  0  0  0  0  0  0  0  0  0
  135.8745   78.1277  221.8304 H   0  0  0  0  0  0  0  0  0  0  0  0
  136.8832   76.1063  220.4416 H   0  0  0  0  0  0  0  0  0  0  0  0
  139.2324   80.0154  223.8570 H   0  0  0  0  0  0  0  0  0  0  0  0
  140.7515   81.8967  224.3723 H   0  0  0  0  0  0  0  0  0  0  0  0
  143.1434   81.8325  223.6840 H   0  0  0  0  0  0  0  0  0  0  0  0
  144.0043   79.8362  222.4597 H   0  0  0  0  0  0  0  0  0  0  0  0
  142.4711   77.9658  221.9520 H   0  0  0  0  0  0  0  0  0  0  0  0
  141.2007   76.0130  222.9409 H   0  0  0  0  0  0  0  0  0  0  0  0
  139.1420   74.6650  222.2540 H   0  0  0  0  0  0  0  0  0  0  0  0
  141.1407   72.8899  224.8842 H   0  0  0  0  0  0  0  0  0  0  0  0
  141.9503   71.5517  226.8292 H   0  0  0  0  0  0  0  0  0  0  0  0
  141.8601   69.5609  228.0806 H   0  0  0  0  0  0  0  0  0  0  0  0
  140.9236   67.2878  228.4612 H   0  0  0  0  0  0  0  0  0  0  0  0
  139.2112   66.3937  226.9031 H   0  0  0  0  0  0  0  0  0  0  0  0
  138.4092   67.7338  224.9726 H   0  0  0  0  0  0  0  0  0  0  0  0
  1  2  2  0
  2  3  1  0
  3  4  1  0
  4  5  1  0
  5  6  2  0
  5  7  1  0
  7  8  1  0
  8  9  1  0
  9 10  1  0
 10 11  1  0
 11 12  1  0
 12 13  2  0
 13 14  1  0
 14 15  1  0
 15 16  2  0
 16 17  1  0
 17 18  2  0
 18 19  1  0
 19 20  2  0
 14 21  2  0
 21 22  1  0
  2 23  1  0
 23 24  2  0
 24 25  1  0
 25 26  2  0
 26 27  1  0
 27 28  2  0
 28 29  1  0
 29 30  2  0
 30 31  1  0
 31 32  2  0
 11  7  1  0
 22 12  1  0
 32 23  1  0
 20 15  1  0
 31 26  1  0
  3 33  1  0
  4 34  1  0
  4 35  1  0
  8 36  1  0
  8 37  1  0
  9 38  1  0
  9 39  1  0
 10 40  1  0
 10 41  1  0
 11 42  1  6
 16 43  1  0
 17 44  1  0
 18 45  1  0
 19 46  1  0
 20 47  1  0
 21 48  1  0
 22 49  1  0
 24 50  1  0
 25 51  1  0
 27 52  1  0
 28 53  1  0
 29 54  1  0
 30 55  1  0
M  END
>  <smiles>  (47) 
O=C(NCC(=O)N1CCC[C@H]1c1nc(-c2ccccc2)c[nH]1)c1ccc2ccccc2n1

>  <score_type>  (47) 
oracle

>  <origin>  (47) 
autodockgpu

>  <m_score__min__energy>  (47) 
-9.4399999999999995

>  <m_primary>  (47) 
energy

>  <rmsd>  (47) 
4.282195234990115

>  <m_score__min__rmsd>  (47) 
4.282195234990115

>  <meeko>  (47) 
{"free_energy": -8.81, "intermolecular_energy": -10.6, "internal_energy": -2.68, "cluster_size": 3, "cluster_id": 3, "rank_in_cluster": 3}

>  <energy>  (47) 
-7.22

>  <cluster_rmsd>  (47) 
1.02

>  <cluster>  (47) 
4

$$$$

     RDKit          3D

 55 59  0  0  0  0  0  0  0  0999 V2000
  138.9730   70.0930  221.8870 O   0  0  0  0  0  0  0  0  0  0  0  0
  138.7990   70.9080  222.8420 C   0  0  0  0  0  0  0  0  0  0  0  0
  137.9490   72.0500  222.5770 N   0  0  0  0  0  0  0  0  0  0  0  0
  137.4010   72.1280  221.2680 C   0  0  0  0  0  0  0  0  0  0  0  0
  138.2880   72.6270  220.2280 C   0  0  0  0  0  0  0  0  0  0  0  0
  137.7400   72.6440  219.0460 O   0  0  0  0  0  0  0  0  0  0  0  0
  139.6210   73.0920  220.2650 N   0  0  0  0  0  0  0  0  0  0  0  0
  140.5520   73.4070  219.1960 C   0  0  0  0  0  0  0  0  0  0  0  0
  141.8760   73.7020  219.9340 C   0  0  0  0  0  0  0  0  0  0  0  0
  141.7000   72.9670  221.2620 C   0  0  0  0  0  0  0  0  0  0  0  0
  140.2720   73.3540  221.5670 C   0  0  1  0  0  0  0  0  0  0  0  0
  140.1350   74.7590  221.9620 C   0  0  0  0  0  0  0  0  0  0  0  0
  141.0730   75.7440  221.9060 N   0  0  0  0  0  0  0  0  0  0  0  0
  140.5600   76.8830  222.3560 C   0  0  0  0  0  0  0  0  0  0  0  0
  141.2190   78.1840  222.4690 C   0  0  0  0  0  0  0  0  0  0  0  0
  141.4840   78.9270  221.3360 C   0  0  0  0  0  0  0  0  0  0  0  0
  142.1060   80.1510  221.4590 C   0  0  0  0  0  0  0  0  0  0  0  0
  142.4730   80.6560  222.7020 C   0  0  0  0  0  0  0  0  0  0  0  0
  142.2040   79.9080  223.8300 C   0  0  0  0  0  0  0  0  0  0  0  0
  141.5820   78.6830  223.6950 C   0  0  0  0  0  0  0  0  0  0  0  0
  139.2520   76.6220  222.7120 C   0  0  0  0  0  0  0  0  0  0  0  0
  139.0270   75.3200  222.4580 N   0  0  0  0  0  0  0  0  0  0  0  0
  139.4170   70.7150  224.1370 C   0  0  0  0  0  0  0  0  0  0  0  0
  140.2350   71.6840  224.6270 C   0  0  0  0  0  0  0  0  0  0  0  0
  140.8610   71.5640  225.8630 C   0  0  0  0  0  0  0  0  0  0  0  0
  140.6230   70.4070  226.5900 C   0  0  0  0  0  0  0  0  0  0  0  0
  141.2360   70.2810  227.8090 C   0  0  0  0  0  0  0  0  0  0  0  0
  141.0160   69.1450  228.5500 C   0  0  0  0  0  0  0  0  0  0  0  0
  140.1800   68.1550  228.0450 C   0  0  0  0  0  0  0  0  0  0  0  0
  139.5610   68.2820  226.8160 C   0  0  0  0  0  0  0  0  0  0  0  0
  139.7920   69.4330  226.0820 C   0  0  0  0  0  0  0  0  0  0  0  0
  139.2070   69.6030  224.8690 N   0  0  0  0  0  0  0  0  0  0  0  0
  137.8430   72.6850  223.3760 H   0  0  0  0  0  0  0  0  0  0  0  0
  137.0797   71.1167  220.9781 H   0  0  0  0  0  0  0  0  0  0  0  0
  136.5840   72.8616  221.3345 H   0  0  0  0  0  0  0  0  0  0  0  0
  140.6666   72.5531  218.5122 H   0  0  0  0  0  0  0  0  0  0  0  0
  140.2154   74.2494  218.5739 H   0  0  0  0  0  0  0  0  0  0  0  0
  142.7370   73.3072  219.3746 H   0  0  0  0  0  0  0  0  0  0  0  0
  142.0740   74.7771  220.0563 H   0  0  0  0  0  0  0  0  0  0  0  0
  141.8160   71.8790  221.1485 H   0  0  0  0  0  0  0  0  0  0  0  0
  142.4332   73.2218  222.0414 H   0  0  0  0  0  0  0  0  0  0  0  0
  139.8413   72.8047  222.4172 H   0  0  0  0  0  0  0  0  0  0  0  0
  141.2012   78.5456  220.3437 H   0  0  0  0  0  0  0  0  0  0  0  0
  142.3166   80.7410  220.5548 H   0  0  0  0  0  0  0  0  0  0  0  0
  142.9690   81.6344  222.7844 H   0  0  0  0  0  0  0  0  0  0  0  0
  142.4821   80.2837  224.8257 H   0  0  0  0  0  0  0  0  0  0  0  0
  141.3711   78.0893  224.5967 H   0  0  0  0  0  0  0  0  0  0  0  0
  138.5304   77.3421  223.1251 H   0  0  0  0  0  0  0  0  0  0  0  0
  138.1020   74.8710  222.6430 H   0  0  0  0  0  0  0  0  0  0  0  0
  140.4069   72.5903  224.0278 H   0  0  0  0  0  0  0  0  0  0  0  0
  141.5194   72.3560  226.2492 H   0  0  0  0  0  0  0  0  0  0  0  0
  141.8939   71.0768  228.1884 H   0  0  0  0  0  0  0  0  0  0  0  0
  141.4959   69.0200  229.5319 H   0  0  0  0  0  0  0  0  0  0  0  0
  140.0067   67.2462  228.6400 H   0  0  0  0  0  0  0  0  0  0  0  0
  138.9022   67.4896  226.4311 H   0  0  0  0  0  0  0  0  0  0  0  0
  1  2  2  0
  2  3  1  0
  3  4  1  0
  4  5  1  0
  5  6  2  0
  5  7  1  0
  7  8  1  0
  8  9  1  0
  9 10  1  0
 10 11  1  0
 11 12  1  0
 12 13  2  0
 13 14  1  0
 14 15  1  0
 15 16  2  0
 16 17  1  0
 17 18  2  0
 18 19  1  0
 19 20  2  0
 14 21  2  0
 21 22  1  0
  2 23  1  0
 23 24  2  0
 24 25  1  0
 25 26  2  0
 26 27  1  0
 27 28  2  0
 28 29  1  0
 29 30  2  0
 30 31  1  0
 31 32  2  0
 11  7  1  0
 22 12  1  0
 32 23  1  0
 20 15  1  0
 31 26  1  0
  3 33  1  0
  4 34  1  0
  4 35  1  0
  8 36  1  0
  8 37  1  0
  9 38  1  0
  9 39  1  0
 10 40  1  0
 10 41  1  0
 11 42  1  1
 16 43  1  0
 17 44  1  0
 18 45  1  0
 19 46  1  0
 20 47  1  0
 21 48  1  0
 22 49  1  0
 24 50  1  0
 25 51  1  0
 27 52  1  0
 28 53  1  0
 29 54  1  0
 30 55  1  0
M  END
>  <smiles>  (48) 
O=C(NCC(=O)N1CCC[C@H]1c1nc(-c2ccccc2)c[nH]1)c1ccc2ccccc2n1

>  <score_type>  (48) 
oracle

>  <origin>  (48) 
autodockgpu

>  <m_score__min__energy>  (48) 
-9.4399999999999995

>  <m_primary>  (48) 
energy

>  <rmsd>  (48) 
3.726456966115879

>  <m_score__min__rmsd>  (48) 
3.726456966115879

>  <meeko>  (48) 
{"free_energy": -9.29, "intermolecular_energy": -11.08, "internal_energy": -1.88, "cluster_size": 24, "cluster_id": 2, "rank_in_cluster": 1}

>  <energy>  (48) 
-7.18

>  <cluster_rmsd>  (48) 
0.86

>  <cluster>  (48) 
4

$$$$

     RDKit          3D

 55 59  0  0  0  0  0  0  0  0999 V2000
  138.6620   75.5820  222.2020 O   0  0  0  0  0  0  0  0  0  0  0  0
  139.8510   76.0140  222.2830 C   0  0  0  0  0  0  0  0  0  0  0  0
  140.9070   75.0760  221.9570 N   0  0  0  0  0  0  0  0  0  0  0  0
  140.4870   73.7720  221.5810 C   0  0  0  0  0  0  0  0  0  0  0  0
  141.5060   72.9100  221.0040 C   0  0  0  0  0  0  0  0  0  0  0  0
  141.6200   71.7630  221.6130 O   0  0  0  0  0  0  0  0  0  0  0  0
  142.3870   73.0860  219.9130 N   0  0  0  0  0  0  0  0  0  0  0  0
  142.3730   72.5230  218.5740 C   0  0  0  0  0  0  0  0  0  0  0  0
  143.7040   73.0040  217.9570 C   0  0  0  0  0  0  0  0  0  0  0  0
  144.5690   73.2870  219.1850 C   0  0  0  0  0  0  0  0  0  0  0  0
  143.5470   73.9930  220.0440 C   0  0  1  0  0  0  0  0  0  0  0  0
  143.2310   75.3410  219.5610 C   0  0  0  0  0  0  0  0  0  0  0  0
  142.3520   76.2380  220.0850 N   0  0  0  0  0  0  0  0  0  0  0  0
  142.3520   77.3490  219.3570 C   0  0  0  0  0  0  0  0  0  0  0  0
  141.5600   78.5610  219.5650 C   0  0  0  0  0  0  0  0  0  0  0  0
  140.1830   78.4870  219.6180 C   0  0  0  0  0  0  0  0  0  0  0  0
  139.4500   79.6390  219.8140 C   0  0  0  0  0  0  0  0  0  0  0  0
  140.0700   80.8760  219.9590 C   0  0  0  0  0  0  0  0  0  0  0  0
  141.4470   80.9420  219.9040 C   0  0  0  0  0  0  0  0  0  0  0  0
  142.1710   79.7830  219.7070 C   0  0  0  0  0  0  0  0  0  0  0  0
  143.2600   77.1590  218.3330 C   0  0  0  0  0  0  0  0  0  0  0  0
  143.7760   75.9270  218.4890 N   0  0  0  0  0  0  0  0  0  0  0  0
  140.1480   77.3730  222.6800 C   0  0  0  0  0  0  0  0  0  0  0  0
  139.1210   78.2030  223.0070 C   0  0  0  0  0  0  0  0  0  0  0  0
  139.3350   79.5200  223.3970 C   0  0  0  0  0  0  0  0  0  0  0  0
  140.6460   79.9690  223.4430 C   0  0  0  0  0  0  0  0  0  0  0  0
  140.8640   81.2660  223.8260 C   0  0  0  0  0  0  0  0  0  0  0  0
  142.1550   81.7360  223.8810 C   0  0  0  0  0  0  0  0  0  0  0  0
  143.2020   80.8850  223.5440 C   0  0  0  0  0  0  0  0  0  0  0  0
  142.9830   79.5770  223.1570 C   0  0  0  0  0  0  0  0  0  0  0  0
  141.6770   79.1190  223.1090 C   0  0  0  0  0  0  0  0  0  0  0  0
  141.4110   77.8410  222.7350 N   0  0  0  0  0  0  0  0  0  0  0  0
  141.8520   75.4670  222.0420 H   0  0  0  0  0  0  0  0  0  0  0  0
  140.0956   73.2734  222.4800 H   0  0  0  0  0  0  0  0  0  0  0  0
  139.7427   73.9210  220.7849 H   0  0  0  0  0  0  0  0  0  0  0  0
  142.3331   71.4244  218.6115 H   0  0  0  0  0  0  0  0  0  0  0  0
  141.4956   72.8377  217.9899 H   0  0  0  0  0  0  0  0  0  0  0  0
  144.1539   72.2216  217.3281 H   0  0  0  0  0  0  0  0  0  0  0  0
  143.5863   73.8774  217.2987 H   0  0  0  0  0  0  0  0  0  0  0  0
  144.9321   72.3610  219.6547 H   0  0  0  0  0  0  0  0  0  0  0  0
  145.4920   73.8529  218.9904 H   0  0  0  0  0  0  0  0  0  0  0  0
  143.8855   74.1623  221.0768 H   0  0  0  0  0  0  0  0  0  0  0  0
  139.6745   77.5181  219.5050 H   0  0  0  0  0  0  0  0  0  0  0  0
  138.3525   79.5784  219.8565 H   0  0  0  0  0  0  0  0  0  0  0  0
  139.4723   81.7862  220.1149 H   0  0  0  0  0  0  0  0  0  0  0  0
  141.9624   81.9073  220.0159 H   0  0  0  0  0  0  0  0  0  0  0  0
  143.2686   79.8398  219.6625 H   0  0  0  0  0  0  0  0  0  0  0  0
  143.5128   77.8788  217.5406 H   0  0  0  0  0  0  0  0  0  0  0  0
  144.4940   75.5400  217.8360 H   0  0  0  0  0  0  0  0  0  0  0  0
  138.0906   77.8206  222.9615 H   0  0  0  0  0  0  0  0  0  0  0  0
  138.4958   80.1811  223.6593 H   0  0  0  0  0  0  0  0  0  0  0  0
  140.0194   81.9213  224.0855 H   0  0  0  0  0  0  0  0  0  0  0  0
  142.3572   82.7728  224.1879 H   0  0  0  0  0  0  0  0  0  0  0  0
  144.2337   81.2641  223.5868 H   0  0  0  0  0  0  0  0  0  0  0  0
  143.8231   78.9173  222.8942 H   0  0  0  0  0  0  0  0  0  0  0  0
  1  2  2  0
  2  3  1  0
  3  4  1  0
  4  5  1  0
  5  6  2  0
  5  7  1  0
  7  8  1  0
  8  9  1  0
  9 10  1  0
 10 11  1  0
 11 12  1  0
 12 13  2  0
 13 14  1  0
 14 15  1  0
 15 16  2  0
 16 17  1  0
 17 18  2  0
 18 19  1  0
 19 20  2  0
 14 21  2  0
 21 22  1  0
  2 23  1  0
 23 24  2  0
 24 25  1  0
 25 26  2  0
 26 27  1  0
 27 28  2  0
 28 29  1  0
 29 30  2  0
 30 31  1  0
 31 32  2  0
 11  7  1  0
 22 12  1  0
 32 23  1  0
 20 15  1  0
 31 26  1  0
  3 33  1  0
  4 34  1  0
  4 35  1  0
  8 36  1  0
  8 37  1  0
  9 38  1  0
  9 39  1  0
 10 40  1  0
 10 41  1  0
 11 42  1  1
 16 43  1  0
 17 44  1  0
 18 45  1  0
 19 46  1  0
 20 47  1  0
 21 48  1  0
 22 49  1  0
 24 50  1  0
 25 51  1  0
 27 52  1  0
 28 53  1  0
 29 54  1  0
 30 55  1  0
M  END
>  <smiles>  (49) 
O=C(NCC(=O)N1CCC[C@H]1c1nc(-c2ccccc2)c[nH]1)c1ccc2ccccc2n1

>  <score_type>  (49) 
oracle

>  <origin>  (49) 
autodockgpu

>  <m_score__min__energy>  (49) 
-9.4399999999999995

>  <m_primary>  (49) 
energy

>  <rmsd>  (49) 
6.816893292427279

>  <m_score__min__rmsd>  (49) 
6.816893292427279

>  <meeko>  (49) 
{"free_energy": -7.25, "intermolecular_energy": -9.04, "internal_energy": -4.24, "cluster_size": 20, "cluster_id": 4, "rank_in_cluster": 18}

>  <energy>  (49) 
-7.9

>  <cluster_rmsd>  (49) 
0.0

>  <cluster>  (49) 
5

$$$$

     RDKit          3D

 55 59  0  0  0  0  0  0  0  0999 V2000
  138.6670   75.5590  222.1080 O   0  0  0  0  0  0  0  0  0  0  0  0
  139.8530   75.9940  222.2180 C   0  0  0  0  0  0  0  0  0  0  0  0
  140.9200   75.0570  221.9300 N   0  0  0  0  0  0  0  0  0  0  0  0
  140.5140   73.7480  221.5540 C   0  0  0  0  0  0  0  0  0  0  0  0
  141.5510   72.8830  221.0170 C   0  0  0  0  0  0  0  0  0  0  0  0
  141.6120   71.7210  221.6050 O   0  0  0  0  0  0  0  0  0  0  0  0
  142.4960   73.0680  219.9830 N   0  0  0  0  0  0  0  0  0  0  0  0
  142.5970   72.4680  218.6640 C   0  0  0  0  0  0  0  0  0  0  0  0
  143.9460   72.9910  218.1230 C   0  0  0  0  0  0  0  0  0  0  0  0
  144.7120   73.3460  219.3970 C   0  0  0  0  0  0  0  0  0  0  0  0
  143.6040   74.0300  220.1630 C   0  0  1  0  0  0  0  0  0  0  0  0
  143.2640   75.3480  219.6190 C   0  0  0  0  0  0  0  0  0  0  0  0
  142.3950   76.2670  220.1200 N   0  0  0  0  0  0  0  0  0  0  0  0
  142.3660   77.3370  219.3350 C   0  0  0  0  0  0  0  0  0  0  0  0
  141.5720   78.5550  219.5020 C   0  0  0  0  0  0  0  0  0  0  0  0
  140.1950   78.4790  219.5710 C   0  0  0  0  0  0  0  0  0  0  0  0
  139.4610   79.6360  219.7280 C   0  0  0  0  0  0  0  0  0  0  0  0
  140.0780   80.8790  219.8180 C   0  0  0  0  0  0  0  0  0  0  0  0
  141.4540   80.9470  219.7480 C   0  0  0  0  0  0  0  0  0  0  0  0
  142.1790   79.7820  219.5900 C   0  0  0  0  0  0  0  0  0  0  0  0
  143.2430   77.0980  218.2960 C   0  0  0  0  0  0  0  0  0  0  0  0
  143.7730   75.8790  218.5000 N   0  0  0  0  0  0  0  0  0  0  0  0
  140.1360   77.3580  222.6120 C   0  0  0  0  0  0  0  0  0  0  0  0
  139.0980   78.1840  222.9150 C   0  0  0  0  0  0  0  0  0  0  0  0
  139.2980   79.5050  223.3010 C   0  0  0  0  0  0  0  0  0  0  0  0
  140.6060   79.9610  223.3660 C   0  0  0  0  0  0  0  0  0  0  0  0
  140.8100   81.2620  223.7450 C   0  0  0  0  0  0  0  0  0  0  0  0
  142.0970   81.7390  223.8200 C   0  0  0  0  0  0  0  0  0  0  0  0
  143.1550   80.8920  223.5070 C   0  0  0  0  0  0  0  0  0  0  0  0
  142.9490   79.5800  223.1250 C   0  0  0  0  0  0  0  0  0  0  0  0
  141.6470   79.1140  223.0570 C   0  0  0  0  0  0  0  0  0  0  0  0
  141.3950   77.8330  222.6860 N   0  0  0  0  0  0  0  0  0  0  0  0
  141.8610   75.4510  222.0380 H   0  0  0  0  0  0  0  0  0  0  0  0
  140.0963   73.2573  222.4455 H   0  0  0  0  0  0  0  0  0  0  0  0
  139.7941   73.8877  220.7341 H   0  0  0  0  0  0  0  0  0  0  0  0
  142.6014   71.3701  218.7323 H   0  0  0  0  0  0  0  0  0  0  0  0
  141.7488   72.7267  218.0131 H   0  0  0  0  0  0  0  0  0  0  0  0
  144.4709   72.2125  217.5499 H   0  0  0  0  0  0  0  0  0  0  0  0
  143.8365   73.8398  217.4319 H   0  0  0  0  0  0  0  0  0  0  0  0
  145.0808   72.4504  219.9185 H   0  0  0  0  0  0  0  0  0  0  0  0
  145.6216   73.9464  219.2478 H   0  0  0  0  0  0  0  0  0  0  0  0
  143.8638   74.2440  221.2102 H   0  0  0  0  0  0  0  0  0  0  0  0
  139.6884   77.5051  219.5014 H   0  0  0  0  0  0  0  0  0  0  0  0
  138.3641   79.5743  219.7832 H   0  0  0  0  0  0  0  0  0  0  0  0
  139.4787   81.7929  219.9429 H   0  0  0  0  0  0  0  0  0  0  0  0
  141.9676   81.9173  219.8172 H   0  0  0  0  0  0  0  0  0  0  0  0
  143.2760   79.8399  219.5330 H   0  0  0  0  0  0  0  0  0  0  0  0
  143.4661   77.7764  217.4594 H   0  0  0  0  0  0  0  0  0  0  0  0
  144.4730   75.4610  217.8470 H   0  0  0  0  0  0  0  0  0  0  0  0
  138.0708   77.7955  222.8528 H   0  0  0  0  0  0  0  0  0  0  0  0
  138.4511   80.1630  223.5454 H   0  0  0  0  0  0  0  0  0  0  0  0
  139.9575   81.9142  223.9854 H   0  0  0  0  0  0  0  0  0  0  0  0
  142.2880   82.7787  224.1241 H   0  0  0  0  0  0  0  0  0  0  0  0
  144.1838   81.2770  223.5651 H   0  0  0  0  0  0  0  0  0  0  0  0
  143.7971   78.9232  222.8814 H   0  0  0  0  0  0  0  0  0  0  0  0
  1  2  2  0
  2  3  1  0
  3  4  1  0
  4  5  1  0
  5  6  2  0
  5  7  1  0
  7  8  1  0
  8  9  1  0
  9 10  1  0
 10 11  1  0
 11 12  1  0
 12 13  2  0
 13 14  1  0
 14 15  1  0
 15 16  2  0
 16 17  1  0
 17 18  2  0
 18 19  1  0
 19 20  2  0
 14 21  2  0
 21 22  1  0
  2 23  1  0
 23 24  2  0
 24 25  1  0
 25 26  2  0
 26 27  1  0
 27 28  2  0
 28 29  1  0
 29 30  2  0
 30 31  1  0
 31 32  2  0
 11  7  1  0
 22 12  1  0
 32 23  1  0
 20 15  1  0
 31 26  1  0
  3 33  1  0
  4 34  1  0
  4 35  1  0
  8 36  1  0
  8 37  1  0
  9 38  1  0
  9 39  1  0
 10 40  1  0
 10 41  1  0
 11 42  1  1
 16 43  1  0
 17 44  1  0
 18 45  1  0
 19 46  1  0
 20 47  1  0
 21 48  1  0
 22 49  1  0
 24 50  1  0
 25 51  1  0
 27 52  1  0
 28 53  1  0
 29 54  1  0
 30 55  1  0
M  END
>  <smiles>  (50) 
O=C(NCC(=O)N1CCC[C@H]1c1nc(-c2ccccc2)c[nH]1)c1ccc2ccccc2n1

>  <score_type>  (50) 
oracle

>  <origin>  (50) 
autodockgpu

>  <m_score__min__energy>  (50) 
-9.4399999999999995

>  <m_primary>  (50) 
energy

>  <rmsd>  (50) 
6.845354167693455

>  <m_score__min__rmsd>  (50) 
6.845354167693455

>  <meeko>  (50) 
{"free_energy": -7.35, "intermolecular_energy": -9.14, "internal_energy": -4.21, "cluster_size": 20, "cluster_id": 4, "rank_in_cluster": 17}

>  <energy>  (50) 
-7.37

>  <cluster_rmsd>  (50) 
0.0

>  <cluster>  (50) 
6

$$$$
