
     RDKit          3D

 60 62  0  0  0  0  0  0  0  0999 V2000
  142.1820   79.1290  218.7550 C   0  0  0  0  0  0  0  0  0  0  0  0
  141.4370   77.8280  218.8430 C   0  0  0  0  0  0  0  0  0  0  0  0
  141.0160   77.4770  217.4090 C   0  0  0  0  0  0  0  0  0  0  0  0
  142.2250   76.6810  219.3520 C   0  0  0  0  0  0  0  0  0  0  0  0
  141.8220   76.1470  220.7020 C   0  0  2  0  0  0  0  0  0  0  0  0
  141.2010   74.8260  220.5790 N   0  0  0  0  0  0  0  0  0  0  0  0
  141.9260   73.6720  220.2020 C   0  0  0  0  0  0  0  0  0  0  0  0
  143.1650   73.8130  219.9700 O   0  0  0  0  0  0  0  0  0  0  0  0
  141.3450   72.3200  220.0600 C   0  0  0  0  0  0  0  0  0  0  0  0
  141.1180   71.6100  221.2750 N   0  0  0  0  0  0  0  0  0  0  0  0
  140.4450   72.1940  222.3950 C   0  0  0  0  0  0  0  0  0  0  0  0
  140.0040   73.3930  222.3580 O   0  0  0  0  0  0  0  0  0  0  0  0
  140.2530   71.3980  223.6270 C   0  0  0  0  0  0  0  0  0  0  0  0
  139.5610   70.2080  223.5580 C   0  0  0  0  0  0  0  0  0  0  0  0
  139.3930   69.4810  224.7200 C   0  0  0  0  0  0  0  0  0  0  0  0
  139.8900   69.9010  225.9350 C   0  0  0  0  0  0  0  0  0  0  0  0
  139.7270   69.1790  227.1050 C   0  0  0  0  0  0  0  0  0  0  0  0
  140.2350   69.6200  228.3160 C   0  0  0  0  0  0  0  0  0  0  0  0
  140.9270   70.8360  228.3210 C   0  0  0  0  0  0  0  0  0  0  0  0
  141.0820   71.5430  227.1470 C   0  0  0  0  0  0  0  0  0  0  0  0
  140.5740   71.1010  225.9420 C   0  0  0  0  0  0  0  0  0  0  0  0
  140.7320   71.8030  224.8030 N   0  0  0  0  0  0  0  0  0  0  0  0
  141.0510   77.0860  221.5240 C   0  0  0  0  0  0  0  0  0  0  0  0
  139.8460   76.9320  221.8570 O   0  0  0  0  0  0  0  0  0  0  0  0
  141.6980   78.2620  221.9870 N   0  0  0  0  0  0  0  0  0  0  0  0
  141.0010   79.2320  222.8020 C   0  0  0  0  0  0  0  0  0  0  0  0
  141.8800   79.4340  224.0380 C   0  0  0  0  0  0  0  0  0  0  0  0
  142.8740   80.4910  223.6670 C   0  0  0  0  0  0  0  0  0  0  0  0
  142.1800   81.3350  222.6210 C   0  0  0  0  0  0  0  0  0  0  0  0
  140.9330   80.5990  222.2050 C   0  0  0  0  0  0  0  0  0  0  0  0
  142.3941   79.4994  219.7688 H   0  0  0  0  0  0  0  0  0  0  0  0
  143.1282   78.9740  218.2159 H   0  0  0  0  0  0  0  0  0  0  0  0
  141.5694   79.8666  218.2159 H   0  0  0  0  0  0  0  0  0  0  0  0
  140.6113   77.9775  219.5542 H   0  0  0  0  0  0  0  0  0  0  0  0
  140.1714   76.7728  217.4368 H   0  0  0  0  0  0  0  0  0  0  0  0
  140.7123   78.3932  216.8814 H   0  0  0  0  0  0  0  0  0  0  0  0
  141.8626   77.0135  216.8814 H   0  0  0  0  0  0  0  0  0  0  0  0
  142.1327   75.8607  218.6249 H   0  0  0  0  0  0  0  0  0  0  0  0
  143.2502   77.0594  219.4779 H   0  0  0  0  0  0  0  0  0  0  0  0
  142.7527   76.0205  221.2746 H   0  0  0  0  0  0  0  0  0  0  0  0
  140.1860   74.7770  220.7960 H   0  0  0  0  0  0  0  0  0  0  0  0
  140.3794   72.4206  219.5428 H   0  0  0  0  0  0  0  0  0  0  0  0
  142.0912   71.7316  219.5059 H   0  0  0  0  0  0  0  0  0  0  0  0
  141.4350   70.6050  221.4210 H   0  0  0  0  0  0  0  0  0  0  0  0
  139.1532   69.8468  222.6023 H   0  0  0  0  0  0  0  0  0  0  0  0
  138.8415   68.5304  224.6742 H   0  0  0  0  0  0  0  0  0  0  0  0
  139.1776   68.2266  227.0720 H   0  0  0  0  0  0  0  0  0  0  0  0
  140.0995   69.0364  229.2385 H   0  0  0  0  0  0  0  0  0  0  0  0
  141.3466   71.2274  229.2595 H   0  0  0  0  0  0  0  0  0  0  0  0
  141.6315   72.4956  227.1718 H   0  0  0  0  0  0  0  0  0  0  0  0
  142.7040   78.4850  221.7650 H   0  0  0  0  0  0  0  0  0  0  0  0
  139.9808   78.8519  222.9591 H   0  0  0  0  0  0  0  0  0  0  0  0
  141.2699   79.7652  224.8913 H   0  0  0  0  0  0  0  0  0  0  0  0
  142.3772   78.4994  224.3369 H   0  0  0  0  0  0  0  0  0  0  0  0
  143.1348   81.1009  224.5445 H   0  0  0  0  0  0  0  0  0  0  0  0
  143.8135   80.0595  223.2914 H   0  0  0  0  0  0  0  0  0  0  0  0
  141.9149   82.3153  223.0438 H   0  0  0  0  0  0  0  0  0  0  0  0
  142.8392   81.5029  221.7566 H   0  0  0  0  0  0  0  0  0  0  0  0
  140.0428   81.1277  222.5766 H   0  0  0  0  0  0  0  0  0  0  0  0
  140.8638   80.5410  221.1087 H   0  0  0  0  0  0  0  0  0  0  0  0
  1  2  1  0
  2  3  1  0
  2  4  1  0
  4  5  1  0
  5  6  1  0
  6  7  1  0
  7  8  2  0
  7  9  1  0
  9 10  1  0
 10 11  1  0
 11 12  2  0
 11 13  1  0
 13 14  2  0
 14 15  1  0
 15 16  2  0
 16 17  1  0
 17 18  2  0
 18 19  1  0
 19 20  2  0
 20 21  1  0
 21 22  2  0
  5 23  1  0
 23 24  2  0
 23 25  1  0
 25 26  1  0
 26 27  1  0
 27 28  1  0
 28 29  1  0
 29 30  1  0
 22 13  1  0
 30 26  1  0
 21 16  1  0
  1 31  1  0
  1 32  1  0
  1 33  1  0
  2 34  1  0
  3 35  1  0
  3 36  1  0
  3 37  1  0
  4 38  1  0
  4 39  1  0
  5 40  1  1
  6 41  1  0
  9 42  1  0
  9 43  1  0
 10 44  1  0
 14 45  1  0
 15 46  1  0
 17 47  1  0
 18 48  1  0
 19 49  1  0
 20 50  1  0
 25 51  1  0
 26 52  1  0
 27 53  1  0
 27 54  1  0
 28 55  1  0
 28 56  1  0
 29 57  1  0
 29 58  1  0
 30 59  1  0
 30 60  1  0
M  END
>  <smiles>  (1) 
CC(C)C[C@H](NC(=O)CNC(=O)c1ccc2ccccc2n1)C(=O)NC1CCCC1

>  <score_type>  (1) 
oracle

>  <origin>  (1) 
autodockgpu

>  <m_score__min__energy>  (1) 
-9.0600000000000005

>  <m_primary>  (1) 
energy

>  <rmsd>  (1) 
2.728064862414773

>  <m_score__min__rmsd>  (1) 
2.728064862414773

>  <meeko>  (1) 
{"free_energy": -8.46, "intermolecular_energy": -10.85, "internal_energy": -2.67, "cluster_size": 39, "cluster_id": 1, "rank_in_cluster": 31}

>  <energy>  (1) 
-9.06

>  <cluster_rmsd>  (1) 
0.0

>  <cluster>  (1) 
1

$$$$

     RDKit          3D

 60 62  0  0  0  0  0  0  0  0999 V2000
  141.8470   79.3500  219.3720 C   0  0  0  0  0  0  0  0  0  0  0  0
  140.7900   78.3630  219.7770 C   0  0  0  0  0  0  0  0  0  0  0  0
  139.7360   78.3810  218.6610 C   0  0  0  0  0  0  0  0  0  0  0  0
  141.2520   76.9600  219.9080 C   0  0  0  0  0  0  0  0  0  0  0  0
  141.2430   76.3880  221.3020 C   0  0  2  0  0  0  0  0  0  0  0  0
  140.5240   75.1140  221.3410 N   0  0  0  0  0  0  0  0  0  0  0  0
  139.1250   75.0180  221.1560 C   0  0  0  0  0  0  0  0  0  0  0  0
  138.4920   76.0960  220.9440 O   0  0  0  0  0  0  0  0  0  0  0  0
  138.3530   73.7580  221.1900 C   0  0  0  0  0  0  0  0  0  0  0  0
  138.5470   72.9410  222.3420 N   0  0  0  0  0  0  0  0  0  0  0  0
  139.7400   72.1790  222.5540 C   0  0  0  0  0  0  0  0  0  0  0  0
  140.7040   72.1980  221.7160 O   0  0  0  0  0  0  0  0  0  0  0  0
  139.8660   71.3470  223.7710 C   0  0  0  0  0  0  0  0  0  0  0  0
  139.4540   70.0320  223.7340 C   0  0  0  0  0  0  0  0  0  0  0  0
  139.5810   69.2740  224.8800 C   0  0  0  0  0  0  0  0  0  0  0  0
  140.1010   69.7830  226.0520 C   0  0  0  0  0  0  0  0  0  0  0  0
  140.2320   69.0310  227.2060 C   0  0  0  0  0  0  0  0  0  0  0  0
  140.7580   69.5620  228.3720 C   0  0  0  0  0  0  0  0  0  0  0  0
  141.1570   70.9030  228.3480 C   0  0  0  0  0  0  0  0  0  0  0  0
  141.0210   71.6390  227.1890 C   0  0  0  0  0  0  0  0  0  0  0  0
  140.4960   71.1070  226.0280 C   0  0  0  0  0  0  0  0  0  0  0  0
  140.3680   71.8370  224.9050 N   0  0  0  0  0  0  0  0  0  0  0  0
  140.8270   77.3310  222.3470 C   0  0  0  0  0  0  0  0  0  0  0  0
  139.6780   77.3780  222.8600 O   0  0  0  0  0  0  0  0  0  0  0  0
  141.7820   78.2680  222.8250 N   0  0  0  0  0  0  0  0  0  0  0  0
  141.4430   79.2270  223.8540 C   0  0  0  0  0  0  0  0  0  0  0  0
  142.5700   80.2620  223.8330 C   0  0  0  0  0  0  0  0  0  0  0  0
  142.1820   81.2690  222.7960 C   0  0  0  0  0  0  0  0  0  0  0  0
  140.6700   81.2400  222.7630 C   0  0  0  0  0  0  0  0  0  0  0  0
  140.2260   80.0400  223.5570 C   0  0  0  0  0  0  0  0  0  0  0  0
  142.3095   79.7818  220.2718 H   0  0  0  0  0  0  0  0  0  0  0  0
  142.6158   78.8391  218.7738 H   0  0  0  0  0  0  0  0  0  0  0  0
  141.3899   80.1520  218.7738 H   0  0  0  0  0  0  0  0  0  0  0  0
  140.4301   78.6664  220.7712 H   0  0  0  0  0  0  0  0  0  0  0  0
  138.7304   78.3982  219.1066 H   0  0  0  0  0  0  0  0  0  0  0  0
  139.8765   79.2769  218.0384 H   0  0  0  0  0  0  0  0  0  0  0  0
  139.8458   77.4808  218.0384 H   0  0  0  0  0  0  0  0  0  0  0  0
  140.6010   76.3317  219.2824 H   0  0  0  0  0  0  0  0  0  0  0  0
  142.3071   76.9654  219.5970 H   0  0  0  0  0  0  0  0  0  0  0  0
  142.2929   76.1811  221.5567 H   0  0  0  0  0  0  0  0  0  0  0  0
  141.1040   74.2670  221.5050 H   0  0  0  0  0  0  0  0  0  0  0  0
  137.2849   74.0153  221.1350 H   0  0  0  0  0  0  0  0  0  0  0  0
  138.7151   73.1634  220.3384 H   0  0  0  0  0  0  0  0  0  0  0  0
  137.8170   72.8490  223.1100 H   0  0  0  0  0  0  0  0  0  0  0  0
  139.0347   69.5980  222.8143 H   0  0  0  0  0  0  0  0  0  0  0  0
  139.2551   68.2236  224.8582 H   0  0  0  0  0  0  0  0  0  0  0  0
  139.9086   67.9796  227.1971 H   0  0  0  0  0  0  0  0  0  0  0  0
  140.8583   68.9527  229.2823 H   0  0  0  0  0  0  0  0  0  0  0  0
  141.5780   71.3692  229.2510 H   0  0  0  0  0  0  0  0  0  0  0  0
  141.3434   72.6907  227.1899 H   0  0  0  0  0  0  0  0  0  0  0  0
  142.7700   78.3120  222.4620 H   0  0  0  0  0  0  0  0  0  0  0  0
  141.2858   78.6642  224.7859 H   0  0  0  0  0  0  0  0  0  0  0  0
  142.6657   80.7437  224.8173 H   0  0  0  0  0  0  0  0  0  0  0  0
  143.5405   79.7981  223.6027 H   0  0  0  0  0  0  0  0  0  0  0  0
  142.5428   82.2698  223.0758 H   0  0  0  0  0  0  0  0  0  0  0  0
  142.6197   81.0378  221.8137 H   0  0  0  0  0  0  0  0  0  0  0  0
  140.2663   82.1590  223.2129 H   0  0  0  0  0  0  0  0  0  0  0  0
  140.3049   81.1775  221.7272 H   0  0  0  0  0  0  0  0  0  0  0  0
  139.7520   80.3642  224.4952 H   0  0  0  0  0  0  0  0  0  0  0  0
  139.4921   79.4485  222.9900 H   0  0  0  0  0  0  0  0  0  0  0  0
  1  2  1  0
  2  3  1  0
  2  4  1  0
  4  5  1  0
  5  6  1  0
  6  7  1  0
  7  8  2  0
  7  9  1  0
  9 10  1  0
 10 11  1  0
 11 12  2  0
 11 13  1  0
 13 14  2  0
 14 15  1  0
 15 16  2  0
 16 17  1  0
 17 18  2  0
 18 19  1  0
 19 20  2  0
 20 21  1  0
 21 22  2  0
  5 23  1  0
 23 24  2  0
 23 25  1  0
 25 26  1  0
 26 27  1  0
 27 28  1  0
 28 29  1  0
 29 30  1  0
 22 13  1  0
 30 26  1  0
 21 16  1  0
  1 31  1  0
  1 32  1  0
  1 33  1  0
  2 34  1  0
  3 35  1  0
  3 36  1  0
  3 37  1  0
  4 38  1  0
  4 39  1  0
  5 40  1  1
  6 41  1  0
  9 42  1  0
  9 43  1  0
 10 44  1  0
 14 45  1  0
 15 46  1  0
 17 47  1  0
 18 48  1  0
 19 49  1  0
 20 50  1  0
 25 51  1  0
 26 52  1  0
 27 53  1  0
 27 54  1  0
 28 55  1  0
 28 56  1  0
 29 57  1  0
 29 58  1  0
 30 59  1  0
 30 60  1  0
M  END
>  <smiles>  (2) 
CC(C)C[C@H](NC(=O)CNC(=O)c1ccc2ccccc2n1)C(=O)NC1CCCC1

>  <score_type>  (2) 
oracle

>  <origin>  (2) 
autodockgpu

>  <m_score__min__energy>  (2) 
-9.0600000000000005

>  <m_primary>  (2) 
energy

>  <rmsd>  (2) 
2.4441860965251747

>  <m_score__min__rmsd>  (2) 
2.4441860965251747

>  <meeko>  (2) 
{"free_energy": -8.49, "intermolecular_energy": -10.88, "internal_energy": -2.53, "cluster_size": 39, "cluster_id": 1, "rank_in_cluster": 26}

>  <energy>  (2) 
-9.02

>  <cluster_rmsd>  (2) 
0.17

>  <cluster>  (2) 
1

$$$$

     RDKit          3D

 60 62  0  0  0  0  0  0  0  0999 V2000
  136.7020   70.0030  224.2260 C   0  0  0  0  0  0  0  0  0  0  0  0
  137.9140   69.3430  223.6310 C   0  0  0  0  0  0  0  0  0  0  0  0
  137.3910   68.3650  222.5690 C   0  0  0  0  0  0  0  0  0  0  0  0
  138.8580   70.2560  222.9450 C   0  0  0  0  0  0  0  0  0  0  0  0
  139.2190   71.5160  223.6890 C   0  0  2  0  0  0  0  0  0  0  0  0
  139.6130   72.5780  222.7610 N   0  0  0  0  0  0  0  0  0  0  0  0
  140.7730   72.4970  221.9540 C   0  0  0  0  0  0  0  0  0  0  0  0
  141.4790   71.4490  222.0540 O   0  0  0  0  0  0  0  0  0  0  0  0
  141.2150   73.5420  221.0060 C   0  0  0  0  0  0  0  0  0  0  0  0
  141.2630   74.8690  221.5220 N   0  0  0  0  0  0  0  0  0  0  0  0
  140.0840   75.6220  221.8270 C   0  0  0  0  0  0  0  0  0  0  0  0
  138.9160   75.1320  221.6560 O   0  0  0  0  0  0  0  0  0  0  0  0
  140.2130   76.9980  222.3530 C   0  0  0  0  0  0  0  0  0  0  0  0
  139.0760   77.6930  222.7070 C   0  0  0  0  0  0  0  0  0  0  0  0
  139.2190   78.9760  223.1950 C   0  0  0  0  0  0  0  0  0  0  0  0
  140.4500   79.5820  223.3380 C   0  0  0  0  0  0  0  0  0  0  0  0
  140.6040   80.8670  223.8270 C   0  0  0  0  0  0  0  0  0  0  0  0
  141.8500   81.4570  223.9630 C   0  0  0  0  0  0  0  0  0  0  0  0
  142.9660   80.7010  223.5870 C   0  0  0  0  0  0  0  0  0  0  0  0
  142.7960   79.4200  223.1020 C   0  0  0  0  0  0  0  0  0  0  0  0
  141.5530   78.8360  222.9670 C   0  0  0  0  0  0  0  0  0  0  0  0
  141.4020   77.5850  222.4920 N   0  0  0  0  0  0  0  0  0  0  0  0
  140.1610   71.3230  224.7970 C   0  0  0  0  0  0  0  0  0  0  0  0
  140.9110   72.2170  225.2710 O   0  0  0  0  0  0  0  0  0  0  0  0
  140.2450   70.0350  225.3900 N   0  0  0  0  0  0  0  0  0  0  0  0
  141.1500   69.7700  226.4860 C   0  0  0  0  0  0  0  0  0  0  0  0
  140.6650   70.6510  227.6390 C   0  0  0  0  0  0  0  0  0  0  0  0
  139.6100   69.8570  228.3460 C   0  0  0  0  0  0  0  0  0  0  0  0
  139.9770   68.4100  228.1040 C   0  0  0  0  0  0  0  0  0  0  0  0
  141.0490   68.3890  227.0460 C   0  0  0  0  0  0  0  0  0  0  0  0
  136.7669   69.9677  225.3235 H   0  0  0  0  0  0  0  0  0  0  0  0
  136.6555   71.0510  223.8950 H   0  0  0  0  0  0  0  0  0  0  0  0
  135.7965   69.4734  223.8950 H   0  0  0  0  0  0  0  0  0  0  0  0
  138.4719   68.8852  224.4611 H   0  0  0  0  0  0  0  0  0  0  0  0
  136.9279   67.4990  223.0645 H   0  0  0  0  0  0  0  0  0  0  0  0
  136.6432   68.8712  221.9409 H   0  0  0  0  0  0  0  0  0  0  0  0
  138.2273   68.0242  221.9409 H   0  0  0  0  0  0  0  0  0  0  0  0
  139.7875   69.6989  222.7563 H   0  0  0  0  0  0  0  0  0  0  0  0
  138.3389   70.5886  222.0340 H   0  0  0  0  0  0  0  0  0  0  0  0
  138.3014   71.8471  224.1974 H   0  0  0  0  0  0  0  0  0  0  0  0
  138.9830   73.4030  222.7170 H   0  0  0  0  0  0  0  0  0  0  0  0
  142.2253   73.2780  220.6601 H   0  0  0  0  0  0  0  0  0  0  0  0
  140.4583   73.5597  220.2079 H   0  0  0  0  0  0  0  0  0  0  0  0
  142.1770   75.3800  221.7110 H   0  0  0  0  0  0  0  0  0  0  0  0
  138.0806   77.2366  222.6031 H   0  0  0  0  0  0  0  0  0  0  0  0
  138.3169   79.5368  223.4809 H   0  0  0  0  0  0  0  0  0  0  0  0
  139.7095   81.4378  224.1167 H   0  0  0  0  0  0  0  0  0  0  0  0
  141.9580   82.4804  224.3516 H   0  0  0  0  0  0  0  0  0  0  0  0
  143.9763   81.1266  223.6778 H   0  0  0  0  0  0  0  0  0  0  0  0
  143.6859   78.8422  222.8118 H   0  0  0  0  0  0  0  0  0  0  0  0
  139.6610   69.2180  225.0680 H   0  0  0  0  0  0  0  0  0  0  0  0
  142.1708   69.9371  226.1117 H   0  0  0  0  0  0  0  0  0  0  0  0
  141.4960   70.8778  228.3231 H   0  0  0  0  0  0  0  0  0  0  0  0
  140.2719   71.6119  227.2756 H   0  0  0  0  0  0  0  0  0  0  0  0
  139.6144   70.0816  229.4228 H   0  0  0  0  0  0  0  0  0  0  0  0
  138.6007   70.0932  227.9779 H   0  0  0  0  0  0  0  0  0  0  0  0
  140.3559   67.9577  229.0324 H   0  0  0  0  0  0  0  0  0  0  0  0
  139.0976   67.8352  227.7779 H   0  0  0  0  0  0  0  0  0  0  0  0
  142.0104   68.0922  227.4905 H   0  0  0  0  0  0  0  0  0  0  0  0
  140.8004   67.6661  226.2551 H   0  0  0  0  0  0  0  0  0  0  0  0
  1  2  1  0
  2  3  1  0
  2  4  1  0
  4  5  1  0
  5  6  1  0
  6  7  1  0
  7  8  2  0
  7  9  1  0
  9 10  1  0
 10 11  1  0
 11 12  2  0
 11 13  1  0
 13 14  2  0
 14 15  1  0
 15 16  2  0
 16 17  1  0
 17 18  2  0
 18 19  1  0
 19 20  2  0
 20 21  1  0
 21 22  2  0
  5 23  1  0
 23 24  2  0
 23 25  1  0
 25 26  1  0
 26 27  1  0
 27 28  1  0
 28 29  1  0
 29 30  1  0
 22 13  1  0
 30 26  1  0
 21 16  1  0
  1 31  1  0
  1 32  1  0
  1 33  1  0
  2 34  1  0
  3 35  1  0
  3 36  1  0
  3 37  1  0
  4 38  1  0
  4 39  1  0
  5 40  1  1
  6 41  1  0
  9 42  1  0
  9 43  1  0
 10 44  1  0
 14 45  1  0
 15 46  1  0
 17 47  1  0
 18 48  1  0
 19 49  1  0
 20 50  1  0
 25 51  1  0
 26 52  1  0
 27 53  1  0
 27 54  1  0
 28 55  1  0
 28 56  1  0
 29 57  1  0
 29 58  1  0
 30 59  1  0
 30 60  1  0
M  END
>  <smiles>  (3) 
CC(C)C[C@H](NC(=O)CNC(=O)c1ccc2ccccc2n1)C(=O)NC1CCCC1

>  <score_type>  (3) 
oracle

>  <origin>  (3) 
autodockgpu

>  <m_score__min__energy>  (3) 
-9.0600000000000005

>  <m_primary>  (3) 
energy

>  <rmsd>  (3) 
9.630510659397288

>  <m_score__min__rmsd>  (3) 
9.630510659397288

>  <meeko>  (3) 
{"free_energy": -8.7, "intermolecular_energy": -11.09, "internal_energy": -2.7, "cluster_size": 10, "cluster_id": 2, "rank_in_cluster": 1}

>  <energy>  (3) 
-8.85

>  <cluster_rmsd>  (3) 
1.58

>  <cluster>  (3) 
1

$$$$

     RDKit          3D

 60 62  0  0  0  0  0  0  0  0999 V2000
  142.6410   78.5020  217.9020 C   0  0  0  0  0  0  0  0  0  0  0  0
  142.2000   78.3230  219.3270 C   0  0  0  0  0  0  0  0  0  0  0  0
  141.4830   79.6230  219.7210 C   0  0  0  0  0  0  0  0  0  0  0  0
  141.2410   77.2170  219.5580 C   0  0  0  0  0  0  0  0  0  0  0  0
  141.4410   76.4200  220.8200 C   0  0  2  0  0  0  0  0  0  0  0  0
  140.8980   75.0670  220.6780 N   0  0  0  0  0  0  0  0  0  0  0  0
  141.6880   73.9620  220.2840 C   0  0  0  0  0  0  0  0  0  0  0  0
  142.9160   74.1780  220.0550 O   0  0  0  0  0  0  0  0  0  0  0  0
  141.1860   72.5810  220.1220 C   0  0  0  0  0  0  0  0  0  0  0  0
  141.0420   71.8270  221.3230 N   0  0  0  0  0  0  0  0  0  0  0  0
  140.3190   72.3140  222.4580 C   0  0  0  0  0  0  0  0  0  0  0  0
  139.7540   73.4610  222.4480 O   0  0  0  0  0  0  0  0  0  0  0  0
  140.2190   71.4770  223.6730 C   0  0  0  0  0  0  0  0  0  0  0  0
  139.6200   70.2380  223.5900 C   0  0  0  0  0  0  0  0  0  0  0  0
  139.5380   69.4740  224.7370 C   0  0  0  0  0  0  0  0  0  0  0  0
  140.0290   69.9040  225.9520 C   0  0  0  0  0  0  0  0  0  0  0  0
  139.9520   69.1450  227.1060 C   0  0  0  0  0  0  0  0  0  0  0  0
  140.4520   69.5960  228.3160 C   0  0  0  0  0  0  0  0  0  0  0  0
  141.0470   70.8620  228.3360 C   0  0  0  0  0  0  0  0  0  0  0  0
  141.1180   71.6070  227.1770 C   0  0  0  0  0  0  0  0  0  0  0  0
  140.6180   71.1540  225.9720 C   0  0  0  0  0  0  0  0  0  0  0  0
  140.6930   71.8910  224.8480 N   0  0  0  0  0  0  0  0  0  0  0  0
  141.0120   77.1000  222.0470 C   0  0  0  0  0  0  0  0  0  0  0  0
  139.9780   76.8150  222.7060 O   0  0  0  0  0  0  0  0  0  0  0  0
  141.8150   78.1620  222.5420 N   0  0  0  0  0  0  0  0  0  0  0  0
  141.4550   78.8780  223.7460 C   0  0  0  0  0  0  0  0  0  0  0  0
  142.4650   80.0220  223.8580 C   0  0  0  0  0  0  0  0  0  0  0  0
  141.9020   81.1470  223.0460 C   0  0  0  0  0  0  0  0  0  0  0  0
  140.4030   80.9520  223.0870 C   0  0  0  0  0  0  0  0  0  0  0  0
  140.1430   79.5880  223.6690 C   0  0  0  0  0  0  0  0  0  0  0  0
  143.6601   78.9156  217.8828 H   0  0  0  0  0  0  0  0  0  0  0  0
  142.6307   77.5285  217.3899 H   0  0  0  0  0  0  0  0  0  0  0  0
  141.9551   79.1929  217.3899 H   0  0  0  0  0  0  0  0  0  0  0  0
  143.0986   78.0829  219.9142 H   0  0  0  0  0  0  0  0  0  0  0  0
  141.4403   79.7004  220.8174 H   0  0  0  0  0  0  0  0  0  0  0  0
  142.0341   80.4836  219.3138 H   0  0  0  0  0  0  0  0  0  0  0  0
  140.4611   79.6160  219.3138 H   0  0  0  0  0  0  0  0  0  0  0  0
  140.2302   77.6498  219.5903 H   0  0  0  0  0  0  0  0  0  0  0  0
  141.4023   76.5085  218.7322 H   0  0  0  0  0  0  0  0  0  0  0  0
  142.5286   76.3256  220.9547 H   0  0  0  0  0  0  0  0  0  0  0  0
  139.8870   74.9570  220.8930 H   0  0  0  0  0  0  0  0  0  0  0  0
  140.1999   72.6353  219.6376 H   0  0  0  0  0  0  0  0  0  0  0  0
  141.9482   72.0544  219.5290 H   0  0  0  0  0  0  0  0  0  0  0  0
  141.4640   70.8580  221.4460 H   0  0  0  0  0  0  0  0  0  0  0  0
  139.2181   69.8680  222.6352 H   0  0  0  0  0  0  0  0  0  0  0  0
  139.0625   68.4837  224.6796 H   0  0  0  0  0  0  0  0  0  0  0  0
  139.4791   68.1529  227.0610 H   0  0  0  0  0  0  0  0  0  0  0  0
  140.3840   68.9824  229.2264 H   0  0  0  0  0  0  0  0  0  0  0  0
  141.4576   71.2628  229.2745 H   0  0  0  0  0  0  0  0  0  0  0  0
  141.5908   72.5995  227.2141 H   0  0  0  0  0  0  0  0  0  0  0  0
  142.7000   78.4790  222.0650 H   0  0  0  0  0  0  0  0  0  0  0  0
  141.4241   78.1434  224.5642 H   0  0  0  0  0  0  0  0  0  0  0  0
  142.5810   80.3286  224.9080 H   0  0  0  0  0  0  0  0  0  0  0  0
  143.4589   79.7203  223.4959 H   0  0  0  0  0  0  0  0  0  0  0  0
  142.1773   82.1166  223.4866 H   0  0  0  0  0  0  0  0  0  0  0  0
  142.2894   81.1458  222.0165 H   0  0  0  0  0  0  0  0  0  0  0  0
  139.9403   81.7248  223.7184 H   0  0  0  0  0  0  0  0  0  0  0  0
  139.9728   81.0325  222.0778 H   0  0  0  0  0  0  0  0  0  0  0  0
  139.7083   79.6850  224.6748 H   0  0  0  0  0  0  0  0  0  0  0  0
  139.4339   79.0270  223.0426 H   0  0  0  0  0  0  0  0  0  0  0  0
  1  2  1  0
  2  3  1  0
  2  4  1  0
  4  5  1  0
  5  6  1  0
  6  7  1  0
  7  8  2  0
  7  9  1  0
  9 10  1  0
 10 11  1  0
 11 12  2  0
 11 13  1  0
 13 14  2  0
 14 15  1  0
 15 16  2  0
 16 17  1  0
 17 18  2  0
 18 19  1  0
 19 20  2  0
 20 21  1  0
 21 22  2  0
  5 23  1  0
 23 24  2  0
 23 25  1  0
 25 26  1  0
 26 27  1  0
 27 28  1  0
 28 29  1  0
 29 30  1  0
 22 13  1  0
 30 26  1  0
 21 16  1  0
  1 31  1  0
  1 32  1  0
  1 33  1  0
  2 34  1  0
  3 35  1  0
  3 36  1  0
  3 37  1  0
  4 38  1  0
  4 39  1  0
  5 40  1  1
  6 41  1  0
  9 42  1  0
  9 43  1  0
 10 44  1  0
 14 45  1  0
 15 46  1  0
 17 47  1  0
 18 48  1  0
 19 49  1  0
 20 50  1  0
 25 51  1  0
 26 52  1  0
 27 53  1  0
 27 54  1  0
 28 55  1  0
 28 56  1  0
 29 57  1  0
 29 58  1  0
 30 59  1  0
 30 60  1  0
M  END
>  <smiles>  (4) 
CC(C)C[C@H](NC(=O)CNC(=O)c1ccc2ccccc2n1)C(=O)NC1CCCC1

>  <score_type>  (4) 
oracle

>  <origin>  (4) 
autodockgpu

>  <m_score__min__energy>  (4) 
-9.0600000000000005

>  <m_primary>  (4) 
energy

>  <rmsd>  (4) 
2.7660169718579932

>  <m_score__min__rmsd>  (4) 
2.7660169718579932

>  <meeko>  (4) 
{"free_energy": -8.78, "intermolecular_energy": -11.17, "internal_energy": -2.61, "cluster_size": 39, "cluster_id": 1, "rank_in_cluster": 6}

>  <energy>  (4) 
-8.83

>  <cluster_rmsd>  (4) 
1.56

>  <cluster>  (4) 
1

$$$$

     RDKit          3D

 60 62  0  0  0  0  0  0  0  0999 V2000
  141.4570   79.1700  223.7310 C   0  0  0  0  0  0  0  0  0  0  0  0
  140.8440   78.3670  222.6190 C   0  0  0  0  0  0  0  0  0  0  0  0
  141.5290   78.8330  221.3260 C   0  0  0  0  0  0  0  0  0  0  0  0
  141.0500   76.9020  222.7090 C   0  0  0  0  0  0  0  0  0  0  0  0
  140.5060   76.0850  221.5670 C   0  0  2  0  0  0  0  0  0  0  0  0
  139.5150   75.1160  222.0400 N   0  0  0  0  0  0  0  0  0  0  0  0
  138.6140   74.4560  221.1720 C   0  0  0  0  0  0  0  0  0  0  0  0
  138.6920   74.7300  219.9360 O   0  0  0  0  0  0  0  0  0  0  0  0
  137.5960   73.4740  221.6010 C   0  0  0  0  0  0  0  0  0  0  0  0
  137.9600   72.6380  222.6960 N   0  0  0  0  0  0  0  0  0  0  0  0
  139.1630   71.8630  222.7080 C   0  0  0  0  0  0  0  0  0  0  0  0
  139.9830   71.8880  221.7290 O   0  0  0  0  0  0  0  0  0  0  0  0
  139.4700   71.0120  223.8780 C   0  0  0  0  0  0  0  0  0  0  0  0
  139.2160   69.6580  223.8120 C   0  0  0  0  0  0  0  0  0  0  0  0
  139.5100   68.8830  224.9150 C   0  0  0  0  0  0  0  0  0  0  0  0
  140.0450   69.4120  226.0710 C   0  0  0  0  0  0  0  0  0  0  0  0
  140.3440   68.6420  227.1820 C   0  0  0  0  0  0  0  0  0  0  0  0
  140.8800   69.1930  228.3340 C   0  0  0  0  0  0  0  0  0  0  0  0
  141.1150   70.5720  228.3400 C   0  0  0  0  0  0  0  0  0  0  0  0
  140.8130   71.3260  227.2240 C   0  0  0  0  0  0  0  0  0  0  0  0
  140.2780   70.7730  226.0790 C   0  0  0  0  0  0  0  0  0  0  0  0
  139.9870   71.5210  224.9970 N   0  0  0  0  0  0  0  0  0  0  0  0
  141.5290   75.5010  220.6910 C   0  0  0  0  0  0  0  0  0  0  0  0
  142.5740   76.0910  220.3100 O   0  0  0  0  0  0  0  0  0  0  0  0
  141.3400   74.1710  220.2310 N   0  0  0  0  0  0  0  0  0  0  0  0
  142.3050   73.5300  219.3670 C   0  0  0  0  0  0  0  0  0  0  0  0
  143.5090   73.2190  220.2590 C   0  0  0  0  0  0  0  0  0  0  0  0
  143.2220   71.8910  220.8880 C   0  0  0  0  0  0  0  0  0  0  0  0
  142.3280   71.1720  219.9010 C   0  0  0  0  0  0  0  0  0  0  0  0
  141.8890   72.1830  218.8740 C   0  0  0  0  0  0  0  0  0  0  0  0
  141.1408   78.7558  224.6998 H   0  0  0  0  0  0  0  0  0  0  0  0
  142.5534   79.1261  223.6537 H   0  0  0  0  0  0  0  0  0  0  0  0
  141.1256   80.2160  223.6537 H   0  0  0  0  0  0  0  0  0  0  0  0
  139.7573   78.5317  222.6640 H   0  0  0  0  0  0  0  0  0  0  0  0
  142.4146   79.4354  221.5768 H   0  0  0  0  0  0  0  0  0  0  0  0
  141.8368   77.9561  220.7375 H   0  0  0  0  0  0  0  0  0  0  0  0
  140.8264   79.4413  220.7375 H   0  0  0  0  0  0  0  0  0  0  0  0
  142.1329   76.7179  222.7680 H   0  0  0  0  0  0  0  0  0  0  0  0
  140.4880   76.5787  223.5976 H   0  0  0  0  0  0  0  0  0  0  0  0
  139.9846   76.7916  220.9046 H   0  0  0  0  0  0  0  0  0  0  0  0
  139.5140   74.9270  223.0620 H   0  0  0  0  0  0  0  0  0  0  0  0
  136.6912   74.0300  221.8877 H   0  0  0  0  0  0  0  0  0  0  0  0
  137.4550   72.7982  220.7446 H   0  0  0  0  0  0  0  0  0  0  0  0
  137.3590   72.5410  223.5690 H   0  0  0  0  0  0  0  0  0  0  0  0
  138.7900   69.2076  222.9034 H   0  0  0  0  0  0  0  0  0  0  0  0
  139.3101   67.8022  224.8708 H   0  0  0  0  0  0  0  0  0  0  0  0
  140.1499   67.5598  227.1488 H   0  0  0  0  0  0  0  0  0  0  0  0
  141.1120   68.5702  229.2106 H   0  0  0  0  0  0  0  0  0  0  0  0
  141.5397   71.0546  229.2326 H   0  0  0  0  0  0  0  0  0  0  0  0
  141.0062   72.4086  227.2485 H   0  0  0  0  0  0  0  0  0  0  0  0
  140.4980   73.5900  220.4920 H   0  0  0  0  0  0  0  0  0  0  0  0
  142.4661   74.1981  218.5081 H   0  0  0  0  0  0  0  0  0  0  0  0
  144.4279   73.1664  219.6567 H   0  0  0  0  0  0  0  0  0  0  0  0
  143.6618   74.0005  221.0178 H   0  0  0  0  0  0  0  0  0  0  0  0
  144.1542   71.3287  221.0453 H   0  0  0  0  0  0  0  0  0  0  0  0
  142.7461   71.9964  221.8741 H   0  0  0  0  0  0  0  0  0  0  0  0
  142.8841   70.3576  219.4136 H   0  0  0  0  0  0  0  0  0  0  0  0
  141.4581   70.7334  220.4118 H   0  0  0  0  0  0  0  0  0  0  0  0
  142.3705   71.9710  217.9080 H   0  0  0  0  0  0  0  0  0  0  0  0
  140.7993   72.1418  218.7295 H   0  0  0  0  0  0  0  0  0  0  0  0
  1  2  1  0
  2  3  1  0
  2  4  1  0
  4  5  1  0
  5  6  1  0
  6  7  1  0
  7  8  2  0
  7  9  1  0
  9 10  1  0
 10 11  1  0
 11 12  2  0
 11 13  1  0
 13 14  2  0
 14 15  1  0
 15 16  2  0
 16 17  1  0
 17 18  2  0
 18 19  1  0
 19 20  2  0
 20 21  1  0
 21 22  2  0
  5 23  1  0
 23 24  2  0
 23 25  1  0
 25 26  1  0
 26 27  1  0
 27 28  1  0
 28 29  1  0
 29 30  1  0
 22 13  1  0
 30 26  1  0
 21 16  1  0
  1 31  1  0
  1 32  1  0
  1 33  1  0
  2 34  1  0
  3 35  1  0
  3 36  1  0
  3 37  1  0
  4 38  1  0
  4 39  1  0
  5 40  1  6
  6 41  1  0
  9 42  1  0
  9 43  1  0
 10 44  1  0
 14 45  1  0
 15 46  1  0
 17 47  1  0
 18 48  1  0
 19 49  1  0
 20 50  1  0
 25 51  1  0
 26 52  1  0
 27 53  1  0
 27 54  1  0
 28 55  1  0
 28 56  1  0
 29 57  1  0
 29 58  1  0
 30 59  1  0
 30 60  1  0
M  END
>  <smiles>  (5) 
CC(C)C[C@H](NC(=O)CNC(=O)c1ccc2ccccc2n1)C(=O)NC1CCCC1

>  <score_type>  (5) 
oracle

>  <origin>  (5) 
autodockgpu

>  <m_score__min__energy>  (5) 
-9.0600000000000005

>  <m_primary>  (5) 
energy

>  <rmsd>  (5) 
5.220914338416652

>  <m_score__min__rmsd>  (5) 
5.220914338416652

>  <meeko>  (5) 
{"free_energy": -7.34, "intermolecular_energy": -9.73, "internal_energy": -3.38, "cluster_size": 39, "cluster_id": 1, "rank_in_cluster": 39}

>  <energy>  (5) 
-8.79

>  <cluster_rmsd>  (5) 
0.49

>  <cluster>  (5) 
1

$$$$

     RDKit          3D

 60 62  0  0  0  0  0  0  0  0999 V2000
  136.5440   69.2620  223.8620 C   0  0  0  0  0  0  0  0  0  0  0  0
  138.0200   69.2400  223.5820 C   0  0  0  0  0  0  0  0  0  0  0  0
  138.2800   67.9770  222.7490 C   0  0  0  0  0  0  0  0  0  0  0  0
  138.5310   70.3860  222.7930 C   0  0  0  0  0  0  0  0  0  0  0  0
  138.9850   71.5850  223.5840 C   0  0  2  0  0  0  0  0  0  0  0  0
  139.4690   72.6460  222.6980 N   0  0  0  0  0  0  0  0  0  0  0  0
  140.6160   72.4990  221.8830 C   0  0  0  0  0  0  0  0  0  0  0  0
  141.2300   71.3910  221.9390 O   0  0  0  0  0  0  0  0  0  0  0  0
  141.1450   73.5400  220.9770 C   0  0  0  0  0  0  0  0  0  0  0  0
  141.2010   74.8600  221.5110 N   0  0  0  0  0  0  0  0  0  0  0  0
  140.0280   75.6410  221.7600 C   0  0  0  0  0  0  0  0  0  0  0  0
  138.8580   75.1860  221.5190 O   0  0  0  0  0  0  0  0  0  0  0  0
  140.1650   77.0080  222.3080 C   0  0  0  0  0  0  0  0  0  0  0  0
  139.0320   77.7030  222.6760 C   0  0  0  0  0  0  0  0  0  0  0  0
  139.1830   78.9770  223.1850 C   0  0  0  0  0  0  0  0  0  0  0  0
  140.4180   79.5730  223.3370 C   0  0  0  0  0  0  0  0  0  0  0  0
  140.5790   80.8490  223.8470 C   0  0  0  0  0  0  0  0  0  0  0  0
  141.8280   81.4300  223.9910 C   0  0  0  0  0  0  0  0  0  0  0  0
  142.9390   80.6750  223.5990 C   0  0  0  0  0  0  0  0  0  0  0  0
  142.7620   79.4030  223.0930 C   0  0  0  0  0  0  0  0  0  0  0  0
  141.5150   78.8280  222.9510 C   0  0  0  0  0  0  0  0  0  0  0  0
  141.3570   77.5860  222.4550 N   0  0  0  0  0  0  0  0  0  0  0  0
  139.9020   71.2760  224.6870 C   0  0  0  0  0  0  0  0  0  0  0  0
  141.0790   71.7140  224.7920 O   0  0  0  0  0  0  0  0  0  0  0  0
  139.4430   70.4200  225.7230 N   0  0  0  0  0  0  0  0  0  0  0  0
  140.2900   70.0720  226.8420 C   0  0  0  0  0  0  0  0  0  0  0  0
  139.4290   69.1910  227.7490 C   0  0  0  0  0  0  0  0  0  0  0  0
  139.5790   67.7950  227.2280 C   0  0  0  0  0  0  0  0  0  0  0  0
  140.9470   67.7600  226.5830 C   0  0  0  0  0  0  0  0  0  0  0  0
  141.4370   69.1820  226.4890 C   0  0  0  0  0  0  0  0  0  0  0  0
  136.3771   69.2645  224.9493 H   0  0  0  0  0  0  0  0  0  0  0  0
  136.1006   70.1669  223.4209 H   0  0  0  0  0  0  0  0  0  0  0  0
  136.0738   68.3708  223.4209 H   0  0  0  0  0  0  0  0  0  0  0  0
  138.5325   69.2782  224.5546 H   0  0  0  0  0  0  0  0  0  0  0  0
  138.4556   67.1241  223.4212 H   0  0  0  0  0  0  0  0  0  0  0  0
  137.4057   67.7698  222.1145 H   0  0  0  0  0  0  0  0  0  0  0  0
  139.1651   68.1320  222.1145 H   0  0  0  0  0  0  0  0  0  0  0  0
  139.3867   70.0309  222.2000 H   0  0  0  0  0  0  0  0  0  0  0  0
  137.6785   70.7343  222.1914 H   0  0  0  0  0  0  0  0  0  0  0  0
  138.0929   71.9697  224.1000 H   0  0  0  0  0  0  0  0  0  0  0  0
  138.9110   73.5230  222.6900 H   0  0  0  0  0  0  0  0  0  0  0  0
  142.1661   73.2492  220.6893 H   0  0  0  0  0  0  0  0  0  0  0  0
  140.4384   73.5891  220.1354 H   0  0  0  0  0  0  0  0  0  0  0  0
  142.1170   75.3420  221.7550 H   0  0  0  0  0  0  0  0  0  0  0  0
  138.0339   77.2536  222.5667 H   0  0  0  0  0  0  0  0  0  0  0  0
  138.2845   79.5385  223.4807 H   0  0  0  0  0  0  0  0  0  0  0  0
  139.6877   81.4195  224.1473 H   0  0  0  0  0  0  0  0  0  0  0  0
  141.9422   82.4456  224.3978 H   0  0  0  0  0  0  0  0  0  0  0  0
  143.9515   81.0943  223.6939 H   0  0  0  0  0  0  0  0  0  0  0  0
  143.6483   78.8255  222.7914 H   0  0  0  0  0  0  0  0  0  0  0  0
  138.4750   70.0010  225.7310 H   0  0  0  0  0  0  0  0  0  0  0  0
  140.6748   71.0124  227.2635 H   0  0  0  0  0  0  0  0  0  0  0  0
  139.7828   69.2514  228.7888 H   0  0  0  0  0  0  0  0  0  0  0  0
  138.3772   69.5129  227.7442 H   0  0  0  0  0  0  0  0  0  0  0  0
  139.5213   67.0674  228.0509 H   0  0  0  0  0  0  0  0  0  0  0  0
  138.7814   67.5323  226.5174 H   0  0  0  0  0  0  0  0  0  0  0  0
  141.6376   67.1642  227.1979 H   0  0  0  0  0  0  0  0  0  0  0  0
  140.8944   67.3004  225.5850 H   0  0  0  0  0  0  0  0  0  0  0  0
  142.2673   69.3412  227.1927 H   0  0  0  0  0  0  0  0  0  0  0  0
  141.8023   69.4016  225.4749 H   0  0  0  0  0  0  0  0  0  0  0  0
  1  2  1  0
  2  3  1  0
  2  4  1  0
  4  5  1  0
  5  6  1  0
  6  7  1  0
  7  8  2  0
  7  9  1  0
  9 10  1  0
 10 11  1  0
 11 12  2  0
 11 13  1  0
 13 14  2  0
 14 15  1  0
 15 16  2  0
 16 17  1  0
 17 18  2  0
 18 19  1  0
 19 20  2  0
 20 21  1  0
 21 22  2  0
  5 23  1  0
 23 24  2  0
 23 25  1  0
 25 26  1  0
 26 27  1  0
 27 28  1  0
 28 29  1  0
 29 30  1  0
 22 13  1  0
 30 26  1  0
 21 16  1  0
  1 31  1  0
  1 32  1  0
  1 33  1  0
  2 34  1  0
  3 35  1  0
  3 36  1  0
  3 37  1  0
  4 38  1  0
  4 39  1  0
  5 40  1  1
  6 41  1  0
  9 42  1  0
  9 43  1  0
 10 44  1  0
 14 45  1  0
 15 46  1  0
 17 47  1  0
 18 48  1  0
 19 49  1  0
 20 50  1  0
 25 51  1  0
 26 52  1  0
 27 53  1  0
 27 54  1  0
 28 55  1  0
 28 56  1  0
 29 57  1  0
 29 58  1  0
 30 59  1  0
 30 60  1  0
M  END
>  <smiles>  (6) 
CC(C)C[C@H](NC(=O)CNC(=O)c1ccc2ccccc2n1)C(=O)NC1CCCC1

>  <score_type>  (6) 
oracle

>  <origin>  (6) 
autodockgpu

>  <m_score__min__energy>  (6) 
-9.0600000000000005

>  <m_primary>  (6) 
energy

>  <rmsd>  (6) 
9.621015571328408

>  <m_score__min__rmsd>  (6) 
9.621015571328408

>  <meeko>  (6) 
{"free_energy": -8.35, "intermolecular_energy": -10.73, "internal_energy": -2.75, "cluster_size": 10, "cluster_id": 2, "rank_in_cluster": 5}

>  <energy>  (6) 
-8.78

>  <cluster_rmsd>  (6) 
1.59

>  <cluster>  (6) 
1

$$$$

     RDKit          3D

 60 62  0  0  0  0  0  0  0  0999 V2000
  141.0240   70.4390  227.4600 C   0  0  0  0  0  0  0  0  0  0  0  0
  140.7900   70.3760  225.9780 C   0  0  0  0  0  0  0  0  0  0  0  0
  139.9770   69.0980  225.7250 C   0  0  0  0  0  0  0  0  0  0  0  0
  140.0070   71.5010  225.4130 C   0  0  0  0  0  0  0  0  0  0  0  0
  139.5440   71.3360  223.9890 C   0  0  2  0  0  0  0  0  0  0  0  0
  140.0910   72.3930  223.1350 N   0  0  0  0  0  0  0  0  0  0  0  0
  140.7710   72.1240  221.9240 C   0  0  0  0  0  0  0  0  0  0  0  0
  140.8950   70.9080  221.5860 O   0  0  0  0  0  0  0  0  0  0  0  0
  141.3430   73.1530  221.0310 C   0  0  0  0  0  0  0  0  0  0  0  0
  141.2510   74.4980  221.4930 N   0  0  0  0  0  0  0  0  0  0  0  0
  140.0130   75.0930  221.8950 C   0  0  0  0  0  0  0  0  0  0  0  0
  138.9160   74.4370  221.8660 O   0  0  0  0  0  0  0  0  0  0  0  0
  139.9940   76.4980  222.3570 C   0  0  0  0  0  0  0  0  0  0  0  0
  138.7850   77.0990  222.6370 C   0  0  0  0  0  0  0  0  0  0  0  0
  138.7920   78.4110  223.0670 C   0  0  0  0  0  0  0  0  0  0  0  0
  139.9560   79.1340  223.2220 C   0  0  0  0  0  0  0  0  0  0  0  0
  139.9720   80.4500  223.6520 C   0  0  0  0  0  0  0  0  0  0  0  0
  141.1520   81.1590  223.8010 C   0  0  0  0  0  0  0  0  0  0  0  0
  142.3460   80.4940  223.5000 C   0  0  0  0  0  0  0  0  0  0  0  0
  142.3140   79.1820  223.0740 C   0  0  0  0  0  0  0  0  0  0  0  0
  141.1350   78.4790  222.9250 C   0  0  0  0  0  0  0  0  0  0  0  0
  141.1180   77.1990  222.5080 N   0  0  0  0  0  0  0  0  0  0  0  0
  138.0980   71.1450  223.8350 C   0  0  0  0  0  0  0  0  0  0  0  0
  137.4790   70.0810  224.1020 O   0  0  0  0  0  0  0  0  0  0  0  0
  137.3240   72.2320  223.3490 N   0  0  0  0  0  0  0  0  0  0  0  0
  135.8930   72.1160  223.1730 C   0  0  0  0  0  0  0  0  0  0  0  0
  135.2850   72.4470  224.5370 C   0  0  0  0  0  0  0  0  0  0  0  0
  135.1390   73.9370  224.5710 C   0  0  0  0  0  0  0  0  0  0  0  0
  134.9700   74.3500  223.1260 C   0  0  0  0  0  0  0  0  0  0  0  0
  135.3000   73.1520  222.2740 C   0  0  0  0  0  0  0  0  0  0  0  0
  140.0928   70.1883  227.9892 H   0  0  0  0  0  0  0  0  0  0  0  0
  141.8088   69.7202  227.7382 H   0  0  0  0  0  0  0  0  0  0  0  0
  141.3418   71.4547  227.7382 H   0  0  0  0  0  0  0  0  0  0  0  0
  141.7776   70.4104  225.4949 H   0  0  0  0  0  0  0  0  0  0  0  0
  139.6912   68.6487  226.6875 H   0  0  0  0  0  0  0  0  0  0  0  0
  139.0709   69.3470  225.1531 H   0  0  0  0  0  0  0  0  0  0  0  0
  140.5865   68.3829  225.1531 H   0  0  0  0  0  0  0  0  0  0  0  0
  139.1156   71.6398  226.0424 H   0  0  0  0  0  0  0  0  0  0  0  0
  140.6912   72.3623  225.4037 H   0  0  0  0  0  0  0  0  0  0  0  0
  139.9602   70.3801  223.6381 H   0  0  0  0  0  0  0  0  0  0  0  0
  139.9420   73.3680  223.4640 H   0  0  0  0  0  0  0  0  0  0  0  0
  142.4078   72.9187  220.8852 H   0  0  0  0  0  0  0  0  0  0  0  0
  140.7447   73.1131  220.1088 H   0  0  0  0  0  0  0  0  0  0  0  0
  142.0970   75.1400  221.5660 H   0  0  0  0  0  0  0  0  0  0  0  0
  137.8401   76.5479  222.5209 H   0  0  0  0  0  0  0  0  0  0  0  0
  137.8324   78.8982  223.2947 H   0  0  0  0  0  0  0  0  0  0  0  0
  139.0183   80.9474  223.8822 H   0  0  0  0  0  0  0  0  0  0  0  0
  141.1509   82.2046  224.1428 H   0  0  0  0  0  0  0  0  0  0  0  0
  143.3085   81.0164  223.6029 H   0  0  0  0  0  0  0  0  0  0  0  0
  143.2638   78.6769  222.8444 H   0  0  0  0  0  0  0  0  0  0  0  0
  137.7450   73.1650  223.0960 H   0  0  0  0  0  0  0  0  0  0  0  0
  135.6961   71.1168  222.7573 H   0  0  0  0  0  0  0  0  0  0  0  0
  134.3028   71.9638  224.6454 H   0  0  0  0  0  0  0  0  0  0  0  0
  135.9184   72.0845  225.3600 H   0  0  0  0  0  0  0  0  0  0  0  0
  134.2562   74.2251  225.1606 H   0  0  0  0  0  0  0  0  0  0  0  0
  136.0059   74.4252  225.0402 H   0  0  0  0  0  0  0  0  0  0  0  0
  133.9323   74.6664  222.9442 H   0  0  0  0  0  0  0  0  0  0  0  0
  135.6323   75.1940  222.8830 H   0  0  0  0  0  0  0  0  0  0  0  0
  134.3858   72.7623  221.8025 H   0  0  0  0  0  0  0  0  0  0  0  0
  136.0061   73.4248  221.4759 H   0  0  0  0  0  0  0  0  0  0  0  0
  1  2  1  0
  2  3  1  0
  2  4  1  0
  4  5  1  0
  5  6  1  0
  6  7  1  0
  7  8  2  0
  7  9  1  0
  9 10  1  0
 10 11  1  0
 11 12  2  0
 11 13  1  0
 13 14  2  0
 14 15  1  0
 15 16  2  0
 16 17  1  0
 17 18  2  0
 18 19  1  0
 19 20  2  0
 20 21  1  0
 21 22  2  0
  5 23  1  0
 23 24  2  0
 23 25  1  0
 25 26  1  0
 26 27  1  0
 27 28  1  0
 28 29  1  0
 29 30  1  0
 22 13  1  0
 30 26  1  0
 21 16  1  0
  1 31  1  0
  1 32  1  0
  1 33  1  0
  2 34  1  0
  3 35  1  0
  3 36  1  0
  3 37  1  0
  4 38  1  0
  4 39  1  0
  5 40  1  6
  6 41  1  0
  9 42  1  0
  9 43  1  0
 10 44  1  0
 14 45  1  0
 15 46  1  0
 17 47  1  0
 18 48  1  0
 19 49  1  0
 20 50  1  0
 25 51  1  0
 26 52  1  0
 27 53  1  0
 27 54  1  0
 28 55  1  0
 28 56  1  0
 29 57  1  0
 29 58  1  0
 30 59  1  0
 30 60  1  0
M  END
>  <smiles>  (7) 
CC(C)C[C@H](NC(=O)CNC(=O)c1ccc2ccccc2n1)C(=O)NC1CCCC1

>  <score_type>  (7) 
oracle

>  <origin>  (7) 
autodockgpu

>  <m_score__min__energy>  (7) 
-9.0600000000000005

>  <m_primary>  (7) 
energy

>  <rmsd>  (7) 
8.863303801941363

>  <m_score__min__rmsd>  (7) 
8.863303801941363

>  <meeko>  (7) 
{"free_energy": -7.5, "intermolecular_energy": -9.88, "internal_energy": -3.58, "cluster_size": 10, "cluster_id": 2, "rank_in_cluster": 9}

>  <energy>  (7) 
-8.75

>  <cluster_rmsd>  (7) 
1.55

>  <cluster>  (7) 
1

$$$$

     RDKit          3D

 60 62  0  0  0  0  0  0  0  0999 V2000
  143.8230   76.0000  219.8190 C   0  0  0  0  0  0  0  0  0  0  0  0
  142.8220   76.7840  219.0200 C   0  0  0  0  0  0  0  0  0  0  0  0
  142.9230   76.2660  217.5790 C   0  0  0  0  0  0  0  0  0  0  0  0
  141.4090   76.6170  219.4380 C   0  0  0  0  0  0  0  0  0  0  0  0
  141.1890   76.0310  220.8080 C   0  0  2  0  0  0  0  0  0  0  0  0
  140.4570   74.7660  220.7260 N   0  0  0  0  0  0  0  0  0  0  0  0
  141.0200   73.5890  220.1780 C   0  0  0  0  0  0  0  0  0  0  0  0
  142.2130   73.6600  219.7530 O   0  0  0  0  0  0  0  0  0  0  0  0
  140.3220   72.2910  220.0690 C   0  0  0  0  0  0  0  0  0  0  0  0
  140.2810   71.5050  221.2570 N   0  0  0  0  0  0  0  0  0  0  0  0
  139.9770   72.0610  222.5400 C   0  0  0  0  0  0  0  0  0  0  0  0
  139.7180   73.3040  222.6850 O   0  0  0  0  0  0  0  0  0  0  0  0
  139.9610   71.1840  223.7300 C   0  0  0  0  0  0  0  0  0  0  0  0
  139.3980   69.9280  223.6350 C   0  0  0  0  0  0  0  0  0  0  0  0
  139.3940   69.1260  224.7580 C   0  0  0  0  0  0  0  0  0  0  0  0
  139.9280   69.5340  225.9620 C   0  0  0  0  0  0  0  0  0  0  0  0
  139.9290   68.7360  227.0930 C   0  0  0  0  0  0  0  0  0  0  0  0
  140.4710   69.1650  228.2930 C   0  0  0  0  0  0  0  0  0  0  0  0
  141.0270   70.4490  228.3280 C   0  0  0  0  0  0  0  0  0  0  0  0
  141.0200   71.2320  227.1910 C   0  0  0  0  0  0  0  0  0  0  0  0
  140.4780   70.8010  225.9970 C   0  0  0  0  0  0  0  0  0  0  0  0
  140.4770   71.5760  224.8960 N   0  0  0  0  0  0  0  0  0  0  0  0
  140.6350   76.9680  221.7920 C   0  0  0  0  0  0  0  0  0  0  0  0
  139.4800   76.8950  222.2870 O   0  0  0  0  0  0  0  0  0  0  0  0
  141.4530   78.0450  222.2280 N   0  0  0  0  0  0  0  0  0  0  0  0
  140.9740   79.0070  223.1960 C   0  0  0  0  0  0  0  0  0  0  0  0
  142.1990   79.3960  224.0260 C   0  0  0  0  0  0  0  0  0  0  0  0
  142.8650   80.5090  223.2780 C   0  0  0  0  0  0  0  0  0  0  0  0
  141.7530   81.1920  222.5140 C   0  0  0  0  0  0  0  0  0  0  0  0
  140.5370   80.3070  222.6030 C   0  0  0  0  0  0  0  0  0  0  0  0
  143.6330   76.1488  220.8922 H   0  0  0  0  0  0  0  0  0  0  0  0
  143.7308   74.9314  219.5750 H   0  0  0  0  0  0  0  0  0  0  0  0
  144.8384   76.3455  219.5750 H   0  0  0  0  0  0  0  0  0  0  0  0
  143.0633   77.8484  219.1569 H   0  0  0  0  0  0  0  0  0  0  0  0
  143.1335   75.1864  217.5914 H   0  0  0  0  0  0  0  0  0  0  0  0
  141.9724   76.4483  217.0564 H   0  0  0  0  0  0  0  0  0  0  0  0
  143.7355   76.7920  217.0564 H   0  0  0  0  0  0  0  0  0  0  0  0
  140.9324   77.6081  219.4157 H   0  0  0  0  0  0  0  0  0  0  0  0
  140.9756   75.8922  218.7331 H   0  0  0  0  0  0  0  0  0  0  0  0
  142.1880   75.8078  221.2108 H   0  0  0  0  0  0  0  0  0  0  0  0
  139.4890   74.7730  221.1040 H   0  0  0  0  0  0  0  0  0  0  0  0
  139.2851   72.4907  219.7610 H   0  0  0  0  0  0  0  0  0  0  0  0
  140.9004   71.7020  219.3420 H   0  0  0  0  0  0  0  0  0  0  0  0
  140.4740   70.4580  221.2600 H   0  0  0  0  0  0  0  0  0  0  0  0
  138.9634   69.5749  222.6882 H   0  0  0  0  0  0  0  0  0  0  0  0
  138.9477   68.1229  224.6900 H   0  0  0  0  0  0  0  0  0  0  0  0
  139.4859   67.7307  227.0369 H   0  0  0  0  0  0  0  0  0  0  0  0
  140.4648   68.5211  229.1848 H   0  0  0  0  0  0  0  0  0  0  0  0
  141.4685   70.8333  229.2593 H   0  0  0  0  0  0  0  0  0  0  0  0
  141.4632   72.2376  227.2384 H   0  0  0  0  0  0  0  0  0  0  0  0
  142.4350   78.1960  221.8750 H   0  0  0  0  0  0  0  0  0  0  0  0
  140.1275   78.5439  223.7241 H   0  0  0  0  0  0  0  0  0  0  0  0
  141.8913   79.7371  225.0255 H   0  0  0  0  0  0  0  0  0  0  0  0
  142.8779   78.5423  224.1685 H   0  0  0  0  0  0  0  0  0  0  0  0
  143.3420   81.2123  223.9765 H   0  0  0  0  0  0  0  0  0  0  0  0
  143.6573   80.1400  222.6101 H   0  0  0  0  0  0  0  0  0  0  0  0
  141.5373   82.1737  222.9610 H   0  0  0  0  0  0  0  0  0  0  0  0
  142.0426   81.3505  221.4647 H   0  0  0  0  0  0  0  0  0  0  0  0
  139.7764   80.7762  223.2444 H   0  0  0  0  0  0  0  0  0  0  0  0
  140.0958   80.1514  221.6075 H   0  0  0  0  0  0  0  0  0  0  0  0
  1  2  1  0
  2  3  1  0
  2  4  1  0
  4  5  1  0
  5  6  1  0
  6  7  1  0
  7  8  2  0
  7  9  1  0
  9 10  1  0
 10 11  1  0
 11 12  2  0
 11 13  1  0
 13 14  2  0
 14 15  1  0
 15 16  2  0
 16 17  1  0
 17 18  2  0
 18 19  1  0
 19 20  2  0
 20 21  1  0
 21 22  2  0
  5 23  1  0
 23 24  2  0
 23 25  1  0
 25 26  1  0
 26 27  1  0
 27 28  1  0
 28 29  1  0
 29 30  1  0
 22 13  1  0
 30 26  1  0
 21 16  1  0
  1 31  1  0
  1 32  1  0
  1 33  1  0
  2 34  1  0
  3 35  1  0
  3 36  1  0
  3 37  1  0
  4 38  1  0
  4 39  1  0
  5 40  1  1
  6 41  1  0
  9 42  1  0
  9 43  1  0
 10 44  1  0
 14 45  1  0
 15 46  1  0
 17 47  1  0
 18 48  1  0
 19 49  1  0
 20 50  1  0
 25 51  1  0
 26 52  1  0
 27 53  1  0
 27 54  1  0
 28 55  1  0
 28 56  1  0
 29 57  1  0
 29 58  1  0
 30 59  1  0
 30 60  1  0
M  END
>  <smiles>  (8) 
CC(C)C[C@H](NC(=O)CNC(=O)c1ccc2ccccc2n1)C(=O)NC1CCCC1

>  <score_type>  (8) 
oracle

>  <origin>  (8) 
autodockgpu

>  <m_score__min__energy>  (8) 
-9.0600000000000005

>  <m_primary>  (8) 
energy

>  <rmsd>  (8) 
2.4641249414355832

>  <m_score__min__rmsd>  (8) 
2.4641249414355832

>  <meeko>  (8) 
{"free_energy": -8.55, "intermolecular_energy": -10.93, "internal_energy": -2.53, "cluster_size": 39, "cluster_id": 1, "rank_in_cluster": 23}

>  <energy>  (8) 
-8.74

>  <cluster_rmsd>  (8) 
1.6

>  <cluster>  (8) 
1

$$$$

     RDKit          3D

 60 62  0  0  0  0  0  0  0  0999 V2000
  142.6050   77.9070  217.5650 C   0  0  0  0  0  0  0  0  0  0  0  0
  142.3450   76.8330  218.5830 C   0  0  0  0  0  0  0  0  0  0  0  0
  143.6650   76.6320  219.3410 C   0  0  0  0  0  0  0  0  0  0  0  0
  141.3140   77.1600  219.5970 C   0  0  0  0  0  0  0  0  0  0  0  0
  141.3940   76.3950  220.8930 C   0  0  2  0  0  0  0  0  0  0  0  0
  140.7650   75.0790  220.7650 N   0  0  0  0  0  0  0  0  0  0  0  0
  141.4570   73.9440  220.2810 C   0  0  0  0  0  0  0  0  0  0  0  0
  142.6720   74.0990  219.9560 O   0  0  0  0  0  0  0  0  0  0  0  0
  140.8660   72.5970  220.1300 C   0  0  0  0  0  0  0  0  0  0  0  0
  140.7760   71.8200  221.3210 N   0  0  0  0  0  0  0  0  0  0  0  0
  140.1640   72.3110  222.5180 C   0  0  0  0  0  0  0  0  0  0  0  0
  139.6560   73.4820  222.5770 O   0  0  0  0  0  0  0  0  0  0  0  0
  140.1150   71.4490  223.7190 C   0  0  0  0  0  0  0  0  0  0  0  0
  139.5450   70.1970  223.6260 C   0  0  0  0  0  0  0  0  0  0  0  0
  139.5100   69.4090  224.7590 C   0  0  0  0  0  0  0  0  0  0  0  0
  140.0210   69.8280  225.9700 C   0  0  0  0  0  0  0  0  0  0  0  0
  139.9910   69.0450  227.1110 C   0  0  0  0  0  0  0  0  0  0  0  0
  140.5100   69.4850  228.3170 C   0  0  0  0  0  0  0  0  0  0  0  0
  141.0750   70.7650  228.3480 C   0  0  0  0  0  0  0  0  0  0  0  0
  141.0980   71.5340  227.2010 C   0  0  0  0  0  0  0  0  0  0  0  0
  140.5790   71.0920  226.0010 C   0  0  0  0  0  0  0  0  0  0  0  0
  140.6080   71.8520  224.8900 N   0  0  0  0  0  0  0  0  0  0  0  0
  140.9530   77.1460  222.0730 C   0  0  0  0  0  0  0  0  0  0  0  0
  139.8840   76.9350  222.7050 O   0  0  0  0  0  0  0  0  0  0  0  0
  141.7830   78.1950  222.5520 N   0  0  0  0  0  0  0  0  0  0  0  0
  141.4130   78.9770  223.7100 C   0  0  0  0  0  0  0  0  0  0  0  0
  142.4860   80.0620  223.8300 C   0  0  0  0  0  0  0  0  0  0  0  0
  142.0330   81.1860  222.9510 C   0  0  0  0  0  0  0  0  0  0  0  0
  140.5240   81.0840  222.9270 C   0  0  0  0  0  0  0  0  0  0  0  0
  140.1520   79.7610  223.5430 C   0  0  0  0  0  0  0  0  0  0  0  0
  142.8338   78.8521  218.0793 H   0  0  0  0  0  0  0  0  0  0  0  0
  143.4587   77.6163  216.9352 H   0  0  0  0  0  0  0  0  0  0  0  0
  141.7129   78.0389  216.9352 H   0  0  0  0  0  0  0  0  0  0  0  0
  141.9759   75.9529  218.0359 H   0  0  0  0  0  0  0  0  0  0  0  0
  143.4740   76.6611  220.4239 H   0  0  0  0  0  0  0  0  0  0  0  0
  144.0981   75.6576  219.0711 H   0  0  0  0  0  0  0  0  0  0  0  0
  144.3685   77.4334  219.0711 H   0  0  0  0  0  0  0  0  0  0  0  0
  141.4018   78.2309  219.8327 H   0  0  0  0  0  0  0  0  0  0  0  0
  140.3528   76.8753  219.1442 H   0  0  0  0  0  0  0  0  0  0  0  0
  142.4639   76.2299  221.0880 H   0  0  0  0  0  0  0  0  0  0  0  0
  139.7710   75.0180  221.0610 H   0  0  0  0  0  0  0  0  0  0  0  0
  139.8489   72.7182  219.7290 H   0  0  0  0  0  0  0  0  0  0  0  0
  141.5475   72.0456  219.4655 H   0  0  0  0  0  0  0  0  0  0  0  0
  141.1590   70.8300  221.3910 H   0  0  0  0  0  0  0  0  0  0  0  0
  139.1290   69.8355  222.6740 H   0  0  0  0  0  0  0  0  0  0  0  0
  139.0573   68.4086  224.6937 H   0  0  0  0  0  0  0  0  0  0  0  0
  139.5411   68.0426  227.0581 H   0  0  0  0  0  0  0  0  0  0  0  0
  140.4794   68.8525  229.2165 H   0  0  0  0  0  0  0  0  0  0  0  0
  141.4997   71.1577  229.2836 H   0  0  0  0  0  0  0  0  0  0  0  0
  141.5472   72.5371  227.2456 H   0  0  0  0  0  0  0  0  0  0  0  0
  142.6980   78.4520  222.0950 H   0  0  0  0  0  0  0  0  0  0  0  0
  141.2989   78.2783  224.5519 H   0  0  0  0  0  0  0  0  0  0  0  0
  142.5713   80.4021  224.8726 H   0  0  0  0  0  0  0  0  0  0  0  0
  143.4751   79.6869  223.5285 H   0  0  0  0  0  0  0  0  0  0  0  0
  142.3480   82.1537  223.3684 H   0  0  0  0  0  0  0  0  0  0  0  0
  142.4666   81.1207  221.9422 H   0  0  0  0  0  0  0  0  0  0  0  0
  140.0823   81.9068  223.5083 H   0  0  0  0  0  0  0  0  0  0  0  0
  140.1465   81.1522  221.8960 H   0  0  0  0  0  0  0  0  0  0  0  0
  139.6767   79.9221  224.5219 H   0  0  0  0  0  0  0  0  0  0  0  0
  139.4398   79.2203  222.9024 H   0  0  0  0  0  0  0  0  0  0  0  0
  1  2  1  0
  2  3  1  0
  2  4  1  0
  4  5  1  0
  5  6  1  0
  6  7  1  0
  7  8  2  0
  7  9  1  0
  9 10  1  0
 10 11  1  0
 11 12  2  0
 11 13  1  0
 13 14  2  0
 14 15  1  0
 15 16  2  0
 16 17  1  0
 17 18  2  0
 18 19  1  0
 19 20  2  0
 20 21  1  0
 21 22  2  0
  5 23  1  0
 23 24  2  0
 23 25  1  0
 25 26  1  0
 26 27  1  0
 27 28  1  0
 28 29  1  0
 29 30  1  0
 22 13  1  0
 30 26  1  0
 21 16  1  0
  1 31  1  0
  1 32  1  0
  1 33  1  0
  2 34  1  0
  3 35  1  0
  3 36  1  0
  3 37  1  0
  4 38  1  0
  4 39  1  0
  5 40  1  1
  6 41  1  0
  9 42  1  0
  9 43  1  0
 10 44  1  0
 14 45  1  0
 15 46  1  0
 17 47  1  0
 18 48  1  0
 19 49  1  0
 20 50  1  0
 25 51  1  0
 26 52  1  0
 27 53  1  0
 27 54  1  0
 28 55  1  0
 28 56  1  0
 29 57  1  0
 29 58  1  0
 30 59  1  0
 30 60  1  0
M  END
>  <smiles>  (9) 
CC(C)C[C@H](NC(=O)CNC(=O)c1ccc2ccccc2n1)C(=O)NC1CCCC1

>  <score_type>  (9) 
oracle

>  <origin>  (9) 
autodockgpu

>  <m_score__min__energy>  (9) 
-9.0600000000000005

>  <m_primary>  (9) 
energy

>  <rmsd>  (9) 
2.5590288002378196

>  <m_score__min__rmsd>  (9) 
2.5590288002378196

>  <meeko>  (9) 
{"free_energy": -8.69, "intermolecular_energy": -11.08, "internal_energy": -2.47, "cluster_size": 39, "cluster_id": 1, "rank_in_cluster": 11}

>  <energy>  (9) 
-8.74

>  <cluster_rmsd>  (9) 
1.26

>  <cluster>  (9) 
1

$$$$

     RDKit          3D

 60 62  0  0  0  0  0  0  0  0999 V2000
  142.1620   79.0950  218.8990 C   0  0  0  0  0  0  0  0  0  0  0  0
  141.8620   77.6580  218.5790 C   0  0  0  0  0  0  0  0  0  0  0  0
  142.9160   76.8240  219.3230 C   0  0  0  0  0  0  0  0  0  0  0  0
  140.5360   77.1740  219.0310 C   0  0  0  0  0  0  0  0  0  0  0  0
  140.4670   76.6490  220.4410 C   0  0  2  0  0  0  0  0  0  0  0  0
  139.6380   75.4450  220.5130 N   0  0  0  0  0  0  0  0  0  0  0  0
  139.9310   74.3640  221.3780 C   0  0  0  0  0  0  0  0  0  0  0  0
  140.9580   74.4710  222.1140 O   0  0  0  0  0  0  0  0  0  0  0  0
  139.1290   73.1270  221.4840 C   0  0  0  0  0  0  0  0  0  0  0  0
  139.3720   72.3240  222.6360 N   0  0  0  0  0  0  0  0  0  0  0  0
  139.0470   70.9310  222.6880 C   0  0  0  0  0  0  0  0  0  0  0  0
  138.5220   70.3300  221.6900 O   0  0  0  0  0  0  0  0  0  0  0  0
  139.3230   70.1640  223.9220 C   0  0  0  0  0  0  0  0  0  0  0  0
  138.9450   68.8400  223.9910 C   0  0  0  0  0  0  0  0  0  0  0  0
  139.2120   68.1430  225.1520 C   0  0  0  0  0  0  0  0  0  0  0  0
  139.8370   68.7210  226.2370 C   0  0  0  0  0  0  0  0  0  0  0  0
  140.1080   68.0310  227.4050 C   0  0  0  0  0  0  0  0  0  0  0  0
  140.7370   68.6310  228.4830 C   0  0  0  0  0  0  0  0  0  0  0  0
  141.0950   69.9770  228.3540 C   0  0  0  0  0  0  0  0  0  0  0  0
  140.8180   70.6520  227.1820 C   0  0  0  0  0  0  0  0  0  0  0  0
  140.1910   70.0510  226.1100 C   0  0  0  0  0  0  0  0  0  0  0  0
  139.9260   70.7210  224.9730 N   0  0  0  0  0  0  0  0  0  0  0  0
  140.1290   77.6580  221.4520 C   0  0  0  0  0  0  0  0  0  0  0  0
  138.9640   78.0640  221.7040 O   0  0  0  0  0  0  0  0  0  0  0  0
  141.1850   78.2280  222.2120 N   0  0  0  0  0  0  0  0  0  0  0  0
  140.9270   79.2270  223.2250 C   0  0  0  0  0  0  0  0  0  0  0  0
  142.2720   79.4680  223.9130 C   0  0  0  0  0  0  0  0  0  0  0  0
  142.9710   80.5090  223.0940 C   0  0  0  0  0  0  0  0  0  0  0  0
  141.8630   81.3190  222.4580 C   0  0  0  0  0  0  0  0  0  0  0  0
  140.5740   80.5740  222.6830 C   0  0  0  0  0  0  0  0  0  0  0  0
  142.1901   79.2295  219.9904 H   0  0  0  0  0  0  0  0  0  0  0  0
  143.1370   79.3703  218.4705 H   0  0  0  0  0  0  0  0  0  0  0  0
  141.3786   79.7374  218.4705 H   0  0  0  0  0  0  0  0  0  0  0  0
  141.8717   77.5629  217.4832 H   0  0  0  0  0  0  0  0  0  0  0  0
  142.7737   76.9366  220.4079 H   0  0  0  0  0  0  0  0  0  0  0  0
  142.8072   75.7648  219.0469 H   0  0  0  0  0  0  0  0  0  0  0  0
  143.9218   77.1734  219.0469 H   0  0  0  0  0  0  0  0  0  0  0  0
  139.8270   78.0110  218.9491 H   0  0  0  0  0  0  0  0  0  0  0  0
  140.2988   76.3161  218.3846 H   0  0  0  0  0  0  0  0  0  0  0  0
  141.4926   76.3576  220.7117 H   0  0  0  0  0  0  0  0  0  0  0  0
  138.8040   75.4270  219.8930 H   0  0  0  0  0  0  0  0  0  0  0  0
  138.0670   73.4135  221.4909 H   0  0  0  0  0  0  0  0  0  0  0  0
  139.4215   72.5081  220.6229 H   0  0  0  0  0  0  0  0  0  0  0  0
  139.8100   72.7130  223.5250 H   0  0  0  0  0  0  0  0  0  0  0  0
  138.4435   68.3516  223.1425 H   0  0  0  0  0  0  0  0  0  0  0  0
  138.9148   67.0857  225.2143 H   0  0  0  0  0  0  0  0  0  0  0  0
  139.8149   66.9734  227.4797 H   0  0  0  0  0  0  0  0  0  0  0  0
  140.9471   68.0703  229.4058 H   0  0  0  0  0  0  0  0  0  0  0  0
  141.5960   70.4963  229.1843 H   0  0  0  0  0  0  0  0  0  0  0  0
  141.1084   71.7098  227.0997 H   0  0  0  0  0  0  0  0  0  0  0  0
  142.1950   77.9570  222.0790 H   0  0  0  0  0  0  0  0  0  0  0  0
  140.0976   78.8553  223.8446 H   0  0  0  0  0  0  0  0  0  0  0  0
  142.1170   79.8297  224.9402 H   0  0  0  0  0  0  0  0  0  0  0  0
  142.8630   78.5427  223.9800 H   0  0  0  0  0  0  0  0  0  0  0  0
  143.5977   81.1475  223.7340 H   0  0  0  0  0  0  0  0  0  0  0  0
  143.6388   80.0625  222.3426 H   0  0  0  0  0  0  0  0  0  0  0  0
  141.8088   82.3135  222.9249 H   0  0  0  0  0  0  0  0  0  0  0  0
  142.0500   81.4554  221.3826 H   0  0  0  0  0  0  0  0  0  0  0  0
  139.9464   81.1173  223.4048 H   0  0  0  0  0  0  0  0  0  0  0  0
  140.0100   80.4797  221.7433 H   0  0  0  0  0  0  0  0  0  0  0  0
  1  2  1  0
  2  3  1  0
  2  4  1  0
  4  5  1  0
  5  6  1  0
  6  7  1  0
  7  8  2  0
  7  9  1  0
  9 10  1  0
 10 11  1  0
 11 12  2  0
 11 13  1  0
 13 14  2  0
 14 15  1  0
 15 16  2  0
 16 17  1  0
 17 18  2  0
 18 19  1  0
 19 20  2  0
 20 21  1  0
 21 22  2  0
  5 23  1  0
 23 24  2  0
 23 25  1  0
 25 26  1  0
 26 27  1  0
 27 28  1  0
 28 29  1  0
 29 30  1  0
 22 13  1  0
 30 26  1  0
 21 16  1  0
  1 31  1  0
  1 32  1  0
  1 33  1  0
  2 34  1  0
  3 35  1  0
  3 36  1  0
  3 37  1  0
  4 38  1  0
  4 39  1  0
  5 40  1  1
  6 41  1  0
  9 42  1  0
  9 43  1  0
 10 44  1  0
 14 45  1  0
 15 46  1  0
 17 47  1  0
 18 48  1  0
 19 49  1  0
 20 50  1  0
 25 51  1  0
 26 52  1  0
 27 53  1  0
 27 54  1  0
 28 55  1  0
 28 56  1  0
 29 57  1  0
 29 58  1  0
 30 59  1  0
 30 60  1  0
M  END
>  <smiles>  (10) 
CC(C)C[C@H](NC(=O)CNC(=O)c1ccc2ccccc2n1)C(=O)NC1CCCC1

>  <score_type>  (10) 
oracle

>  <origin>  (10) 
autodockgpu

>  <m_score__min__energy>  (10) 
-9.0600000000000005

>  <m_primary>  (10) 
energy

>  <rmsd>  (10) 
2.2454994422062593

>  <m_score__min__rmsd>  (10) 
2.2454994422062593

>  <meeko>  (10) 
{"free_energy": -8.48, "intermolecular_energy": -10.87, "internal_energy": -2.36, "cluster_size": 39, "cluster_id": 1, "rank_in_cluster": 27}

>  <energy>  (10) 
-8.7

>  <cluster_rmsd>  (10) 
1.55

>  <cluster>  (10) 
1

$$$$

     RDKit          3D

 60 62  0  0  0  0  0  0  0  0999 V2000
  142.2320   79.6110  218.4920 C   0  0  0  0  0  0  0  0  0  0  0  0
  141.8630   78.2440  217.9890 C   0  0  0  0  0  0  0  0  0  0  0  0
  142.9610   77.2940  218.4870 C   0  0  0  0  0  0  0  0  0  0  0  0
  140.5750   77.7120  218.4930 C   0  0  0  0  0  0  0  0  0  0  0  0
  140.5950   77.1390  219.8860 C   0  0  2  0  0  0  0  0  0  0  0  0
  139.8490   75.8800  219.9460 N   0  0  0  0  0  0  0  0  0  0  0  0
  139.9610   74.9750  221.0270 C   0  0  0  0  0  0  0  0  0  0  0  0
  140.7430   75.2930  221.9730 O   0  0  0  0  0  0  0  0  0  0  0  0
  139.2340   73.6920  221.1320 C   0  0  0  0  0  0  0  0  0  0  0  0
  139.4330   72.9610  222.3390 N   0  0  0  0  0  0  0  0  0  0  0  0
  139.3830   71.5310  222.3920 C   0  0  0  0  0  0  0  0  0  0  0  0
  139.1610   70.8320  221.3460 O   0  0  0  0  0  0  0  0  0  0  0  0
  139.5910   70.8420  223.6830 C   0  0  0  0  0  0  0  0  0  0  0  0
  139.2290   69.5170  223.8060 C   0  0  0  0  0  0  0  0  0  0  0  0
  139.4330   68.8930  225.0200 C   0  0  0  0  0  0  0  0  0  0  0  0
  139.9810   69.5440  226.1060 C   0  0  0  0  0  0  0  0  0  0  0  0
  140.1890   68.9270  227.3270 C   0  0  0  0  0  0  0  0  0  0  0  0
  140.7410   69.5990  228.4050 C   0  0  0  0  0  0  0  0  0  0  0  0
  141.0870   70.9420  228.2180 C   0  0  0  0  0  0  0  0  0  0  0  0
  140.8750   71.5430  226.9940 C   0  0  0  0  0  0  0  0  0  0  0  0
  140.3230   70.8700  225.9230 C   0  0  0  0  0  0  0  0  0  0  0  0
  140.1210   71.4690  224.7340 N   0  0  0  0  0  0  0  0  0  0  0  0
  140.2300   78.0900  220.9430 C   0  0  0  0  0  0  0  0  0  0  0  0
  139.3420   78.9760  220.8410 O   0  0  0  0  0  0  0  0  0  0  0  0
  140.9230   78.0160  222.1810 N   0  0  0  0  0  0  0  0  0  0  0  0
  140.6170   78.9190  223.2680 C   0  0  0  0  0  0  0  0  0  0  0  0
  141.8760   78.9550  224.1360 C   0  0  0  0  0  0  0  0  0  0  0  0
  142.7580   80.0070  223.5370 C   0  0  0  0  0  0  0  0  0  0  0  0
  141.8120   80.9830  222.8730 C   0  0  0  0  0  0  0  0  0  0  0  0
  140.4480   80.3440  222.8520 C   0  0  0  0  0  0  0  0  0  0  0  0
  142.2316   79.6094  219.5920 H   0  0  0  0  0  0  0  0  0  0  0  0
  143.2344   79.8781  218.1261 H   0  0  0  0  0  0  0  0  0  0  0  0
  141.5002   80.3462  218.1261 H   0  0  0  0  0  0  0  0  0  0  0  0
  141.7627   78.3186  216.8961 H   0  0  0  0  0  0  0  0  0  0  0  0
  142.9688   77.2872  219.5870 H   0  0  0  0  0  0  0  0  0  0  0  0
  142.7628   76.2778  218.1155 H   0  0  0  0  0  0  0  0  0  0  0  0
  143.9382   77.6362  218.1155 H   0  0  0  0  0  0  0  0  0  0  0  0
  139.8431   78.5330  218.4777 H   0  0  0  0  0  0  0  0  0  0  0  0
  140.3231   76.8706  217.8307 H   0  0  0  0  0  0  0  0  0  0  0  0
  141.6472   76.9089  220.1094 H   0  0  0  0  0  0  0  0  0  0  0  0
  139.2150   75.6860  219.1450 H   0  0  0  0  0  0  0  0  0  0  0  0
  138.1588   73.9054  221.0406 H   0  0  0  0  0  0  0  0  0  0  0  0
  139.6350   73.0560  220.3291 H   0  0  0  0  0  0  0  0  0  0  0  0
  139.6300   73.4340  223.2710 H   0  0  0  0  0  0  0  0  0  0  0  0
  138.7889   68.9714  222.9582 H   0  0  0  0  0  0  0  0  0  0  0  0
  139.1477   67.8359  225.1258 H   0  0  0  0  0  0  0  0  0  0  0  0
  139.9073   67.8703  227.4451 H   0  0  0  0  0  0  0  0  0  0  0  0
  140.9012   69.0967  229.3704 H   0  0  0  0  0  0  0  0  0  0  0  0
  141.5273   71.5177  229.0454 H   0  0  0  0  0  0  0  0  0  0  0  0
  141.1567   72.5987  226.8671 H   0  0  0  0  0  0  0  0  0  0  0  0
  141.6830   77.3100  222.3690 H   0  0  0  0  0  0  0  0  0  0  0  0
  139.6869   78.5630  223.7351 H   0  0  0  0  0  0  0  0  0  0  0  0
  141.6184   79.2167  225.1729 H   0  0  0  0  0  0  0  0  0  0  0  0
  142.3763   77.9757  224.1624 H   0  0  0  0  0  0  0  0  0  0  0  0
  143.3453   80.5100  224.3194 H   0  0  0  0  0  0  0  0  0  0  0  0
  143.4798   79.5825  222.8237 H   0  0  0  0  0  0  0  0  0  0  0  0
  141.7785   81.9223  223.4445 H   0  0  0  0  0  0  0  0  0  0  0  0
  142.1478   81.2160  221.8517 H   0  0  0  0  0  0  0  0  0  0  0  0
  139.7783   80.8637  223.5531 H   0  0  0  0  0  0  0  0  0  0  0  0
  140.0050   80.4058  221.8470 H   0  0  0  0  0  0  0  0  0  0  0  0
  1  2  1  0
  2  3  1  0
  2  4  1  0
  4  5  1  0
  5  6  1  0
  6  7  1  0
  7  8  2  0
  7  9  1  0
  9 10  1  0
 10 11  1  0
 11 12  2  0
 11 13  1  0
 13 14  2  0
 14 15  1  0
 15 16  2  0
 16 17  1  0
 17 18  2  0
 18 19  1  0
 19 20  2  0
 20 21  1  0
 21 22  2  0
  5 23  1  0
 23 24  2  0
 23 25  1  0
 25 26  1  0
 26 27  1  0
 27 28  1  0
 28 29  1  0
 29 30  1  0
 22 13  1  0
 30 26  1  0
 21 16  1  0
  1 31  1  0
  1 32  1  0
  1 33  1  0
  2 34  1  0
  3 35  1  0
  3 36  1  0
  3 37  1  0
  4 38  1  0
  4 39  1  0
  5 40  1  1
  6 41  1  0
  9 42  1  0
  9 43  1  0
 10 44  1  0
 14 45  1  0
 15 46  1  0
 17 47  1  0
 18 48  1  0
 19 49  1  0
 20 50  1  0
 25 51  1  0
 26 52  1  0
 27 53  1  0
 27 54  1  0
 28 55  1  0
 28 56  1  0
 29 57  1  0
 29 58  1  0
 30 59  1  0
 30 60  1  0
M  END
>  <smiles>  (11) 
CC(C)C[C@H](NC(=O)CNC(=O)c1ccc2ccccc2n1)C(=O)NC1CCCC1

>  <score_type>  (11) 
oracle

>  <origin>  (11) 
autodockgpu

>  <m_score__min__energy>  (11) 
-9.0600000000000005

>  <m_primary>  (11) 
energy

>  <rmsd>  (11) 
2.3621181568845793

>  <m_score__min__rmsd>  (11) 
2.3621181568845793

>  <meeko>  (11) 
{"free_energy": -8.47, "intermolecular_energy": -10.86, "internal_energy": -2.63, "cluster_size": 39, "cluster_id": 1, "rank_in_cluster": 29}

>  <energy>  (11) 
-8.69

>  <cluster_rmsd>  (11) 
1.57

>  <cluster>  (11) 
1

$$$$

     RDKit          3D

 60 62  0  0  0  0  0  0  0  0999 V2000
  136.6460   70.1640  224.2070 C   0  0  0  0  0  0  0  0  0  0  0  0
  137.8090   69.4410  223.5890 C   0  0  0  0  0  0  0  0  0  0  0  0
  137.2200   68.5330  222.4990 C   0  0  0  0  0  0  0  0  0  0  0  0
  138.8130   70.3080  222.9280 C   0  0  0  0  0  0  0  0  0  0  0  0
  139.2260   71.5410  223.6890 C   0  0  2  0  0  0  0  0  0  0  0  0
  139.6400   72.6070  222.7740 N   0  0  0  0  0  0  0  0  0  0  0  0
  140.7790   72.5030  221.9420 C   0  0  0  0  0  0  0  0  0  0  0  0
  141.4500   71.4290  222.0070 O   0  0  0  0  0  0  0  0  0  0  0  0
  141.2390   73.5510  221.0070 C   0  0  0  0  0  0  0  0  0  0  0  0
  141.2800   74.8770  221.5290 N   0  0  0  0  0  0  0  0  0  0  0  0
  140.0970   75.6330  221.8070 C   0  0  0  0  0  0  0  0  0  0  0  0
  138.9320   75.1500  221.6040 O   0  0  0  0  0  0  0  0  0  0  0  0
  140.2180   77.0070  222.3410 C   0  0  0  0  0  0  0  0  0  0  0  0
  139.0790   77.6910  222.7080 C   0  0  0  0  0  0  0  0  0  0  0  0
  139.2160   78.9710  223.2050 C   0  0  0  0  0  0  0  0  0  0  0  0
  140.4430   79.5850  223.3440 C   0  0  0  0  0  0  0  0  0  0  0  0
  140.5900   80.8690  223.8410 C   0  0  0  0  0  0  0  0  0  0  0  0
  141.8320   81.4670  223.9720 C   0  0  0  0  0  0  0  0  0  0  0  0
  142.9510   80.7230  223.5820 C   0  0  0  0  0  0  0  0  0  0  0  0
  142.7880   79.4440  223.0900 C   0  0  0  0  0  0  0  0  0  0  0  0
  141.5480   78.8510  222.9590 C   0  0  0  0  0  0  0  0  0  0  0  0
  141.4040   77.6030  222.4770 N   0  0  0  0  0  0  0  0  0  0  0  0
  140.1800   71.2960  224.7760 C   0  0  0  0  0  0  0  0  0  0  0  0
  140.9790   72.1510  225.2420 O   0  0  0  0  0  0  0  0  0  0  0  0
  140.2170   70.0010  225.3590 N   0  0  0  0  0  0  0  0  0  0  0  0
  141.1310   69.6860  226.4340 C   0  0  0  0  0  0  0  0  0  0  0  0
  140.6870   70.5540  227.6140 C   0  0  0  0  0  0  0  0  0  0  0  0
  139.6210   69.7730  228.3190 C   0  0  0  0  0  0  0  0  0  0  0  0
  139.9440   68.3220  228.0390 C   0  0  0  0  0  0  0  0  0  0  0  0
  140.9990   68.2960  226.9640 C   0  0  0  0  0  0  0  0  0  0  0  0
  136.7245   70.1152  225.3031 H   0  0  0  0  0  0  0  0  0  0  0  0
  136.6552   71.2158  223.8852 H   0  0  0  0  0  0  0  0  0  0  0  0
  135.7068   69.6903  223.8852 H   0  0  0  0  0  0  0  0  0  0  0  0
  138.3345   68.9210  224.4036 H   0  0  0  0  0  0  0  0  0  0  0  0
  136.6789   67.6988  222.9695 H   0  0  0  0  0  0  0  0  0  0  0  0
  136.5262   69.1137  221.8734 H   0  0  0  0  0  0  0  0  0  0  0  0
  138.0332   68.1362  221.8734 H   0  0  0  0  0  0  0  0  0  0  0  0
  139.7151   69.7038  222.7516 H   0  0  0  0  0  0  0  0  0  0  0  0
  138.3294   70.6745  222.0105 H   0  0  0  0  0  0  0  0  0  0  0  0
  138.3281   71.8919  224.2188 H   0  0  0  0  0  0  0  0  0  0  0  0
  139.0380   73.4550  222.7600 H   0  0  0  0  0  0  0  0  0  0  0  0
  142.2548   73.2868  220.6780 H   0  0  0  0  0  0  0  0  0  0  0  0
  140.4961   73.5733  220.1961 H   0  0  0  0  0  0  0  0  0  0  0  0
  142.1910   75.3820  221.7440 H   0  0  0  0  0  0  0  0  0  0  0  0
  138.0861   77.2283  222.6073 H   0  0  0  0  0  0  0  0  0  0  0  0
  138.3118   79.5228  223.5017 H   0  0  0  0  0  0  0  0  0  0  0  0
  139.6931   81.4309  224.1408 H   0  0  0  0  0  0  0  0  0  0  0  0
  141.9350   82.4882  224.3676 H   0  0  0  0  0  0  0  0  0  0  0  0
  143.9583   81.1566  223.6674 H   0  0  0  0  0  0  0  0  0  0  0  0
  143.6805   78.8749  222.7906 H   0  0  0  0  0  0  0  0  0  0  0  0
  139.5910   69.2140  225.0410 H   0  0  0  0  0  0  0  0  0  0  0  0
  142.1506   69.8331  226.0484 H   0  0  0  0  0  0  0  0  0  0  0  0
  141.5338   70.7427  228.2903 H   0  0  0  0  0  0  0  0  0  0  0  0
  140.3152   71.5332  227.2780 H   0  0  0  0  0  0  0  0  0  0  0  0
  139.6475   69.9727  229.4004 H   0  0  0  0  0  0  0  0  0  0  0  0
  138.6134   70.0450  227.9716 H   0  0  0  0  0  0  0  0  0  0  0  0
  140.3241   67.8384  228.9510 H   0  0  0  0  0  0  0  0  0  0  0  0
  139.0442   67.7790  227.7141 H   0  0  0  0  0  0  0  0  0  0  0  0
  141.9581   67.9621  227.3865 H   0  0  0  0  0  0  0  0  0  0  0  0
  140.7178   67.5991  226.1607 H   0  0  0  0  0  0  0  0  0  0  0  0
  1  2  1  0
  2  3  1  0
  2  4  1  0
  4  5  1  0
  5  6  1  0
  6  7  1  0
  7  8  2  0
  7  9  1  0
  9 10  1  0
 10 11  1  0
 11 12  2  0
 11 13  1  0
 13 14  2  0
 14 15  1  0
 15 16  2  0
 16 17  1  0
 17 18  2  0
 18 19  1  0
 19 20  2  0
 20 21  1  0
 21 22  2  0
  5 23  1  0
 23 24  2  0
 23 25  1  0
 25 26  1  0
 26 27  1  0
 27 28  1  0
 28 29  1  0
 29 30  1  0
 22 13  1  0
 30 26  1  0
 21 16  1  0
  1 31  1  0
  1 32  1  0
  1 33  1  0
  2 34  1  0
  3 35  1  0
  3 36  1  0
  3 37  1  0
  4 38  1  0
  4 39  1  0
  5 40  1  1
  6 41  1  0
  9 42  1  0
  9 43  1  0
 10 44  1  0
 14 45  1  0
 15 46  1  0
 17 47  1  0
 18 48  1  0
 19 49  1  0
 20 50  1  0
 25 51  1  0
 26 52  1  0
 27 53  1  0
 27 54  1  0
 28 55  1  0
 28 56  1  0
 29 57  1  0
 29 58  1  0
 30 59  1  0
 30 60  1  0
M  END
>  <smiles>  (12) 
CC(C)C[C@H](NC(=O)CNC(=O)c1ccc2ccccc2n1)C(=O)NC1CCCC1

>  <score_type>  (12) 
oracle

>  <origin>  (12) 
autodockgpu

>  <m_score__min__energy>  (12) 
-9.0600000000000005

>  <m_primary>  (12) 
energy

>  <rmsd>  (12) 
9.64097559022846

>  <m_score__min__rmsd>  (12) 
9.64097559022846

>  <meeko>  (12) 
{"free_energy": -8.67, "intermolecular_energy": -11.06, "internal_energy": -2.71, "cluster_size": 10, "cluster_id": 2, "rank_in_cluster": 4}

>  <energy>  (12) 
-8.67

>  <cluster_rmsd>  (12) 
1.44

>  <cluster>  (12) 
1

$$$$

     RDKit          3D

 60 62  0  0  0  0  0  0  0  0999 V2000
  142.9540   77.3290  217.6470 C   0  0  0  0  0  0  0  0  0  0  0  0
  142.5260   77.7300  219.0290 C   0  0  0  0  0  0  0  0  0  0  0  0
  142.1820   79.2250  218.9550 C   0  0  0  0  0  0  0  0  0  0  0  0
  141.3210   77.0380  219.5440 C   0  0  0  0  0  0  0  0  0  0  0  0
  141.4820   76.3140  220.8560 C   0  0  2  0  0  0  0  0  0  0  0  0
  140.9220   74.9630  220.7810 N   0  0  0  0  0  0  0  0  0  0  0  0
  141.6060   73.8830  220.1760 C   0  0  0  0  0  0  0  0  0  0  0  0
  142.7520   74.1210  219.6890 O   0  0  0  0  0  0  0  0  0  0  0  0
  141.0820   72.5050  220.0720 C   0  0  0  0  0  0  0  0  0  0  0  0
  140.9660   71.7900  221.3000 N   0  0  0  0  0  0  0  0  0  0  0  0
  140.2130   72.2850  222.4120 C   0  0  0  0  0  0  0  0  0  0  0  0
  139.5950   73.4020  222.3560 O   0  0  0  0  0  0  0  0  0  0  0  0
  140.1440   71.4900  223.6570 C   0  0  0  0  0  0  0  0  0  0  0  0
  139.5430   70.2490  223.6330 C   0  0  0  0  0  0  0  0  0  0  0  0
  139.4900   69.5250  224.8060 C   0  0  0  0  0  0  0  0  0  0  0  0
  140.0120   69.9960  225.9930 C   0  0  0  0  0  0  0  0  0  0  0  0
  139.9640   69.2770  227.1740 C   0  0  0  0  0  0  0  0  0  0  0  0
  140.4940   69.7680  228.3550 C   0  0  0  0  0  0  0  0  0  0  0  0
  141.0900   71.0340  228.3170 C   0  0  0  0  0  0  0  0  0  0  0  0
  141.1310   71.7380  227.1310 C   0  0  0  0  0  0  0  0  0  0  0  0
  140.6010   71.2450  225.9560 C   0  0  0  0  0  0  0  0  0  0  0  0
  140.6480   71.9440  224.8060 N   0  0  0  0  0  0  0  0  0  0  0  0
  141.0370   77.0720  222.0300 C   0  0  0  0  0  0  0  0  0  0  0  0
  140.0210   76.8000  222.7220 O   0  0  0  0  0  0  0  0  0  0  0  0
  141.8000   78.2020  222.4300 N   0  0  0  0  0  0  0  0  0  0  0  0
  141.4220   78.9960  223.5780 C   0  0  0  0  0  0  0  0  0  0  0  0
  142.5520   80.0110  223.7620 C   0  0  0  0  0  0  0  0  0  0  0  0
  142.2130   81.1680  222.8750 C   0  0  0  0  0  0  0  0  0  0  0  0
  140.7040   81.1600  222.7760 C   0  0  0  0  0  0  0  0  0  0  0  0
  140.2220   79.8580  223.3590 C   0  0  0  0  0  0  0  0  0  0  0  0
  143.7552   76.5783  217.7146 H   0  0  0  0  0  0  0  0  0  0  0  0
  142.0961   76.9020  217.1069 H   0  0  0  0  0  0  0  0  0  0  0  0
  143.3243   78.2128  217.1069 H   0  0  0  0  0  0  0  0  0  0  0  0
  143.3496   77.4679  219.7094 H   0  0  0  0  0  0  0  0  0  0  0  0
  142.0887   79.6306  219.9732 H   0  0  0  0  0  0  0  0  0  0  0  0
  142.9808   79.7590  218.4194 H   0  0  0  0  0  0  0  0  0  0  0  0
  141.2302   79.3562  218.4194 H   0  0  0  0  0  0  0  0  0  0  0  0
  140.5293   77.7911  219.6707 H   0  0  0  0  0  0  0  0  0  0  0  0
  141.0885   76.2588  218.8032 H   0  0  0  0  0  0  0  0  0  0  0  0
  142.5647   76.2120  221.0216 H   0  0  0  0  0  0  0  0  0  0  0  0
  139.9850   74.8340  221.2120 H   0  0  0  0  0  0  0  0  0  0  0  0
  140.0820   72.5578  219.6167 H   0  0  0  0  0  0  0  0  0  0  0  0
  141.8186   71.9502  219.4722 H   0  0  0  0  0  0  0  0  0  0  0  0
  141.4310   70.8470  221.4620 H   0  0  0  0  0  0  0  0  0  0  0  0
  139.1167   69.8467  222.7022 H   0  0  0  0  0  0  0  0  0  0  0  0
  139.0131   68.5338  224.7945 H   0  0  0  0  0  0  0  0  0  0  0  0
  139.4900   68.2844  227.1747 H   0  0  0  0  0  0  0  0  0  0  0  0
  140.4485   69.1858  229.2872 H   0  0  0  0  0  0  0  0  0  0  0  0
  141.5245   71.4665  229.2303 H   0  0  0  0  0  0  0  0  0  0  0  0
  141.6045   72.7308  227.1217 H   0  0  0  0  0  0  0  0  0  0  0  0
  142.6680   78.5150  221.9190 H   0  0  0  0  0  0  0  0  0  0  0  0
  141.2238   78.2986  224.4053 H   0  0  0  0  0  0  0  0  0  0  0  0
  142.6067   80.3365  224.8113 H   0  0  0  0  0  0  0  0  0  0  0  0
  143.5298   79.5778  223.5045 H   0  0  0  0  0  0  0  0  0  0  0  0
  142.5659   82.1108  223.3184 H   0  0  0  0  0  0  0  0  0  0  0  0
  142.6911   81.0844  221.8879 H   0  0  0  0  0  0  0  0  0  0  0  0
  140.2854   82.0041  223.3437 H   0  0  0  0  0  0  0  0  0  0  0  0
  140.3827   81.2595  221.7287 H   0  0  0  0  0  0  0  0  0  0  0  0
  139.7105   80.0407  224.3156 H   0  0  0  0  0  0  0  0  0  0  0  0
  139.5100   79.3675  222.6789 H   0  0  0  0  0  0  0  0  0  0  0  0
  1  2  1  0
  2  3  1  0
  2  4  1  0
  4  5  1  0
  5  6  1  0
  6  7  1  0
  7  8  2  0
  7  9  1  0
  9 10  1  0
 10 11  1  0
 11 12  2  0
 11 13  1  0
 13 14  2  0
 14 15  1  0
 15 16  2  0
 16 17  1  0
 17 18  2  0
 18 19  1  0
 19 20  2  0
 20 21  1  0
 21 22  2  0
  5 23  1  0
 23 24  2  0
 23 25  1  0
 25 26  1  0
 26 27  1  0
 27 28  1  0
 28 29  1  0
 29 30  1  0
 22 13  1  0
 30 26  1  0
 21 16  1  0
  1 31  1  0
  1 32  1  0
  1 33  1  0
  2 34  1  0
  3 35  1  0
  3 36  1  0
  3 37  1  0
  4 38  1  0
  4 39  1  0
  5 40  1  1
  6 41  1  0
  9 42  1  0
  9 43  1  0
 10 44  1  0
 14 45  1  0
 15 46  1  0
 17 47  1  0
 18 48  1  0
 19 49  1  0
 20 50  1  0
 25 51  1  0
 26 52  1  0
 27 53  1  0
 27 54  1  0
 28 55  1  0
 28 56  1  0
 29 57  1  0
 29 58  1  0
 30 59  1  0
 30 60  1  0
M  END
>  <smiles>  (13) 
CC(C)C[C@H](NC(=O)CNC(=O)c1ccc2ccccc2n1)C(=O)NC1CCCC1

>  <score_type>  (13) 
oracle

>  <origin>  (13) 
autodockgpu

>  <m_score__min__energy>  (13) 
-9.0600000000000005

>  <m_primary>  (13) 
energy

>  <rmsd>  (13) 
2.588830069598845

>  <m_score__min__rmsd>  (13) 
2.588830069598845

>  <meeko>  (13) 
{"free_energy": -8.67, "intermolecular_energy": -11.06, "internal_energy": -2.69, "cluster_size": 39, "cluster_id": 1, "rank_in_cluster": 14}

>  <energy>  (13) 
-8.67

>  <cluster_rmsd>  (13) 
1.51

>  <cluster>  (13) 
1

$$$$

     RDKit          3D

 60 62  0  0  0  0  0  0  0  0999 V2000
  142.9010   77.6970  217.8100 C   0  0  0  0  0  0  0  0  0  0  0  0
  142.3830   77.8780  219.2080 C   0  0  0  0  0  0  0  0  0  0  0  0
  141.8390   79.3120  219.2810 C   0  0  0  0  0  0  0  0  0  0  0  0
  141.2700   76.9770  219.5910 C   0  0  0  0  0  0  0  0  0  0  0  0
  141.4150   76.2710  220.9140 C   0  0  2  0  0  0  0  0  0  0  0  0
  140.8510   74.9210  220.8520 N   0  0  0  0  0  0  0  0  0  0  0  0
  141.4630   73.8680  220.1320 C   0  0  0  0  0  0  0  0  0  0  0  0
  142.5470   74.1300  219.5290 O   0  0  0  0  0  0  0  0  0  0  0  0
  140.9330   72.4920  220.0370 C   0  0  0  0  0  0  0  0  0  0  0  0
  140.8520   71.7690  221.2630 N   0  0  0  0  0  0  0  0  0  0  0  0
  140.1450   72.2650  222.4050 C   0  0  0  0  0  0  0  0  0  0  0  0
  139.5390   73.3890  222.3790 O   0  0  0  0  0  0  0  0  0  0  0  0
  140.1120   71.4620  223.6460 C   0  0  0  0  0  0  0  0  0  0  0  0
  139.5740   70.1920  223.6130 C   0  0  0  0  0  0  0  0  0  0  0  0
  139.5530   69.4610  224.7840 C   0  0  0  0  0  0  0  0  0  0  0  0
  140.0460   69.9520  225.9740 C   0  0  0  0  0  0  0  0  0  0  0  0
  140.0300   69.2260  227.1520 C   0  0  0  0  0  0  0  0  0  0  0  0
  140.5300   69.7390  228.3380 C   0  0  0  0  0  0  0  0  0  0  0  0
  141.0610   71.0330  228.3070 C   0  0  0  0  0  0  0  0  0  0  0  0
  141.0720   71.7440  227.1240 C   0  0  0  0  0  0  0  0  0  0  0  0
  140.5710   71.2300  225.9450 C   0  0  0  0  0  0  0  0  0  0  0  0
  140.5870   71.9350  224.7980 N   0  0  0  0  0  0  0  0  0  0  0  0
  140.9590   77.0460  222.0730 C   0  0  0  0  0  0  0  0  0  0  0  0
  139.8960   76.8300  222.7130 O   0  0  0  0  0  0  0  0  0  0  0  0
  141.7670   78.1260  222.5190 N   0  0  0  0  0  0  0  0  0  0  0  0
  141.3820   78.9340  223.6550 C   0  0  0  0  0  0  0  0  0  0  0  0
  142.4840   79.9840  223.8020 C   0  0  0  0  0  0  0  0  0  0  0  0
  142.1000   81.1120  222.8950 C   0  0  0  0  0  0  0  0  0  0  0  0
  140.5900   81.0590  222.8180 C   0  0  0  0  0  0  0  0  0  0  0  0
  140.1540   79.7560  223.4350 C   0  0  0  0  0  0  0  0  0  0  0  0
  143.9388   77.3344  217.8476 H   0  0  0  0  0  0  0  0  0  0  0  0
  142.2755   76.9642  217.2792 H   0  0  0  0  0  0  0  0  0  0  0  0
  142.8681   78.6599  217.2792 H   0  0  0  0  0  0  0  0  0  0  0  0
  143.2148   77.6531  219.8918 H   0  0  0  0  0  0  0  0  0  0  0  0
  141.7266   79.6083  220.3344 H   0  0  0  0  0  0  0  0  0  0  0  0
  142.5401   79.9961  218.7805 H   0  0  0  0  0  0  0  0  0  0  0  0
  140.8606   79.3589  218.7805 H   0  0  0  0  0  0  0  0  0  0  0  0
  140.3493   77.5776  219.6296 H   0  0  0  0  0  0  0  0  0  0  0  0
  141.2583   76.1818  218.8311 H   0  0  0  0  0  0  0  0  0  0  0  0
  142.4957   76.1686  221.0919 H   0  0  0  0  0  0  0  0  0  0  0  0
  139.9690   74.7700  221.3810 H   0  0  0  0  0  0  0  0  0  0  0  0
  139.9199   72.5498  219.6125 H   0  0  0  0  0  0  0  0  0  0  0  0
  141.6508   71.9394  219.4129 H   0  0  0  0  0  0  0  0  0  0  0  0
  141.3120   70.8200  221.4020 H   0  0  0  0  0  0  0  0  0  0  0  0
  139.1725   69.7730  222.6785 H   0  0  0  0  0  0  0  0  0  0  0  0
  139.1262   68.4473  224.7667 H   0  0  0  0  0  0  0  0  0  0  0  0
  139.6073   68.2105  227.1466 H   0  0  0  0  0  0  0  0  0  0  0  0
  140.5102   69.1517  229.2679 H   0  0  0  0  0  0  0  0  0  0  0  0
  141.4691   71.4831  229.2240 H   0  0  0  0  0  0  0  0  0  0  0  0
  141.4962   72.7589  227.1206 H   0  0  0  0  0  0  0  0  0  0  0  0
  142.6750   78.3900  222.0530 H   0  0  0  0  0  0  0  0  0  0  0  0
  141.2155   78.2493  224.4997 H   0  0  0  0  0  0  0  0  0  0  0  0
  142.5430   80.3335  224.8433 H   0  0  0  0  0  0  0  0  0  0  0  0
  143.4704   79.5734  223.5404 H   0  0  0  0  0  0  0  0  0  0  0  0
  142.4319   82.0738  223.3130 H   0  0  0  0  0  0  0  0  0  0  0  0
  142.5668   81.0207  221.9032 H   0  0  0  0  0  0  0  0  0  0  0  0
  140.1551   81.9026  223.3740 H   0  0  0  0  0  0  0  0  0  0  0  0
  140.2513   81.1272  221.7737 H   0  0  0  0  0  0  0  0  0  0  0  0
  139.6504   79.9441  224.3947 H   0  0  0  0  0  0  0  0  0  0  0  0
  139.4475   79.2307  222.7755 H   0  0  0  0  0  0  0  0  0  0  0  0
  1  2  1  0
  2  3  1  0
  2  4  1  0
  4  5  1  0
  5  6  1  0
  6  7  1  0
  7  8  2  0
  7  9  1  0
  9 10  1  0
 10 11  1  0
 11 12  2  0
 11 13  1  0
 13 14  2  0
 14 15  1  0
 15 16  2  0
 16 17  1  0
 17 18  2  0
 18 19  1  0
 19 20  2  0
 20 21  1  0
 21 22  2  0
  5 23  1  0
 23 24  2  0
 23 25  1  0
 25 26  1  0
 26 27  1  0
 27 28  1  0
 28 29  1  0
 29 30  1  0
 22 13  1  0
 30 26  1  0
 21 16  1  0
  1 31  1  0
  1 32  1  0
  1 33  1  0
  2 34  1  0
  3 35  1  0
  3 36  1  0
  3 37  1  0
  4 38  1  0
  4 39  1  0
  5 40  1  1
  6 41  1  0
  9 42  1  0
  9 43  1  0
 10 44  1  0
 14 45  1  0
 15 46  1  0
 17 47  1  0
 18 48  1  0
 19 49  1  0
 20 50  1  0
 25 51  1  0
 26 52  1  0
 27 53  1  0
 27 54  1  0
 28 55  1  0
 28 56  1  0
 29 57  1  0
 29 58  1  0
 30 59  1  0
 30 60  1  0
M  END
>  <smiles>  (14) 
CC(C)C[C@H](NC(=O)CNC(=O)c1ccc2ccccc2n1)C(=O)NC1CCCC1

>  <score_type>  (14) 
oracle

>  <origin>  (14) 
autodockgpu

>  <m_score__min__energy>  (14) 
-9.0600000000000005

>  <m_primary>  (14) 
energy

>  <rmsd>  (14) 
2.619811748647667

>  <m_score__min__rmsd>  (14) 
2.619811748647667

>  <meeko>  (14) 
{"free_energy": -8.6, "intermolecular_energy": -10.99, "internal_energy": -2.73, "cluster_size": 39, "cluster_id": 1, "rank_in_cluster": 19}

>  <energy>  (14) 
-8.67

>  <cluster_rmsd>  (14) 
1.61

>  <cluster>  (14) 
1

$$$$

     RDKit          3D

 60 62  0  0  0  0  0  0  0  0999 V2000
  143.1750   76.6780  218.5870 C   0  0  0  0  0  0  0  0  0  0  0  0
  142.3370   77.1360  219.7460 C   0  0  0  0  0  0  0  0  0  0  0  0
  141.7790   78.5120  219.3540 C   0  0  0  0  0  0  0  0  0  0  0  0
  141.1730   76.2760  220.0640 C   0  0  0  0  0  0  0  0  0  0  0  0
  140.9720   75.9440  221.5200 C   0  0  2  0  0  0  0  0  0  0  0  0
  140.1560   74.7380  221.6750 N   0  0  0  0  0  0  0  0  0  0  0  0
  138.7930   74.6830  221.2990 C   0  0  0  0  0  0  0  0  0  0  0  0
  138.2840   75.7340  220.8050 O   0  0  0  0  0  0  0  0  0  0  0  0
  137.9270   73.4940  221.4390 C   0  0  0  0  0  0  0  0  0  0  0  0
  138.1930   72.6600  222.5640 N   0  0  0  0  0  0  0  0  0  0  0  0
  139.3650   71.8430  222.6590 C   0  0  0  0  0  0  0  0  0  0  0  0
  140.2440   71.8260  221.7310 O   0  0  0  0  0  0  0  0  0  0  0  0
  139.5690   70.9970  223.8540 C   0  0  0  0  0  0  0  0  0  0  0  0
  139.1690   69.6780  223.8220 C   0  0  0  0  0  0  0  0  0  0  0  0
  139.3690   68.9060  224.9490 C   0  0  0  0  0  0  0  0  0  0  0  0
  139.9500   69.4060  226.0960 C   0  0  0  0  0  0  0  0  0  0  0  0
  140.1550   68.6400  227.2310 C   0  0  0  0  0  0  0  0  0  0  0  0
  140.7400   69.1620  228.3730 C   0  0  0  0  0  0  0  0  0  0  0  0
  141.1240   70.5070  228.3440 C   0  0  0  0  0  0  0  0  0  0  0  0
  140.9140   71.2570  227.2040 C   0  0  0  0  0  0  0  0  0  0  0  0
  140.3300   70.7340  226.0690 C   0  0  0  0  0  0  0  0  0  0  0  0
  140.1300   71.4780  224.9640 N   0  0  0  0  0  0  0  0  0  0  0  0
  140.5230   77.0700  222.3460 C   0  0  0  0  0  0  0  0  0  0  0  0
  139.3370   77.2570  222.7280 O   0  0  0  0  0  0  0  0  0  0  0  0
  141.4860   78.0300  222.7560 N   0  0  0  0  0  0  0  0  0  0  0  0
  141.1170   79.1650  223.5720 C   0  0  0  0  0  0  0  0  0  0  0  0
  142.4180   79.9300  223.8210 C   0  0  0  0  0  0  0  0  0  0  0  0
  142.5830   80.8510  222.6510 C   0  0  0  0  0  0  0  0  0  0  0  0
  141.1770   81.1340  222.1710 C   0  0  0  0  0  0  0  0  0  0  0  0
  140.2580   80.1690  222.8730 C   0  0  0  0  0  0  0  0  0  0  0  0
  144.0819   76.1823  218.9635 H   0  0  0  0  0  0  0  0  0  0  0  0
  142.5977   75.9700  217.9743 H   0  0  0  0  0  0  0  0  0  0  0  0
  143.4592   77.5462  217.9743 H   0  0  0  0  0  0  0  0  0  0  0  0
  142.9840   77.1244  220.6355 H   0  0  0  0  0  0  0  0  0  0  0  0
  141.5463   79.0859  220.2631 H   0  0  0  0  0  0  0  0  0  0  0  0
  142.5278   79.0554  218.7590 H   0  0  0  0  0  0  0  0  0  0  0  0
  140.8632   78.3804  218.7590 H   0  0  0  0  0  0  0  0  0  0  0  0
  140.2680   76.7905  219.7086 H   0  0  0  0  0  0  0  0  0  0  0  0
  141.3710   75.3151  219.5665 H   0  0  0  0  0  0  0  0  0  0  0  0
  141.9693   75.7194  221.9262 H   0  0  0  0  0  0  0  0  0  0  0  0
  140.6390   73.9080  222.0730 H   0  0  0  0  0  0  0  0  0  0  0  0
  136.8863   73.8420  221.5158 H   0  0  0  0  0  0  0  0  0  0  0  0
  138.1279   72.8730  220.5535 H   0  0  0  0  0  0  0  0  0  0  0  0
  137.5370   72.5950  223.3990 H   0  0  0  0  0  0  0  0  0  0  0  0
  138.7025   69.2517  222.9217 H   0  0  0  0  0  0  0  0  0  0  0  0
  139.0532   67.8525  224.9317 H   0  0  0  0  0  0  0  0  0  0  0  0
  139.8439   67.5849  227.2257 H   0  0  0  0  0  0  0  0  0  0  0  0
  140.8967   68.5427  229.2685 H   0  0  0  0  0  0  0  0  0  0  0  0
  141.5921   70.9659  229.2273 H   0  0  0  0  0  0  0  0  0  0  0  0
  141.2244   72.3123  227.2007 H   0  0  0  0  0  0  0  0  0  0  0  0
  142.5050   77.9660  222.4900 H   0  0  0  0  0  0  0  0  0  0  0  0
  140.5808   78.7746  224.4496 H   0  0  0  0  0  0  0  0  0  0  0  0
  142.3500   80.5066  224.7553 H   0  0  0  0  0  0  0  0  0  0  0  0
  143.2748   79.2476  223.9218 H   0  0  0  0  0  0  0  0  0  0  0  0
  143.0804   81.7823  222.9597 H   0  0  0  0  0  0  0  0  0  0  0  0
  143.2065   80.4065  221.8613 H   0  0  0  0  0  0  0  0  0  0  0  0
  140.8963   82.1683  222.4188 H   0  0  0  0  0  0  0  0  0  0  0  0
  141.1075   81.0124  221.0800 H   0  0  0  0  0  0  0  0  0  0  0  0
  139.6358   80.7060  223.6041 H   0  0  0  0  0  0  0  0  0  0  0  0
  139.5889   79.6749  222.1531 H   0  0  0  0  0  0  0  0  0  0  0  0
  1  2  1  0
  2  3  1  0
  2  4  1  0
  4  5  1  0
  5  6  1  0
  6  7  1  0
  7  8  2  0
  7  9  1  0
  9 10  1  0
 10 11  1  0
 11 12  2  0
 11 13  1  0
 13 14  2  0
 14 15  1  0
 15 16  2  0
 16 17  1  0
 17 18  2  0
 18 19  1  0
 19 20  2  0
 20 21  1  0
 21 22  2  0
  5 23  1  0
 23 24  2  0
 23 25  1  0
 25 26  1  0
 26 27  1  0
 27 28  1  0
 28 29  1  0
 29 30  1  0
 22 13  1  0
 30 26  1  0
 21 16  1  0
  1 31  1  0
  1 32  1  0
  1 33  1  0
  2 34  1  0
  3 35  1  0
  3 36  1  0
  3 37  1  0
  4 38  1  0
  4 39  1  0
  5 40  1  1
  6 41  1  0
  9 42  1  0
  9 43  1  0
 10 44  1  0
 14 45  1  0
 15 46  1  0
 17 47  1  0
 18 48  1  0
 19 49  1  0
 20 50  1  0
 25 51  1  0
 26 52  1  0
 27 53  1  0
 27 54  1  0
 28 55  1  0
 28 56  1  0
 29 57  1  0
 29 58  1  0
 30 59  1  0
 30 60  1  0
M  END
>  <smiles>  (15) 
CC(C)C[C@H](NC(=O)CNC(=O)c1ccc2ccccc2n1)C(=O)NC1CCCC1

>  <score_type>  (15) 
oracle

>  <origin>  (15) 
autodockgpu

>  <m_score__min__energy>  (15) 
-9.0600000000000005

>  <m_primary>  (15) 
energy

>  <rmsd>  (15) 
2.2479616953458477

>  <m_score__min__rmsd>  (15) 
2.2479616953458477

>  <meeko>  (15) 
{"free_energy": -8.74, "intermolecular_energy": -11.12, "internal_energy": -2.47, "cluster_size": 39, "cluster_id": 1, "rank_in_cluster": 9}

>  <energy>  (15) 
-8.66

>  <cluster_rmsd>  (15) 
1.28

>  <cluster>  (15) 
1

$$$$

     RDKit          3D

 60 62  0  0  0  0  0  0  0  0999 V2000
  141.9140   79.5770  219.3500 C   0  0  0  0  0  0  0  0  0  0  0  0
  141.6080   78.2610  218.6950 C   0  0  0  0  0  0  0  0  0  0  0  0
  142.9530   77.5370  218.5380 C   0  0  0  0  0  0  0  0  0  0  0  0
  140.7230   77.3590  219.4710 C   0  0  0  0  0  0  0  0  0  0  0  0
  141.3710   76.6140  220.6090 C   0  0  2  0  0  0  0  0  0  0  0  0
  141.1350   75.1740  220.4950 N   0  0  0  0  0  0  0  0  0  0  0  0
  142.1850   74.2270  220.4530 C   0  0  0  0  0  0  0  0  0  0  0  0
  143.3700   74.6700  220.5240 O   0  0  0  0  0  0  0  0  0  0  0  0
  141.9980   72.7650  220.3350 C   0  0  0  0  0  0  0  0  0  0  0  0
  141.6700   72.0800  221.5410 N   0  0  0  0  0  0  0  0  0  0  0  0
  140.6050   72.5000  222.4010 C   0  0  0  0  0  0  0  0  0  0  0  0
  139.8830   73.5160  222.1220 O   0  0  0  0  0  0  0  0  0  0  0  0
  140.3280   71.7430  223.6410 C   0  0  0  0  0  0  0  0  0  0  0  0
  139.5050   70.6380  223.5870 C   0  0  0  0  0  0  0  0  0  0  0  0
  139.2610   69.9470  224.7560 C   0  0  0  0  0  0  0  0  0  0  0  0
  139.8060   70.3210  225.9670 C   0  0  0  0  0  0  0  0  0  0  0  0
  139.5660   69.6340  227.1440 C   0  0  0  0  0  0  0  0  0  0  0  0
  140.1240   70.0280  228.3500 C   0  0  0  0  0  0  0  0  0  0  0  0
  140.9490   71.1580  228.3400 C   0  0  0  0  0  0  0  0  0  0  0  0
  141.1790   71.8310  227.1580 C   0  0  0  0  0  0  0  0  0  0  0  0
  140.6210   71.4360  225.9590 C   0  0  0  0  0  0  0  0  0  0  0  0
  140.8530   72.1030  224.8120 N   0  0  0  0  0  0  0  0  0  0  0  0
  141.0750   77.1560  221.9400 C   0  0  0  0  0  0  0  0  0  0  0  0
  140.1990   76.7040  222.7240 O   0  0  0  0  0  0  0  0  0  0  0  0
  141.8240   78.2740  222.3920 N   0  0  0  0  0  0  0  0  0  0  0  0
  141.5880   78.8610  223.6930 C   0  0  0  0  0  0  0  0  0  0  0  0
  142.5470   80.0490  223.7860 C   0  0  0  0  0  0  0  0  0  0  0  0
  141.8320   81.2040  223.1570 C   0  0  0  0  0  0  0  0  0  0  0  0
  140.3610   80.9180  223.3650 C   0  0  0  0  0  0  0  0  0  0  0  0
  140.2440   79.4950  223.8450 C   0  0  0  0  0  0  0  0  0  0  0  0
  141.8863   79.4577  220.4432 H   0  0  0  0  0  0  0  0  0  0  0  0
  142.9148   79.9153  219.0434 H   0  0  0  0  0  0  0  0  0  0  0  0
  141.1652   80.3221  219.0434 H   0  0  0  0  0  0  0  0  0  0  0  0
  141.0793   78.4836  217.7564 H   0  0  0  0  0  0  0  0  0  0  0  0
  143.3675   77.3139  219.5322 H   0  0  0  0  0  0  0  0  0  0  0  0
  142.8018   76.5984  217.9847 H   0  0  0  0  0  0  0  0  0  0  0  0
  143.6532   78.1801  217.9847 H   0  0  0  0  0  0  0  0  0  0  0  0
  139.9065   77.9665  219.8884 H   0  0  0  0  0  0  0  0  0  0  0  0
  140.3928   76.5861  218.7614 H   0  0  0  0  0  0  0  0  0  0  0  0
  142.4540   76.7778  220.5081 H   0  0  0  0  0  0  0  0  0  0  0  0
  140.1390   74.8760  220.4550 H   0  0  0  0  0  0  0  0  0  0  0  0
  141.1864   72.5861  219.6144 H   0  0  0  0  0  0  0  0  0  0  0  0
  142.9732   72.3646  220.0211 H   0  0  0  0  0  0  0  0  0  0  0  0
  142.1970   71.2180  221.8740 H   0  0  0  0  0  0  0  0  0  0  0  0
  139.0547   70.3158  222.6366 H   0  0  0  0  0  0  0  0  0  0  0  0
  138.6065   69.0636  224.7211 H   0  0  0  0  0  0  0  0  0  0  0  0
  138.9130   68.7490  227.1218 H   0  0  0  0  0  0  0  0  0  0  0  0
  139.9259   69.4737  229.2792 H   0  0  0  0  0  0  0  0  0  0  0  0
  141.4135   71.5092  229.2732 H   0  0  0  0  0  0  0  0  0  0  0  0
  141.8320   72.7161  227.1716 H   0  0  0  0  0  0  0  0  0  0  0  0
  142.5800   78.7280  221.8130 H   0  0  0  0  0  0  0  0  0  0  0  0
  141.6987   78.0581  224.4367 H   0  0  0  0  0  0  0  0  0  0  0  0
  142.7807   80.2706  224.8378 H   0  0  0  0  0  0  0  0  0  0  0  0
  143.5001   79.8392  223.2784 H   0  0  0  0  0  0  0  0  0  0  0  0
  142.1152   82.1469  223.6476 H   0  0  0  0  0  0  0  0  0  0  0  0
  142.0838   81.3137  222.0918 H   0  0  0  0  0  0  0  0  0  0  0  0
  139.9470   81.6044  224.1183 H   0  0  0  0  0  0  0  0  0  0  0  0
  139.8008   81.0602  222.4291 H   0  0  0  0  0  0  0  0  0  0  0  0
  139.9376   79.4784  224.9013 H   0  0  0  0  0  0  0  0  0  0  0  0
  139.4884   78.9488  223.2613 H   0  0  0  0  0  0  0  0  0  0  0  0
  1  2  1  0
  2  3  1  0
  2  4  1  0
  4  5  1  0
  5  6  1  0
  6  7  1  0
  7  8  2  0
  7  9  1  0
  9 10  1  0
 10 11  1  0
 11 12  2  0
 11 13  1  0
 13 14  2  0
 14 15  1  0
 15 16  2  0
 16 17  1  0
 17 18  2  0
 18 19  1  0
 19 20  2  0
 20 21  1  0
 21 22  2  0
  5 23  1  0
 23 24  2  0
 23 25  1  0
 25 26  1  0
 26 27  1  0
 27 28  1  0
 28 29  1  0
 29 30  1  0
 22 13  1  0
 30 26  1  0
 21 16  1  0
  1 31  1  0
  1 32  1  0
  1 33  1  0
  2 34  1  0
  3 35  1  0
  3 36  1  0
  3 37  1  0
  4 38  1  0
  4 39  1  0
  5 40  1  6
  6 41  1  0
  9 42  1  0
  9 43  1  0
 10 44  1  0
 14 45  1  0
 15 46  1  0
 17 47  1  0
 18 48  1  0
 19 49  1  0
 20 50  1  0
 25 51  1  0
 26 52  1  0
 27 53  1  0
 27 54  1  0
 28 55  1  0
 28 56  1  0
 29 57  1  0
 29 58  1  0
 30 59  1  0
 30 60  1  0
M  END
>  <smiles>  (16) 
CC(C)C[C@H](NC(=O)CNC(=O)c1ccc2ccccc2n1)C(=O)NC1CCCC1

>  <score_type>  (16) 
oracle

>  <origin>  (16) 
autodockgpu

>  <m_score__min__energy>  (16) 
-9.0600000000000005

>  <m_primary>  (16) 
energy

>  <rmsd>  (16) 
2.863908987811395

>  <m_score__min__rmsd>  (16) 
2.863908987811395

>  <meeko>  (16) 
{"free_energy": -8.42, "intermolecular_energy": -10.8, "internal_energy": -2.59, "cluster_size": 39, "cluster_id": 1, "rank_in_cluster": 33}

>  <energy>  (16) 
-8.65

>  <cluster_rmsd>  (16) 
1.56

>  <cluster>  (16) 
1

$$$$

     RDKit          3D

 60 62  0  0  0  0  0  0  0  0999 V2000
  143.2420   76.4350  217.9780 C   0  0  0  0  0  0  0  0  0  0  0  0
  142.7230   77.4300  218.9770 C   0  0  0  0  0  0  0  0  0  0  0  0
  142.5400   78.7490  218.2140 C   0  0  0  0  0  0  0  0  0  0  0  0
  141.4090   77.0960  219.5770 C   0  0  0  0  0  0  0  0  0  0  0  0
  141.4490   76.3630  220.8930 C   0  0  2  0  0  0  0  0  0  0  0  0
  140.8220   75.0450  220.7780 N   0  0  0  0  0  0  0  0  0  0  0  0
  141.4950   73.9220  220.2430 C   0  0  0  0  0  0  0  0  0  0  0  0
  142.6910   74.0900  219.8580 O   0  0  0  0  0  0  0  0  0  0  0  0
  140.9050   72.5730  220.1030 C   0  0  0  0  0  0  0  0  0  0  0  0
  140.8100   71.8080  221.3010 N   0  0  0  0  0  0  0  0  0  0  0  0
  140.1790   72.3060  222.4860 C   0  0  0  0  0  0  0  0  0  0  0  0
  139.6580   73.4720  222.5250 O   0  0  0  0  0  0  0  0  0  0  0  0
  140.1250   71.4570  223.6950 C   0  0  0  0  0  0  0  0  0  0  0  0
  139.5700   70.1970  223.6100 C   0  0  0  0  0  0  0  0  0  0  0  0
  139.5300   69.4220  224.7510 C   0  0  0  0  0  0  0  0  0  0  0  0
  140.0220   69.8600  225.9630 C   0  0  0  0  0  0  0  0  0  0  0  0
  139.9870   69.0890  227.1120 C   0  0  0  0  0  0  0  0  0  0  0  0
  140.4860   69.5480  228.3200 C   0  0  0  0  0  0  0  0  0  0  0  0
  141.0370   70.8350  228.3420 C   0  0  0  0  0  0  0  0  0  0  0  0
  141.0660   71.5900  227.1880 C   0  0  0  0  0  0  0  0  0  0  0  0
  140.5660   71.1300  225.9870 C   0  0  0  0  0  0  0  0  0  0  0  0
  140.6000   71.8780  224.8680 N   0  0  0  0  0  0  0  0  0  0  0  0
  140.9730   77.1440  222.0410 C   0  0  0  0  0  0  0  0  0  0  0  0
  139.9080   76.9180  222.6750 O   0  0  0  0  0  0  0  0  0  0  0  0
  141.7610   78.2400  222.4820 N   0  0  0  0  0  0  0  0  0  0  0  0
  141.3550   79.0530  223.6060 C   0  0  0  0  0  0  0  0  0  0  0  0
  142.4720   80.0830  223.7900 C   0  0  0  0  0  0  0  0  0  0  0  0
  142.1370   81.2190  222.8730 C   0  0  0  0  0  0  0  0  0  0  0  0
  140.6300   81.1940  222.7480 C   0  0  0  0  0  0  0  0  0  0  0  0
  140.1500   79.8980  223.3490 C   0  0  0  0  0  0  0  0  0  0  0  0
  143.6876   75.5808  218.5088 H   0  0  0  0  0  0  0  0  0  0  0  0
  142.4129   76.0825  217.3469 H   0  0  0  0  0  0  0  0  0  0  0  0
  144.0055   76.9132  217.3469 H   0  0  0  0  0  0  0  0  0  0  0  0
  143.4455   77.4607  219.8059 H   0  0  0  0  0  0  0  0  0  0  0  0
  142.4254   79.5748  218.9316 H   0  0  0  0  0  0  0  0  0  0  0  0
  143.4213   78.9322  217.5818 H   0  0  0  0  0  0  0  0  0  0  0  0
  141.6421   78.6853  217.5818 H   0  0  0  0  0  0  0  0  0  0  0  0
  140.8616   78.0373  219.7329 H   0  0  0  0  0  0  0  0  0  0  0  0
  140.9272   76.4060  218.8686 H   0  0  0  0  0  0  0  0  0  0  0  0
  142.5122   76.2016  221.1246 H   0  0  0  0  0  0  0  0  0  0  0  0
  139.8450   74.9730  221.1250 H   0  0  0  0  0  0  0  0  0  0  0  0
  139.8896   72.6898  219.6963 H   0  0  0  0  0  0  0  0  0  0  0  0
  141.5897   72.0153  219.4472 H   0  0  0  0  0  0  0  0  0  0  0  0
  141.2020   70.8230  221.3870 H   0  0  0  0  0  0  0  0  0  0  0  0
  139.1697   69.8198  222.6574 H   0  0  0  0  0  0  0  0  0  0  0  0
  139.0887   68.4161  224.6918 H   0  0  0  0  0  0  0  0  0  0  0  0
  139.5495   68.0809  227.0644 H   0  0  0  0  0  0  0  0  0  0  0  0
  140.4507   68.9258  229.2264 H   0  0  0  0  0  0  0  0  0  0  0  0
  141.4461   71.2433  229.2779 H   0  0  0  0  0  0  0  0  0  0  0  0
  141.5048   72.5980  227.2266 H   0  0  0  0  0  0  0  0  0  0  0  0
  142.6680   78.5130  222.0190 H   0  0  0  0  0  0  0  0  0  0  0  0
  141.1488   78.3703  224.4435 H   0  0  0  0  0  0  0  0  0  0  0  0
  142.5045   80.4301  224.8333 H   0  0  0  0  0  0  0  0  0  0  0  0
  143.4586   79.6548  223.5593 H   0  0  0  0  0  0  0  0  0  0  0  0
  142.4729   82.1742  223.3029 H   0  0  0  0  0  0  0  0  0  0  0  0
  142.6330   81.1199  221.8962 H   0  0  0  0  0  0  0  0  0  0  0  0
  140.1934   82.0450  223.2913 H   0  0  0  0  0  0  0  0  0  0  0  0
  140.3262   81.2695  221.6935 H   0  0  0  0  0  0  0  0  0  0  0  0
  139.6200   80.0944  224.2927 H   0  0  0  0  0  0  0  0  0  0  0  0
  139.4547   79.3868  222.6668 H   0  0  0  0  0  0  0  0  0  0  0  0
  1  2  1  0
  2  3  1  0
  2  4  1  0
  4  5  1  0
  5  6  1  0
  6  7  1  0
  7  8  2  0
  7  9  1  0
  9 10  1  0
 10 11  1  0
 11 12  2  0
 11 13  1  0
 13 14  2  0
 14 15  1  0
 15 16  2  0
 16 17  1  0
 17 18  2  0
 18 19  1  0
 19 20  2  0
 20 21  1  0
 21 22  2  0
  5 23  1  0
 23 24  2  0
 23 25  1  0
 25 26  1  0
 26 27  1  0
 27 28  1  0
 28 29  1  0
 29 30  1  0
 22 13  1  0
 30 26  1  0
 21 16  1  0
  1 31  1  0
  1 32  1  0
  1 33  1  0
  2 34  1  0
  3 35  1  0
  3 36  1  0
  3 37  1  0
  4 38  1  0
  4 39  1  0
  5 40  1  1
  6 41  1  0
  9 42  1  0
  9 43  1  0
 10 44  1  0
 14 45  1  0
 15 46  1  0
 17 47  1  0
 18 48  1  0
 19 49  1  0
 20 50  1  0
 25 51  1  0
 26 52  1  0
 27 53  1  0
 27 54  1  0
 28 55  1  0
 28 56  1  0
 29 57  1  0
 29 58  1  0
 30 59  1  0
 30 60  1  0
M  END
>  <smiles>  (17) 
CC(C)C[C@H](NC(=O)CNC(=O)c1ccc2ccccc2n1)C(=O)NC1CCCC1

>  <score_type>  (17) 
oracle

>  <origin>  (17) 
autodockgpu

>  <m_score__min__energy>  (17) 
-9.0600000000000005

>  <m_primary>  (17) 
energy

>  <rmsd>  (17) 
2.5069404223289156

>  <m_score__min__rmsd>  (17) 
2.5069404223289156

>  <meeko>  (17) 
{"free_energy": -8.83, "intermolecular_energy": -11.21, "internal_energy": -2.59, "cluster_size": 39, "cluster_id": 1, "rank_in_cluster": 4}

>  <energy>  (17) 
-8.62

>  <cluster_rmsd>  (17) 
1.55

>  <cluster>  (17) 
1

$$$$

     RDKit          3D

 60 62  0  0  0  0  0  0  0  0999 V2000
  144.0840   74.0760  219.5350 C   0  0  0  0  0  0  0  0  0  0  0  0
  143.7420   74.7090  218.2170 C   0  0  0  0  0  0  0  0  0  0  0  0
  142.7590   73.7540  217.5250 C   0  0  0  0  0  0  0  0  0  0  0  0
  143.0690   76.0270  218.3060 C   0  0  0  0  0  0  0  0  0  0  0  0
  142.3490   76.3180  219.5970 C   0  0  2  0  0  0  0  0  0  0  0  0
  141.1310   75.5130  219.7110 N   0  0  0  0  0  0  0  0  0  0  0  0
  140.6470   75.0290  220.9490 C   0  0  0  0  0  0  0  0  0  0  0  0
  141.3110   75.3220  221.9870 O   0  0  0  0  0  0  0  0  0  0  0  0
  139.4270   74.2110  221.1150 C   0  0  0  0  0  0  0  0  0  0  0  0
  139.3890   73.3790  222.2720 N   0  0  0  0  0  0  0  0  0  0  0  0
  140.2630   72.2590  222.4460 C   0  0  0  0  0  0  0  0  0  0  0  0
  141.1350   71.9500  221.5650 O   0  0  0  0  0  0  0  0  0  0  0  0
  140.1590   71.4370  223.6710 C   0  0  0  0  0  0  0  0  0  0  0  0
  139.5580   70.1970  223.6010 C   0  0  0  0  0  0  0  0  0  0  0  0
  139.4730   69.4470  224.7570 C   0  0  0  0  0  0  0  0  0  0  0  0
  139.9620   69.8910  225.9670 C   0  0  0  0  0  0  0  0  0  0  0  0
  139.8800   69.1450  227.1300 C   0  0  0  0  0  0  0  0  0  0  0  0
  140.3790   69.6100  228.3360 C   0  0  0  0  0  0  0  0  0  0  0  0
  140.9760   70.8750  228.3430 C   0  0  0  0  0  0  0  0  0  0  0  0
  141.0510   71.6060  227.1750 C   0  0  0  0  0  0  0  0  0  0  0  0
  140.5520   71.1400  225.9750 C   0  0  0  0  0  0  0  0  0  0  0  0
  140.6310   71.8640  224.8420 N   0  0  0  0  0  0  0  0  0  0  0  0
  142.1400   77.7440  219.8710 C   0  0  0  0  0  0  0  0  0  0  0  0
  142.1630   78.6570  219.0040 O   0  0  0  0  0  0  0  0  0  0  0  0
  141.8900   78.1400  221.2120 N   0  0  0  0  0  0  0  0  0  0  0  0
  141.6740   79.5280  221.5580 C   0  0  0  0  0  0  0  0  0  0  0  0
  140.4060   79.5430  222.4130 C   0  0  0  0  0  0  0  0  0  0  0  0
  140.8550   79.2840  223.8180 C   0  0  0  0  0  0  0  0  0  0  0  0
  142.2710   79.8130  223.8830 C   0  0  0  0  0  0  0  0  0  0  0  0
  142.7090   80.1000  222.4710 C   0  0  0  0  0  0  0  0  0  0  0  0
  143.7348   74.7223  220.3538 H   0  0  0  0  0  0  0  0  0  0  0  0
  143.5937   73.0941  219.6084 H   0  0  0  0  0  0  0  0  0  0  0  0
  145.1740   73.9479  219.6084 H   0  0  0  0  0  0  0  0  0  0  0  0
  144.6895   74.8780  217.6844 H   0  0  0  0  0  0  0  0  0  0  0  0
  142.1890   73.2002  218.2855 H   0  0  0  0  0  0  0  0  0  0  0  0
  142.0660   74.3330  216.8968 H   0  0  0  0  0  0  0  0  0  0  0  0
  143.3177   73.0446  216.8968 H   0  0  0  0  0  0  0  0  0  0  0  0
  143.8337   76.8050  218.1650 H   0  0  0  0  0  0  0  0  0  0  0  0
  142.2898   76.0137  217.5297 H   0  0  0  0  0  0  0  0  0  0  0  0
  143.0263   76.0052  220.4054 H   0  0  0  0  0  0  0  0  0  0  0  0
  140.6270   75.3200  218.8230 H   0  0  0  0  0  0  0  0  0  0  0  0
  138.5666   74.8946  221.1628 H   0  0  0  0  0  0  0  0  0  0  0  0
  139.4079   73.5260  220.2545 H   0  0  0  0  0  0  0  0  0  0  0  0
  138.7080   73.5410  223.0740 H   0  0  0  0  0  0  0  0  0  0  0  0
  139.1574   69.8163  222.6499 H   0  0  0  0  0  0  0  0  0  0  0  0
  138.9966   68.4566  224.7107 H   0  0  0  0  0  0  0  0  0  0  0  0
  139.4046   68.1536  227.0958 H   0  0  0  0  0  0  0  0  0  0  0  0
  140.3084   69.0071  229.2534 H   0  0  0  0  0  0  0  0  0  0  0  0
  141.3849   71.2862  229.2777 H   0  0  0  0  0  0  0  0  0  0  0  0
  141.5264   72.5976  227.2010 H   0  0  0  0  0  0  0  0  0  0  0  0
  141.8510   77.4550  222.0130 H   0  0  0  0  0  0  0  0  0  0  0  0
  141.6609   80.0999  220.6185 H   0  0  0  0  0  0  0  0  0  0  0  0
  139.9098   80.5223  222.3443 H   0  0  0  0  0  0  0  0  0  0  0  0
  139.6819   78.7872  222.0747 H   0  0  0  0  0  0  0  0  0  0  0  0
  140.2108   79.8159  224.5336 H   0  0  0  0  0  0  0  0  0  0  0  0
  140.8015   78.2164  224.0776 H   0  0  0  0  0  0  0  0  0  0  0  0
  142.3007   80.7358  224.4809 H   0  0  0  0  0  0  0  0  0  0  0  0
  142.9392   79.0780  224.3555 H   0  0  0  0  0  0  0  0  0  0  0  0
  142.7890   81.1860  222.3154 H   0  0  0  0  0  0  0  0  0  0  0  0
  143.6938   79.6526  222.2710 H   0  0  0  0  0  0  0  0  0  0  0  0
  1  2  1  0
  2  3  1  0
  2  4  1  0
  4  5  1  0
  5  6  1  0
  6  7  1  0
  7  8  2  0
  7  9  1  0
  9 10  1  0
 10 11  1  0
 11 12  2  0
 11 13  1  0
 13 14  2  0
 14 15  1  0
 15 16  2  0
 16 17  1  0
 17 18  2  0
 18 19  1  0
 19 20  2  0
 20 21  1  0
 21 22  2  0
  5 23  1  0
 23 24  2  0
 23 25  1  0
 25 26  1  0
 26 27  1  0
 27 28  1  0
 28 29  1  0
 29 30  1  0
 22 13  1  0
 30 26  1  0
 21 16  1  0
  1 31  1  0
  1 32  1  0
  1 33  1  0
  2 34  1  0
  3 35  1  0
  3 36  1  0
  3 37  1  0
  4 38  1  0
  4 39  1  0
  5 40  1  1
  6 41  1  0
  9 42  1  0
  9 43  1  0
 10 44  1  0
 14 45  1  0
 15 46  1  0
 17 47  1  0
 18 48  1  0
 19 49  1  0
 20 50  1  0
 25 51  1  0
 26 52  1  0
 27 53  1  0
 27 54  1  0
 28 55  1  0
 28 56  1  0
 29 57  1  0
 29 58  1  0
 30 59  1  0
 30 60  1  0
M  END
>  <smiles>  (18) 
CC(C)C[C@H](NC(=O)CNC(=O)c1ccc2ccccc2n1)C(=O)NC1CCCC1

>  <score_type>  (18) 
oracle

>  <origin>  (18) 
autodockgpu

>  <m_score__min__energy>  (18) 
-9.0600000000000005

>  <m_primary>  (18) 
energy

>  <rmsd>  (18) 
2.5509239908578314

>  <m_score__min__rmsd>  (18) 
2.5509239908578314

>  <meeko>  (18) 
{"free_energy": -8.79, "intermolecular_energy": -11.18, "internal_energy": -2.49, "cluster_size": 39, "cluster_id": 1, "rank_in_cluster": 5}

>  <energy>  (18) 
-8.6

>  <cluster_rmsd>  (18) 
1.6

>  <cluster>  (18) 
1

$$$$

     RDKit          3D

 60 62  0  0  0  0  0  0  0  0999 V2000
  137.2770   69.2550  224.5770 C   0  0  0  0  0  0  0  0  0  0  0  0
  137.4620   70.0110  223.2920 C   0  0  0  0  0  0  0  0  0  0  0  0
  136.6510   71.3070  223.4370 C   0  0  0  0  0  0  0  0  0  0  0  0
  138.8570   70.4100  222.9890 C   0  0  0  0  0  0  0  0  0  0  0  0
  139.4100   71.5530  223.8010 C   0  0  2  0  0  0  0  0  0  0  0  0
  139.9070   72.6210  222.9310 N   0  0  0  0  0  0  0  0  0  0  0  0
  140.8080   72.3840  221.8660 C   0  0  0  0  0  0  0  0  0  0  0  0
  141.1810   71.1870  221.6750 O   0  0  0  0  0  0  0  0  0  0  0  0
  141.3410   73.4270  220.9640 C   0  0  0  0  0  0  0  0  0  0  0  0
  141.3510   74.7540  221.4860 N   0  0  0  0  0  0  0  0  0  0  0  0
  140.1510   75.4670  221.8030 C   0  0  0  0  0  0  0  0  0  0  0  0
  138.9980   74.9400  221.6390 O   0  0  0  0  0  0  0  0  0  0  0  0
  140.2400   76.8450  222.3330 C   0  0  0  0  0  0  0  0  0  0  0  0
  139.0870   77.4930  222.7220 C   0  0  0  0  0  0  0  0  0  0  0  0
  139.1940   78.7780  223.2140 C   0  0  0  0  0  0  0  0  0  0  0  0
  140.4030   79.4310  223.3280 C   0  0  0  0  0  0  0  0  0  0  0  0
  140.5200   80.7190  223.8190 C   0  0  0  0  0  0  0  0  0  0  0  0
  141.7450   81.3560  223.9250 C   0  0  0  0  0  0  0  0  0  0  0  0
  142.8790   80.6460  223.5140 C   0  0  0  0  0  0  0  0  0  0  0  0
  142.7460   79.3620  223.0270 C   0  0  0  0  0  0  0  0  0  0  0  0
  141.5230   78.7310  222.9220 C   0  0  0  0  0  0  0  0  0  0  0  0
  141.4080   77.4770  222.4440 N   0  0  0  0  0  0  0  0  0  0  0  0
  140.3590   71.1550  224.8470 C   0  0  0  0  0  0  0  0  0  0  0  0
  141.1990   71.9220  225.3880 O   0  0  0  0  0  0  0  0  0  0  0  0
  140.3420   69.8070  225.2930 N   0  0  0  0  0  0  0  0  0  0  0  0
  141.2480   69.3440  226.3200 C   0  0  0  0  0  0  0  0  0  0  0  0
  140.9910   70.2460  227.5290 C   0  0  0  0  0  0  0  0  0  0  0  0
  139.8550   69.6180  228.2760 C   0  0  0  0  0  0  0  0  0  0  0  0
  139.9480   68.1410  227.9660 C   0  0  0  0  0  0  0  0  0  0  0  0
  140.9380   67.9790  226.8420 C   0  0  0  0  0  0  0  0  0  0  0  0
  137.4427   69.9321  225.4279 H   0  0  0  0  0  0  0  0  0  0  0  0
  136.2540   68.8532  224.6220 H   0  0  0  0  0  0  0  0  0  0  0  0
  137.9988   68.4262  224.6220 H   0  0  0  0  0  0  0  0  0  0  0  0
  137.1449   69.3440  222.4768 H   0  0  0  0  0  0  0  0  0  0  0  0
  136.5093   71.5334  224.5041 H   0  0  0  0  0  0  0  0  0  0  0  0
  137.1928   72.1344  222.9554 H   0  0  0  0  0  0  0  0  0  0  0  0
  135.6700   71.1815  222.9554 H   0  0  0  0  0  0  0  0  0  0  0  0
  139.5014   69.5347  223.1581 H   0  0  0  0  0  0  0  0  0  0  0  0
  138.8436   70.7657  221.9482 H   0  0  0  0  0  0  0  0  0  0  0  0
  138.5652   71.9627  224.3740 H   0  0  0  0  0  0  0  0  0  0  0  0
  139.5520   73.5770  223.1330 H   0  0  0  0  0  0  0  0  0  0  0  0
  142.3766   73.1565  220.7103 H   0  0  0  0  0  0  0  0  0  0  0  0
  140.6600   73.4512  220.1005 H   0  0  0  0  0  0  0  0  0  0  0  0
  142.2500   75.2920  221.6690 H   0  0  0  0  0  0  0  0  0  0  0  0
  138.1075   76.9988  222.6423 H   0  0  0  0  0  0  0  0  0  0  0  0
  138.2789   79.3017  223.5275 H   0  0  0  0  0  0  0  0  0  0  0  0
  139.6120   81.2536  224.1349 H   0  0  0  0  0  0  0  0  0  0  0  0
  141.8238   82.3807  224.3172 H   0  0  0  0  0  0  0  0  0  0  0  0
  143.8739   81.1106  223.5791 H   0  0  0  0  0  0  0  0  0  0  0  0
  143.6495   78.8203  222.7102 H   0  0  0  0  0  0  0  0  0  0  0  0
  139.6790   69.0850  224.9040 H   0  0  0  0  0  0  0  0  0  0  0  0
  142.2592   69.3480  225.8870 H   0  0  0  0  0  0  0  0  0  0  0  0
  141.8864   70.2963  228.1660 H   0  0  0  0  0  0  0  0  0  0  0  0
  140.7523   71.2749  227.2216 H   0  0  0  0  0  0  0  0  0  0  0  0
  139.9600   69.7930  229.3569 H   0  0  0  0  0  0  0  0  0  0  0  0
  138.8835   70.0407  227.9801 H   0  0  0  0  0  0  0  0  0  0  0  0
  140.2937   67.5913  228.8539 H   0  0  0  0  0  0  0  0  0  0  0  0
  138.9643   67.7414  227.6783 H   0  0  0  0  0  0  0  0  0  0  0  0
  141.8561   67.5017  227.2153 H   0  0  0  0  0  0  0  0  0  0  0  0
  140.5218   67.3439  226.0461 H   0  0  0  0  0  0  0  0  0  0  0  0
  1  2  1  0
  2  3  1  0
  2  4  1  0
  4  5  1  0
  5  6  1  0
  6  7  1  0
  7  8  2  0
  7  9  1  0
  9 10  1  0
 10 11  1  0
 11 12  2  0
 11 13  1  0
 13 14  2  0
 14 15  1  0
 15 16  2  0
 16 17  1  0
 17 18  2  0
 18 19  1  0
 19 20  2  0
 20 21  1  0
 21 22  2  0
  5 23  1  0
 23 24  2  0
 23 25  1  0
 25 26  1  0
 26 27  1  0
 27 28  1  0
 28 29  1  0
 29 30  1  0
 22 13  1  0
 30 26  1  0
 21 16  1  0
  1 31  1  0
  1 32  1  0
  1 33  1  0
  2 34  1  0
  3 35  1  0
  3 36  1  0
  3 37  1  0
  4 38  1  0
  4 39  1  0
  5 40  1  1
  6 41  1  0
  9 42  1  0
  9 43  1  0
 10 44  1  0
 14 45  1  0
 15 46  1  0
 17 47  1  0
 18 48  1  0
 19 49  1  0
 20 50  1  0
 25 51  1  0
 26 52  1  0
 27 53  1  0
 27 54  1  0
 28 55  1  0
 28 56  1  0
 29 57  1  0
 29 58  1  0
 30 59  1  0
 30 60  1  0
M  END
>  <smiles>  (19) 
CC(C)C[C@H](NC(=O)CNC(=O)c1ccc2ccccc2n1)C(=O)NC1CCCC1

>  <score_type>  (19) 
oracle

>  <origin>  (19) 
autodockgpu

>  <m_score__min__energy>  (19) 
-9.0600000000000005

>  <m_primary>  (19) 
energy

>  <rmsd>  (19) 
9.67027835758095

>  <m_score__min__rmsd>  (19) 
9.67027835758095

>  <meeko>  (19) 
{"free_energy": -8.69, "intermolecular_energy": -11.08, "internal_energy": -2.69, "cluster_size": 10, "cluster_id": 2, "rank_in_cluster": 2}

>  <energy>  (19) 
-8.6

>  <cluster_rmsd>  (19) 
1.62

>  <cluster>  (19) 
1

$$$$

     RDKit          3D

 60 62  0  0  0  0  0  0  0  0999 V2000
  142.2100   79.2050  218.8490 C   0  0  0  0  0  0  0  0  0  0  0  0
  141.5170   77.8750  218.7620 C   0  0  0  0  0  0  0  0  0  0  0  0
  141.2590   77.6230  217.2700 C   0  0  0  0  0  0  0  0  0  0  0  0
  142.3000   76.7200  219.2630 C   0  0  0  0  0  0  0  0  0  0  0  0
  141.8950   76.1790  220.6090 C   0  0  2  0  0  0  0  0  0  0  0  0
  141.3020   74.8460  220.4810 N   0  0  0  0  0  0  0  0  0  0  0  0
  142.0750   73.6840  220.2510 C   0  0  0  0  0  0  0  0  0  0  0  0
  143.3310   73.8300  220.1600 O   0  0  0  0  0  0  0  0  0  0  0  0
  141.5240   72.3190  220.1110 C   0  0  0  0  0  0  0  0  0  0  0  0
  141.2310   71.6390  221.3280 N   0  0  0  0  0  0  0  0  0  0  0  0
  140.5030   72.2510  222.3980 C   0  0  0  0  0  0  0  0  0  0  0  0
  140.0690   73.4500  222.3100 O   0  0  0  0  0  0  0  0  0  0  0  0
  140.2430   71.4840  223.6350 C   0  0  0  0  0  0  0  0  0  0  0  0
  139.4680   70.3450  223.5730 C   0  0  0  0  0  0  0  0  0  0  0  0
  139.2390   69.6450  224.7400 C   0  0  0  0  0  0  0  0  0  0  0  0
  139.7530   70.0430  225.9560 C   0  0  0  0  0  0  0  0  0  0  0  0
  139.5280   69.3480  227.1310 C   0  0  0  0  0  0  0  0  0  0  0  0
  140.0540   69.7650  228.3430 C   0  0  0  0  0  0  0  0  0  0  0  0
  140.8310   70.9280  228.3430 C   0  0  0  0  0  0  0  0  0  0  0  0
  141.0470   71.6100  227.1620 C   0  0  0  0  0  0  0  0  0  0  0  0
  140.5210   71.1920  225.9570 C   0  0  0  0  0  0  0  0  0  0  0  0
  140.7390   71.8670  224.8130 N   0  0  0  0  0  0  0  0  0  0  0  0
  141.0960   77.1030  221.4230 C   0  0  0  0  0  0  0  0  0  0  0  0
  139.8740   76.9560  221.6910 O   0  0  0  0  0  0  0  0  0  0  0  0
  141.7350   78.2540  221.9550 N   0  0  0  0  0  0  0  0  0  0  0  0
  141.0120   79.2080  222.7660 C   0  0  0  0  0  0  0  0  0  0  0  0
  141.8560   79.3930  224.0290 C   0  0  0  0  0  0  0  0  0  0  0  0
  142.8550   80.4600  223.7020 C   0  0  0  0  0  0  0  0  0  0  0  0
  142.1850   81.3180  222.6510 C   0  0  0  0  0  0  0  0  0  0  0  0
  140.9530   80.5840  222.1890 C   0  0  0  0  0  0  0  0  0  0  0  0
  142.3514   79.4764  219.9056 H   0  0  0  0  0  0  0  0  0  0  0  0
  143.1895   79.1412  218.3526 H   0  0  0  0  0  0  0  0  0  0  0  0
  141.5965   79.9713  218.3526 H   0  0  0  0  0  0  0  0  0  0  0  0
  140.6180   77.9383  219.3926 H   0  0  0  0  0  0  0  0  0  0  0  0
  140.4762   76.8584  217.1573 H   0  0  0  0  0  0  0  0  0  0  0  0
  140.9304   78.5575  216.7918 H   0  0  0  0  0  0  0  0  0  0  0  0
  142.1855   77.2725  216.7918 H   0  0  0  0  0  0  0  0  0  0  0  0
  142.2034   75.9052  218.5303 H   0  0  0  0  0  0  0  0  0  0  0  0
  143.3271   77.0924  219.3910 H   0  0  0  0  0  0  0  0  0  0  0  0
  142.8226   76.0720  221.1905 H   0  0  0  0  0  0  0  0  0  0  0  0
  140.2680   74.7950  220.5790 H   0  0  0  0  0  0  0  0  0  0  0  0
  140.5918   72.3896  219.5313 H   0  0  0  0  0  0  0  0  0  0  0  0
  142.3125   71.7281  219.6220 H   0  0  0  0  0  0  0  0  0  0  0  0
  141.5360   70.6360  221.5140 H   0  0  0  0  0  0  0  0  0  0  0  0
  139.0432   70.0032  222.6177 H   0  0  0  0  0  0  0  0  0  0  0  0
  138.6228   68.7347  224.6986 H   0  0  0  0  0  0  0  0  0  0  0  0
  138.9128   68.4366  227.1020 H   0  0  0  0  0  0  0  0  0  0  0  0
  139.8676   69.2028  229.2700 H   0  0  0  0  0  0  0  0  0  0  0  0
  141.2689   71.2985  229.2816 H   0  0  0  0  0  0  0  0  0  0  0  0
  141.6621   72.5217  227.1827 H   0  0  0  0  0  0  0  0  0  0  0  0
  142.7540   78.4690  221.7890 H   0  0  0  0  0  0  0  0  0  0  0  0
  139.9895   78.8215  222.8892 H   0  0  0  0  0  0  0  0  0  0  0  0
  141.2215   79.7078  224.8706 H   0  0  0  0  0  0  0  0  0  0  0  0
  142.3488   78.4556  224.3265 H   0  0  0  0  0  0  0  0  0  0  0  0
  143.0893   81.0567  224.5959 H   0  0  0  0  0  0  0  0  0  0  0  0
  143.8064   80.0387  223.3451 H   0  0  0  0  0  0  0  0  0  0  0  0
  141.9040   82.2901  223.0823 H   0  0  0  0  0  0  0  0  0  0  0  0
  142.8666   81.5023  221.8076 H   0  0  0  0  0  0  0  0  0  0  0  0
  140.0505   81.1027  222.5446 H   0  0  0  0  0  0  0  0  0  0  0  0
  140.9133   80.5437  221.0905 H   0  0  0  0  0  0  0  0  0  0  0  0
  1  2  1  0
  2  3  1  0
  2  4  1  0
  4  5  1  0
  5  6  1  0
  6  7  1  0
  7  8  2  0
  7  9  1  0
  9 10  1  0
 10 11  1  0
 11 12  2  0
 11 13  1  0
 13 14  2  0
 14 15  1  0
 15 16  2  0
 16 17  1  0
 17 18  2  0
 18 19  1  0
 19 20  2  0
 20 21  1  0
 21 22  2  0
  5 23  1  0
 23 24  2  0
 23 25  1  0
 25 26  1  0
 26 27  1  0
 27 28  1  0
 28 29  1  0
 29 30  1  0
 22 13  1  0
 30 26  1  0
 21 16  1  0
  1 31  1  0
  1 32  1  0
  1 33  1  0
  2 34  1  0
  3 35  1  0
  3 36  1  0
  3 37  1  0
  4 38  1  0
  4 39  1  0
  5 40  1  1
  6 41  1  0
  9 42  1  0
  9 43  1  0
 10 44  1  0
 14 45  1  0
 15 46  1  0
 17 47  1  0
 18 48  1  0
 19 49  1  0
 20 50  1  0
 25 51  1  0
 26 52  1  0
 27 53  1  0
 27 54  1  0
 28 55  1  0
 28 56  1  0
 29 57  1  0
 29 58  1  0
 30 59  1  0
 30 60  1  0
M  END
>  <smiles>  (20) 
CC(C)C[C@H](NC(=O)CNC(=O)c1ccc2ccccc2n1)C(=O)NC1CCCC1

>  <score_type>  (20) 
oracle

>  <origin>  (20) 
autodockgpu

>  <m_score__min__energy>  (20) 
-9.0600000000000005

>  <m_primary>  (20) 
energy

>  <rmsd>  (20) 
2.7719758352682584

>  <m_score__min__rmsd>  (20) 
2.7719758352682584

>  <meeko>  (20) 
{"free_energy": -8.47, "intermolecular_energy": -10.85, "internal_energy": -2.63, "cluster_size": 39, "cluster_id": 1, "rank_in_cluster": 30}

>  <energy>  (20) 
-8.59

>  <cluster_rmsd>  (20) 
1.64

>  <cluster>  (20) 
1

$$$$

     RDKit          3D

 60 62  0  0  0  0  0  0  0  0999 V2000
  141.7790   79.7270  219.3530 C   0  0  0  0  0  0  0  0  0  0  0  0
  141.3960   78.4270  218.7060 C   0  0  0  0  0  0  0  0  0  0  0  0
  142.6050   77.4950  218.8680 C   0  0  0  0  0  0  0  0  0  0  0  0
  140.2360   77.7350  219.3150 C   0  0  0  0  0  0  0  0  0  0  0  0
  140.5270   76.9090  220.5400 C   0  0  2  0  0  0  0  0  0  0  0  0
  139.7560   75.6640  220.5280 N   0  0  0  0  0  0  0  0  0  0  0  0
  139.9700   74.6220  221.4610 C   0  0  0  0  0  0  0  0  0  0  0  0
  140.8700   74.8010  222.3350 O   0  0  0  0  0  0  0  0  0  0  0  0
  139.2230   73.3470  221.4870 C   0  0  0  0  0  0  0  0  0  0  0  0
  139.4420   72.5210  222.6280 N   0  0  0  0  0  0  0  0  0  0  0  0
  139.0710   71.1390  222.6620 C   0  0  0  0  0  0  0  0  0  0  0  0
  138.5250   70.5690  221.6570 O   0  0  0  0  0  0  0  0  0  0  0  0
  139.3230   70.3460  223.8850 C   0  0  0  0  0  0  0  0  0  0  0  0
  138.9410   69.0210  223.9200 C   0  0  0  0  0  0  0  0  0  0  0  0
  139.1870   68.3010  225.0710 C   0  0  0  0  0  0  0  0  0  0  0  0
  139.7940   68.8550  226.1780 C   0  0  0  0  0  0  0  0  0  0  0  0
  140.0440   68.1410  227.3370 C   0  0  0  0  0  0  0  0  0  0  0  0
  140.6550   68.7170  228.4380 C   0  0  0  0  0  0  0  0  0  0  0  0
  141.0180   70.0650  228.3410 C   0  0  0  0  0  0  0  0  0  0  0  0
  140.7640   70.7640  227.1790 C   0  0  0  0  0  0  0  0  0  0  0  0
  140.1530   70.1860  226.0840 C   0  0  0  0  0  0  0  0  0  0  0  0
  139.9100   70.8800  224.9560 N   0  0  0  0  0  0  0  0  0  0  0  0
  140.4380   77.6430  221.8080 C   0  0  0  0  0  0  0  0  0  0  0  0
  139.3920   77.7700  222.4970 O   0  0  0  0  0  0  0  0  0  0  0  0
  141.6140   78.2640  222.3080 N   0  0  0  0  0  0  0  0  0  0  0  0
  141.6020   79.0050  223.5500 C   0  0  0  0  0  0  0  0  0  0  0  0
  142.7600   79.9990  223.4430 C   0  0  0  0  0  0  0  0  0  0  0  0
  142.2040   81.2020  222.7450 C   0  0  0  0  0  0  0  0  0  0  0  0
  140.7310   81.2120  223.0890 C   0  0  0  0  0  0  0  0  0  0  0  0
  140.4100   79.8860  223.7280 C   0  0  0  0  0  0  0  0  0  0  0  0
  141.7462   79.6158  220.4469 H   0  0  0  0  0  0  0  0  0  0  0  0
  142.7972   80.0049  219.0430 H   0  0  0  0  0  0  0  0  0  0  0  0
  141.0741   80.5125  219.0430 H   0  0  0  0  0  0  0  0  0  0  0  0
  141.1115   78.6554  217.6683 H   0  0  0  0  0  0  0  0  0  0  0  0
  142.8071   77.3392  219.9380 H   0  0  0  0  0  0  0  0  0  0  0  0
  142.3888   76.5277  218.3910 H   0  0  0  0  0  0  0  0  0  0  0  0
  143.4855   77.9503  218.3910 H   0  0  0  0  0  0  0  0  0  0  0  0
  139.4962   78.5000  219.5932 H   0  0  0  0  0  0  0  0  0  0  0  0
  139.8837   77.0226  218.5545 H   0  0  0  0  0  0  0  0  0  0  0  0
  141.5916   76.6383  220.4824 H   0  0  0  0  0  0  0  0  0  0  0  0
  139.0240   75.5870  219.7940 H   0  0  0  0  0  0  0  0  0  0  0  0
  138.1497   73.5841  221.4434 H   0  0  0  0  0  0  0  0  0  0  0  0
  139.5899   72.7691  220.6259 H   0  0  0  0  0  0  0  0  0  0  0  0
  139.8930   72.8820  223.5210 H   0  0  0  0  0  0  0  0  0  0  0  0
  138.4532   68.5509  223.0533 H   0  0  0  0  0  0  0  0  0  0  0  0
  138.8870   67.2433  225.1068 H   0  0  0  0  0  0  0  0  0  0  0  0
  139.7480   67.0827  227.3850 H   0  0  0  0  0  0  0  0  0  0  0  0
  140.8475   68.1377  229.3531 H   0  0  0  0  0  0  0  0  0  0  0  0
  141.5052   70.5666  229.1901 H   0  0  0  0  0  0  0  0  0  0  0  0
  141.0595   71.8221  227.1227 H   0  0  0  0  0  0  0  0  0  0  0  0
  142.5410   78.2190  221.8070 H   0  0  0  0  0  0  0  0  0  0  0  0
  141.6356   78.2700  224.3677 H   0  0  0  0  0  0  0  0  0  0  0  0
  143.1241   80.2718  224.4445 H   0  0  0  0  0  0  0  0  0  0  0  0
  143.6112   79.5704  222.8937 H   0  0  0  0  0  0  0  0  0  0  0  0
  142.6915   82.1188  223.1081 H   0  0  0  0  0  0  0  0  0  0  0  0
  142.3731   81.1629  221.6588 H   0  0  0  0  0  0  0  0  0  0  0  0
  140.5142   82.0304  223.7913 H   0  0  0  0  0  0  0  0  0  0  0  0
  140.1218   81.3663  222.1862 H   0  0  0  0  0  0  0  0  0  0  0  0
  140.2019   80.0253  224.7991 H   0  0  0  0  0  0  0  0  0  0  0  0
  139.5209   79.4355  223.2627 H   0  0  0  0  0  0  0  0  0  0  0  0
  1  2  1  0
  2  3  1  0
  2  4  1  0
  4  5  1  0
  5  6  1  0
  6  7  1  0
  7  8  2  0
  7  9  1  0
  9 10  1  0
 10 11  1  0
 11 12  2  0
 11 13  1  0
 13 14  2  0
 14 15  1  0
 15 16  2  0
 16 17  1  0
 17 18  2  0
 18 19  1  0
 19 20  2  0
 20 21  1  0
 21 22  2  0
  5 23  1  0
 23 24  2  0
 23 25  1  0
 25 26  1  0
 26 27  1  0
 27 28  1  0
 28 29  1  0
 29 30  1  0
 22 13  1  0
 30 26  1  0
 21 16  1  0
  1 31  1  0
  1 32  1  0
  1 33  1  0
  2 34  1  0
  3 35  1  0
  3 36  1  0
  3 37  1  0
  4 38  1  0
  4 39  1  0
  5 40  1  6
  6 41  1  0
  9 42  1  0
  9 43  1  0
 10 44  1  0
 14 45  1  0
 15 46  1  0
 17 47  1  0
 18 48  1  0
 19 49  1  0
 20 50  1  0
 25 51  1  0
 26 52  1  0
 27 53  1  0
 27 54  1  0
 28 55  1  0
 28 56  1  0
 29 57  1  0
 29 58  1  0
 30 59  1  0
 30 60  1  0
M  END
>  <smiles>  (21) 
CC(C)C[C@H](NC(=O)CNC(=O)c1ccc2ccccc2n1)C(=O)NC1CCCC1

>  <score_type>  (21) 
oracle

>  <origin>  (21) 
autodockgpu

>  <m_score__min__energy>  (21) 
-9.0600000000000005

>  <m_primary>  (21) 
energy

>  <rmsd>  (21) 
2.322158483728127

>  <m_score__min__rmsd>  (21) 
2.322158483728127

>  <meeko>  (21) 
{"free_energy": -8.67, "intermolecular_energy": -11.06, "internal_energy": -2.24, "cluster_size": 39, "cluster_id": 1, "rank_in_cluster": 12}

>  <energy>  (21) 
-8.58

>  <cluster_rmsd>  (21) 
1.58

>  <cluster>  (21) 
1

$$$$

     RDKit          3D

 60 62  0  0  0  0  0  0  0  0999 V2000
  144.5200   74.2320  220.4700 C   0  0  0  0  0  0  0  0  0  0  0  0
  144.0590   74.4670  219.0590 C   0  0  0  0  0  0  0  0  0  0  0  0
  143.1640   73.2730  218.6970 C   0  0  0  0  0  0  0  0  0  0  0  0
  143.2460   75.6900  218.8550 C   0  0  0  0  0  0  0  0  0  0  0  0
  142.3490   76.0860  219.9980 C   0  0  2  0  0  0  0  0  0  0  0  0
  141.1430   75.2560  220.0310 N   0  0  0  0  0  0  0  0  0  0  0  0
  140.3970   75.0360  221.2120 C   0  0  0  0  0  0  0  0  0  0  0  0
  140.8080   75.5960  222.2720 O   0  0  0  0  0  0  0  0  0  0  0  0
  139.1770   74.2040  221.2970 C   0  0  0  0  0  0  0  0  0  0  0  0
  139.1460   73.2530  222.3570 N   0  0  0  0  0  0  0  0  0  0  0  0
  140.2400   72.3740  222.6380 C   0  0  0  0  0  0  0  0  0  0  0  0
  141.3140   72.4040  221.9470 O   0  0  0  0  0  0  0  0  0  0  0  0
  140.1310   71.4060  223.7510 C   0  0  0  0  0  0  0  0  0  0  0  0
  139.5050   70.1970  223.5340 C   0  0  0  0  0  0  0  0  0  0  0  0
  139.4150   69.3090  224.5870 C   0  0  0  0  0  0  0  0  0  0  0  0
  139.9240   69.5880  225.8380 C   0  0  0  0  0  0  0  0  0  0  0  0
  139.8380   68.7040  226.8990 C   0  0  0  0  0  0  0  0  0  0  0  0
  140.3560   69.0050  228.1480 C   0  0  0  0  0  0  0  0  0  0  0  0
  140.9790   70.2480  228.3060 C   0  0  0  0  0  0  0  0  0  0  0  0
  141.0570   71.1180  227.2380 C   0  0  0  0  0  0  0  0  0  0  0  0
  140.5390   70.8150  225.9950 C   0  0  0  0  0  0  0  0  0  0  0  0
  140.6220   71.6740  224.9610 N   0  0  0  0  0  0  0  0  0  0  0  0
  142.0750   77.5250  220.0890 C   0  0  0  0  0  0  0  0  0  0  0  0
  142.0490   78.3170  219.1110 O   0  0  0  0  0  0  0  0  0  0  0  0
  141.8190   78.0800  221.3710 N   0  0  0  0  0  0  0  0  0  0  0  0
  141.5410   79.4900  221.5370 C   0  0  0  0  0  0  0  0  0  0  0  0
  140.2780   79.5580  222.3980 C   0  0  0  0  0  0  0  0  0  0  0  0
  140.7470   79.5040  223.8190 C   0  0  0  0  0  0  0  0  0  0  0  0
  142.1370   80.1000  223.7990 C   0  0  0  0  0  0  0  0  0  0  0  0
  142.5530   80.2220  222.3570 C   0  0  0  0  0  0  0  0  0  0  0  0
  143.7650   74.6169  221.1713 H   0  0  0  0  0  0  0  0  0  0  0  0
  144.6583   73.1534  220.6357 H   0  0  0  0  0  0  0  0  0  0  0  0
  145.4741   74.7537  220.6357 H   0  0  0  0  0  0  0  0  0  0  0  0
  144.9608   74.5863  218.4405 H   0  0  0  0  0  0  0  0  0  0  0  0
  142.8036   72.7922  219.6184 H   0  0  0  0  0  0  0  0  0  0  0  0
  142.3049   73.6244  218.1066 H   0  0  0  0  0  0  0  0  0  0  0  0
  143.7423   72.5470  218.1066 H   0  0  0  0  0  0  0  0  0  0  0  0
  143.9364   76.5249  218.6644 H   0  0  0  0  0  0  0  0  0  0  0  0
  142.5727   75.4613  218.0157 H   0  0  0  0  0  0  0  0  0  0  0  0
  142.9149   75.8803  220.9186 H   0  0  0  0  0  0  0  0  0  0  0  0
  140.8530   74.8370  219.1240 H   0  0  0  0  0  0  0  0  0  0  0  0
  138.3172   74.8783  221.4237 H   0  0  0  0  0  0  0  0  0  0  0  0
  139.1522   73.6156  220.3679 H   0  0  0  0  0  0  0  0  0  0  0  0
  138.3070   73.1400  223.0030 H   0  0  0  0  0  0  0  0  0  0  0  0
  139.0881   69.9465  222.5474 H   0  0  0  0  0  0  0  0  0  0  0  0
  138.9181   68.3416  224.4219 H   0  0  0  0  0  0  0  0  0  0  0  0
  139.3436   67.7333  226.7461 H   0  0  0  0  0  0  0  0  0  0  0  0
  140.2805   68.2939  228.9838 H   0  0  0  0  0  0  0  0  0  0  0  0
  141.4056   70.5309  229.2796 H   0  0  0  0  0  0  0  0  0  0  0  0
  141.5509   72.0902  227.3826 H   0  0  0  0  0  0  0  0  0  0  0  0
  141.8180   77.5030  222.2540 H   0  0  0  0  0  0  0  0  0  0  0  0
  141.4966   79.9341  220.5316 H   0  0  0  0  0  0  0  0  0  0  0  0
  139.7363   80.4966  222.2092 H   0  0  0  0  0  0  0  0  0  0  0  0
  139.5879   78.7327  222.1687 H   0  0  0  0  0  0  0  0  0  0  0  0
  140.0830   80.0946  224.4674 H   0  0  0  0  0  0  0  0  0  0  0  0
  140.7447   78.4776  224.2147 H   0  0  0  0  0  0  0  0  0  0  0  0
  142.1275   81.0926  224.2730 H   0  0  0  0  0  0  0  0  0  0  0  0
  142.8412   79.4629  224.3542 H   0  0  0  0  0  0  0  0  0  0  0  0
  142.5810   81.2813  222.0620 H   0  0  0  0  0  0  0  0  0  0  0  0
  143.5566   79.7981  222.2049 H   0  0  0  0  0  0  0  0  0  0  0  0
  1  2  1  0
  2  3  1  0
  2  4  1  0
  4  5  1  0
  5  6  1  0
  6  7  1  0
  7  8  2  0
  7  9  1  0
  9 10  1  0
 10 11  1  0
 11 12  2  0
 11 13  1  0
 13 14  2  0
 14 15  1  0
 15 16  2  0
 16 17  1  0
 17 18  2  0
 18 19  1  0
 19 20  2  0
 20 21  1  0
 21 22  2  0
  5 23  1  0
 23 24  2  0
 23 25  1  0
 25 26  1  0
 26 27  1  0
 27 28  1  0
 28 29  1  0
 29 30  1  0
 22 13  1  0
 30 26  1  0
 21 16  1  0
  1 31  1  0
  1 32  1  0
  1 33  1  0
  2 34  1  0
  3 35  1  0
  3 36  1  0
  3 37  1  0
  4 38  1  0
  4 39  1  0
  5 40  1  1
  6 41  1  0
  9 42  1  0
  9 43  1  0
 10 44  1  0
 14 45  1  0
 15 46  1  0
 17 47  1  0
 18 48  1  0
 19 49  1  0
 20 50  1  0
 25 51  1  0
 26 52  1  0
 27 53  1  0
 27 54  1  0
 28 55  1  0
 28 56  1  0
 29 57  1  0
 29 58  1  0
 30 59  1  0
 30 60  1  0
M  END
>  <smiles>  (22) 
CC(C)C[C@H](NC(=O)CNC(=O)c1ccc2ccccc2n1)C(=O)NC1CCCC1

>  <score_type>  (22) 
oracle

>  <origin>  (22) 
autodockgpu

>  <m_score__min__energy>  (22) 
-9.0600000000000005

>  <m_primary>  (22) 
energy

>  <rmsd>  (22) 
2.6869046835082036

>  <m_score__min__rmsd>  (22) 
2.6869046835082036

>  <meeko>  (22) 
{"free_energy": -9.06, "intermolecular_energy": -11.45, "internal_energy": -2.5, "cluster_size": 39, "cluster_id": 1, "rank_in_cluster": 1}

>  <energy>  (22) 
-8.57

>  <cluster_rmsd>  (22) 
1.62

>  <cluster>  (22) 
1

$$$$

     RDKit          3D

 60 62  0  0  0  0  0  0  0  0999 V2000
  143.4980   76.4050  219.7130 C   0  0  0  0  0  0  0  0  0  0  0  0
  142.3830   75.4010  219.6390 C   0  0  0  0  0  0  0  0  0  0  0  0
  142.7880   74.2410  220.5600 C   0  0  0  0  0  0  0  0  0  0  0  0
  141.0650   75.8840  220.1140 C   0  0  0  0  0  0  0  0  0  0  0  0
  140.7920   75.7250  221.5870 C   0  0  2  0  0  0  0  0  0  0  0  0
  139.9130   74.5810  221.8370 N   0  0  0  0  0  0  0  0  0  0  0  0
  138.5820   74.5210  221.3630 C   0  0  0  0  0  0  0  0  0  0  0  0
  138.1590   75.5100  220.6920 O   0  0  0  0  0  0  0  0  0  0  0  0
  137.6550   73.3920  221.5920 C   0  0  0  0  0  0  0  0  0  0  0  0
  137.9710   72.5410  222.6910 N   0  0  0  0  0  0  0  0  0  0  0  0
  139.1550   71.7360  222.7270 C   0  0  0  0  0  0  0  0  0  0  0  0
  139.9990   71.7460  221.7680 O   0  0  0  0  0  0  0  0  0  0  0  0
  139.4120   70.8710  223.8980 C   0  0  0  0  0  0  0  0  0  0  0  0
  139.0510   69.5410  223.8460 C   0  0  0  0  0  0  0  0  0  0  0  0
  139.3000   68.7520  224.9500 C   0  0  0  0  0  0  0  0  0  0  0  0
  139.8920   69.2440  226.0950 C   0  0  0  0  0  0  0  0  0  0  0  0
  140.1470   68.4600  227.2070 C   0  0  0  0  0  0  0  0  0  0  0  0
  140.7430   68.9740  228.3460 C   0  0  0  0  0  0  0  0  0  0  0  0
  141.0850   70.3310  228.3390 C   0  0  0  0  0  0  0  0  0  0  0  0
  140.8260   71.0990  227.2220 C   0  0  0  0  0  0  0  0  0  0  0  0
  140.2320   70.5830  226.0880 C   0  0  0  0  0  0  0  0  0  0  0  0
  139.9840   71.3440  225.0060 N   0  0  0  0  0  0  0  0  0  0  0  0
  140.3660   76.9550  222.2650 C   0  0  0  0  0  0  0  0  0  0  0  0
  139.2090   77.1670  222.7150 O   0  0  0  0  0  0  0  0  0  0  0  0
  141.3200   77.9940  222.4350 N   0  0  0  0  0  0  0  0  0  0  0  0
  140.9710   79.2330  223.0940 C   0  0  0  0  0  0  0  0  0  0  0  0
  142.1980   79.6120  223.9260 C   0  0  0  0  0  0  0  0  0  0  0  0
  143.0970   80.3780  223.0060 C   0  0  0  0  0  0  0  0  0  0  0  0
  142.1730   81.0190  221.9950 C   0  0  0  0  0  0  0  0  0  0  0  0
  140.8130   80.3960  222.1700 C   0  0  0  0  0  0  0  0  0  0  0  0
  143.7322   76.6159  220.7669 H   0  0  0  0  0  0  0  0  0  0  0  0
  144.3901   75.9997  219.2131 H   0  0  0  0  0  0  0  0  0  0  0  0
  143.1881   77.3346  219.2131 H   0  0  0  0  0  0  0  0  0  0  0  0
  142.2554   75.1397  218.5781 H   0  0  0  0  0  0  0  0  0  0  0  0
  142.6797   74.5513  221.6098 H   0  0  0  0  0  0  0  0  0  0  0  0
  142.1393   73.3743  220.3650 H   0  0  0  0  0  0  0  0  0  0  0  0
  143.8352   73.9664  220.3650 H   0  0  0  0  0  0  0  0  0  0  0  0
  140.9926   76.9547  219.8725 H   0  0  0  0  0  0  0  0  0  0  0  0
  140.3193   75.2549  219.6059 H   0  0  0  0  0  0  0  0  0  0  0  0
  141.7609   75.5033  222.0583 H   0  0  0  0  0  0  0  0  0  0  0  0
  140.3270   73.7980  222.3820 H   0  0  0  0  0  0  0  0  0  0  0  0
  136.6521   73.8091  221.7660 H   0  0  0  0  0  0  0  0  0  0  0  0
  137.7281   72.7597  220.6948 H   0  0  0  0  0  0  0  0  0  0  0  0
  137.3470   72.4540  223.5480 H   0  0  0  0  0  0  0  0  0  0  0  0
  138.5766   69.1200  222.9472 H   0  0  0  0  0  0  0  0  0  0  0  0
  139.0157   67.6899  224.9161 H   0  0  0  0  0  0  0  0  0  0  0  0
  139.8676   67.3963  227.1850 H   0  0  0  0  0  0  0  0  0  0  0  0
  140.9402   68.3400  229.2230 H   0  0  0  0  0  0  0  0  0  0  0  0
  141.5592   70.7845  229.2219 H   0  0  0  0  0  0  0  0  0  0  0  0
  141.1036   72.1633  227.2360 H   0  0  0  0  0  0  0  0  0  0  0  0
  142.3150   77.9170  222.0950 H   0  0  0  0  0  0  0  0  0  0  0  0
  140.0253   79.0620  223.6292 H   0  0  0  0  0  0  0  0  0  0  0  0
  141.9022   80.2380  224.7808 H   0  0  0  0  0  0  0  0  0  0  0  0
  142.7004   78.7222  224.3332 H   0  0  0  0  0  0  0  0  0  0  0  0
  143.6539   81.1467  223.5619 H   0  0  0  0  0  0  0  0  0  0  0  0
  143.8454   79.7296  222.5271 H   0  0  0  0  0  0  0  0  0  0  0  0
  142.1157   82.1031  222.1723 H   0  0  0  0  0  0  0  0  0  0  0  0
  142.5450   80.8589  220.9723 H   0  0  0  0  0  0  0  0  0  0  0  0
  140.1165   81.1288  222.6034 H   0  0  0  0  0  0  0  0  0  0  0  0
  140.4070   80.0703  221.2010 H   0  0  0  0  0  0  0  0  0  0  0  0
  1  2  1  0
  2  3  1  0
  2  4  1  0
  4  5  1  0
  5  6  1  0
  6  7  1  0
  7  8  2  0
  7  9  1  0
  9 10  1  0
 10 11  1  0
 11 12  2  0
 11 13  1  0
 13 14  2  0
 14 15  1  0
 15 16  2  0
 16 17  1  0
 17 18  2  0
 18 19  1  0
 19 20  2  0
 20 21  1  0
 21 22  2  0
  5 23  1  0
 23 24  2  0
 23 25  1  0
 25 26  1  0
 26 27  1  0
 27 28  1  0
 28 29  1  0
 29 30  1  0
 22 13  1  0
 30 26  1  0
 21 16  1  0
  1 31  1  0
  1 32  1  0
  1 33  1  0
  2 34  1  0
  3 35  1  0
  3 36  1  0
  3 37  1  0
  4 38  1  0
  4 39  1  0
  5 40  1  1
  6 41  1  0
  9 42  1  0
  9 43  1  0
 10 44  1  0
 14 45  1  0
 15 46  1  0
 17 47  1  0
 18 48  1  0
 19 49  1  0
 20 50  1  0
 25 51  1  0
 26 52  1  0
 27 53  1  0
 27 54  1  0
 28 55  1  0
 28 56  1  0
 29 57  1  0
 29 58  1  0
 30 59  1  0
 30 60  1  0
M  END
>  <smiles>  (23) 
CC(C)C[C@H](NC(=O)CNC(=O)c1ccc2ccccc2n1)C(=O)NC1CCCC1

>  <score_type>  (23) 
oracle

>  <origin>  (23) 
autodockgpu

>  <m_score__min__energy>  (23) 
-9.0600000000000005

>  <m_primary>  (23) 
energy

>  <rmsd>  (23) 
2.329166234031998

>  <m_score__min__rmsd>  (23) 
2.329166234031998

>  <meeko>  (23) 
{"free_energy": -8.66, "intermolecular_energy": -11.05, "internal_energy": -2.44, "cluster_size": 39, "cluster_id": 1, "rank_in_cluster": 15}

>  <energy>  (23) 
-8.55

>  <cluster_rmsd>  (23) 
1.47

>  <cluster>  (23) 
1

$$$$

     RDKit          3D

 60 62  0  0  0  0  0  0  0  0999 V2000
  143.6780   76.3960  219.4000 C   0  0  0  0  0  0  0  0  0  0  0  0
  142.5540   77.3080  218.9990 C   0  0  0  0  0  0  0  0  0  0  0  0
  142.4260   77.1860  217.4740 C   0  0  0  0  0  0  0  0  0  0  0  0
  141.2290   76.9660  219.5700 C   0  0  0  0  0  0  0  0  0  0  0  0
  141.2440   76.2350  220.8870 C   0  0  2  0  0  0  0  0  0  0  0  0
  140.5760   74.9360  220.7720 N   0  0  0  0  0  0  0  0  0  0  0  0
  141.2260   73.7830  220.2740 C   0  0  0  0  0  0  0  0  0  0  0  0
  142.4380   73.9040  219.9230 O   0  0  0  0  0  0  0  0  0  0  0  0
  140.5950   72.4530  220.1360 C   0  0  0  0  0  0  0  0  0  0  0  0
  140.5140   71.6760  221.3290 N   0  0  0  0  0  0  0  0  0  0  0  0
  140.0080   72.2030  222.5600 C   0  0  0  0  0  0  0  0  0  0  0  0
  139.5930   73.4080  222.6500 O   0  0  0  0  0  0  0  0  0  0  0  0
  139.9620   71.3380  223.7580 C   0  0  0  0  0  0  0  0  0  0  0  0
  139.3340   70.1130  223.6820 C   0  0  0  0  0  0  0  0  0  0  0  0
  139.3030   69.3220  224.8130 C   0  0  0  0  0  0  0  0  0  0  0  0
  139.8730   69.7130  226.0060 C   0  0  0  0  0  0  0  0  0  0  0  0
  139.8470   68.9270  227.1450 C   0  0  0  0  0  0  0  0  0  0  0  0
  140.4250   69.3380  228.3350 C   0  0  0  0  0  0  0  0  0  0  0  0
  141.0470   70.5920  228.3500 C   0  0  0  0  0  0  0  0  0  0  0  0
  141.0650   71.3630  227.2060 C   0  0  0  0  0  0  0  0  0  0  0  0
  140.4870   70.9500  226.0220 C   0  0  0  0  0  0  0  0  0  0  0  0
  140.5120   71.7140  224.9140 N   0  0  0  0  0  0  0  0  0  0  0  0
  140.7900   77.0310  222.0330 C   0  0  0  0  0  0  0  0  0  0  0  0
  139.7010   76.8640  222.6410 O   0  0  0  0  0  0  0  0  0  0  0  0
  141.6340   78.0720  222.5030 N   0  0  0  0  0  0  0  0  0  0  0  0
  141.2530   78.8980  223.6280 C   0  0  0  0  0  0  0  0  0  0  0  0
  142.4090   79.8820  223.8220 C   0  0  0  0  0  0  0  0  0  0  0  0
  142.1250   81.0330  222.9070 C   0  0  0  0  0  0  0  0  0  0  0  0
  140.6190   81.0680  222.7720 C   0  0  0  0  0  0  0  0  0  0  0  0
  140.0850   79.7900  223.3660 C   0  0  0  0  0  0  0  0  0  0  0  0
  143.7374   76.3478  220.4973 H   0  0  0  0  0  0  0  0  0  0  0  0
  143.4940   75.3887  218.9982 H   0  0  0  0  0  0  0  0  0  0  0  0
  144.6258   76.7836  218.9982 H   0  0  0  0  0  0  0  0  0  0  0  0
  142.8042   78.3119  219.3725 H   0  0  0  0  0  0  0  0  0  0  0  0
  141.6497   76.4461  217.2292 H   0  0  0  0  0  0  0  0  0  0  0  0
  142.1486   78.1624  217.0500 H   0  0  0  0  0  0  0  0  0  0  0  0
  143.3879   76.8621  217.0500 H   0  0  0  0  0  0  0  0  0  0  0  0
  140.6721   77.9039  219.7125 H   0  0  0  0  0  0  0  0  0  0  0  0
  140.7679   76.2720  218.8519 H   0  0  0  0  0  0  0  0  0  0  0  0
  142.3014   76.0424  221.1213 H   0  0  0  0  0  0  0  0  0  0  0  0
  139.5870   74.9020  221.0900 H   0  0  0  0  0  0  0  0  0  0  0  0
  139.5718   72.6025  219.7609 H   0  0  0  0  0  0  0  0  0  0  0  0
  141.2441   71.8846  219.4537 H   0  0  0  0  0  0  0  0  0  0  0  0
  140.8250   70.6590  221.3740 H   0  0  0  0  0  0  0  0  0  0  0  0
  138.8695   69.7745  222.7441 H   0  0  0  0  0  0  0  0  0  0  0  0
  138.8047   68.3428  224.7604 H   0  0  0  0  0  0  0  0  0  0  0  0
  139.3520   67.9455  227.1040 H   0  0  0  0  0  0  0  0  0  0  0  0
  140.3963   68.7036  229.2332 H   0  0  0  0  0  0  0  0  0  0  0  0
  141.5202   70.9618  229.2716 H   0  0  0  0  0  0  0  0  0  0  0  0
  141.5592   72.3452  227.2384 H   0  0  0  0  0  0  0  0  0  0  0  0
  142.5660   78.2940  222.0630 H   0  0  0  0  0  0  0  0  0  0  0  0
  141.0144   78.2220  224.4623 H   0  0  0  0  0  0  0  0  0  0  0  0
  142.4491   80.2243  224.8666 H   0  0  0  0  0  0  0  0  0  0  0  0
  143.3792   79.4156  223.5957 H   0  0  0  0  0  0  0  0  0  0  0  0
  142.4955   81.9728  223.3424 H   0  0  0  0  0  0  0  0  0  0  0  0
  142.6231   80.9174  221.9331 H   0  0  0  0  0  0  0  0  0  0  0  0
  140.2126   81.9339  223.3151 H   0  0  0  0  0  0  0  0  0  0  0  0
  140.3251   81.1587  221.7159 H   0  0  0  0  0  0  0  0  0  0  0  0
  139.5570   80.0044  224.3069 H   0  0  0  0  0  0  0  0  0  0  0  0
  139.3749   79.3084  222.6776 H   0  0  0  0  0  0  0  0  0  0  0  0
  1  2  1  0
  2  3  1  0
  2  4  1  0
  4  5  1  0
  5  6  1  0
  6  7  1  0
  7  8  2  0
  7  9  1  0
  9 10  1  0
 10 11  1  0
 11 12  2  0
 11 13  1  0
 13 14  2  0
 14 15  1  0
 15 16  2  0
 16 17  1  0
 17 18  2  0
 18 19  1  0
 19 20  2  0
 20 21  1  0
 21 22  2  0
  5 23  1  0
 23 24  2  0
 23 25  1  0
 25 26  1  0
 26 27  1  0
 27 28  1  0
 28 29  1  0
 29 30  1  0
 22 13  1  0
 30 26  1  0
 21 16  1  0
  1 31  1  0
  1 32  1  0
  1 33  1  0
  2 34  1  0
  3 35  1  0
  3 36  1  0
  3 37  1  0
  4 38  1  0
  4 39  1  0
  5 40  1  1
  6 41  1  0
  9 42  1  0
  9 43  1  0
 10 44  1  0
 14 45  1  0
 15 46  1  0
 17 47  1  0
 18 48  1  0
 19 49  1  0
 20 50  1  0
 25 51  1  0
 26 52  1  0
 27 53  1  0
 27 54  1  0
 28 55  1  0
 28 56  1  0
 29 57  1  0
 29 58  1  0
 30 59  1  0
 30 60  1  0
M  END
>  <smiles>  (24) 
CC(C)C[C@H](NC(=O)CNC(=O)c1ccc2ccccc2n1)C(=O)NC1CCCC1

>  <score_type>  (24) 
oracle

>  <origin>  (24) 
autodockgpu

>  <m_score__min__energy>  (24) 
-9.0600000000000005

>  <m_primary>  (24) 
energy

>  <rmsd>  (24) 
2.4836682297429906

>  <m_score__min__rmsd>  (24) 
2.4836682297429906

>  <meeko>  (24) 
{"free_energy": -8.67, "intermolecular_energy": -11.06, "internal_energy": -2.54, "cluster_size": 39, "cluster_id": 1, "rank_in_cluster": 13}

>  <energy>  (24) 
-8.52

>  <cluster_rmsd>  (24) 
1.6

>  <cluster>  (24) 
1

$$$$

     RDKit          3D

 60 62  0  0  0  0  0  0  0  0999 V2000
  142.1400   79.3060  218.7030 C   0  0  0  0  0  0  0  0  0  0  0  0
  141.3690   78.5720  219.7630 C   0  0  0  0  0  0  0  0  0  0  0  0
  139.8870   78.8820  219.5080 C   0  0  0  0  0  0  0  0  0  0  0  0
  141.5090   77.0960  219.7380 C   0  0  0  0  0  0  0  0  0  0  0  0
  141.4410   76.4020  221.0730 C   0  0  2  0  0  0  0  0  0  0  0  0
  140.7850   75.0980  220.9530 N   0  0  0  0  0  0  0  0  0  0  0  0
  141.3770   74.0020  220.2830 C   0  0  0  0  0  0  0  0  0  0  0  0
  142.5260   74.1810  219.7790 O   0  0  0  0  0  0  0  0  0  0  0  0
  140.7550   72.6700  220.1330 C   0  0  0  0  0  0  0  0  0  0  0  0
  140.6870   71.8770  221.3150 N   0  0  0  0  0  0  0  0  0  0  0  0
  140.1170   72.3600  222.5360 C   0  0  0  0  0  0  0  0  0  0  0  0
  139.6280   73.5370  222.6250 O   0  0  0  0  0  0  0  0  0  0  0  0
  140.0900   71.4810  223.7250 C   0  0  0  0  0  0  0  0  0  0  0  0
  139.5540   70.2150  223.6160 C   0  0  0  0  0  0  0  0  0  0  0  0
  139.5390   69.4120  224.7390 C   0  0  0  0  0  0  0  0  0  0  0  0
  140.0360   69.8300  225.9560 C   0  0  0  0  0  0  0  0  0  0  0  0
  140.0250   69.0320  227.0860 C   0  0  0  0  0  0  0  0  0  0  0  0
  140.5290   69.4720  228.2990 C   0  0  0  0  0  0  0  0  0  0  0  0
  141.0580   70.7660  228.3470 C   0  0  0  0  0  0  0  0  0  0  0  0
  141.0620   71.5490  227.2110 C   0  0  0  0  0  0  0  0  0  0  0  0
  140.5580   71.1080  226.0040 C   0  0  0  0  0  0  0  0  0  0  0  0
  140.5690   71.8830  224.9030 N   0  0  0  0  0  0  0  0  0  0  0  0
  140.9140   77.2280  222.1650 C   0  0  0  0  0  0  0  0  0  0  0  0
  139.7810   77.0860  222.6950 O   0  0  0  0  0  0  0  0  0  0  0  0
  141.7330   78.2720  222.6730 N   0  0  0  0  0  0  0  0  0  0  0  0
  141.2800   79.1260  223.7480 C   0  0  0  0  0  0  0  0  0  0  0  0
  142.3180   80.2460  223.8450 C   0  0  0  0  0  0  0  0  0  0  0  0
  141.8870   81.2900  222.8620 C   0  0  0  0  0  0  0  0  0  0  0  0
  140.3840   81.1440  222.7640 C   0  0  0  0  0  0  0  0  0  0  0  0
  140.0120   79.8590  223.4560 C   0  0  0  0  0  0  0  0  0  0  0  0
  142.8582   79.9897  219.1792 H   0  0  0  0  0  0  0  0  0  0  0  0
  142.6825   78.5824  218.0768 H   0  0  0  0  0  0  0  0  0  0  0  0
  141.4439   79.8834  218.0768 H   0  0  0  0  0  0  0  0  0  0  0  0
  141.7603   78.9057  220.7354 H   0  0  0  0  0  0  0  0  0  0  0  0
  139.3645   78.9913  220.4698 H   0  0  0  0  0  0  0  0  0  0  0  0
  139.8013   79.8175  218.9358 H   0  0  0  0  0  0  0  0  0  0  0  0
  139.4335   78.0593  218.9358 H   0  0  0  0  0  0  0  0  0  0  0  0
  140.7028   76.6924  219.1078 H   0  0  0  0  0  0  0  0  0  0  0  0
  142.5215   76.9014  219.3547 H   0  0  0  0  0  0  0  0  0  0  0  0
  142.4817   76.2197  221.3789 H   0  0  0  0  0  0  0  0  0  0  0  0
  139.8510   75.0150  221.4010 H   0  0  0  0  0  0  0  0  0  0  0  0
  139.7283   72.8170  219.7665 H   0  0  0  0  0  0  0  0  0  0  0  0
  141.4044   72.1152  219.4399 H   0  0  0  0  0  0  0  0  0  0  0  0
  141.0570   70.8800  221.3600 H   0  0  0  0  0  0  0  0  0  0  0  0
  139.1489   69.8543  222.6590 H   0  0  0  0  0  0  0  0  0  0  0  0
  139.1145   68.4003  224.6602 H   0  0  0  0  0  0  0  0  0  0  0  0
  139.6036   68.0181  227.0193 H   0  0  0  0  0  0  0  0  0  0  0  0
  140.5138   68.8281  229.1907 H   0  0  0  0  0  0  0  0  0  0  0  0
  141.4699   71.1585  229.2884 H   0  0  0  0  0  0  0  0  0  0  0  0
  141.4830   72.5636  227.2694 H   0  0  0  0  0  0  0  0  0  0  0  0
  142.6970   78.4750  222.2980 H   0  0  0  0  0  0  0  0  0  0  0  0
  141.1359   78.4877  224.6322 H   0  0  0  0  0  0  0  0  0  0  0  0
  142.3371   80.6631  224.8627 H   0  0  0  0  0  0  0  0  0  0  0  0
  143.3312   79.8782  223.6258 H   0  0  0  0  0  0  0  0  0  0  0  0
  142.1546   82.2940  223.2230 H   0  0  0  0  0  0  0  0  0  0  0  0
  142.3775   81.1637  221.8856 H   0  0  0  0  0  0  0  0  0  0  0  0
  139.8904   81.9939  223.2579 H   0  0  0  0  0  0  0  0  0  0  0  0
  140.0625   81.1267  221.7122 H   0  0  0  0  0  0  0  0  0  0  0  0
  139.4794   80.0772  224.3934 H   0  0  0  0  0  0  0  0  0  0  0  0
  139.3504   79.2526  222.8199 H   0  0  0  0  0  0  0  0  0  0  0  0
  1  2  1  0
  2  3  1  0
  2  4  1  0
  4  5  1  0
  5  6  1  0
  6  7  1  0
  7  8  2  0
  7  9  1  0
  9 10  1  0
 10 11  1  0
 11 12  2  0
 11 13  1  0
 13 14  2  0
 14 15  1  0
 15 16  2  0
 16 17  1  0
 17 18  2  0
 18 19  1  0
 19 20  2  0
 20 21  1  0
 21 22  2  0
  5 23  1  0
 23 24  2  0
 23 25  1  0
 25 26  1  0
 26 27  1  0
 27 28  1  0
 28 29  1  0
 29 30  1  0
 22 13  1  0
 30 26  1  0
 21 16  1  0
  1 31  1  0
  1 32  1  0
  1 33  1  0
  2 34  1  0
  3 35  1  0
  3 36  1  0
  3 37  1  0
  4 38  1  0
  4 39  1  0
  5 40  1  1
  6 41  1  0
  9 42  1  0
  9 43  1  0
 10 44  1  0
 14 45  1  0
 15 46  1  0
 17 47  1  0
 18 48  1  0
 19 49  1  0
 20 50  1  0
 25 51  1  0
 26 52  1  0
 27 53  1  0
 27 54  1  0
 28 55  1  0
 28 56  1  0
 29 57  1  0
 29 58  1  0
 30 59  1  0
 30 60  1  0
M  END
>  <smiles>  (25) 
CC(C)C[C@H](NC(=O)CNC(=O)c1ccc2ccccc2n1)C(=O)NC1CCCC1

>  <score_type>  (25) 
oracle

>  <origin>  (25) 
autodockgpu

>  <m_score__min__energy>  (25) 
-9.0600000000000005

>  <m_primary>  (25) 
energy

>  <rmsd>  (25) 
2.7358604291201094

>  <m_score__min__rmsd>  (25) 
2.7358604291201094

>  <meeko>  (25) 
{"free_energy": -8.57, "intermolecular_energy": -10.95, "internal_energy": -2.72, "cluster_size": 39, "cluster_id": 1, "rank_in_cluster": 22}

>  <energy>  (25) 
-8.5

>  <cluster_rmsd>  (25) 
0.69

>  <cluster>  (25) 
1

$$$$

     RDKit          3D

 60 62  0  0  0  0  0  0  0  0999 V2000
  142.2830   79.3020  218.5480 C   0  0  0  0  0  0  0  0  0  0  0  0
  141.5440   78.6380  219.6750 C   0  0  0  0  0  0  0  0  0  0  0  0
  140.0970   79.1440  219.5950 C   0  0  0  0  0  0  0  0  0  0  0  0
  141.4860   77.1590  219.6070 C   0  0  0  0  0  0  0  0  0  0  0  0
  141.5450   76.4330  220.9260 C   0  0  2  0  0  0  0  0  0  0  0  0
  140.9920   75.0830  220.8070 N   0  0  0  0  0  0  0  0  0  0  0  0
  141.7330   73.9950  220.2890 C   0  0  0  0  0  0  0  0  0  0  0  0
  142.9250   74.2250  219.9240 O   0  0  0  0  0  0  0  0  0  0  0  0
  141.2190   72.6160  220.1450 C   0  0  0  0  0  0  0  0  0  0  0  0
  141.0550   71.8840  221.3560 N   0  0  0  0  0  0  0  0  0  0  0  0
  140.2290   72.3460  222.4310 C   0  0  0  0  0  0  0  0  0  0  0  0
  139.5860   73.4470  222.3530 O   0  0  0  0  0  0  0  0  0  0  0  0
  140.1130   71.5350  223.6620 C   0  0  0  0  0  0  0  0  0  0  0  0
  139.4400   70.3320  223.6160 C   0  0  0  0  0  0  0  0  0  0  0  0
  139.3440   69.5920  224.7770 C   0  0  0  0  0  0  0  0  0  0  0  0
  139.8930   70.0100  225.9710 C   0  0  0  0  0  0  0  0  0  0  0  0
  139.8020   69.2750  227.1390 C   0  0  0  0  0  0  0  0  0  0  0  0
  140.3610   69.7130  228.3280 C   0  0  0  0  0  0  0  0  0  0  0  0
  141.0300   70.9420  228.3120 C   0  0  0  0  0  0  0  0  0  0  0  0
  141.1130   71.6630  227.1380 C   0  0  0  0  0  0  0  0  0  0  0  0
  140.5540   71.2230  225.9550 C   0  0  0  0  0  0  0  0  0  0  0  0
  140.6430   71.9380  224.8170 N   0  0  0  0  0  0  0  0  0  0  0  0
  141.0110   77.1900  222.0640 C   0  0  0  0  0  0  0  0  0  0  0  0
  139.8990   76.9750  222.6150 O   0  0  0  0  0  0  0  0  0  0  0  0
  141.7950   78.2480  222.5950 N   0  0  0  0  0  0  0  0  0  0  0  0
  141.3330   79.0360  223.7160 C   0  0  0  0  0  0  0  0  0  0  0  0
  142.3430   80.1770  223.8570 C   0  0  0  0  0  0  0  0  0  0  0  0
  141.8750   81.2560  222.9310 C   0  0  0  0  0  0  0  0  0  0  0  0
  140.3760   81.0760  222.8410 C   0  0  0  0  0  0  0  0  0  0  0  0
  140.0440   79.7500  223.4730 C   0  0  0  0  0  0  0  0  0  0  0  0
  143.0420   79.9840  218.9588 H   0  0  0  0  0  0  0  0  0  0  0  0
  142.7743   78.5360  217.9300 H   0  0  0  0  0  0  0  0  0  0  0  0
  141.5737   79.8722  217.9300 H   0  0  0  0  0  0  0  0  0  0  0  0
  142.0801   78.8859  220.6030 H   0  0  0  0  0  0  0  0  0  0  0  0
  139.7003   79.2827  220.6116 H   0  0  0  0  0  0  0  0  0  0  0  0
  140.0733   80.1037  219.0581 H   0  0  0  0  0  0  0  0  0  0  0  0
  139.4804   78.4081  219.0581 H   0  0  0  0  0  0  0  0  0  0  0  0
  140.5433   76.8818  219.1124 H   0  0  0  0  0  0  0  0  0  0  0  0
  142.3895   76.8522  219.0597 H   0  0  0  0  0  0  0  0  0  0  0  0
  142.6118   76.3300  221.1735 H   0  0  0  0  0  0  0  0  0  0  0  0
  140.0140   74.9590  221.1370 H   0  0  0  0  0  0  0  0  0  0  0  0
  140.2386   72.6717  219.6493 H   0  0  0  0  0  0  0  0  0  0  0  0
  141.9824   72.0722  219.5692 H   0  0  0  0  0  0  0  0  0  0  0  0
  141.5360   70.9520  221.5340 H   0  0  0  0  0  0  0  0  0  0  0  0
  138.9915   69.9718  222.6784 H   0  0  0  0  0  0  0  0  0  0  0  0
  138.8087   68.6314  224.7489 H   0  0  0  0  0  0  0  0  0  0  0  0
  139.2692   68.3128  227.1231 H   0  0  0  0  0  0  0  0  0  0  0  0
  140.2821   69.1177  229.2496 H   0  0  0  0  0  0  0  0  0  0  0  0
  141.4885   71.3324  229.2325 H   0  0  0  0  0  0  0  0  0  0  0  0
  141.6453   72.6256  227.1453 H   0  0  0  0  0  0  0  0  0  0  0  0
  142.7400   78.5090  222.2070 H   0  0  0  0  0  0  0  0  0  0  0  0
  141.2156   78.3515  224.5690 H   0  0  0  0  0  0  0  0  0  0  0  0
  142.3629   80.5445  224.8936 H   0  0  0  0  0  0  0  0  0  0  0  0
  143.3626   79.8466  223.6096 H   0  0  0  0  0  0  0  0  0  0  0  0
  142.1210   82.2478  223.3382 H   0  0  0  0  0  0  0  0  0  0  0  0
  142.3577   81.1904  221.9447 H   0  0  0  0  0  0  0  0  0  0  0  0
  139.8666   81.8880  223.3806 H   0  0  0  0  0  0  0  0  0  0  0  0
  140.0436   81.1012  221.7927 H   0  0  0  0  0  0  0  0  0  0  0  0
  139.5168   79.9088  224.4253 H   0  0  0  0  0  0  0  0  0  0  0  0
  139.3905   79.1587  222.8147 H   0  0  0  0  0  0  0  0  0  0  0  0
  1  2  1  0
  2  3  1  0
  2  4  1  0
  4  5  1  0
  5  6  1  0
  6  7  1  0
  7  8  2  0
  7  9  1  0
  9 10  1  0
 10 11  1  0
 11 12  2  0
 11 13  1  0
 13 14  2  0
 14 15  1  0
 15 16  2  0
 16 17  1  0
 17 18  2  0
 18 19  1  0
 19 20  2  0
 20 21  1  0
 21 22  2  0
  5 23  1  0
 23 24  2  0
 23 25  1  0
 25 26  1  0
 26 27  1  0
 27 28  1  0
 28 29  1  0
 29 30  1  0
 22 13  1  0
 30 26  1  0
 21 16  1  0
  1 31  1  0
  1 32  1  0
  1 33  1  0
  2 34  1  0
  3 35  1  0
  3 36  1  0
  3 37  1  0
  4 38  1  0
  4 39  1  0
  5 40  1  1
  6 41  1  0
  9 42  1  0
  9 43  1  0
 10 44  1  0
 14 45  1  0
 15 46  1  0
 17 47  1  0
 18 48  1  0
 19 49  1  0
 20 50  1  0
 25 51  1  0
 26 52  1  0
 27 53  1  0
 27 54  1  0
 28 55  1  0
 28 56  1  0
 29 57  1  0
 29 58  1  0
 30 59  1  0
 30 60  1  0
M  END
>  <smiles>  (26) 
CC(C)C[C@H](NC(=O)CNC(=O)c1ccc2ccccc2n1)C(=O)NC1CCCC1

>  <score_type>  (26) 
oracle

>  <origin>  (26) 
autodockgpu

>  <m_score__min__energy>  (26) 
-9.0600000000000005

>  <m_primary>  (26) 
energy

>  <rmsd>  (26) 
2.8140759315693415

>  <m_score__min__rmsd>  (26) 
2.8140759315693415

>  <meeko>  (26) 
{"free_energy": -8.59, "intermolecular_energy": -10.97, "internal_energy": -2.73, "cluster_size": 39, "cluster_id": 1, "rank_in_cluster": 20}

>  <energy>  (26) 
-8.49

>  <cluster_rmsd>  (26) 
1.33

>  <cluster>  (26) 
1

$$$$

     RDKit          3D

 60 62  0  0  0  0  0  0  0  0999 V2000
  140.7910   69.1500  226.0840 C   0  0  0  0  0  0  0  0  0  0  0  0
  139.9820   70.3960  226.3060 C   0  0  0  0  0  0  0  0  0  0  0  0
  140.3520   70.9040  227.7070 C   0  0  0  0  0  0  0  0  0  0  0  0
  140.2570   71.5050  225.3620 C   0  0  0  0  0  0  0  0  0  0  0  0
  139.6900   71.3490  223.9750 C   0  0  2  0  0  0  0  0  0  0  0  0
  140.1560   72.4230  223.0940 N   0  0  0  0  0  0  0  0  0  0  0  0
  140.8250   72.1750  221.8730 C   0  0  0  0  0  0  0  0  0  0  0  0
  141.0130   70.9630  221.5490 O   0  0  0  0  0  0  0  0  0  0  0  0
  141.3180   73.2220  220.9530 C   0  0  0  0  0  0  0  0  0  0  0  0
  141.2310   74.5610  221.4320 N   0  0  0  0  0  0  0  0  0  0  0  0
  139.9990   75.1460  221.8690 C   0  0  0  0  0  0  0  0  0  0  0  0
  138.9060   74.4860  221.8570 O   0  0  0  0  0  0  0  0  0  0  0  0
  139.9860   76.5460  222.3460 C   0  0  0  0  0  0  0  0  0  0  0  0
  138.7800   77.1460  222.6410 C   0  0  0  0  0  0  0  0  0  0  0  0
  138.7910   78.4520  223.0850 C   0  0  0  0  0  0  0  0  0  0  0  0
  139.9560   79.1730  223.2410 C   0  0  0  0  0  0  0  0  0  0  0  0
  139.9770   80.4830  223.6860 C   0  0  0  0  0  0  0  0  0  0  0  0
  141.1590   81.1890  223.8360 C   0  0  0  0  0  0  0  0  0  0  0  0
  142.3500   80.5260  223.5200 C   0  0  0  0  0  0  0  0  0  0  0  0
  142.3130   79.2190  223.0790 C   0  0  0  0  0  0  0  0  0  0  0  0
  141.1330   78.5190  222.9300 C   0  0  0  0  0  0  0  0  0  0  0  0
  141.1110   77.2440  222.4980 N   0  0  0  0  0  0  0  0  0  0  0  0
  138.2390   71.1380  223.9280 C   0  0  0  0  0  0  0  0  0  0  0  0
  137.6490   70.0930  224.3090 O   0  0  0  0  0  0  0  0  0  0  0  0
  137.4240   72.1830  223.4170 N   0  0  0  0  0  0  0  0  0  0  0  0
  135.9860   72.0470  223.3420 C   0  0  0  0  0  0  0  0  0  0  0  0
  135.4360   72.8670  224.5100 C   0  0  0  0  0  0  0  0  0  0  0  0
  135.3090   74.2700  224.0020 C   0  0  0  0  0  0  0  0  0  0  0  0
  135.0870   74.1320  222.5120 C   0  0  0  0  0  0  0  0  0  0  0  0
  135.3710   72.6980  222.1470 C   0  0  0  0  0  0  0  0  0  0  0  0
  141.0719   68.7173  227.0555 H   0  0  0  0  0  0  0  0  0  0  0  0
  140.1935   68.4210  225.5170 H   0  0  0  0  0  0  0  0  0  0  0  0
  141.7000   69.3992  225.5170 H   0  0  0  0  0  0  0  0  0  0  0  0
  138.9257   70.1228  226.1663 H   0  0  0  0  0  0  0  0  0  0  0  0
  139.8833   70.2604  228.4660 H   0  0  0  0  0  0  0  0  0  0  0  0
  141.4449   70.8790  227.8293 H   0  0  0  0  0  0  0  0  0  0  0  0
  139.9929   71.9365  227.8293 H   0  0  0  0  0  0  0  0  0  0  0  0
  139.8393   72.4262  225.7944 H   0  0  0  0  0  0  0  0  0  0  0  0
  141.3495   71.5217  225.2351 H   0  0  0  0  0  0  0  0  0  0  0  0
  140.0923   70.4033  223.5828 H   0  0  0  0  0  0  0  0  0  0  0  0
  139.9580   73.3920  223.4130 H   0  0  0  0  0  0  0  0  0  0  0  0
  142.3752   73.0095  220.7358 H   0  0  0  0  0  0  0  0  0  0  0  0
  140.6617   73.1774  220.0714 H   0  0  0  0  0  0  0  0  0  0  0  0
  142.0760   75.2060  221.4930 H   0  0  0  0  0  0  0  0  0  0  0  0
  137.8336   76.5974  222.5253 H   0  0  0  0  0  0  0  0  0  0  0  0
  137.8331   78.9372  223.3239 H   0  0  0  0  0  0  0  0  0  0  0  0
  139.0255   80.9790  223.9281 H   0  0  0  0  0  0  0  0  0  0  0  0
  141.1614   82.2305  224.1898 H   0  0  0  0  0  0  0  0  0  0  0  0
  143.3140   81.0457  223.6230 H   0  0  0  0  0  0  0  0  0  0  0  0
  143.2606   78.7156  222.8369 H   0  0  0  0  0  0  0  0  0  0  0  0
  137.8180   73.0990  223.0720 H   0  0  0  0  0  0  0  0  0  0  0  0
  135.7610   70.9704  223.3265 H   0  0  0  0  0  0  0  0  0  0  0  0
  134.4532   72.4814  224.8190 H   0  0  0  0  0  0  0  0  0  0  0  0
  136.0967   72.8134  225.3878 H   0  0  0  0  0  0  0  0  0  0  0  0
  134.4540   74.7757  224.4745 H   0  0  0  0  0  0  0  0  0  0  0  0
  136.1997   74.8732  224.2315 H   0  0  0  0  0  0  0  0  0  0  0  0
  134.0462   74.3850  222.2616 H   0  0  0  0  0  0  0  0  0  0  0  0
  135.7472   74.8134  221.9554 H   0  0  0  0  0  0  0  0  0  0  0  0
  134.4351   72.1856  221.8795 H   0  0  0  0  0  0  0  0  0  0  0  0
  136.0494   72.6440  221.2828 H   0  0  0  0  0  0  0  0  0  0  0  0
  1  2  1  0
  2  3  1  0
  2  4  1  0
  4  5  1  0
  5  6  1  0
  6  7  1  0
  7  8  2  0
  7  9  1  0
  9 10  1  0
 10 11  1  0
 11 12  2  0
 11 13  1  0
 13 14  2  0
 14 15  1  0
 15 16  2  0
 16 17  1  0
 17 18  2  0
 18 19  1  0
 19 20  2  0
 20 21  1  0
 21 22  2  0
  5 23  1  0
 23 24  2  0
 23 25  1  0
 25 26  1  0
 26 27  1  0
 27 28  1  0
 28 29  1  0
 29 30  1  0
 22 13  1  0
 30 26  1  0
 21 16  1  0
  1 31  1  0
  1 32  1  0
  1 33  1  0
  2 34  1  0
  3 35  1  0
  3 36  1  0
  3 37  1  0
  4 38  1  0
  4 39  1  0
  5 40  1  6
  6 41  1  0
  9 42  1  0
  9 43  1  0
 10 44  1  0
 14 45  1  0
 15 46  1  0
 17 47  1  0
 18 48  1  0
 19 49  1  0
 20 50  1  0
 25 51  1  0
 26 52  1  0
 27 53  1  0
 27 54  1  0
 28 55  1  0
 28 56  1  0
 29 57  1  0
 29 58  1  0
 30 59  1  0
 30 60  1  0
M  END
>  <smiles>  (27) 
CC(C)C[C@H](NC(=O)CNC(=O)c1ccc2ccccc2n1)C(=O)NC1CCCC1

>  <score_type>  (27) 
oracle

>  <origin>  (27) 
autodockgpu

>  <m_score__min__energy>  (27) 
-9.0600000000000005

>  <m_primary>  (27) 
energy

>  <rmsd>  (27) 
8.84135905991356

>  <m_score__min__rmsd>  (27) 
8.84135905991356

>  <meeko>  (27) 
{"free_energy": -7.55, "intermolecular_energy": -9.93, "internal_energy": -3.63, "cluster_size": 10, "cluster_id": 2, "rank_in_cluster": 6}

>  <energy>  (27) 
-8.48

>  <cluster_rmsd>  (27) 
1.47

>  <cluster>  (27) 
1

$$$$

     RDKit          3D

 60 62  0  0  0  0  0  0  0  0999 V2000
  142.8950   78.1670  218.0260 C   0  0  0  0  0  0  0  0  0  0  0  0
  142.6990   76.6930  218.2360 C   0  0  0  0  0  0  0  0  0  0  0  0
  143.5380   76.3200  219.4670 C   0  0  0  0  0  0  0  0  0  0  0  0
  141.3060   76.2750  218.5240 C   0  0  0  0  0  0  0  0  0  0  0  0
  140.8750   76.3560  219.9650 C   0  0  2  0  0  0  0  0  0  0  0  0
  139.8340   75.3680  220.2570 N   0  0  0  0  0  0  0  0  0  0  0  0
  139.9620   74.4000  221.2800 C   0  0  0  0  0  0  0  0  0  0  0  0
  141.0320   74.4120  221.9610 O   0  0  0  0  0  0  0  0  0  0  0  0
  138.9430   73.3820  221.6100 C   0  0  0  0  0  0  0  0  0  0  0  0
  139.2480   72.5310  222.7120 N   0  0  0  0  0  0  0  0  0  0  0  0
  138.8120   71.1690  222.7790 C   0  0  0  0  0  0  0  0  0  0  0  0
  138.1270   70.6400  221.8390 O   0  0  0  0  0  0  0  0  0  0  0  0
  139.1600   70.3490  223.9590 C   0  0  0  0  0  0  0  0  0  0  0  0
  138.8430   69.0070  223.9650 C   0  0  0  0  0  0  0  0  0  0  0  0
  139.1770   68.2610  225.0770 C   0  0  0  0  0  0  0  0  0  0  0  0
  139.8120   68.8070  226.1730 C   0  0  0  0  0  0  0  0  0  0  0  0
  140.1510   68.0670  227.2920 C   0  0  0  0  0  0  0  0  0  0  0  0
  140.7880   68.6350  228.3830 C   0  0  0  0  0  0  0  0  0  0  0  0
  141.0830   70.0010  228.3180 C   0  0  0  0  0  0  0  0  0  0  0  0
  140.7390   70.7260  227.1940 C   0  0  0  0  0  0  0  0  0  0  0  0
  140.1030   70.1560  226.1100 C   0  0  0  0  0  0  0  0  0  0  0  0
  139.7730   70.8750  225.0200 N   0  0  0  0  0  0  0  0  0  0  0  0
  140.5510   77.7090  220.4310 C   0  0  0  0  0  0  0  0  0  0  0  0
  139.5430   78.3730  220.0720 O   0  0  0  0  0  0  0  0  0  0  0  0
  141.4300   78.3290  221.3580 N   0  0  0  0  0  0  0  0  0  0  0  0
  141.1740   79.6600  221.8610 C   0  0  0  0  0  0  0  0  0  0  0  0
  140.6390   79.4650  223.2810 C   0  0  0  0  0  0  0  0  0  0  0  0
  141.8440   79.3840  224.1660 C   0  0  0  0  0  0  0  0  0  0  0  0
  142.9080   80.1940  223.4590 C   0  0  0  0  0  0  0  0  0  0  0  0
  142.4030   80.4840  222.0690 C   0  0  0  0  0  0  0  0  0  0  0  0
  142.9620   78.6706  219.0016 H   0  0  0  0  0  0  0  0  0  0  0  0
  143.8236   78.3366  217.4613 H   0  0  0  0  0  0  0  0  0  0  0  0
  142.0430   78.5734  217.4613 H   0  0  0  0  0  0  0  0  0  0  0  0
  142.9865   76.1932  217.2992 H   0  0  0  0  0  0  0  0  0  0  0  0
  142.9787   76.5687  220.3810 H   0  0  0  0  0  0  0  0  0  0  0  0
  143.7533   75.2414  219.4509 H   0  0  0  0  0  0  0  0  0  0  0  0
  144.4830   76.8828  219.4509 H   0  0  0  0  0  0  0  0  0  0  0  0
  140.6339   76.9168  217.9355 H   0  0  0  0  0  0  0  0  0  0  0  0
  141.2568   75.2083  218.2601 H   0  0  0  0  0  0  0  0  0  0  0  0
  141.7573   76.0911  220.5661 H   0  0  0  0  0  0  0  0  0  0  0  0
  138.9770   75.4220  219.6710 H   0  0  0  0  0  0  0  0  0  0  0  0
  138.0039   73.9070  221.8392 H   0  0  0  0  0  0  0  0  0  0  0  0
  138.8852   72.7226  220.7315 H   0  0  0  0  0  0  0  0  0  0  0  0
  139.8160   72.8580  223.5500 H   0  0  0  0  0  0  0  0  0  0  0  0
  138.3369   68.5430  223.1056 H   0  0  0  0  0  0  0  0  0  0  0  0
  138.9272   67.1898  225.0898 H   0  0  0  0  0  0  0  0  0  0  0  0
  139.9071   66.9946  227.3159 H   0  0  0  0  0  0  0  0  0  0  0  0
  141.0518   68.0351  229.2665 H   0  0  0  0  0  0  0  0  0  0  0  0
  141.5879   70.4965  229.1603 H   0  0  0  0  0  0  0  0  0  0  0  0
  140.9812   71.7985  227.1616 H   0  0  0  0  0  0  0  0  0  0  0  0
  142.3010   77.8590  221.7210 H   0  0  0  0  0  0  0  0  0  0  0  0
  140.5177   80.1615  221.1345 H   0  0  0  0  0  0  0  0  0  0  0  0
  140.0070   80.3170  223.5721 H   0  0  0  0  0  0  0  0  0  0  0  0
  140.0195   78.5593  223.3584 H   0  0  0  0  0  0  0  0  0  0  0  0
  141.6260   79.8128  225.1552 H   0  0  0  0  0  0  0  0  0  0  0  0
  142.1619   78.3446  224.3349 H   0  0  0  0  0  0  0  0  0  0  0  0
  143.0847   81.1358  223.9991 H   0  0  0  0  0  0  0  0  0  0  0  0
  143.8571   79.6393  223.4200 H   0  0  0  0  0  0  0  0  0  0  0  0
  142.1605   81.5525  221.9721 H   0  0  0  0  0  0  0  0  0  0  0  0
  143.1681   80.2381  221.3179 H   0  0  0  0  0  0  0  0  0  0  0  0
  1  2  1  0
  2  3  1  0
  2  4  1  0
  4  5  1  0
  5  6  1  0
  6  7  1  0
  7  8  2  0
  7  9  1  0
  9 10  1  0
 10 11  1  0
 11 12  2  0
 11 13  1  0
 13 14  2  0
 14 15  1  0
 15 16  2  0
 16 17  1  0
 17 18  2  0
 18 19  1  0
 19 20  2  0
 20 21  1  0
 21 22  2  0
  5 23  1  0
 23 24  2  0
 23 25  1  0
 25 26  1  0
 26 27  1  0
 27 28  1  0
 28 29  1  0
 29 30  1  0
 22 13  1  0
 30 26  1  0
 21 16  1  0
  1 31  1  0
  1 32  1  0
  1 33  1  0
  2 34  1  0
  3 35  1  0
  3 36  1  0
  3 37  1  0
  4 38  1  0
  4 39  1  0
  5 40  1  1
  6 41  1  0
  9 42  1  0
  9 43  1  0
 10 44  1  0
 14 45  1  0
 15 46  1  0
 17 47  1  0
 18 48  1  0
 19 49  1  0
 20 50  1  0
 25 51  1  0
 26 52  1  0
 27 53  1  0
 27 54  1  0
 28 55  1  0
 28 56  1  0
 29 57  1  0
 29 58  1  0
 30 59  1  0
 30 60  1  0
M  END
>  <smiles>  (28) 
CC(C)C[C@H](NC(=O)CNC(=O)c1ccc2ccccc2n1)C(=O)NC1CCCC1

>  <score_type>  (28) 
oracle

>  <origin>  (28) 
autodockgpu

>  <m_score__min__energy>  (28) 
-9.0600000000000005

>  <m_primary>  (28) 
energy

>  <rmsd>  (28) 
2.3769696999999392

>  <m_score__min__rmsd>  (28) 
2.3769696999999392

>  <meeko>  (28) 
{"free_energy": -8.44, "intermolecular_energy": -10.83, "internal_energy": -2.27, "cluster_size": 39, "cluster_id": 1, "rank_in_cluster": 32}

>  <energy>  (28) 
-8.48

>  <cluster_rmsd>  (28) 
1.32

>  <cluster>  (28) 
1

$$$$

     RDKit          3D

 60 62  0  0  0  0  0  0  0  0999 V2000
  141.0490   70.1960  226.9150 C   0  0  0  0  0  0  0  0  0  0  0  0
  140.6350   70.2440  225.4720 C   0  0  0  0  0  0  0  0  0  0  0  0
  139.6070   69.1190  225.2840 C   0  0  0  0  0  0  0  0  0  0  0  0
  139.9770   71.5010  225.0440 C   0  0  0  0  0  0  0  0  0  0  0  0
  139.4290   71.5180  223.6410 C   0  0  2  0  0  0  0  0  0  0  0  0
  140.0370   72.5920  222.8530 N   0  0  0  0  0  0  0  0  0  0  0  0
  140.8810   72.3450  221.7440 C   0  0  0  0  0  0  0  0  0  0  0  0
  141.0990   71.1340  221.4390 O   0  0  0  0  0  0  0  0  0  0  0  0
  141.5200   73.3920  220.9210 C   0  0  0  0  0  0  0  0  0  0  0  0
  141.4510   74.7190  221.4380 N   0  0  0  0  0  0  0  0  0  0  0  0
  140.2090   75.3670  221.7350 C   0  0  0  0  0  0  0  0  0  0  0  0
  139.0890   74.7780  221.5540 O   0  0  0  0  0  0  0  0  0  0  0  0
  140.2160   76.7480  222.2620 C   0  0  0  0  0  0  0  0  0  0  0  0
  139.0190   77.3470  222.5970 C   0  0  0  0  0  0  0  0  0  0  0  0
  139.0490   78.6370  223.0870 C   0  0  0  0  0  0  0  0  0  0  0  0
  140.2230   79.3420  223.2500 C   0  0  0  0  0  0  0  0  0  0  0  0
  140.2630   80.6350  223.7410 C   0  0  0  0  0  0  0  0  0  0  0  0
  141.4530   81.3250  223.8980 C   0  0  0  0  0  0  0  0  0  0  0  0
  142.6340   80.6640  223.5390 C   0  0  0  0  0  0  0  0  0  0  0  0
  142.5780   79.3740  223.0530 C   0  0  0  0  0  0  0  0  0  0  0  0
  141.3890   78.6900  222.8970 C   0  0  0  0  0  0  0  0  0  0  0  0
  141.3490   77.4310  222.4200 N   0  0  0  0  0  0  0  0  0  0  0  0
  137.9640   71.4830  223.5570 C   0  0  0  0  0  0  0  0  0  0  0  0
  137.2450   70.5090  223.9010 O   0  0  0  0  0  0  0  0  0  0  0  0
  137.2930   72.6290  223.0530 N   0  0  0  0  0  0  0  0  0  0  0  0
  135.8520   72.6680  222.9420 C   0  0  0  0  0  0  0  0  0  0  0  0
  135.3430   73.0060  224.3440 C   0  0  0  0  0  0  0  0  0  0  0  0
  135.3550   74.5000  224.4360 C   0  0  0  0  0  0  0  0  0  0  0  0
  135.1650   74.9840  223.0150 C   0  0  0  0  0  0  0  0  0  0  0  0
  135.3310   73.7930  222.1090 C   0  0  0  0  0  0  0  0  0  0  0  0
  140.1603   70.2990  227.5550 H   0  0  0  0  0  0  0  0  0  0  0  0
  141.5415   69.2347  227.1234 H   0  0  0  0  0  0  0  0  0  0  0  0
  141.7484   71.0191  227.1234 H   0  0  0  0  0  0  0  0  0  0  0  0
  141.5516   70.1526  224.8708 H   0  0  0  0  0  0  0  0  0  0  0  0
  139.2759   68.7566  226.2684 H   0  0  0  0  0  0  0  0  0  0  0  0
  138.7413   69.5031  224.7245 H   0  0  0  0  0  0  0  0  0  0  0  0
  140.0674   68.2914  224.7245 H   0  0  0  0  0  0  0  0  0  0  0  0
  139.1419   71.6947  225.7333 H   0  0  0  0  0  0  0  0  0  0  0  0
  140.7652   72.2681  225.0625 H   0  0  0  0  0  0  0  0  0  0  0  0
  139.7282   70.5641  223.1820 H   0  0  0  0  0  0  0  0  0  0  0  0
  139.8060   73.5620  223.1480 H   0  0  0  0  0  0  0  0  0  0  0  0
  142.5821   73.1295  220.8069 H   0  0  0  0  0  0  0  0  0  0  0  0
  140.9585   73.4114  219.9753 H   0  0  0  0  0  0  0  0  0  0  0  0
  142.3170   75.3050  221.6340 H   0  0  0  0  0  0  0  0  0  0  0  0
  138.0661   76.8107  222.4768 H   0  0  0  0  0  0  0  0  0  0  0  0
  138.0994   79.1216  223.3581 H   0  0  0  0  0  0  0  0  0  0  0  0
  139.3198   81.1302  224.0152 H   0  0  0  0  0  0  0  0  0  0  0  0
  141.4700   82.3528  224.2896 H   0  0  0  0  0  0  0  0  0  0  0  0
  143.6040   81.1720  223.6442 H   0  0  0  0  0  0  0  0  0  0  0  0
  143.5171   78.8710  222.7792 H   0  0  0  0  0  0  0  0  0  0  0  0
  137.8030   73.4970  222.7380 H   0  0  0  0  0  0  0  0  0  0  0  0
  135.5338   71.7114  222.5019 H   0  0  0  0  0  0  0  0  0  0  0  0
  134.3215   72.6223  224.4829 H   0  0  0  0  0  0  0  0  0  0  0  0
  135.9709   72.5485  225.1227 H   0  0  0  0  0  0  0  0  0  0  0  0
  134.5345   74.8540  225.0775 H   0  0  0  0  0  0  0  0  0  0  0  0
  136.2882   74.8782  224.8789 H   0  0  0  0  0  0  0  0  0  0  0  0
  134.1584   75.4110  222.8944 H   0  0  0  0  0  0  0  0  0  0  0  0
  135.8992   75.7652  222.7688 H   0  0  0  0  0  0  0  0  0  0  0  0
  134.3614   73.5173  221.6688 H   0  0  0  0  0  0  0  0  0  0  0  0
  136.0261   74.0231  221.2881 H   0  0  0  0  0  0  0  0  0  0  0  0
  1  2  1  0
  2  3  1  0
  2  4  1  0
  4  5  1  0
  5  6  1  0
  6  7  1  0
  7  8  2  0
  7  9  1  0
  9 10  1  0
 10 11  1  0
 11 12  2  0
 11 13  1  0
 13 14  2  0
 14 15  1  0
 15 16  2  0
 16 17  1  0
 17 18  2  0
 18 19  1  0
 19 20  2  0
 20 21  1  0
 21 22  2  0
  5 23  1  0
 23 24  2  0
 23 25  1  0
 25 26  1  0
 26 27  1  0
 27 28  1  0
 28 29  1  0
 29 30  1  0
 22 13  1  0
 30 26  1  0
 21 16  1  0
  1 31  1  0
  1 32  1  0
  1 33  1  0
  2 34  1  0
  3 35  1  0
  3 36  1  0
  3 37  1  0
  4 38  1  0
  4 39  1  0
  5 40  1  6
  6 41  1  0
  9 42  1  0
  9 43  1  0
 10 44  1  0
 14 45  1  0
 15 46  1  0
 17 47  1  0
 18 48  1  0
 19 49  1  0
 20 50  1  0
 25 51  1  0
 26 52  1  0
 27 53  1  0
 27 54  1  0
 28 55  1  0
 28 56  1  0
 29 57  1  0
 29 58  1  0
 30 59  1  0
 30 60  1  0
M  END
>  <smiles>  (29) 
CC(C)C[C@H](NC(=O)CNC(=O)c1ccc2ccccc2n1)C(=O)NC1CCCC1

>  <score_type>  (29) 
oracle

>  <origin>  (29) 
autodockgpu

>  <m_score__min__energy>  (29) 
-9.0600000000000005

>  <m_primary>  (29) 
energy

>  <rmsd>  (29) 
8.721590911932038

>  <m_score__min__rmsd>  (29) 
8.721590911932038

>  <meeko>  (29) 
{"free_energy": -7.52, "intermolecular_energy": -9.91, "internal_energy": -3.62, "cluster_size": 10, "cluster_id": 2, "rank_in_cluster": 8}

>  <energy>  (29) 
-8.47

>  <cluster_rmsd>  (29) 
1.39

>  <cluster>  (29) 
1

$$$$

     RDKit          3D

 60 62  0  0  0  0  0  0  0  0999 V2000
  143.3230   76.4960  217.8070 C   0  0  0  0  0  0  0  0  0  0  0  0
  142.7110   77.2440  218.9580 C   0  0  0  0  0  0  0  0  0  0  0  0
  142.5410   78.6940  218.4840 C   0  0  0  0  0  0  0  0  0  0  0  0
  141.3710   76.7700  219.3780 C   0  0  0  0  0  0  0  0  0  0  0  0
  141.2860   76.1580  220.7520 C   0  0  2  0  0  0  0  0  0  0  0  0
  140.6830   74.8250  220.6960 N   0  0  0  0  0  0  0  0  0  0  0  0
  141.3280   73.7180  220.0950 C   0  0  0  0  0  0  0  0  0  0  0  0
  142.4760   73.9160  219.5950 O   0  0  0  0  0  0  0  0  0  0  0  0
  140.7610   72.3560  220.0100 C   0  0  0  0  0  0  0  0  0  0  0  0
  140.6940   71.6320  221.2360 N   0  0  0  0  0  0  0  0  0  0  0  0
  140.1210   72.1840  222.4270 C   0  0  0  0  0  0  0  0  0  0  0  0
  139.6300   73.3630  222.4470 O   0  0  0  0  0  0  0  0  0  0  0  0
  140.0950   71.3750  223.6650 C   0  0  0  0  0  0  0  0  0  0  0  0
  139.5510   70.1080  223.6310 C   0  0  0  0  0  0  0  0  0  0  0  0
  139.5360   69.3710  224.7980 C   0  0  0  0  0  0  0  0  0  0  0  0
  140.0420   69.8550  225.9860 C   0  0  0  0  0  0  0  0  0  0  0  0
  140.0310   69.1230  227.1610 C   0  0  0  0  0  0  0  0  0  0  0  0
  140.5440   69.6280  228.3450 C   0  0  0  0  0  0  0  0  0  0  0  0
  141.0820   70.9200  228.3160 C   0  0  0  0  0  0  0  0  0  0  0  0
  141.0860   71.6360  227.1360 C   0  0  0  0  0  0  0  0  0  0  0  0
  140.5730   71.1300  225.9590 C   0  0  0  0  0  0  0  0  0  0  0  0
  140.5820   71.8400  224.8150 N   0  0  0  0  0  0  0  0  0  0  0  0
  140.6920   77.0300  221.7730 C   0  0  0  0  0  0  0  0  0  0  0  0
  139.5400   76.8900  222.2600 O   0  0  0  0  0  0  0  0  0  0  0  0
  141.4650   78.1190  222.2580 N   0  0  0  0  0  0  0  0  0  0  0  0
  140.9460   79.0190  223.2630 C   0  0  0  0  0  0  0  0  0  0  0  0
  142.1340   79.3480  224.1690 C   0  0  0  0  0  0  0  0  0  0  0  0
  142.8330   80.5050  223.5240 C   0  0  0  0  0  0  0  0  0  0  0  0
  141.7560   81.2400  222.7580 C   0  0  0  0  0  0  0  0  0  0  0  0
  140.5360   80.3560  222.7370 C   0  0  0  0  0  0  0  0  0  0  0  0
  143.9752   75.6988  218.1931 H   0  0  0  0  0  0  0  0  0  0  0  0
  142.5257   76.0521  217.1928 H   0  0  0  0  0  0  0  0  0  0  0  0
  143.9160   77.1896  217.1928 H   0  0  0  0  0  0  0  0  0  0  0  0
  143.3756   77.1049  219.8234 H   0  0  0  0  0  0  0  0  0  0  0  0
  142.4631   79.3585  219.3572 H   0  0  0  0  0  0  0  0  0  0  0  0
  143.4111   78.9859  217.8776 H   0  0  0  0  0  0  0  0  0  0  0  0
  141.6270   78.7768  217.8776 H   0  0  0  0  0  0  0  0  0  0  0  0
  140.6861   77.6303  219.3501 H   0  0  0  0  0  0  0  0  0  0  0  0
  141.1099   75.9627  218.6779 H   0  0  0  0  0  0  0  0  0  0  0  0
  142.3224   76.0357  221.0996 H   0  0  0  0  0  0  0  0  0  0  0  0
  139.7470   74.7280  221.1370 H   0  0  0  0  0  0  0  0  0  0  0  0
  139.7389   72.4406  219.6123 H   0  0  0  0  0  0  0  0  0  0  0  0
  141.4476   71.7874  219.3656 H   0  0  0  0  0  0  0  0  0  0  0  0
  141.0660   70.6410  221.3390 H   0  0  0  0  0  0  0  0  0  0  0  0
  139.1397   69.6955  222.6979 H   0  0  0  0  0  0  0  0  0  0  0  0
  139.1041   68.3595  224.7797 H   0  0  0  0  0  0  0  0  0  0  0  0
  139.6021   68.1101  227.1545 H   0  0  0  0  0  0  0  0  0  0  0  0
  140.5291   69.0363  229.2722 H   0  0  0  0  0  0  0  0  0  0  0  0
  141.5006   71.3636  229.2314 H   0  0  0  0  0  0  0  0  0  0  0  0
  141.5146   72.6491  227.1337 H   0  0  0  0  0  0  0  0  0  0  0  0
  142.4410   78.3240  221.9150 H   0  0  0  0  0  0  0  0  0  0  0  0
  140.0762   78.5269  223.7227 H   0  0  0  0  0  0  0  0  0  0  0  0
  141.7836   79.6246  225.1743 H   0  0  0  0  0  0  0  0  0  0  0  0
  142.8050   78.4842  224.2853 H   0  0  0  0  0  0  0  0  0  0  0  0
  143.2796   81.1600  224.2866 H   0  0  0  0  0  0  0  0  0  0  0  0
  143.6534   80.1770  222.8687 H   0  0  0  0  0  0  0  0  0  0  0  0
  141.5222   82.1918  223.2574 H   0  0  0  0  0  0  0  0  0  0  0  0
  142.0912   81.4643  221.7346 H   0  0  0  0  0  0  0  0  0  0  0  0
  139.7489   80.7858  223.3740 H   0  0  0  0  0  0  0  0  0  0  0  0
  140.1376   80.2668  221.7155 H   0  0  0  0  0  0  0  0  0  0  0  0
  1  2  1  0
  2  3  1  0
  2  4  1  0
  4  5  1  0
  5  6  1  0
  6  7  1  0
  7  8  2  0
  7  9  1  0
  9 10  1  0
 10 11  1  0
 11 12  2  0
 11 13  1  0
 13 14  2  0
 14 15  1  0
 15 16  2  0
 16 17  1  0
 17 18  2  0
 18 19  1  0
 19 20  2  0
 20 21  1  0
 21 22  2  0
  5 23  1  0
 23 24  2  0
 23 25  1  0
 25 26  1  0
 26 27  1  0
 27 28  1  0
 28 29  1  0
 29 30  1  0
 22 13  1  0
 30 26  1  0
 21 16  1  0
  1 31  1  0
  1 32  1  0
  1 33  1  0
  2 34  1  0
  3 35  1  0
  3 36  1  0
  3 37  1  0
  4 38  1  0
  4 39  1  0
  5 40  1  1
  6 41  1  0
  9 42  1  0
  9 43  1  0
 10 44  1  0
 14 45  1  0
 15 46  1  0
 17 47  1  0
 18 48  1  0
 19 49  1  0
 20 50  1  0
 25 51  1  0
 26 52  1  0
 27 53  1  0
 27 54  1  0
 28 55  1  0
 28 56  1  0
 29 57  1  0
 29 58  1  0
 30 59  1  0
 30 60  1  0
M  END
>  <smiles>  (30) 
CC(C)C[C@H](NC(=O)CNC(=O)c1ccc2ccccc2n1)C(=O)NC1CCCC1

>  <score_type>  (30) 
oracle

>  <origin>  (30) 
autodockgpu

>  <m_score__min__energy>  (30) 
-9.0600000000000005

>  <m_primary>  (30) 
energy

>  <rmsd>  (30) 
2.5437077890524327

>  <m_score__min__rmsd>  (30) 
2.5437077890524327

>  <meeko>  (30) 
{"free_energy": -8.65, "intermolecular_energy": -11.03, "internal_energy": -2.57, "cluster_size": 39, "cluster_id": 1, "rank_in_cluster": 16}

>  <energy>  (30) 
-8.47

>  <cluster_rmsd>  (30) 
1.6

>  <cluster>  (30) 
1

$$$$

     RDKit          3D

 60 62  0  0  0  0  0  0  0  0999 V2000
  139.8830   79.6190  223.4970 C   0  0  0  0  0  0  0  0  0  0  0  0
  140.8080   79.0330  222.4680 C   0  0  0  0  0  0  0  0  0  0  0  0
  142.2330   79.3430  222.9460 C   0  0  0  0  0  0  0  0  0  0  0  0
  140.7200   77.5620  222.3050 C   0  0  0  0  0  0  0  0  0  0  0  0
  140.3510   77.0700  220.9300 C   0  0  2  0  0  0  0  0  0  0  0  0
  139.4440   75.9230  221.0100 N   0  0  0  0  0  0  0  0  0  0  0  0
  139.8320   74.6770  221.5560 C   0  0  0  0  0  0  0  0  0  0  0  0
  141.0190   74.5770  221.9910 O   0  0  0  0  0  0  0  0  0  0  0  0
  138.9560   73.4900  221.6550 C   0  0  0  0  0  0  0  0  0  0  0  0
  139.2200   72.6120  222.7460 N   0  0  0  0  0  0  0  0  0  0  0  0
  138.9160   71.2140  222.7010 C   0  0  0  0  0  0  0  0  0  0  0  0
  138.3930   70.6770  221.6660 O   0  0  0  0  0  0  0  0  0  0  0  0
  139.2110   70.3660  223.8760 C   0  0  0  0  0  0  0  0  0  0  0  0
  138.8710   69.0290  223.8450 C   0  0  0  0  0  0  0  0  0  0  0  0
  139.1560   68.2570  224.9530 C   0  0  0  0  0  0  0  0  0  0  0  0
  139.7620   68.7710  226.0800 C   0  0  0  0  0  0  0  0  0  0  0  0
  140.0520   68.0040  227.1950 C   0  0  0  0  0  0  0  0  0  0  0  0
  140.6620   68.5400  228.3170 C   0  0  0  0  0  0  0  0  0  0  0  0
  140.9820   69.9020  228.2880 C   0  0  0  0  0  0  0  0  0  0  0  0
  140.6880   70.6530  227.1680 C   0  0  0  0  0  0  0  0  0  0  0  0
  140.0790   70.1150  226.0520 C   0  0  0  0  0  0  0  0  0  0  0  0
  139.7970   70.8600  224.9670 N   0  0  0  0  0  0  0  0  0  0  0  0
  141.4910   76.8570  220.0320 C   0  0  0  0  0  0  0  0  0  0  0  0
  141.6140   77.3690  218.8880 O   0  0  0  0  0  0  0  0  0  0  0  0
  142.5440   76.0110  220.4710 N   0  0  0  0  0  0  0  0  0  0  0  0
  143.6990   75.7550  219.6400 C   0  0  0  0  0  0  0  0  0  0  0  0
  144.5740   74.7880  220.4420 C   0  0  0  0  0  0  0  0  0  0  0  0
  144.0660   73.4160  220.1230 C   0  0  0  0  0  0  0  0  0  0  0  0
  143.4800   73.5250  218.7330 C   0  0  0  0  0  0  0  0  0  0  0  0
  143.4000   74.9900  218.3920 C   0  0  0  0  0  0  0  0  0  0  0  0
  140.2572   79.3819  224.5038 H   0  0  0  0  0  0  0  0  0  0  0  0
  139.8380   80.7107  223.3702 H   0  0  0  0  0  0  0  0  0  0  0  0
  138.8767   79.1933  223.3702 H   0  0  0  0  0  0  0  0  0  0  0  0
  140.5304   79.4710  221.4979 H   0  0  0  0  0  0  0  0  0  0  0  0
  142.2578   79.3484  224.0457 H   0  0  0  0  0  0  0  0  0  0  0  0
  142.9222   78.5738  222.5675 H   0  0  0  0  0  0  0  0  0  0  0  0
  142.5404   80.3290  222.5675 H   0  0  0  0  0  0  0  0  0  0  0  0
  141.7007   77.1357  222.5628 H   0  0  0  0  0  0  0  0  0  0  0  0
  139.9009   77.2394  222.9646 H   0  0  0  0  0  0  0  0  0  0  0  0
  139.8016   77.8907  220.4456 H   0  0  0  0  0  0  0  0  0  0  0  0
  138.4810   76.0760  220.6480 H   0  0  0  0  0  0  0  0  0  0  0  0
  137.9187   73.8434  221.7500 H   0  0  0  0  0  0  0  0  0  0  0  0
  139.1475   72.9015  220.7456 H   0  0  0  0  0  0  0  0  0  0  0  0
  139.6570   72.9430  223.6570 H   0  0  0  0  0  0  0  0  0  0  0  0
  138.3857   68.5902  222.9607 H   0  0  0  0  0  0  0  0  0  0  0  0
  138.8893   67.1899  224.9364 H   0  0  0  0  0  0  0  0  0  0  0  0
  139.7899   66.9357  227.1899 H   0  0  0  0  0  0  0  0  0  0  0  0
  140.8863   67.9191  229.1969 H   0  0  0  0  0  0  0  0  0  0  0  0
  141.4667   70.3730  229.1559 H   0  0  0  0  0  0  0  0  0  0  0  0
  140.9490   71.7216  227.1644 H   0  0  0  0  0  0  0  0  0  0  0  0
  142.5380   75.5330  221.4110 H   0  0  0  0  0  0  0  0  0  0  0  0
  144.1308   76.7311  219.3741 H   0  0  0  0  0  0  0  0  0  0  0  0
  145.6276   74.8857  220.1412 H   0  0  0  0  0  0  0  0  0  0  0  0
  144.5238   74.9971  221.5208 H   0  0  0  0  0  0  0  0  0  0  0  0
  144.8890   72.6863  220.1388 H   0  0  0  0  0  0  0  0  0  0  0  0
  143.3230   73.0711  220.8572 H   0  0  0  0  0  0  0  0  0  0  0  0
  144.1266   73.0055  218.0105 H   0  0  0  0  0  0  0  0  0  0  0  0
  142.4829   73.0620  218.6942 H   0  0  0  0  0  0  0  0  0  0  0  0
  144.1378   75.2360  217.6141 H   0  0  0  0  0  0  0  0  0  0  0  0
  142.4012   75.2461  218.0088 H   0  0  0  0  0  0  0  0  0  0  0  0
  1  2  1  0
  2  3  1  0
  2  4  1  0
  4  5  1  0
  5  6  1  0
  6  7  1  0
  7  8  2  0
  7  9  1  0
  9 10  1  0
 10 11  1  0
 11 12  2  0
 11 13  1  0
 13 14  2  0
 14 15  1  0
 15 16  2  0
 16 17  1  0
 17 18  2  0
 18 19  1  0
 19 20  2  0
 20 21  1  0
 21 22  2  0
  5 23  1  0
 23 24  2  0
 23 25  1  0
 25 26  1  0
 26 27  1  0
 27 28  1  0
 28 29  1  0
 29 30  1  0
 22 13  1  0
 30 26  1  0
 21 16  1  0
  1 31  1  0
  1 32  1  0
  1 33  1  0
  2 34  1  0
  3 35  1  0
  3 36  1  0
  3 37  1  0
  4 38  1  0
  4 39  1  0
  5 40  1  6
  6 41  1  0
  9 42  1  0
  9 43  1  0
 10 44  1  0
 14 45  1  0
 15 46  1  0
 17 47  1  0
 18 48  1  0
 19 49  1  0
 20 50  1  0
 25 51  1  0
 26 52  1  0
 27 53  1  0
 27 54  1  0
 28 55  1  0
 28 56  1  0
 29 57  1  0
 29 58  1  0
 30 59  1  0
 30 60  1  0
M  END
>  <smiles>  (31) 
CC(C)C[C@H](NC(=O)CNC(=O)c1ccc2ccccc2n1)C(=O)NC1CCCC1

>  <score_type>  (31) 
oracle

>  <origin>  (31) 
autodockgpu

>  <m_score__min__energy>  (31) 
-9.0600000000000005

>  <m_primary>  (31) 
energy

>  <rmsd>  (31) 
4.550656061067682

>  <m_score__min__rmsd>  (31) 
4.550656061067682

>  <meeko>  (31) 
{"free_energy": -8.3, "intermolecular_energy": -10.69, "internal_energy": -2.8, "cluster_size": 39, "cluster_id": 1, "rank_in_cluster": 34}

>  <energy>  (31) 
-8.46

>  <cluster_rmsd>  (31) 
1.6

>  <cluster>  (31) 
1

$$$$

     RDKit          3D

 60 62  0  0  0  0  0  0  0  0999 V2000
  144.0340   74.3510  219.2250 C   0  0  0  0  0  0  0  0  0  0  0  0
  143.6990   75.0530  217.9400 C   0  0  0  0  0  0  0  0  0  0  0  0
  142.9090   74.0450  217.0940 C   0  0  0  0  0  0  0  0  0  0  0  0
  142.8450   76.2570  218.0820 C   0  0  0  0  0  0  0  0  0  0  0  0
  142.2410   76.4830  219.4430 C   0  0  2  0  0  0  0  0  0  0  0  0
  141.0580   75.6410  219.6380 N   0  0  0  0  0  0  0  0  0  0  0  0
  140.7030   75.1000  220.8960 C   0  0  0  0  0  0  0  0  0  0  0  0
  141.4550   75.3740  221.8790 O   0  0  0  0  0  0  0  0  0  0  0  0
  139.5250   74.2430  221.1430 C   0  0  0  0  0  0  0  0  0  0  0  0
  139.5670   73.4520  222.3280 N   0  0  0  0  0  0  0  0  0  0  0  0
  139.9960   72.0870  222.3290 C   0  0  0  0  0  0  0  0  0  0  0  0
  140.3720   71.5040  221.2560 O   0  0  0  0  0  0  0  0  0  0  0  0
  140.0060   71.3270  223.5980 C   0  0  0  0  0  0  0  0  0  0  0  0
  139.5260   70.0340  223.6130 C   0  0  0  0  0  0  0  0  0  0  0  0
  139.5450   69.3440  224.8080 C   0  0  0  0  0  0  0  0  0  0  0  0
  140.0230   69.8980  225.9770 C   0  0  0  0  0  0  0  0  0  0  0  0
  140.0460   69.2140  227.1800 C   0  0  0  0  0  0  0  0  0  0  0  0
  140.5300   69.7890  228.3430 C   0  0  0  0  0  0  0  0  0  0  0  0
  141.0020   71.1040  228.2640 C   0  0  0  0  0  0  0  0  0  0  0  0
  140.9730   71.7730  227.0570 C   0  0  0  0  0  0  0  0  0  0  0  0
  140.4890   71.1960  225.9000 C   0  0  0  0  0  0  0  0  0  0  0  0
  140.4670   71.8610  224.7300 N   0  0  0  0  0  0  0  0  0  0  0  0
  142.0230   77.8930  219.7870 C   0  0  0  0  0  0  0  0  0  0  0  0
  141.9500   78.8360  218.9560 O   0  0  0  0  0  0  0  0  0  0  0  0
  141.8800   78.2350  221.1590 N   0  0  0  0  0  0  0  0  0  0  0  0
  141.6630   79.6030  221.5730 C   0  0  0  0  0  0  0  0  0  0  0  0
  140.3890   79.5760  222.4200 C   0  0  0  0  0  0  0  0  0  0  0  0
  140.8290   79.2460  223.8120 C   0  0  0  0  0  0  0  0  0  0  0  0
  142.2450   79.7690  223.9130 C   0  0  0  0  0  0  0  0  0  0  0  0
  142.6920   80.1280  222.5200 C   0  0  0  0  0  0  0  0  0  0  0  0
  143.7337   74.9804  220.0757 H   0  0  0  0  0  0  0  0  0  0  0  0
  143.4962   73.3925  219.2702 H   0  0  0  0  0  0  0  0  0  0  0  0
  145.1174   74.1661  219.2702 H   0  0  0  0  0  0  0  0  0  0  0  0
  144.6485   75.3947  217.5022 H   0  0  0  0  0  0  0  0  0  0  0  0
  142.3677   73.3543  217.7572 H   0  0  0  0  0  0  0  0  0  0  0  0
  142.1897   74.5832  216.4592 H   0  0  0  0  0  0  0  0  0  0  0  0
  143.6035   73.4751  216.4592 H   0  0  0  0  0  0  0  0  0  0  0  0
  143.4593   77.1359  217.8366 H   0  0  0  0  0  0  0  0  0  0  0  0
  141.9941   76.0979  217.4033 H   0  0  0  0  0  0  0  0  0  0  0  0
  142.9975   76.1613  220.1739 H   0  0  0  0  0  0  0  0  0  0  0  0
  140.4780   75.4660  218.7930 H   0  0  0  0  0  0  0  0  0  0  0  0
  138.6411   74.8949  221.2043 H   0  0  0  0  0  0  0  0  0  0  0  0
  139.4981   73.5269  220.3084 H   0  0  0  0  0  0  0  0  0  0  0  0
  139.2830   73.8300  223.2810 H   0  0  0  0  0  0  0  0  0  0  0  0
  139.1383   69.5651  222.6966 H   0  0  0  0  0  0  0  0  0  0  0  0
  139.1642   68.3122  224.8289 H   0  0  0  0  0  0  0  0  0  0  0  0
  139.6681   68.1815  227.2133 H   0  0  0  0  0  0  0  0  0  0  0  0
  140.5429   69.2335  229.2924 H   0  0  0  0  0  0  0  0  0  0  0  0
  141.3952   71.6034  229.1618 H   0  0  0  0  0  0  0  0  0  0  0  0
  141.3500   72.8055  227.0154 H   0  0  0  0  0  0  0  0  0  0  0  0
  141.9260   77.5210  221.9330 H   0  0  0  0  0  0  0  0  0  0  0  0
  141.6566   80.2213  220.6632 H   0  0  0  0  0  0  0  0  0  0  0  0
  139.8939   80.5580  222.3979 H   0  0  0  0  0  0  0  0  0  0  0  0
  139.6664   78.8391  222.0394 H   0  0  0  0  0  0  0  0  0  0  0  0
  140.1808   79.7419  224.5495 H   0  0  0  0  0  0  0  0  0  0  0  0
  140.7730   78.1667  224.0166 H   0  0  0  0  0  0  0  0  0  0  0  0
  142.2719   80.6597  224.5579 H   0  0  0  0  0  0  0  0  0  0  0  0
  142.9096   79.0097  224.3510 H   0  0  0  0  0  0  0  0  0  0  0  0
  142.7723   81.2205  222.4205 H   0  0  0  0  0  0  0  0  0  0  0  0
  143.6784   79.6919  222.3035 H   0  0  0  0  0  0  0  0  0  0  0  0
  1  2  1  0
  2  3  1  0
  2  4  1  0
  4  5  1  0
  5  6  1  0
  6  7  1  0
  7  8  2  0
  7  9  1  0
  9 10  1  0
 10 11  1  0
 11 12  2  0
 11 13  1  0
 13 14  2  0
 14 15  1  0
 15 16  2  0
 16 17  1  0
 17 18  2  0
 18 19  1  0
 19 20  2  0
 20 21  1  0
 21 22  2  0
  5 23  1  0
 23 24  2  0
 23 25  1  0
 25 26  1  0
 26 27  1  0
 27 28  1  0
 28 29  1  0
 29 30  1  0
 22 13  1  0
 30 26  1  0
 21 16  1  0
  1 31  1  0
  1 32  1  0
  1 33  1  0
  2 34  1  0
  3 35  1  0
  3 36  1  0
  3 37  1  0
  4 38  1  0
  4 39  1  0
  5 40  1  1
  6 41  1  0
  9 42  1  0
  9 43  1  0
 10 44  1  0
 14 45  1  0
 15 46  1  0
 17 47  1  0
 18 48  1  0
 19 49  1  0
 20 50  1  0
 25 51  1  0
 26 52  1  0
 27 53  1  0
 27 54  1  0
 28 55  1  0
 28 56  1  0
 29 57  1  0
 29 58  1  0
 30 59  1  0
 30 60  1  0
M  END
>  <smiles>  (32) 
CC(C)C[C@H](NC(=O)CNC(=O)c1ccc2ccccc2n1)C(=O)NC1CCCC1

>  <score_type>  (32) 
oracle

>  <origin>  (32) 
autodockgpu

>  <m_score__min__energy>  (32) 
-9.0600000000000005

>  <m_primary>  (32) 
energy

>  <rmsd>  (32) 
2.485273838068213

>  <m_score__min__rmsd>  (32) 
2.485273838068213

>  <meeko>  (32) 
{"free_energy": -8.5, "intermolecular_energy": -10.89, "internal_energy": -2.54, "cluster_size": 39, "cluster_id": 1, "rank_in_cluster": 25}

>  <energy>  (32) 
-8.44

>  <cluster_rmsd>  (32) 
1.36

>  <cluster>  (32) 
1

$$$$

     RDKit          3D

 60 62  0  0  0  0  0  0  0  0999 V2000
  142.6100   78.7190  218.1180 C   0  0  0  0  0  0  0  0  0  0  0  0
  142.3540   77.2410  218.0420 C   0  0  0  0  0  0  0  0  0  0  0  0
  142.9140   76.7780  216.6890 C   0  0  0  0  0  0  0  0  0  0  0  0
  143.0250   76.4290  219.0850 C   0  0  0  0  0  0  0  0  0  0  0  0
  142.2210   76.1540  220.3290 C   0  0  2  0  0  0  0  0  0  0  0  0
  141.4700   74.9030  220.2020 N   0  0  0  0  0  0  0  0  0  0  0  0
  142.0950   73.6350  220.1710 C   0  0  0  0  0  0  0  0  0  0  0  0
  143.3590   73.6070  220.2640 O   0  0  0  0  0  0  0  0  0  0  0  0
  141.3830   72.3460  220.0410 C   0  0  0  0  0  0  0  0  0  0  0  0
  141.1210   71.6540  221.2590 N   0  0  0  0  0  0  0  0  0  0  0  0
  140.4880   72.2790  222.3800 C   0  0  0  0  0  0  0  0  0  0  0  0
  140.1160   73.5010  222.3420 O   0  0  0  0  0  0  0  0  0  0  0  0
  140.2560   71.4990  223.6150 C   0  0  0  0  0  0  0  0  0  0  0  0
  139.5390   70.3220  223.5440 C   0  0  0  0  0  0  0  0  0  0  0  0
  139.3350   69.6100  224.7090 C   0  0  0  0  0  0  0  0  0  0  0  0
  139.8170   70.0320  225.9300 C   0  0  0  0  0  0  0  0  0  0  0  0
  139.6170   69.3240  227.1020 C   0  0  0  0  0  0  0  0  0  0  0  0
  140.1110   69.7660  228.3190 C   0  0  0  0  0  0  0  0  0  0  0  0
  140.8290   70.9670  228.3270 C   0  0  0  0  0  0  0  0  0  0  0  0
  141.0210   71.6600  227.1490 C   0  0  0  0  0  0  0  0  0  0  0  0
  140.5270   71.2170  225.9380 C   0  0  0  0  0  0  0  0  0  0  0  0
  140.7210   71.9040  224.7970 N   0  0  0  0  0  0  0  0  0  0  0  0
  141.4090   77.2840  220.7930 C   0  0  0  0  0  0  0  0  0  0  0  0
  140.1500   77.3170  220.7900 O   0  0  0  0  0  0  0  0  0  0  0  0
  142.0790   78.4350  221.2860 N   0  0  0  0  0  0  0  0  0  0  0  0
  141.3440   79.5870  221.7610 C   0  0  0  0  0  0  0  0  0  0  0  0
  140.7280   79.1570  223.0940 C   0  0  0  0  0  0  0  0  0  0  0  0
  141.7740   79.4220  224.1330 C   0  0  0  0  0  0  0  0  0  0  0  0
  142.5970   80.5660  223.5810 C   0  0  0  0  0  0  0  0  0  0  0  0
  142.2020   80.7490  222.1390 C   0  0  0  0  0  0  0  0  0  0  0  0
  142.6635   79.0281  219.1723 H   0  0  0  0  0  0  0  0  0  0  0  0
  143.5619   78.9524  217.6187 H   0  0  0  0  0  0  0  0  0  0  0  0
  141.7920   79.2590  217.6187 H   0  0  0  0  0  0  0  0  0  0  0  0
  141.2728   77.0934  218.1808 H   0  0  0  0  0  0  0  0  0  0  0  0
  143.7519   76.0853  216.8566 H   0  0  0  0  0  0  0  0  0  0  0  0
  142.1233   76.2664  216.1206 H   0  0  0  0  0  0  0  0  0  0  0  0
  143.2679   77.6508  216.1206 H   0  0  0  0  0  0  0  0  0  0  0  0
  143.2928   75.4608  218.6368 H   0  0  0  0  0  0  0  0  0  0  0  0
  143.8871   77.0266  219.4161 H   0  0  0  0  0  0  0  0  0  0  0  0
  142.9484   76.0191  221.1431 H   0  0  0  0  0  0  0  0  0  0  0  0
  140.4360   74.9960  220.1440 H   0  0  0  0  0  0  0  0  0  0  0  0
  140.4181   72.5419  219.5504 H   0  0  0  0  0  0  0  0  0  0  0  0
  142.0544   71.6918  219.4655 H   0  0  0  0  0  0  0  0  0  0  0  0
  141.3800   70.6330  221.4070 H   0  0  0  0  0  0  0  0  0  0  0  0
  139.1406   69.9607  222.5845 H   0  0  0  0  0  0  0  0  0  0  0  0
  138.7660   68.6698  224.6614 H   0  0  0  0  0  0  0  0  0  0  0  0
  139.0492   68.3826  227.0666 H   0  0  0  0  0  0  0  0  0  0  0  0
  139.9449   69.1942  229.2439 H   0  0  0  0  0  0  0  0  0  0  0  0
  141.2394   71.3578  229.2698 H   0  0  0  0  0  0  0  0  0  0  0  0
  141.5894   72.6014  227.1758 H   0  0  0  0  0  0  0  0  0  0  0  0
  143.1290   78.5100  221.3300 H   0  0  0  0  0  0  0  0  0  0  0  0
  140.6569   79.8891  220.9569 H   0  0  0  0  0  0  0  0  0  0  0  0
  139.8221   79.7445  223.3043 H   0  0  0  0  0  0  0  0  0  0  0  0
  140.4319   78.0977  223.0795 H   0  0  0  0  0  0  0  0  0  0  0  0
  141.3070   79.7074  225.0872 H   0  0  0  0  0  0  0  0  0  0  0  0
  142.3885   78.5324  224.3356 H   0  0  0  0  0  0  0  0  0  0  0  0
  142.3899   81.4859  224.1474 H   0  0  0  0  0  0  0  0  0  0  0  0
  143.6718   80.3477  223.6650 H   0  0  0  0  0  0  0  0  0  0  0  0
  141.6394   81.6866  222.0192 H   0  0  0  0  0  0  0  0  0  0  0  0
  143.0926   80.8002  221.4955 H   0  0  0  0  0  0  0  0  0  0  0  0
  1  2  1  0
  2  3  1  0
  2  4  1  0
  4  5  1  0
  5  6  1  0
  6  7  1  0
  7  8  2  0
  7  9  1  0
  9 10  1  0
 10 11  1  0
 11 12  2  0
 11 13  1  0
 13 14  2  0
 14 15  1  0
 15 16  2  0
 16 17  1  0
 17 18  2  0
 18 19  1  0
 19 20  2  0
 20 21  1  0
 21 22  2  0
  5 23  1  0
 23 24  2  0
 23 25  1  0
 25 26  1  0
 26 27  1  0
 27 28  1  0
 28 29  1  0
 29 30  1  0
 22 13  1  0
 30 26  1  0
 21 16  1  0
  1 31  1  0
  1 32  1  0
  1 33  1  0
  2 34  1  0
  3 35  1  0
  3 36  1  0
  3 37  1  0
  4 38  1  0
  4 39  1  0
  5 40  1  1
  6 41  1  0
  9 42  1  0
  9 43  1  0
 10 44  1  0
 14 45  1  0
 15 46  1  0
 17 47  1  0
 18 48  1  0
 19 49  1  0
 20 50  1  0
 25 51  1  0
 26 52  1  0
 27 53  1  0
 27 54  1  0
 28 55  1  0
 28 56  1  0
 29 57  1  0
 29 58  1  0
 30 59  1  0
 30 60  1  0
M  END
>  <smiles>  (33) 
CC(C)C[C@H](NC(=O)CNC(=O)c1ccc2ccccc2n1)C(=O)NC1CCCC1

>  <score_type>  (33) 
oracle

>  <origin>  (33) 
autodockgpu

>  <m_score__min__energy>  (33) 
-9.0600000000000005

>  <m_primary>  (33) 
energy

>  <rmsd>  (33) 
2.8366697394990426

>  <m_score__min__rmsd>  (33) 
2.8366697394990426

>  <meeko>  (33) 
{"free_energy": -8.75, "intermolecular_energy": -11.13, "internal_energy": -2.17, "cluster_size": 39, "cluster_id": 1, "rank_in_cluster": 7}

>  <energy>  (33) 
-8.42

>  <cluster_rmsd>  (33) 
1.63

>  <cluster>  (33) 
1

$$$$

     RDKit          3D

 60 62  0  0  0  0  0  0  0  0999 V2000
  141.1750   80.0120  221.6460 C   0  0  0  0  0  0  0  0  0  0  0  0
  141.5610   78.6950  222.2580 C   0  0  0  0  0  0  0  0  0  0  0  0
  141.7920   78.9680  223.7510 C   0  0  0  0  0  0  0  0  0  0  0  0
  140.5320   77.6320  222.1700 C   0  0  0  0  0  0  0  0  0  0  0  0
  140.2500   77.0960  220.7910 C   0  0  2  0  0  0  0  0  0  0  0  0
  139.3890   75.9130  220.8530 N   0  0  0  0  0  0  0  0  0  0  0  0
  139.7660   74.7270  221.5250 C   0  0  0  0  0  0  0  0  0  0  0  0
  140.9000   74.7150  222.0910 O   0  0  0  0  0  0  0  0  0  0  0  0
  138.9360   73.5070  221.6130 C   0  0  0  0  0  0  0  0  0  0  0  0
  139.2080   72.6470  222.7170 N   0  0  0  0  0  0  0  0  0  0  0  0
  138.9360   71.2420  222.6850 C   0  0  0  0  0  0  0  0  0  0  0  0
  138.4350   70.6820  221.6520 O   0  0  0  0  0  0  0  0  0  0  0  0
  139.2390   70.4140  223.8730 C   0  0  0  0  0  0  0  0  0  0  0  0
  138.9020   69.0770  223.8650 C   0  0  0  0  0  0  0  0  0  0  0  0
  139.1940   68.3230  224.9840 C   0  0  0  0  0  0  0  0  0  0  0  0
  139.8040   68.8580  226.1000 C   0  0  0  0  0  0  0  0  0  0  0  0
  140.1010   68.1100  227.2260 C   0  0  0  0  0  0  0  0  0  0  0  0
  140.7140   68.6660  228.3360 C   0  0  0  0  0  0  0  0  0  0  0  0
  141.0300   70.0280  228.2840 C   0  0  0  0  0  0  0  0  0  0  0  0
  140.7290   70.7600  227.1530 C   0  0  0  0  0  0  0  0  0  0  0  0
  140.1170   70.2020  226.0490 C   0  0  0  0  0  0  0  0  0  0  0  0
  139.8280   70.9290  224.9530 N   0  0  0  0  0  0  0  0  0  0  0  0
  141.4400   76.9140  219.9510 C   0  0  0  0  0  0  0  0  0  0  0  0
  141.6080   77.4310  218.8160 O   0  0  0  0  0  0  0  0  0  0  0  0
  142.4900   76.0950  220.4440 N   0  0  0  0  0  0  0  0  0  0  0  0
  143.6930   75.8700  219.6730 C   0  0  0  0  0  0  0  0  0  0  0  0
  144.5050   74.8490  220.4720 C   0  0  0  0  0  0  0  0  0  0  0  0
  144.0060   73.5030  220.0460 C   0  0  0  0  0  0  0  0  0  0  0  0
  143.5090   73.6970  218.6300 C   0  0  0  0  0  0  0  0  0  0  0  0
  143.4650   75.1800  218.3680 C   0  0  0  0  0  0  0  0  0  0  0  0
  140.9620   80.7387  222.4438 H   0  0  0  0  0  0  0  0  0  0  0  0
  142.0021   80.3833  221.0231 H   0  0  0  0  0  0  0  0  0  0  0  0
  140.2783   79.8781  221.0231 H   0  0  0  0  0  0  0  0  0  0  0  0
  142.4372   78.3262  221.7045 H   0  0  0  0  0  0  0  0  0  0  0  0
  141.1957   78.2633  224.3492 H   0  0  0  0  0  0  0  0  0  0  0  0
  142.8585   78.8380  223.9868 H   0  0  0  0  0  0  0  0  0  0  0  0
  141.4873   79.9983  223.9868 H   0  0  0  0  0  0  0  0  0  0  0  0
  140.8633   76.7907  222.7964 H   0  0  0  0  0  0  0  0  0  0  0  0
  139.5939   78.1003  222.5028 H   0  0  0  0  0  0  0  0  0  0  0  0
  139.6900   77.8827  220.2642 H   0  0  0  0  0  0  0  0  0  0  0  0
  138.4670   75.9940  220.3800 H   0  0  0  0  0  0  0  0  0  0  0  0
  137.8835   73.8196  221.6806 H   0  0  0  0  0  0  0  0  0  0  0  0
  139.1730   72.9203  220.7133 H   0  0  0  0  0  0  0  0  0  0  0  0
  139.6300   72.9990  223.6280 H   0  0  0  0  0  0  0  0  0  0  0  0
  138.4134   68.6232  222.9902 H   0  0  0  0  0  0  0  0  0  0  0  0
  138.9303   67.2551  224.9859 H   0  0  0  0  0  0  0  0  0  0  0  0
  139.8421   67.0410  227.2395 H   0  0  0  0  0  0  0  0  0  0  0  0
  140.9438   68.0601  229.2248 H   0  0  0  0  0  0  0  0  0  0  0  0
  141.5170   70.5142  229.1421 H   0  0  0  0  0  0  0  0  0  0  0  0
  140.9868   71.8291  227.1308 H   0  0  0  0  0  0  0  0  0  0  0  0
  142.4490   75.6160  221.3820 H   0  0  0  0  0  0  0  0  0  0  0  0
  144.1509   76.8532  219.4896 H   0  0  0  0  0  0  0  0  0  0  0  0
  145.5764   74.9495  220.2440 H   0  0  0  0  0  0  0  0  0  0  0  0
  144.3875   74.9987  221.5554 H   0  0  0  0  0  0  0  0  0  0  0  0
  144.8199   72.7635  220.0717 H   0  0  0  0  0  0  0  0  0  0  0  0
  143.2158   73.1265  220.7123 H   0  0  0  0  0  0  0  0  0  0  0  0
  144.1944   73.2099  217.9208 H   0  0  0  0  0  0  0  0  0  0  0  0
  142.5119   73.2501  218.5034 H   0  0  0  0  0  0  0  0  0  0  0  0
  144.2523   75.4591  217.6523 H   0  0  0  0  0  0  0  0  0  0  0  0
  142.4947   75.4704  217.9389 H   0  0  0  0  0  0  0  0  0  0  0  0
  1  2  1  0
  2  3  1  0
  2  4  1  0
  4  5  1  0
  5  6  1  0
  6  7  1  0
  7  8  2  0
  7  9  1  0
  9 10  1  0
 10 11  1  0
 11 12  2  0
 11 13  1  0
 13 14  2  0
 14 15  1  0
 15 16  2  0
 16 17  1  0
 17 18  2  0
 18 19  1  0
 19 20  2  0
 20 21  1  0
 21 22  2  0
  5 23  1  0
 23 24  2  0
 23 25  1  0
 25 26  1  0
 26 27  1  0
 27 28  1  0
 28 29  1  0
 29 30  1  0
 22 13  1  0
 30 26  1  0
 21 16  1  0
  1 31  1  0
  1 32  1  0
  1 33  1  0
  2 34  1  0
  3 35  1  0
  3 36  1  0
  3 37  1  0
  4 38  1  0
  4 39  1  0
  5 40  1  6
  6 41  1  0
  9 42  1  0
  9 43  1  0
 10 44  1  0
 14 45  1  0
 15 46  1  0
 17 47  1  0
 18 48  1  0
 19 49  1  0
 20 50  1  0
 25 51  1  0
 26 52  1  0
 27 53  1  0
 27 54  1  0
 28 55  1  0
 28 56  1  0
 29 57  1  0
 29 58  1  0
 30 59  1  0
 30 60  1  0
M  END
>  <smiles>  (34) 
CC(C)C[C@H](NC(=O)CNC(=O)c1ccc2ccccc2n1)C(=O)NC1CCCC1

>  <score_type>  (34) 
oracle

>  <origin>  (34) 
autodockgpu

>  <m_score__min__energy>  (34) 
-9.0600000000000005

>  <m_primary>  (34) 
energy

>  <rmsd>  (34) 
4.4672233181030565

>  <m_score__min__rmsd>  (34) 
4.4672233181030565

>  <meeko>  (34) 
{"free_energy": -8.24, "intermolecular_energy": -10.62, "internal_energy": -2.92, "cluster_size": 39, "cluster_id": 1, "rank_in_cluster": 37}

>  <energy>  (34) 
-8.3

>  <cluster_rmsd>  (34) 
1.39

>  <cluster>  (34) 
1

$$$$

     RDKit          3D

 60 62  0  0  0  0  0  0  0  0999 V2000
  143.0220   76.6040  217.6930 C   0  0  0  0  0  0  0  0  0  0  0  0
  142.6690   77.4980  218.8470 C   0  0  0  0  0  0  0  0  0  0  0  0
  142.5070   78.9090  218.2610 C   0  0  0  0  0  0  0  0  0  0  0  0
  141.3980   77.1710  219.5340 C   0  0  0  0  0  0  0  0  0  0  0  0
  141.5220   76.4090  220.8280 C   0  0  2  0  0  0  0  0  0  0  0  0
  140.9720   75.0590  220.6970 N   0  0  0  0  0  0  0  0  0  0  0  0
  141.7510   73.9500  220.2900 C   0  0  0  0  0  0  0  0  0  0  0  0
  142.9760   74.1620  220.0400 O   0  0  0  0  0  0  0  0  0  0  0  0
  141.2420   72.5710  220.1390 C   0  0  0  0  0  0  0  0  0  0  0  0
  141.0860   71.8300  221.3460 N   0  0  0  0  0  0  0  0  0  0  0  0
  140.3170   72.3120  222.4530 C   0  0  0  0  0  0  0  0  0  0  0  0
  139.7200   73.4410  222.4100 O   0  0  0  0  0  0  0  0  0  0  0  0
  140.2060   71.4890  223.6770 C   0  0  0  0  0  0  0  0  0  0  0  0
  139.5680   70.2680  223.6140 C   0  0  0  0  0  0  0  0  0  0  0  0
  139.4760   69.5170  224.7680 C   0  0  0  0  0  0  0  0  0  0  0  0
  139.9960   69.9430  225.9730 C   0  0  0  0  0  0  0  0  0  0  0  0
  139.9090   69.1970  227.1350 C   0  0  0  0  0  0  0  0  0  0  0  0
  140.4380   69.6430  228.3350 C   0  0  0  0  0  0  0  0  0  0  0  0
  141.0730   70.8900  228.3360 C   0  0  0  0  0  0  0  0  0  0  0  0
  141.1520   71.6220  227.1680 C   0  0  0  0  0  0  0  0  0  0  0  0
  140.6230   71.1740  225.9750 C   0  0  0  0  0  0  0  0  0  0  0  0
  140.7070   71.8990  224.8430 N   0  0  0  0  0  0  0  0  0  0  0  0
  141.0370   77.1300  222.0100 C   0  0  0  0  0  0  0  0  0  0  0  0
  139.9970   76.8370  222.6570 O   0  0  0  0  0  0  0  0  0  0  0  0
  141.7860   78.2450  222.4720 N   0  0  0  0  0  0  0  0  0  0  0  0
  141.3690   79.0030  223.6300 C   0  0  0  0  0  0  0  0  0  0  0  0
  142.4570   80.0570  223.8420 C   0  0  0  0  0  0  0  0  0  0  0  0
  142.0790   81.2170  222.9740 C   0  0  0  0  0  0  0  0  0  0  0  0
  140.5720   81.1520  222.8620 C   0  0  0  0  0  0  0  0  0  0  0  0
  140.1370   79.8210  223.4170 C   0  0  0  0  0  0  0  0  0  0  0  0
  143.4008   75.6445  218.0750 H   0  0  0  0  0  0  0  0  0  0  0  0
  142.1265   76.4265  217.0794 H   0  0  0  0  0  0  0  0  0  0  0  0
  143.7972   77.0862  217.0794 H   0  0  0  0  0  0  0  0  0  0  0  0
  143.4656   77.3861  219.5973 H   0  0  0  0  0  0  0  0  0  0  0  0
  142.4232   79.6387  219.0798 H   0  0  0  0  0  0  0  0  0  0  0  0
  143.3832   79.1517  217.6418 H   0  0  0  0  0  0  0  0  0  0  0  0
  141.5986   78.9468  217.6418 H   0  0  0  0  0  0  0  0  0  0  0  0
  140.8790   78.1167  219.7491 H   0  0  0  0  0  0  0  0  0  0  0  0
  140.8543   76.5040  218.8488 H   0  0  0  0  0  0  0  0  0  0  0  0
  142.5998   76.3068  221.0228 H   0  0  0  0  0  0  0  0  0  0  0  0
  139.9640   74.9520  220.9300 H   0  0  0  0  0  0  0  0  0  0  0  0
  140.2592   72.6263  219.6480 H   0  0  0  0  0  0  0  0  0  0  0  0
  142.0050   72.0340  219.5563 H   0  0  0  0  0  0  0  0  0  0  0  0
  141.5310   70.8750  221.4960 H   0  0  0  0  0  0  0  0  0  0  0  0
  139.1431   69.9020  222.6677 H   0  0  0  0  0  0  0  0  0  0  0  0
  138.9689   68.5418  224.7257 H   0  0  0  0  0  0  0  0  0  0  0  0
  139.4044   68.2200  227.1050 H   0  0  0  0  0  0  0  0  0  0  0  0
  140.3619   69.0401  229.2519 H   0  0  0  0  0  0  0  0  0  0  0  0
  141.5083   71.2862  229.2653 H   0  0  0  0  0  0  0  0  0  0  0  0
  141.6558   72.5996  227.1894 H   0  0  0  0  0  0  0  0  0  0  0  0
  142.6710   78.5730  222.0010 H   0  0  0  0  0  0  0  0  0  0  0  0
  141.1920   78.2837  224.4432 H   0  0  0  0  0  0  0  0  0  0  0  0
  142.4916   80.3643  224.8976 H   0  0  0  0  0  0  0  0  0  0  0  0
  143.4528   79.6672  223.5842 H   0  0  0  0  0  0  0  0  0  0  0  0
  142.3911   82.1642  223.4381 H   0  0  0  0  0  0  0  0  0  0  0  0
  142.5674   81.1709  221.9895 H   0  0  0  0  0  0  0  0  0  0  0  0
  140.1162   81.9683  223.4415 H   0  0  0  0  0  0  0  0  0  0  0  0
  140.2551   81.2586  221.8140 H   0  0  0  0  0  0  0  0  0  0  0  0
  139.6115   79.9654  224.3725 H   0  0  0  0  0  0  0  0  0  0  0  0
  139.4499   79.3157  222.7223 H   0  0  0  0  0  0  0  0  0  0  0  0
  1  2  1  0
  2  3  1  0
  2  4  1  0
  4  5  1  0
  5  6  1  0
  6  7  1  0
  7  8  2  0
  7  9  1  0
  9 10  1  0
 10 11  1  0
 11 12  2  0
 11 13  1  0
 13 14  2  0
 14 15  1  0
 15 16  2  0
 16 17  1  0
 17 18  2  0
 18 19  1  0
 19 20  2  0
 20 21  1  0
 21 22  2  0
  5 23  1  0
 23 24  2  0
 23 25  1  0
 25 26  1  0
 26 27  1  0
 27 28  1  0
 28 29  1  0
 29 30  1  0
 22 13  1  0
 30 26  1  0
 21 16  1  0
  1 31  1  0
  1 32  1  0
  1 33  1  0
  2 34  1  0
  3 35  1  0
  3 36  1  0
  3 37  1  0
  4 38  1  0
  4 39  1  0
  5 40  1  1
  6 41  1  0
  9 42  1  0
  9 43  1  0
 10 44  1  0
 14 45  1  0
 15 46  1  0
 17 47  1  0
 18 48  1  0
 19 49  1  0
 20 50  1  0
 25 51  1  0
 26 52  1  0
 27 53  1  0
 27 54  1  0
 28 55  1  0
 28 56  1  0
 29 57  1  0
 29 58  1  0
 30 59  1  0
 30 60  1  0
M  END
>  <smiles>  (35) 
CC(C)C[C@H](NC(=O)CNC(=O)c1ccc2ccccc2n1)C(=O)NC1CCCC1

>  <score_type>  (35) 
oracle

>  <origin>  (35) 
autodockgpu

>  <m_score__min__energy>  (35) 
-9.0600000000000005

>  <m_primary>  (35) 
energy

>  <rmsd>  (35) 
2.5570075533231624

>  <m_score__min__rmsd>  (35) 
2.5570075533231624

>  <meeko>  (35) 
{"free_energy": -8.85, "intermolecular_energy": -11.24, "internal_energy": -2.57, "cluster_size": 39, "cluster_id": 1, "rank_in_cluster": 3}

>  <energy>  (35) 
-8.26

>  <cluster_rmsd>  (35) 
1.54

>  <cluster>  (35) 
1

$$$$

     RDKit          3D

 60 62  0  0  0  0  0  0  0  0999 V2000
  142.5850   79.2360  218.1880 C   0  0  0  0  0  0  0  0  0  0  0  0
  142.2610   77.7960  217.9070 C   0  0  0  0  0  0  0  0  0  0  0  0
  143.2880   76.9650  218.6880 C   0  0  0  0  0  0  0  0  0  0  0  0
  140.9200   77.3510  218.3540 C   0  0  0  0  0  0  0  0  0  0  0  0
  140.8170   76.8960  219.7860 C   0  0  2  0  0  0  0  0  0  0  0  0
  140.0260   75.6670  219.8910 N   0  0  0  0  0  0  0  0  0  0  0  0
  139.9250   74.9220  221.0890 C   0  0  0  0  0  0  0  0  0  0  0  0
  140.5510   75.3600  222.1010 O   0  0  0  0  0  0  0  0  0  0  0  0
  139.1450   73.6760  221.2440 C   0  0  0  0  0  0  0  0  0  0  0  0
  139.3970   72.9280  222.4310 N   0  0  0  0  0  0  0  0  0  0  0  0
  139.2430   71.5060  222.4930 C   0  0  0  0  0  0  0  0  0  0  0  0
  138.8740   70.8290  221.4740 O   0  0  0  0  0  0  0  0  0  0  0  0
  139.5150   70.7980  223.7630 C   0  0  0  0  0  0  0  0  0  0  0  0
  139.2400   69.4500  223.8550 C   0  0  0  0  0  0  0  0  0  0  0  0
  139.5020   68.8100  225.0500 C   0  0  0  0  0  0  0  0  0  0  0  0
  140.0240   69.4670  226.1440 C   0  0  0  0  0  0  0  0  0  0  0  0
  140.2900   68.8330  227.3450 C   0  0  0  0  0  0  0  0  0  0  0  0
  140.8140   69.5120  228.4330 C   0  0  0  0  0  0  0  0  0  0  0  0
  141.0710   70.8780  228.2780 C   0  0  0  0  0  0  0  0  0  0  0  0
  140.8020   71.4960  227.0730 C   0  0  0  0  0  0  0  0  0  0  0  0
  140.2780   70.8160  225.9920 C   0  0  0  0  0  0  0  0  0  0  0  0
  140.0190   71.4310  224.8220 N   0  0  0  0  0  0  0  0  0  0  0  0
  140.4070   77.9410  220.7310 C   0  0  0  0  0  0  0  0  0  0  0  0
  139.5600   78.8410  220.4890 O   0  0  0  0  0  0  0  0  0  0  0  0
  141.0030   77.9520  222.0210 N   0  0  0  0  0  0  0  0  0  0  0  0
  140.6480   78.9520  223.0030 C   0  0  0  0  0  0  0  0  0  0  0  0
  141.8160   78.9860  223.9910 C   0  0  0  0  0  0  0  0  0  0  0  0
  142.8150   79.9400  223.4120 C   0  0  0  0  0  0  0  0  0  0  0  0
  142.0000   80.9120  222.5880 C   0  0  0  0  0  0  0  0  0  0  0  0
  140.6080   80.3480  222.4720 C   0  0  0  0  0  0  0  0  0  0  0  0
  142.6215   79.3982  219.2754 H   0  0  0  0  0  0  0  0  0  0  0  0
  143.5616   79.4849  217.7472 H   0  0  0  0  0  0  0  0  0  0  0  0
  141.8091   79.8792  217.7472 H   0  0  0  0  0  0  0  0  0  0  0  0
  142.2830   77.6683  216.8147 H   0  0  0  0  0  0  0  0  0  0  0  0
  143.1231   77.0984  219.7674 H   0  0  0  0  0  0  0  0  0  0  0  0
  143.1736   75.9023  218.4282 H   0  0  0  0  0  0  0  0  0  0  0  0
  144.3035   77.2987  218.4282 H   0  0  0  0  0  0  0  0  0  0  0  0
  140.2239   78.1917  218.2174 H   0  0  0  0  0  0  0  0  0  0  0  0
  140.6836   76.4662  217.7447 H   0  0  0  0  0  0  0  0  0  0  0  0
  141.8415   76.6565  220.1068 H   0  0  0  0  0  0  0  0  0  0  0  0
  139.5270   75.3710  219.0290 H   0  0  0  0  0  0  0  0  0  0  0  0
  138.0779   73.9428  221.2338 H   0  0  0  0  0  0  0  0  0  0  0  0
  139.4528   73.0263  220.4114 H   0  0  0  0  0  0  0  0  0  0  0  0
  139.7140   73.3810  223.3400 H   0  0  0  0  0  0  0  0  0  0  0  0
  138.8230   68.8991  222.9991 H   0  0  0  0  0  0  0  0  0  0  0  0
  139.2860   67.7346  225.1324 H   0  0  0  0  0  0  0  0  0  0  0  0
  140.0790   67.7575  227.4386 H   0  0  0  0  0  0  0  0  0  0  0  0
  141.0201   68.9964  229.3826 H   0  0  0  0  0  0  0  0  0  0  0  0
  141.4867   71.4589  229.1145 H   0  0  0  0  0  0  0  0  0  0  0  0
  141.0132   72.5707  226.9705 H   0  0  0  0  0  0  0  0  0  0  0  0
  141.7230   77.2440  222.3230 H   0  0  0  0  0  0  0  0  0  0  0  0
  139.6560   78.6844  223.3959 H   0  0  0  0  0  0  0  0  0  0  0  0
  141.4747   79.3398  224.9751 H   0  0  0  0  0  0  0  0  0  0  0  0
  142.2502   77.9861  224.1380 H   0  0  0  0  0  0  0  0  0  0  0  0
  143.3530   80.4688  224.2126 H   0  0  0  0  0  0  0  0  0  0  0  0
  143.5755   79.4239  222.8076 H   0  0  0  0  0  0  0  0  0  0  0  0
  141.9681   81.8924  223.0859 H   0  0  0  0  0  0  0  0  0  0  0  0
  142.4480   81.0480  221.5926 H   0  0  0  0  0  0  0  0  0  0  0  0
  139.9056   80.9551  223.0620 H   0  0  0  0  0  0  0  0  0  0  0  0
  140.2705   80.3567  221.4251 H   0  0  0  0  0  0  0  0  0  0  0  0
  1  2  1  0
  2  3  1  0
  2  4  1  0
  4  5  1  0
  5  6  1  0
  6  7  1  0
  7  8  2  0
  7  9  1  0
  9 10  1  0
 10 11  1  0
 11 12  2  0
 11 13  1  0
 13 14  2  0
 14 15  1  0
 15 16  2  0
 16 17  1  0
 17 18  2  0
 18 19  1  0
 19 20  2  0
 20 21  1  0
 21 22  2  0
  5 23  1  0
 23 24  2  0
 23 25  1  0
 25 26  1  0
 26 27  1  0
 27 28  1  0
 28 29  1  0
 29 30  1  0
 22 13  1  0
 30 26  1  0
 21 16  1  0
  1 31  1  0
  1 32  1  0
  1 33  1  0
  2 34  1  0
  3 35  1  0
  3 36  1  0
  3 37  1  0
  4 38  1  0
  4 39  1  0
  5 40  1  1
  6 41  1  0
  9 42  1  0
  9 43  1  0
 10 44  1  0
 14 45  1  0
 15 46  1  0
 17 47  1  0
 18 48  1  0
 19 49  1  0
 20 50  1  0
 25 51  1  0
 26 52  1  0
 27 53  1  0
 27 54  1  0
 28 55  1  0
 28 56  1  0
 29 57  1  0
 29 58  1  0
 30 59  1  0
 30 60  1  0
M  END
>  <smiles>  (36) 
CC(C)C[C@H](NC(=O)CNC(=O)c1ccc2ccccc2n1)C(=O)NC1CCCC1

>  <score_type>  (36) 
oracle

>  <origin>  (36) 
autodockgpu

>  <m_score__min__energy>  (36) 
-9.0600000000000005

>  <m_primary>  (36) 
energy

>  <rmsd>  (36) 
2.3143711103764435

>  <m_score__min__rmsd>  (36) 
2.3143711103764435

>  <meeko>  (36) 
{"free_energy": -8.48, "intermolecular_energy": -10.87, "internal_energy": -2.7, "cluster_size": 39, "cluster_id": 1, "rank_in_cluster": 28}

>  <energy>  (36) 
-8.25

>  <cluster_rmsd>  (36) 
1.66

>  <cluster>  (36) 
1

$$$$

     RDKit          3D

 60 62  0  0  0  0  0  0  0  0999 V2000
  142.2000   79.1600  219.0720 C   0  0  0  0  0  0  0  0  0  0  0  0
  141.9570   77.7470  218.6230 C   0  0  0  0  0  0  0  0  0  0  0  0
  143.2480   76.9730  218.9250 C   0  0  0  0  0  0  0  0  0  0  0  0
  140.8590   77.0410  219.3260 C   0  0  0  0  0  0  0  0  0  0  0  0
  141.2540   76.2540  220.5480 C   0  0  2  0  0  0  0  0  0  0  0  0
  140.8020   74.8650  220.4460 N   0  0  0  0  0  0  0  0  0  0  0  0
  141.6850   73.7900  220.1900 C   0  0  0  0  0  0  0  0  0  0  0  0
  142.9140   74.0670  220.0510 O   0  0  0  0  0  0  0  0  0  0  0  0
  141.2780   72.3730  220.0750 C   0  0  0  0  0  0  0  0  0  0  0  0
  141.0820   71.6800  221.3040 N   0  0  0  0  0  0  0  0  0  0  0  0
  140.3770   72.2540  222.4100 C   0  0  0  0  0  0  0  0  0  0  0  0
  139.8760   73.4280  222.3450 O   0  0  0  0  0  0  0  0  0  0  0  0
  140.2210   71.4760  223.6580 C   0  0  0  0  0  0  0  0  0  0  0  0
  139.5470   70.2730  223.6230 C   0  0  0  0  0  0  0  0  0  0  0  0
  139.4140   69.5640  224.7990 C   0  0  0  0  0  0  0  0  0  0  0  0
  139.9250   70.0150  225.9990 C   0  0  0  0  0  0  0  0  0  0  0  0
  139.7960   69.3110  227.1830 C   0  0  0  0  0  0  0  0  0  0  0  0
  140.3170   69.7810  228.3770 C   0  0  0  0  0  0  0  0  0  0  0  0
  140.9880   71.0080  228.3490 C   0  0  0  0  0  0  0  0  0  0  0  0
  141.1090   71.6980  227.1600 C   0  0  0  0  0  0  0  0  0  0  0  0
  140.5880   71.2260  225.9720 C   0  0  0  0  0  0  0  0  0  0  0  0
  140.7130   71.9100  224.8180 N   0  0  0  0  0  0  0  0  0  0  0  0
  140.9090   76.8930  221.8230 C   0  0  0  0  0  0  0  0  0  0  0  0
  139.9350   76.5690  222.5520 O   0  0  0  0  0  0  0  0  0  0  0  0
  141.7270   77.9600  222.2830 N   0  0  0  0  0  0  0  0  0  0  0  0
  141.4490   78.6360  223.5300 C   0  0  0  0  0  0  0  0  0  0  0  0
  142.5060   79.7370  223.6430 C   0  0  0  0  0  0  0  0  0  0  0  0
  141.9520   80.9150  222.9030 C   0  0  0  0  0  0  0  0  0  0  0  0
  140.4490   80.7740  223.0060 C   0  0  0  0  0  0  0  0  0  0  0  0
  140.1620   79.3960  223.5420 C   0  0  0  0  0  0  0  0  0  0  0  0
  142.2068   79.1994  220.1713 H   0  0  0  0  0  0  0  0  0  0  0  0
  143.1707   79.5054  218.6867 H   0  0  0  0  0  0  0  0  0  0  0  0
  141.4004   79.8098  218.6867 H   0  0  0  0  0  0  0  0  0  0  0  0
  141.6702   77.7906  217.5619 H   0  0  0  0  0  0  0  0  0  0  0  0
  143.3814   76.8930  220.0140 H   0  0  0  0  0  0  0  0  0  0  0  0
  143.1820   75.9654  218.4887 H   0  0  0  0  0  0  0  0  0  0  0  0
  144.1057   77.5060  218.4887 H   0  0  0  0  0  0  0  0  0  0  0  0
  140.1191   77.7938  219.6355 H   0  0  0  0  0  0  0  0  0  0  0  0
  140.4759   76.3007  218.6083 H   0  0  0  0  0  0  0  0  0  0  0  0
  142.3538   76.2412  220.5644 H   0  0  0  0  0  0  0  0  0  0  0  0
  139.7840   74.7050  220.5840 H   0  0  0  0  0  0  0  0  0  0  0  0
  140.3323   72.3385  219.5142 H   0  0  0  0  0  0  0  0  0  0  0  0
  142.1149   71.8626  219.5758 H   0  0  0  0  0  0  0  0  0  0  0  0
  141.4490   70.6960  221.4740 H   0  0  0  0  0  0  0  0  0  0  0  0
  139.1265   69.8889  222.6819 H   0  0  0  0  0  0  0  0  0  0  0  0
  138.8802   68.6024  224.7794 H   0  0  0  0  0  0  0  0  0  0  0  0
  139.2634   68.3486  227.1758 H   0  0  0  0  0  0  0  0  0  0  0  0
  140.2073   69.2112  229.3115 H   0  0  0  0  0  0  0  0  0  0  0  0
  141.4183   71.4221  229.2728 H   0  0  0  0  0  0  0  0  0  0  0  0
  141.6409   72.6609  227.1589 H   0  0  0  0  0  0  0  0  0  0  0  0
  142.5660   78.3080  221.7470 H   0  0  0  0  0  0  0  0  0  0  0  0
  141.4269   77.8688  224.3180 H   0  0  0  0  0  0  0  0  0  0  0  0
  142.6787   79.9948  224.6983 H   0  0  0  0  0  0  0  0  0  0  0  0
  143.4711   79.4148  223.2250 H   0  0  0  0  0  0  0  0  0  0  0  0
  142.2845   81.8546  223.3684 H   0  0  0  0  0  0  0  0  0  0  0  0
  142.2927   80.9423  221.8574 H   0  0  0  0  0  0  0  0  0  0  0  0
  140.0459   81.5351  223.6902 H   0  0  0  0  0  0  0  0  0  0  0  0
  139.9772   80.9143  222.0222 H   0  0  0  0  0  0  0  0  0  0  0  0
  139.7754   79.4650  224.5695 H   0  0  0  0  0  0  0  0  0  0  0  0
  139.4051   78.8888  222.9256 H   0  0  0  0  0  0  0  0  0  0  0  0
  1  2  1  0
  2  3  1  0
  2  4  1  0
  4  5  1  0
  5  6  1  0
  6  7  1  0
  7  8  2  0
  7  9  1  0
  9 10  1  0
 10 11  1  0
 11 12  2  0
 11 13  1  0
 13 14  2  0
 14 15  1  0
 15 16  2  0
 16 17  1  0
 17 18  2  0
 18 19  1  0
 19 20  2  0
 20 21  1  0
 21 22  2  0
  5 23  1  0
 23 24  2  0
 23 25  1  0
 25 26  1  0
 26 27  1  0
 27 28  1  0
 28 29  1  0
 29 30  1  0
 22 13  1  0
 30 26  1  0
 21 16  1  0
  1 31  1  0
  1 32  1  0
  1 33  1  0
  2 34  1  0
  3 35  1  0
  3 36  1  0
  3 37  1  0
  4 38  1  0
  4 39  1  0
  5 40  1  1
  6 41  1  0
  9 42  1  0
  9 43  1  0
 10 44  1  0
 14 45  1  0
 15 46  1  0
 17 47  1  0
 18 48  1  0
 19 49  1  0
 20 50  1  0
 25 51  1  0
 26 52  1  0
 27 53  1  0
 27 54  1  0
 28 55  1  0
 28 56  1  0
 29 57  1  0
 29 58  1  0
 30 59  1  0
 30 60  1  0
M  END
>  <smiles>  (37) 
CC(C)C[C@H](NC(=O)CNC(=O)c1ccc2ccccc2n1)C(=O)NC1CCCC1

>  <score_type>  (37) 
oracle

>  <origin>  (37) 
autodockgpu

>  <m_score__min__energy>  (37) 
-9.0600000000000005

>  <m_primary>  (37) 
energy

>  <rmsd>  (37) 
2.683209212379281

>  <m_score__min__rmsd>  (37) 
2.683209212379281

>  <meeko>  (37) 
{"free_energy": -8.62, "intermolecular_energy": -11.0, "internal_energy": -2.55, "cluster_size": 39, "cluster_id": 1, "rank_in_cluster": 17}

>  <energy>  (37) 
-8.24

>  <cluster_rmsd>  (37) 
1.36

>  <cluster>  (37) 
1

$$$$

     RDKit          3D

 60 62  0  0  0  0  0  0  0  0999 V2000
  143.3460   76.3950  217.8190 C   0  0  0  0  0  0  0  0  0  0  0  0
  142.7310   77.2800  218.8650 C   0  0  0  0  0  0  0  0  0  0  0  0
  142.5930   78.6690  218.2250 C   0  0  0  0  0  0  0  0  0  0  0  0
  141.3770   76.8790  219.3150 C   0  0  0  0  0  0  0  0  0  0  0  0
  141.2950   76.2330  220.6740 C   0  0  2  0  0  0  0  0  0  0  0  0
  140.6910   74.9010  220.5850 N   0  0  0  0  0  0  0  0  0  0  0  0
  141.4070   73.7640  220.1430 C   0  0  0  0  0  0  0  0  0  0  0  0
  142.6220   73.9310  219.8210 O   0  0  0  0  0  0  0  0  0  0  0  0
  140.8430   72.4030  220.0330 C   0  0  0  0  0  0  0  0  0  0  0  0
  140.7500   71.6670  221.2500 N   0  0  0  0  0  0  0  0  0  0  0  0
  140.1850   72.2180  222.4440 C   0  0  0  0  0  0  0  0  0  0  0  0
  139.7230   73.4090  222.4750 O   0  0  0  0  0  0  0  0  0  0  0  0
  140.1300   71.3960  223.6720 C   0  0  0  0  0  0  0  0  0  0  0  0
  139.5660   70.1390  223.6170 C   0  0  0  0  0  0  0  0  0  0  0  0
  139.5260   69.3890  224.7750 C   0  0  0  0  0  0  0  0  0  0  0  0
  140.0250   69.8510  225.9750 C   0  0  0  0  0  0  0  0  0  0  0  0
  139.9890   69.1060  227.1410 C   0  0  0  0  0  0  0  0  0  0  0  0
  140.4970   69.5890  228.3360 C   0  0  0  0  0  0  0  0  0  0  0  0
  141.0560   70.8720  228.3280 C   0  0  0  0  0  0  0  0  0  0  0  0
  141.0850   71.6010  227.1570 C   0  0  0  0  0  0  0  0  0  0  0  0
  140.5780   71.1170  225.9680 C   0  0  0  0  0  0  0  0  0  0  0  0
  140.6120   71.8400  224.8330 N   0  0  0  0  0  0  0  0  0  0  0  0
  140.7060   77.0780  221.7180 C   0  0  0  0  0  0  0  0  0  0  0  0
  139.5510   76.9320  222.1980 O   0  0  0  0  0  0  0  0  0  0  0  0
  141.4850   78.1460  222.2380 N   0  0  0  0  0  0  0  0  0  0  0  0
  140.9700   79.0200  223.2680 C   0  0  0  0  0  0  0  0  0  0  0  0
  142.1670   79.3430  224.1650 C   0  0  0  0  0  0  0  0  0  0  0  0
  142.8460   80.5200  223.5350 C   0  0  0  0  0  0  0  0  0  0  0  0
  141.7500   81.2590  222.7980 C   0  0  0  0  0  0  0  0  0  0  0  0
  140.5400   80.3620  222.7750 C   0  0  0  0  0  0  0  0  0  0  0  0
  143.9083   75.5858  218.3078 H   0  0  0  0  0  0  0  0  0  0  0  0
  142.5525   75.9630  217.1915 H   0  0  0  0  0  0  0  0  0  0  0  0
  144.0276   76.9880  217.1915 H   0  0  0  0  0  0  0  0  0  0  0  0
  143.3810   77.2311  219.7511 H   0  0  0  0  0  0  0  0  0  0  0  0
  142.5173   79.4308  219.0149 H   0  0  0  0  0  0  0  0  0  0  0  0
  143.4752   78.8744  217.6008 H   0  0  0  0  0  0  0  0  0  0  0  0
  141.6877   78.6968  217.6008 H   0  0  0  0  0  0  0  0  0  0  0  0
  140.7478   77.7811  219.3330 H   0  0  0  0  0  0  0  0  0  0  0  0
  141.0437   76.1108  218.6017 H   0  0  0  0  0  0  0  0  0  0  0  0
  142.3321   76.1022  221.0164 H   0  0  0  0  0  0  0  0  0  0  0  0
  139.6960   74.8310  220.8770 H   0  0  0  0  0  0  0  0  0  0  0  0
  139.8297   72.4910  219.6142 H   0  0  0  0  0  0  0  0  0  0  0  0
  141.5439   71.8410  219.3983 H   0  0  0  0  0  0  0  0  0  0  0  0
  141.0960   70.6650  221.3430 H   0  0  0  0  0  0  0  0  0  0  0  0
  139.1585   69.7441  222.6747 H   0  0  0  0  0  0  0  0  0  0  0  0
  139.0791   68.3845  224.7395 H   0  0  0  0  0  0  0  0  0  0  0  0
  139.5437   68.1004  227.1181 H   0  0  0  0  0  0  0  0  0  0  0  0
  140.4623   68.9870  229.2560 H   0  0  0  0  0  0  0  0  0  0  0  0
  141.4713   71.2982  229.2532 H   0  0  0  0  0  0  0  0  0  0  0  0
  141.5295   72.6071  227.1715 H   0  0  0  0  0  0  0  0  0  0  0  0
  142.4640   78.3530  221.9040 H   0  0  0  0  0  0  0  0  0  0  0  0
  140.1114   78.5097  223.7289 H   0  0  0  0  0  0  0  0  0  0  0  0
  141.8273   79.5955  225.1803 H   0  0  0  0  0  0  0  0  0  0  0  0
  142.8482   78.4839  224.2545 H   0  0  0  0  0  0  0  0  0  0  0  0
  143.2959   81.1641  224.3049 H   0  0  0  0  0  0  0  0  0  0  0  0
  143.6614   80.2145  222.8628 H   0  0  0  0  0  0  0  0  0  0  0  0
  141.5125   82.1977  223.3200 H   0  0  0  0  0  0  0  0  0  0  0  0
  142.0689   81.5081  221.7751 H   0  0  0  0  0  0  0  0  0  0  0  0
  139.7568   80.7702  223.4306 H   0  0  0  0  0  0  0  0  0  0  0  0
  140.1299   80.2888  221.7569 H   0  0  0  0  0  0  0  0  0  0  0  0
  1  2  1  0
  2  3  1  0
  2  4  1  0
  4  5  1  0
  5  6  1  0
  6  7  1  0
  7  8  2  0
  7  9  1  0
  9 10  1  0
 10 11  1  0
 11 12  2  0
 11 13  1  0
 13 14  2  0
 14 15  1  0
 15 16  2  0
 16 17  1  0
 17 18  2  0
 18 19  1  0
 19 20  2  0
 20 21  1  0
 21 22  2  0
  5 23  1  0
 23 24  2  0
 23 25  1  0
 25 26  1  0
 26 27  1  0
 27 28  1  0
 28 29  1  0
 29 30  1  0
 22 13  1  0
 30 26  1  0
 21 16  1  0
  1 31  1  0
  1 32  1  0
  1 33  1  0
  2 34  1  0
  3 35  1  0
  3 36  1  0
  3 37  1  0
  4 38  1  0
  4 39  1  0
  5 40  1  1
  6 41  1  0
  9 42  1  0
  9 43  1  0
 10 44  1  0
 14 45  1  0
 15 46  1  0
 17 47  1  0
 18 48  1  0
 19 49  1  0
 20 50  1  0
 25 51  1  0
 26 52  1  0
 27 53  1  0
 27 54  1  0
 28 55  1  0
 28 56  1  0
 29 57  1  0
 29 58  1  0
 30 59  1  0
 30 60  1  0
M  END
>  <smiles>  (38) 
CC(C)C[C@H](NC(=O)CNC(=O)c1ccc2ccccc2n1)C(=O)NC1CCCC1

>  <score_type>  (38) 
oracle

>  <origin>  (38) 
autodockgpu

>  <m_score__min__energy>  (38) 
-9.0600000000000005

>  <m_primary>  (38) 
energy

>  <rmsd>  (38) 
2.5393964864464684

>  <m_score__min__rmsd>  (38) 
2.5393964864464684

>  <meeko>  (38) 
{"free_energy": -8.7, "intermolecular_energy": -11.09, "internal_energy": -2.55, "cluster_size": 39, "cluster_id": 1, "rank_in_cluster": 10}

>  <energy>  (38) 
-8.2

>  <cluster_rmsd>  (38) 
1.86

>  <cluster>  (38) 
1

$$$$

     RDKit          3D

 60 62  0  0  0  0  0  0  0  0999 V2000
  135.0840   75.8700  224.5080 C   0  0  0  0  0  0  0  0  0  0  0  0
  136.1730   75.2660  223.6670 C   0  0  0  0  0  0  0  0  0  0  0  0
  135.8070   73.7860  223.4900 C   0  0  0  0  0  0  0  0  0  0  0  0
  136.3120   75.8390  222.3070 C   0  0  0  0  0  0  0  0  0  0  0  0
  137.6920   76.3080  221.9240 C   0  0  2  0  0  0  0  0  0  0  0  0
  138.6570   75.2090  221.9930 N   0  0  0  0  0  0  0  0  0  0  0  0
  139.7960   75.1380  221.1580 C   0  0  0  0  0  0  0  0  0  0  0  0
  139.9670   76.0800  220.3270 O   0  0  0  0  0  0  0  0  0  0  0  0
  140.7960   74.0490  221.1860 C   0  0  0  0  0  0  0  0  0  0  0  0
  140.7300   73.1730  222.3090 N   0  0  0  0  0  0  0  0  0  0  0  0
  139.5640   72.4030  222.6190 C   0  0  0  0  0  0  0  0  0  0  0  0
  138.5150   72.4590  221.8920 O   0  0  0  0  0  0  0  0  0  0  0  0
  139.5670   71.5210  223.8060 C   0  0  0  0  0  0  0  0  0  0  0  0
  138.8070   70.3710  223.7930 C   0  0  0  0  0  0  0  0  0  0  0  0
  138.8250   69.5620  224.9110 C   0  0  0  0  0  0  0  0  0  0  0  0
  139.5700   69.8640  226.0320 C   0  0  0  0  0  0  0  0  0  0  0  0
  139.5940   69.0600  227.1580 C   0  0  0  0  0  0  0  0  0  0  0  0
  140.3500   69.3810  228.2740 C   0  0  0  0  0  0  0  0  0  0  0  0
  141.0990   70.5620  228.2270 C   0  0  0  0  0  0  0  0  0  0  0  0
  141.0650   71.3530  227.0970 C   0  0  0  0  0  0  0  0  0  0  0  0
  140.3110   71.0290  225.9870 C   0  0  0  0  0  0  0  0  0  0  0  0
  140.2860   71.8110  224.8910 N   0  0  0  0  0  0  0  0  0  0  0  0
  138.1350   77.5250  222.6130 C   0  0  0  0  0  0  0  0  0  0  0  0
  137.3750   78.3410  223.1980 O   0  0  0  0  0  0  0  0  0  0  0  0
  139.5250   77.8190  222.6300 N   0  0  0  0  0  0  0  0  0  0  0  0
  140.0360   79.0000  223.2890 C   0  0  0  0  0  0  0  0  0  0  0  0
  141.5130   78.7110  223.5600 C   0  0  0  0  0  0  0  0  0  0  0  0
  142.2450   79.1140  222.3170 C   0  0  0  0  0  0  0  0  0  0  0  0
  141.4000   80.2050  221.6980 C   0  0  0  0  0  0  0  0  0  0  0  0
  140.0790   80.2160  222.4220 C   0  0  0  0  0  0  0  0  0  0  0  0
  135.3259   75.7359  225.5727 H   0  0  0  0  0  0  0  0  0  0  0  0
  135.0001   76.9436  224.2835 H   0  0  0  0  0  0  0  0  0  0  0  0
  134.1289   75.3727  224.2835 H   0  0  0  0  0  0  0  0  0  0  0  0
  137.1243   75.4583  224.1847 H   0  0  0  0  0  0  0  0  0  0  0  0
  135.6909   73.3163  224.4779 H   0  0  0  0  0  0  0  0  0  0  0  0
  134.8620   73.7061  222.9326 H   0  0  0  0  0  0  0  0  0  0  0  0
  136.6058   73.2749  222.9326 H   0  0  0  0  0  0  0  0  0  0  0  0
  136.0063   75.0680  221.5844 H   0  0  0  0  0  0  0  0  0  0  0  0
  135.6807   76.7398  222.2995 H   0  0  0  0  0  0  0  0  0  0  0  0
  137.6302   76.6248  220.8724 H   0  0  0  0  0  0  0  0  0  0  0  0
  138.4650   74.4770  222.7060 H   0  0  0  0  0  0  0  0  0  0  0  0
  140.6608   73.4436  220.2776 H   0  0  0  0  0  0  0  0  0  0  0  0
  141.7755   74.5453  221.2522 H   0  0  0  0  0  0  0  0  0  0  0  0
  141.5430   73.0410  222.9820 H   0  0  0  0  0  0  0  0  0  0  0  0
  138.2016   70.1049  222.9139 H   0  0  0  0  0  0  0  0  0  0  0  0
  138.2225   68.6417  224.9081 H   0  0  0  0  0  0  0  0  0  0  0  0
  138.9945   68.1378  227.1674 H   0  0  0  0  0  0  0  0  0  0  0  0
  140.3609   68.7325  229.1625 H   0  0  0  0  0  0  0  0  0  0  0  0
  141.7138   70.8593  229.0894 H   0  0  0  0  0  0  0  0  0  0  0  0
  141.6615   72.2771  227.0800 H   0  0  0  0  0  0  0  0  0  0  0  0
  140.2450   77.2010  222.1690 H   0  0  0  0  0  0  0  0  0  0  0  0
  139.3883   79.1939  224.1567 H   0  0  0  0  0  0  0  0  0  0  0  0
  141.8664   79.2990  224.4198 H   0  0  0  0  0  0  0  0  0  0  0  0
  141.6794   77.6507  223.8008 H   0  0  0  0  0  0  0  0  0  0  0  0
  143.2465   79.4952  222.5651 H   0  0  0  0  0  0  0  0  0  0  0  0
  142.3903   78.2663  221.6313 H   0  0  0  0  0  0  0  0  0  0  0  0
  141.8997   81.1783  221.8123 H   0  0  0  0  0  0  0  0  0  0  0  0
  141.2529   80.0204  220.6236 H   0  0  0  0  0  0  0  0  0  0  0  0
  139.9964   81.1220  223.0403 H   0  0  0  0  0  0  0  0  0  0  0  0
  139.2434   80.2134  221.7066 H   0  0  0  0  0  0  0  0  0  0  0  0
  1  2  1  0
  2  3  1  0
  2  4  1  0
  4  5  1  0
  5  6  1  0
  6  7  1  0
  7  8  2  0
  7  9  1  0
  9 10  1  0
 10 11  1  0
 11 12  2  0
 11 13  1  0
 13 14  2  0
 14 15  1  0
 15 16  2  0
 16 17  1  0
 17 18  2  0
 18 19  1  0
 19 20  2  0
 20 21  1  0
 21 22  2  0
  5 23  1  0
 23 24  2  0
 23 25  1  0
 25 26  1  0
 26 27  1  0
 27 28  1  0
 28 29  1  0
 29 30  1  0
 22 13  1  0
 30 26  1  0
 21 16  1  0
  1 31  1  0
  1 32  1  0
  1 33  1  0
  2 34  1  0
  3 35  1  0
  3 36  1  0
  3 37  1  0
  4 38  1  0
  4 39  1  0
  5 40  1  6
  6 41  1  0
  9 42  1  0
  9 43  1  0
 10 44  1  0
 14 45  1  0
 15 46  1  0
 17 47  1  0
 18 48  1  0
 19 49  1  0
 20 50  1  0
 25 51  1  0
 26 52  1  0
 27 53  1  0
 27 54  1  0
 28 55  1  0
 28 56  1  0
 29 57  1  0
 29 58  1  0
 30 59  1  0
 30 60  1  0
M  END
>  <smiles>  (39) 
CC(C)C[C@H](NC(=O)CNC(=O)c1ccc2ccccc2n1)C(=O)NC1CCCC1

>  <score_type>  (39) 
oracle

>  <origin>  (39) 
autodockgpu

>  <m_score__min__energy>  (39) 
-9.0600000000000005

>  <m_primary>  (39) 
energy

>  <rmsd>  (39) 
3.777806501871296

>  <m_score__min__rmsd>  (39) 
3.777806501871296

>  <meeko>  (39) 
{"free_energy": -7.29, "intermolecular_energy": -9.68, "internal_energy": -3.54, "cluster_size": 1, "cluster_id": 3, "rank_in_cluster": 1}

>  <energy>  (39) 
-7.34

>  <cluster_rmsd>  (39) 
1.51

>  <cluster>  (39) 
1

$$$$

     RDKit          3D

 60 62  0  0  0  0  0  0  0  0999 V2000
  143.2370   76.7610  217.9340 C   0  0  0  0  0  0  0  0  0  0  0  0
  142.5980   77.4560  219.1020 C   0  0  0  0  0  0  0  0  0  0  0  0
  142.2150   78.8590  218.6090 C   0  0  0  0  0  0  0  0  0  0  0  0
  141.3550   76.8260  219.6090 C   0  0  0  0  0  0  0  0  0  0  0  0
  141.4500   76.1720  220.9630 C   0  0  2  0  0  0  0  0  0  0  0  0
  140.8470   74.8380  220.9430 N   0  0  0  0  0  0  0  0  0  0  0  0
  141.2750   73.8170  220.0630 C   0  0  0  0  0  0  0  0  0  0  0  0
  142.2250   74.0930  219.2710 O   0  0  0  0  0  0  0  0  0  0  0  0
  140.6960   72.4580  220.0020 C   0  0  0  0  0  0  0  0  0  0  0  0
  140.6720   71.7370  221.2310 N   0  0  0  0  0  0  0  0  0  0  0  0
  140.0360   72.2410  222.4100 C   0  0  0  0  0  0  0  0  0  0  0  0
  139.4440   73.3740  222.4160 O   0  0  0  0  0  0  0  0  0  0  0  0
  140.0590   71.4390  223.6520 C   0  0  0  0  0  0  0  0  0  0  0  0
  139.5790   70.1460  223.6280 C   0  0  0  0  0  0  0  0  0  0  0  0
  139.6100   69.4160  224.7990 C   0  0  0  0  0  0  0  0  0  0  0  0
  140.1000   69.9300  225.9810 C   0  0  0  0  0  0  0  0  0  0  0  0
  140.1360   69.2050  227.1590 C   0  0  0  0  0  0  0  0  0  0  0  0
  140.6320   69.7410  228.3360 C   0  0  0  0  0  0  0  0  0  0  0  0
  141.1040   71.0570  228.2970 C   0  0  0  0  0  0  0  0  0  0  0  0
  141.0630   71.7670  227.1140 C   0  0  0  0  0  0  0  0  0  0  0  0
  140.5670   71.2300  225.9430 C   0  0  0  0  0  0  0  0  0  0  0  0
  140.5320   71.9340  224.7960 N   0  0  0  0  0  0  0  0  0  0  0  0
  140.9940   77.0080  222.0790 C   0  0  0  0  0  0  0  0  0  0  0  0
  139.9320   76.8250  222.7300 O   0  0  0  0  0  0  0  0  0  0  0  0
  141.8010   78.1110  222.4650 N   0  0  0  0  0  0  0  0  0  0  0  0
  141.4150   78.9790  223.5560 C   0  0  0  0  0  0  0  0  0  0  0  0
  142.5390   80.0100  223.6750 C   0  0  0  0  0  0  0  0  0  0  0  0
  142.1960   81.1040  222.7110 C   0  0  0  0  0  0  0  0  0  0  0  0
  140.6870   81.0800  222.6080 C   0  0  0  0  0  0  0  0  0  0  0  0
  140.2100   79.8170  223.2760 C   0  0  0  0  0  0  0  0  0  0  0  0
  143.9389   75.9976  218.3008 H   0  0  0  0  0  0  0  0  0  0  0  0
  142.4589   76.2803  217.3229 H   0  0  0  0  0  0  0  0  0  0  0  0
  143.7812   77.4961  217.3229 H   0  0  0  0  0  0  0  0  0  0  0  0
  143.3221   77.4275  219.9296 H   0  0  0  0  0  0  0  0  0  0  0  0
  142.0359   79.5152  219.4735 H   0  0  0  0  0  0  0  0  0  0  0  0
  143.0338   79.2699  218.0002 H   0  0  0  0  0  0  0  0  0  0  0  0
  141.3009   78.7969  218.0002 H   0  0  0  0  0  0  0  0  0  0  0  0
  140.5814   77.6060  219.6657 H   0  0  0  0  0  0  0  0  0  0  0  0
  141.1252   76.0141  218.9033 H   0  0  0  0  0  0  0  0  0  0  0  0
  142.5229   76.0453  221.1700 H   0  0  0  0  0  0  0  0  0  0  0  0
  140.0820   74.6730  221.6280 H   0  0  0  0  0  0  0  0  0  0  0  0
  139.6599   72.5486  219.6439 H   0  0  0  0  0  0  0  0  0  0  0  0
  141.3530   71.8838  219.3322 H   0  0  0  0  0  0  0  0  0  0  0  0
  141.1260   70.7810  221.3460 H   0  0  0  0  0  0  0  0  0  0  0  0
  139.1820   69.7083  222.7002 H   0  0  0  0  0  0  0  0  0  0  0  0
  139.2290   68.3841  224.7889 H   0  0  0  0  0  0  0  0  0  0  0  0
  139.7593   68.1715  227.1608 H   0  0  0  0  0  0  0  0  0  0  0  0
  140.6538   69.1540  229.2660 H   0  0  0  0  0  0  0  0  0  0  0  0
  141.5070   71.5252  229.2071 H   0  0  0  0  0  0  0  0  0  0  0  0
  141.4400   72.8003  227.1040 H   0  0  0  0  0  0  0  0  0  0  0  0
  142.7080   78.3510  221.9850 H   0  0  0  0  0  0  0  0  0  0  0  0
  141.2180   78.3382  224.4281 H   0  0  0  0  0  0  0  0  0  0  0  0
  142.5888   80.4052  224.7004 H   0  0  0  0  0  0  0  0  0  0  0  0
  143.5199   79.5660  223.4499 H   0  0  0  0  0  0  0  0  0  0  0  0
  142.5416   82.0765  223.0916 H   0  0  0  0  0  0  0  0  0  0  0  0
  142.6781   80.9577  221.7332 H   0  0  0  0  0  0  0  0  0  0  0  0
  140.2614   81.9579  223.1161 H   0  0  0  0  0  0  0  0  0  0  0  0
  140.3691   81.1065  221.5553 H   0  0  0  0  0  0  0  0  0  0  0  0
  139.6942   80.0605  224.2166 H   0  0  0  0  0  0  0  0  0  0  0  0
  139.5029   79.2776  222.6286 H   0  0  0  0  0  0  0  0  0  0  0  0
  1  2  1  0
  2  3  1  0
  2  4  1  0
  4  5  1  0
  5  6  1  0
  6  7  1  0
  7  8  2  0
  7  9  1  0
  9 10  1  0
 10 11  1  0
 11 12  2  0
 11 13  1  0
 13 14  2  0
 14 15  1  0
 15 16  2  0
 16 17  1  0
 17 18  2  0
 18 19  1  0
 19 20  2  0
 20 21  1  0
 21 22  2  0
  5 23  1  0
 23 24  2  0
 23 25  1  0
 25 26  1  0
 26 27  1  0
 27 28  1  0
 28 29  1  0
 29 30  1  0
 22 13  1  0
 30 26  1  0
 21 16  1  0
  1 31  1  0
  1 32  1  0
  1 33  1  0
  2 34  1  0
  3 35  1  0
  3 36  1  0
  3 37  1  0
  4 38  1  0
  4 39  1  0
  5 40  1  1
  6 41  1  0
  9 42  1  0
  9 43  1  0
 10 44  1  0
 14 45  1  0
 15 46  1  0
 17 47  1  0
 18 48  1  0
 19 49  1  0
 20 50  1  0
 25 51  1  0
 26 52  1  0
 27 53  1  0
 27 54  1  0
 28 55  1  0
 28 56  1  0
 29 57  1  0
 29 58  1  0
 30 59  1  0
 30 60  1  0
M  END
>  <smiles>  (40) 
CC(C)C[C@H](NC(=O)CNC(=O)c1ccc2ccccc2n1)C(=O)NC1CCCC1

>  <score_type>  (40) 
oracle

>  <origin>  (40) 
autodockgpu

>  <m_score__min__energy>  (40) 
-9.0600000000000005

>  <m_primary>  (40) 
energy

>  <rmsd>  (40) 
2.510151246932926

>  <m_score__min__rmsd>  (40) 
2.510151246932926

>  <meeko>  (40) 
{"free_energy": -8.52, "intermolecular_energy": -10.9, "internal_energy": -2.66, "cluster_size": 39, "cluster_id": 1, "rank_in_cluster": 24}

>  <energy>  (40) 
-8.7

>  <cluster_rmsd>  (40) 
0.0

>  <cluster>  (40) 
2

$$$$

     RDKit          3D

 60 62  0  0  0  0  0  0  0  0999 V2000
  143.0580   76.7460  217.7980 C   0  0  0  0  0  0  0  0  0  0  0  0
  142.5890   77.5100  219.0040 C   0  0  0  0  0  0  0  0  0  0  0  0
  142.3460   78.9500  218.5310 C   0  0  0  0  0  0  0  0  0  0  0  0
  141.3180   77.0340  219.5990 C   0  0  0  0  0  0  0  0  0  0  0  0
  141.4320   76.3150  220.9180 C   0  0  2  0  0  0  0  0  0  0  0  0
  140.8480   74.9750  220.8370 N   0  0  0  0  0  0  0  0  0  0  0  0
  141.4830   73.9010  220.1700 C   0  0  0  0  0  0  0  0  0  0  0  0
  142.6070   74.1350  219.6320 O   0  0  0  0  0  0  0  0  0  0  0  0
  140.9330   72.5340  220.0570 C   0  0  0  0  0  0  0  0  0  0  0  0
  140.8570   71.7920  221.2720 N   0  0  0  0  0  0  0  0  0  0  0  0
  140.1740   72.2790  222.4320 C   0  0  0  0  0  0  0  0  0  0  0  0
  139.5860   73.4130  222.4330 O   0  0  0  0  0  0  0  0  0  0  0  0
  140.1440   71.4560  223.6600 C   0  0  0  0  0  0  0  0  0  0  0  0
  139.6140   70.1840  223.6060 C   0  0  0  0  0  0  0  0  0  0  0  0
  139.5960   69.4330  224.7640 C   0  0  0  0  0  0  0  0  0  0  0  0
  140.0860   69.9080  225.9630 C   0  0  0  0  0  0  0  0  0  0  0  0
  140.0730   69.1620  227.1290 C   0  0  0  0  0  0  0  0  0  0  0  0
  140.5700   69.6580  228.3230 C   0  0  0  0  0  0  0  0  0  0  0  0
  141.0940   70.9550  228.3140 C   0  0  0  0  0  0  0  0  0  0  0  0
  141.1010   71.6860  227.1430 C   0  0  0  0  0  0  0  0  0  0  0  0
  140.6040   71.1880  225.9550 C   0  0  0  0  0  0  0  0  0  0  0  0
  140.6160   71.9120  224.8200 N   0  0  0  0  0  0  0  0  0  0  0  0
  140.9730   77.0880  222.0770 C   0  0  0  0  0  0  0  0  0  0  0  0
  139.9070   76.8720  222.7120 O   0  0  0  0  0  0  0  0  0  0  0  0
  141.7810   78.1650  222.5290 N   0  0  0  0  0  0  0  0  0  0  0  0
  141.3920   78.9710  223.6650 C   0  0  0  0  0  0  0  0  0  0  0  0
  142.4700   80.0500  223.7880 C   0  0  0  0  0  0  0  0  0  0  0  0
  142.0440   81.1620  222.8800 C   0  0  0  0  0  0  0  0  0  0  0  0
  140.5350   81.0700  222.8260 C   0  0  0  0  0  0  0  0  0  0  0  0
  140.1410   79.7610  223.4580 C   0  0  0  0  0  0  0  0  0  0  0  0
  143.6079   75.8502  218.1224 H   0  0  0  0  0  0  0  0  0  0  0  0
  142.1893   76.4444  217.1944 H   0  0  0  0  0  0  0  0  0  0  0  0
  143.7201   77.3841  217.1944 H   0  0  0  0  0  0  0  0  0  0  0  0
  143.3594   77.3913  219.7802 H   0  0  0  0  0  0  0  0  0  0  0  0
  142.2348   79.6091  219.4047 H   0  0  0  0  0  0  0  0  0  0  0  0
  143.2002   79.2859  217.9247 H   0  0  0  0  0  0  0  0  0  0  0  0
  141.4289   78.9870  217.9247 H   0  0  0  0  0  0  0  0  0  0  0  0
  140.6683   77.9090  219.7483 H   0  0  0  0  0  0  0  0  0  0  0  0
  140.9202   76.2918  218.8913 H   0  0  0  0  0  0  0  0  0  0  0  0
  142.5082   76.1935  221.1102 H   0  0  0  0  0  0  0  0  0  0  0  0
  139.9310   74.8470  221.3110 H   0  0  0  0  0  0  0  0  0  0  0  0
  139.9158   72.6127  219.6457 H   0  0  0  0  0  0  0  0  0  0  0  0
  141.6349   71.9824  219.4143 H   0  0  0  0  0  0  0  0  0  0  0  0
  141.3040   70.8330  221.3890 H   0  0  0  0  0  0  0  0  0  0  0  0
  139.2158   69.7783  222.6643 H   0  0  0  0  0  0  0  0  0  0  0  0
  139.1750   68.4173  224.7295 H   0  0  0  0  0  0  0  0  0  0  0  0
  139.6554   68.1446  227.1067 H   0  0  0  0  0  0  0  0  0  0  0  0
  140.5533   69.0551  229.2429 H   0  0  0  0  0  0  0  0  0  0  0  0
  141.4998   71.3917  229.2385 H   0  0  0  0  0  0  0  0  0  0  0  0
  141.5183   72.7037  227.1569 H   0  0  0  0  0  0  0  0  0  0  0  0
  142.6910   78.4290  222.0670 H   0  0  0  0  0  0  0  0  0  0  0  0
  141.2546   78.2882  224.5164 H   0  0  0  0  0  0  0  0  0  0  0  0
  142.5363   80.4079  224.8260 H   0  0  0  0  0  0  0  0  0  0  0  0
  143.4622   79.6624  223.5135 H   0  0  0  0  0  0  0  0  0  0  0  0
  142.3573   82.1346  223.2872 H   0  0  0  0  0  0  0  0  0  0  0  0
  142.4983   81.0763  221.8819 H   0  0  0  0  0  0  0  0  0  0  0  0
  140.0871   81.9063  223.3828 H   0  0  0  0  0  0  0  0  0  0  0  0
  140.1796   81.1220  221.7863 H   0  0  0  0  0  0  0  0  0  0  0  0
  139.6472   79.9433  224.4239 H   0  0  0  0  0  0  0  0  0  0  0  0
  139.4382   79.2138  222.8125 H   0  0  0  0  0  0  0  0  0  0  0  0
  1  2  1  0
  2  3  1  0
  2  4  1  0
  4  5  1  0
  5  6  1  0
  6  7  1  0
  7  8  2  0
  7  9  1  0
  9 10  1  0
 10 11  1  0
 11 12  2  0
 11 13  1  0
 13 14  2  0
 14 15  1  0
 15 16  2  0
 16 17  1  0
 17 18  2  0
 18 19  1  0
 19 20  2  0
 20 21  1  0
 21 22  2  0
  5 23  1  0
 23 24  2  0
 23 25  1  0
 25 26  1  0
 26 27  1  0
 27 28  1  0
 28 29  1  0
 29 30  1  0
 22 13  1  0
 30 26  1  0
 21 16  1  0
  1 31  1  0
  1 32  1  0
  1 33  1  0
  2 34  1  0
  3 35  1  0
  3 36  1  0
  3 37  1  0
  4 38  1  0
  4 39  1  0
  5 40  1  1
  6 41  1  0
  9 42  1  0
  9 43  1  0
 10 44  1  0
 14 45  1  0
 15 46  1  0
 17 47  1  0
 18 48  1  0
 19 49  1  0
 20 50  1  0
 25 51  1  0
 26 52  1  0
 27 53  1  0
 27 54  1  0
 28 55  1  0
 28 56  1  0
 29 57  1  0
 29 58  1  0
 30 59  1  0
 30 60  1  0
M  END
>  <smiles>  (41) 
CC(C)C[C@H](NC(=O)CNC(=O)c1ccc2ccccc2n1)C(=O)NC1CCCC1

>  <score_type>  (41) 
oracle

>  <origin>  (41) 
autodockgpu

>  <m_score__min__energy>  (41) 
-9.0600000000000005

>  <m_primary>  (41) 
energy

>  <rmsd>  (41) 
2.530797600844141

>  <m_score__min__rmsd>  (41) 
2.530797600844141

>  <meeko>  (41) 
{"free_energy": -8.74, "intermolecular_energy": -11.13, "internal_energy": -2.64, "cluster_size": 39, "cluster_id": 1, "rank_in_cluster": 8}

>  <energy>  (41) 
-8.69

>  <cluster_rmsd>  (41) 
0.45

>  <cluster>  (41) 
2

$$$$

     RDKit          3D

 60 62  0  0  0  0  0  0  0  0999 V2000
  142.1990   79.3750  218.7410 C   0  0  0  0  0  0  0  0  0  0  0  0
  141.3780   78.6090  219.7390 C   0  0  0  0  0  0  0  0  0  0  0  0
  139.9090   78.8830  219.3850 C   0  0  0  0  0  0  0  0  0  0  0  0
  141.5590   77.1380  219.7100 C   0  0  0  0  0  0  0  0  0  0  0  0
  141.4560   76.4330  221.0370 C   0  0  2  0  0  0  0  0  0  0  0  0
  140.7570   75.1540  220.8990 N   0  0  0  0  0  0  0  0  0  0  0  0
  141.3540   74.0160  220.3070 C   0  0  0  0  0  0  0  0  0  0  0  0
  142.5460   74.1340  219.8920 O   0  0  0  0  0  0  0  0  0  0  0  0
  140.6900   72.7060  220.1410 C   0  0  0  0  0  0  0  0  0  0  0  0
  140.6220   71.8900  221.3080 N   0  0  0  0  0  0  0  0  0  0  0  0
  140.1380   72.3780  222.5630 C   0  0  0  0  0  0  0  0  0  0  0  0
  139.7310   73.5820  222.6990 O   0  0  0  0  0  0  0  0  0  0  0  0
  140.1040   71.4750  223.7330 C   0  0  0  0  0  0  0  0  0  0  0  0
  139.5730   70.2100  223.5930 C   0  0  0  0  0  0  0  0  0  0  0  0
  139.5530   69.3830  224.6980 C   0  0  0  0  0  0  0  0  0  0  0  0
  140.0390   69.7760  225.9270 C   0  0  0  0  0  0  0  0  0  0  0  0
  140.0230   68.9540  227.0400 C   0  0  0  0  0  0  0  0  0  0  0  0
  140.5170   69.3680  228.2660 C   0  0  0  0  0  0  0  0  0  0  0  0
  141.0420   70.6630  228.3460 C   0  0  0  0  0  0  0  0  0  0  0  0
  141.0520   71.4700  227.2260 C   0  0  0  0  0  0  0  0  0  0  0  0
  140.5580   71.0540  226.0070 C   0  0  0  0  0  0  0  0  0  0  0  0
  140.5740   71.8520  224.9220 N   0  0  0  0  0  0  0  0  0  0  0  0
  140.9480   77.2660  222.1340 C   0  0  0  0  0  0  0  0  0  0  0  0
  139.8080   77.1520  222.6580 O   0  0  0  0  0  0  0  0  0  0  0  0
  141.7940   78.2810  222.6540 N   0  0  0  0  0  0  0  0  0  0  0  0
  141.3610   79.1400  223.7340 C   0  0  0  0  0  0  0  0  0  0  0  0
  142.4330   80.2250  223.8480 C   0  0  0  0  0  0  0  0  0  0  0  0
  142.0430   81.2920  222.8720 C   0  0  0  0  0  0  0  0  0  0  0  0
  140.5380   81.1950  222.7620 C   0  0  0  0  0  0  0  0  0  0  0  0
  140.1190   79.9160  223.4400 C   0  0  0  0  0  0  0  0  0  0  0  0
  142.9031   80.0320  219.2726 H   0  0  0  0  0  0  0  0  0  0  0  0
  142.7602   78.6703  218.1098 H   0  0  0  0  0  0  0  0  0  0  0  0
  141.5348   79.9837  218.1098 H   0  0  0  0  0  0  0  0  0  0  0  0
  141.6930   78.9415  220.7391 H   0  0  0  0  0  0  0  0  0  0  0  0
  139.3232   78.9923  220.3096 H   0  0  0  0  0  0  0  0  0  0  0  0
  139.8404   79.8094  218.7959 H   0  0  0  0  0  0  0  0  0  0  0  0
  139.5111   78.0436  218.7959 H   0  0  0  0  0  0  0  0  0  0  0  0
  140.7902   76.7175  219.0451 H   0  0  0  0  0  0  0  0  0  0  0  0
  142.5909   76.9733  219.3664 H   0  0  0  0  0  0  0  0  0  0  0  0
  142.4875   76.2119  221.3486 H   0  0  0  0  0  0  0  0  0  0  0  0
  139.7880   75.1210  221.2720 H   0  0  0  0  0  0  0  0  0  0  0  0
  139.6611   72.8907  219.7985 H   0  0  0  0  0  0  0  0  0  0  0  0
  141.3086   72.1476  219.4230 H   0  0  0  0  0  0  0  0  0  0  0  0
  140.9280   70.8710  221.3150 H   0  0  0  0  0  0  0  0  0  0  0  0
  139.1756   69.8688  222.6257 H   0  0  0  0  0  0  0  0  0  0  0  0
  139.1332   68.3716  224.5941 H   0  0  0  0  0  0  0  0  0  0  0  0
  139.6051   67.9406  226.9483 H   0  0  0  0  0  0  0  0  0  0  0  0
  140.4975   68.7045  229.1431 H   0  0  0  0  0  0  0  0  0  0  0  0
  141.4455   71.0367  229.2986 H   0  0  0  0  0  0  0  0  0  0  0  0
  141.4701   72.4841  227.3088 H   0  0  0  0  0  0  0  0  0  0  0  0
  142.7650   78.4600  222.2850 H   0  0  0  0  0  0  0  0  0  0  0  0
  141.1906   78.4989  224.6114 H   0  0  0  0  0  0  0  0  0  0  0  0
  142.4584   80.6318  224.8697 H   0  0  0  0  0  0  0  0  0  0  0  0
  143.4352   79.8266  223.6316 H   0  0  0  0  0  0  0  0  0  0  0  0
  142.3398   82.2834  223.2448 H   0  0  0  0  0  0  0  0  0  0  0  0
  142.5366   81.1596  221.8979 H   0  0  0  0  0  0  0  0  0  0  0  0
  140.0682   82.0560  223.2599 H   0  0  0  0  0  0  0  0  0  0  0  0
  140.2243   81.1969  221.7077 H   0  0  0  0  0  0  0  0  0  0  0  0
  139.5870   80.1430  224.3756 H   0  0  0  0  0  0  0  0  0  0  0  0
  139.4425   79.3371  222.7941 H   0  0  0  0  0  0  0  0  0  0  0  0
  1  2  1  0
  2  3  1  0
  2  4  1  0
  4  5  1  0
  5  6  1  0
  6  7  1  0
  7  8  2  0
  7  9  1  0
  9 10  1  0
 10 11  1  0
 11 12  2  0
 11 13  1  0
 13 14  2  0
 14 15  1  0
 15 16  2  0
 16 17  1  0
 17 18  2  0
 18 19  1  0
 19 20  2  0
 20 21  1  0
 21 22  2  0
  5 23  1  0
 23 24  2  0
 23 25  1  0
 25 26  1  0
 26 27  1  0
 27 28  1  0
 28 29  1  0
 29 30  1  0
 22 13  1  0
 30 26  1  0
 21 16  1  0
  1 31  1  0
  1 32  1  0
  1 33  1  0
  2 34  1  0
  3 35  1  0
  3 36  1  0
  3 37  1  0
  4 38  1  0
  4 39  1  0
  5 40  1  1
  6 41  1  0
  9 42  1  0
  9 43  1  0
 10 44  1  0
 14 45  1  0
 15 46  1  0
 17 47  1  0
 18 48  1  0
 19 49  1  0
 20 50  1  0
 25 51  1  0
 26 52  1  0
 27 53  1  0
 27 54  1  0
 28 55  1  0
 28 56  1  0
 29 57  1  0
 29 58  1  0
 30 59  1  0
 30 60  1  0
M  END
>  <smiles>  (42) 
CC(C)C[C@H](NC(=O)CNC(=O)c1ccc2ccccc2n1)C(=O)NC1CCCC1

>  <score_type>  (42) 
oracle

>  <origin>  (42) 
autodockgpu

>  <m_score__min__energy>  (42) 
-9.0600000000000005

>  <m_primary>  (42) 
energy

>  <rmsd>  (42) 
2.7302606811771812

>  <m_score__min__rmsd>  (42) 
2.7302606811771812

>  <meeko>  (42) 
{"free_energy": -8.6, "intermolecular_energy": -10.99, "internal_energy": -2.72, "cluster_size": 39, "cluster_id": 1, "rank_in_cluster": 18}

>  <energy>  (42) 
-8.68

>  <cluster_rmsd>  (42) 
0.45

>  <cluster>  (42) 
2

$$$$

     RDKit          3D

 60 62  0  0  0  0  0  0  0  0999 V2000
  137.2630   69.2570  224.5900 C   0  0  0  0  0  0  0  0  0  0  0  0
  137.4460   70.0130  223.3050 C   0  0  0  0  0  0  0  0  0  0  0  0
  136.6420   71.3130  223.4550 C   0  0  0  0  0  0  0  0  0  0  0  0
  138.8420   70.4050  222.9960 C   0  0  0  0  0  0  0  0  0  0  0  0
  139.4020   71.5490  223.8010 C   0  0  2  0  0  0  0  0  0  0  0  0
  139.8950   72.6140  222.9250 N   0  0  0  0  0  0  0  0  0  0  0  0
  140.8240   72.3800  221.8840 C   0  0  0  0  0  0  0  0  0  0  0  0
  141.2270   71.1890  221.7210 O   0  0  0  0  0  0  0  0  0  0  0  0
  141.3550   73.4200  220.9770 C   0  0  0  0  0  0  0  0  0  0  0  0
  141.3670   74.7480  221.4940 N   0  0  0  0  0  0  0  0  0  0  0  0
  140.1680   75.4700  221.7940 C   0  0  0  0  0  0  0  0  0  0  0  0
  139.0140   74.9510  221.6160 O   0  0  0  0  0  0  0  0  0  0  0  0
  140.2600   76.8490  222.3200 C   0  0  0  0  0  0  0  0  0  0  0  0
  139.1060   77.5090  222.6880 C   0  0  0  0  0  0  0  0  0  0  0  0
  139.2150   78.7950  223.1770 C   0  0  0  0  0  0  0  0  0  0  0  0
  140.4280   79.4380  223.3080 C   0  0  0  0  0  0  0  0  0  0  0  0
  140.5460   80.7270  223.7970 C   0  0  0  0  0  0  0  0  0  0  0  0
  141.7750   81.3540  223.9210 C   0  0  0  0  0  0  0  0  0  0  0  0
  142.9090   80.6340  223.5310 C   0  0  0  0  0  0  0  0  0  0  0  0
  142.7750   79.3490  223.0460 C   0  0  0  0  0  0  0  0  0  0  0  0
  141.5480   78.7270  222.9230 C   0  0  0  0  0  0  0  0  0  0  0  0
  141.4310   77.4730  222.4480 N   0  0  0  0  0  0  0  0  0  0  0  0
  140.3570   71.1530  224.8420 C   0  0  0  0  0  0  0  0  0  0  0  0
  141.2050   71.9190  225.3720 O   0  0  0  0  0  0  0  0  0  0  0  0
  140.3350   69.8080  225.2970 N   0  0  0  0  0  0  0  0  0  0  0  0
  141.2460   69.3460  226.3200 C   0  0  0  0  0  0  0  0  0  0  0  0
  140.9930   70.2480  227.5300 C   0  0  0  0  0  0  0  0  0  0  0  0
  139.8610   69.6180  228.2820 C   0  0  0  0  0  0  0  0  0  0  0  0
  139.9560   68.1400  227.9710 C   0  0  0  0  0  0  0  0  0  0  0  0
  140.9410   67.9800  226.8420 C   0  0  0  0  0  0  0  0  0  0  0  0
  137.4271   69.9348  225.4407 H   0  0  0  0  0  0  0  0  0  0  0  0
  136.2410   68.8526  224.6352 H   0  0  0  0  0  0  0  0  0  0  0  0
  137.9869   68.4300  224.6352 H   0  0  0  0  0  0  0  0  0  0  0  0
  137.1219   69.3485  222.4905 H   0  0  0  0  0  0  0  0  0  0  0  0
  136.5033   71.5372  224.5229 H   0  0  0  0  0  0  0  0  0  0  0  0
  137.1873   72.1389  222.9747 H   0  0  0  0  0  0  0  0  0  0  0  0
  135.6596   71.1940  222.9747 H   0  0  0  0  0  0  0  0  0  0  0  0
  139.4833   69.5278  223.1671 H   0  0  0  0  0  0  0  0  0  0  0  0
  138.8269   70.7562  221.9537 H   0  0  0  0  0  0  0  0  0  0  0  0
  138.5612   71.9612  224.3783 H   0  0  0  0  0  0  0  0  0  0  0  0
  139.5150   73.5650  223.1030 H   0  0  0  0  0  0  0  0  0  0  0  0
  142.3898   73.1482  220.7214 H   0  0  0  0  0  0  0  0  0  0  0  0
  140.6715   73.4416  220.1154 H   0  0  0  0  0  0  0  0  0  0  0  0
  142.2680   75.2810  221.6870 H   0  0  0  0  0  0  0  0  0  0  0  0
  138.1238   77.0227  222.5941 H   0  0  0  0  0  0  0  0  0  0  0  0
  138.2993   79.3275  223.4736 H   0  0  0  0  0  0  0  0  0  0  0  0
  139.6372   81.2698  224.0961 H   0  0  0  0  0  0  0  0  0  0  0  0
  141.8560   82.3792  224.3114 H   0  0  0  0  0  0  0  0  0  0  0  0
  143.9062   81.0914  223.6108 H   0  0  0  0  0  0  0  0  0  0  0  0
  143.6794   78.7994  222.7461 H   0  0  0  0  0  0  0  0  0  0  0  0
  139.6650   69.0880  224.9180 H   0  0  0  0  0  0  0  0  0  0  0  0
  142.2556   69.3515  225.8832 H   0  0  0  0  0  0  0  0  0  0  0  0
  141.8911   70.2998  228.1631 H   0  0  0  0  0  0  0  0  0  0  0  0
  140.7515   71.2765  227.2236 H   0  0  0  0  0  0  0  0  0  0  0  0
  139.9701   69.7932  229.3625 H   0  0  0  0  0  0  0  0  0  0  0  0
  138.8874   70.0390  227.9906 H   0  0  0  0  0  0  0  0  0  0  0  0
  140.3072   67.5910  228.8572 H   0  0  0  0  0  0  0  0  0  0  0  0
  138.9718   67.7384  227.6879 H   0  0  0  0  0  0  0  0  0  0  0  0
  141.8616   67.5039  227.2105 H   0  0  0  0  0  0  0  0  0  0  0  0
  140.5223   67.3446  226.0476 H   0  0  0  0  0  0  0  0  0  0  0  0
  1  2  1  0
  2  3  1  0
  2  4  1  0
  4  5  1  0
  5  6  1  0
  6  7  1  0
  7  8  2  0
  7  9  1  0
  9 10  1  0
 10 11  1  0
 11 12  2  0
 11 13  1  0
 13 14  2  0
 14 15  1  0
 15 16  2  0
 16 17  1  0
 17 18  2  0
 18 19  1  0
 19 20  2  0
 20 21  1  0
 21 22  2  0
  5 23  1  0
 23 24  2  0
 23 25  1  0
 25 26  1  0
 26 27  1  0
 27 28  1  0
 28 29  1  0
 29 30  1  0
 22 13  1  0
 30 26  1  0
 21 16  1  0
  1 31  1  0
  1 32  1  0
  1 33  1  0
  2 34  1  0
  3 35  1  0
  3 36  1  0
  3 37  1  0
  4 38  1  0
  4 39  1  0
  5 40  1  1
  6 41  1  0
  9 42  1  0
  9 43  1  0
 10 44  1  0
 14 45  1  0
 15 46  1  0
 17 47  1  0
 18 48  1  0
 19 49  1  0
 20 50  1  0
 25 51  1  0
 26 52  1  0
 27 53  1  0
 27 54  1  0
 28 55  1  0
 28 56  1  0
 29 57  1  0
 29 58  1  0
 30 59  1  0
 30 60  1  0
M  END
>  <smiles>  (43) 
CC(C)C[C@H](NC(=O)CNC(=O)c1ccc2ccccc2n1)C(=O)NC1CCCC1

>  <score_type>  (43) 
oracle

>  <origin>  (43) 
autodockgpu

>  <m_score__min__energy>  (43) 
-9.0600000000000005

>  <m_primary>  (43) 
energy

>  <rmsd>  (43) 
9.675102801008808

>  <m_score__min__rmsd>  (43) 
9.675102801008808

>  <meeko>  (43) 
{"free_energy": -8.68, "intermolecular_energy": -11.07, "internal_energy": -2.71, "cluster_size": 10, "cluster_id": 2, "rank_in_cluster": 3}

>  <energy>  (43) 
-8.67

>  <cluster_rmsd>  (43) 
0.08

>  <cluster>  (43) 
2

$$$$

     RDKit          3D

 60 62  0  0  0  0  0  0  0  0999 V2000
  143.2190   76.6110  217.9620 C   0  0  0  0  0  0  0  0  0  0  0  0
  142.6120   77.1420  219.2290 C   0  0  0  0  0  0  0  0  0  0  0  0
  142.1980   78.5900  218.9330 C   0  0  0  0  0  0  0  0  0  0  0  0
  141.3940   76.4340  219.6920 C   0  0  0  0  0  0  0  0  0  0  0  0
  141.4310   75.9060  221.1030 C   0  0  2  0  0  0  0  0  0  0  0  0
  140.9040   74.5420  221.1660 N   0  0  0  0  0  0  0  0  0  0  0  0
  141.3720   73.5010  220.3300 C   0  0  0  0  0  0  0  0  0  0  0  0
  142.2890   73.7870  219.5040 O   0  0  0  0  0  0  0  0  0  0  0  0
  140.8690   72.1110  220.3530 C   0  0  0  0  0  0  0  0  0  0  0  0
  140.9010   71.4590  221.6200 N   0  0  0  0  0  0  0  0  0  0  0  0
  140.2350   71.9820  222.7740 C   0  0  0  0  0  0  0  0  0  0  0  0
  139.5650   73.0690  222.7220 O   0  0  0  0  0  0  0  0  0  0  0  0
  140.3190   71.2530  224.0580 C   0  0  0  0  0  0  0  0  0  0  0  0
  140.8440   71.8910  225.1620 C   0  0  0  0  0  0  0  0  0  0  0  0
  140.9140   71.1920  226.3500 C   0  0  0  0  0  0  0  0  0  0  0  0
  140.4800   69.8880  226.4690 C   0  0  0  0  0  0  0  0  0  0  0  0
  140.5460   69.1790  227.6550 C   0  0  0  0  0  0  0  0  0  0  0  0
  140.1050   67.8690  227.7540 C   0  0  0  0  0  0  0  0  0  0  0  0
  139.5830   67.2760  226.5990 C   0  0  0  0  0  0  0  0  0  0  0  0
  139.5240   67.9970  225.4230 C   0  0  0  0  0  0  0  0  0  0  0  0
  139.9650   69.3010  225.3290 C   0  0  0  0  0  0  0  0  0  0  0  0
  139.9020   69.9920  224.1750 N   0  0  0  0  0  0  0  0  0  0  0  0
  140.8550   76.8070  222.1070 C   0  0  0  0  0  0  0  0  0  0  0  0
  139.7470   76.6340  222.6800 O   0  0  0  0  0  0  0  0  0  0  0  0
  141.5900   77.9670  222.4700 N   0  0  0  0  0  0  0  0  0  0  0  0
  141.0850   78.9000  223.4530 C   0  0  0  0  0  0  0  0  0  0  0  0
  142.2760   79.7840  223.8280 C   0  0  0  0  0  0  0  0  0  0  0  0
  142.3000   80.8900  222.8190 C   0  0  0  0  0  0  0  0  0  0  0  0
  140.8610   81.0550  222.3810 C   0  0  0  0  0  0  0  0  0  0  0  0
  140.0900   79.8770  222.9170 C   0  0  0  0  0  0  0  0  0  0  0  0
  144.0257   75.9053  218.2096 H   0  0  0  0  0  0  0  0  0  0  0  0
  142.4466   76.0934  217.3742 H   0  0  0  0  0  0  0  0  0  0  0  0
  143.6293   77.4454  217.3742 H   0  0  0  0  0  0  0  0  0  0  0  0
  143.3642   77.0189  220.0221 H   0  0  0  0  0  0  0  0  0  0  0  0
  142.0441   79.1282  219.8799 H   0  0  0  0  0  0  0  0  0  0  0  0
  142.9901   79.0867  218.3535 H   0  0  0  0  0  0  0  0  0  0  0  0
  141.2630   78.5929  218.3535 H   0  0  0  0  0  0  0  0  0  0  0  0
  140.5491   77.1343  219.6171 H   0  0  0  0  0  0  0  0  0  0  0  0
  141.3037   75.5477  219.0468 H   0  0  0  0  0  0  0  0  0  0  0  0
  142.4925   75.8614  221.3881 H   0  0  0  0  0  0  0  0  0  0  0  0
  140.1630   74.3710  221.8750 H   0  0  0  0  0  0  0  0  0  0  0  0
  139.8249   72.1245  220.0070 H   0  0  0  0  0  0  0  0  0  0  0  0
  141.5485   71.5375  219.7055 H   0  0  0  0  0  0  0  0  0  0  0  0
  141.4220   70.5450  221.7830 H   0  0  0  0  0  0  0  0  0  0  0  0
  141.1980   72.9305  225.0975 H   0  0  0  0  0  0  0  0  0  0  0  0
  141.3316   71.6937  227.2354 H   0  0  0  0  0  0  0  0  0  0  0  0
  140.9615   69.6703  228.5472 H   0  0  0  0  0  0  0  0  0  0  0  0
  140.1630   67.3168  228.7036 H   0  0  0  0  0  0  0  0  0  0  0  0
  139.2205   66.2378  226.6279 H   0  0  0  0  0  0  0  0  0  0  0  0
  139.1094   67.5131  224.5264 H   0  0  0  0  0  0  0  0  0  0  0  0
  142.5270   78.2040  222.0490 H   0  0  0  0  0  0  0  0  0  0  0  0
  140.6189   78.3076  224.2541 H   0  0  0  0  0  0  0  0  0  0  0  0
  142.1451   80.1928  224.8408 H   0  0  0  0  0  0  0  0  0  0  0  0
  143.2175   79.2152  223.8262 H   0  0  0  0  0  0  0  0  0  0  0  0
  142.6744   81.8192  223.2733 H   0  0  0  0  0  0  0  0  0  0  0  0
  142.9649   80.6618  221.9729 H   0  0  0  0  0  0  0  0  0  0  0  0
  140.4490   81.9905  222.7873 H   0  0  0  0  0  0  0  0  0  0  0  0
  140.7911   81.0988  221.2841 H   0  0  0  0  0  0  0  0  0  0  0  0
  139.4136   80.2042  223.7204 H   0  0  0  0  0  0  0  0  0  0  0  0
  139.4815   79.4172  222.1243 H   0  0  0  0  0  0  0  0  0  0  0  0
  1  2  1  0
  2  3  1  0
  2  4  1  0
  4  5  1  0
  5  6  1  0
  6  7  1  0
  7  8  2  0
  7  9  1  0
  9 10  1  0
 10 11  1  0
 11 12  2  0
 11 13  1  0
 13 14  2  0
 14 15  1  0
 15 16  2  0
 16 17  1  0
 17 18  2  0
 18 19  1  0
 19 20  2  0
 20 21  1  0
 21 22  2  0
  5 23  1  0
 23 24  2  0
 23 25  1  0
 25 26  1  0
 26 27  1  0
 27 28  1  0
 28 29  1  0
 29 30  1  0
 22 13  1  0
 30 26  1  0
 21 16  1  0
  1 31  1  0
  1 32  1  0
  1 33  1  0
  2 34  1  0
  3 35  1  0
  3 36  1  0
  3 37  1  0
  4 38  1  0
  4 39  1  0
  5 40  1  1
  6 41  1  0
  9 42  1  0
  9 43  1  0
 10 44  1  0
 14 45  1  0
 15 46  1  0
 17 47  1  0
 18 48  1  0
 19 49  1  0
 20 50  1  0
 25 51  1  0
 26 52  1  0
 27 53  1  0
 27 54  1  0
 28 55  1  0
 28 56  1  0
 29 57  1  0
 29 58  1  0
 30 59  1  0
 30 60  1  0
M  END
>  <smiles>  (44) 
CC(C)C[C@H](NC(=O)CNC(=O)c1ccc2ccccc2n1)C(=O)NC1CCCC1

>  <score_type>  (44) 
oracle

>  <origin>  (44) 
autodockgpu

>  <m_score__min__energy>  (44) 
-9.0600000000000005

>  <m_primary>  (44) 
energy

>  <rmsd>  (44) 
3.185493173193004

>  <m_score__min__rmsd>  (44) 
3.185493173193004

>  <meeko>  (44) 
{"free_energy": -8.25, "intermolecular_energy": -10.63, "internal_energy": -2.75, "cluster_size": 39, "cluster_id": 1, "rank_in_cluster": 36}

>  <energy>  (44) 
-8.35

>  <cluster_rmsd>  (44) 
0.56

>  <cluster>  (44) 
2

$$$$

     RDKit          3D

 60 62  0  0  0  0  0  0  0  0999 V2000
  142.5750   78.6690  218.5300 C   0  0  0  0  0  0  0  0  0  0  0  0
  142.2740   77.1990  218.6140 C   0  0  0  0  0  0  0  0  0  0  0  0
  143.3820   76.5840  219.4820 C   0  0  0  0  0  0  0  0  0  0  0  0
  140.9840   76.8550  219.2580 C   0  0  0  0  0  0  0  0  0  0  0  0
  141.0740   76.1660  220.5940 C   0  0  2  0  0  0  0  0  0  0  0  0
  140.4210   74.8560  220.5540 N   0  0  0  0  0  0  0  0  0  0  0  0
  141.0610   73.6950  220.0600 C   0  0  0  0  0  0  0  0  0  0  0  0
  142.2520   73.8220  219.6450 O   0  0  0  0  0  0  0  0  0  0  0  0
  140.4440   72.3540  219.9950 C   0  0  0  0  0  0  0  0  0  0  0  0
  140.4180   71.6210  221.2170 N   0  0  0  0  0  0  0  0  0  0  0  0
  140.0820   72.2250  222.4710 C   0  0  0  0  0  0  0  0  0  0  0  0
  139.7800   73.4630  222.5560 O   0  0  0  0  0  0  0  0  0  0  0  0
  140.0840   71.4020  223.7000 C   0  0  0  0  0  0  0  0  0  0  0  0
  139.5970   70.1130  223.6480 C   0  0  0  0  0  0  0  0  0  0  0  0
  139.6090   69.3630  224.8070 C   0  0  0  0  0  0  0  0  0  0  0  0
  140.0850   69.8550  226.0040 C   0  0  0  0  0  0  0  0  0  0  0  0
  140.1010   69.1100  227.1700 C   0  0  0  0  0  0  0  0  0  0  0  0
  140.5840   69.6230  228.3630 C   0  0  0  0  0  0  0  0  0  0  0  0
  141.0640   70.9380  228.3510 C   0  0  0  0  0  0  0  0  0  0  0  0
  141.0430   71.6670  227.1800 C   0  0  0  0  0  0  0  0  0  0  0  0
  140.5600   71.1520  225.9940 C   0  0  0  0  0  0  0  0  0  0  0  0
  140.5440   71.8750  224.8580 N   0  0  0  0  0  0  0  0  0  0  0  0
  140.6660   76.9920  221.7360 C   0  0  0  0  0  0  0  0  0  0  0  0
  139.9470   76.5980  222.6920 O   0  0  0  0  0  0  0  0  0  0  0  0
  141.1090   78.3410  221.7810 N   0  0  0  0  0  0  0  0  0  0  0  0
  140.7470   79.2150  222.8750 C   0  0  0  0  0  0  0  0  0  0  0  0
  141.9170   79.1440  223.8580 C   0  0  0  0  0  0  0  0  0  0  0  0
  142.9050   80.1690  223.3940 C   0  0  0  0  0  0  0  0  0  0  0  0
  142.0790   81.2230  222.6900 C   0  0  0  0  0  0  0  0  0  0  0  0
  140.6920   80.6630  222.5110 C   0  0  0  0  0  0  0  0  0  0  0  0
  142.6601   79.0844  219.5450 H   0  0  0  0  0  0  0  0  0  0  0  0
  143.5225   78.8191  217.9918 H   0  0  0  0  0  0  0  0  0  0  0  0
  141.7627   79.1794  217.9918 H   0  0  0  0  0  0  0  0  0  0  0  0
  142.2179   76.8211  217.5825 H   0  0  0  0  0  0  0  0  0  0  0  0
  143.1341   76.7216  220.5448 H   0  0  0  0  0  0  0  0  0  0  0  0
  143.4668   75.5097  219.2614 H   0  0  0  0  0  0  0  0  0  0  0  0
  144.3386   77.0803  219.2614 H   0  0  0  0  0  0  0  0  0  0  0  0
  140.4190   77.7883  219.3985 H   0  0  0  0  0  0  0  0  0  0  0  0
  140.5007   76.1320  218.5844 H   0  0  0  0  0  0  0  0  0  0  0  0
  142.1445   75.9941  220.7800 H   0  0  0  0  0  0  0  0  0  0  0  0
  139.4490   74.8190  220.9220 H   0  0  0  0  0  0  0  0  0  0  0  0
  139.4056   72.4769  219.6535 H   0  0  0  0  0  0  0  0  0  0  0  0
  141.0752   71.7687  219.3101 H   0  0  0  0  0  0  0  0  0  0  0  0
  140.6460   70.5830  221.2700 H   0  0  0  0  0  0  0  0  0  0  0  0
  139.2092   69.6934  222.7080 H   0  0  0  0  0  0  0  0  0  0  0  0
  139.2239   68.3331  224.7744 H   0  0  0  0  0  0  0  0  0  0  0  0
  139.7185   68.0789  227.1491 H   0  0  0  0  0  0  0  0  0  0  0  0
  140.5901   69.0207  229.2834 H   0  0  0  0  0  0  0  0  0  0  0  0
  141.4573   71.3893  229.2738 H   0  0  0  0  0  0  0  0  0  0  0  0
  141.4258   72.6982  227.1919 H   0  0  0  0  0  0  0  0  0  0  0  0
  141.7140   78.7690  221.0310 H   0  0  0  0  0  0  0  0  0  0  0  0
  139.7590   78.8934  223.2360 H   0  0  0  0  0  0  0  0  0  0  0  0
  141.5750   79.3761  224.8774 H   0  0  0  0  0  0  0  0  0  0  0  0
  142.3612   78.1380  223.8855 H   0  0  0  0  0  0  0  0  0  0  0  0
  143.4393   80.6057  224.2506 H   0  0  0  0  0  0  0  0  0  0  0  0
  143.6692   79.7348  222.7325 H   0  0  0  0  0  0  0  0  0  0  0  0
  142.0393   82.1382  223.2989 H   0  0  0  0  0  0  0  0  0  0  0  0
  142.5233   81.4786  221.7167 H   0  0  0  0  0  0  0  0  0  0  0  0
  139.9855   81.1900  223.1691 H   0  0  0  0  0  0  0  0  0  0  0  0
  140.3514   80.7909  221.4729 H   0  0  0  0  0  0  0  0  0  0  0  0
  1  2  1  0
  2  3  1  0
  2  4  1  0
  4  5  1  0
  5  6  1  0
  6  7  1  0
  7  8  2  0
  7  9  1  0
  9 10  1  0
 10 11  1  0
 11 12  2  0
 11 13  1  0
 13 14  2  0
 14 15  1  0
 15 16  2  0
 16 17  1  0
 17 18  2  0
 18 19  1  0
 19 20  2  0
 20 21  1  0
 21 22  2  0
  5 23  1  0
 23 24  2  0
 23 25  1  0
 25 26  1  0
 26 27  1  0
 27 28  1  0
 28 29  1  0
 29 30  1  0
 22 13  1  0
 30 26  1  0
 21 16  1  0
  1 31  1  0
  1 32  1  0
  1 33  1  0
  2 34  1  0
  3 35  1  0
  3 36  1  0
  3 37  1  0
  4 38  1  0
  4 39  1  0
  5 40  1  1
  6 41  1  0
  9 42  1  0
  9 43  1  0
 10 44  1  0
 14 45  1  0
 15 46  1  0
 17 47  1  0
 18 48  1  0
 19 49  1  0
 20 50  1  0
 25 51  1  0
 26 52  1  0
 27 53  1  0
 27 54  1  0
 28 55  1  0
 28 56  1  0
 29 57  1  0
 29 58  1  0
 30 59  1  0
 30 60  1  0
M  END
>  <smiles>  (45) 
CC(C)C[C@H](NC(=O)CNC(=O)c1ccc2ccccc2n1)C(=O)NC1CCCC1

>  <score_type>  (45) 
oracle

>  <origin>  (45) 
autodockgpu

>  <m_score__min__energy>  (45) 
-9.0600000000000005

>  <m_primary>  (45) 
energy

>  <rmsd>  (45) 
2.5832490856036037

>  <m_score__min__rmsd>  (45) 
2.5832490856036037

>  <meeko>  (45) 
{"free_energy": -8.26, "intermolecular_energy": -10.65, "internal_energy": -2.53, "cluster_size": 39, "cluster_id": 1, "rank_in_cluster": 35}

>  <energy>  (45) 
-7.55

>  <cluster_rmsd>  (45) 
1.8

>  <cluster>  (45) 
2

$$$$

     RDKit          3D

 60 62  0  0  0  0  0  0  0  0999 V2000
  135.9960   76.1060  221.3050 C   0  0  0  0  0  0  0  0  0  0  0  0
  136.2900   76.3270  222.7620 C   0  0  0  0  0  0  0  0  0  0  0  0
  135.8470   75.0490  223.4880 C   0  0  0  0  0  0  0  0  0  0  0  0
  137.7190   76.5360  223.0940 C   0  0  0  0  0  0  0  0  0  0  0  0
  138.7130   76.0770  222.0600 C   0  0  2  0  0  0  0  0  0  0  0  0
  138.6590   74.6240  221.8890 N   0  0  0  0  0  0  0  0  0  0  0  0
  138.8120   73.9940  220.6320 C   0  0  0  0  0  0  0  0  0  0  0  0
  139.0070   74.7420  219.6270 O   0  0  0  0  0  0  0  0  0  0  0  0
  138.7610   72.5340  220.4080 C   0  0  0  0  0  0  0  0  0  0  0  0
  138.8320   71.7220  221.5780 N   0  0  0  0  0  0  0  0  0  0  0  0
  139.7060   72.0210  222.6720 C   0  0  0  0  0  0  0  0  0  0  0  0
  140.4690   73.0450  222.6560 O   0  0  0  0  0  0  0  0  0  0  0  0
  139.7310   71.1280  223.8500 C   0  0  0  0  0  0  0  0  0  0  0  0
  139.0740   69.9170  223.7910 C   0  0  0  0  0  0  0  0  0  0  0  0
  139.1100   69.0980  224.9020 C   0  0  0  0  0  0  0  0  0  0  0  0
  139.7740   69.4480  226.0590 C   0  0  0  0  0  0  0  0  0  0  0  0
  139.8160   68.6350  227.1780 C   0  0  0  0  0  0  0  0  0  0  0  0
  140.4890   69.0050  228.3300 C   0  0  0  0  0  0  0  0  0  0  0  0
  141.1360   70.2460  228.3290 C   0  0  0  0  0  0  0  0  0  0  0  0
  141.0860   71.0460  227.2050 C   0  0  0  0  0  0  0  0  0  0  0  0
  140.4130   70.6730  226.0590 C   0  0  0  0  0  0  0  0  0  0  0  0
  140.3720   71.4640  224.9690 N   0  0  0  0  0  0  0  0  0  0  0  0
  140.0720   76.5970  222.2460 C   0  0  0  0  0  0  0  0  0  0  0  0
  141.1290   75.9580  222.0020 O   0  0  0  0  0  0  0  0  0  0  0  0
  140.2230   77.9210  222.7370 N   0  0  0  0  0  0  0  0  0  0  0  0
  141.5320   78.5010  222.9450 C   0  0  0  0  0  0  0  0  0  0  0  0
  141.9250   79.1140  221.5990 C   0  0  0  0  0  0  0  0  0  0  0  0
  141.3390   80.4920  221.5890 C   0  0  0  0  0  0  0  0  0  0  0  0
  141.2700   80.9020  223.0440 C   0  0  0  0  0  0  0  0  0  0  0  0
  141.5430   79.6730  223.8710 C   0  0  0  0  0  0  0  0  0  0  0  0
  135.1205   75.4479  221.2033 H   0  0  0  0  0  0  0  0  0  0  0  0
  135.7865   77.0721  220.8226 H   0  0  0  0  0  0  0  0  0  0  0  0
  136.8658   75.6363  220.8226 H   0  0  0  0  0  0  0  0  0  0  0  0
  135.7640   77.2457  223.0607 H   0  0  0  0  0  0  0  0  0  0  0  0
  135.9018   75.2072  224.5752 H   0  0  0  0  0  0  0  0  0  0  0  0
  134.8123   74.8062  223.2045 H   0  0  0  0  0  0  0  0  0  0  0  0
  136.5095   74.2179  223.2045 H   0  0  0  0  0  0  0  0  0  0  0  0
  137.8730   77.6135  223.2533 H   0  0  0  0  0  0  0  0  0  0  0  0
  137.9097   75.9166  223.9828 H   0  0  0  0  0  0  0  0  0  0  0  0
  138.3996   76.5320  221.1088 H   0  0  0  0  0  0  0  0  0  0  0  0
  138.5100   74.0680  222.7550 H   0  0  0  0  0  0  0  0  0  0  0  0
  137.8153   72.3044  219.8952 H   0  0  0  0  0  0  0  0  0  0  0  0
  139.6595   72.2910  219.8218 H   0  0  0  0  0  0  0  0  0  0  0  0
  138.2410   70.8470  221.7070 H   0  0  0  0  0  0  0  0  0  0  0  0
  138.5351   69.6113  222.8821 H   0  0  0  0  0  0  0  0  0  0  0  0
  138.5894   68.1298  224.8628 H   0  0  0  0  0  0  0  0  0  0  0  0
  139.2986   67.6646  227.1514 H   0  0  0  0  0  0  0  0  0  0  0  0
  140.5142   68.3486  229.2124 H   0  0  0  0  0  0  0  0  0  0  0  0
  141.6831   70.5832  229.2217 H   0  0  0  0  0  0  0  0  0  0  0  0
  141.6019   72.0173  227.2233 H   0  0  0  0  0  0  0  0  0  0  0  0
  139.4030   78.5400  222.9720 H   0  0  0  0  0  0  0  0  0  0  0  0
  142.1784   77.7095  223.3521 H   0  0  0  0  0  0  0  0  0  0  0  0
  143.0200   79.1631  221.5060 H   0  0  0  0  0  0  0  0  0  0  0  0
  141.5541   78.5112  220.7569 H   0  0  0  0  0  0  0  0  0  0  0  0
  141.9833   81.1815  221.0237 H   0  0  0  0  0  0  0  0  0  0  0  0
  140.3506   80.5159  221.1069 H   0  0  0  0  0  0  0  0  0  0  0  0
  142.0266   81.6723  223.2540 H   0  0  0  0  0  0  0  0  0  0  0  0
  140.2811   81.3199  223.2836 H   0  0  0  0  0  0  0  0  0  0  0  0
  142.5255   79.7581  224.3583 H   0  0  0  0  0  0  0  0  0  0  0  0
  140.7813   79.5555  224.6558 H   0  0  0  0  0  0  0  0  0  0  0  0
  1  2  1  0
  2  3  1  0
  2  4  1  0
  4  5  1  0
  5  6  1  0
  6  7  1  0
  7  8  2  0
  7  9  1  0
  9 10  1  0
 10 11  1  0
 11 12  2  0
 11 13  1  0
 13 14  2  0
 14 15  1  0
 15 16  2  0
 16 17  1  0
 17 18  2  0
 18 19  1  0
 19 20  2  0
 20 21  1  0
 21 22  2  0
  5 23  1  0
 23 24  2  0
 23 25  1  0
 25 26  1  0
 26 27  1  0
 27 28  1  0
 28 29  1  0
 29 30  1  0
 22 13  1  0
 30 26  1  0
 21 16  1  0
  1 31  1  0
  1 32  1  0
  1 33  1  0
  2 34  1  0
  3 35  1  0
  3 36  1  0
  3 37  1  0
  4 38  1  0
  4 39  1  0
  5 40  1  6
  6 41  1  0
  9 42  1  0
  9 43  1  0
 10 44  1  0
 14 45  1  0
 15 46  1  0
 17 47  1  0
 18 48  1  0
 19 49  1  0
 20 50  1  0
 25 51  1  0
 26 52  1  0
 27 53  1  0
 27 54  1  0
 28 55  1  0
 28 56  1  0
 29 57  1  0
 29 58  1  0
 30 59  1  0
 30 60  1  0
M  END
>  <smiles>  (46) 
CC(C)C[C@H](NC(=O)CNC(=O)c1ccc2ccccc2n1)C(=O)NC1CCCC1

>  <score_type>  (46) 
oracle

>  <origin>  (46) 
autodockgpu

>  <m_score__min__energy>  (46) 
-9.0600000000000005

>  <m_primary>  (46) 
energy

>  <rmsd>  (46) 
3.2074626495377045

>  <m_score__min__rmsd>  (46) 
3.2074626495377045

>  <meeko>  (46) 
{"free_energy": -8.2, "intermolecular_energy": -10.59, "internal_energy": -2.22, "cluster_size": 39, "cluster_id": 1, "rank_in_cluster": 38}

>  <energy>  (46) 
-7.52

>  <cluster_rmsd>  (46) 
1.97

>  <cluster>  (46) 
2

$$$$

     RDKit          3D

 60 62  0  0  0  0  0  0  0  0999 V2000
  139.5820   68.9940  224.9140 C   0  0  0  0  0  0  0  0  0  0  0  0
  139.7680   70.2220  225.7590 C   0  0  0  0  0  0  0  0  0  0  0  0
  141.0460   69.9900  226.5780 C   0  0  0  0  0  0  0  0  0  0  0  0
  139.9640   71.4840  225.0060 C   0  0  0  0  0  0  0  0  0  0  0  0
  139.3930   71.5190  223.6130 C   0  0  2  0  0  0  0  0  0  0  0  0
  140.0060   72.5880  222.8210 N   0  0  0  0  0  0  0  0  0  0  0  0
  140.8540   72.3330  221.7180 C   0  0  0  0  0  0  0  0  0  0  0  0
  141.0720   71.1200  221.4200 O   0  0  0  0  0  0  0  0  0  0  0  0
  141.4990   73.3760  220.8920 C   0  0  0  0  0  0  0  0  0  0  0  0
  141.4370   74.7030  221.4060 N   0  0  0  0  0  0  0  0  0  0  0  0
  140.1990   75.3590  221.7020 C   0  0  0  0  0  0  0  0  0  0  0  0
  139.0760   74.7770  221.5240 O   0  0  0  0  0  0  0  0  0  0  0  0
  140.2140   76.7420  222.2260 C   0  0  0  0  0  0  0  0  0  0  0  0
  139.0220   77.3440  222.5710 C   0  0  0  0  0  0  0  0  0  0  0  0
  139.0590   78.6350  223.0590 C   0  0  0  0  0  0  0  0  0  0  0  0
  140.2370   79.3370  223.2100 C   0  0  0  0  0  0  0  0  0  0  0  0
  140.2830   80.6310  223.6970 C   0  0  0  0  0  0  0  0  0  0  0  0
  141.4770   81.3190  223.8410 C   0  0  0  0  0  0  0  0  0  0  0  0
  142.6530   80.6550  223.4730 C   0  0  0  0  0  0  0  0  0  0  0  0
  142.5900   79.3630  222.9900 C   0  0  0  0  0  0  0  0  0  0  0  0
  141.3980   78.6820  222.8470 C   0  0  0  0  0  0  0  0  0  0  0  0
  141.3510   77.4230  222.3730 N   0  0  0  0  0  0  0  0  0  0  0  0
  137.9270   71.5090  223.5530 C   0  0  0  0  0  0  0  0  0  0  0  0
  137.1960   70.5500  223.9160 O   0  0  0  0  0  0  0  0  0  0  0  0
  137.2680   72.6620  223.0490 N   0  0  0  0  0  0  0  0  0  0  0  0
  135.8260   72.7250  222.9620 C   0  0  0  0  0  0  0  0  0  0  0  0
  135.3420   73.0220  224.3820 C   0  0  0  0  0  0  0  0  0  0  0  0
  135.3780   74.5120  224.5240 C   0  0  0  0  0  0  0  0  0  0  0  0
  135.1740   75.0470  223.1240 C   0  0  0  0  0  0  0  0  0  0  0  0
  135.3090   73.8850  222.1750 C   0  0  0  0  0  0  0  0  0  0  0  0
  139.4492   68.1175  225.5652 H   0  0  0  0  0  0  0  0  0  0  0  0
  138.6923   69.1172  224.2790 H   0  0  0  0  0  0  0  0  0  0  0  0
  140.4683   68.8482  224.2790 H   0  0  0  0  0  0  0  0  0  0  0  0
  138.8474   70.3505  226.3471 H   0  0  0  0  0  0  0  0  0  0  0  0
  140.8069   70.0334  227.6508 H   0  0  0  0  0  0  0  0  0  0  0  0
  141.4629   69.0015  226.3349 H   0  0  0  0  0  0  0  0  0  0  0  0
  141.7837   70.7689  226.3349 H   0  0  0  0  0  0  0  0  0  0  0  0
  139.4952   72.2955  225.5820 H   0  0  0  0  0  0  0  0  0  0  0  0
  141.0520   71.5888  224.8824 H   0  0  0  0  0  0  0  0  0  0  0  0
  139.6683   70.5630  223.1437 H   0  0  0  0  0  0  0  0  0  0  0  0
  139.7750   73.5590  223.1100 H   0  0  0  0  0  0  0  0  0  0  0  0
  142.5597   73.1078  220.7782 H   0  0  0  0  0  0  0  0  0  0  0  0
  140.9375   73.3964  219.9463 H   0  0  0  0  0  0  0  0  0  0  0  0
  142.3060   75.2860  221.6000 H   0  0  0  0  0  0  0  0  0  0  0  0
  138.0669   76.8096  222.4603 H   0  0  0  0  0  0  0  0  0  0  0  0
  138.1132   79.1224  223.3380 H   0  0  0  0  0  0  0  0  0  0  0  0
  139.3433   81.1287  223.9784 H   0  0  0  0  0  0  0  0  0  0  0  0
  141.4999   82.3478  224.2297 H   0  0  0  0  0  0  0  0  0  0  0  0
  143.6249   81.1612  223.5684 H   0  0  0  0  0  0  0  0  0  0  0  0
  143.5254   78.8572  222.7085 H   0  0  0  0  0  0  0  0  0  0  0  0
  137.7870   73.5180  222.7190 H   0  0  0  0  0  0  0  0  0  0  0  0
  135.4877   71.7882  222.4952 H   0  0  0  0  0  0  0  0  0  0  0  0
  134.3169   72.6488  224.5228 H   0  0  0  0  0  0  0  0  0  0  0  0
  135.9736   72.5289  225.1356 H   0  0  0  0  0  0  0  0  0  0  0  0
  134.5728   74.8559  225.1899 H   0  0  0  0  0  0  0  0  0  0  0  0
  136.3236   74.8610  224.9646 H   0  0  0  0  0  0  0  0  0  0  0  0
  134.1721   75.4921  223.0336 H   0  0  0  0  0  0  0  0  0  0  0  0
  135.9158   75.8258  222.8933 H   0  0  0  0  0  0  0  0  0  0  0  0
  134.3290   73.6381  221.7407 H   0  0  0  0  0  0  0  0  0  0  0  0
  135.9948   74.1330  221.3515 H   0  0  0  0  0  0  0  0  0  0  0  0
  1  2  1  0
  2  3  1  0
  2  4  1  0
  4  5  1  0
  5  6  1  0
  6  7  1  0
  7  8  2  0
  7  9  1  0
  9 10  1  0
 10 11  1  0
 11 12  2  0
 11 13  1  0
 13 14  2  0
 14 15  1  0
 15 16  2  0
 16 17  1  0
 17 18  2  0
 18 19  1  0
 19 20  2  0
 20 21  1  0
 21 22  2  0
  5 23  1  0
 23 24  2  0
 23 25  1  0
 25 26  1  0
 26 27  1  0
 27 28  1  0
 28 29  1  0
 29 30  1  0
 22 13  1  0
 30 26  1  0
 21 16  1  0
  1 31  1  0
  1 32  1  0
  1 33  1  0
  2 34  1  0
  3 35  1  0
  3 36  1  0
  3 37  1  0
  4 38  1  0
  4 39  1  0
  5 40  1  6
  6 41  1  0
  9 42  1  0
  9 43  1  0
 10 44  1  0
 14 45  1  0
 15 46  1  0
 17 47  1  0
 18 48  1  0
 19 49  1  0
 20 50  1  0
 25 51  1  0
 26 52  1  0
 27 53  1  0
 27 54  1  0
 28 55  1  0
 28 56  1  0
 29 57  1  0
 29 58  1  0
 30 59  1  0
 30 60  1  0
M  END
>  <smiles>  (47) 
CC(C)C[C@H](NC(=O)CNC(=O)c1ccc2ccccc2n1)C(=O)NC1CCCC1

>  <score_type>  (47) 
oracle

>  <origin>  (47) 
autodockgpu

>  <m_score__min__energy>  (47) 
-9.0600000000000005

>  <m_primary>  (47) 
energy

>  <rmsd>  (47) 
8.660346513497966

>  <m_score__min__rmsd>  (47) 
8.660346513497966

>  <meeko>  (47) 
{"free_energy": -7.43, "intermolecular_energy": -9.82, "internal_energy": -3.61, "cluster_size": 10, "cluster_id": 2, "rank_in_cluster": 10}

>  <energy>  (47) 
-7.52

>  <cluster_rmsd>  (47) 
1.95

>  <cluster>  (47) 
2

$$$$

     RDKit          3D

 60 62  0  0  0  0  0  0  0  0999 V2000
  144.6460   74.2450  220.5480 C   0  0  0  0  0  0  0  0  0  0  0  0
  144.0200   74.3340  219.1850 C   0  0  0  0  0  0  0  0  0  0  0  0
  143.0730   73.1320  219.0700 C   0  0  0  0  0  0  0  0  0  0  0  0
  143.2050   75.5480  218.9430 C   0  0  0  0  0  0  0  0  0  0  0  0
  142.2940   75.9690  220.0660 C   0  0  2  0  0  0  0  0  0  0  0  0
  141.0770   75.1540  220.0890 N   0  0  0  0  0  0  0  0  0  0  0  0
  140.2680   75.0180  221.2410 C   0  0  0  0  0  0  0  0  0  0  0  0
  140.6320   75.6420  222.2830 O   0  0  0  0  0  0  0  0  0  0  0  0
  139.0360   74.2060  221.3150 C   0  0  0  0  0  0  0  0  0  0  0  0
  138.9890   73.2400  222.3620 N   0  0  0  0  0  0  0  0  0  0  0  0
  140.1120   72.4240  222.7100 C   0  0  0  0  0  0  0  0  0  0  0  0
  141.2280   72.5280  222.0960 O   0  0  0  0  0  0  0  0  0  0  0  0
  139.9860   71.4370  223.8040 C   0  0  0  0  0  0  0  0  0  0  0  0
  139.3000   70.2630  223.5770 C   0  0  0  0  0  0  0  0  0  0  0  0
  139.1940   69.3560  224.6120 C   0  0  0  0  0  0  0  0  0  0  0  0
  139.7460   69.5830  225.8550 C   0  0  0  0  0  0  0  0  0  0  0  0
  139.6460   68.6800  226.8990 C   0  0  0  0  0  0  0  0  0  0  0  0
  140.2080   68.9270  228.1410 C   0  0  0  0  0  0  0  0  0  0  0  0
  140.8910   70.1370  228.3100 C   0  0  0  0  0  0  0  0  0  0  0  0
  140.9830   71.0270  227.2590 C   0  0  0  0  0  0  0  0  0  0  0  0
  140.4210   70.7770  226.0230 C   0  0  0  0  0  0  0  0  0  0  0  0
  140.5190   71.6550  225.0070 N   0  0  0  0  0  0  0  0  0  0  0  0
  142.0370   77.4120  220.1360 C   0  0  0  0  0  0  0  0  0  0  0  0
  141.9940   78.1860  219.1440 O   0  0  0  0  0  0  0  0  0  0  0  0
  141.8170   77.9940  221.4130 N   0  0  0  0  0  0  0  0  0  0  0  0
  141.5580   79.4090  221.5590 C   0  0  0  0  0  0  0  0  0  0  0  0
  140.2700   79.5060  222.3790 C   0  0  0  0  0  0  0  0  0  0  0  0
  140.6940   79.4570  223.8150 C   0  0  0  0  0  0  0  0  0  0  0  0
  142.0930   80.0300  223.8330 C   0  0  0  0  0  0  0  0  0  0  0  0
  142.5560   80.1320  222.4030 C   0  0  0  0  0  0  0  0  0  0  0  0
  143.8673   74.3557  221.3170 H   0  0  0  0  0  0  0  0  0  0  0  0
  145.1381   73.2679  220.6624 H   0  0  0  0  0  0  0  0  0  0  0  0
  145.3909   75.0463  220.6624 H   0  0  0  0  0  0  0  0  0  0  0  0
  144.8409   74.3596  218.4532 H   0  0  0  0  0  0  0  0  0  0  0  0
  142.7986   72.7838  220.0767 H   0  0  0  0  0  0  0  0  0  0  0  0
  142.1653   73.4311  218.5254 H   0  0  0  0  0  0  0  0  0  0  0  0
  143.5763   72.3195  218.5254 H   0  0  0  0  0  0  0  0  0  0  0  0
  143.8944   76.3806  218.7394 H   0  0  0  0  0  0  0  0  0  0  0  0
  142.5413   75.2957  218.1028 H   0  0  0  0  0  0  0  0  0  0  0  0
  142.8420   75.7675  220.9982 H   0  0  0  0  0  0  0  0  0  0  0  0
  140.8290   74.6800  219.1970 H   0  0  0  0  0  0  0  0  0  0  0  0
  138.1875   74.8926  221.4516 H   0  0  0  0  0  0  0  0  0  0  0  0
  139.0017   73.6311  220.3778 H   0  0  0  0  0  0  0  0  0  0  0  0
  138.1160   73.0680  222.9470 H   0  0  0  0  0  0  0  0  0  0  0  0
  138.8485   70.0543  222.5959 H   0  0  0  0  0  0  0  0  0  0  0  0
  138.6486   68.4166  224.4387 H   0  0  0  0  0  0  0  0  0  0  0  0
  139.1034   67.7368  226.7377 H   0  0  0  0  0  0  0  0  0  0  0  0
  140.1208   68.2005  228.9623 H   0  0  0  0  0  0  0  0  0  0  0  0
  141.3535   70.3782  229.2785 H   0  0  0  0  0  0  0  0  0  0  0  0
  141.5250   71.9719  227.4121 H   0  0  0  0  0  0  0  0  0  0  0  0
  141.8320   77.4340  222.3060 H   0  0  0  0  0  0  0  0  0  0  0  0
  141.5525   79.8445  220.5489 H   0  0  0  0  0  0  0  0  0  0  0  0
  139.7505   80.4517  222.1653 H   0  0  0  0  0  0  0  0  0  0  0  0
  139.5732   78.6905  222.1352 H   0  0  0  0  0  0  0  0  0  0  0  0
  140.0201   80.0640  224.4374 H   0  0  0  0  0  0  0  0  0  0  0  0
  140.6625   78.4344  224.2191 H   0  0  0  0  0  0  0  0  0  0  0  0
  142.0851   81.0270  224.2977 H   0  0  0  0  0  0  0  0  0  0  0  0
  142.7690   79.3866  224.4153 H   0  0  0  0  0  0  0  0  0  0  0  0
  142.6106   81.1879  222.0997 H   0  0  0  0  0  0  0  0  0  0  0  0
  143.5568   79.6908  222.2858 H   0  0  0  0  0  0  0  0  0  0  0  0
  1  2  1  0
  2  3  1  0
  2  4  1  0
  4  5  1  0
  5  6  1  0
  6  7  1  0
  7  8  2  0
  7  9  1  0
  9 10  1  0
 10 11  1  0
 11 12  2  0
 11 13  1  0
 13 14  2  0
 14 15  1  0
 15 16  2  0
 16 17  1  0
 17 18  2  0
 18 19  1  0
 19 20  2  0
 20 21  1  0
 21 22  2  0
  5 23  1  0
 23 24  2  0
 23 25  1  0
 25 26  1  0
 26 27  1  0
 27 28  1  0
 28 29  1  0
 29 30  1  0
 22 13  1  0
 30 26  1  0
 21 16  1  0
  1 31  1  0
  1 32  1  0
  1 33  1  0
  2 34  1  0
  3 35  1  0
  3 36  1  0
  3 37  1  0
  4 38  1  0
  4 39  1  0
  5 40  1  1
  6 41  1  0
  9 42  1  0
  9 43  1  0
 10 44  1  0
 14 45  1  0
 15 46  1  0
 17 47  1  0
 18 48  1  0
 19 49  1  0
 20 50  1  0
 25 51  1  0
 26 52  1  0
 27 53  1  0
 27 54  1  0
 28 55  1  0
 28 56  1  0
 29 57  1  0
 29 58  1  0
 30 59  1  0
 30 60  1  0
M  END
>  <smiles>  (48) 
CC(C)C[C@H](NC(=O)CNC(=O)c1ccc2ccccc2n1)C(=O)NC1CCCC1

>  <score_type>  (48) 
oracle

>  <origin>  (48) 
autodockgpu

>  <m_score__min__energy>  (48) 
-9.0600000000000005

>  <m_primary>  (48) 
energy

>  <rmsd>  (48) 
2.7281745583146044

>  <m_score__min__rmsd>  (48) 
2.7281745583146044

>  <meeko>  (48) 
{"free_energy": -9.02, "intermolecular_energy": -11.4, "internal_energy": -2.44, "cluster_size": 39, "cluster_id": 1, "rank_in_cluster": 2}

>  <energy>  (48) 
-7.5

>  <cluster_rmsd>  (48) 
1.82

>  <cluster>  (48) 
2

$$$$

     RDKit          3D

 60 62  0  0  0  0  0  0  0  0999 V2000
  143.3020   76.4830  217.7160 C   0  0  0  0  0  0  0  0  0  0  0  0
  142.7870   77.3620  218.8200 C   0  0  0  0  0  0  0  0  0  0  0  0
  142.6050   78.7580  218.2060 C   0  0  0  0  0  0  0  0  0  0  0  0
  141.4730   76.9670  219.3810 C   0  0  0  0  0  0  0  0  0  0  0  0
  141.5060   76.2730  220.7180 C   0  0  2  0  0  0  0  0  0  0  0  0
  140.9510   74.9220  220.6210 N   0  0  0  0  0  0  0  0  0  0  0  0
  141.7100   73.8110  220.1830 C   0  0  0  0  0  0  0  0  0  0  0  0
  142.9210   74.0220  219.8710 O   0  0  0  0  0  0  0  0  0  0  0  0
  141.1940   72.4310  220.0640 C   0  0  0  0  0  0  0  0  0  0  0  0
  141.0420   71.7170  221.2880 N   0  0  0  0  0  0  0  0  0  0  0  0
  140.3300   72.2510  222.4090 C   0  0  0  0  0  0  0  0  0  0  0  0
  139.7850   73.4060  222.3650 O   0  0  0  0  0  0  0  0  0  0  0  0
  140.2200   71.4540  223.6500 C   0  0  0  0  0  0  0  0  0  0  0  0
  139.5910   70.2280  223.6100 C   0  0  0  0  0  0  0  0  0  0  0  0
  139.5000   69.5010  224.7800 C   0  0  0  0  0  0  0  0  0  0  0  0
  140.0110   69.9550  225.9770 C   0  0  0  0  0  0  0  0  0  0  0  0
  139.9240   69.2330  227.1540 C   0  0  0  0  0  0  0  0  0  0  0  0
  140.4450   69.7080  228.3470 C   0  0  0  0  0  0  0  0  0  0  0  0
  141.0710   70.9600  228.3240 C   0  0  0  0  0  0  0  0  0  0  0  0
  141.1500   71.6670  227.1420 C   0  0  0  0  0  0  0  0  0  0  0  0
  140.6300   71.1900  225.9550 C   0  0  0  0  0  0  0  0  0  0  0  0
  140.7140   71.8910  224.8090 N   0  0  0  0  0  0  0  0  0  0  0  0
  140.9540   77.0580  221.8280 C   0  0  0  0  0  0  0  0  0  0  0  0
  140.1060   76.6370  222.6580 O   0  0  0  0  0  0  0  0  0  0  0  0
  141.4010   78.3970  221.9910 N   0  0  0  0  0  0  0  0  0  0  0  0
  140.9010   79.2300  223.0620 C   0  0  0  0  0  0  0  0  0  0  0  0
  142.0700   79.3890  224.0360 C   0  0  0  0  0  0  0  0  0  0  0  0
  142.8700   80.5500  223.5320 C   0  0  0  0  0  0  0  0  0  0  0  0
  141.8750   81.4280  222.8050 C   0  0  0  0  0  0  0  0  0  0  0  0
  140.6020   80.6360  222.6560 C   0  0  0  0  0  0  0  0  0  0  0  0
  143.8130   75.6108  218.1499 H   0  0  0  0  0  0  0  0  0  0  0  0
  142.4601   76.1432  217.0949 H   0  0  0  0  0  0  0  0  0  0  0  0
  144.0100   77.0513  217.0949 H   0  0  0  0  0  0  0  0  0  0  0  0
  143.5104   77.2994  219.6463 H   0  0  0  0  0  0  0  0  0  0  0  0
  142.5079   79.5024  219.0100 H   0  0  0  0  0  0  0  0  0  0  0  0
  143.4790   79.0018  217.5841 H   0  0  0  0  0  0  0  0  0  0  0  0
  141.6977   78.7696  217.5841 H   0  0  0  0  0  0  0  0  0  0  0  0
  140.8662   77.8780  219.4898 H   0  0  0  0  0  0  0  0  0  0  0  0
  141.0591   76.2313  218.6757 H   0  0  0  0  0  0  0  0  0  0  0  0
  142.5679   76.1738  220.9873 H   0  0  0  0  0  0  0  0  0  0  0  0
  139.9560   74.8160  220.9050 H   0  0  0  0  0  0  0  0  0  0  0  0
  140.2086   72.4801  219.5775 H   0  0  0  0  0  0  0  0  0  0  0  0
  141.9508   71.8782  219.4881 H   0  0  0  0  0  0  0  0  0  0  0  0
  141.4480   70.7450  221.4410 H   0  0  0  0  0  0  0  0  0  0  0  0
  139.1724   69.8390  222.6701 H   0  0  0  0  0  0  0  0  0  0  0  0
  139.0003   68.5213  224.7561 H   0  0  0  0  0  0  0  0  0  0  0  0
  139.4262   68.2522  227.1425 H   0  0  0  0  0  0  0  0  0  0  0  0
  140.3696   69.1239  229.2761 H   0  0  0  0  0  0  0  0  0  0  0  0
  141.4990   71.3792  229.2466 H   0  0  0  0  0  0  0  0  0  0  0  0
  141.6464   72.6486  227.1452 H   0  0  0  0  0  0  0  0  0  0  0  0
  142.1080   78.8450  221.3500 H   0  0  0  0  0  0  0  0  0  0  0  0
  139.9833   78.7567  223.4411 H   0  0  0  0  0  0  0  0  0  0  0  0
  141.6974   79.5929  225.0507 H   0  0  0  0  0  0  0  0  0  0  0  0
  142.6774   78.4735  224.0903 H   0  0  0  0  0  0  0  0  0  0  0  0
  143.3275   81.0966  224.3698 H   0  0  0  0  0  0  0  0  0  0  0  0
  143.6933   80.2298  222.8765 H   0  0  0  0  0  0  0  0  0  0  0  0
  141.6838   82.3416  223.3870 H   0  0  0  0  0  0  0  0  0  0  0  0
  142.2654   81.7257  221.8206 H   0  0  0  0  0  0  0  0  0  0  0  0
  139.8195   81.0564  223.3048 H   0  0  0  0  0  0  0  0  0  0  0  0
  140.2412   80.6722  221.6175 H   0  0  0  0  0  0  0  0  0  0  0  0
  1  2  1  0
  2  3  1  0
  2  4  1  0
  4  5  1  0
  5  6  1  0
  6  7  1  0
  7  8  2  0
  7  9  1  0
  9 10  1  0
 10 11  1  0
 11 12  2  0
 11 13  1  0
 13 14  2  0
 14 15  1  0
 15 16  2  0
 16 17  1  0
 17 18  2  0
 18 19  1  0
 19 20  2  0
 20 21  1  0
 21 22  2  0
  5 23  1  0
 23 24  2  0
 23 25  1  0
 25 26  1  0
 26 27  1  0
 27 28  1  0
 28 29  1  0
 29 30  1  0
 22 13  1  0
 30 26  1  0
 21 16  1  0
  1 31  1  0
  1 32  1  0
  1 33  1  0
  2 34  1  0
  3 35  1  0
  3 36  1  0
  3 37  1  0
  4 38  1  0
  4 39  1  0
  5 40  1  1
  6 41  1  0
  9 42  1  0
  9 43  1  0
 10 44  1  0
 14 45  1  0
 15 46  1  0
 17 47  1  0
 18 48  1  0
 19 49  1  0
 20 50  1  0
 25 51  1  0
 26 52  1  0
 27 53  1  0
 27 54  1  0
 28 55  1  0
 28 56  1  0
 29 57  1  0
 29 58  1  0
 30 59  1  0
 30 60  1  0
M  END
>  <smiles>  (49) 
CC(C)C[C@H](NC(=O)CNC(=O)c1ccc2ccccc2n1)C(=O)NC1CCCC1

>  <score_type>  (49) 
oracle

>  <origin>  (49) 
autodockgpu

>  <m_score__min__energy>  (49) 
-9.0600000000000005

>  <m_primary>  (49) 
energy

>  <rmsd>  (49) 
2.6119146377525064

>  <m_score__min__rmsd>  (49) 
2.6119146377525064

>  <meeko>  (49) 
{"free_energy": -8.58, "intermolecular_energy": -10.97, "internal_energy": -2.54, "cluster_size": 39, "cluster_id": 1, "rank_in_cluster": 21}

>  <energy>  (49) 
-7.43

>  <cluster_rmsd>  (49) 
1.97

>  <cluster>  (49) 
2

$$$$

     RDKit          3D

 60 62  0  0  0  0  0  0  0  0999 V2000
  141.1320   70.1670  226.7860 C   0  0  0  0  0  0  0  0  0  0  0  0
  140.5560   70.1910  225.3990 C   0  0  0  0  0  0  0  0  0  0  0  0
  139.4300   69.1470  225.3840 C   0  0  0  0  0  0  0  0  0  0  0  0
  139.9510   71.4800  224.9880 C   0  0  0  0  0  0  0  0  0  0  0  0
  139.3460   71.5180  223.6090 C   0  0  2  0  0  0  0  0  0  0  0  0
  139.9390   72.5880  222.8050 N   0  0  0  0  0  0  0  0  0  0  0  0
  140.8830   72.3430  221.7800 C   0  0  0  0  0  0  0  0  0  0  0  0
  141.2080   71.1360  221.5660 O   0  0  0  0  0  0  0  0  0  0  0  0
  141.5130   73.3880  220.9460 C   0  0  0  0  0  0  0  0  0  0  0  0
  141.4390   74.7180  221.4530 N   0  0  0  0  0  0  0  0  0  0  0  0
  140.1950   75.3610  221.7540 C   0  0  0  0  0  0  0  0  0  0  0  0
  139.0780   74.7640  221.5850 O   0  0  0  0  0  0  0  0  0  0  0  0
  140.1970   76.7460  222.2700 C   0  0  0  0  0  0  0  0  0  0  0  0
  139.0000   77.3390  222.6150 C   0  0  0  0  0  0  0  0  0  0  0  0
  139.0250   78.6320  223.0950 C   0  0  0  0  0  0  0  0  0  0  0  0
  140.1960   79.3470  223.2390 C   0  0  0  0  0  0  0  0  0  0  0  0
  140.2310   80.6440  223.7200 C   0  0  0  0  0  0  0  0  0  0  0  0
  141.4180   81.3450  223.8580 C   0  0  0  0  0  0  0  0  0  0  0  0
  142.5990   80.6900  223.4910 C   0  0  0  0  0  0  0  0  0  0  0  0
  142.5480   79.3960  223.0140 C   0  0  0  0  0  0  0  0  0  0  0  0
  141.3630   78.7020  222.8780 C   0  0  0  0  0  0  0  0  0  0  0  0
  141.3270   77.4390  222.4110 N   0  0  0  0  0  0  0  0  0  0  0  0
  137.8790   71.5080  223.5850 C   0  0  0  0  0  0  0  0  0  0  0  0
  137.1570   70.5570  223.9850 O   0  0  0  0  0  0  0  0  0  0  0  0
  137.2080   72.6510  223.0740 N   0  0  0  0  0  0  0  0  0  0  0  0
  135.7640   72.7130  223.0200 C   0  0  0  0  0  0  0  0  0  0  0  0
  135.3150   73.0350  224.4470 C   0  0  0  0  0  0  0  0  0  0  0  0
  135.3540   74.5280  224.5610 C   0  0  0  0  0  0  0  0  0  0  0  0
  135.1170   75.0380  223.1570 C   0  0  0  0  0  0  0  0  0  0  0  0
  135.2290   73.8590  222.2260 C   0  0  0  0  0  0  0  0  0  0  0  0
  140.3158   70.2010  227.5226 H   0  0  0  0  0  0  0  0  0  0  0  0
  141.7136   69.2438  226.9256 H   0  0  0  0  0  0  0  0  0  0  0  0
  141.7884   71.0386  226.9256 H   0  0  0  0  0  0  0  0  0  0  0  0
  141.3858   70.0006  224.7024 H   0  0  0  0  0  0  0  0  0  0  0  0
  139.1537   68.8908  226.4175 H   0  0  0  0  0  0  0  0  0  0  0  0
  138.5542   69.5598  224.8619 H   0  0  0  0  0  0  0  0  0  0  0  0
  139.7755   68.2425  224.8619 H   0  0  0  0  0  0  0  0  0  0  0  0
  139.1578   71.7244  225.7099 H   0  0  0  0  0  0  0  0  0  0  0  0
  140.7803   72.2024  224.9670 H   0  0  0  0  0  0  0  0  0  0  0  0
  139.6099   70.5631  223.1309 H   0  0  0  0  0  0  0  0  0  0  0  0
  139.6200   73.5530  223.0230 H   0  0  0  0  0  0  0  0  0  0  0  0
  142.5761   73.1305  220.8292 H   0  0  0  0  0  0  0  0  0  0  0  0
  140.9471   73.3972  220.0028 H   0  0  0  0  0  0  0  0  0  0  0  0
  142.3020   75.3110  221.6390 H   0  0  0  0  0  0  0  0  0  0  0  0
  138.0499   76.7946  222.5100 H   0  0  0  0  0  0  0  0  0  0  0  0
  138.0749   79.1113  223.3736 H   0  0  0  0  0  0  0  0  0  0  0  0
  139.2871   81.1336  224.0015 H   0  0  0  0  0  0  0  0  0  0  0  0
  141.4316   82.3761  224.2410 H   0  0  0  0  0  0  0  0  0  0  0  0
  143.5663   81.2057  223.5826 H   0  0  0  0  0  0  0  0  0  0  0  0
  143.4877   78.8989  222.7315 H   0  0  0  0  0  0  0  0  0  0  0  0
  137.7190   73.5000  222.7140 H   0  0  0  0  0  0  0  0  0  0  0  0
  135.4139   71.7688  222.5775 H   0  0  0  0  0  0  0  0  0  0  0  0
  134.2939   72.6644  224.6199 H   0  0  0  0  0  0  0  0  0  0  0  0
  135.9650   72.5552  225.1935 H   0  0  0  0  0  0  0  0  0  0  0  0
  134.5646   74.8840  225.2393 H   0  0  0  0  0  0  0  0  0  0  0  0
  136.3097   74.8846  224.9726 H   0  0  0  0  0  0  0  0  0  0  0  0
  134.1135   75.4822  223.0825 H   0  0  0  0  0  0  0  0  0  0  0  0
  135.8534   75.8119  222.8948 H   0  0  0  0  0  0  0  0  0  0  0  0
  134.2388   73.6053  221.8197 H   0  0  0  0  0  0  0  0  0  0  0  0
  135.8953   74.0919  221.3823 H   0  0  0  0  0  0  0  0  0  0  0  0
  1  2  1  0
  2  3  1  0
  2  4  1  0
  4  5  1  0
  5  6  1  0
  6  7  1  0
  7  8  2  0
  7  9  1  0
  9 10  1  0
 10 11  1  0
 11 12  2  0
 11 13  1  0
 13 14  2  0
 14 15  1  0
 15 16  2  0
 16 17  1  0
 17 18  2  0
 18 19  1  0
 19 20  2  0
 20 21  1  0
 21 22  2  0
  5 23  1  0
 23 24  2  0
 23 25  1  0
 25 26  1  0
 26 27  1  0
 27 28  1  0
 28 29  1  0
 29 30  1  0
 22 13  1  0
 30 26  1  0
 21 16  1  0
  1 31  1  0
  1 32  1  0
  1 33  1  0
  2 34  1  0
  3 35  1  0
  3 36  1  0
  3 37  1  0
  4 38  1  0
  4 39  1  0
  5 40  1  6
  6 41  1  0
  9 42  1  0
  9 43  1  0
 10 44  1  0
 14 45  1  0
 15 46  1  0
 17 47  1  0
 18 48  1  0
 19 49  1  0
 20 50  1  0
 25 51  1  0
 26 52  1  0
 27 53  1  0
 27 54  1  0
 28 55  1  0
 28 56  1  0
 29 57  1  0
 29 58  1  0
 30 59  1  0
 30 60  1  0
M  END
>  <smiles>  (50) 
CC(C)C[C@H](NC(=O)CNC(=O)c1ccc2ccccc2n1)C(=O)NC1CCCC1

>  <score_type>  (50) 
oracle

>  <origin>  (50) 
autodockgpu

>  <m_score__min__energy>  (50) 
-9.0600000000000005

>  <m_primary>  (50) 
energy

>  <rmsd>  (50) 
8.72733219946397

>  <m_score__min__rmsd>  (50) 
8.72733219946397

>  <meeko>  (50) 
{"free_energy": -7.52, "intermolecular_energy": -9.91, "internal_energy": -3.56, "cluster_size": 10, "cluster_id": 2, "rank_in_cluster": 7}

>  <energy>  (50) 
-7.29

>  <cluster_rmsd>  (50) 
0.0

>  <cluster>  (50) 
3

$$$$
