
     RDKit          3D

 53 55  0  0  0  0  0  0  0  0999 V2000
  141.5720   78.6470  223.5450 C   0  0  0  0  0  0  0  0  0  0  0  0
  141.0640   77.9610  222.2940 C   0  0  0  0  0  0  0  0  0  0  0  0
  140.3440   78.9580  221.4550 C   0  0  0  0  0  0  0  0  0  0  0  0
  140.3370   76.6960  222.5870 C   0  0  0  0  0  0  0  0  0  0  0  0
  140.1540   75.7640  221.4450 C   0  0  2  0  0  0  0  0  0  0  0  0
  139.2340   74.6920  221.8690 N   0  0  0  0  0  0  0  0  0  0  0  0
  138.3380   74.1220  220.9180 C   0  0  0  0  0  0  0  0  0  0  0  0
  138.3690   74.5630  219.7400 O   0  0  0  0  0  0  0  0  0  0  0  0
  137.4320   73.0510  221.3800 C   0  0  0  0  0  0  0  0  0  0  0  0
  137.8960   72.5390  222.6360 N   0  0  0  0  0  0  0  0  0  0  0  0
  139.0380   71.6870  222.6300 C   0  0  0  0  0  0  0  0  0  0  0  0
  139.5990   71.4140  221.5290 O   0  0  0  0  0  0  0  0  0  0  0  0
  139.5510   71.1380  223.8820 C   0  0  0  0  0  0  0  0  0  0  0  0
  140.4690   71.8680  224.6100 C   0  0  0  0  0  0  0  0  0  0  0  0
  141.0080   71.4320  225.8020 C   0  0  0  0  0  0  0  0  0  0  0  0
  140.5890   70.2000  226.2640 C   0  0  0  0  0  0  0  0  0  0  0  0
  141.1070   69.7310  227.4530 C   0  0  0  0  0  0  0  0  0  0  0  0
  140.7220   68.5060  227.9620 C   0  0  0  0  0  0  0  0  0  0  0  0
  141.2290   68.0520  229.1200 F   0  0  0  0  0  0  0  0  0  0  0  0
  139.7920   67.7710  227.2200 C   0  0  0  0  0  0  0  0  0  0  0  0
  139.2740   68.2390  226.0300 C   0  0  0  0  0  0  0  0  0  0  0  0
  139.6700   69.4650  225.5400 C   0  0  0  0  0  0  0  0  0  0  0  0
  139.1610   69.9340  224.3640 N   0  0  0  0  0  0  0  0  0  0  0  0
  141.3720   75.0630  220.9930 C   0  0  0  0  0  0  0  0  0  0  0  0
  142.3860   75.6690  220.2830 C   0  0  0  0  0  0  0  0  0  0  0  0
  143.5190   75.0080  219.8580 C   0  0  0  0  0  0  0  0  0  0  0  0
  143.6860   73.6690  220.1390 C   0  0  0  0  0  0  0  0  0  0  0  0
  142.6920   73.0290  220.8490 C   0  0  0  0  0  0  0  0  0  0  0  0
  141.5590   73.7030  221.2690 C   0  0  0  0  0  0  0  0  0  0  0  0
  141.1852   78.1246  224.4324 H   0  0  0  0  0  0  0  0  0  0  0  0
  142.6717   78.6228  223.5556 H   0  0  0  0  0  0  0  0  0  0  0  0
  141.2281   79.6918  223.5556 H   0  0  0  0  0  0  0  0  0  0  0  0
  141.9067   77.6002  221.6860 H   0  0  0  0  0  0  0  0  0  0  0  0
  139.8245   79.6774  222.1051 H   0  0  0  0  0  0  0  0  0  0  0  0
  141.0659   79.4925  220.8200 H   0  0  0  0  0  0  0  0  0  0  0  0
  139.6096   78.4408  220.8200 H   0  0  0  0  0  0  0  0  0  0  0  0
  140.8955   76.1618  223.3697 H   0  0  0  0  0  0  0  0  0  0  0  0
  139.3225   77.0017  222.8823 H   0  0  0  0  0  0  0  0  0  0  0  0
  139.7966   76.3964  220.6189 H   0  0  0  0  0  0  0  0  0  0  0  0
  139.2560   74.3720  222.8560 H   0  0  0  0  0  0  0  0  0  0  0  0
  136.4171   73.4572  221.5024 H   0  0  0  0  0  0  0  0  0  0  0  0
  137.4161   72.2396  220.6375 H   0  0  0  0  0  0  0  0  0  0  0  0
  137.4100   72.7800  223.5480 H   0  0  0  0  0  0  0  0  0  0  0  0
  140.7864   72.8463  224.2198 H   0  0  0  0  0  0  0  0  0  0  0  0
  141.7380   72.0376  226.3591 H   0  0  0  0  0  0  0  0  0  0  0  0
  141.8375   70.3415  228.0041 H   0  0  0  0  0  0  0  0  0  0  0  0
  139.4638   66.7908  227.5962 H   0  0  0  0  0  0  0  0  0  0  0  0
  138.5446   67.6335  225.4720 H   0  0  0  0  0  0  0  0  0  0  0  0
  142.2860   76.7377  220.0424 H   0  0  0  0  0  0  0  0  0  0  0  0
  144.2915   75.5506  219.2933 H   0  0  0  0  0  0  0  0  0  0  0  0
  144.5843   73.1277  219.8072 H   0  0  0  0  0  0  0  0  0  0  0  0
  142.8022   71.9606  221.0863 H   0  0  0  0  0  0  0  0  0  0  0  0
  140.7875   73.1580  221.8326 H   0  0  0  0  0  0  0  0  0  0  0  0
  1  2  1  0
  2  3  1  0
  2  4  1  0
  4  5  1  0
  5  6  1  0
  6  7  1  0
  7  8  2  0
  7  9  1  0
  9 10  1  0
 10 11  1  0
 11 12  2  0
 11 13  1  0
 13 14  2  0
 14 15  1  0
 15 16  2  0
 16 17  1  0
 17 18  2  0
 18 19  1  0
 18 20  1  0
 20 21  2  0
 21 22  1  0
 22 23  2  0
  5 24  1  0
 24 25  2  0
 25 26  1  0
 26 27  2  0
 27 28  1  0
 28 29  2  0
 23 13  1  0
 29 24  1  0
 22 16  1  0
  1 30  1  0
  1 31  1  0
  1 32  1  0
  2 33  1  0
  3 34  1  0
  3 35  1  0
  3 36  1  0
  4 37  1  0
  4 38  1  0
  5 39  1  6
  6 40  1  0
  9 41  1  0
  9 42  1  0
 10 43  1  0
 14 44  1  0
 15 45  1  0
 17 46  1  0
 20 47  1  0
 21 48  1  0
 25 49  1  0
 26 50  1  0
 27 51  1  0
 28 52  1  0
 29 53  1  0
M  END
>  <smiles>  (1) 
CC(C)C[C@H](NC(=O)CNC(=O)c1ccc2cc(F)ccc2n1)c1ccccc1

>  <score_type>  (1) 
oracle

>  <origin>  (1) 
autodockgpu

>  <m_score__min__energy>  (1) 
-9.1300000000000008

>  <m_primary>  (1) 
energy

>  <rmsd>  (1) 
3.80544192976131

>  <m_score__min__rmsd>  (1) 
3.80544192976131

>  <meeko>  (1) 
{"free_energy": -8.04, "intermolecular_energy": -10.12, "internal_energy": -1.94, "cluster_size": 12, "cluster_id": 4, "rank_in_cluster": 5}

>  <energy>  (1) 
-9.13

>  <cluster_rmsd>  (1) 
0.0

>  <cluster>  (1) 
1

$$$$

     RDKit          3D

 53 55  0  0  0  0  0  0  0  0999 V2000
  142.4190   78.0450  216.8380 C   0  0  0  0  0  0  0  0  0  0  0  0
  142.8130   77.8390  218.2860 C   0  0  0  0  0  0  0  0  0  0  0  0
  143.2640   76.4310  218.4670 C   0  0  0  0  0  0  0  0  0  0  0  0
  141.7800   78.3300  219.2380 C   0  0  0  0  0  0  0  0  0  0  0  0
  141.6640   77.5890  220.5200 C   0  0  2  0  0  0  0  0  0  0  0  0
  140.6930   76.4940  220.3320 N   0  0  0  0  0  0  0  0  0  0  0  0
  140.6170   75.4520  221.3010 C   0  0  0  0  0  0  0  0  0  0  0  0
  141.3930   75.5080  222.2900 O   0  0  0  0  0  0  0  0  0  0  0  0
  139.6330   74.3730  221.0790 C   0  0  0  0  0  0  0  0  0  0  0  0
  139.5120   73.5830  222.2700 N   0  0  0  0  0  0  0  0  0  0  0  0
  140.2520   72.3670  222.3430 C   0  0  0  0  0  0  0  0  0  0  0  0
  140.9840   72.0300  221.3670 O   0  0  0  0  0  0  0  0  0  0  0  0
  140.1640   71.5250  223.5320 C   0  0  0  0  0  0  0  0  0  0  0  0
  139.5640   70.2860  223.4350 C   0  0  0  0  0  0  0  0  0  0  0  0
  139.4360   69.4220  224.5030 C   0  0  0  0  0  0  0  0  0  0  0  0
  139.9430   69.8480  225.7160 C   0  0  0  0  0  0  0  0  0  0  0  0
  139.8320   69.0100  226.8060 C   0  0  0  0  0  0  0  0  0  0  0  0
  140.3220   69.3840  228.0410 C   0  0  0  0  0  0  0  0  0  0  0  0
  140.2120   68.5670  229.1020 F   0  0  0  0  0  0  0  0  0  0  0  0
  140.9290   70.6410  228.1340 C   0  0  0  0  0  0  0  0  0  0  0  0
  141.0400   71.4790  227.0440 C   0  0  0  0  0  0  0  0  0  0  0  0
  140.5450   71.0860  225.8180 C   0  0  0  0  0  0  0  0  0  0  0  0
  140.6520   71.9110  224.7350 N   0  0  0  0  0  0  0  0  0  0  0  0
  141.1450   78.3670  221.6620 C   0  0  0  0  0  0  0  0  0  0  0  0
  141.9470   79.0340  222.5630 C   0  0  0  0  0  0  0  0  0  0  0  0
  141.4570   79.7550  223.6310 C   0  0  0  0  0  0  0  0  0  0  0  0
  140.0970   79.8390  223.8440 C   0  0  0  0  0  0  0  0  0  0  0  0
  139.2640   79.1860  222.9610 C   0  0  0  0  0  0  0  0  0  0  0  0
  139.7670   78.4640  221.8940 C   0  0  0  0  0  0  0  0  0  0  0  0
  141.4451   78.5542  216.7919 H   0  0  0  0  0  0  0  0  0  0  0  0
  143.1791   78.6611  216.3353 H   0  0  0  0  0  0  0  0  0  0  0  0
  142.3468   77.0693  216.3353 H   0  0  0  0  0  0  0  0  0  0  0  0
  143.6744   78.4728  218.5434 H   0  0  0  0  0  0  0  0  0  0  0  0
  143.3366   76.2044  219.5410 H   0  0  0  0  0  0  0  0  0  0  0  0
  142.5389   75.7504  217.9968 H   0  0  0  0  0  0  0  0  0  0  0  0
  144.2496   76.2984  217.9968 H   0  0  0  0  0  0  0  0  0  0  0  0
  142.0144   79.3780  219.4762 H   0  0  0  0  0  0  0  0  0  0  0  0
  140.8167   78.1861  218.7268 H   0  0  0  0  0  0  0  0  0  0  0  0
  142.6911   77.2760  220.7591 H   0  0  0  0  0  0  0  0  0  0  0  0
  140.0800   76.5050  219.4940 H   0  0  0  0  0  0  0  0  0  0  0  0
  138.6561   74.8133  220.8303 H   0  0  0  0  0  0  0  0  0  0  0  0
  139.9700   73.7349  220.2487 H   0  0  0  0  0  0  0  0  0  0  0  0
  138.8930   73.8850  223.0760 H   0  0  0  0  0  0  0  0  0  0  0  0
  139.1683   69.9718  222.4579 H   0  0  0  0  0  0  0  0  0  0  0  0
  138.9529   68.4398  224.3941 H   0  0  0  0  0  0  0  0  0  0  0  0
  139.3462   68.0300  226.6894 H   0  0  0  0  0  0  0  0  0  0  0  0
  141.3292   70.9705  229.1042 H   0  0  0  0  0  0  0  0  0  0  0  0
  141.5235   72.4611  227.1525 H   0  0  0  0  0  0  0  0  0  0  0  0
  143.0370   78.9885  222.4223 H   0  0  0  0  0  0  0  0  0  0  0  0
  142.1521   80.2643  224.3146 H   0  0  0  0  0  0  0  0  0  0  0  0
  139.6898   80.4092  224.6919 H   0  0  0  0  0  0  0  0  0  0  0  0
  138.1753   79.2403  223.1082 H   0  0  0  0  0  0  0  0  0  0  0  0
  139.0696   77.9547  221.2126 H   0  0  0  0  0  0  0  0  0  0  0  0
  1  2  1  0
  2  3  1  0
  2  4  1  0
  4  5  1  0
  5  6  1  0
  6  7  1  0
  7  8  2  0
  7  9  1  0
  9 10  1  0
 10 11  1  0
 11 12  2  0
 11 13  1  0
 13 14  2  0
 14 15  1  0
 15 16  2  0
 16 17  1  0
 17 18  2  0
 18 19  1  0
 18 20  1  0
 20 21  2  0
 21 22  1  0
 22 23  2  0
  5 24  1  0
 24 25  2  0
 25 26  1  0
 26 27  2  0
 27 28  1  0
 28 29  2  0
 23 13  1  0
 29 24  1  0
 22 16  1  0
  1 30  1  0
  1 31  1  0
  1 32  1  0
  2 33  1  0
  3 34  1  0
  3 35  1  0
  3 36  1  0
  4 37  1  0
  4 38  1  0
  5 39  1  1
  6 40  1  0
  9 41  1  0
  9 42  1  0
 10 43  1  0
 14 44  1  0
 15 45  1  0
 17 46  1  0
 20 47  1  0
 21 48  1  0
 25 49  1  0
 26 50  1  0
 27 51  1  0
 28 52  1  0
 29 53  1  0
M  END
>  <smiles>  (2) 
CC(C)C[C@H](NC(=O)CNC(=O)c1ccc2cc(F)ccc2n1)c1ccccc1

>  <score_type>  (2) 
oracle

>  <origin>  (2) 
autodockgpu

>  <m_score__min__energy>  (2) 
-9.1300000000000008

>  <m_primary>  (2) 
energy

>  <rmsd>  (2) 
2.2488896586243046

>  <m_score__min__rmsd>  (2) 
2.2488896586243046

>  <meeko>  (2) 
{"free_energy": -8.33, "intermolecular_energy": -10.41, "internal_energy": -1.39, "cluster_size": 10, "cluster_id": 2, "rank_in_cluster": 10}

>  <energy>  (2) 
-9.12

>  <cluster_rmsd>  (2) 
0.2

>  <cluster>  (2) 
1

$$$$

     RDKit          3D

 53 55  0  0  0  0  0  0  0  0999 V2000
  134.4320   75.2640  224.1160 C   0  0  0  0  0  0  0  0  0  0  0  0
  135.6190   75.0280  223.2050 C   0  0  0  0  0  0  0  0  0  0  0  0
  135.9510   73.5770  223.2120 C   0  0  0  0  0  0  0  0  0  0  0  0
  136.7440   75.9660  223.4720 C   0  0  0  0  0  0  0  0  0  0  0  0
  137.6490   76.2470  222.3280 C   0  0  2  0  0  0  0  0  0  0  0  0
  138.3490   74.9960  221.9770 N   0  0  0  0  0  0  0  0  0  0  0  0
  138.1980   74.4530  220.6690 C   0  0  0  0  0  0  0  0  0  0  0  0
  137.4640   75.0710  219.8550 O   0  0  0  0  0  0  0  0  0  0  0  0
  138.9140   73.2000  220.3540 C   0  0  0  0  0  0  0  0  0  0  0  0
  138.8580   72.3190  221.4850 N   0  0  0  0  0  0  0  0  0  0  0  0
  139.8350   72.4820  222.5090 C   0  0  0  0  0  0  0  0  0  0  0  0
  140.7100   73.3880  222.3890 O   0  0  0  0  0  0  0  0  0  0  0  0
  139.8230   71.6110  223.6810 C   0  0  0  0  0  0  0  0  0  0  0  0
  139.0820   70.4470  223.6440 C   0  0  0  0  0  0  0  0  0  0  0  0
  139.0100   69.5630  224.7010 C   0  0  0  0  0  0  0  0  0  0  0  0
  139.7250   69.8880  225.8370 C   0  0  0  0  0  0  0  0  0  0  0  0
  139.6770   69.0280  226.9150 C   0  0  0  0  0  0  0  0  0  0  0  0
  140.3740   69.3020  228.0740 C   0  0  0  0  0  0  0  0  0  0  0  0
  140.3240   68.4630  229.1220 F   0  0  0  0  0  0  0  0  0  0  0  0
  141.1220   70.4830  228.1050 C   0  0  0  0  0  0  0  0  0  0  0  0
  141.1710   71.3440  227.0280 C   0  0  0  0  0  0  0  0  0  0  0  0
  140.4680   71.0510  225.8780 C   0  0  0  0  0  0  0  0  0  0  0  0
  140.5130   71.8990  224.8090 N   0  0  0  0  0  0  0  0  0  0  0  0
  138.7240   77.2230  222.5910 C   0  0  0  0  0  0  0  0  0  0  0  0
  138.5010   78.5060  223.0450 C   0  0  0  0  0  0  0  0  0  0  0  0
  139.5090   79.4160  223.2840 C   0  0  0  0  0  0  0  0  0  0  0  0
  140.8250   79.0640  223.0710 C   0  0  0  0  0  0  0  0  0  0  0  0
  141.0860   77.7880  222.6170 C   0  0  0  0  0  0  0  0  0  0  0  0
  140.0670   76.8840  222.3800 C   0  0  0  0  0  0  0  0  0  0  0  0
  134.7564   75.1995  225.1651 H   0  0  0  0  0  0  0  0  0  0  0  0
  134.0140   76.2628  223.9222 H   0  0  0  0  0  0  0  0  0  0  0  0
  133.6637   74.5010  223.9222 H   0  0  0  0  0  0  0  0  0  0  0  0
  135.3609   75.2782  222.1654 H   0  0  0  0  0  0  0  0  0  0  0  0
  136.0317   73.2243  224.2508 H   0  0  0  0  0  0  0  0  0  0  0  0
  135.1578   73.0169  222.6952 H   0  0  0  0  0  0  0  0  0  0  0  0
  136.9088   73.4175  222.6952 H   0  0  0  0  0  0  0  0  0  0  0  0
  136.3124   76.9227  223.8014 H   0  0  0  0  0  0  0  0  0  0  0  0
  137.3699   75.4678  224.2271 H   0  0  0  0  0  0  0  0  0  0  0  0
  136.9954   76.6603  221.5457 H   0  0  0  0  0  0  0  0  0  0  0  0
  138.9410   74.5340  222.6940 H   0  0  0  0  0  0  0  0  0  0  0  0
  138.4403   72.7150  219.4878 H   0  0  0  0  0  0  0  0  0  0  0  0
  139.9641   73.4274  220.1185 H   0  0  0  0  0  0  0  0  0  0  0  0
  138.1150   71.5670  221.5650 H   0  0  0  0  0  0  0  0  0  0  0  0
  138.5215   70.2127  222.7270 H   0  0  0  0  0  0  0  0  0  0  0  0
  138.4110   68.6423  224.6416 H   0  0  0  0  0  0  0  0  0  0  0  0
  139.0741   68.1103  226.8495 H   0  0  0  0  0  0  0  0  0  0  0  0
  141.6879   70.7329  229.0146 H   0  0  0  0  0  0  0  0  0  0  0  0
  141.7708   72.2642  227.0865 H   0  0  0  0  0  0  0  0  0  0  0  0
  137.4626   78.8205  223.2263 H   0  0  0  0  0  0  0  0  0  0  0  0
  139.2626   80.4253  223.6455 H   0  0  0  0  0  0  0  0  0  0  0  0
  141.6407   79.7781  223.2572 H   0  0  0  0  0  0  0  0  0  0  0  0
  142.1278   77.4828  222.4396 H   0  0  0  0  0  0  0  0  0  0  0  0
  140.3164   75.8758  222.0176 H   0  0  0  0  0  0  0  0  0  0  0  0
  1  2  1  0
  2  3  1  0
  2  4  1  0
  4  5  1  0
  5  6  1  0
  6  7  1  0
  7  8  2  0
  7  9  1  0
  9 10  1  0
 10 11  1  0
 11 12  2  0
 11 13  1  0
 13 14  2  0
 14 15  1  0
 15 16  2  0
 16 17  1  0
 17 18  2  0
 18 19  1  0
 18 20  1  0
 20 21  2  0
 21 22  1  0
 22 23  2  0
  5 24  1  0
 24 25  2  0
 25 26  1  0
 26 27  2  0
 27 28  1  0
 28 29  2  0
 23 13  1  0
 29 24  1  0
 22 16  1  0
  1 30  1  0
  1 31  1  0
  1 32  1  0
  2 33  1  0
  3 34  1  0
  3 35  1  0
  3 36  1  0
  4 37  1  0
  4 38  1  0
  5 39  1  6
  6 40  1  0
  9 41  1  0
  9 42  1  0
 10 43  1  0
 14 44  1  0
 15 45  1  0
 17 46  1  0
 20 47  1  0
 21 48  1  0
 25 49  1  0
 26 50  1  0
 27 51  1  0
 28 52  1  0
 29 53  1  0
M  END
>  <smiles>  (3) 
CC(C)C[C@H](NC(=O)CNC(=O)c1ccc2cc(F)ccc2n1)c1ccccc1

>  <score_type>  (3) 
oracle

>  <origin>  (3) 
autodockgpu

>  <m_score__min__energy>  (3) 
-9.1300000000000008

>  <m_primary>  (3) 
energy

>  <rmsd>  (3) 
4.0092377468222

>  <m_score__min__rmsd>  (3) 
4.0092377468222

>  <meeko>  (3) 
{"free_energy": -7.6, "intermolecular_energy": -9.69, "internal_energy": -2.4, "cluster_size": 7, "cluster_id": 5, "rank_in_cluster": 3}

>  <energy>  (3) 
-9.09

>  <cluster_rmsd>  (3) 
0.24

>  <cluster>  (3) 
1

$$$$

     RDKit          3D

 53 55  0  0  0  0  0  0  0  0999 V2000
  135.7840   73.5990  223.5050 C   0  0  0  0  0  0  0  0  0  0  0  0
  135.5330   75.0620  223.2010 C   0  0  0  0  0  0  0  0  0  0  0  0
  134.9530   75.1770  221.8340 C   0  0  0  0  0  0  0  0  0  0  0  0
  136.7150   75.9200  223.4920 C   0  0  0  0  0  0  0  0  0  0  0  0
  137.6240   76.1940  222.3500 C   0  0  2  0  0  0  0  0  0  0  0  0
  138.3070   74.9360  221.9930 N   0  0  0  0  0  0  0  0  0  0  0  0
  138.1780   74.4200  220.6710 C   0  0  0  0  0  0  0  0  0  0  0  0
  137.4780   75.0680  219.8510 O   0  0  0  0  0  0  0  0  0  0  0  0
  138.8760   73.1590  220.3510 C   0  0  0  0  0  0  0  0  0  0  0  0
  138.8190   72.2790  221.4830 N   0  0  0  0  0  0  0  0  0  0  0  0
  139.8090   72.4290  222.4970 C   0  0  0  0  0  0  0  0  0  0  0  0
  140.6950   73.3230  222.3670 O   0  0  0  0  0  0  0  0  0  0  0  0
  139.7960   71.5590  223.6690 C   0  0  0  0  0  0  0  0  0  0  0  0
  139.0930   70.3720  223.6170 C   0  0  0  0  0  0  0  0  0  0  0  0
  139.0240   69.4870  224.6730 C   0  0  0  0  0  0  0  0  0  0  0  0
  139.7030   69.8340  225.8250 C   0  0  0  0  0  0  0  0  0  0  0  0
  139.6560   68.9740  226.9020 C   0  0  0  0  0  0  0  0  0  0  0  0
  140.3170   69.2700  228.0770 C   0  0  0  0  0  0  0  0  0  0  0  0
  140.2690   68.4300  229.1240 F   0  0  0  0  0  0  0  0  0  0  0  0
  141.0280   70.4730  228.1240 C   0  0  0  0  0  0  0  0  0  0  0  0
  141.0750   71.3350  227.0470 C   0  0  0  0  0  0  0  0  0  0  0  0
  140.4080   71.0200  225.8820 C   0  0  0  0  0  0  0  0  0  0  0  0
  140.4510   71.8680  224.8130 N   0  0  0  0  0  0  0  0  0  0  0  0
  138.7120   77.1540  222.6180 C   0  0  0  0  0  0  0  0  0  0  0  0
  140.0480   76.8730  222.4240 C   0  0  0  0  0  0  0  0  0  0  0  0
  141.0610   77.7730  222.6790 C   0  0  0  0  0  0  0  0  0  0  0  0
  140.7640   79.0330  223.1550 C   0  0  0  0  0  0  0  0  0  0  0  0
  139.4380   79.3500  223.3600 C   0  0  0  0  0  0  0  0  0  0  0  0
  138.4300   78.4380  223.1010 C   0  0  0  0  0  0  0  0  0  0  0  0
  135.8096   73.4500  224.5946 H   0  0  0  0  0  0  0  0  0  0  0  0
  134.9771   72.9906  223.0706 H   0  0  0  0  0  0  0  0  0  0  0  0
  136.7475   73.2943  223.0706 H   0  0  0  0  0  0  0  0  0  0  0  0
  134.7808   75.4741  223.8897 H   0  0  0  0  0  0  0  0  0  0  0  0
  133.8765   75.3904  221.9092 H   0  0  0  0  0  0  0  0  0  0  0  0
  135.4517   75.9937  221.2916 H   0  0  0  0  0  0  0  0  0  0  0  0
  135.1024   74.2318  221.2916 H   0  0  0  0  0  0  0  0  0  0  0  0
  136.3445   76.8861  223.8652 H   0  0  0  0  0  0  0  0  0  0  0  0
  137.3173   75.3545  224.2183 H   0  0  0  0  0  0  0  0  0  0  0  0
  136.9761   76.6198  221.5696 H   0  0  0  0  0  0  0  0  0  0  0  0
  138.8700   74.4480  222.7160 H   0  0  0  0  0  0  0  0  0  0  0  0
  138.3893   72.6793  219.4890 H   0  0  0  0  0  0  0  0  0  0  0  0
  139.9268   73.3739  220.1067 H   0  0  0  0  0  0  0  0  0  0  0  0
  138.0670   71.5370  221.5710 H   0  0  0  0  0  0  0  0  0  0  0  0
  138.5616   70.1194  222.6876 H   0  0  0  0  0  0  0  0  0  0  0  0
  138.4547   68.5485  224.6011 H   0  0  0  0  0  0  0  0  0  0  0  0
  139.0832   68.0382  226.8235 H   0  0  0  0  0  0  0  0  0  0  0  0
  141.5654   70.7402  229.0458 H   0  0  0  0  0  0  0  0  0  0  0  0
  141.6446   72.2733  227.1181 H   0  0  0  0  0  0  0  0  0  0  0  0
  140.3204   75.8768  222.0453 H   0  0  0  0  0  0  0  0  0  0  0  0
  142.1080   77.4856  222.5025 H   0  0  0  0  0  0  0  0  0  0  0  0
  141.5604   79.7623  223.3646 H   0  0  0  0  0  0  0  0  0  0  0  0
  139.1757   80.3493  223.7375 H   0  0  0  0  0  0  0  0  0  0  0  0
  137.3838   78.7280  223.2784 H   0  0  0  0  0  0  0  0  0  0  0  0
  1  2  1  0
  2  3  1  0
  2  4  1  0
  4  5  1  0
  5  6  1  0
  6  7  1  0
  7  8  2  0
  7  9  1  0
  9 10  1  0
 10 11  1  0
 11 12  2  0
 11 13  1  0
 13 14  2  0
 14 15  1  0
 15 16  2  0
 16 17  1  0
 17 18  2  0
 18 19  1  0
 18 20  1  0
 20 21  2  0
 21 22  1  0
 22 23  2  0
  5 24  1  0
 24 25  2  0
 25 26  1  0
 26 27  2  0
 27 28  1  0
 28 29  2  0
 23 13  1  0
 29 24  1  0
 22 16  1  0
  1 30  1  0
  1 31  1  0
  1 32  1  0
  2 33  1  0
  3 34  1  0
  3 35  1  0
  3 36  1  0
  4 37  1  0
  4 38  1  0
  5 39  1  6
  6 40  1  0
  9 41  1  0
  9 42  1  0
 10 43  1  0
 14 44  1  0
 15 45  1  0
 17 46  1  0
 20 47  1  0
 21 48  1  0
 25 49  1  0
 26 50  1  0
 27 51  1  0
 28 52  1  0
 29 53  1  0
M  END
>  <smiles>  (4) 
CC(C)C[C@H](NC(=O)CNC(=O)c1ccc2cc(F)ccc2n1)c1ccccc1

>  <score_type>  (4) 
oracle

>  <origin>  (4) 
autodockgpu

>  <m_score__min__energy>  (4) 
-9.1300000000000008

>  <m_primary>  (4) 
energy

>  <rmsd>  (4) 
3.930306920539683

>  <m_score__min__rmsd>  (4) 
3.930306920539683

>  <meeko>  (4) 
{"free_energy": -7.53, "intermolecular_energy": -9.62, "internal_energy": -2.48, "cluster_size": 7, "cluster_id": 5, "rank_in_cluster": 5}

>  <energy>  (4) 
-8.94

>  <cluster_rmsd>  (4) 
0.4

>  <cluster>  (4) 
1

$$$$

     RDKit          3D

 53 55  0  0  0  0  0  0  0  0999 V2000
  139.7690   79.9940  223.4500 C   0  0  0  0  0  0  0  0  0  0  0  0
  141.1700   79.5750  223.8450 C   0  0  0  0  0  0  0  0  0  0  0  0
  142.0990   80.7150  223.6110 C   0  0  0  0  0  0  0  0  0  0  0  0
  141.5670   78.2670  223.2540 C   0  0  0  0  0  0  0  0  0  0  0  0
  140.8840   77.8830  221.9930 C   0  0  2  0  0  0  0  0  0  0  0  0
  141.0630   76.4320  221.7950 N   0  0  0  0  0  0  0  0  0  0  0  0
  140.0380   75.6810  221.1510 C   0  0  0  0  0  0  0  0  0  0  0  0
  139.0070   76.2950  220.7720 O   0  0  0  0  0  0  0  0  0  0  0  0
  140.2540   74.2310  220.9720 C   0  0  0  0  0  0  0  0  0  0  0  0
  140.0330   73.5560  222.2170 N   0  0  0  0  0  0  0  0  0  0  0  0
  140.4390   72.1940  222.3200 C   0  0  0  0  0  0  0  0  0  0  0  0
  140.9740   71.6310  221.3220 O   0  0  0  0  0  0  0  0  0  0  0  0
  140.2360   71.4600  223.5660 C   0  0  0  0  0  0  0  0  0  0  0  0
  139.5350   70.2710  223.5400 C   0  0  0  0  0  0  0  0  0  0  0  0
  139.2940   69.5090  224.6650 C   0  0  0  0  0  0  0  0  0  0  0  0
  139.7920   69.9870  225.8610 C   0  0  0  0  0  0  0  0  0  0  0  0
  139.5710   69.2520  227.0070 C   0  0  0  0  0  0  0  0  0  0  0  0
  140.0470   69.6820  228.2290 C   0  0  0  0  0  0  0  0  0  0  0  0
  139.8300   68.9640  229.3440 F   0  0  0  0  0  0  0  0  0  0  0  0
  140.7570   70.8870  228.2500 C   0  0  0  0  0  0  0  0  0  0  0  0
  140.9790   71.6230  227.1050 C   0  0  0  0  0  0  0  0  0  0  0  0
  140.4950   71.1750  225.8930 C   0  0  0  0  0  0  0  0  0  0  0  0
  140.7110   71.8990  224.7560 N   0  0  0  0  0  0  0  0  0  0  0  0
  141.4170   78.5030  220.7640 C   0  0  0  0  0  0  0  0  0  0  0  0
  142.0460   77.7980  219.7600 C   0  0  0  0  0  0  0  0  0  0  0  0
  142.5460   78.3830  218.6170 C   0  0  0  0  0  0  0  0  0  0  0  0
  142.4320   79.7430  218.4270 C   0  0  0  0  0  0  0  0  0  0  0  0
  141.8070   80.4820  219.4100 C   0  0  0  0  0  0  0  0  0  0  0  0
  141.3090   79.8840  220.5540 C   0  0  0  0  0  0  0  0  0  0  0  0
  139.1708   80.1729  224.3556 H   0  0  0  0  0  0  0  0  0  0  0  0
  139.8168   80.9172  222.8538 H   0  0  0  0  0  0  0  0  0  0  0  0
  139.3021   79.1962  222.8538 H   0  0  0  0  0  0  0  0  0  0  0  0
  141.2156   79.3583  224.9225 H   0  0  0  0  0  0  0  0  0  0  0  0
  142.4307   81.1220  224.5776 H   0  0  0  0  0  0  0  0  0  0  0  0
  142.9725   80.3652  223.0413 H   0  0  0  0  0  0  0  0  0  0  0  0
  141.5800   81.4999  223.0413 H   0  0  0  0  0  0  0  0  0  0  0  0
  142.6477   78.3040  223.0524 H   0  0  0  0  0  0  0  0  0  0  0  0
  141.2698   77.5080  223.9926 H   0  0  0  0  0  0  0  0  0  0  0  0
  139.8447   78.2192  222.1225 H   0  0  0  0  0  0  0  0  0  0  0  0
  141.9380   75.9840  222.1320 H   0  0  0  0  0  0  0  0  0  0  0  0
  139.5522   73.8465  220.2172 H   0  0  0  0  0  0  0  0  0  0  0  0
  141.2869   74.0534  220.6378 H   0  0  0  0  0  0  0  0  0  0  0  0
  139.5820   74.0470  223.0420 H   0  0  0  0  0  0  0  0  0  0  0  0
  139.1492   69.9130  222.5741 H   0  0  0  0  0  0  0  0  0  0  0  0
  138.7316   68.5652  224.6115 H   0  0  0  0  0  0  0  0  0  0  0  0
  139.0072   68.3094  226.9461 H   0  0  0  0  0  0  0  0  0  0  0  0
  141.1498   71.2585  229.2079 H   0  0  0  0  0  0  0  0  0  0  0  0
  141.5417   72.5667  227.1579 H   0  0  0  0  0  0  0  0  0  0  0  0
  142.1546   76.7097  219.8777 H   0  0  0  0  0  0  0  0  0  0  0  0
  143.0378   77.7622  217.8536 H   0  0  0  0  0  0  0  0  0  0  0  0
  142.8269   80.2242  217.5201 H   0  0  0  0  0  0  0  0  0  0  0  0
  141.7024   81.5695  219.2816 H   0  0  0  0  0  0  0  0  0  0  0  0
  140.8172   80.5068  221.3157 H   0  0  0  0  0  0  0  0  0  0  0  0
  1  2  1  0
  2  3  1  0
  2  4  1  0
  4  5  1  0
  5  6  1  0
  6  7  1  0
  7  8  2  0
  7  9  1  0
  9 10  1  0
 10 11  1  0
 11 12  2  0
 11 13  1  0
 13 14  2  0
 14 15  1  0
 15 16  2  0
 16 17  1  0
 17 18  2  0
 18 19  1  0
 18 20  1  0
 20 21  2  0
 21 22  1  0
 22 23  2  0
  5 24  1  0
 24 25  2  0
 25 26  1  0
 26 27  2  0
 27 28  1  0
 28 29  2  0
 23 13  1  0
 29 24  1  0
 22 16  1  0
  1 30  1  0
  1 31  1  0
  1 32  1  0
  2 33  1  0
  3 34  1  0
  3 35  1  0
  3 36  1  0
  4 37  1  0
  4 38  1  0
  5 39  1  1
  6 40  1  0
  9 41  1  0
  9 42  1  0
 10 43  1  0
 14 44  1  0
 15 45  1  0
 17 46  1  0
 20 47  1  0
 21 48  1  0
 25 49  1  0
 26 50  1  0
 27 51  1  0
 28 52  1  0
 29 53  1  0
M  END
>  <smiles>  (5) 
CC(C)C[C@H](NC(=O)CNC(=O)c1ccc2cc(F)ccc2n1)c1ccccc1

>  <score_type>  (5) 
oracle

>  <origin>  (5) 
autodockgpu

>  <m_score__min__energy>  (5) 
-9.1300000000000008

>  <m_primary>  (5) 
energy

>  <rmsd>  (5) 
3.8394191861784113

>  <m_score__min__rmsd>  (5) 
3.8394191861784113

>  <meeko>  (5) 
{"free_energy": -8.94, "intermolecular_energy": -11.03, "internal_energy": -1.36, "cluster_size": 16, "cluster_id": 1, "rank_in_cluster": 4}

>  <energy>  (5) 
-8.93

>  <cluster_rmsd>  (5) 
0.22

>  <cluster>  (5) 
1

$$$$

     RDKit          3D

 53 55  0  0  0  0  0  0  0  0999 V2000
  142.8340   77.1890  216.9150 C   0  0  0  0  0  0  0  0  0  0  0  0
  143.0720   77.1020  218.4080 C   0  0  0  0  0  0  0  0  0  0  0  0
  143.2820   75.6750  218.7800 C   0  0  0  0  0  0  0  0  0  0  0  0
  142.0540   77.8480  219.1980 C   0  0  0  0  0  0  0  0  0  0  0  0
  141.7810   77.3380  220.5650 C   0  0  2  0  0  0  0  0  0  0  0  0
  140.5400   76.5420  220.5210 N   0  0  0  0  0  0  0  0  0  0  0  0
  140.4590   75.3290  221.2640 C   0  0  0  0  0  0  0  0  0  0  0  0
  141.4630   74.9820  221.9390 O   0  0  0  0  0  0  0  0  0  0  0  0
  139.2000   74.5590  221.1950 C   0  0  0  0  0  0  0  0  0  0  0  0
  139.1210   73.6690  222.3170 N   0  0  0  0  0  0  0  0  0  0  0  0
  140.0300   72.5720  222.3650 C   0  0  0  0  0  0  0  0  0  0  0  0
  140.8670   72.4220  221.4280 O   0  0  0  0  0  0  0  0  0  0  0  0
  139.9900   71.6360  223.4850 C   0  0  0  0  0  0  0  0  0  0  0  0
  139.3500   70.4230  223.3250 C   0  0  0  0  0  0  0  0  0  0  0  0
  139.2620   69.4760  224.3240 C   0  0  0  0  0  0  0  0  0  0  0  0
  139.8540   69.7870  225.5330 C   0  0  0  0  0  0  0  0  0  0  0  0
  139.7860   68.8640  226.5560 C   0  0  0  0  0  0  0  0  0  0  0  0
  140.3620   69.1220  227.7840 C   0  0  0  0  0  0  0  0  0  0  0  0
  140.2940   68.2210  228.7780 F   0  0  0  0  0  0  0  0  0  0  0  0
  141.0100   70.3510  227.9400 C   0  0  0  0  0  0  0  0  0  0  0  0
  141.0780   71.2750  226.9170 C   0  0  0  0  0  0  0  0  0  0  0  0
  140.4970   70.9980  225.6970 C   0  0  0  0  0  0  0  0  0  0  0  0
  140.5610   71.9070  224.6820 N   0  0  0  0  0  0  0  0  0  0  0  0
  141.5350   78.3680  221.5930 C   0  0  0  0  0  0  0  0  0  0  0  0
  141.0910   78.0890  222.8680 C   0  0  0  0  0  0  0  0  0  0  0  0
  140.8580   79.0560  223.8230 C   0  0  0  0  0  0  0  0  0  0  0  0
  141.0700   80.3860  223.5280 C   0  0  0  0  0  0  0  0  0  0  0  0
  141.5160   80.7030  222.2620 C   0  0  0  0  0  0  0  0  0  0  0  0
  141.7450   79.7240  221.3120 C   0  0  0  0  0  0  0  0  0  0  0  0
  141.8161   77.5611  216.7270 H   0  0  0  0  0  0  0  0  0  0  0  0
  143.5649   77.8781  216.4667 H   0  0  0  0  0  0  0  0  0  0  0  0
  142.9482   76.1910  216.4667 H   0  0  0  0  0  0  0  0  0  0  0  0
  143.9977   77.6304  218.6799 H   0  0  0  0  0  0  0  0  0  0  0  0
  143.2960   75.5800  219.8758 H   0  0  0  0  0  0  0  0  0  0  0  0
  142.4640   75.0649  218.3695 H   0  0  0  0  0  0  0  0  0  0  0  0
  144.2411   75.3264  218.3695 H   0  0  0  0  0  0  0  0  0  0  0  0
  142.3981   78.8887  219.2908 H   0  0  0  0  0  0  0  0  0  0  0  0
  141.1097   77.7301  218.6463 H   0  0  0  0  0  0  0  0  0  0  0  0
  142.6895   76.7848  220.8453 H   0  0  0  0  0  0  0  0  0  0  0  0
  139.7460   76.8820  219.9450 H   0  0  0  0  0  0  0  0  0  0  0  0
  138.3454   75.2512  221.2154 H   0  0  0  0  0  0  0  0  0  0  0  0
  139.1778   73.9759  220.2626 H   0  0  0  0  0  0  0  0  0  0  0  0
  138.4110   73.8140  223.0910 H   0  0  0  0  0  0  0  0  0  0  0  0
  138.8872   70.2008  222.3522 H   0  0  0  0  0  0  0  0  0  0  0  0
  138.7448   68.5182  224.1656 H   0  0  0  0  0  0  0  0  0  0  0  0
  139.2656   67.9090  226.3911 H   0  0  0  0  0  0  0  0  0  0  0  0
  141.4793   70.5884  228.9061 H   0  0  0  0  0  0  0  0  0  0  0  0
  141.5957   72.2327  227.0746 H   0  0  0  0  0  0  0  0  0  0  0  0
  140.9129   77.0377  223.1382 H   0  0  0  0  0  0  0  0  0  0  0  0
  140.5022   78.7656  224.8225 H   0  0  0  0  0  0  0  0  0  0  0  0
  140.8892   81.1695  224.2786 H   0  0  0  0  0  0  0  0  0  0  0  0
  141.6934   81.7570  222.0021 H   0  0  0  0  0  0  0  0  0  0  0  0
  142.1001   80.0171  220.3130 H   0  0  0  0  0  0  0  0  0  0  0  0
  1  2  1  0
  2  3  1  0
  2  4  1  0
  4  5  1  0
  5  6  1  0
  6  7  1  0
  7  8  2  0
  7  9  1  0
  9 10  1  0
 10 11  1  0
 11 12  2  0
 11 13  1  0
 13 14  2  0
 14 15  1  0
 15 16  2  0
 16 17  1  0
 17 18  2  0
 18 19  1  0
 18 20  1  0
 20 21  2  0
 21 22  1  0
 22 23  2  0
  5 24  1  0
 24 25  2  0
 25 26  1  0
 26 27  2  0
 27 28  1  0
 28 29  2  0
 23 13  1  0
 29 24  1  0
 22 16  1  0
  1 30  1  0
  1 31  1  0
  1 32  1  0
  2 33  1  0
  3 34  1  0
  3 35  1  0
  3 36  1  0
  4 37  1  0
  4 38  1  0
  5 39  1  1
  6 40  1  0
  9 41  1  0
  9 42  1  0
 10 43  1  0
 14 44  1  0
 15 45  1  0
 17 46  1  0
 20 47  1  0
 21 48  1  0
 25 49  1  0
 26 50  1  0
 27 51  1  0
 28 52  1  0
 29 53  1  0
M  END
>  <smiles>  (6) 
CC(C)C[C@H](NC(=O)CNC(=O)c1ccc2cc(F)ccc2n1)c1ccccc1

>  <score_type>  (6) 
oracle

>  <origin>  (6) 
autodockgpu

>  <m_score__min__energy>  (6) 
-9.1300000000000008

>  <m_primary>  (6) 
energy

>  <rmsd>  (6) 
2.1517175284252246

>  <m_score__min__rmsd>  (6) 
2.1517175284252246

>  <meeko>  (6) 
{"free_energy": -8.58, "intermolecular_energy": -10.67, "internal_energy": -1.3, "cluster_size": 10, "cluster_id": 2, "rank_in_cluster": 5}

>  <energy>  (6) 
-8.9

>  <cluster_rmsd>  (6) 
0.41

>  <cluster>  (6) 
1

$$$$

     RDKit          3D

 53 55  0  0  0  0  0  0  0  0999 V2000
  140.1180   80.0200  223.4260 C   0  0  0  0  0  0  0  0  0  0  0  0
  141.4120   79.2400  223.5380 C   0  0  0  0  0  0  0  0  0  0  0  0
  142.5560   80.1730  223.3440 C   0  0  0  0  0  0  0  0  0  0  0  0
  141.4150   78.0080  222.7030 C   0  0  0  0  0  0  0  0  0  0  0  0
  140.6390   78.0700  221.4390 C   0  0  2  0  0  0  0  0  0  0  0  0
  140.4370   76.6920  220.9530 N   0  0  0  0  0  0  0  0  0  0  0  0
  139.6970   75.7710  221.7500 C   0  0  0  0  0  0  0  0  0  0  0  0
  139.2390   76.1760  222.8500 O   0  0  0  0  0  0  0  0  0  0  0  0
  139.5150   74.4000  221.2310 C   0  0  0  0  0  0  0  0  0  0  0  0
  139.3350   73.4930  222.3270 N   0  0  0  0  0  0  0  0  0  0  0  0
  140.3860   72.5740  222.6140 C   0  0  0  0  0  0  0  0  0  0  0  0
  141.4310   72.5890  221.9020 O   0  0  0  0  0  0  0  0  0  0  0  0
  140.2520   71.6290  223.7190 C   0  0  0  0  0  0  0  0  0  0  0  0
  139.6180   70.4230  223.4990 C   0  0  0  0  0  0  0  0  0  0  0  0
  139.4450   69.4680  224.4800 C   0  0  0  0  0  0  0  0  0  0  0  0
  139.9430   69.7640  225.7340 C   0  0  0  0  0  0  0  0  0  0  0  0
  139.7880   68.8330  226.7400 C   0  0  0  0  0  0  0  0  0  0  0  0
  140.2680   69.0770  228.0120 C   0  0  0  0  0  0  0  0  0  0  0  0
  140.1160   68.1690  228.9900 F   0  0  0  0  0  0  0  0  0  0  0  0
  140.9100   70.3000  228.2290 C   0  0  0  0  0  0  0  0  0  0  0  0
  141.0640   71.2320  227.2230 C   0  0  0  0  0  0  0  0  0  0  0  0
  140.5790   70.9690  225.9590 C   0  0  0  0  0  0  0  0  0  0  0  0
  140.7290   71.8860  224.9600 N   0  0  0  0  0  0  0  0  0  0  0  0
  141.2970   78.7740  220.3200 C   0  0  0  0  0  0  0  0  0  0  0  0
  141.2630   80.1420  220.1500 C   0  0  0  0  0  0  0  0  0  0  0  0
  141.8760   80.7940  219.1010 C   0  0  0  0  0  0  0  0  0  0  0  0
  142.5700   80.0770  218.1500 C   0  0  0  0  0  0  0  0  0  0  0  0
  142.6260   78.7060  218.2890 C   0  0  0  0  0  0  0  0  0  0  0  0
  142.0060   78.0630  219.3450 C   0  0  0  0  0  0  0  0  0  0  0  0
  139.7392   80.2483  224.4331 H   0  0  0  0  0  0  0  0  0  0  0  0
  140.3013   80.9582  222.8818 H   0  0  0  0  0  0  0  0  0  0  0  0
  139.3740   79.4198  222.8818 H   0  0  0  0  0  0  0  0  0  0  0  0
  141.5228   78.8249  224.5506 H   0  0  0  0  0  0  0  0  0  0  0  0
  142.9424   80.4882  224.3245 H   0  0  0  0  0  0  0  0  0  0  0  0
  143.3530   79.6640  222.7821 H   0  0  0  0  0  0  0  0  0  0  0  0
  142.2177   81.0561  222.7821 H   0  0  0  0  0  0  0  0  0  0  0  0
  142.4597   77.7806  222.4444 H   0  0  0  0  0  0  0  0  0  0  0  0
  140.9211   77.2378  223.3137 H   0  0  0  0  0  0  0  0  0  0  0  0
  139.7227   78.6203  221.6988 H   0  0  0  0  0  0  0  0  0  0  0  0
  140.8400   76.4180  220.0370 H   0  0  0  0  0  0  0  0  0  0  0  0
  138.6286   74.3691  220.5804 H   0  0  0  0  0  0  0  0  0  0  0  0
  140.4042   74.1057  220.6543 H   0  0  0  0  0  0  0  0  0  0  0  0
  138.4500   73.4970  222.9110 H   0  0  0  0  0  0  0  0  0  0  0  0
  139.2311   70.2125  222.4910 H   0  0  0  0  0  0  0  0  0  0  0  0
  138.9346   68.5158  224.2731 H   0  0  0  0  0  0  0  0  0  0  0  0
  139.2753   67.8835  226.5264 H   0  0  0  0  0  0  0  0  0  0  0  0
  141.3039   70.5259  229.2309 H   0  0  0  0  0  0  0  0  0  0  0  0
  141.5736   72.1848  227.4293 H   0  0  0  0  0  0  0  0  0  0  0  0
  140.7178   80.7453  220.8907 H   0  0  0  0  0  0  0  0  0  0  0  0
  141.8110   81.8893  219.0228 H   0  0  0  0  0  0  0  0  0  0  0  0
  143.0636   80.5824  217.3068 H   0  0  0  0  0  0  0  0  0  0  0  0
  143.1754   78.1113  217.5443 H   0  0  0  0  0  0  0  0  0  0  0  0
  142.0716   76.9675  219.4203 H   0  0  0  0  0  0  0  0  0  0  0  0
  1  2  1  0
  2  3  1  0
  2  4  1  0
  4  5  1  0
  5  6  1  0
  6  7  1  0
  7  8  2  0
  7  9  1  0
  9 10  1  0
 10 11  1  0
 11 12  2  0
 11 13  1  0
 13 14  2  0
 14 15  1  0
 15 16  2  0
 16 17  1  0
 17 18  2  0
 18 19  1  0
 18 20  1  0
 20 21  2  0
 21 22  1  0
 22 23  2  0
  5 24  1  0
 24 25  2  0
 25 26  1  0
 26 27  2  0
 27 28  1  0
 28 29  2  0
 23 13  1  0
 29 24  1  0
 22 16  1  0
  1 30  1  0
  1 31  1  0
  1 32  1  0
  2 33  1  0
  3 34  1  0
  3 35  1  0
  3 36  1  0
  4 37  1  0
  4 38  1  0
  5 39  1  1
  6 40  1  0
  9 41  1  0
  9 42  1  0
 10 43  1  0
 14 44  1  0
 15 45  1  0
 17 46  1  0
 20 47  1  0
 21 48  1  0
 25 49  1  0
 26 50  1  0
 27 51  1  0
 28 52  1  0
 29 53  1  0
M  END
>  <smiles>  (7) 
CC(C)C[C@H](NC(=O)CNC(=O)c1ccc2cc(F)ccc2n1)c1ccccc1

>  <score_type>  (7) 
oracle

>  <origin>  (7) 
autodockgpu

>  <m_score__min__energy>  (7) 
-9.1300000000000008

>  <m_primary>  (7) 
energy

>  <rmsd>  (7) 
3.6699531406240196

>  <m_score__min__rmsd>  (7) 
3.6699531406240196

>  <meeko>  (7) 
{"free_energy": -8.58, "intermolecular_energy": -10.67, "internal_energy": -1.36, "cluster_size": 16, "cluster_id": 1, "rank_in_cluster": 8}

>  <energy>  (7) 
-8.7

>  <cluster_rmsd>  (7) 
0.35

>  <cluster>  (7) 
1

$$$$

     RDKit          3D

 53 55  0  0  0  0  0  0  0  0999 V2000
  142.6040   79.5630  217.9520 C   0  0  0  0  0  0  0  0  0  0  0  0
  142.4740   78.1870  218.5700 C   0  0  0  0  0  0  0  0  0  0  0  0
  142.9570   77.1720  217.5930 C   0  0  0  0  0  0  0  0  0  0  0  0
  141.1290   77.9470  219.1620 C   0  0  0  0  0  0  0  0  0  0  0  0
  141.1020   77.2200  220.4570 C   0  0  2  0  0  0  0  0  0  0  0  0
  139.9980   76.2430  220.4130 N   0  0  0  0  0  0  0  0  0  0  0  0
  140.0620   75.0770  221.2290 C   0  0  0  0  0  0  0  0  0  0  0  0
  141.0720   74.9270  221.9650 O   0  0  0  0  0  0  0  0  0  0  0  0
  138.9380   74.1210  221.1590 C   0  0  0  0  0  0  0  0  0  0  0  0
  138.9370   73.2950  222.3310 N   0  0  0  0  0  0  0  0  0  0  0  0
  139.9520   72.3010  222.4480 C   0  0  0  0  0  0  0  0  0  0  0  0
  140.8100   72.1820  221.5260 O   0  0  0  0  0  0  0  0  0  0  0  0
  139.9960   71.4330  223.6210 C   0  0  0  0  0  0  0  0  0  0  0  0
  139.5100   70.1440  223.5230 C   0  0  0  0  0  0  0  0  0  0  0  0
  139.5100   69.2530  224.5760 C   0  0  0  0  0  0  0  0  0  0  0  0
  140.0290   69.7020  225.7740 C   0  0  0  0  0  0  0  0  0  0  0  0
  140.0450   68.8380  226.8500 C   0  0  0  0  0  0  0  0  0  0  0  0
  140.5530   69.2340  228.0710 C   0  0  0  0  0  0  0  0  0  0  0  0
  140.5670   68.3910  229.1160 F   0  0  0  0  0  0  0  0  0  0  0  0
  141.0440   70.5400  228.1650 C   0  0  0  0  0  0  0  0  0  0  0  0
  141.0280   71.4050  227.0900 C   0  0  0  0  0  0  0  0  0  0  0  0
  140.5170   70.9900  225.8780 C   0  0  0  0  0  0  0  0  0  0  0  0
  140.4980   71.8400  224.8110 N   0  0  0  0  0  0  0  0  0  0  0  0
  140.8290   78.0490  221.6480 C   0  0  0  0  0  0  0  0  0  0  0  0
  141.8080   78.6870  222.3780 C   0  0  0  0  0  0  0  0  0  0  0  0
  141.5490   79.4560  223.4920 C   0  0  0  0  0  0  0  0  0  0  0  0
  140.2530   79.6210  223.9330 C   0  0  0  0  0  0  0  0  0  0  0  0
  139.2460   78.9980  223.2260 C   0  0  0  0  0  0  0  0  0  0  0  0
  139.5190   78.2280  222.1100 C   0  0  0  0  0  0  0  0  0  0  0  0
  142.6753   80.3177  218.7491 H   0  0  0  0  0  0  0  0  0  0  0  0
  143.5097   79.6010  217.3289 H   0  0  0  0  0  0  0  0  0  0  0  0
  141.7214   79.7700  217.3289 H   0  0  0  0  0  0  0  0  0  0  0  0
  143.1261   78.0995  219.4515 H   0  0  0  0  0  0  0  0  0  0  0  0
  143.3683   76.3078  218.1352 H   0  0  0  0  0  0  0  0  0  0  0  0
  142.1187   76.8433  216.9611 H   0  0  0  0  0  0  0  0  0  0  0  0
  143.7407   77.6152  216.9611 H   0  0  0  0  0  0  0  0  0  0  0  0
  140.6510   78.9256  219.3166 H   0  0  0  0  0  0  0  0  0  0  0  0
  140.6054   77.2947  218.4476 H   0  0  0  0  0  0  0  0  0  0  0  0
  142.1100   76.7922  220.5617 H   0  0  0  0  0  0  0  0  0  0  0  0
  139.1910   76.4240  219.7840 H   0  0  0  0  0  0  0  0  0  0  0  0
  137.9893   74.6747  221.1002 H   0  0  0  0  0  0  0  0  0  0  0  0
  139.0506   73.4888  220.2659 H   0  0  0  0  0  0  0  0  0  0  0  0
  138.2080   73.4120  223.0920 H   0  0  0  0  0  0  0  0  0  0  0  0
  139.1025   69.8112  222.5569 H   0  0  0  0  0  0  0  0  0  0  0  0
  139.1149   68.2323  224.4664 H   0  0  0  0  0  0  0  0  0  0  0  0
  139.6472   67.8191  226.7331 H   0  0  0  0  0  0  0  0  0  0  0  0
  141.4551   70.8880  229.1241 H   0  0  0  0  0  0  0  0  0  0  0  0
  141.4229   72.4258  227.1997 H   0  0  0  0  0  0  0  0  0  0  0  0
  142.8534   78.5765  222.0540 H   0  0  0  0  0  0  0  0  0  0  0  0
  142.3777   79.9391  224.0304 H   0  0  0  0  0  0  0  0  0  0  0  0
  140.0293   80.2305  224.8210 H   0  0  0  0  0  0  0  0  0  0  0  0
  138.2036   79.1160  223.5567 H   0  0  0  0  0  0  0  0  0  0  0  0
  138.6888   77.7455  221.5734 H   0  0  0  0  0  0  0  0  0  0  0  0
  1  2  1  0
  2  3  1  0
  2  4  1  0
  4  5  1  0
  5  6  1  0
  6  7  1  0
  7  8  2  0
  7  9  1  0
  9 10  1  0
 10 11  1  0
 11 12  2  0
 11 13  1  0
 13 14  2  0
 14 15  1  0
 15 16  2  0
 16 17  1  0
 17 18  2  0
 18 19  1  0
 18 20  1  0
 20 21  2  0
 21 22  1  0
 22 23  2  0
  5 24  1  0
 24 25  2  0
 25 26  1  0
 26 27  2  0
 27 28  1  0
 28 29  2  0
 23 13  1  0
 29 24  1  0
 22 16  1  0
  1 30  1  0
  1 31  1  0
  1 32  1  0
  2 33  1  0
  3 34  1  0
  3 35  1  0
  3 36  1  0
  4 37  1  0
  4 38  1  0
  5 39  1  1
  6 40  1  0
  9 41  1  0
  9 42  1  0
 10 43  1  0
 14 44  1  0
 15 45  1  0
 17 46  1  0
 20 47  1  0
 21 48  1  0
 25 49  1  0
 26 50  1  0
 27 51  1  0
 28 52  1  0
 29 53  1  0
M  END
>  <smiles>  (8) 
CC(C)C[C@H](NC(=O)CNC(=O)c1ccc2cc(F)ccc2n1)c1ccccc1

>  <score_type>  (8) 
oracle

>  <origin>  (8) 
autodockgpu

>  <m_score__min__energy>  (8) 
-9.1300000000000008

>  <m_primary>  (8) 
energy

>  <rmsd>  (8) 
2.331865408586256

>  <m_score__min__rmsd>  (8) 
2.331865408586256

>  <meeko>  (8) 
{"free_energy": -8.4, "intermolecular_energy": -10.49, "internal_energy": -1.32, "cluster_size": 10, "cluster_id": 2, "rank_in_cluster": 9}

>  <energy>  (8) 
-8.58

>  <cluster_rmsd>  (8) 
0.57

>  <cluster>  (8) 
1

$$$$

     RDKit          3D

 53 55  0  0  0  0  0  0  0  0999 V2000
  137.4570   79.8180  221.7300 C   0  0  0  0  0  0  0  0  0  0  0  0
  137.7160   79.1980  223.0870 C   0  0  0  0  0  0  0  0  0  0  0  0
  138.1690   80.2620  224.0250 C   0  0  0  0  0  0  0  0  0  0  0  0
  138.5680   77.9790  223.0090 C   0  0  0  0  0  0  0  0  0  0  0  0
  139.7190   78.0420  222.0730 C   0  0  2  0  0  0  0  0  0  0  0  0
  140.2870   76.6860  221.9500 N   0  0  0  0  0  0  0  0  0  0  0  0
  139.6400   75.7290  221.1140 C   0  0  0  0  0  0  0  0  0  0  0  0
  138.5970   76.0850  220.5070 O   0  0  0  0  0  0  0  0  0  0  0  0
  140.2380   74.3820  221.0160 C   0  0  0  0  0  0  0  0  0  0  0  0
  139.9750   73.6520  222.2220 N   0  0  0  0  0  0  0  0  0  0  0  0
  140.5050   72.3340  222.3350 C   0  0  0  0  0  0  0  0  0  0  0  0
  141.1840   71.8570  221.3790 O   0  0  0  0  0  0  0  0  0  0  0  0
  140.2660   71.5480  223.5410 C   0  0  0  0  0  0  0  0  0  0  0  0
  139.5470   70.3730  223.4460 C   0  0  0  0  0  0  0  0  0  0  0  0
  139.2720   69.5650  224.5300 C   0  0  0  0  0  0  0  0  0  0  0  0
  139.7530   69.9790  225.7570 C   0  0  0  0  0  0  0  0  0  0  0  0
  139.4970   69.1960  226.8630 C   0  0  0  0  0  0  0  0  0  0  0  0
  139.9550   69.5620  228.1130 C   0  0  0  0  0  0  0  0  0  0  0  0
  139.7040   68.7980  229.1890 F   0  0  0  0  0  0  0  0  0  0  0  0
  140.6830   70.7520  228.2030 C   0  0  0  0  0  0  0  0  0  0  0  0
  140.9390   71.5360  227.0970 C   0  0  0  0  0  0  0  0  0  0  0  0
  140.4730   71.1530  225.8570 C   0  0  0  0  0  0  0  0  0  0  0  0
  140.7240   71.9240  224.7590 N   0  0  0  0  0  0  0  0  0  0  0  0
  140.8480   78.8890  222.5060 C   0  0  0  0  0  0  0  0  0  0  0  0
  141.3090   78.9470  223.8040 C   0  0  0  0  0  0  0  0  0  0  0  0
  142.3610   79.7430  224.2030 C   0  0  0  0  0  0  0  0  0  0  0  0
  143.0140   80.5390  223.2870 C   0  0  0  0  0  0  0  0  0  0  0  0
  142.5810   80.5060  221.9780 C   0  0  0  0  0  0  0  0  0  0  0  0
  141.5240   79.7030  221.5890 C   0  0  0  0  0  0  0  0  0  0  0  0
  137.0360   80.8257  221.8616 H   0  0  0  0  0  0  0  0  0  0  0  0
  138.4021   79.8855  221.1713 H   0  0  0  0  0  0  0  0  0  0  0  0
  136.7447   79.1931  221.1713 H   0  0  0  0  0  0  0  0  0  0  0  0
  136.7836   78.7941  223.5082 H   0  0  0  0  0  0  0  0  0  0  0  0
  138.0246   79.9229  225.0614 H   0  0  0  0  0  0  0  0  0  0  0  0
  139.2349   80.4727  223.8533 H   0  0  0  0  0  0  0  0  0  0  0  0
  137.5822   81.1764  223.8533 H   0  0  0  0  0  0  0  0  0  0  0  0
  138.9647   77.7819  224.0159 H   0  0  0  0  0  0  0  0  0  0  0  0
  137.9131   77.1869  222.6171 H   0  0  0  0  0  0  0  0  0  0  0  0
  139.3063   78.4693  221.1472 H   0  0  0  0  0  0  0  0  0  0  0  0
  141.1500   76.4530  222.4770 H   0  0  0  0  0  0  0  0  0  0  0  0
  139.7987   73.8474  220.1609 H   0  0  0  0  0  0  0  0  0  0  0  0
  141.3248   74.4735  220.8730 H   0  0  0  0  0  0  0  0  0  0  0  0
  139.4040   74.0720  223.0110 H   0  0  0  0  0  0  0  0  0  0  0  0
  139.1751   70.0660  222.4573 H   0  0  0  0  0  0  0  0  0  0  0  0
  138.6962   68.6340  224.4222 H   0  0  0  0  0  0  0  0  0  0  0  0
  138.9198   68.2668  226.7477 H   0  0  0  0  0  0  0  0  0  0  0  0
  141.0628   71.0727  229.1843 H   0  0  0  0  0  0  0  0  0  0  0  0
  141.5150   72.4669  227.2044 H   0  0  0  0  0  0  0  0  0  0  0  0
  140.8105   78.3246  224.5618 H   0  0  0  0  0  0  0  0  0  0  0  0
  142.6803   79.7429  225.2556 H   0  0  0  0  0  0  0  0  0  0  0  0
  143.8544   81.1807  223.5904 H   0  0  0  0  0  0  0  0  0  0  0  0
  143.0868   81.1313  221.2276 H   0  0  0  0  0  0  0  0  0  0  0  0
  141.2074   79.7040  220.5356 H   0  0  0  0  0  0  0  0  0  0  0  0
  1  2  1  0
  2  3  1  0
  2  4  1  0
  4  5  1  0
  5  6  1  0
  6  7  1  0
  7  8  2  0
  7  9  1  0
  9 10  1  0
 10 11  1  0
 11 12  2  0
 11 13  1  0
 13 14  2  0
 14 15  1  0
 15 16  2  0
 16 17  1  0
 17 18  2  0
 18 19  1  0
 18 20  1  0
 20 21  2  0
 21 22  1  0
 22 23  2  0
  5 24  1  0
 24 25  2  0
 25 26  1  0
 26 27  2  0
 27 28  1  0
 28 29  2  0
 23 13  1  0
 29 24  1  0
 22 16  1  0
  1 30  1  0
  1 31  1  0
  1 32  1  0
  2 33  1  0
  3 34  1  0
  3 35  1  0
  3 36  1  0
  4 37  1  0
  4 38  1  0
  5 39  1  6
  6 40  1  0
  9 41  1  0
  9 42  1  0
 10 43  1  0
 14 44  1  0
 15 45  1  0
 17 46  1  0
 20 47  1  0
 21 48  1  0
 25 49  1  0
 26 50  1  0
 27 51  1  0
 28 52  1  0
 29 53  1  0
M  END
>  <smiles>  (9) 
CC(C)C[C@H](NC(=O)CNC(=O)c1ccc2cc(F)ccc2n1)c1ccccc1

>  <score_type>  (9) 
oracle

>  <origin>  (9) 
autodockgpu

>  <m_score__min__energy>  (9) 
-9.1300000000000008

>  <m_primary>  (9) 
energy

>  <rmsd>  (9) 
3.6881746410014524

>  <m_score__min__rmsd>  (9) 
3.6881746410014524

>  <meeko>  (9) 
{"free_energy": -8.34, "intermolecular_energy": -10.43, "internal_energy": -1.42, "cluster_size": 16, "cluster_id": 1, "rank_in_cluster": 13}

>  <energy>  (9) 
-8.57

>  <cluster_rmsd>  (9) 
1.96

>  <cluster>  (9) 
1

$$$$

     RDKit          3D

 53 55  0  0  0  0  0  0  0  0999 V2000
  141.4690   78.5010  223.1520 C   0  0  0  0  0  0  0  0  0  0  0  0
  140.1810   78.0860  222.4700 C   0  0  0  0  0  0  0  0  0  0  0  0
  139.0670   78.9230  222.9950 C   0  0  0  0  0  0  0  0  0  0  0  0
  139.9690   76.6130  222.4910 C   0  0  0  0  0  0  0  0  0  0  0  0
  140.0660   75.9170  221.1830 C   0  0  2  0  0  0  0  0  0  0  0  0
  139.4580   74.5800  221.3260 N   0  0  0  0  0  0  0  0  0  0  0  0
  138.0390   74.4520  221.3170 C   0  0  0  0  0  0  0  0  0  0  0  0
  137.3530   75.4980  221.1850 O   0  0  0  0  0  0  0  0  0  0  0  0
  137.4680   73.0980  221.4630 C   0  0  0  0  0  0  0  0  0  0  0  0
  137.8970   72.5280  222.7070 N   0  0  0  0  0  0  0  0  0  0  0  0
  139.1260   71.8080  222.7250 C   0  0  0  0  0  0  0  0  0  0  0  0
  139.7920   71.6970  221.6540 O   0  0  0  0  0  0  0  0  0  0  0  0
  139.6080   71.2080  223.9650 C   0  0  0  0  0  0  0  0  0  0  0  0
  140.5600   71.8760  224.7100 C   0  0  0  0  0  0  0  0  0  0  0  0
  141.0730   71.3890  225.8940 C   0  0  0  0  0  0  0  0  0  0  0  0
  140.5910   70.1690  226.3290 C   0  0  0  0  0  0  0  0  0  0  0  0
  141.0820   69.6500  227.5090 C   0  0  0  0  0  0  0  0  0  0  0  0
  140.6350   68.4370  227.9910 C   0  0  0  0  0  0  0  0  0  0  0  0
  141.1150   67.9330  229.1400 F   0  0  0  0  0  0  0  0  0  0  0  0
  139.6710   67.7640  227.2330 C   0  0  0  0  0  0  0  0  0  0  0  0
  139.1800   68.2830  226.0520 C   0  0  0  0  0  0  0  0  0  0  0  0
  139.6390   69.4980  225.5880 C   0  0  0  0  0  0  0  0  0  0  0  0
  139.1570   70.0160  224.4210 N   0  0  0  0  0  0  0  0  0  0  0  0
  141.4350   75.6620  220.6950 C   0  0  0  0  0  0  0  0  0  0  0  0
  142.1130   74.4790  220.8980 C   0  0  0  0  0  0  0  0  0  0  0  0
  143.3940   74.2480  220.4440 C   0  0  0  0  0  0  0  0  0  0  0  0
  144.0690   75.2260  219.7460 C   0  0  0  0  0  0  0  0  0  0  0  0
  143.4210   76.4230  219.5220 C   0  0  0  0  0  0  0  0  0  0  0  0
  142.1360   76.6440  219.9830 C   0  0  0  0  0  0  0  0  0  0  0  0
  141.3364   78.4583  224.2431 H   0  0  0  0  0  0  0  0  0  0  0  0
  142.2782   77.8181  222.8540 H   0  0  0  0  0  0  0  0  0  0  0  0
  141.7273   79.5279  222.8540 H   0  0  0  0  0  0  0  0  0  0  0  0
  140.2347   78.2892  221.3903 H   0  0  0  0  0  0  0  0  0  0  0  0
  139.0850   78.9095  224.0948 H   0  0  0  0  0  0  0  0  0  0  0  0
  139.1860   79.9570  222.6390 H   0  0  0  0  0  0  0  0  0  0  0  0
  138.1070   78.5209  222.6390 H   0  0  0  0  0  0  0  0  0  0  0  0
  140.7237   76.1750  223.1608 H   0  0  0  0  0  0  0  0  0  0  0  0
  138.9302   76.4703  222.8235 H   0  0  0  0  0  0  0  0  0  0  0  0
  139.5690   76.5902  220.4690 H   0  0  0  0  0  0  0  0  0  0  0  0
  140.0790   73.7550  221.4320 H   0  0  0  0  0  0  0  0  0  0  0  0
  136.3699   73.1599  221.4478 H   0  0  0  0  0  0  0  0  0  0  0  0
  137.8120   72.4643  220.6322 H   0  0  0  0  0  0  0  0  0  0  0  0
  137.3230   72.6340  223.5930 H   0  0  0  0  0  0  0  0  0  0  0  0
  140.9274   72.8448  224.3406 H   0  0  0  0  0  0  0  0  0  0  0  0
  141.8304   71.9456  226.4654 H   0  0  0  0  0  0  0  0  0  0  0  0
  141.8409   70.2113  228.0738 H   0  0  0  0  0  0  0  0  0  0  0  0
  139.2936   66.7937  227.5882 H   0  0  0  0  0  0  0  0  0  0  0  0
  138.4221   67.7272  225.4805 H   0  0  0  0  0  0  0  0  0  0  0  0
  141.6045   73.6762  221.4520 H   0  0  0  0  0  0  0  0  0  0  0  0
  143.8788   73.2802  220.6395 H   0  0  0  0  0  0  0  0  0  0  0  0
  145.0922   75.0574  219.3791 H   0  0  0  0  0  0  0  0  0  0  0  0
  143.9373   77.2186  218.9649 H   0  0  0  0  0  0  0  0  0  0  0  0
  141.6534   77.6127  219.7862 H   0  0  0  0  0  0  0  0  0  0  0  0
  1  2  1  0
  2  3  1  0
  2  4  1  0
  4  5  1  0
  5  6  1  0
  6  7  1  0
  7  8  2  0
  7  9  1  0
  9 10  1  0
 10 11  1  0
 11 12  2  0
 11 13  1  0
 13 14  2  0
 14 15  1  0
 15 16  2  0
 16 17  1  0
 17 18  2  0
 18 19  1  0
 18 20  1  0
 20 21  2  0
 21 22  1  0
 22 23  2  0
  5 24  1  0
 24 25  2  0
 25 26  1  0
 26 27  2  0
 27 28  1  0
 28 29  2  0
 23 13  1  0
 29 24  1  0
 22 16  1  0
  1 30  1  0
  1 31  1  0
  1 32  1  0
  2 33  1  0
  3 34  1  0
  3 35  1  0
  3 36  1  0
  4 37  1  0
  4 38  1  0
  5 39  1  6
  6 40  1  0
  9 41  1  0
  9 42  1  0
 10 43  1  0
 14 44  1  0
 15 45  1  0
 17 46  1  0
 20 47  1  0
 21 48  1  0
 25 49  1  0
 26 50  1  0
 27 51  1  0
 28 52  1  0
 29 53  1  0
M  END
>  <smiles>  (10) 
CC(C)C[C@H](NC(=O)CNC(=O)c1ccc2cc(F)ccc2n1)c1ccccc1

>  <score_type>  (10) 
oracle

>  <origin>  (10) 
autodockgpu

>  <m_score__min__energy>  (10) 
-9.1300000000000008

>  <m_primary>  (10) 
energy

>  <rmsd>  (10) 
3.794709570686453

>  <m_score__min__rmsd>  (10) 
3.794709570686453

>  <meeko>  (10) 
{"free_energy": -7.66, "intermolecular_energy": -9.74, "internal_energy": -2.29, "cluster_size": 16, "cluster_id": 1, "rank_in_cluster": 15}

>  <energy>  (10) 
-8.54

>  <cluster_rmsd>  (10) 
1.97

>  <cluster>  (10) 
1

$$$$

     RDKit          3D

 53 55  0  0  0  0  0  0  0  0999 V2000
  139.9860   80.1620  223.5280 C   0  0  0  0  0  0  0  0  0  0  0  0
  141.4020   79.7080  223.8160 C   0  0  0  0  0  0  0  0  0  0  0  0
  142.3130   80.8820  223.7280 C   0  0  0  0  0  0  0  0  0  0  0  0
  141.7920   78.5070  223.0270 C   0  0  0  0  0  0  0  0  0  0  0  0
  141.0290   78.2680  221.7760 C   0  0  2  0  0  0  0  0  0  0  0  0
  141.1560   76.8410  221.4250 N   0  0  0  0  0  0  0  0  0  0  0  0
  140.0240   75.9850  221.5550 C   0  0  0  0  0  0  0  0  0  0  0  0
  138.9480   76.4880  221.9690 O   0  0  0  0  0  0  0  0  0  0  0  0
  140.1900   74.5620  221.1940 C   0  0  0  0  0  0  0  0  0  0  0  0
  139.9340   73.7430  222.3440 N   0  0  0  0  0  0  0  0  0  0  0  0
  140.6130   72.4940  222.4390 C   0  0  0  0  0  0  0  0  0  0  0  0
  141.4100   72.1520  221.5170 O   0  0  0  0  0  0  0  0  0  0  0  0
  140.3880   71.6220  223.5880 C   0  0  0  0  0  0  0  0  0  0  0  0
  139.7210   70.4280  223.4050 C   0  0  0  0  0  0  0  0  0  0  0  0
  139.4630   69.5410  224.4300 C   0  0  0  0  0  0  0  0  0  0  0  0
  139.9070   69.8950  225.6890 C   0  0  0  0  0  0  0  0  0  0  0  0
  139.6670   69.0320  226.7390 C   0  0  0  0  0  0  0  0  0  0  0  0
  140.0900   69.3350  228.0180 C   0  0  0  0  0  0  0  0  0  0  0  0
  139.8540   68.4940  229.0380 F   0  0  0  0  0  0  0  0  0  0  0  0
  140.7650   70.5460  228.1970 C   0  0  0  0  0  0  0  0  0  0  0  0
  141.0060   71.4100  227.1480 C   0  0  0  0  0  0  0  0  0  0  0  0
  140.5760   71.0880  225.8770 C   0  0  0  0  0  0  0  0  0  0  0  0
  140.8110   71.9380  224.8350 N   0  0  0  0  0  0  0  0  0  0  0  0
  141.5100   78.9960  220.5860 C   0  0  0  0  0  0  0  0  0  0  0  0
  141.4170   80.3630  220.4340 C   0  0  0  0  0  0  0  0  0  0  0  0
  141.8640   81.0380  219.3180 C   0  0  0  0  0  0  0  0  0  0  0  0
  142.4410   80.3460  218.2750 C   0  0  0  0  0  0  0  0  0  0  0  0
  142.5530   78.9770  218.3920 C   0  0  0  0  0  0  0  0  0  0  0  0
  142.1000   78.3100  219.5170 C   0  0  0  0  0  0  0  0  0  0  0  0
  139.4554   80.3321  224.4765 H   0  0  0  0  0  0  0  0  0  0  0  0
  140.0113   81.0971  222.9492 H   0  0  0  0  0  0  0  0  0  0  0  0
  139.4629   79.3865  222.9492 H   0  0  0  0  0  0  0  0  0  0  0  0
  141.4827   79.3349  224.8476 H   0  0  0  0  0  0  0  0  0  0  0  0
  142.5750   81.2196  224.7416 H   0  0  0  0  0  0  0  0  0  0  0  0
  143.2282   80.5963  223.1887 H   0  0  0  0  0  0  0  0  0  0  0  0
  141.8090   81.6976  223.1887 H   0  0  0  0  0  0  0  0  0  0  0  0
  142.8533   78.6125  222.7577 H   0  0  0  0  0  0  0  0  0  0  0  0
  141.5725   77.6454  223.6747 H   0  0  0  0  0  0  0  0  0  0  0  0
  140.0085   78.6131  221.9984 H   0  0  0  0  0  0  0  0  0  0  0  0
  142.0720   76.4860  221.0890 H   0  0  0  0  0  0  0  0  0  0  0  0
  139.4816   74.3018  220.3937 H   0  0  0  0  0  0  0  0  0  0  0  0
  141.2186   74.3905  220.8438 H   0  0  0  0  0  0  0  0  0  0  0  0
  139.2620   74.0490  223.1050 H   0  0  0  0  0  0  0  0  0  0  0  0
  139.3780   70.1706  222.3920 H   0  0  0  0  0  0  0  0  0  0  0  0
  138.9286   68.5960  224.2527 H   0  0  0  0  0  0  0  0  0  0  0  0
  139.1311   68.0893  226.5543 H   0  0  0  0  0  0  0  0  0  0  0  0
  141.1145   70.8184  229.2038 H   0  0  0  0  0  0  0  0  0  0  0  0
  141.5406   72.3549  227.3251 H   0  0  0  0  0  0  0  0  0  0  0  0
  140.9614   80.9470  221.2473 H   0  0  0  0  0  0  0  0  0  0  0  0
  141.7599   82.1315  219.2599 H   0  0  0  0  0  0  0  0  0  0  0  0
  142.8009   80.8698  217.3772 H   0  0  0  0  0  0  0  0  0  0  0  0
  143.0121   78.4025  217.5739 H   0  0  0  0  0  0  0  0  0  0  0  0
  142.2058   77.2165  219.5727 H   0  0  0  0  0  0  0  0  0  0  0  0
  1  2  1  0
  2  3  1  0
  2  4  1  0
  4  5  1  0
  5  6  1  0
  6  7  1  0
  7  8  2  0
  7  9  1  0
  9 10  1  0
 10 11  1  0
 11 12  2  0
 11 13  1  0
 13 14  2  0
 14 15  1  0
 15 16  2  0
 16 17  1  0
 17 18  2  0
 18 19  1  0
 18 20  1  0
 20 21  2  0
 21 22  1  0
 22 23  2  0
  5 24  1  0
 24 25  2  0
 25 26  1  0
 26 27  2  0
 27 28  1  0
 28 29  2  0
 23 13  1  0
 29 24  1  0
 22 16  1  0
  1 30  1  0
  1 31  1  0
  1 32  1  0
  2 33  1  0
  3 34  1  0
  3 35  1  0
  3 36  1  0
  4 37  1  0
  4 38  1  0
  5 39  1  1
  6 40  1  0
  9 41  1  0
  9 42  1  0
 10 43  1  0
 14 44  1  0
 15 45  1  0
 17 46  1  0
 20 47  1  0
 21 48  1  0
 25 49  1  0
 26 50  1  0
 27 51  1  0
 28 52  1  0
 29 53  1  0
M  END
>  <smiles>  (11) 
CC(C)C[C@H](NC(=O)CNC(=O)c1ccc2cc(F)ccc2n1)c1ccccc1

>  <score_type>  (11) 
oracle

>  <origin>  (11) 
autodockgpu

>  <m_score__min__energy>  (11) 
-9.1300000000000008

>  <m_primary>  (11) 
energy

>  <rmsd>  (11) 
3.88956277714215

>  <m_score__min__rmsd>  (11) 
3.88956277714215

>  <meeko>  (11) 
{"free_energy": -8.93, "intermolecular_energy": -11.02, "internal_energy": -1.47, "cluster_size": 16, "cluster_id": 1, "rank_in_cluster": 5}

>  <energy>  (11) 
-8.52

>  <cluster_rmsd>  (11) 
1.54

>  <cluster>  (11) 
1

$$$$

     RDKit          3D

 53 55  0  0  0  0  0  0  0  0999 V2000
  139.1380   70.1260  222.1960 C   0  0  0  0  0  0  0  0  0  0  0  0
  138.9320   71.2700  223.1670 C   0  0  0  0  0  0  0  0  0  0  0  0
  140.2560   71.6890  223.7050 C   0  0  0  0  0  0  0  0  0  0  0  0
  137.8690   70.9890  224.1700 C   0  0  0  0  0  0  0  0  0  0  0  0
  137.7520   69.5800  224.6240 C   0  0  2  0  0  0  0  0  0  0  0  0
  136.4730   69.4340  225.3460 N   0  0  0  0  0  0  0  0  0  0  0  0
  135.3490   68.8740  224.6720 C   0  0  0  0  0  0  0  0  0  0  0  0
  135.4950   68.5220  223.4730 O   0  0  0  0  0  0  0  0  0  0  0  0
  134.0870   68.7430  225.4270 C   0  0  0  0  0  0  0  0  0  0  0  0
  133.4750   70.0330  225.5640 N   0  0  0  0  0  0  0  0  0  0  0  0
  133.8480   70.8350  226.6820 C   0  0  0  0  0  0  0  0  0  0  0  0
  134.6970   70.3880  227.5070 O   0  0  0  0  0  0  0  0  0  0  0  0
  133.2540   72.1550  226.8690 C   0  0  0  0  0  0  0  0  0  0  0  0
  131.9810   72.2520  227.3950 C   0  0  0  0  0  0  0  0  0  0  0  0
  131.3400   73.4550  227.6070 C   0  0  0  0  0  0  0  0  0  0  0  0
  132.0310   74.6000  227.2660 C   0  0  0  0  0  0  0  0  0  0  0  0
  131.4210   75.8220  227.4640 C   0  0  0  0  0  0  0  0  0  0  0  0
  132.0670   76.9980  227.1420 C   0  0  0  0  0  0  0  0  0  0  0  0
  131.4700   78.1860  227.3360 F   0  0  0  0  0  0  0  0  0  0  0  0
  133.3560   76.8950  226.6100 C   0  0  0  0  0  0  0  0  0  0  0  0
  133.9670   75.6740  226.4120 C   0  0  0  0  0  0  0  0  0  0  0  0
  133.3050   74.5090  226.7400 C   0  0  0  0  0  0  0  0  0  0  0  0
  133.9040   73.2980  226.5470 N   0  0  0  0  0  0  0  0  0  0  0  0
  138.7820   69.1300  225.5810 C   0  0  0  0  0  0  0  0  0  0  0  0
  139.4160   69.9670  226.4740 C   0  0  0  0  0  0  0  0  0  0  0  0
  140.3810   69.5430  227.3620 C   0  0  0  0  0  0  0  0  0  0  0  0
  140.7600   68.2170  227.3920 C   0  0  0  0  0  0  0  0  0  0  0  0
  140.1460   67.3500  226.5130 C   0  0  0  0  0  0  0  0  0  0  0  0
  139.1790   67.7880  225.6250 C   0  0  0  0  0  0  0  0  0  0  0  0
  139.3057   69.1947  222.7569 H   0  0  0  0  0  0  0  0  0  0  0  0
  138.2450   70.0171  221.5630 H   0  0  0  0  0  0  0  0  0  0  0  0
  140.0129   70.3354  221.5630 H   0  0  0  0  0  0  0  0  0  0  0  0
  138.5208   72.1469  222.6456 H   0  0  0  0  0  0  0  0  0  0  0  0
  140.2248   71.6791  224.8045 H   0  0  0  0  0  0  0  0  0  0  0  0
  141.0316   70.9924  223.3539 H   0  0  0  0  0  0  0  0  0  0  0  0
  140.4896   72.7050  223.3539 H   0  0  0  0  0  0  0  0  0  0  0  0
  138.0695   71.6111  225.0547 H   0  0  0  0  0  0  0  0  0  0  0  0
  136.9191   71.2149  223.6634 H   0  0  0  0  0  0  0  0  0  0  0  0
  137.8512   68.9795  223.7077 H   0  0  0  0  0  0  0  0  0  0  0  0
  136.4170   69.7440  226.3350 H   0  0  0  0  0  0  0  0  0  0  0  0
  133.4052   68.0693  224.8873 H   0  0  0  0  0  0  0  0  0  0  0  0
  134.2979   68.3297  226.4244 H   0  0  0  0  0  0  0  0  0  0  0  0
  132.7650   70.3880  224.8610 H   0  0  0  0  0  0  0  0  0  0  0  0
  131.4519   71.3242  227.6580 H   0  0  0  0  0  0  0  0  0  0  0  0
  130.3249   73.4996  228.0284 H   0  0  0  0  0  0  0  0  0  0  0  0
  130.4052   75.8590  227.8846 H   0  0  0  0  0  0  0  0  0  0  0  0
  133.8983   77.8136  226.3417 H   0  0  0  0  0  0  0  0  0  0  0  0
  134.9828   75.6294  225.9923 H   0  0  0  0  0  0  0  0  0  0  0  0
  139.1367   71.0309  226.4781 H   0  0  0  0  0  0  0  0  0  0  0  0
  140.8499   70.2635  228.0483 H   0  0  0  0  0  0  0  0  0  0  0  0
  141.5280   67.8624  228.0951 H   0  0  0  0  0  0  0  0  0  0  0  0
  140.4308   66.2875  226.5177 H   0  0  0  0  0  0  0  0  0  0  0  0
  138.7121   67.0661  224.9388 H   0  0  0  0  0  0  0  0  0  0  0  0
  1  2  1  0
  2  3  1  0
  2  4  1  0
  4  5  1  0
  5  6  1  0
  6  7  1  0
  7  8  2  0
  7  9  1  0
  9 10  1  0
 10 11  1  0
 11 12  2  0
 11 13  1  0
 13 14  2  0
 14 15  1  0
 15 16  2  0
 16 17  1  0
 17 18  2  0
 18 19  1  0
 18 20  1  0
 20 21  2  0
 21 22  1  0
 22 23  2  0
  5 24  1  0
 24 25  2  0
 25 26  1  0
 26 27  2  0
 27 28  1  0
 28 29  2  0
 23 13  1  0
 29 24  1  0
 22 16  1  0
  1 30  1  0
  1 31  1  0
  1 32  1  0
  2 33  1  0
  3 34  1  0
  3 35  1  0
  3 36  1  0
  4 37  1  0
  4 38  1  0
  5 39  1  6
  6 40  1  0
  9 41  1  0
  9 42  1  0
 10 43  1  0
 14 44  1  0
 15 45  1  0
 17 46  1  0
 20 47  1  0
 21 48  1  0
 25 49  1  0
 26 50  1  0
 27 51  1  0
 28 52  1  0
 29 53  1  0
M  END
>  <smiles>  (12) 
CC(C)C[C@H](NC(=O)CNC(=O)c1ccc2cc(F)ccc2n1)c1ccccc1

>  <score_type>  (12) 
oracle

>  <origin>  (12) 
autodockgpu

>  <m_score__min__energy>  (12) 
-9.1300000000000008

>  <m_primary>  (12) 
energy

>  <rmsd>  (12) 
8.823113176138532

>  <m_score__min__rmsd>  (12) 
8.823113176138532

>  <meeko>  (12) 
{"free_energy": -7.55, "intermolecular_energy": -9.63, "internal_energy": -2.24, "cluster_size": 1, "cluster_id": 6, "rank_in_cluster": 1}

>  <energy>  (12) 
-8.42

>  <cluster_rmsd>  (12) 
1.86

>  <cluster>  (12) 
1

$$$$

     RDKit          3D

 53 55  0  0  0  0  0  0  0  0999 V2000
  143.3140   76.1690  218.7200 C   0  0  0  0  0  0  0  0  0  0  0  0
  142.3040   77.1680  218.1930 C   0  0  0  0  0  0  0  0  0  0  0  0
  142.9010   77.8920  217.0370 C   0  0  0  0  0  0  0  0  0  0  0  0
  141.7150   78.0120  219.2680 C   0  0  0  0  0  0  0  0  0  0  0  0
  141.5420   77.3610  220.5920 C   0  0  2  0  0  0  0  0  0  0  0  0
  140.3970   76.4350  220.5040 N   0  0  0  0  0  0  0  0  0  0  0  0
  140.4180   75.2230  221.2520 C   0  0  0  0  0  0  0  0  0  0  0  0
  141.4260   74.9880  221.9680 O   0  0  0  0  0  0  0  0  0  0  0  0
  139.2540   74.3210  221.1380 C   0  0  0  0  0  0  0  0  0  0  0  0
  139.1730   73.4930  222.3070 N   0  0  0  0  0  0  0  0  0  0  0  0
  140.0970   72.4140  222.4270 C   0  0  0  0  0  0  0  0  0  0  0  0
  140.9480   72.2240  221.5110 O   0  0  0  0  0  0  0  0  0  0  0  0
  140.0570   71.5410  223.5970 C   0  0  0  0  0  0  0  0  0  0  0  0
  139.4670   70.2980  223.4880 C   0  0  0  0  0  0  0  0  0  0  0  0
  139.3830   69.4060  224.5370 C   0  0  0  0  0  0  0  0  0  0  0  0
  139.9250   69.8060  225.7430 C   0  0  0  0  0  0  0  0  0  0  0  0
  139.8580   68.9400  226.8150 C   0  0  0  0  0  0  0  0  0  0  0  0
  140.3850   69.2890  228.0420 C   0  0  0  0  0  0  0  0  0  0  0  0
  140.3190   68.4440  229.0840 F   0  0  0  0  0  0  0  0  0  0  0  0
  140.9820   70.5490  228.1470 C   0  0  0  0  0  0  0  0  0  0  0  0
  141.0480   71.4160  227.0760 C   0  0  0  0  0  0  0  0  0  0  0  0
  140.5160   71.0490  225.8570 C   0  0  0  0  0  0  0  0  0  0  0  0
  140.5790   71.9010  224.7930 N   0  0  0  0  0  0  0  0  0  0  0  0
  141.2130   78.2670  221.7100 C   0  0  0  0  0  0  0  0  0  0  0  0
  139.9670   78.3400  222.2960 C   0  0  0  0  0  0  0  0  0  0  0  0
  139.6640   79.1910  223.3370 C   0  0  0  0  0  0  0  0  0  0  0  0
  140.6300   80.0310  223.8500 C   0  0  0  0  0  0  0  0  0  0  0  0
  141.8890   79.9840  223.2890 C   0  0  0  0  0  0  0  0  0  0  0  0
  142.1810   79.1260  222.2440 C   0  0  0  0  0  0  0  0  0  0  0  0
  143.3019   76.1809  219.8199 H   0  0  0  0  0  0  0  0  0  0  0  0
  143.0550   75.1619  218.3614 H   0  0  0  0  0  0  0  0  0  0  0  0
  144.3182   76.4390  218.3614 H   0  0  0  0  0  0  0  0  0  0  0  0
  141.4162   76.6473  217.8048 H   0  0  0  0  0  0  0  0  0  0  0  0
  143.5603   78.6915  217.4060 H   0  0  0  0  0  0  0  0  0  0  0  0
  143.4848   77.1883  216.4255 H   0  0  0  0  0  0  0  0  0  0  0  0
  142.0989   78.3311  216.4255 H   0  0  0  0  0  0  0  0  0  0  0  0
  142.3699   78.8849  219.4062 H   0  0  0  0  0  0  0  0  0  0  0  0
  140.6989   78.2580  218.9258 H   0  0  0  0  0  0  0  0  0  0  0  0
  142.5146   76.8935  220.8053 H   0  0  0  0  0  0  0  0  0  0  0  0
  139.5950   76.6850  219.8950 H   0  0  0  0  0  0  0  0  0  0  0  0
  138.3348   74.9185  221.0477 H   0  0  0  0  0  0  0  0  0  0  0  0
  139.3684   73.6863  220.2469 H   0  0  0  0  0  0  0  0  0  0  0  0
  138.4520   73.6700  223.0640 H   0  0  0  0  0  0  0  0  0  0  0  0
  139.0427   70.0041  222.5166 H   0  0  0  0  0  0  0  0  0  0  0  0
  138.9064   68.4217  224.4186 H   0  0  0  0  0  0  0  0  0  0  0  0
  139.3781   67.9581  226.6901 H   0  0  0  0  0  0  0  0  0  0  0  0
  141.4114   70.8579  229.1115 H   0  0  0  0  0  0  0  0  0  0  0  0
  141.5249   72.4002  227.1939 H   0  0  0  0  0  0  0  0  0  0  0  0
  139.1721   77.6838  221.9120 H   0  0  0  0  0  0  0  0  0  0  0  0
  138.6486   79.2002  223.7599 H   0  0  0  0  0  0  0  0  0  0  0  0
  140.4036   80.7165  224.6800 H   0  0  0  0  0  0  0  0  0  0  0  0
  142.6778   80.6429  223.6809 H   0  0  0  0  0  0  0  0  0  0  0  0
  143.1972   79.1184  221.8229 H   0  0  0  0  0  0  0  0  0  0  0  0
  1  2  1  0
  2  3  1  0
  2  4  1  0
  4  5  1  0
  5  6  1  0
  6  7  1  0
  7  8  2  0
  7  9  1  0
  9 10  1  0
 10 11  1  0
 11 12  2  0
 11 13  1  0
 13 14  2  0
 14 15  1  0
 15 16  2  0
 16 17  1  0
 17 18  2  0
 18 19  1  0
 18 20  1  0
 20 21  2  0
 21 22  1  0
 22 23  2  0
  5 24  1  0
 24 25  2  0
 25 26  1  0
 26 27  2  0
 27 28  1  0
 28 29  2  0
 23 13  1  0
 29 24  1  0
 22 16  1  0
  1 30  1  0
  1 31  1  0
  1 32  1  0
  2 33  1  0
  3 34  1  0
  3 35  1  0
  3 36  1  0
  4 37  1  0
  4 38  1  0
  5 39  1  1
  6 40  1  0
  9 41  1  0
  9 42  1  0
 10 43  1  0
 14 44  1  0
 15 45  1  0
 17 46  1  0
 20 47  1  0
 21 48  1  0
 25 49  1  0
 26 50  1  0
 27 51  1  0
 28 52  1  0
 29 53  1  0
M  END
>  <smiles>  (13) 
CC(C)C[C@H](NC(=O)CNC(=O)c1ccc2cc(F)ccc2n1)c1ccccc1

>  <score_type>  (13) 
oracle

>  <origin>  (13) 
autodockgpu

>  <m_score__min__energy>  (13) 
-9.1300000000000008

>  <m_primary>  (13) 
energy

>  <rmsd>  (13) 
1.8763976035285068

>  <m_score__min__rmsd>  (13) 
1.8763976035285068

>  <meeko>  (13) 
{"free_energy": -8.61, "intermolecular_energy": -10.7, "internal_energy": -1.37, "cluster_size": 10, "cluster_id": 2, "rank_in_cluster": 3}

>  <energy>  (13) 
-8.34

>  <cluster_rmsd>  (13) 
1.58

>  <cluster>  (13) 
1

$$$$

     RDKit          3D

 53 55  0  0  0  0  0  0  0  0999 V2000
  145.6390   71.7990  219.6760 C   0  0  0  0  0  0  0  0  0  0  0  0
  145.3430   73.1780  220.2300 C   0  0  0  0  0  0  0  0  0  0  0  0
  146.1440   73.3810  221.4690 C   0  0  0  0  0  0  0  0  0  0  0  0
  143.8850   73.4550  220.3330 C   0  0  0  0  0  0  0  0  0  0  0  0
  143.4960   74.8820  220.4630 C   0  0  2  0  0  0  0  0  0  0  0  0
  142.1500   74.9400  221.0650 N   0  0  0  0  0  0  0  0  0  0  0  0
  141.0620   74.2920  220.4120 C   0  0  0  0  0  0  0  0  0  0  0  0
  141.2970   73.6890  219.3330 O   0  0  0  0  0  0  0  0  0  0  0  0
  139.7300   74.3720  221.0450 C   0  0  0  0  0  0  0  0  0  0  0  0
  139.7370   73.6240  222.2690 N   0  0  0  0  0  0  0  0  0  0  0  0
  140.0140   72.2280  222.1980 C   0  0  0  0  0  0  0  0  0  0  0  0
  140.2440   71.7000  221.0720 O   0  0  0  0  0  0  0  0  0  0  0  0
  140.0320   71.4210  223.4150 C   0  0  0  0  0  0  0  0  0  0  0  0
  139.5320   70.1350  223.3750 C   0  0  0  0  0  0  0  0  0  0  0  0
  139.5080   69.2990  224.4730 C   0  0  0  0  0  0  0  0  0  0  0  0
  140.0150   69.8030  225.6540 C   0  0  0  0  0  0  0  0  0  0  0  0
  140.0070   68.9960  226.7730 C   0  0  0  0  0  0  0  0  0  0  0  0
  140.5030   69.4490  227.9790 C   0  0  0  0  0  0  0  0  0  0  0  0
  140.4930   68.6600  229.0660 F   0  0  0  0  0  0  0  0  0  0  0  0
  141.0080   70.7520  228.0130 C   0  0  0  0  0  0  0  0  0  0  0  0
  141.0160   71.5600  226.8950 C   0  0  0  0  0  0  0  0  0  0  0  0
  140.5170   71.0890  225.6990 C   0  0  0  0  0  0  0  0  0  0  0  0
  140.5230   71.8830  224.5890 N   0  0  0  0  0  0  0  0  0  0  0  0
  143.3780   75.6300  219.1960 C   0  0  0  0  0  0  0  0  0  0  0  0
  143.6820   75.0980  217.9610 C   0  0  0  0  0  0  0  0  0  0  0  0
  143.5740   75.8020  216.7810 C   0  0  0  0  0  0  0  0  0  0  0  0
  143.1420   77.1110  216.7920 C   0  0  0  0  0  0  0  0  0  0  0  0
  142.8280   77.6770  218.0100 C   0  0  0  0  0  0  0  0  0  0  0  0
  142.9400   76.9600  219.1880 C   0  0  0  0  0  0  0  0  0  0  0  0
  145.7902   71.0946  220.5072 H   0  0  0  0  0  0  0  0  0  0  0  0
  144.7927   71.4622  219.0593 H   0  0  0  0  0  0  0  0  0  0  0  0
  146.5490   71.8392  219.0593 H   0  0  0  0  0  0  0  0  0  0  0  0
  145.6692   73.9544  219.5223 H   0  0  0  0  0  0  0  0  0  0  0  0
  145.5048   73.2190  222.3495 H   0  0  0  0  0  0  0  0  0  0  0  0
  146.9800   72.6663  221.4863 H   0  0  0  0  0  0  0  0  0  0  0  0
  146.5388   74.4076  221.4863 H   0  0  0  0  0  0  0  0  0  0  0  0
  143.4031   73.0570  219.4278 H   0  0  0  0  0  0  0  0  0  0  0  0
  143.5597   72.9751  221.2678 H   0  0  0  0  0  0  0  0  0  0  0  0
  144.3012   75.3397  221.0563 H   0  0  0  0  0  0  0  0  0  0  0  0
  142.0210   75.4550  221.9580 H   0  0  0  0  0  0  0  0  0  0  0  0
  139.4883   75.4235  221.2592 H   0  0  0  0  0  0  0  0  0  0  0  0
  138.9744   73.9537  220.3638 H   0  0  0  0  0  0  0  0  0  0  0  0
  139.5410   74.0870  223.2030 H   0  0  0  0  0  0  0  0  0  0  0  0
  139.1333   69.7581  222.4216 H   0  0  0  0  0  0  0  0  0  0  0  0
  139.1035   68.2780  224.4099 H   0  0  0  0  0  0  0  0  0  0  0  0
  139.5994   67.9767  226.7032 H   0  0  0  0  0  0  0  0  0  0  0  0
  141.4106   71.1443  228.9585 H   0  0  0  0  0  0  0  0  0  0  0  0
  141.4208   72.5809  226.9577 H   0  0  0  0  0  0  0  0  0  0  0  0
  144.0295   74.0554  217.9149 H   0  0  0  0  0  0  0  0  0  0  0  0
  143.8333   75.3180  215.8278 H   0  0  0  0  0  0  0  0  0  0  0  0
  143.0506   77.6861  215.8588 H   0  0  0  0  0  0  0  0  0  0  0  0
  142.4813   78.7203  218.0455 H   0  0  0  0  0  0  0  0  0  0  0  0
  142.6791   77.4457  220.1398 H   0  0  0  0  0  0  0  0  0  0  0  0
  1  2  1  0
  2  3  1  0
  2  4  1  0
  4  5  1  0
  5  6  1  0
  6  7  1  0
  7  8  2  0
  7  9  1  0
  9 10  1  0
 10 11  1  0
 11 12  2  0
 11 13  1  0
 13 14  2  0
 14 15  1  0
 15 16  2  0
 16 17  1  0
 17 18  2  0
 18 19  1  0
 18 20  1  0
 20 21  2  0
 21 22  1  0
 22 23  2  0
  5 24  1  0
 24 25  2  0
 25 26  1  0
 26 27  2  0
 27 28  1  0
 28 29  2  0
 23 13  1  0
 29 24  1  0
 22 16  1  0
  1 30  1  0
  1 31  1  0
  1 32  1  0
  2 33  1  0
  3 34  1  0
  3 35  1  0
  3 36  1  0
  4 37  1  0
  4 38  1  0
  5 39  1  1
  6 40  1  0
  9 41  1  0
  9 42  1  0
 10 43  1  0
 14 44  1  0
 15 45  1  0
 17 46  1  0
 20 47  1  0
 21 48  1  0
 25 49  1  0
 26 50  1  0
 27 51  1  0
 28 52  1  0
 29 53  1  0
M  END
>  <smiles>  (14) 
CC(C)C[C@H](NC(=O)CNC(=O)c1ccc2cc(F)ccc2n1)c1ccccc1

>  <score_type>  (14) 
oracle

>  <origin>  (14) 
autodockgpu

>  <m_score__min__energy>  (14) 
-9.1300000000000008

>  <m_primary>  (14) 
energy

>  <rmsd>  (14) 
3.503516428876609

>  <m_score__min__rmsd>  (14) 
3.503516428876609

>  <meeko>  (14) 
{"free_energy": -8.3, "intermolecular_energy": -10.39, "internal_energy": -1.55, "cluster_size": 4, "cluster_id": 3, "rank_in_cluster": 3}

>  <energy>  (14) 
-8.22

>  <cluster_rmsd>  (14) 
0.76

>  <cluster>  (14) 
1

$$$$

     RDKit          3D

 53 55  0  0  0  0  0  0  0  0999 V2000
  141.7850   78.7940  219.4510 C   0  0  0  0  0  0  0  0  0  0  0  0
  142.5270   77.4820  219.2970 C   0  0  0  0  0  0  0  0  0  0  0  0
  142.8870   77.2970  217.8640 C   0  0  0  0  0  0  0  0  0  0  0  0
  141.8250   76.3450  219.9540 C   0  0  0  0  0  0  0  0  0  0  0  0
  142.0850   74.9980  219.3870 C   0  0  2  0  0  0  0  0  0  0  0  0
  140.9090   74.1500  219.6590 N   0  0  0  0  0  0  0  0  0  0  0  0
  140.3540   74.1210  220.9700 C   0  0  0  0  0  0  0  0  0  0  0  0
  140.8970   74.8310  221.8560 O   0  0  0  0  0  0  0  0  0  0  0  0
  139.1770   73.2600  221.2040 C   0  0  0  0  0  0  0  0  0  0  0  0
  139.2440   72.7040  222.5240 N   0  0  0  0  0  0  0  0  0  0  0  0
  140.2670   71.7500  222.7960 C   0  0  0  0  0  0  0  0  0  0  0  0
  141.0730   71.4290  221.8750 O   0  0  0  0  0  0  0  0  0  0  0  0
  140.3800   71.1530  224.1240 C   0  0  0  0  0  0  0  0  0  0  0  0
  140.9690   71.8790  225.1390 C   0  0  0  0  0  0  0  0  0  0  0  0
  141.1190   71.3990  226.4240 C   0  0  0  0  0  0  0  0  0  0  0  0
  140.6460   70.1260  226.6750 C   0  0  0  0  0  0  0  0  0  0  0  0
  140.7780   69.6130  227.9480 C   0  0  0  0  0  0  0  0  0  0  0  0
  140.3220   68.3470  228.2540 C   0  0  0  0  0  0  0  0  0  0  0  0
  140.4530   67.8490  229.4950 F   0  0  0  0  0  0  0  0  0  0  0  0
  139.7250   67.6160  227.2220 C   0  0  0  0  0  0  0  0  0  0  0  0
  139.5920   68.1280  225.9480 C   0  0  0  0  0  0  0  0  0  0  0  0
  140.0540   69.3960  225.6630 C   0  0  0  0  0  0  0  0  0  0  0  0
  139.9250   69.9090  224.4040 N   0  0  0  0  0  0  0  0  0  0  0  0
  143.2250   74.2670  219.9730 C   0  0  0  0  0  0  0  0  0  0  0  0
  144.4310   74.8550  220.2910 C   0  0  0  0  0  0  0  0  0  0  0  0
  145.4940   74.1660  220.8340 C   0  0  0  0  0  0  0  0  0  0  0  0
  145.3870   72.8160  221.0910 C   0  0  0  0  0  0  0  0  0  0  0  0
  144.1940   72.1940  220.7880 C   0  0  0  0  0  0  0  0  0  0  0  0
  143.1340   72.8960  220.2410 C   0  0  0  0  0  0  0  0  0  0  0  0
  141.6573   79.0197  220.5200 H   0  0  0  0  0  0  0  0  0  0  0  0
  142.3613   79.5995  218.9724 H   0  0  0  0  0  0  0  0  0  0  0  0
  140.7977   78.7153  218.9724 H   0  0  0  0  0  0  0  0  0  0  0  0
  143.4769   77.5109  219.8509 H   0  0  0  0  0  0  0  0  0  0  0  0
  143.8633   76.7953  217.7930 H   0  0  0  0  0  0  0  0  0  0  0  0
  142.1213   76.6807  217.3702 H   0  0  0  0  0  0  0  0  0  0  0  0
  142.9423   78.2784  217.3702 H   0  0  0  0  0  0  0  0  0  0  0  0
  142.1292   76.3285  221.0110 H   0  0  0  0  0  0  0  0  0  0  0  0
  140.7524   76.5295  219.7940 H   0  0  0  0  0  0  0  0  0  0  0  0
  142.3054   75.1776  218.3244 H   0  0  0  0  0  0  0  0  0  0  0  0
  140.5060   73.5860  218.8840 H   0  0  0  0  0  0  0  0  0  0  0  0
  138.2596   73.8588  221.1049 H   0  0  0  0  0  0  0  0  0  0  0  0
  139.1664   72.4459  220.4643 H   0  0  0  0  0  0  0  0  0  0  0  0
  138.5580   72.9880  223.2820 H   0  0  0  0  0  0  0  0  0  0  0  0
  141.3372   72.8905  224.9125 H   0  0  0  0  0  0  0  0  0  0  0  0
  141.5934   72.0024  227.2120 H   0  0  0  0  0  0  0  0  0  0  0  0
  141.2537   70.2217  228.7310 H   0  0  0  0  0  0  0  0  0  0  0  0
  139.3506   66.6033  227.4323 H   0  0  0  0  0  0  0  0  0  0  0  0
  139.1176   67.5252  225.1596 H   0  0  0  0  0  0  0  0  0  0  0  0
  144.5511   75.9318  220.1011 H   0  0  0  0  0  0  0  0  0  0  0  0
  146.4308   74.6951  221.0630 H   0  0  0  0  0  0  0  0  0  0  0  0
  146.2266   72.2526  221.5241 H   0  0  0  0  0  0  0  0  0  0  0  0
  144.0826   71.1176  220.9851 H   0  0  0  0  0  0  0  0  0  0  0  0
  142.1987   72.3645  220.0116 H   0  0  0  0  0  0  0  0  0  0  0  0
  1  2  1  0
  2  3  1  0
  2  4  1  0
  4  5  1  0
  5  6  1  0
  6  7  1  0
  7  8  2  0
  7  9  1  0
  9 10  1  0
 10 11  1  0
 11 12  2  0
 11 13  1  0
 13 14  2  0
 14 15  1  0
 15 16  2  0
 16 17  1  0
 17 18  2  0
 18 19  1  0
 18 20  1  0
 20 21  2  0
 21 22  1  0
 22 23  2  0
  5 24  1  0
 24 25  2  0
 25 26  1  0
 26 27  2  0
 27 28  1  0
 28 29  2  0
 23 13  1  0
 29 24  1  0
 22 16  1  0
  1 30  1  0
  1 31  1  0
  1 32  1  0
  2 33  1  0
  3 34  1  0
  3 35  1  0
  3 36  1  0
  4 37  1  0
  4 38  1  0
  5 39  1  6
  6 40  1  0
  9 41  1  0
  9 42  1  0
 10 43  1  0
 14 44  1  0
 15 45  1  0
 17 46  1  0
 20 47  1  0
 21 48  1  0
 25 49  1  0
 26 50  1  0
 27 51  1  0
 28 52  1  0
 29 53  1  0
M  END
>  <smiles>  (15) 
CC(C)C[C@H](NC(=O)CNC(=O)c1ccc2cc(F)ccc2n1)c1ccccc1

>  <score_type>  (15) 
oracle

>  <origin>  (15) 
autodockgpu

>  <m_score__min__energy>  (15) 
-9.1300000000000008

>  <m_primary>  (15) 
energy

>  <rmsd>  (15) 
3.2667993226485423

>  <m_score__min__rmsd>  (15) 
3.2667993226485423

>  <meeko>  (15) 
{"free_energy": -8.24, "intermolecular_energy": -10.33, "internal_energy": -1.44, "cluster_size": 12, "cluster_id": 4, "rank_in_cluster": 1}

>  <energy>  (15) 
-7.66

>  <cluster_rmsd>  (15) 
1.96

>  <cluster>  (15) 
1

$$$$

     RDKit          3D

 53 55  0  0  0  0  0  0  0  0999 V2000
  134.3930   75.1310  224.1240 C   0  0  0  0  0  0  0  0  0  0  0  0
  135.5870   74.9010  223.2200 C   0  0  0  0  0  0  0  0  0  0  0  0
  135.9470   73.4560  223.2550 C   0  0  0  0  0  0  0  0  0  0  0  0
  136.6940   75.8640  223.4730 C   0  0  0  0  0  0  0  0  0  0  0  0
  137.6080   76.1270  222.3330 C   0  0  2  0  0  0  0  0  0  0  0  0
  138.2700   74.8600  221.9720 N   0  0  0  0  0  0  0  0  0  0  0  0
  138.2670   74.4290  220.6130 C   0  0  0  0  0  0  0  0  0  0  0  0
  137.6900   75.1590  219.7650 O   0  0  0  0  0  0  0  0  0  0  0  0
  138.9400   73.1550  220.2910 C   0  0  0  0  0  0  0  0  0  0  0  0
  138.8810   72.2810  221.4260 N   0  0  0  0  0  0  0  0  0  0  0  0
  139.8310   72.4760  222.4700 C   0  0  0  0  0  0  0  0  0  0  0  0
  140.6850   73.4030  222.3630 O   0  0  0  0  0  0  0  0  0  0  0  0
  139.8140   71.6130  223.6480 C   0  0  0  0  0  0  0  0  0  0  0  0
  139.0970   70.4340  223.6070 C   0  0  0  0  0  0  0  0  0  0  0  0
  139.0230   69.5560  224.6690 C   0  0  0  0  0  0  0  0  0  0  0  0
  139.7110   69.9030  225.8150 C   0  0  0  0  0  0  0  0  0  0  0  0
  139.6600   69.0490  226.8970 C   0  0  0  0  0  0  0  0  0  0  0  0
  140.3310   69.3450  228.0670 C   0  0  0  0  0  0  0  0  0  0  0  0
  140.2780   68.5120  229.1200 F   0  0  0  0  0  0  0  0  0  0  0  0
  141.0550   70.5400  228.1030 C   0  0  0  0  0  0  0  0  0  0  0  0
  141.1070   71.3950  227.0210 C   0  0  0  0  0  0  0  0  0  0  0  0
  140.4310   71.0800  225.8610 C   0  0  0  0  0  0  0  0  0  0  0  0
  140.4780   71.9210  224.7870 N   0  0  0  0  0  0  0  0  0  0  0  0
  138.7110   77.0690  222.6040 C   0  0  0  0  0  0  0  0  0  0  0  0
  138.5260   78.3540  223.0690 C   0  0  0  0  0  0  0  0  0  0  0  0
  139.5600   79.2310  223.3160 C   0  0  0  0  0  0  0  0  0  0  0  0
  140.8650   78.8430  223.1000 C   0  0  0  0  0  0  0  0  0  0  0  0
  141.0890   77.5640  222.6350 C   0  0  0  0  0  0  0  0  0  0  0  0
  140.0430   76.6920  222.3900 C   0  0  0  0  0  0  0  0  0  0  0  0
  134.7117   75.0696  225.1750 H   0  0  0  0  0  0  0  0  0  0  0  0
  133.9701   76.1271  223.9266 H   0  0  0  0  0  0  0  0  0  0  0  0
  133.6304   74.3632  223.9266 H   0  0  0  0  0  0  0  0  0  0  0  0
  135.3264   75.1277  222.1756 H   0  0  0  0  0  0  0  0  0  0  0  0
  136.0297   73.1240  224.3004 H   0  0  0  0  0  0  0  0  0  0  0  0
  135.1671   72.8714  222.7452 H   0  0  0  0  0  0  0  0  0  0  0  0
  136.9101   73.3056  222.7452 H   0  0  0  0  0  0  0  0  0  0  0  0
  136.2435   76.8226  223.7699 H   0  0  0  0  0  0  0  0  0  0  0  0
  137.3184   75.3971  224.2490 H   0  0  0  0  0  0  0  0  0  0  0  0
  136.9675   76.5659  221.5538 H   0  0  0  0  0  0  0  0  0  0  0  0
  138.7290   74.3020  222.7180 H   0  0  0  0  0  0  0  0  0  0  0  0
  138.4358   72.6802  219.4364 H   0  0  0  0  0  0  0  0  0  0  0  0
  139.9916   73.3513  220.0347 H   0  0  0  0  0  0  0  0  0  0  0  0
  138.1560   71.5100  221.4950 H   0  0  0  0  0  0  0  0  0  0  0  0
  138.5579   70.1819  222.6819 H   0  0  0  0  0  0  0  0  0  0  0  0
  138.4431   68.6234  224.6057 H   0  0  0  0  0  0  0  0  0  0  0  0
  139.0766   68.1191  226.8268 H   0  0  0  0  0  0  0  0  0  0  0  0
  141.5994   70.8068  229.0208 H   0  0  0  0  0  0  0  0  0  0  0  0
  141.6874   72.3273  227.0838 H   0  0  0  0  0  0  0  0  0  0  0  0
  137.4973   78.6976  223.2527 H   0  0  0  0  0  0  0  0  0  0  0  0
  139.3433   80.2437  223.6866 H   0  0  0  0  0  0  0  0  0  0  0  0
  141.7010   79.5315  223.2924 H   0  0  0  0  0  0  0  0  0  0  0  0
  142.1215   77.2300  222.4550 H   0  0  0  0  0  0  0  0  0  0  0  0
  140.2624   75.6800  222.0188 H   0  0  0  0  0  0  0  0  0  0  0  0
  1  2  1  0
  2  3  1  0
  2  4  1  0
  4  5  1  0
  5  6  1  0
  6  7  1  0
  7  8  2  0
  7  9  1  0
  9 10  1  0
 10 11  1  0
 11 12  2  0
 11 13  1  0
 13 14  2  0
 14 15  1  0
 15 16  2  0
 16 17  1  0
 17 18  2  0
 18 19  1  0
 18 20  1  0
 20 21  2  0
 21 22  1  0
 22 23  2  0
  5 24  1  0
 24 25  2  0
 25 26  1  0
 26 27  2  0
 27 28  1  0
 28 29  2  0
 23 13  1  0
 29 24  1  0
 22 16  1  0
  1 30  1  0
  1 31  1  0
  1 32  1  0
  2 33  1  0
  3 34  1  0
  3 35  1  0
  3 36  1  0
  4 37  1  0
  4 38  1  0
  5 39  1  6
  6 40  1  0
  9 41  1  0
  9 42  1  0
 10 43  1  0
 14 44  1  0
 15 45  1  0
 17 46  1  0
 20 47  1  0
 21 48  1  0
 25 49  1  0
 26 50  1  0
 27 51  1  0
 28 52  1  0
 29 53  1  0
M  END
>  <smiles>  (16) 
CC(C)C[C@H](NC(=O)CNC(=O)c1ccc2cc(F)ccc2n1)c1ccccc1

>  <score_type>  (16) 
oracle

>  <origin>  (16) 
autodockgpu

>  <m_score__min__energy>  (16) 
-9.1300000000000008

>  <m_primary>  (16) 
energy

>  <rmsd>  (16) 
4.028609786409623

>  <m_score__min__rmsd>  (16) 
4.028609786409623

>  <meeko>  (16) 
{"free_energy": -7.65, "intermolecular_energy": -9.73, "internal_energy": -2.36, "cluster_size": 7, "cluster_id": 5, "rank_in_cluster": 1}

>  <energy>  (16) 
-7.48

>  <cluster_rmsd>  (16) 
1.94

>  <cluster>  (16) 
1

$$$$

     RDKit          3D

 53 55  0  0  0  0  0  0  0  0999 V2000
  142.3860   77.2680  216.9270 C   0  0  0  0  0  0  0  0  0  0  0  0
  142.8430   77.3340  218.3700 C   0  0  0  0  0  0  0  0  0  0  0  0
  143.3150   75.9850  218.7880 C   0  0  0  0  0  0  0  0  0  0  0  0
  141.8460   77.9900  219.2590 C   0  0  0  0  0  0  0  0  0  0  0  0
  141.6290   77.3540  220.5830 C   0  0  2  0  0  0  0  0  0  0  0  0
  140.4710   76.4460  220.4740 N   0  0  0  0  0  0  0  0  0  0  0  0
  140.4440   75.2500  221.2460 C   0  0  0  0  0  0  0  0  0  0  0  0
  141.4230   75.0130  222.0010 O   0  0  0  0  0  0  0  0  0  0  0  0
  139.2690   74.3660  221.1100 C   0  0  0  0  0  0  0  0  0  0  0  0
  139.1650   73.5250  222.2670 N   0  0  0  0  0  0  0  0  0  0  0  0
  140.0990   72.4570  222.4020 C   0  0  0  0  0  0  0  0  0  0  0  0
  140.9790   72.2880  221.5080 O   0  0  0  0  0  0  0  0  0  0  0  0
  140.0370   71.5700  223.5610 C   0  0  0  0  0  0  0  0  0  0  0  0
  139.4200   70.3420  223.4350 C   0  0  0  0  0  0  0  0  0  0  0  0
  139.3140   69.4390  224.4720 C   0  0  0  0  0  0  0  0  0  0  0  0
  139.8610   69.8120  225.6840 C   0  0  0  0  0  0  0  0  0  0  0  0
  139.7740   68.9340  226.7450 C   0  0  0  0  0  0  0  0  0  0  0  0
  140.3050   69.2560  227.9780 C   0  0  0  0  0  0  0  0  0  0  0  0
  140.2180   68.3990  229.0090 F   0  0  0  0  0  0  0  0  0  0  0  0
  140.9290   70.5010  228.0990 C   0  0  0  0  0  0  0  0  0  0  0  0
  141.0170   71.3790  227.0390 C   0  0  0  0  0  0  0  0  0  0  0  0
  140.4800   71.0390  225.8150 C   0  0  0  0  0  0  0  0  0  0  0  0
  140.5640   71.9040  224.7620 N   0  0  0  0  0  0  0  0  0  0  0  0
  141.2870   78.2750  221.6850 C   0  0  0  0  0  0  0  0  0  0  0  0
  142.1950   79.1170  222.2900 C   0  0  0  0  0  0  0  0  0  0  0  0
  141.8720   79.9720  223.3220 C   0  0  0  0  0  0  0  0  0  0  0  0
  140.5800   80.0190  223.8030 C   0  0  0  0  0  0  0  0  0  0  0  0
  139.6440   79.1920  223.2210 C   0  0  0  0  0  0  0  0  0  0  0  0
  139.9810   78.3370  222.1860 C   0  0  0  0  0  0  0  0  0  0  0  0
  141.2978   77.1108  216.8939 H   0  0  0  0  0  0  0  0  0  0  0  0
  142.6358   78.2115  216.4197 H   0  0  0  0  0  0  0  0  0  0  0  0
  142.8926   76.4337  216.4197 H   0  0  0  0  0  0  0  0  0  0  0  0
  143.7081   78.0063  218.4682 H   0  0  0  0  0  0  0  0  0  0  0  0
  143.3351   75.9276  219.8863 H   0  0  0  0  0  0  0  0  0  0  0  0
  142.6316   75.2188  218.3932 H   0  0  0  0  0  0  0  0  0  0  0  0
  144.3271   75.8120  218.3932 H   0  0  0  0  0  0  0  0  0  0  0  0
  142.1809   79.0231  219.4339 H   0  0  0  0  0  0  0  0  0  0  0  0
  140.8837   77.9086  218.7323 H   0  0  0  0  0  0  0  0  0  0  0  0
  142.5881   76.8726  220.8245 H   0  0  0  0  0  0  0  0  0  0  0  0
  139.6950   76.6980  219.8320 H   0  0  0  0  0  0  0  0  0  0  0  0
  138.3592   74.9774  221.0185 H   0  0  0  0  0  0  0  0  0  0  0  0
  139.3834   73.7408  220.2122 H   0  0  0  0  0  0  0  0  0  0  0  0
  138.4200   73.6840  223.0040 H   0  0  0  0  0  0  0  0  0  0  0  0
  138.9915   70.0700  222.4591 H   0  0  0  0  0  0  0  0  0  0  0  0
  138.8168   68.4667  224.3399 H   0  0  0  0  0  0  0  0  0  0  0  0
  139.2745   67.9638  226.6064 H   0  0  0  0  0  0  0  0  0  0  0  0
  141.3626   70.7889  229.0681 H   0  0  0  0  0  0  0  0  0  0  0  0
  141.5156   72.3507  227.1699 H   0  0  0  0  0  0  0  0  0  0  0  0
  143.2343   79.1062  221.9297 H   0  0  0  0  0  0  0  0  0  0  0  0
  142.6458   80.6178  223.7626 H   0  0  0  0  0  0  0  0  0  0  0  0
  140.3054   80.6957  224.6256 H   0  0  0  0  0  0  0  0  0  0  0  0
  138.6068   79.2117  223.5867 H   0  0  0  0  0  0  0  0  0  0  0  0
  139.2056   77.6918  221.7473 H   0  0  0  0  0  0  0  0  0  0  0  0
  1  2  1  0
  2  3  1  0
  2  4  1  0
  4  5  1  0
  5  6  1  0
  6  7  1  0
  7  8  2  0
  7  9  1  0
  9 10  1  0
 10 11  1  0
 11 12  2  0
 11 13  1  0
 13 14  2  0
 14 15  1  0
 15 16  2  0
 16 17  1  0
 17 18  2  0
 18 19  1  0
 18 20  1  0
 20 21  2  0
 21 22  1  0
 22 23  2  0
  5 24  1  0
 24 25  2  0
 25 26  1  0
 26 27  2  0
 27 28  1  0
 28 29  2  0
 23 13  1  0
 29 24  1  0
 22 16  1  0
  1 30  1  0
  1 31  1  0
  1 32  1  0
  2 33  1  0
  3 34  1  0
  3 35  1  0
  3 36  1  0
  4 37  1  0
  4 38  1  0
  5 39  1  1
  6 40  1  0
  9 41  1  0
  9 42  1  0
 10 43  1  0
 14 44  1  0
 15 45  1  0
 17 46  1  0
 20 47  1  0
 21 48  1  0
 25 49  1  0
 26 50  1  0
 27 51  1  0
 28 52  1  0
 29 53  1  0
M  END
>  <smiles>  (17) 
CC(C)C[C@H](NC(=O)CNC(=O)c1ccc2cc(F)ccc2n1)c1ccccc1

>  <score_type>  (17) 
oracle

>  <origin>  (17) 
autodockgpu

>  <m_score__min__energy>  (17) 
-9.1300000000000008

>  <m_primary>  (17) 
energy

>  <rmsd>  (17) 
2.030684965892501

>  <m_score__min__rmsd>  (17) 
2.030684965892501

>  <meeko>  (17) 
{"free_energy": -8.55, "intermolecular_energy": -10.64, "internal_energy": -1.36, "cluster_size": 10, "cluster_id": 2, "rank_in_cluster": 6}

>  <energy>  (17) 
-8.67

>  <cluster_rmsd>  (17) 
0.0

>  <cluster>  (17) 
2

$$$$

     RDKit          3D

 53 55  0  0  0  0  0  0  0  0999 V2000
  140.1610   80.1890  223.5820 C   0  0  0  0  0  0  0  0  0  0  0  0
  141.5380   79.6250  223.8680 C   0  0  0  0  0  0  0  0  0  0  0  0
  142.5600   80.6490  223.5180 C   0  0  0  0  0  0  0  0  0  0  0  0
  141.7350   78.2680  223.2880 C   0  0  0  0  0  0  0  0  0  0  0  0
  140.9450   77.9540  222.0710 C   0  0  2  0  0  0  0  0  0  0  0  0
  141.0390   76.5020  221.8230 N   0  0  0  0  0  0  0  0  0  0  0  0
  140.0050   75.8480  221.0930 C   0  0  0  0  0  0  0  0  0  0  0  0
  139.0400   76.5450  220.6840 O   0  0  0  0  0  0  0  0  0  0  0  0
  140.1350   74.3950  220.8650 C   0  0  0  0  0  0  0  0  0  0  0  0
  139.9490   73.6970  222.1040 N   0  0  0  0  0  0  0  0  0  0  0  0
  140.2950   72.3150  222.1520 C   0  0  0  0  0  0  0  0  0  0  0  0
  140.7500   71.7560  221.1120 O   0  0  0  0  0  0  0  0  0  0  0  0
  140.1240   71.5580  223.3880 C   0  0  0  0  0  0  0  0  0  0  0  0
  139.3580   70.4100  223.3730 C   0  0  0  0  0  0  0  0  0  0  0  0
  139.1410   69.6300  224.4910 C   0  0  0  0  0  0  0  0  0  0  0  0
  139.7330   70.0460  225.6670 C   0  0  0  0  0  0  0  0  0  0  0  0
  139.5370   69.2920  226.8050 C   0  0  0  0  0  0  0  0  0  0  0  0
  140.1060   69.6600  228.0080 C   0  0  0  0  0  0  0  0  0  0  0  0
  139.9140   68.9240  229.1150 F   0  0  0  0  0  0  0  0  0  0  0  0
  140.8810   70.8240  228.0170 C   0  0  0  0  0  0  0  0  0  0  0  0
  141.0770   71.5800  226.8800 C   0  0  0  0  0  0  0  0  0  0  0  0
  140.5000   71.1940  225.6870 C   0  0  0  0  0  0  0  0  0  0  0  0
  140.6900   71.9360  224.5580 N   0  0  0  0  0  0  0  0  0  0  0  0
  141.4170   78.5840  220.8230 C   0  0  0  0  0  0  0  0  0  0  0  0
  142.0770   77.9030  219.8220 C   0  0  0  0  0  0  0  0  0  0  0  0
  142.5210   78.4980  218.6610 C   0  0  0  0  0  0  0  0  0  0  0  0
  142.3120   79.8440  218.4480 C   0  0  0  0  0  0  0  0  0  0  0  0
  141.6530   80.5580  219.4270 C   0  0  0  0  0  0  0  0  0  0  0  0
  141.2140   79.9500  220.5900 C   0  0  0  0  0  0  0  0  0  0  0  0
  139.6467   80.3997  224.5312 H   0  0  0  0  0  0  0  0  0  0  0  0
  140.2588   81.1195  223.0036 H   0  0  0  0  0  0  0  0  0  0  0  0
  139.5779   79.4573  223.0036 H   0  0  0  0  0  0  0  0  0  0  0  0
  141.6568   79.4283  224.9437 H   0  0  0  0  0  0  0  0  0  0  0  0
  142.9840   81.0738  224.4398 H   0  0  0  0  0  0  0  0  0  0  0  0
  143.3613   80.1805  222.9278 H   0  0  0  0  0  0  0  0  0  0  0  0
  142.0899   81.4494  222.9278 H   0  0  0  0  0  0  0  0  0  0  0  0
  142.7999   78.1635  223.0330 H   0  0  0  0  0  0  0  0  0  0  0  0
  141.3822   77.5652  224.0572 H   0  0  0  0  0  0  0  0  0  0  0  0
  139.9354   78.3347  222.2849 H   0  0  0  0  0  0  0  0  0  0  0  0
  141.8610   75.9830  222.1880 H   0  0  0  0  0  0  0  0  0  0  0  0
  139.3731   74.0679  220.1422 H   0  0  0  0  0  0  0  0  0  0  0  0
  141.1368   74.1749  220.4675 H   0  0  0  0  0  0  0  0  0  0  0  0
  139.5660   74.1850  222.9640 H   0  0  0  0  0  0  0  0  0  0  0  0
  138.8975   70.1013  222.4229 H   0  0  0  0  0  0  0  0  0  0  0  0
  138.5252   68.7196  224.4471 H   0  0  0  0  0  0  0  0  0  0  0  0
  138.9182   68.3840  226.7535 H   0  0  0  0  0  0  0  0  0  0  0  0
  141.3484   71.1464  228.9591 H   0  0  0  0  0  0  0  0  0  0  0  0
  141.6930   72.4903  226.9240 H   0  0  0  0  0  0  0  0  0  0  0  0
  142.2589   76.8266  219.9575 H   0  0  0  0  0  0  0  0  0  0  0  0
  143.0436   77.8973  217.9020 H   0  0  0  0  0  0  0  0  0  0  0  0
  142.6599   80.3332  217.5262 H   0  0  0  0  0  0  0  0  0  0  0  0
  141.4727   81.6331  219.2802 H   0  0  0  0  0  0  0  0  0  0  0  0
  140.6938   80.5532  221.3486 H   0  0  0  0  0  0  0  0  0  0  0  0
  1  2  1  0
  2  3  1  0
  2  4  1  0
  4  5  1  0
  5  6  1  0
  6  7  1  0
  7  8  2  0
  7  9  1  0
  9 10  1  0
 10 11  1  0
 11 12  2  0
 11 13  1  0
 13 14  2  0
 14 15  1  0
 15 16  2  0
 16 17  1  0
 17 18  2  0
 18 19  1  0
 18 20  1  0
 20 21  2  0
 21 22  1  0
 22 23  2  0
  5 24  1  0
 24 25  2  0
 25 26  1  0
 26 27  2  0
 27 28  1  0
 28 29  2  0
 23 13  1  0
 29 24  1  0
 22 16  1  0
  1 30  1  0
  1 31  1  0
  1 32  1  0
  2 33  1  0
  3 34  1  0
  3 35  1  0
  3 36  1  0
  4 37  1  0
  4 38  1  0
  5 39  1  1
  6 40  1  0
  9 41  1  0
  9 42  1  0
 10 43  1  0
 14 44  1  0
 15 45  1  0
 17 46  1  0
 20 47  1  0
 21 48  1  0
 25 49  1  0
 26 50  1  0
 27 51  1  0
 28 52  1  0
 29 53  1  0
M  END
>  <smiles>  (18) 
CC(C)C[C@H](NC(=O)CNC(=O)c1ccc2cc(F)ccc2n1)c1ccccc1

>  <score_type>  (18) 
oracle

>  <origin>  (18) 
autodockgpu

>  <m_score__min__energy>  (18) 
-9.1300000000000008

>  <m_primary>  (18) 
energy

>  <rmsd>  (18) 
3.9022728110994778

>  <m_score__min__rmsd>  (18) 
3.9022728110994778

>  <meeko>  (18) 
{"free_energy": -8.9, "intermolecular_energy": -10.99, "internal_energy": -1.34, "cluster_size": 16, "cluster_id": 1, "rank_in_cluster": 6}

>  <energy>  (18) 
-8.64

>  <cluster_rmsd>  (18) 
0.18

>  <cluster>  (18) 
2

$$$$

     RDKit          3D

 53 55  0  0  0  0  0  0  0  0999 V2000
  140.1590   80.1410  223.6040 C   0  0  0  0  0  0  0  0  0  0  0  0
  141.5340   79.5680  223.8800 C   0  0  0  0  0  0  0  0  0  0  0  0
  142.5510   80.6350  223.6680 C   0  0  0  0  0  0  0  0  0  0  0  0
  141.7710   78.2780  223.1760 C   0  0  0  0  0  0  0  0  0  0  0  0
  140.9870   78.0540  221.9350 C   0  0  2  0  0  0  0  0  0  0  0  0
  141.0730   76.6230  221.5880 N   0  0  0  0  0  0  0  0  0  0  0  0
  139.8790   75.8490  221.5090 C   0  0  0  0  0  0  0  0  0  0  0  0
  138.7850   76.4260  221.7400 O   0  0  0  0  0  0  0  0  0  0  0  0
  140.0050   74.4190  221.1590 C   0  0  0  0  0  0  0  0  0  0  0  0
  139.7710   73.6190  222.3250 N   0  0  0  0  0  0  0  0  0  0  0  0
  140.5160   72.4120  222.4690 C   0  0  0  0  0  0  0  0  0  0  0  0
  141.3510   72.0920  221.5740 O   0  0  0  0  0  0  0  0  0  0  0  0
  140.3150   71.5600  223.6380 C   0  0  0  0  0  0  0  0  0  0  0  0
  139.6210   70.3750  223.4940 C   0  0  0  0  0  0  0  0  0  0  0  0
  139.3830   69.5070  224.5390 C   0  0  0  0  0  0  0  0  0  0  0  0
  139.8740   69.8700  225.7770 C   0  0  0  0  0  0  0  0  0  0  0  0
  139.6540   69.0260  226.8460 C   0  0  0  0  0  0  0  0  0  0  0  0
  140.1250   69.3380  228.1060 C   0  0  0  0  0  0  0  0  0  0  0  0
  139.9090   68.5150  229.1450 F   0  0  0  0  0  0  0  0  0  0  0  0
  140.8260   70.5400  228.2460 C   0  0  0  0  0  0  0  0  0  0  0  0
  141.0460   71.3850  227.1780 C   0  0  0  0  0  0  0  0  0  0  0  0
  140.5690   71.0540  225.9260 C   0  0  0  0  0  0  0  0  0  0  0  0
  140.7840   71.8850  224.8650 N   0  0  0  0  0  0  0  0  0  0  0  0
  141.4730   78.7650  220.7360 C   0  0  0  0  0  0  0  0  0  0  0  0
  142.0590   78.1380  219.6580 C   0  0  0  0  0  0  0  0  0  0  0  0
  142.5150   78.8080  218.5420 C   0  0  0  0  0  0  0  0  0  0  0  0
  142.3970   80.1790  218.4610 C   0  0  0  0  0  0  0  0  0  0  0  0
  141.8140   80.8410  219.5210 C   0  0  0  0  0  0  0  0  0  0  0  0
  141.3610   80.1580  220.6360 C   0  0  0  0  0  0  0  0  0  0  0  0
  139.6518   80.3524  224.5569 H   0  0  0  0  0  0  0  0  0  0  0  0
  140.2589   81.0724  223.0273 H   0  0  0  0  0  0  0  0  0  0  0  0
  139.5679   79.4143  223.0273 H   0  0  0  0  0  0  0  0  0  0  0  0
  141.6206   79.2664  224.9343 H   0  0  0  0  0  0  0  0  0  0  0  0
  142.9033   81.0046  224.6423 H   0  0  0  0  0  0  0  0  0  0  0  0
  143.4006   80.2246  223.1025 H   0  0  0  0  0  0  0  0  0  0  0  0
  142.1003   81.4639  223.1025 H   0  0  0  0  0  0  0  0  0  0  0  0
  142.8378   78.2310  222.9119 H   0  0  0  0  0  0  0  0  0  0  0  0
  141.4426   77.4960  223.8765 H   0  0  0  0  0  0  0  0  0  0  0  0
  139.9784   78.4260  222.1682 H   0  0  0  0  0  0  0  0  0  0  0  0
  142.0060   76.2050  221.4090 H   0  0  0  0  0  0  0  0  0  0  0  0
  139.2657   74.1644  220.3853 H   0  0  0  0  0  0  0  0  0  0  0  0
  141.0178   74.2230  220.7772 H   0  0  0  0  0  0  0  0  0  0  0  0
  139.0660   73.9070  223.0640 H   0  0  0  0  0  0  0  0  0  0  0  0
  139.2392   70.1103  222.4969 H   0  0  0  0  0  0  0  0  0  0  0  0
  138.8276   68.5688  224.3927 H   0  0  0  0  0  0  0  0  0  0  0  0
  139.0953   68.0910  226.6923 H   0  0  0  0  0  0  0  0  0  0  0  0
  141.2133   70.8199  229.2368 H   0  0  0  0  0  0  0  0  0  0  0  0
  141.6018   72.3229  227.3243 H   0  0  0  0  0  0  0  0  0  0  0  0
  142.1691   77.0440  219.6892 H   0  0  0  0  0  0  0  0  0  0  0  0
  142.9739   78.2469  217.7146 H   0  0  0  0  0  0  0  0  0  0  0  0
  142.7567   80.7280  217.5782 H   0  0  0  0  0  0  0  0  0  0  0  0
  141.7068   81.9350  219.4793 H   0  0  0  0  0  0  0  0  0  0  0  0
  140.9027   80.7213  221.4622 H   0  0  0  0  0  0  0  0  0  0  0  0
  1  2  1  0
  2  3  1  0
  2  4  1  0
  4  5  1  0
  5  6  1  0
  6  7  1  0
  7  8  2  0
  7  9  1  0
  9 10  1  0
 10 11  1  0
 11 12  2  0
 11 13  1  0
 13 14  2  0
 14 15  1  0
 15 16  2  0
 16 17  1  0
 17 18  2  0
 18 19  1  0
 18 20  1  0
 20 21  2  0
 21 22  1  0
 22 23  2  0
  5 24  1  0
 24 25  2  0
 25 26  1  0
 26 27  2  0
 27 28  1  0
 28 29  2  0
 23 13  1  0
 29 24  1  0
 22 16  1  0
  1 30  1  0
  1 31  1  0
  1 32  1  0
  2 33  1  0
  3 34  1  0
  3 35  1  0
  3 36  1  0
  4 37  1  0
  4 38  1  0
  5 39  1  1
  6 40  1  0
  9 41  1  0
  9 42  1  0
 10 43  1  0
 14 44  1  0
 15 45  1  0
 17 46  1  0
 20 47  1  0
 21 48  1  0
 25 49  1  0
 26 50  1  0
 27 51  1  0
 28 52  1  0
 29 53  1  0
M  END
>  <smiles>  (19) 
CC(C)C[C@H](NC(=O)CNC(=O)c1ccc2cc(F)ccc2n1)c1ccccc1

>  <score_type>  (19) 
oracle

>  <origin>  (19) 
autodockgpu

>  <m_score__min__energy>  (19) 
-9.1300000000000008

>  <m_primary>  (19) 
energy

>  <rmsd>  (19) 
3.883771117394163

>  <m_score__min__rmsd>  (19) 
3.883771117394163

>  <meeko>  (19) 
{"free_energy": -9.13, "intermolecular_energy": -11.22, "internal_energy": -1.36, "cluster_size": 16, "cluster_id": 1, "rank_in_cluster": 1}

>  <energy>  (19) 
-8.61

>  <cluster_rmsd>  (19) 
0.31

>  <cluster>  (19) 
2

$$$$

     RDKit          3D

 53 55  0  0  0  0  0  0  0  0999 V2000
  140.9670   78.5700  220.9950 C   0  0  0  0  0  0  0  0  0  0  0  0
  140.7640   78.2280  222.4570 C   0  0  0  0  0  0  0  0  0  0  0  0
  141.7590   78.9820  223.2710 C   0  0  0  0  0  0  0  0  0  0  0  0
  140.6860   76.7620  222.7000 C   0  0  0  0  0  0  0  0  0  0  0  0
  140.4350   75.9120  221.5080 C   0  0  2  0  0  0  0  0  0  0  0  0
  139.4770   74.8570  221.8890 N   0  0  0  0  0  0  0  0  0  0  0  0
  138.6570   74.2610  220.8880 C   0  0  0  0  0  0  0  0  0  0  0  0
  138.7850   74.6650  219.7030 O   0  0  0  0  0  0  0  0  0  0  0  0
  137.7100   73.2080  221.3070 C   0  0  0  0  0  0  0  0  0  0  0  0
  138.1280   72.6610  222.5650 N   0  0  0  0  0  0  0  0  0  0  0  0
  139.1960   71.7170  222.5620 C   0  0  0  0  0  0  0  0  0  0  0  0
  139.7330   71.3970  221.4620 O   0  0  0  0  0  0  0  0  0  0  0  0
  139.6600   71.1290  223.8150 C   0  0  0  0  0  0  0  0  0  0  0  0
  140.4590   71.8800  224.6540 C   0  0  0  0  0  0  0  0  0  0  0  0
  140.9430   71.4100  225.8570 C   0  0  0  0  0  0  0  0  0  0  0  0
  140.5950   70.1220  226.2110 C   0  0  0  0  0  0  0  0  0  0  0  0
  141.0620   69.6180  227.4080 C   0  0  0  0  0  0  0  0  0  0  0  0
  140.7430   68.3370  227.8110 C   0  0  0  0  0  0  0  0  0  0  0  0
  141.2000   67.8490  228.9760 F   0  0  0  0  0  0  0  0  0  0  0  0
  139.9340   67.5810  226.9580 C   0  0  0  0  0  0  0  0  0  0  0  0
  139.4660   68.0840  225.7610 C   0  0  0  0  0  0  0  0  0  0  0  0
  139.7950   69.3670  225.3760 C   0  0  0  0  0  0  0  0  0  0  0  0
  139.3360   69.8700  224.1930 N   0  0  0  0  0  0  0  0  0  0  0  0
  141.6090   75.1880  220.9820 C   0  0  0  0  0  0  0  0  0  0  0  0
  141.8560   73.8530  221.2200 C   0  0  0  0  0  0  0  0  0  0  0  0
  142.9560   73.1820  220.7300 C   0  0  0  0  0  0  0  0  0  0  0  0
  143.8830   73.8460  219.9540 C   0  0  0  0  0  0  0  0  0  0  0  0
  143.6680   75.1830  219.6940 C   0  0  0  0  0  0  0  0  0  0  0  0
  142.5600   75.8450  220.1920 C   0  0  0  0  0  0  0  0  0  0  0  0
  141.5269   79.5133  220.9134 H   0  0  0  0  0  0  0  0  0  0  0  0
  141.5331   77.7641  220.5051 H   0  0  0  0  0  0  0  0  0  0  0  0
  139.9884   78.6809  220.5051 H   0  0  0  0  0  0  0  0  0  0  0  0
  139.7725   78.5635  222.7951 H   0  0  0  0  0  0  0  0  0  0  0  0
  141.5523   78.8254  224.3400 H   0  0  0  0  0  0  0  0  0  0  0  0
  142.7720   78.6227  223.0369 H   0  0  0  0  0  0  0  0  0  0  0  0
  141.6871   80.0544  223.0369 H   0  0  0  0  0  0  0  0  0  0  0  0
  141.6410   76.4441  223.1438 H   0  0  0  0  0  0  0  0  0  0  0  0
  139.8128   76.6180  223.3533 H   0  0  0  0  0  0  0  0  0  0  0  0
  140.0881   76.6099  220.7318 H   0  0  0  0  0  0  0  0  0  0  0  0
  139.4180   74.5680  222.8850 H   0  0  0  0  0  0  0  0  0  0  0  0
  136.7039   73.6403  221.4115 H   0  0  0  0  0  0  0  0  0  0  0  0
  137.6901   72.4107  220.5494 H   0  0  0  0  0  0  0  0  0  0  0  0
  137.6630   72.9440  223.4750 H   0  0  0  0  0  0  0  0  0  0  0  0
  140.7224   72.9032  224.3480 H   0  0  0  0  0  0  0  0  0  0  0  0
  141.5773   72.0331  226.5047 H   0  0  0  0  0  0  0  0  0  0  0  0
  141.6973   70.2460  228.0498 H   0  0  0  0  0  0  0  0  0  0  0  0
  139.6625   66.5556  227.2491 H   0  0  0  0  0  0  0  0  0  0  0  0
  138.8305   67.4616  225.1139 H   0  0  0  0  0  0  0  0  0  0  0  0
  141.1361   73.2925  221.8345 H   0  0  0  0  0  0  0  0  0  0  0  0
  143.0947   72.1149  220.9583 H   0  0  0  0  0  0  0  0  0  0  0  0
  144.7660   73.3254  219.5551 H   0  0  0  0  0  0  0  0  0  0  0  0
  144.3928   75.7349  219.0776 H   0  0  0  0  0  0  0  0  0  0  0  0
  142.4231   76.9119  219.9620 H   0  0  0  0  0  0  0  0  0  0  0  0
  1  2  1  0
  2  3  1  0
  2  4  1  0
  4  5  1  0
  5  6  1  0
  6  7  1  0
  7  8  2  0
  7  9  1  0
  9 10  1  0
 10 11  1  0
 11 12  2  0
 11 13  1  0
 13 14  2  0
 14 15  1  0
 15 16  2  0
 16 17  1  0
 17 18  2  0
 18 19  1  0
 18 20  1  0
 20 21  2  0
 21 22  1  0
 22 23  2  0
  5 24  1  0
 24 25  2  0
 25 26  1  0
 26 27  2  0
 27 28  1  0
 28 29  2  0
 23 13  1  0
 29 24  1  0
 22 16  1  0
  1 30  1  0
  1 31  1  0
  1 32  1  0
  2 33  1  0
  3 34  1  0
  3 35  1  0
  3 36  1  0
  4 37  1  0
  4 38  1  0
  5 39  1  6
  6 40  1  0
  9 41  1  0
  9 42  1  0
 10 43  1  0
 14 44  1  0
 15 45  1  0
 17 46  1  0
 20 47  1  0
 21 48  1  0
 25 49  1  0
 26 50  1  0
 27 51  1  0
 28 52  1  0
 29 53  1  0
M  END
>  <smiles>  (20) 
CC(C)C[C@H](NC(=O)CNC(=O)c1ccc2cc(F)ccc2n1)c1ccccc1

>  <score_type>  (20) 
oracle

>  <origin>  (20) 
autodockgpu

>  <m_score__min__energy>  (20) 
-9.1300000000000008

>  <m_primary>  (20) 
energy

>  <rmsd>  (20) 
3.6622794160987087

>  <m_score__min__rmsd>  (20) 
3.6622794160987087

>  <meeko>  (20) 
{"free_energy": -8.04, "intermolecular_energy": -10.13, "internal_energy": -1.91, "cluster_size": 12, "cluster_id": 4, "rank_in_cluster": 4}

>  <energy>  (20) 
-8.61

>  <cluster_rmsd>  (20) 
0.22

>  <cluster>  (20) 
2

$$$$

     RDKit          3D

 53 55  0  0  0  0  0  0  0  0999 V2000
  135.8040   73.6100  223.4540 C   0  0  0  0  0  0  0  0  0  0  0  0
  135.5260   75.0730  223.1760 C   0  0  0  0  0  0  0  0  0  0  0  0
  134.9380   75.2020  221.8140 C   0  0  0  0  0  0  0  0  0  0  0  0
  136.6920   75.9470  223.4780 C   0  0  0  0  0  0  0  0  0  0  0  0
  137.6120   76.2290  222.3470 C   0  0  2  0  0  0  0  0  0  0  0  0
  138.3010   74.9740  221.9900 N   0  0  0  0  0  0  0  0  0  0  0  0
  138.1590   74.4470  220.6740 C   0  0  0  0  0  0  0  0  0  0  0  0
  137.4410   75.0820  219.8580 O   0  0  0  0  0  0  0  0  0  0  0  0
  138.8640   73.1890  220.3550 C   0  0  0  0  0  0  0  0  0  0  0  0
  138.8120   72.3100  221.4870 N   0  0  0  0  0  0  0  0  0  0  0  0
  139.8040   72.4620  222.4980 C   0  0  0  0  0  0  0  0  0  0  0  0
  140.6880   73.3580  222.3660 O   0  0  0  0  0  0  0  0  0  0  0  0
  139.7970   71.5930  223.6710 C   0  0  0  0  0  0  0  0  0  0  0  0
  139.1090   70.3970  223.6160 C   0  0  0  0  0  0  0  0  0  0  0  0
  139.0460   69.5120  224.6730 C   0  0  0  0  0  0  0  0  0  0  0  0
  139.7140   69.8680  225.8270 C   0  0  0  0  0  0  0  0  0  0  0  0
  139.6730   69.0070  226.9050 C   0  0  0  0  0  0  0  0  0  0  0  0
  140.3250   69.3130  228.0830 C   0  0  0  0  0  0  0  0  0  0  0  0
  140.2820   68.4730  229.1300 F   0  0  0  0  0  0  0  0  0  0  0  0
  141.0200   70.5250  228.1320 C   0  0  0  0  0  0  0  0  0  0  0  0
  141.0620   71.3870  227.0560 C   0  0  0  0  0  0  0  0  0  0  0  0
  140.4050   71.0630  225.8870 C   0  0  0  0  0  0  0  0  0  0  0  0
  140.4420   71.9100  224.8180 N   0  0  0  0  0  0  0  0  0  0  0  0
  138.6950   77.1910  222.6290 C   0  0  0  0  0  0  0  0  0  0  0  0
  138.4810   78.4720  223.0920 C   0  0  0  0  0  0  0  0  0  0  0  0
  139.4970   79.3680  223.3500 C   0  0  0  0  0  0  0  0  0  0  0  0
  140.8110   79.0030  223.1470 C   0  0  0  0  0  0  0  0  0  0  0  0
  141.0630   77.7290  222.6850 C   0  0  0  0  0  0  0  0  0  0  0  0
  140.0350   76.8380  222.4290 C   0  0  0  0  0  0  0  0  0  0  0  0
  135.8358   73.4429  224.5408 H   0  0  0  0  0  0  0  0  0  0  0  0
  135.0067   72.9947  223.0115 H   0  0  0  0  0  0  0  0  0  0  0  0
  136.7714   73.3301  223.0115 H   0  0  0  0  0  0  0  0  0  0  0  0
  134.7692   75.4590  223.8747 H   0  0  0  0  0  0  0  0  0  0  0  0
  133.8667   75.4370  221.8979 H   0  0  0  0  0  0  0  0  0  0  0  0
  135.4490   76.0094  221.2690 H   0  0  0  0  0  0  0  0  0  0  0  0
  135.0640   74.2549  221.2690 H   0  0  0  0  0  0  0  0  0  0  0  0
  136.3040   76.9095  223.8427 H   0  0  0  0  0  0  0  0  0  0  0  0
  137.2925   75.3919  224.2137 H   0  0  0  0  0  0  0  0  0  0  0  0
  136.9707   76.6577  221.5628 H   0  0  0  0  0  0  0  0  0  0  0  0
  138.8790   74.4970  222.7090 H   0  0  0  0  0  0  0  0  0  0  0  0
  138.3798   72.7060  219.4935 H   0  0  0  0  0  0  0  0  0  0  0  0
  139.9136   73.4094  220.1106 H   0  0  0  0  0  0  0  0  0  0  0  0
  138.0620   71.5650  221.5770 H   0  0  0  0  0  0  0  0  0  0  0  0
  138.5856   70.1370  222.6841 H   0  0  0  0  0  0  0  0  0  0  0  0
  138.4890   68.5663  224.5991 H   0  0  0  0  0  0  0  0  0  0  0  0
  139.1130   68.0637  226.8245 H   0  0  0  0  0  0  0  0  0  0  0  0
  141.5493   70.7995  229.0564 H   0  0  0  0  0  0  0  0  0  0  0  0
  141.6192   72.3325  227.1300 H   0  0  0  0  0  0  0  0  0  0  0  0
  137.4443   78.7966  223.2648 H   0  0  0  0  0  0  0  0  0  0  0  0
  139.2585   80.3765  223.7187 H   0  0  0  0  0  0  0  0  0  0  0  0
  141.6325   79.7065  223.3475 H   0  0  0  0  0  0  0  0  0  0  0  0
  142.1032   77.4136  222.5161 H   0  0  0  0  0  0  0  0  0  0  0  0
  140.2763   75.8301  222.0602 H   0  0  0  0  0  0  0  0  0  0  0  0
  1  2  1  0
  2  3  1  0
  2  4  1  0
  4  5  1  0
  5  6  1  0
  6  7  1  0
  7  8  2  0
  7  9  1  0
  9 10  1  0
 10 11  1  0
 11 12  2  0
 11 13  1  0
 13 14  2  0
 14 15  1  0
 15 16  2  0
 16 17  1  0
 17 18  2  0
 18 19  1  0
 18 20  1  0
 20 21  2  0
 21 22  1  0
 22 23  2  0
  5 24  1  0
 24 25  2  0
 25 26  1  0
 26 27  2  0
 27 28  1  0
 28 29  2  0
 23 13  1  0
 29 24  1  0
 22 16  1  0
  1 30  1  0
  1 31  1  0
  1 32  1  0
  2 33  1  0
  3 34  1  0
  3 35  1  0
  3 36  1  0
  4 37  1  0
  4 38  1  0
  5 39  1  6
  6 40  1  0
  9 41  1  0
  9 42  1  0
 10 43  1  0
 14 44  1  0
 15 45  1  0
 17 46  1  0
 20 47  1  0
 21 48  1  0
 25 49  1  0
 26 50  1  0
 27 51  1  0
 28 52  1  0
 29 53  1  0
M  END
>  <smiles>  (21) 
CC(C)C[C@H](NC(=O)CNC(=O)c1ccc2cc(F)ccc2n1)c1ccccc1

>  <score_type>  (21) 
oracle

>  <origin>  (21) 
autodockgpu

>  <m_score__min__energy>  (21) 
-9.1300000000000008

>  <m_primary>  (21) 
energy

>  <rmsd>  (21) 
3.9236997111847294

>  <m_score__min__rmsd>  (21) 
3.9236997111847294

>  <meeko>  (21) 
{"free_energy": -7.55, "intermolecular_energy": -9.64, "internal_energy": -2.49, "cluster_size": 7, "cluster_id": 5, "rank_in_cluster": 4}

>  <energy>  (21) 
-8.58

>  <cluster_rmsd>  (21) 
0.42

>  <cluster>  (21) 
2

$$$$

     RDKit          3D

 53 55  0  0  0  0  0  0  0  0999 V2000
  142.1750   77.5590  219.6070 C   0  0  0  0  0  0  0  0  0  0  0  0
  141.3000   77.4250  220.8370 C   0  0  0  0  0  0  0  0  0  0  0  0
  141.5190   78.6070  221.7150 C   0  0  0  0  0  0  0  0  0  0  0  0
  141.4190   76.0890  221.4830 C   0  0  0  0  0  0  0  0  0  0  0  0
  141.5380   74.9250  220.5680 C   0  0  2  0  0  0  0  0  0  0  0  0
  140.5450   73.9140  220.9780 N   0  0  0  0  0  0  0  0  0  0  0  0
  139.1800   74.0830  220.6080 C   0  0  0  0  0  0  0  0  0  0  0  0
  138.8720   75.1030  219.9380 O   0  0  0  0  0  0  0  0  0  0  0  0
  138.2160   73.0490  221.0360 C   0  0  0  0  0  0  0  0  0  0  0  0
  138.5500   72.5990  222.3560 N   0  0  0  0  0  0  0  0  0  0  0  0
  139.5310   71.5720  222.4830 C   0  0  0  0  0  0  0  0  0  0  0  0
  140.0680   71.0980  221.4400 O   0  0  0  0  0  0  0  0  0  0  0  0
  139.9070   71.0770  223.8040 C   0  0  0  0  0  0  0  0  0  0  0  0
  140.6640   71.8820  224.6320 C   0  0  0  0  0  0  0  0  0  0  0  0
  141.0660   71.5000  225.8950 C   0  0  0  0  0  0  0  0  0  0  0  0
  140.6770   70.2460  226.3230 C   0  0  0  0  0  0  0  0  0  0  0  0
  141.0620   69.8310  227.5810 C   0  0  0  0  0  0  0  0  0  0  0  0
  140.7000   68.5870  228.0590 C   0  0  0  0  0  0  0  0  0  0  0  0
  141.0760   68.1850  229.2850 F   0  0  0  0  0  0  0  0  0  0  0  0
  139.9330   67.7770  227.2160 C   0  0  0  0  0  0  0  0  0  0  0  0
  139.5480   68.1910  225.9580 C   0  0  0  0  0  0  0  0  0  0  0  0
  139.9200   69.4380  225.4990 C   0  0  0  0  0  0  0  0  0  0  0  0
  139.5420   69.8540  224.2550 N   0  0  0  0  0  0  0  0  0  0  0  0
  142.8340   74.2200  220.5990 C   0  0  0  0  0  0  0  0  0  0  0  0
  144.0520   74.8480  220.4450 C   0  0  0  0  0  0  0  0  0  0  0  0
  145.2600   74.1830  220.4690 C   0  0  0  0  0  0  0  0  0  0  0  0
  145.2960   72.8180  220.6560 C   0  0  0  0  0  0  0  0  0  0  0  0
  144.0960   72.1570  220.8160 C   0  0  0  0  0  0  0  0  0  0  0  0
  142.8900   72.8340  220.7880 C   0  0  0  0  0  0  0  0  0  0  0  0
  143.2188   77.7188  219.9152 H   0  0  0  0  0  0  0  0  0  0  0  0
  142.1066   76.6399  219.0065 H   0  0  0  0  0  0  0  0  0  0  0  0
  141.8347   78.4155  219.0065 H   0  0  0  0  0  0  0  0  0  0  0  0
  140.2365   77.4448  220.5567 H   0  0  0  0  0  0  0  0  0  0  0  0
  141.4615   78.2967  222.7688 H   0  0  0  0  0  0  0  0  0  0  0  0
  142.5118   79.0353  221.5125 H   0  0  0  0  0  0  0  0  0  0  0  0
  140.7455   79.3625  221.5125 H   0  0  0  0  0  0  0  0  0  0  0  0
  142.3131   76.1047  222.1237 H   0  0  0  0  0  0  0  0  0  0  0  0
  140.4742   75.9402  222.0264 H   0  0  0  0  0  0  0  0  0  0  0  0
  141.4002   75.3431  219.5599 H   0  0  0  0  0  0  0  0  0  0  0  0
  140.8630   73.0940  221.5300 H   0  0  0  0  0  0  0  0  0  0  0  0
  137.2011   73.4732  221.0394 H   0  0  0  0  0  0  0  0  0  0  0  0
  138.2568   72.1994  220.3384 H   0  0  0  0  0  0  0  0  0  0  0  0
  138.0880   73.0110  223.2160 H   0  0  0  0  0  0  0  0  0  0  0  0
  140.9609   72.8762  224.2667 H   0  0  0  0  0  0  0  0  0  0  0  0
  141.6688   72.1639  226.5321 H   0  0  0  0  0  0  0  0  0  0  0  0
  141.6655   70.5001  228.2119 H   0  0  0  0  0  0  0  0  0  0  0  0
  139.6276   66.7801  227.5665 H   0  0  0  0  0  0  0  0  0  0  0  0
  138.9448   67.5275  225.3209 H   0  0  0  0  0  0  0  0  0  0  0  0
  144.0606   75.9377  220.2950 H   0  0  0  0  0  0  0  0  0  0  0  0
  146.1974   74.7436  220.3385 H   0  0  0  0  0  0  0  0  0  0  0  0
  146.2513   72.2731  220.6770 H   0  0  0  0  0  0  0  0  0  0  0  0
  144.0980   71.0677  220.9692 H   0  0  0  0  0  0  0  0  0  0  0  0
  141.9540   72.2707  220.9171 H   0  0  0  0  0  0  0  0  0  0  0  0
  1  2  1  0
  2  3  1  0
  2  4  1  0
  4  5  1  0
  5  6  1  0
  6  7  1  0
  7  8  2  0
  7  9  1  0
  9 10  1  0
 10 11  1  0
 11 12  2  0
 11 13  1  0
 13 14  2  0
 14 15  1  0
 15 16  2  0
 16 17  1  0
 17 18  2  0
 18 19  1  0
 18 20  1  0
 20 21  2  0
 21 22  1  0
 22 23  2  0
  5 24  1  0
 24 25  2  0
 25 26  1  0
 26 27  2  0
 27 28  1  0
 28 29  2  0
 23 13  1  0
 29 24  1  0
 22 16  1  0
  1 30  1  0
  1 31  1  0
  1 32  1  0
  2 33  1  0
  3 34  1  0
  3 35  1  0
  3 36  1  0
  4 37  1  0
  4 38  1  0
  5 39  1  6
  6 40  1  0
  9 41  1  0
  9 42  1  0
 10 43  1  0
 14 44  1  0
 15 45  1  0
 17 46  1  0
 20 47  1  0
 21 48  1  0
 25 49  1  0
 26 50  1  0
 27 51  1  0
 28 52  1  0
 29 53  1  0
M  END
>  <smiles>  (22) 
CC(C)C[C@H](NC(=O)CNC(=O)c1ccc2cc(F)ccc2n1)c1ccccc1

>  <score_type>  (22) 
oracle

>  <origin>  (22) 
autodockgpu

>  <m_score__min__energy>  (22) 
-9.1300000000000008

>  <m_primary>  (22) 
energy

>  <rmsd>  (22) 
3.2633496880880144

>  <m_score__min__rmsd>  (22) 
3.2633496880880144

>  <meeko>  (22) 
{"free_energy": -7.68, "intermolecular_energy": -9.77, "internal_energy": -2.29, "cluster_size": 12, "cluster_id": 4, "rank_in_cluster": 9}

>  <energy>  (22) 
-8.55

>  <cluster_rmsd>  (22) 
0.23

>  <cluster>  (22) 
2

$$$$

     RDKit          3D

 53 55  0  0  0  0  0  0  0  0999 V2000
  140.9190   78.5190  220.9090 C   0  0  0  0  0  0  0  0  0  0  0  0
  140.7850   78.2010  222.3840 C   0  0  0  0  0  0  0  0  0  0  0  0
  141.8300   78.9500  223.1360 C   0  0  0  0  0  0  0  0  0  0  0  0
  140.6980   76.7390  222.6510 C   0  0  0  0  0  0  0  0  0  0  0  0
  140.4470   75.8710  221.4730 C   0  0  2  0  0  0  0  0  0  0  0  0
  139.4710   74.8350  221.8640 N   0  0  0  0  0  0  0  0  0  0  0  0
  138.7020   74.1820  220.8590 C   0  0  0  0  0  0  0  0  0  0  0  0
  138.8880   74.5200  219.6610 O   0  0  0  0  0  0  0  0  0  0  0  0
  137.7360   73.1510  221.2890 C   0  0  0  0  0  0  0  0  0  0  0  0
  138.1430   72.6120  222.5550 N   0  0  0  0  0  0  0  0  0  0  0  0
  139.2790   71.7510  222.5810 C   0  0  0  0  0  0  0  0  0  0  0  0
  139.8840   71.4940  221.5010 O   0  0  0  0  0  0  0  0  0  0  0  0
  139.7340   71.1760  223.8440 C   0  0  0  0  0  0  0  0  0  0  0  0
  140.6460   71.8730  224.6100 C   0  0  0  0  0  0  0  0  0  0  0  0
  141.1330   71.4100  225.8150 C   0  0  0  0  0  0  0  0  0  0  0  0
  140.6640   70.1860  226.2490 C   0  0  0  0  0  0  0  0  0  0  0  0
  141.1290   69.6910  227.4500 C   0  0  0  0  0  0  0  0  0  0  0  0
  140.6930   68.4730  227.9310 C   0  0  0  0  0  0  0  0  0  0  0  0
  141.1480   67.9930  229.1010 F   0  0  0  0  0  0  0  0  0  0  0  0
  139.7690   67.7710  227.1520 C   0  0  0  0  0  0  0  0  0  0  0  0
  139.3040   68.2650  225.9500 C   0  0  0  0  0  0  0  0  0  0  0  0
  139.7510   69.4850  225.4870 C   0  0  0  0  0  0  0  0  0  0  0  0
  139.2940   69.9790  224.2990 N   0  0  0  0  0  0  0  0  0  0  0  0
  141.6150   75.1220  220.9700 C   0  0  0  0  0  0  0  0  0  0  0  0
  141.8370   73.7850  221.2250 C   0  0  0  0  0  0  0  0  0  0  0  0
  142.9330   73.0920  220.7570 C   0  0  0  0  0  0  0  0  0  0  0  0
  143.8810   73.7330  219.9880 C   0  0  0  0  0  0  0  0  0  0  0  0
  143.6920   75.0710  219.7120 C   0  0  0  0  0  0  0  0  0  0  0  0
  142.5880   75.7560  220.1880 C   0  0  0  0  0  0  0  0  0  0  0  0
  141.3436   79.5265  220.7882 H   0  0  0  0  0  0  0  0  0  0  0  0
  141.5830   77.7819  220.4338 H   0  0  0  0  0  0  0  0  0  0  0  0
  139.9277   78.4795  220.4338 H   0  0  0  0  0  0  0  0  0  0  0  0
  139.8173   78.5572  222.7669 H   0  0  0  0  0  0  0  0  0  0  0  0
  141.6617   78.8293  224.2163 H   0  0  0  0  0  0  0  0  0  0  0  0
  142.8233   78.5569  222.8735 H   0  0  0  0  0  0  0  0  0  0  0  0
  141.7768   80.0169  222.8735 H   0  0  0  0  0  0  0  0  0  0  0  0
  141.6496   76.4234  223.1037 H   0  0  0  0  0  0  0  0  0  0  0  0
  139.8215   76.6107  223.3031 H   0  0  0  0  0  0  0  0  0  0  0  0
  140.1170   76.5600  220.6816 H   0  0  0  0  0  0  0  0  0  0  0  0
  139.3640   74.6010  222.8700 H   0  0  0  0  0  0  0  0  0  0  0  0
  136.7375   73.6021  221.3866 H   0  0  0  0  0  0  0  0  0  0  0  0
  137.7029   72.3451  220.5411 H   0  0  0  0  0  0  0  0  0  0  0  0
  137.6210   72.8410  223.4490 H   0  0  0  0  0  0  0  0  0  0  0  0
  141.0025   72.8462  224.2415 H   0  0  0  0  0  0  0  0  0  0  0  0
  141.8608   71.9889  226.4025 H   0  0  0  0  0  0  0  0  0  0  0  0
  141.8571   70.2750  228.0321 H   0  0  0  0  0  0  0  0  0  0  0  0
  139.4018   66.7968  227.5070 H   0  0  0  0  0  0  0  0  0  0  0  0
  138.5772   67.6859  225.3615 H   0  0  0  0  0  0  0  0  0  0  0  0
  141.0997   73.2422  221.8348 H   0  0  0  0  0  0  0  0  0  0  0  0
  143.0514   72.0252  220.9976 H   0  0  0  0  0  0  0  0  0  0  0  0
  144.7607   73.1940  219.6065 H   0  0  0  0  0  0  0  0  0  0  0  0
  144.4345   75.6048  219.1006 H   0  0  0  0  0  0  0  0  0  0  0  0
  142.4722   76.8229  219.9465 H   0  0  0  0  0  0  0  0  0  0  0  0
  1  2  1  0
  2  3  1  0
  2  4  1  0
  4  5  1  0
  5  6  1  0
  6  7  1  0
  7  8  2  0
  7  9  1  0
  9 10  1  0
 10 11  1  0
 11 12  2  0
 11 13  1  0
 13 14  2  0
 14 15  1  0
 15 16  2  0
 16 17  1  0
 17 18  2  0
 18 19  1  0
 18 20  1  0
 20 21  2  0
 21 22  1  0
 22 23  2  0
  5 24  1  0
 24 25  2  0
 25 26  1  0
 26 27  2  0
 27 28  1  0
 28 29  2  0
 23 13  1  0
 29 24  1  0
 22 16  1  0
  1 30  1  0
  1 31  1  0
  1 32  1  0
  2 33  1  0
  3 34  1  0
  3 35  1  0
  3 36  1  0
  4 37  1  0
  4 38  1  0
  5 39  1  6
  6 40  1  0
  9 41  1  0
  9 42  1  0
 10 43  1  0
 14 44  1  0
 15 45  1  0
 17 46  1  0
 20 47  1  0
 21 48  1  0
 25 49  1  0
 26 50  1  0
 27 51  1  0
 28 52  1  0
 29 53  1  0
M  END
>  <smiles>  (23) 
CC(C)C[C@H](NC(=O)CNC(=O)c1ccc2cc(F)ccc2n1)c1ccccc1

>  <score_type>  (23) 
oracle

>  <origin>  (23) 
autodockgpu

>  <m_score__min__energy>  (23) 
-9.1300000000000008

>  <m_primary>  (23) 
energy

>  <rmsd>  (23) 
3.6339072880722427

>  <m_score__min__rmsd>  (23) 
3.6339072880722427

>  <meeko>  (23) 
{"free_energy": -8.05, "intermolecular_energy": -10.14, "internal_energy": -1.92, "cluster_size": 12, "cluster_id": 4, "rank_in_cluster": 3}

>  <energy>  (23) 
-8.46

>  <cluster_rmsd>  (23) 
0.26

>  <cluster>  (23) 
2

$$$$

     RDKit          3D

 53 55  0  0  0  0  0  0  0  0999 V2000
  143.9610   72.1530  220.8350 C   0  0  0  0  0  0  0  0  0  0  0  0
  144.8480   73.1710  220.1480 C   0  0  0  0  0  0  0  0  0  0  0  0
  145.7670   73.7680  221.1570 C   0  0  0  0  0  0  0  0  0  0  0  0
  144.0800   74.1280  219.3060 C   0  0  0  0  0  0  0  0  0  0  0  0
  143.1160   75.0030  220.0200 C   0  0  2  0  0  0  0  0  0  0  0  0
  141.8080   74.3210  220.0470 N   0  0  0  0  0  0  0  0  0  0  0  0
  140.9170   74.5590  221.1330 C   0  0  0  0  0  0  0  0  0  0  0  0
  141.2870   75.3520  222.0370 O   0  0  0  0  0  0  0  0  0  0  0  0
  139.6160   73.8590  221.1250 C   0  0  0  0  0  0  0  0  0  0  0  0
  139.4770   73.0920  222.3290 N   0  0  0  0  0  0  0  0  0  0  0  0
  140.2920   71.9330  222.4810 C   0  0  0  0  0  0  0  0  0  0  0  0
  141.1020   71.6220  221.5600 O   0  0  0  0  0  0  0  0  0  0  0  0
  140.1900   71.1180  223.6880 C   0  0  0  0  0  0  0  0  0  0  0  0
  139.5580   69.8920  223.6190 C   0  0  0  0  0  0  0  0  0  0  0  0
  139.4140   69.0540  224.7050 C   0  0  0  0  0  0  0  0  0  0  0  0
  139.9380   69.4900  225.9060 C   0  0  0  0  0  0  0  0  0  0  0  0
  139.8120   68.6780  227.0140 C   0  0  0  0  0  0  0  0  0  0  0  0
  140.3190   69.0640  228.2380 C   0  0  0  0  0  0  0  0  0  0  0  0
  140.1950   68.2710  229.3160 F   0  0  0  0  0  0  0  0  0  0  0  0
  140.9590   70.3060  228.3020 C   0  0  0  0  0  0  0  0  0  0  0  0
  141.0850   71.1190  227.1950 C   0  0  0  0  0  0  0  0  0  0  0  0
  140.5720   70.7150  225.9800 C   0  0  0  0  0  0  0  0  0  0  0  0
  140.6940   71.5140  224.8800 N   0  0  0  0  0  0  0  0  0  0  0  0
  142.8510   76.3100  219.3870 C   0  0  0  0  0  0  0  0  0  0  0  0
  143.1900   76.6150  218.0860 C   0  0  0  0  0  0  0  0  0  0  0  0
  142.9440   77.8390  217.5010 C   0  0  0  0  0  0  0  0  0  0  0  0
  142.3270   78.8390  218.2220 C   0  0  0  0  0  0  0  0  0  0  0  0
  141.9710   78.5700  219.5260 C   0  0  0  0  0  0  0  0  0  0  0  0
  142.2240   77.3380  220.1030 C   0  0  0  0  0  0  0  0  0  0  0  0
  144.0553   72.2612  221.9256 H   0  0  0  0  0  0  0  0  0  0  0  0
  142.9147   72.3193  220.5391 H   0  0  0  0  0  0  0  0  0  0  0  0
  144.2690   71.1393  220.5391 H   0  0  0  0  0  0  0  0  0  0  0  0
  145.4887   72.6794  219.4011 H   0  0  0  0  0  0  0  0  0  0  0  0
  145.4041   73.5323  222.1683 H   0  0  0  0  0  0  0  0  0  0  0  0
  146.7770   73.3531  221.0239 H   0  0  0  0  0  0  0  0  0  0  0  0
  145.7985   74.8595  221.0239 H   0  0  0  0  0  0  0  0  0  0  0  0
  144.8035   74.7766  218.7903 H   0  0  0  0  0  0  0  0  0  0  0  0
  143.4705   73.5054  218.6345 H   0  0  0  0  0  0  0  0  0  0  0  0
  143.5755   75.1862  221.0025 H   0  0  0  0  0  0  0  0  0  0  0  0
  141.5610   73.6780  219.2700 H   0  0  0  0  0  0  0  0  0  0  0  0
  138.8029   74.5975  221.0650 H   0  0  0  0  0  0  0  0  0  0  0  0
  139.5670   73.1873  220.2553 H   0  0  0  0  0  0  0  0  0  0  0  0
  138.7920   73.3710  223.0890 H   0  0  0  0  0  0  0  0  0  0  0  0
  139.1494   69.5679  222.6505 H   0  0  0  0  0  0  0  0  0  0  0  0
  138.9050   68.0827  224.6184 H   0  0  0  0  0  0  0  0  0  0  0  0
  139.3000   67.7089  226.9205 H   0  0  0  0  0  0  0  0  0  0  0  0
  141.3738   70.6442  229.2630 H   0  0  0  0  0  0  0  0  0  0  0  0
  141.5948   72.0899  227.2811 H   0  0  0  0  0  0  0  0  0  0  0  0
  143.6836   75.8396  217.4818 H   0  0  0  0  0  0  0  0  0  0  0  0
  143.2406   78.0180  216.4570 H   0  0  0  0  0  0  0  0  0  0  0  0
  142.1250   79.8215  217.7704 H   0  0  0  0  0  0  0  0  0  0  0  0
  141.4752   79.3513  220.1207 H   0  0  0  0  0  0  0  0  0  0  0  0
  141.9262   77.1619  221.1472 H   0  0  0  0  0  0  0  0  0  0  0  0
  1  2  1  0
  2  3  1  0
  2  4  1  0
  4  5  1  0
  5  6  1  0
  6  7  1  0
  7  8  2  0
  7  9  1  0
  9 10  1  0
 10 11  1  0
 11 12  2  0
 11 13  1  0
 13 14  2  0
 14 15  1  0
 15 16  2  0
 16 17  1  0
 17 18  2  0
 18 19  1  0
 18 20  1  0
 20 21  2  0
 21 22  1  0
 22 23  2  0
  5 24  1  0
 24 25  2  0
 25 26  1  0
 26 27  2  0
 27 28  1  0
 28 29  2  0
 23 13  1  0
 29 24  1  0
 22 16  1  0
  1 30  1  0
  1 31  1  0
  1 32  1  0
  2 33  1  0
  3 34  1  0
  3 35  1  0
  3 36  1  0
  4 37  1  0
  4 38  1  0
  5 39  1  1
  6 40  1  0
  9 41  1  0
  9 42  1  0
 10 43  1  0
 14 44  1  0
 15 45  1  0
 17 46  1  0
 20 47  1  0
 21 48  1  0
 25 49  1  0
 26 50  1  0
 27 51  1  0
 28 52  1  0
 29 53  1  0
M  END
>  <smiles>  (24) 
CC(C)C[C@H](NC(=O)CNC(=O)c1ccc2cc(F)ccc2n1)c1ccccc1

>  <score_type>  (24) 
oracle

>  <origin>  (24) 
autodockgpu

>  <m_score__min__energy>  (24) 
-9.1300000000000008

>  <m_primary>  (24) 
energy

>  <rmsd>  (24) 
3.06578361979863

>  <m_score__min__rmsd>  (24) 
3.06578361979863

>  <meeko>  (24) 
{"free_energy": -8.35, "intermolecular_energy": -10.44, "internal_energy": -1.62, "cluster_size": 4, "cluster_id": 3, "rank_in_cluster": 2}

>  <energy>  (24) 
-8.42

>  <cluster_rmsd>  (24) 
0.55

>  <cluster>  (24) 
2

$$$$

     RDKit          3D

 53 55  0  0  0  0  0  0  0  0999 V2000
  142.5720   78.2530  217.0190 C   0  0  0  0  0  0  0  0  0  0  0  0
  142.6470   77.7870  218.4590 C   0  0  0  0  0  0  0  0  0  0  0  0
  143.3230   76.4620  218.5020 C   0  0  0  0  0  0  0  0  0  0  0  0
  141.3400   77.8860  219.1640 C   0  0  0  0  0  0  0  0  0  0  0  0
  141.2440   77.1870  220.4700 C   0  0  2  0  0  0  0  0  0  0  0  0
  140.1450   76.2060  220.3890 N   0  0  0  0  0  0  0  0  0  0  0  0
  140.1300   75.0950  221.2790 C   0  0  0  0  0  0  0  0  0  0  0  0
  141.0690   74.9930  222.1110 O   0  0  0  0  0  0  0  0  0  0  0  0
  139.0130   74.1350  221.1680 C   0  0  0  0  0  0  0  0  0  0  0  0
  138.9850   73.2950  222.3300 N   0  0  0  0  0  0  0  0  0  0  0  0
  140.0080   72.3140  222.4710 C   0  0  0  0  0  0  0  0  0  0  0  0
  140.8980   72.2160  221.5770 O   0  0  0  0  0  0  0  0  0  0  0  0
  140.0250   71.4330  223.6360 C   0  0  0  0  0  0  0  0  0  0  0  0
  139.5060   70.1590  223.5220 C   0  0  0  0  0  0  0  0  0  0  0  0
  139.4800   69.2580  224.5670 C   0  0  0  0  0  0  0  0  0  0  0  0
  140.0040   69.6820  225.7720 C   0  0  0  0  0  0  0  0  0  0  0  0
  139.9940   68.8070  226.8390 C   0  0  0  0  0  0  0  0  0  0  0  0
  140.5070   69.1780  228.0650 C   0  0  0  0  0  0  0  0  0  0  0  0
  140.4950   68.3250  229.1030 F   0  0  0  0  0  0  0  0  0  0  0  0
  141.0310   70.4700  228.1750 C   0  0  0  0  0  0  0  0  0  0  0  0
  141.0410   71.3450  227.1080 C   0  0  0  0  0  0  0  0  0  0  0  0
  140.5250   70.9550  225.8900 C   0  0  0  0  0  0  0  0  0  0  0  0
  140.5330   71.8160  224.8310 N   0  0  0  0  0  0  0  0  0  0  0  0
  140.9090   78.0390  221.6270 C   0  0  0  0  0  0  0  0  0  0  0  0
  141.8490   78.6800  222.4060 C   0  0  0  0  0  0  0  0  0  0  0  0
  141.5310   79.4710  223.4880 C   0  0  0  0  0  0  0  0  0  0  0  0
  140.2120   79.6590  223.8450 C   0  0  0  0  0  0  0  0  0  0  0  0
  139.2440   79.0340  223.0890 C   0  0  0  0  0  0  0  0  0  0  0  0
  139.5760   78.2410  222.0050 C   0  0  0  0  0  0  0  0  0  0  0  0
  142.3973   79.3387  216.9936 H   0  0  0  0  0  0  0  0  0  0  0  0
  143.5189   78.0220  216.5091 H   0  0  0  0  0  0  0  0  0  0  0  0
  141.7454   77.7366  216.5091 H   0  0  0  0  0  0  0  0  0  0  0  0
  143.2734   78.4702  219.0513 H   0  0  0  0  0  0  0  0  0  0  0  0
  143.4759   76.1622  219.5493 H   0  0  0  0  0  0  0  0  0  0  0  0
  142.6963   75.7140  217.9943 H   0  0  0  0  0  0  0  0  0  0  0  0
  144.2964   76.5303  217.9943 H   0  0  0  0  0  0  0  0  0  0  0  0
  141.1328   78.9522  219.3382 H   0  0  0  0  0  0  0  0  0  0  0  0
  140.6135   77.3842  218.5080 H   0  0  0  0  0  0  0  0  0  0  0  0
  142.2456   76.7637  220.6362 H   0  0  0  0  0  0  0  0  0  0  0  0
  139.3990   76.3460  219.6800 H   0  0  0  0  0  0  0  0  0  0  0  0
  138.0635   74.6851  221.0906 H   0  0  0  0  0  0  0  0  0  0  0  0
  139.1521   73.5139  220.2708 H   0  0  0  0  0  0  0  0  0  0  0  0
  138.2290   73.3950  223.0680 H   0  0  0  0  0  0  0  0  0  0  0  0
  139.0932   69.8469  222.5513 H   0  0  0  0  0  0  0  0  0  0  0  0
  139.0610   68.2482  224.4455 H   0  0  0  0  0  0  0  0  0  0  0  0
  139.5712   67.7997  226.7104 H   0  0  0  0  0  0  0  0  0  0  0  0
  141.4469   70.7979  229.1391 H   0  0  0  0  0  0  0  0  0  0  0  0
  141.4609   72.3545  227.2291 H   0  0  0  0  0  0  0  0  0  0  0  0
  142.9110   78.5527  222.1494 H   0  0  0  0  0  0  0  0  0  0  0  0
  142.3308   79.9538  224.0687 H   0  0  0  0  0  0  0  0  0  0  0  0
  139.9413   80.2879  224.7059 H   0  0  0  0  0  0  0  0  0  0  0  0
  138.1847   79.1685  223.3531 H   0  0  0  0  0  0  0  0  0  0  0  0
  138.7744   77.7581  221.4269 H   0  0  0  0  0  0  0  0  0  0  0  0
  1  2  1  0
  2  3  1  0
  2  4  1  0
  4  5  1  0
  5  6  1  0
  6  7  1  0
  7  8  2  0
  7  9  1  0
  9 10  1  0
 10 11  1  0
 11 12  2  0
 11 13  1  0
 13 14  2  0
 14 15  1  0
 15 16  2  0
 16 17  1  0
 17 18  2  0
 18 19  1  0
 18 20  1  0
 20 21  2  0
 21 22  1  0
 22 23  2  0
  5 24  1  0
 24 25  2  0
 25 26  1  0
 26 27  2  0
 27 28  1  0
 28 29  2  0
 23 13  1  0
 29 24  1  0
 22 16  1  0
  1 30  1  0
  1 31  1  0
  1 32  1  0
  2 33  1  0
  3 34  1  0
  3 35  1  0
  3 36  1  0
  4 37  1  0
  4 38  1  0
  5 39  1  1
  6 40  1  0
  9 41  1  0
  9 42  1  0
 10 43  1  0
 14 44  1  0
 15 45  1  0
 17 46  1  0
 20 47  1  0
 21 48  1  0
 25 49  1  0
 26 50  1  0
 27 51  1  0
 28 52  1  0
 29 53  1  0
M  END
>  <smiles>  (25) 
CC(C)C[C@H](NC(=O)CNC(=O)c1ccc2cc(F)ccc2n1)c1ccccc1

>  <score_type>  (25) 
oracle

>  <origin>  (25) 
autodockgpu

>  <m_score__min__energy>  (25) 
-9.1300000000000008

>  <m_primary>  (25) 
energy

>  <rmsd>  (25) 
2.1801899545037786

>  <m_score__min__rmsd>  (25) 
2.1801899545037786

>  <meeko>  (25) 
{"free_energy": -8.42, "intermolecular_energy": -10.51, "internal_energy": -1.34, "cluster_size": 10, "cluster_id": 2, "rank_in_cluster": 8}

>  <energy>  (25) 
-8.4

>  <cluster_rmsd>  (25) 
0.68

>  <cluster>  (25) 
2

$$$$

     RDKit          3D

 53 55  0  0  0  0  0  0  0  0999 V2000
  142.5180   77.1830  217.1570 C   0  0  0  0  0  0  0  0  0  0  0  0
  142.9280   77.2670  218.6130 C   0  0  0  0  0  0  0  0  0  0  0  0
  143.3240   75.9100  219.0810 C   0  0  0  0  0  0  0  0  0  0  0  0
  141.9310   77.9890  219.4500 C   0  0  0  0  0  0  0  0  0  0  0  0
  141.6900   77.4370  220.8070 C   0  0  2  0  0  0  0  0  0  0  0  0
  140.5060   76.5590  220.7440 N   0  0  0  0  0  0  0  0  0  0  0  0
  140.6150   75.2050  221.1720 C   0  0  0  0  0  0  0  0  0  0  0  0
  141.7320   74.8060  221.5920 O   0  0  0  0  0  0  0  0  0  0  0  0
  139.4080   74.3570  221.0930 C   0  0  0  0  0  0  0  0  0  0  0  0
  139.3230   73.5350  222.2660 N   0  0  0  0  0  0  0  0  0  0  0  0
  140.1690   72.3910  222.3430 C   0  0  0  0  0  0  0  0  0  0  0  0
  140.9580   72.1400  221.3870 O   0  0  0  0  0  0  0  0  0  0  0  0
  140.1210   71.5210  223.5150 C   0  0  0  0  0  0  0  0  0  0  0  0
  139.5380   70.2750  223.4040 C   0  0  0  0  0  0  0  0  0  0  0  0
  139.4480   69.3850  224.4540 C   0  0  0  0  0  0  0  0  0  0  0  0
  139.9750   69.7920  225.6640 C   0  0  0  0  0  0  0  0  0  0  0  0
  139.9030   68.9280  226.7380 C   0  0  0  0  0  0  0  0  0  0  0  0
  140.4150   69.2830  227.9700 C   0  0  0  0  0  0  0  0  0  0  0  0
  140.3420   68.4400  229.0130 F   0  0  0  0  0  0  0  0  0  0  0  0
  141.0040   70.5460  228.0770 C   0  0  0  0  0  0  0  0  0  0  0  0
  141.0770   71.4100  227.0040 C   0  0  0  0  0  0  0  0  0  0  0  0
  140.5600   71.0370  225.7810 C   0  0  0  0  0  0  0  0  0  0  0  0
  140.6300   71.8870  224.7150 N   0  0  0  0  0  0  0  0  0  0  0  0
  141.3720   78.4290  221.8530 C   0  0  0  0  0  0  0  0  0  0  0  0
  140.2380   78.3820  222.6350 C   0  0  0  0  0  0  0  0  0  0  0  0
  139.9440   79.3140  223.6070 C   0  0  0  0  0  0  0  0  0  0  0  0
  140.8040   80.3650  223.8420 C   0  0  0  0  0  0  0  0  0  0  0  0
  141.9500   80.4440  223.0790 C   0  0  0  0  0  0  0  0  0  0  0  0
  142.2340   79.5030  222.1060 C   0  0  0  0  0  0  0  0  0  0  0  0
  141.4423   76.9626  217.0911 H   0  0  0  0  0  0  0  0  0  0  0  0
  142.7267   78.1426  216.6614 H   0  0  0  0  0  0  0  0  0  0  0  0
  143.0873   76.3828  216.6614 H   0  0  0  0  0  0  0  0  0  0  0  0
  143.8185   77.9030  218.7246 H   0  0  0  0  0  0  0  0  0  0  0  0
  143.3302   75.8887  220.1808 H   0  0  0  0  0  0  0  0  0  0  0  0
  142.6050   75.1678  218.7040 H   0  0  0  0  0  0  0  0  0  0  0  0
  144.3294   75.6710  218.7040 H   0  0  0  0  0  0  0  0  0  0  0  0
  142.2792   79.0259  219.5667 H   0  0  0  0  0  0  0  0  0  0  0  0
  140.9734   77.8893  218.9179 H   0  0  0  0  0  0  0  0  0  0  0  0
  142.6336   76.9422  221.0807 H   0  0  0  0  0  0  0  0  0  0  0  0
  139.6120   76.9480  220.3870 H   0  0  0  0  0  0  0  0  0  0  0  0
  138.5149   74.9957  221.0274 H   0  0  0  0  0  0  0  0  0  0  0  0
  139.4675   73.7169  220.2004 H   0  0  0  0  0  0  0  0  0  0  0  0
  138.6540   73.7640  223.0560 H   0  0  0  0  0  0  0  0  0  0  0  0
  139.1244   69.9767  222.4294 H   0  0  0  0  0  0  0  0  0  0  0  0
  138.9786   68.3975  224.3333 H   0  0  0  0  0  0  0  0  0  0  0  0
  139.4310   67.9426  226.6105 H   0  0  0  0  0  0  0  0  0  0  0  0
  141.4215   70.8602  229.0450 H   0  0  0  0  0  0  0  0  0  0  0  0
  141.5478   72.3969  227.1239 H   0  0  0  0  0  0  0  0  0  0  0  0
  139.5293   77.5561  222.4747 H   0  0  0  0  0  0  0  0  0  0  0  0
  139.0204   79.2187  224.1968 H   0  0  0  0  0  0  0  0  0  0  0  0
  140.5833   81.1171  224.6138 H   0  0  0  0  0  0  0  0  0  0  0  0
  142.6531   81.2729  223.2478 H   0  0  0  0  0  0  0  0  0  0  0  0
  143.1582   79.6006  221.5175 H   0  0  0  0  0  0  0  0  0  0  0  0
  1  2  1  0
  2  3  1  0
  2  4  1  0
  4  5  1  0
  5  6  1  0
  6  7  1  0
  7  8  2  0
  7  9  1  0
  9 10  1  0
 10 11  1  0
 11 12  2  0
 11 13  1  0
 13 14  2  0
 14 15  1  0
 15 16  2  0
 16 17  1  0
 17 18  2  0
 18 19  1  0
 18 20  1  0
 20 21  2  0
 21 22  1  0
 22 23  2  0
  5 24  1  0
 24 25  2  0
 25 26  1  0
 26 27  2  0
 27 28  1  0
 28 29  2  0
 23 13  1  0
 29 24  1  0
 22 16  1  0
  1 30  1  0
  1 31  1  0
  1 32  1  0
  2 33  1  0
  3 34  1  0
  3 35  1  0
  3 36  1  0
  4 37  1  0
  4 38  1  0
  5 39  1  1
  6 40  1  0
  9 41  1  0
  9 42  1  0
 10 43  1  0
 14 44  1  0
 15 45  1  0
 17 46  1  0
 20 47  1  0
 21 48  1  0
 25 49  1  0
 26 50  1  0
 27 51  1  0
 28 52  1  0
 29 53  1  0
M  END
>  <smiles>  (26) 
CC(C)C[C@H](NC(=O)CNC(=O)c1ccc2cc(F)ccc2n1)c1ccccc1

>  <score_type>  (26) 
oracle

>  <origin>  (26) 
autodockgpu

>  <m_score__min__energy>  (26) 
-9.1300000000000008

>  <m_primary>  (26) 
energy

>  <rmsd>  (26) 
2.0726712540373957

>  <m_score__min__rmsd>  (26) 
2.0726712540373957

>  <meeko>  (26) 
{"free_energy": -8.64, "intermolecular_energy": -10.72, "internal_energy": -1.37, "cluster_size": 10, "cluster_id": 2, "rank_in_cluster": 2}

>  <energy>  (26) 
-8.33

>  <cluster_rmsd>  (26) 
0.51

>  <cluster>  (26) 
2

$$$$

     RDKit          3D

 53 55  0  0  0  0  0  0  0  0999 V2000
  135.8110   73.6420  223.4400 C   0  0  0  0  0  0  0  0  0  0  0  0
  135.5560   75.1130  223.1800 C   0  0  0  0  0  0  0  0  0  0  0  0
  134.9480   75.2650  221.8290 C   0  0  0  0  0  0  0  0  0  0  0  0
  136.7430   75.9620  223.4700 C   0  0  0  0  0  0  0  0  0  0  0  0
  137.6470   76.2400  222.3250 C   0  0  2  0  0  0  0  0  0  0  0  0
  138.3340   74.9850  221.9660 N   0  0  0  0  0  0  0  0  0  0  0  0
  138.1420   74.4270  220.6690 C   0  0  0  0  0  0  0  0  0  0  0  0
  137.3840   75.0360  219.8720 O   0  0  0  0  0  0  0  0  0  0  0  0
  138.8470   73.1700  220.3470 C   0  0  0  0  0  0  0  0  0  0  0  0
  138.8030   72.2920  221.4810 N   0  0  0  0  0  0  0  0  0  0  0  0
  139.8160   72.4320  222.4740 C   0  0  0  0  0  0  0  0  0  0  0  0
  140.7090   73.3150  222.3250 O   0  0  0  0  0  0  0  0  0  0  0  0
  139.8180   71.5630  223.6470 C   0  0  0  0  0  0  0  0  0  0  0  0
  139.1410   70.3610  223.5940 C   0  0  0  0  0  0  0  0  0  0  0  0
  139.0880   69.4760  224.6510 C   0  0  0  0  0  0  0  0  0  0  0  0
  139.7540   69.8390  225.8050 C   0  0  0  0  0  0  0  0  0  0  0  0
  139.7220   68.9790  226.8830 C   0  0  0  0  0  0  0  0  0  0  0  0
  140.3710   69.2910  228.0600 C   0  0  0  0  0  0  0  0  0  0  0  0
  140.3380   68.4520  229.1080 F   0  0  0  0  0  0  0  0  0  0  0  0
  141.0560   70.5100  228.1080 C   0  0  0  0  0  0  0  0  0  0  0  0
  141.0880   71.3710  227.0300 C   0  0  0  0  0  0  0  0  0  0  0  0
  140.4330   71.0400  225.8620 C   0  0  0  0  0  0  0  0  0  0  0  0
  140.4610   71.8870  224.7930 N   0  0  0  0  0  0  0  0  0  0  0  0
  138.7320   77.2060  222.5880 C   0  0  0  0  0  0  0  0  0  0  0  0
  140.0690   76.9250  222.4060 C   0  0  0  0  0  0  0  0  0  0  0  0
  141.0790   77.8290  222.6570 C   0  0  0  0  0  0  0  0  0  0  0  0
  140.7770   79.0940  223.1160 C   0  0  0  0  0  0  0  0  0  0  0  0
  139.4490   79.4110  223.3080 C   0  0  0  0  0  0  0  0  0  0  0  0
  138.4450   78.4950  223.0530 C   0  0  0  0  0  0  0  0  0  0  0  0
  135.8423   73.4614  224.5246 H   0  0  0  0  0  0  0  0  0  0  0  0
  135.0030   73.0450  222.9921 H   0  0  0  0  0  0  0  0  0  0  0  0
  136.7728   73.3518  222.9921 H   0  0  0  0  0  0  0  0  0  0  0  0
  134.8186   75.5070  223.8948 H   0  0  0  0  0  0  0  0  0  0  0  0
  133.8856   75.5306  221.9328 H   0  0  0  0  0  0  0  0  0  0  0  0
  135.4725   76.0597  221.2782 H   0  0  0  0  0  0  0  0  0  0  0  0
  135.0368   74.3170  221.2782 H   0  0  0  0  0  0  0  0  0  0  0  0
  136.3796   76.9272  223.8525 H   0  0  0  0  0  0  0  0  0  0  0  0
  137.3466   75.3879  224.1884 H   0  0  0  0  0  0  0  0  0  0  0  0
  136.9945   76.6629  221.5470 H   0  0  0  0  0  0  0  0  0  0  0  0
  138.9480   74.5290  222.6700 H   0  0  0  0  0  0  0  0  0  0  0  0
  138.3584   72.6852  219.4889 H   0  0  0  0  0  0  0  0  0  0  0  0
  139.8947   73.3916  220.0958 H   0  0  0  0  0  0  0  0  0  0  0  0
  138.0450   71.5580  221.5850 H   0  0  0  0  0  0  0  0  0  0  0  0
  138.6182   70.0959  222.6632 H   0  0  0  0  0  0  0  0  0  0  0  0
  138.5403   68.5248  224.5779 H   0  0  0  0  0  0  0  0  0  0  0  0
  139.1709   68.0304  226.8032 H   0  0  0  0  0  0  0  0  0  0  0  0
  141.5841   70.7901  229.0314 H   0  0  0  0  0  0  0  0  0  0  0  0
  141.6362   72.3219  227.1022 H   0  0  0  0  0  0  0  0  0  0  0  0
  140.3452   75.9249  222.0406 H   0  0  0  0  0  0  0  0  0  0  0  0
  142.1275   77.5409  222.4909 H   0  0  0  0  0  0  0  0  0  0  0  0
  141.5707   79.8270  223.3224 H   0  0  0  0  0  0  0  0  0  0  0  0
  139.1824   80.4143  223.6719 H   0  0  0  0  0  0  0  0  0  0  0  0
  137.3972   78.7856  223.2192 H   0  0  0  0  0  0  0  0  0  0  0  0
  1  2  1  0
  2  3  1  0
  2  4  1  0
  4  5  1  0
  5  6  1  0
  6  7  1  0
  7  8  2  0
  7  9  1  0
  9 10  1  0
 10 11  1  0
 11 12  2  0
 11 13  1  0
 13 14  2  0
 14 15  1  0
 15 16  2  0
 16 17  1  0
 17 18  2  0
 18 19  1  0
 18 20  1  0
 20 21  2  0
 21 22  1  0
 22 23  2  0
  5 24  1  0
 24 25  2  0
 25 26  1  0
 26 27  2  0
 27 28  1  0
 28 29  2  0
 23 13  1  0
 29 24  1  0
 22 16  1  0
  1 30  1  0
  1 31  1  0
  1 32  1  0
  2 33  1  0
  3 34  1  0
  3 35  1  0
  3 36  1  0
  4 37  1  0
  4 38  1  0
  5 39  1  6
  6 40  1  0
  9 41  1  0
  9 42  1  0
 10 43  1  0
 14 44  1  0
 15 45  1  0
 17 46  1  0
 20 47  1  0
 21 48  1  0
 25 49  1  0
 26 50  1  0
 27 51  1  0
 28 52  1  0
 29 53  1  0
M  END
>  <smiles>  (27) 
CC(C)C[C@H](NC(=O)CNC(=O)c1ccc2cc(F)ccc2n1)c1ccccc1

>  <score_type>  (27) 
oracle

>  <origin>  (27) 
autodockgpu

>  <m_score__min__energy>  (27) 
-9.1300000000000008

>  <m_primary>  (27) 
energy

>  <rmsd>  (27) 
3.906196446827114

>  <m_score__min__rmsd>  (27) 
3.906196446827114

>  <meeko>  (27) 
{"free_energy": -7.52, "intermolecular_energy": -9.61, "internal_energy": -2.48, "cluster_size": 7, "cluster_id": 5, "rank_in_cluster": 6}

>  <energy>  (27) 
-8.49

>  <cluster_rmsd>  (27) 
0.0

>  <cluster>  (27) 
3

$$$$

     RDKit          3D

 53 55  0  0  0  0  0  0  0  0999 V2000
  146.0610   73.7550  220.9220 C   0  0  0  0  0  0  0  0  0  0  0  0
  144.5660   73.6670  220.6930 C   0  0  0  0  0  0  0  0  0  0  0  0
  144.1940   72.2410  220.4790 C   0  0  0  0  0  0  0  0  0  0  0  0
  144.0830   74.6360  219.6710 C   0  0  0  0  0  0  0  0  0  0  0  0
  142.9970   75.5540  220.0980 C   0  0  2  0  0  0  0  0  0  0  0  0
  141.7220   74.8140  220.0460 N   0  0  0  0  0  0  0  0  0  0  0  0
  140.8370   74.8630  221.1610 C   0  0  0  0  0  0  0  0  0  0  0  0
  141.1850   75.5450  222.1600 O   0  0  0  0  0  0  0  0  0  0  0  0
  139.5700   74.1090  221.0720 C   0  0  0  0  0  0  0  0  0  0  0  0
  139.4000   73.3160  222.2540 N   0  0  0  0  0  0  0  0  0  0  0  0
  140.3530   72.2890  222.5130 C   0  0  0  0  0  0  0  0  0  0  0  0
  141.3080   72.1130  221.7010 O   0  0  0  0  0  0  0  0  0  0  0  0
  140.2260   71.4520  223.7020 C   0  0  0  0  0  0  0  0  0  0  0  0
  139.5810   70.2350  223.6020 C   0  0  0  0  0  0  0  0  0  0  0  0
  139.4130   69.3780  224.6700 C   0  0  0  0  0  0  0  0  0  0  0  0
  139.9260   69.7860  225.8850 C   0  0  0  0  0  0  0  0  0  0  0  0
  139.7760   68.9540  226.9760 C   0  0  0  0  0  0  0  0  0  0  0  0
  140.2710   69.3110  228.2140 C   0  0  0  0  0  0  0  0  0  0  0  0
  140.1230   68.5000  229.2740 F   0  0  0  0  0  0  0  0  0  0  0  0
  140.9230   70.5440  228.3100 C   0  0  0  0  0  0  0  0  0  0  0  0
  141.0730   71.3770  227.2200 C   0  0  0  0  0  0  0  0  0  0  0  0
  140.5720   71.0010  225.9910 C   0  0  0  0  0  0  0  0  0  0  0  0
  140.7180   71.8200  224.9080 N   0  0  0  0  0  0  0  0  0  0  0  0
  142.7860   76.7360  219.2400 C   0  0  0  0  0  0  0  0  0  0  0  0
  143.1450   76.7930  217.9110 C   0  0  0  0  0  0  0  0  0  0  0  0
  142.9500   77.9020  217.1150 C   0  0  0  0  0  0  0  0  0  0  0  0
  142.3670   79.0360  217.6390 C   0  0  0  0  0  0  0  0  0  0  0  0
  141.9940   79.0160  218.9660 C   0  0  0  0  0  0  0  0  0  0  0  0
  142.1950   77.8970  219.7550 C   0  0  0  0  0  0  0  0  0  0  0  0
  146.2663   73.7671  222.0026 H   0  0  0  0  0  0  0  0  0  0  0  0
  146.5539   72.8843  220.4648 H   0  0  0  0  0  0  0  0  0  0  0  0
  146.4483   74.6775  220.4648 H   0  0  0  0  0  0  0  0  0  0  0  0
  144.0208   73.9956  221.5901 H   0  0  0  0  0  0  0  0  0  0  0  0
  144.0648   71.7457  221.4526 H   0  0  0  0  0  0  0  0  0  0  0  0
  143.2522   72.1887  219.9132 H   0  0  0  0  0  0  0  0  0  0  0  0
  144.9903   71.7353  219.9132 H   0  0  0  0  0  0  0  0  0  0  0  0
  144.9402   75.2518  219.3612 H   0  0  0  0  0  0  0  0  0  0  0  0
  143.6504   74.0232  218.8664 H   0  0  0  0  0  0  0  0  0  0  0  0
  143.3011   75.9057  221.0949 H   0  0  0  0  0  0  0  0  0  0  0  0
  141.4920   74.2690  219.1920 H   0  0  0  0  0  0  0  0  0  0  0  0
  138.7302   74.8134  220.9795 H   0  0  0  0  0  0  0  0  0  0  0  0
  139.5967   73.4512  220.1907 H   0  0  0  0  0  0  0  0  0  0  0  0
  138.5920   73.4800  222.9210 H   0  0  0  0  0  0  0  0  0  0  0  0
  139.1814   69.9340  222.6223 H   0  0  0  0  0  0  0  0  0  0  0  0
  138.8944   68.4143  224.5586 H   0  0  0  0  0  0  0  0  0  0  0  0
  139.2546   67.9928  226.8572 H   0  0  0  0  0  0  0  0  0  0  0  0
  141.3283   70.8594  229.2828 H   0  0  0  0  0  0  0  0  0  0  0  0
  141.5919   72.3405  227.3312 H   0  0  0  0  0  0  0  0  0  0  0  0
  143.6128   75.9053  217.4603 H   0  0  0  0  0  0  0  0  0  0  0  0
  143.2602   77.8818  216.0599 H   0  0  0  0  0  0  0  0  0  0  0  0
  142.2045   79.9290  217.0176 H   0  0  0  0  0  0  0  0  0  0  0  0
  141.5266   79.9087  219.4072 H   0  0  0  0  0  0  0  0  0  0  0  0
  141.8839   77.9197  220.8098 H   0  0  0  0  0  0  0  0  0  0  0  0
  1  2  1  0
  2  3  1  0
  2  4  1  0
  4  5  1  0
  5  6  1  0
  6  7  1  0
  7  8  2  0
  7  9  1  0
  9 10  1  0
 10 11  1  0
 11 12  2  0
 11 13  1  0
 13 14  2  0
 14 15  1  0
 15 16  2  0
 16 17  1  0
 17 18  2  0
 18 19  1  0
 18 20  1  0
 20 21  2  0
 21 22  1  0
 22 23  2  0
  5 24  1  0
 24 25  2  0
 25 26  1  0
 26 27  2  0
 27 28  1  0
 28 29  2  0
 23 13  1  0
 29 24  1  0
 22 16  1  0
  1 30  1  0
  1 31  1  0
  1 32  1  0
  2 33  1  0
  3 34  1  0
  3 35  1  0
  3 36  1  0
  4 37  1  0
  4 38  1  0
  5 39  1  1
  6 40  1  0
  9 41  1  0
  9 42  1  0
 10 43  1  0
 14 44  1  0
 15 45  1  0
 17 46  1  0
 20 47  1  0
 21 48  1  0
 25 49  1  0
 26 50  1  0
 27 51  1  0
 28 52  1  0
 29 53  1  0
M  END
>  <smiles>  (28) 
CC(C)C[C@H](NC(=O)CNC(=O)c1ccc2cc(F)ccc2n1)c1ccccc1

>  <score_type>  (28) 
oracle

>  <origin>  (28) 
autodockgpu

>  <m_score__min__energy>  (28) 
-9.1300000000000008

>  <m_primary>  (28) 
energy

>  <rmsd>  (28) 
3.3187870924564495

>  <m_score__min__rmsd>  (28) 
3.3187870924564495

>  <meeko>  (28) 
{"free_energy": -8.49, "intermolecular_energy": -10.57, "internal_energy": -1.58, "cluster_size": 4, "cluster_id": 3, "rank_in_cluster": 1}

>  <energy>  (28) 
-8.35

>  <cluster_rmsd>  (28) 
0.43

>  <cluster>  (28) 
3

$$$$

     RDKit          3D

 53 55  0  0  0  0  0  0  0  0999 V2000
  141.4780   78.4660  223.4590 C   0  0  0  0  0  0  0  0  0  0  0  0
  141.0060   77.8450  222.1600 C   0  0  0  0  0  0  0  0  0  0  0  0
  140.0710   78.7880  221.4870 C   0  0  0  0  0  0  0  0  0  0  0  0
  140.5260   76.4470  222.3330 C   0  0  0  0  0  0  0  0  0  0  0  0
  140.5430   75.5920  221.1190 C   0  0  2  0  0  0  0  0  0  0  0  0
  139.7430   74.3840  221.3950 N   0  0  0  0  0  0  0  0  0  0  0  0
  138.3370   74.4060  221.1630 C   0  0  0  0  0  0  0  0  0  0  0  0
  137.8290   75.4710  220.7250 O   0  0  0  0  0  0  0  0  0  0  0  0
  137.5700   73.1770  221.4510 C   0  0  0  0  0  0  0  0  0  0  0  0
  138.0010   72.6260  222.7030 N   0  0  0  0  0  0  0  0  0  0  0  0
  139.1500   71.7840  222.7020 C   0  0  0  0  0  0  0  0  0  0  0  0
  139.7470   71.5530  221.6100 O   0  0  0  0  0  0  0  0  0  0  0  0
  139.6300   71.1970  223.9500 C   0  0  0  0  0  0  0  0  0  0  0  0
  140.5600   71.8860  224.7030 C   0  0  0  0  0  0  0  0  0  0  0  0
  141.0700   71.4110  225.8940 C   0  0  0  0  0  0  0  0  0  0  0  0
  140.6080   70.1840  226.3260 C   0  0  0  0  0  0  0  0  0  0  0  0
  141.0970   69.6770  227.5130 C   0  0  0  0  0  0  0  0  0  0  0  0
  140.6690   68.4560  227.9930 C   0  0  0  0  0  0  0  0  0  0  0  0
  141.1470   67.9650  229.1490 F   0  0  0  0  0  0  0  0  0  0  0  0
  139.7270   67.7620  227.2260 C   0  0  0  0  0  0  0  0  0  0  0  0
  139.2390   68.2680  226.0390 C   0  0  0  0  0  0  0  0  0  0  0  0
  139.6780   69.4910  225.5770 C   0  0  0  0  0  0  0  0  0  0  0  0
  139.1980   69.9970  224.4040 N   0  0  0  0  0  0  0  0  0  0  0  0
  141.8690   75.0860  220.7130 C   0  0  0  0  0  0  0  0  0  0  0  0
  142.2840   73.7850  220.9040 C   0  0  0  0  0  0  0  0  0  0  0  0
  143.5250   73.3190  220.5270 C   0  0  0  0  0  0  0  0  0  0  0  0
  144.4300   74.1660  219.9240 C   0  0  0  0  0  0  0  0  0  0  0  0
  144.0480   75.4750  219.7150 C   0  0  0  0  0  0  0  0  0  0  0  0
  142.8000   75.9320  220.0990 C   0  0  0  0  0  0  0  0  0  0  0  0
  141.0542   77.9084  224.3072 H   0  0  0  0  0  0  0  0  0  0  0  0
  142.5763   78.4267  223.5064 H   0  0  0  0  0  0  0  0  0  0  0  0
  141.1462   79.5137  223.5064 H   0  0  0  0  0  0  0  0  0  0  0  0
  141.8516   77.7076  221.4700 H   0  0  0  0  0  0  0  0  0  0  0  0
  139.5106   79.3532  222.2463 H   0  0  0  0  0  0  0  0  0  0  0  0
  140.6435   79.4862  220.8587 H   0  0  0  0  0  0  0  0  0  0  0  0
  139.3680   78.2214  220.8587 H   0  0  0  0  0  0  0  0  0  0  0  0
  141.1612   75.9657  223.0912 H   0  0  0  0  0  0  0  0  0  0  0  0
  139.4668   76.5329  222.6172 H   0  0  0  0  0  0  0  0  0  0  0  0
  140.1631   76.2384  220.3142 H   0  0  0  0  0  0  0  0  0  0  0  0
  140.2220   73.5360  221.7560 H   0  0  0  0  0  0  0  0  0  0  0  0
  136.4982   73.4183  221.5063 H   0  0  0  0  0  0  0  0  0  0  0  0
  137.7400   72.4428  220.6497 H   0  0  0  0  0  0  0  0  0  0  0  0
  137.4860   72.8330  223.6070 H   0  0  0  0  0  0  0  0  0  0  0  0
  140.9116   72.8614  224.3355 H   0  0  0  0  0  0  0  0  0  0  0  0
  141.8102   71.9834  226.4722 H   0  0  0  0  0  0  0  0  0  0  0  0
  141.8385   70.2545  228.0846 H   0  0  0  0  0  0  0  0  0  0  0  0
  139.3652   66.7852  227.5794 H   0  0  0  0  0  0  0  0  0  0  0  0
  138.4990   67.6954  225.4605 H   0  0  0  0  0  0  0  0  0  0  0  0
  141.5872   73.0814  221.3830 H   0  0  0  0  0  0  0  0  0  0  0  0
  143.7941   72.2679  220.7078 H   0  0  0  0  0  0  0  0  0  0  0  0
  145.4250   73.8095  219.6192 H   0  0  0  0  0  0  0  0  0  0  0  0
  144.7508   76.1703  219.2327 H   0  0  0  0  0  0  0  0  0  0  0  0
  142.5333   76.9837  219.9178 H   0  0  0  0  0  0  0  0  0  0  0  0
  1  2  1  0
  2  3  1  0
  2  4  1  0
  4  5  1  0
  5  6  1  0
  6  7  1  0
  7  8  2  0
  7  9  1  0
  9 10  1  0
 10 11  1  0
 11 12  2  0
 11 13  1  0
 13 14  2  0
 14 15  1  0
 15 16  2  0
 16 17  1  0
 17 18  2  0
 18 19  1  0
 18 20  1  0
 20 21  2  0
 21 22  1  0
 22 23  2  0
  5 24  1  0
 24 25  2  0
 25 26  1  0
 26 27  2  0
 27 28  1  0
 28 29  2  0
 23 13  1  0
 29 24  1  0
 22 16  1  0
  1 30  1  0
  1 31  1  0
  1 32  1  0
  2 33  1  0
  3 34  1  0
  3 35  1  0
  3 36  1  0
  4 37  1  0
  4 38  1  0
  5 39  1  6
  6 40  1  0
  9 41  1  0
  9 42  1  0
 10 43  1  0
 14 44  1  0
 15 45  1  0
 17 46  1  0
 20 47  1  0
 21 48  1  0
 25 49  1  0
 26 50  1  0
 27 51  1  0
 28 52  1  0
 29 53  1  0
M  END
>  <smiles>  (29) 
CC(C)C[C@H](NC(=O)CNC(=O)c1ccc2cc(F)ccc2n1)c1ccccc1

>  <score_type>  (29) 
oracle

>  <origin>  (29) 
autodockgpu

>  <m_score__min__energy>  (29) 
-9.1300000000000008

>  <m_primary>  (29) 
energy

>  <rmsd>  (29) 
3.7288688005080033

>  <m_score__min__rmsd>  (29) 
3.7288688005080033

>  <meeko>  (29) 
{"free_energy": -7.66, "intermolecular_energy": -9.74, "internal_energy": -2.29, "cluster_size": 12, "cluster_id": 4, "rank_in_cluster": 11}

>  <energy>  (29) 
-8.3

>  <cluster_rmsd>  (29) 
1.12

>  <cluster>  (29) 
3

$$$$

     RDKit          3D

 53 55  0  0  0  0  0  0  0  0999 V2000
  137.5240   79.9030  221.7470 C   0  0  0  0  0  0  0  0  0  0  0  0
  137.8050   79.2280  223.0740 C   0  0  0  0  0  0  0  0  0  0  0  0
  138.2820   80.2520  224.0440 C   0  0  0  0  0  0  0  0  0  0  0  0
  138.6470   78.0090  222.9320 C   0  0  0  0  0  0  0  0  0  0  0  0
  139.8050   78.1150  222.0080 C   0  0  2  0  0  0  0  0  0  0  0  0
  140.3950   76.7710  221.8540 N   0  0  0  0  0  0  0  0  0  0  0  0
  139.6150   75.7250  221.2840 C   0  0  0  0  0  0  0  0  0  0  0  0
  138.4370   75.9920  220.9300 O   0  0  0  0  0  0  0  0  0  0  0  0
  140.2410   74.3940  221.1460 C   0  0  0  0  0  0  0  0  0  0  0  0
  140.0280   73.6370  222.3460 N   0  0  0  0  0  0  0  0  0  0  0  0
  140.5270   72.3030  222.3920 C   0  0  0  0  0  0  0  0  0  0  0  0
  141.1340   71.8360  221.3860 O   0  0  0  0  0  0  0  0  0  0  0  0
  140.3360   71.4900  223.5900 C   0  0  0  0  0  0  0  0  0  0  0  0
  139.6910   70.2740  223.4810 C   0  0  0  0  0  0  0  0  0  0  0  0
  139.4660   69.4380  224.5550 C   0  0  0  0  0  0  0  0  0  0  0  0
  139.9200   69.8680  225.7870 C   0  0  0  0  0  0  0  0  0  0  0  0
  139.7120   69.0580  226.8840 C   0  0  0  0  0  0  0  0  0  0  0  0
  140.1460   69.4380  228.1380 C   0  0  0  0  0  0  0  0  0  0  0  0
  139.9420   68.6470  229.2050 F   0  0  0  0  0  0  0  0  0  0  0  0
  140.7980   70.6700  228.2430 C   0  0  0  0  0  0  0  0  0  0  0  0
  141.0060   71.4810  227.1460 C   0  0  0  0  0  0  0  0  0  0  0  0
  140.5660   71.0830  225.9010 C   0  0  0  0  0  0  0  0  0  0  0  0
  140.7690   71.8800  224.8120 N   0  0  0  0  0  0  0  0  0  0  0  0
  140.9160   78.9680  222.4720 C   0  0  0  0  0  0  0  0  0  0  0  0
  141.3840   78.9780  223.7690 C   0  0  0  0  0  0  0  0  0  0  0  0
  142.4200   79.7810  224.1980 C   0  0  0  0  0  0  0  0  0  0  0  0
  143.0480   80.6330  223.3150 C   0  0  0  0  0  0  0  0  0  0  0  0
  142.6070   80.6480  222.0090 C   0  0  0  0  0  0  0  0  0  0  0  0
  141.5670   79.8380  221.5890 C   0  0  0  0  0  0  0  0  0  0  0  0
  137.1069   80.9049  221.9263 H   0  0  0  0  0  0  0  0  0  0  0  0
  138.4597   79.9922  221.1756 H   0  0  0  0  0  0  0  0  0  0  0  0
  136.8014   79.3019  221.1756 H   0  0  0  0  0  0  0  0  0  0  0  0
  136.8784   78.8125  223.4969 H   0  0  0  0  0  0  0  0  0  0  0  0
  138.1142   79.8917  225.0697 H   0  0  0  0  0  0  0  0  0  0  0  0
  139.3563   80.4311  223.8895 H   0  0  0  0  0  0  0  0  0  0  0  0
  137.7280   81.1896  223.8895 H   0  0  0  0  0  0  0  0  0  0  0  0
  139.0354   77.7516  223.9285 H   0  0  0  0  0  0  0  0  0  0  0  0
  137.9882   77.2462  222.4914 H   0  0  0  0  0  0  0  0  0  0  0  0
  139.3936   78.5604  221.0902 H   0  0  0  0  0  0  0  0  0  0  0  0
  141.3730   76.6140  222.1660 H   0  0  0  0  0  0  0  0  0  0  0  0
  139.7908   73.8640  220.2937 H   0  0  0  0  0  0  0  0  0  0  0  0
  141.3211   74.5134  220.9754 H   0  0  0  0  0  0  0  0  0  0  0  0
  139.5150   74.0490  223.1780 H   0  0  0  0  0  0  0  0  0  0  0  0
  139.3391   69.9561  222.4885 H   0  0  0  0  0  0  0  0  0  0  0  0
  138.9493   68.4742  224.4361 H   0  0  0  0  0  0  0  0  0  0  0  0
  139.1933   68.0962  226.7578 H   0  0  0  0  0  0  0  0  0  0  0  0
  141.1557   71.0027  229.2286 H   0  0  0  0  0  0  0  0  0  0  0  0
  141.5227   72.4448  227.2646 H   0  0  0  0  0  0  0  0  0  0  0  0
  140.9056   78.3100  224.5004 H   0  0  0  0  0  0  0  0  0  0  0  0
  142.7461   79.7414  225.2478 H   0  0  0  0  0  0  0  0  0  0  0  0
  143.8749   81.2805  223.6421 H   0  0  0  0  0  0  0  0  0  0  0  0
  143.0926   81.3187  221.2849 H   0  0  0  0  0  0  0  0  0  0  0  0
  141.2444   79.8784  220.5381 H   0  0  0  0  0  0  0  0  0  0  0  0
  1  2  1  0
  2  3  1  0
  2  4  1  0
  4  5  1  0
  5  6  1  0
  6  7  1  0
  7  8  2  0
  7  9  1  0
  9 10  1  0
 10 11  1  0
 11 12  2  0
 11 13  1  0
 13 14  2  0
 14 15  1  0
 15 16  2  0
 16 17  1  0
 17 18  2  0
 18 19  1  0
 18 20  1  0
 20 21  2  0
 21 22  1  0
 22 23  2  0
  5 24  1  0
 24 25  2  0
 25 26  1  0
 26 27  2  0
 27 28  1  0
 28 29  2  0
 23 13  1  0
 29 24  1  0
 22 16  1  0
  1 30  1  0
  1 31  1  0
  1 32  1  0
  2 33  1  0
  3 34  1  0
  3 35  1  0
  3 36  1  0
  4 37  1  0
  4 38  1  0
  5 39  1  6
  6 40  1  0
  9 41  1  0
  9 42  1  0
 10 43  1  0
 14 44  1  0
 15 45  1  0
 17 46  1  0
 20 47  1  0
 21 48  1  0
 25 49  1  0
 26 50  1  0
 27 51  1  0
 28 52  1  0
 29 53  1  0
M  END
>  <smiles>  (30) 
CC(C)C[C@H](NC(=O)CNC(=O)c1ccc2cc(F)ccc2n1)c1ccccc1

>  <score_type>  (30) 
oracle

>  <origin>  (30) 
autodockgpu

>  <m_score__min__energy>  (30) 
-9.1300000000000008

>  <m_primary>  (30) 
energy

>  <rmsd>  (30) 
3.6686793854770707

>  <m_score__min__rmsd>  (30) 
3.6686793854770707

>  <meeko>  (30) 
{"free_energy": -8.52, "intermolecular_energy": -10.61, "internal_energy": -1.38, "cluster_size": 16, "cluster_id": 1, "rank_in_cluster": 11}

>  <energy>  (30) 
-8.04

>  <cluster_rmsd>  (30) 
0.52

>  <cluster>  (30) 
3

$$$$

     RDKit          3D

 53 55  0  0  0  0  0  0  0  0999 V2000
  142.8050   76.5670  217.2520 C   0  0  0  0  0  0  0  0  0  0  0  0
  143.1650   76.9280  218.6790 C   0  0  0  0  0  0  0  0  0  0  0  0
  143.6790   75.7130  219.3690 C   0  0  0  0  0  0  0  0  0  0  0  0
  142.0790   77.6740  219.3740 C   0  0  0  0  0  0  0  0  0  0  0  0
  141.8090   77.2800  220.7800 C   0  0  2  0  0  0  0  0  0  0  0  0
  140.5540   76.5050  220.8090 N   0  0  0  0  0  0  0  0  0  0  0  0
  140.6020   75.1040  221.0590 C   0  0  0  0  0  0  0  0  0  0  0  0
  141.7290   74.5760  221.2490 O   0  0  0  0  0  0  0  0  0  0  0  0
  139.3250   74.3620  221.0800 C   0  0  0  0  0  0  0  0  0  0  0  0
  139.2560   73.5610  222.2690 N   0  0  0  0  0  0  0  0  0  0  0  0
  140.0400   72.3730  222.3200 C   0  0  0  0  0  0  0  0  0  0  0  0
  140.7640   72.0660  221.3280 O   0  0  0  0  0  0  0  0  0  0  0  0
  140.0060   71.5220  223.5060 C   0  0  0  0  0  0  0  0  0  0  0  0
  139.3690   70.2990  223.4370 C   0  0  0  0  0  0  0  0  0  0  0  0
  139.2860   69.4280  224.5050 C   0  0  0  0  0  0  0  0  0  0  0  0
  139.8780   69.8290  225.6860 C   0  0  0  0  0  0  0  0  0  0  0  0
  139.8150   68.9850  226.7750 C   0  0  0  0  0  0  0  0  0  0  0  0
  140.3910   69.3350  227.9790 C   0  0  0  0  0  0  0  0  0  0  0  0
  140.3270   68.5110  229.0380 F   0  0  0  0  0  0  0  0  0  0  0  0
  141.0340   70.5750  228.0430 C   0  0  0  0  0  0  0  0  0  0  0  0
  141.0980   71.4200  226.9550 C   0  0  0  0  0  0  0  0  0  0  0  0
  140.5170   71.0520  225.7600 C   0  0  0  0  0  0  0  0  0  0  0  0
  140.5770   71.8830  224.6790 N   0  0  0  0  0  0  0  0  0  0  0  0
  141.5900   78.3940  221.7230 C   0  0  0  0  0  0  0  0  0  0  0  0
  141.1300   78.2280  223.0120 C   0  0  0  0  0  0  0  0  0  0  0  0
  140.9230   79.2720  223.8880 C   0  0  0  0  0  0  0  0  0  0  0  0
  141.1780   80.5680  223.4930 C   0  0  0  0  0  0  0  0  0  0  0  0
  141.6410   80.7730  222.2100 C   0  0  0  0  0  0  0  0  0  0  0  0
  141.8440   79.7170  221.3400 C   0  0  0  0  0  0  0  0  0  0  0  0
  142.0283   75.7881  217.2556 H   0  0  0  0  0  0  0  0  0  0  0  0
  142.4267   77.4596  216.7322 H   0  0  0  0  0  0  0  0  0  0  0  0
  143.6987   76.1912  216.7322 H   0  0  0  0  0  0  0  0  0  0  0  0
  143.9863   77.6596  218.6944 H   0  0  0  0  0  0  0  0  0  0  0  0
  143.6183   75.8564  220.4579 H   0  0  0  0  0  0  0  0  0  0  0  0
  143.0721   74.8425  219.0794 H   0  0  0  0  0  0  0  0  0  0  0  0
  144.7264   75.5424  219.0794 H   0  0  0  0  0  0  0  0  0  0  0  0
  142.3487   78.7404  219.3702 H   0  0  0  0  0  0  0  0  0  0  0  0
  141.1584   77.4378  218.8201 H   0  0  0  0  0  0  0  0  0  0  0  0
  142.7099   76.7346  221.0977 H   0  0  0  0  0  0  0  0  0  0  0  0
  139.6560   76.9990  220.6440 H   0  0  0  0  0  0  0  0  0  0  0  0
  138.4869   75.0744  221.0688 H   0  0  0  0  0  0  0  0  0  0  0  0
  139.2650   73.7108  220.1955 H   0  0  0  0  0  0  0  0  0  0  0  0
  138.6430   73.8370  223.0890 H   0  0  0  0  0  0  0  0  0  0  0  0
  138.9048   70.0041  222.4843 H   0  0  0  0  0  0  0  0  0  0  0  0
  138.7719   68.4593  224.4189 H   0  0  0  0  0  0  0  0  0  0  0  0
  139.2979   68.0185  226.6823 H   0  0  0  0  0  0  0  0  0  0  0  0
  141.5024   70.8855  228.9886 H   0  0  0  0  0  0  0  0  0  0  0  0
  141.6129   72.3882  227.0406 H   0  0  0  0  0  0  0  0  0  0  0  0
  140.9165   77.2067  223.3604 H   0  0  0  0  0  0  0  0  0  0  0  0
  140.5536   79.0706  224.9044 H   0  0  0  0  0  0  0  0  0  0  0  0
  141.0172   81.4122  224.1796 H   0  0  0  0  0  0  0  0  0  0  0  0
  141.8533   81.7979  221.8716 H   0  0  0  0  0  0  0  0  0  0  0  0
  142.2133   79.9210  220.3241 H   0  0  0  0  0  0  0  0  0  0  0  0
  1  2  1  0
  2  3  1  0
  2  4  1  0
  4  5  1  0
  5  6  1  0
  6  7  1  0
  7  8  2  0
  7  9  1  0
  9 10  1  0
 10 11  1  0
 11 12  2  0
 11 13  1  0
 13 14  2  0
 14 15  1  0
 15 16  2  0
 16 17  1  0
 17 18  2  0
 18 19  1  0
 18 20  1  0
 20 21  2  0
 21 22  1  0
 22 23  2  0
  5 24  1  0
 24 25  2  0
 25 26  1  0
 26 27  2  0
 27 28  1  0
 28 29  2  0
 23 13  1  0
 29 24  1  0
 22 16  1  0
  1 30  1  0
  1 31  1  0
  1 32  1  0
  2 33  1  0
  3 34  1  0
  3 35  1  0
  3 36  1  0
  4 37  1  0
  4 38  1  0
  5 39  1  1
  6 40  1  0
  9 41  1  0
  9 42  1  0
 10 43  1  0
 14 44  1  0
 15 45  1  0
 17 46  1  0
 20 47  1  0
 21 48  1  0
 25 49  1  0
 26 50  1  0
 27 51  1  0
 28 52  1  0
 29 53  1  0
M  END
>  <smiles>  (31) 
CC(C)C[C@H](NC(=O)CNC(=O)c1ccc2cc(F)ccc2n1)c1ccccc1

>  <score_type>  (31) 
oracle

>  <origin>  (31) 
autodockgpu

>  <m_score__min__energy>  (31) 
-9.1300000000000008

>  <m_primary>  (31) 
energy

>  <rmsd>  (31) 
2.004989748743867

>  <m_score__min__rmsd>  (31) 
2.004989748743867

>  <meeko>  (31) 
{"free_energy": -8.57, "intermolecular_energy": -10.66, "internal_energy": -1.34, "cluster_size": 16, "cluster_id": 1, "rank_in_cluster": 9}

>  <energy>  (31) 
-8.24

>  <cluster_rmsd>  (31) 
0.0

>  <cluster>  (31) 
4

$$$$

     RDKit          3D

 53 55  0  0  0  0  0  0  0  0999 V2000
  141.4710   78.6690  223.3850 C   0  0  0  0  0  0  0  0  0  0  0  0
  141.1370   77.8820  222.1350 C   0  0  0  0  0  0  0  0  0  0  0  0
  140.7160   78.8300  221.0660 C   0  0  0  0  0  0  0  0  0  0  0  0
  140.2220   76.7380  222.4030 C   0  0  0  0  0  0  0  0  0  0  0  0
  140.0750   75.7460  221.3080 C   0  0  2  0  0  0  0  0  0  0  0  0
  139.1470   74.6930  221.7640 N   0  0  0  0  0  0  0  0  0  0  0  0
  138.2820   74.0660  220.8210 C   0  0  0  0  0  0  0  0  0  0  0  0
  138.3450   74.4420  219.6220 O   0  0  0  0  0  0  0  0  0  0  0  0
  137.3670   73.0170  221.3150 C   0  0  0  0  0  0  0  0  0  0  0  0
  137.8460   72.5160  222.5700 N   0  0  0  0  0  0  0  0  0  0  0  0
  138.9790   71.6510  222.5570 C   0  0  0  0  0  0  0  0  0  0  0  0
  139.5190   71.3580  221.4510 O   0  0  0  0  0  0  0  0  0  0  0  0
  139.5060   71.1130  223.8080 C   0  0  0  0  0  0  0  0  0  0  0  0
  140.4370   71.8470  224.5160 C   0  0  0  0  0  0  0  0  0  0  0  0
  140.9890   71.4210  225.7060 C   0  0  0  0  0  0  0  0  0  0  0  0
  140.5710   70.1950  226.1860 C   0  0  0  0  0  0  0  0  0  0  0  0
  141.1030   69.7370  227.3730 C   0  0  0  0  0  0  0  0  0  0  0  0
  140.7190   68.5190  227.8990 C   0  0  0  0  0  0  0  0  0  0  0  0
  141.2390   68.0750  229.0550 F   0  0  0  0  0  0  0  0  0  0  0  0
  139.7760   67.7800  227.1780 C   0  0  0  0  0  0  0  0  0  0  0  0
  139.2440   68.2380  225.9900 C   0  0  0  0  0  0  0  0  0  0  0  0
  139.6400   69.4580  225.4820 C   0  0  0  0  0  0  0  0  0  0  0  0
  139.1170   69.9170  224.3070 N   0  0  0  0  0  0  0  0  0  0  0  0
  141.3070   75.0280  220.9270 C   0  0  0  0  0  0  0  0  0  0  0  0
  142.3710   75.6210  220.2810 C   0  0  0  0  0  0  0  0  0  0  0  0
  143.5170   74.9450  219.9230 C   0  0  0  0  0  0  0  0  0  0  0  0
  143.6480   73.6020  220.2100 C   0  0  0  0  0  0  0  0  0  0  0  0
  142.6040   72.9760  220.8570 C   0  0  0  0  0  0  0  0  0  0  0  0
  141.4580   73.6650  221.2100 C   0  0  0  0  0  0  0  0  0  0  0  0
  141.2174   78.0715  224.2731 H   0  0  0  0  0  0  0  0  0  0  0  0
  142.5458   78.9027  223.3949 H   0  0  0  0  0  0  0  0  0  0  0  0
  140.8923   79.6044  223.3949 H   0  0  0  0  0  0  0  0  0  0  0  0
  142.0323   77.3686  221.7543 H   0  0  0  0  0  0  0  0  0  0  0  0
  140.3103   79.7436  221.5251 H   0  0  0  0  0  0  0  0  0  0  0  0
  141.5843   79.0878  220.4417 H   0  0  0  0  0  0  0  0  0  0  0  0
  139.9426   78.3587  220.4417 H   0  0  0  0  0  0  0  0  0  0  0  0
  140.5997   76.2065  223.2889 H   0  0  0  0  0  0  0  0  0  0  0  0
  139.2245   77.1830  222.5331 H   0  0  0  0  0  0  0  0  0  0  0  0
  139.7392   76.3319  220.4397 H   0  0  0  0  0  0  0  0  0  0  0  0
  139.1420   74.4280  222.7680 H   0  0  0  0  0  0  0  0  0  0  0  0
  136.3613   73.4417  221.4497 H   0  0  0  0  0  0  0  0  0  0  0  0
  137.3238   72.1952  220.5850 H   0  0  0  0  0  0  0  0  0  0  0  0
  137.3780   72.7750  223.4860 H   0  0  0  0  0  0  0  0  0  0  0  0
  140.7540   72.8194  224.1110 H   0  0  0  0  0  0  0  0  0  0  0  0
  141.7280   72.0295  226.2479 H   0  0  0  0  0  0  0  0  0  0  0  0
  141.8432   70.3500  227.9081 H   0  0  0  0  0  0  0  0  0  0  0  0
  139.4488   66.8053  227.5691 H   0  0  0  0  0  0  0  0  0  0  0  0
  138.5043   67.6304  225.4481 H   0  0  0  0  0  0  0  0  0  0  0  0
  142.3012   76.6916  220.0383 H   0  0  0  0  0  0  0  0  0  0  0  0
  144.3295   75.4775  219.4070 H   0  0  0  0  0  0  0  0  0  0  0  0
  144.5567   73.0482  219.9314 H   0  0  0  0  0  0  0  0  0  0  0  0
  142.6842   71.9056  221.0976 H   0  0  0  0  0  0  0  0  0  0  0  0
  140.6465   73.1300  221.7249 H   0  0  0  0  0  0  0  0  0  0  0  0
  1  2  1  0
  2  3  1  0
  2  4  1  0
  4  5  1  0
  5  6  1  0
  6  7  1  0
  7  8  2  0
  7  9  1  0
  9 10  1  0
 10 11  1  0
 11 12  2  0
 11 13  1  0
 13 14  2  0
 14 15  1  0
 15 16  2  0
 16 17  1  0
 17 18  2  0
 18 19  1  0
 18 20  1  0
 20 21  2  0
 21 22  1  0
 22 23  2  0
  5 24  1  0
 24 25  2  0
 25 26  1  0
 26 27  2  0
 27 28  1  0
 28 29  2  0
 23 13  1  0
 29 24  1  0
 22 16  1  0
  1 30  1  0
  1 31  1  0
  1 32  1  0
  2 33  1  0
  3 34  1  0
  3 35  1  0
  3 36  1  0
  4 37  1  0
  4 38  1  0
  5 39  1  6
  6 40  1  0
  9 41  1  0
  9 42  1  0
 10 43  1  0
 14 44  1  0
 15 45  1  0
 17 46  1  0
 20 47  1  0
 21 48  1  0
 25 49  1  0
 26 50  1  0
 27 51  1  0
 28 52  1  0
 29 53  1  0
M  END
>  <smiles>  (32) 
CC(C)C[C@H](NC(=O)CNC(=O)c1ccc2cc(F)ccc2n1)c1ccccc1

>  <score_type>  (32) 
oracle

>  <origin>  (32) 
autodockgpu

>  <m_score__min__energy>  (32) 
-9.1300000000000008

>  <m_primary>  (32) 
energy

>  <rmsd>  (32) 
3.7429188123850654

>  <m_score__min__rmsd>  (32) 
3.7429188123850654

>  <meeko>  (32) 
{"free_energy": -8.07, "intermolecular_energy": -10.16, "internal_energy": -1.91, "cluster_size": 12, "cluster_id": 4, "rank_in_cluster": 2}

>  <energy>  (32) 
-8.07

>  <cluster_rmsd>  (32) 
1.7

>  <cluster>  (32) 
4

$$$$

     RDKit          3D

 53 55  0  0  0  0  0  0  0  0999 V2000
  145.9310   73.1270  221.1740 C   0  0  0  0  0  0  0  0  0  0  0  0
  144.4550   73.1240  220.8340 C   0  0  0  0  0  0  0  0  0  0  0  0
  144.0140   71.7190  220.6140 C   0  0  0  0  0  0  0  0  0  0  0  0
  144.1090   74.1000  219.7650 C   0  0  0  0  0  0  0  0  0  0  0  0
  143.0950   75.1270  220.1170 C   0  0  2  0  0  0  0  0  0  0  0  0
  141.7790   74.4660  220.1980 N   0  0  0  0  0  0  0  0  0  0  0  0
  140.7370   75.0700  220.9590 C   0  0  0  0  0  0  0  0  0  0  0  0
  140.9860   76.1590  221.5390 O   0  0  0  0  0  0  0  0  0  0  0  0
  139.4340   74.3790  221.0170 C   0  0  0  0  0  0  0  0  0  0  0  0
  139.3760   73.5620  222.1950 N   0  0  0  0  0  0  0  0  0  0  0  0
  140.1770   72.3840  222.2310 C   0  0  0  0  0  0  0  0  0  0  0  0
  140.9040   72.1010  221.2360 O   0  0  0  0  0  0  0  0  0  0  0  0
  140.1550   71.5180  223.4060 C   0  0  0  0  0  0  0  0  0  0  0  0
  139.6160   70.2520  223.2980 C   0  0  0  0  0  0  0  0  0  0  0  0
  139.5520   69.3640  224.3520 C   0  0  0  0  0  0  0  0  0  0  0  0
  140.0610   69.7940  225.5620 C   0  0  0  0  0  0  0  0  0  0  0  0
  140.0130   68.9330  226.6390 C   0  0  0  0  0  0  0  0  0  0  0  0
  140.5090   69.3100  227.8710 C   0  0  0  0  0  0  0  0  0  0  0  0
  140.4610   68.4690  228.9180 F   0  0  0  0  0  0  0  0  0  0  0  0
  141.0540   70.5930  227.9750 C   0  0  0  0  0  0  0  0  0  0  0  0
  141.1020   71.4550  226.8990 C   0  0  0  0  0  0  0  0  0  0  0  0
  140.6020   71.0590  225.6760 C   0  0  0  0  0  0  0  0  0  0  0  0
  140.6460   71.9060  224.6070 N   0  0  0  0  0  0  0  0  0  0  0  0
  142.9160   76.2110  219.1310 C   0  0  0  0  0  0  0  0  0  0  0  0
  143.1110   76.0540  217.7750 C   0  0  0  0  0  0  0  0  0  0  0  0
  142.9470   77.0710  216.8590 C   0  0  0  0  0  0  0  0  0  0  0  0
  142.5670   78.3280  217.2800 C   0  0  0  0  0  0  0  0  0  0  0  0
  142.3610   78.5220  218.6300 C   0  0  0  0  0  0  0  0  0  0  0  0
  142.5300   77.4930  219.5400 C   0  0  0  0  0  0  0  0  0  0  0  0
  146.0555   73.1273  222.2669 H   0  0  0  0  0  0  0  0  0  0  0  0
  146.4065   72.2298  220.7510 H   0  0  0  0  0  0  0  0  0  0  0  0
  146.4029   74.0261  220.7510 H   0  0  0  0  0  0  0  0  0  0  0  0
  143.8655   73.5020  221.6823 H   0  0  0  0  0  0  0  0  0  0  0  0
  143.8595   71.2268  221.5855 H   0  0  0  0  0  0  0  0  0  0  0  0
  143.0714   71.7151  220.0470 H   0  0  0  0  0  0  0  0  0  0  0  0
  144.7853   71.1771  220.0470 H   0  0  0  0  0  0  0  0  0  0  0  0
  145.0323   74.6246  219.4781 H   0  0  0  0  0  0  0  0  0  0  0  0
  143.6567   73.5045  218.9582 H   0  0  0  0  0  0  0  0  0  0  0  0
  143.4597   75.5736  221.0538 H   0  0  0  0  0  0  0  0  0  0  0  0
  141.6370   73.5670  219.6970 H   0  0  0  0  0  0  0  0  0  0  0  0
  138.6253   75.1240  221.0477 H   0  0  0  0  0  0  0  0  0  0  0  0
  139.3161   73.7450  220.1258 H   0  0  0  0  0  0  0  0  0  0  0  0
  138.7590   73.8190  223.0180 H   0  0  0  0  0  0  0  0  0  0  0  0
  139.2175   69.9352  222.3229 H   0  0  0  0  0  0  0  0  0  0  0  0
  139.1162   68.3609  224.2343 H   0  0  0  0  0  0  0  0  0  0  0  0
  139.5735   67.9324  226.5143 H   0  0  0  0  0  0  0  0  0  0  0  0
  141.4565   70.9251  228.9434 H   0  0  0  0  0  0  0  0  0  0  0  0
  141.5388   72.4577  227.0163 H   0  0  0  0  0  0  0  0  0  0  0  0
  143.4138   75.0636  217.4042 H   0  0  0  0  0  0  0  0  0  0  0  0
  143.1197   76.8794  215.7897 H   0  0  0  0  0  0  0  0  0  0  0  0
  142.4324   79.1502  216.5617 H   0  0  0  0  0  0  0  0  0  0  0  0
  142.0560   79.5153  218.9909 H   0  0  0  0  0  0  0  0  0  0  0  0
  142.3571   77.6869  220.6089 H   0  0  0  0  0  0  0  0  0  0  0  0
  1  2  1  0
  2  3  1  0
  2  4  1  0
  4  5  1  0
  5  6  1  0
  6  7  1  0
  7  8  2  0
  7  9  1  0
  9 10  1  0
 10 11  1  0
 11 12  2  0
 11 13  1  0
 13 14  2  0
 14 15  1  0
 15 16  2  0
 16 17  1  0
 17 18  2  0
 18 19  1  0
 18 20  1  0
 20 21  2  0
 21 22  1  0
 22 23  2  0
  5 24  1  0
 24 25  2  0
 25 26  1  0
 26 27  2  0
 27 28  1  0
 28 29  2  0
 23 13  1  0
 29 24  1  0
 22 16  1  0
  1 30  1  0
  1 31  1  0
  1 32  1  0
  2 33  1  0
  3 34  1  0
  3 35  1  0
  3 36  1  0
  4 37  1  0
  4 38  1  0
  5 39  1  1
  6 40  1  0
  9 41  1  0
  9 42  1  0
 10 43  1  0
 14 44  1  0
 15 45  1  0
 17 46  1  0
 20 47  1  0
 21 48  1  0
 25 49  1  0
 26 50  1  0
 27 51  1  0
 28 52  1  0
 29 53  1  0
M  END
>  <smiles>  (33) 
CC(C)C[C@H](NC(=O)CNC(=O)c1ccc2cc(F)ccc2n1)c1ccccc1

>  <score_type>  (33) 
oracle

>  <origin>  (33) 
autodockgpu

>  <m_score__min__energy>  (33) 
-9.1300000000000008

>  <m_primary>  (33) 
energy

>  <rmsd>  (33) 
3.4126981877617646

>  <m_score__min__rmsd>  (33) 
3.4126981877617646

>  <meeko>  (33) 
{"free_energy": -8.04, "intermolecular_energy": -10.13, "internal_energy": -2.16, "cluster_size": 4, "cluster_id": 3, "rank_in_cluster": 4}

>  <energy>  (33) 
-8.05

>  <cluster_rmsd>  (33) 
1.6

>  <cluster>  (33) 
4

$$$$

     RDKit          3D

 53 55  0  0  0  0  0  0  0  0999 V2000
  140.2030   79.6020  218.9320 C   0  0  0  0  0  0  0  0  0  0  0  0
  141.6690   79.4030  219.2570 C   0  0  0  0  0  0  0  0  0  0  0  0
  142.4900   80.1330  218.2520 C   0  0  0  0  0  0  0  0  0  0  0  0
  142.0180   77.9740  219.4830 C   0  0  0  0  0  0  0  0  0  0  0  0
  141.7590   77.4420  220.8460 C   0  0  2  0  0  0  0  0  0  0  0  0
  140.5690   76.5720  220.7820 N   0  0  0  0  0  0  0  0  0  0  0  0
  140.6730   75.2120  221.1910 C   0  0  0  0  0  0  0  0  0  0  0  0
  141.7920   74.8020  221.5960 O   0  0  0  0  0  0  0  0  0  0  0  0
  139.4610   74.3720  221.1130 C   0  0  0  0  0  0  0  0  0  0  0  0
  139.3690   73.5530  222.2870 N   0  0  0  0  0  0  0  0  0  0  0  0
  140.1930   72.3920  222.3570 C   0  0  0  0  0  0  0  0  0  0  0  0
  140.9690   72.1260  221.3940 O   0  0  0  0  0  0  0  0  0  0  0  0
  140.1380   71.5230  223.5290 C   0  0  0  0  0  0  0  0  0  0  0  0
  139.5510   70.2790  223.4160 C   0  0  0  0  0  0  0  0  0  0  0  0
  139.4530   69.3910  224.4680 C   0  0  0  0  0  0  0  0  0  0  0  0
  139.9780   69.7960  225.6790 C   0  0  0  0  0  0  0  0  0  0  0  0
  139.8980   68.9340  226.7530 C   0  0  0  0  0  0  0  0  0  0  0  0
  140.4070   69.2880  227.9860 C   0  0  0  0  0  0  0  0  0  0  0  0
  140.3280   68.4460  229.0310 F   0  0  0  0  0  0  0  0  0  0  0  0
  141.0010   70.5490  228.0950 C   0  0  0  0  0  0  0  0  0  0  0  0
  141.0810   71.4120  227.0210 C   0  0  0  0  0  0  0  0  0  0  0  0
  140.5670   71.0400  225.7970 C   0  0  0  0  0  0  0  0  0  0  0  0
  140.6430   71.8880  224.7310 N   0  0  0  0  0  0  0  0  0  0  0  0
  141.4380   78.4510  221.8740 C   0  0  0  0  0  0  0  0  0  0  0  0
  140.1790   78.6280  222.4080 C   0  0  0  0  0  0  0  0  0  0  0  0
  139.8840   79.5750  223.3650 C   0  0  0  0  0  0  0  0  0  0  0  0
  140.8720   80.4110  223.8410 C   0  0  0  0  0  0  0  0  0  0  0  0
  142.1440   80.2620  223.3300 C   0  0  0  0  0  0  0  0  0  0  0  0
  142.4290   79.3080  222.3690 C   0  0  0  0  0  0  0  0  0  0  0  0
  139.6276   79.6801  219.8663 H   0  0  0  0  0  0  0  0  0  0  0  0
  140.0792   80.5252  218.3469 H   0  0  0  0  0  0  0  0  0  0  0  0
  139.8376   78.7452  218.3469 H   0  0  0  0  0  0  0  0  0  0  0  0
  141.9096   79.8507  220.2325 H   0  0  0  0  0  0  0  0  0  0  0  0
  143.2153   80.7779  218.7697 H   0  0  0  0  0  0  0  0  0  0  0  0
  143.0274   79.4090  217.6219 H   0  0  0  0  0  0  0  0  0  0  0  0
  141.8338   80.7514  217.6219 H   0  0  0  0  0  0  0  0  0  0  0  0
  141.4363   77.3700  218.7711 H   0  0  0  0  0  0  0  0  0  0  0  0
  143.1076   77.9123  219.3456 H   0  0  0  0  0  0  0  0  0  0  0  0
  142.6955   76.9437  221.1370 H   0  0  0  0  0  0  0  0  0  0  0  0
  139.6740   76.9710  220.4380 H   0  0  0  0  0  0  0  0  0  0  0  0
  138.5722   75.0165  221.0453 H   0  0  0  0  0  0  0  0  0  0  0  0
  139.5175   73.7295  220.2219 H   0  0  0  0  0  0  0  0  0  0  0  0
  138.7120   73.7950  223.0830 H   0  0  0  0  0  0  0  0  0  0  0  0
  139.1412   69.9807  222.4397 H   0  0  0  0  0  0  0  0  0  0  0  0
  138.9785   68.4060  224.3472 H   0  0  0  0  0  0  0  0  0  0  0  0
  139.4218   67.9507  226.6249 H   0  0  0  0  0  0  0  0  0  0  0  0
  141.4164   70.8621  229.0643 H   0  0  0  0  0  0  0  0  0  0  0  0
  141.5551   72.3972  227.1416 H   0  0  0  0  0  0  0  0  0  0  0  0
  139.3663   77.9784  222.0509 H   0  0  0  0  0  0  0  0  0  0  0  0
  138.8575   79.6642  223.7502 H   0  0  0  0  0  0  0  0  0  0  0  0
  140.6524   81.1724  224.6039 H   0  0  0  0  0  0  0  0  0  0  0  0
  142.9500   80.9159  223.6943 H   0  0  0  0  0  0  0  0  0  0  0  0
  143.4563   79.2208  221.9855 H   0  0  0  0  0  0  0  0  0  0  0  0
  1  2  1  0
  2  3  1  0
  2  4  1  0
  4  5  1  0
  5  6  1  0
  6  7  1  0
  7  8  2  0
  7  9  1  0
  9 10  1  0
 10 11  1  0
 11 12  2  0
 11 13  1  0
 13 14  2  0
 14 15  1  0
 15 16  2  0
 16 17  1  0
 17 18  2  0
 18 19  1  0
 18 20  1  0
 20 21  2  0
 21 22  1  0
 22 23  2  0
  5 24  1  0
 24 25  2  0
 25 26  1  0
 26 27  2  0
 27 28  1  0
 28 29  2  0
 23 13  1  0
 29 24  1  0
 22 16  1  0
  1 30  1  0
  1 31  1  0
  1 32  1  0
  2 33  1  0
  3 34  1  0
  3 35  1  0
  3 36  1  0
  4 37  1  0
  4 38  1  0
  5 39  1  1
  6 40  1  0
  9 41  1  0
  9 42  1  0
 10 43  1  0
 14 44  1  0
 15 45  1  0
 17 46  1  0
 20 47  1  0
 21 48  1  0
 25 49  1  0
 26 50  1  0
 27 51  1  0
 28 52  1  0
 29 53  1  0
M  END
>  <smiles>  (34) 
CC(C)C[C@H](NC(=O)CNC(=O)c1ccc2cc(F)ccc2n1)c1ccccc1

>  <score_type>  (34) 
oracle

>  <origin>  (34) 
autodockgpu

>  <m_score__min__energy>  (34) 
-9.1300000000000008

>  <m_primary>  (34) 
energy

>  <rmsd>  (34) 
2.4254769728862473

>  <m_score__min__rmsd>  (34) 
2.4254769728862473

>  <meeko>  (34) 
{"free_energy": -8.42, "intermolecular_energy": -10.51, "internal_energy": -1.39, "cluster_size": 16, "cluster_id": 1, "rank_in_cluster": 12}

>  <energy>  (34) 
-8.04

>  <cluster_rmsd>  (34) 
1.65

>  <cluster>  (34) 
4

$$$$

     RDKit          3D

 53 55  0  0  0  0  0  0  0  0999 V2000
  141.5620   77.9600  220.6230 C   0  0  0  0  0  0  0  0  0  0  0  0
  140.8330   77.8750  221.9470 C   0  0  0  0  0  0  0  0  0  0  0  0
  141.4410   78.8490  222.8960 C   0  0  0  0  0  0  0  0  0  0  0  0
  140.6910   76.4770  222.4370 C   0  0  0  0  0  0  0  0  0  0  0  0
  140.3830   75.4500  221.4090 C   0  0  2  0  0  0  0  0  0  0  0  0
  139.2690   74.6200  221.9060 N   0  0  0  0  0  0  0  0  0  0  0  0
  138.2820   74.1520  220.9920 C   0  0  0  0  0  0  0  0  0  0  0  0
  138.4010   74.4710  219.7800 O   0  0  0  0  0  0  0  0  0  0  0  0
  137.1820   73.3240  221.5270 C   0  0  0  0  0  0  0  0  0  0  0  0
  137.6300   72.6350  222.7030 N   0  0  0  0  0  0  0  0  0  0  0  0
  138.5170   71.5320  222.5350 C   0  0  0  0  0  0  0  0  0  0  0  0
  138.8750   71.2000  221.3680 O   0  0  0  0  0  0  0  0  0  0  0  0
  139.0020   70.7960  223.6990 C   0  0  0  0  0  0  0  0  0  0  0  0
  138.8520   69.4240  223.7370 C   0  0  0  0  0  0  0  0  0  0  0  0
  139.2790   68.6460  224.7930 C   0  0  0  0  0  0  0  0  0  0  0  0
  139.8820   69.3020  225.8490 C   0  0  0  0  0  0  0  0  0  0  0  0
  140.3210   68.5560  226.9230 C   0  0  0  0  0  0  0  0  0  0  0  0
  140.9330   69.1590  228.0030 C   0  0  0  0  0  0  0  0  0  0  0  0
  141.3590   68.4300  229.0480 F   0  0  0  0  0  0  0  0  0  0  0  0
  141.0820   70.5490  227.9590 C   0  0  0  0  0  0  0  0  0  0  0  0
  140.6430   71.2960  226.8850 C   0  0  0  0  0  0  0  0  0  0  0  0
  140.0350   70.6740  225.8150 C   0  0  0  0  0  0  0  0  0  0  0  0
  139.5990   71.4070  224.7490 N   0  0  0  0  0  0  0  0  0  0  0  0
  141.4680   74.4940  221.1160 C   0  0  0  0  0  0  0  0  0  0  0  0
  142.6590   74.8460  220.5160 C   0  0  0  0  0  0  0  0  0  0  0  0
  143.6680   73.9480  220.2410 C   0  0  0  0  0  0  0  0  0  0  0  0
  143.5190   72.6170  220.5680 C   0  0  0  0  0  0  0  0  0  0  0  0
  142.3420   72.2290  221.1710 C   0  0  0  0  0  0  0  0  0  0  0  0
  141.3360   73.1390  221.4420 C   0  0  0  0  0  0  0  0  0  0  0  0
  142.6395   78.0856  220.8051 H   0  0  0  0  0  0  0  0  0  0  0  0
  141.3921   77.0360  220.0509 H   0  0  0  0  0  0  0  0  0  0  0  0
  141.1841   78.8202  220.0509 H   0  0  0  0  0  0  0  0  0  0  0  0
  139.7826   78.1783  221.8257 H   0  0  0  0  0  0  0  0  0  0  0  0
  141.2408   78.5283  223.9290 H   0  0  0  0  0  0  0  0  0  0  0  0
  142.5275   78.8934  222.7299 H   0  0  0  0  0  0  0  0  0  0  0  0
  141.0037   79.8446  222.7299 H   0  0  0  0  0  0  0  0  0  0  0  0
  141.6369   76.1935  222.9217 H   0  0  0  0  0  0  0  0  0  0  0  0
  139.8221   76.4882  223.1115 H   0  0  0  0  0  0  0  0  0  0  0  0
  140.1759   76.0226  220.4929 H   0  0  0  0  0  0  0  0  0  0  0  0
  139.2260   74.3920  222.9180 H   0  0  0  0  0  0  0  0  0  0  0  0
  136.3285   73.9691  221.7828 H   0  0  0  0  0  0  0  0  0  0  0  0
  136.8728   72.5904  220.7679 H   0  0  0  0  0  0  0  0  0  0  0  0
  137.3170   72.9300  223.6720 H   0  0  0  0  0  0  0  0  0  0  0  0
  138.3682   68.9269  222.8832 H   0  0  0  0  0  0  0  0  0  0  0  0
  139.1457   67.5541  224.7943 H   0  0  0  0  0  0  0  0  0  0  0  0
  140.1813   67.4649  226.9186 H   0  0  0  0  0  0  0  0  0  0  0  0
  141.5631   71.0616  228.8051 H   0  0  0  0  0  0  0  0  0  0  0  0
  140.7781   72.3877  226.8824 H   0  0  0  0  0  0  0  0  0  0  0  0
  142.8119   75.9003  220.2421 H   0  0  0  0  0  0  0  0  0  0  0  0
  144.5944   74.2942  219.7594 H   0  0  0  0  0  0  0  0  0  0  0  0
  144.3143   71.8878  220.3544 H   0  0  0  0  0  0  0  0  0  0  0  0
  142.1994   71.1727  221.4427 H   0  0  0  0  0  0  0  0  0  0  0  0
  140.4112   72.7899  221.9247 H   0  0  0  0  0  0  0  0  0  0  0  0
  1  2  1  0
  2  3  1  0
  2  4  1  0
  4  5  1  0
  5  6  1  0
  6  7  1  0
  7  8  2  0
  7  9  1  0
  9 10  1  0
 10 11  1  0
 11 12  2  0
 11 13  1  0
 13 14  2  0
 14 15  1  0
 15 16  2  0
 16 17  1  0
 17 18  2  0
 18 19  1  0
 18 20  1  0
 20 21  2  0
 21 22  1  0
 22 23  2  0
  5 24  1  0
 24 25  2  0
 25 26  1  0
 26 27  2  0
 27 28  1  0
 28 29  2  0
 23 13  1  0
 29 24  1  0
 22 16  1  0
  1 30  1  0
  1 31  1  0
  1 32  1  0
  2 33  1  0
  3 34  1  0
  3 35  1  0
  3 36  1  0
  4 37  1  0
  4 38  1  0
  5 39  1  6
  6 40  1  0
  9 41  1  0
  9 42  1  0
 10 43  1  0
 14 44  1  0
 15 45  1  0
 17 46  1  0
 20 47  1  0
 21 48  1  0
 25 49  1  0
 26 50  1  0
 27 51  1  0
 28 52  1  0
 29 53  1  0
M  END
>  <smiles>  (35) 
CC(C)C[C@H](NC(=O)CNC(=O)c1ccc2cc(F)ccc2n1)c1ccccc1

>  <score_type>  (35) 
oracle

>  <origin>  (35) 
autodockgpu

>  <m_score__min__energy>  (35) 
-9.1300000000000008

>  <m_primary>  (35) 
energy

>  <rmsd>  (35) 
2.78050720512357

>  <m_score__min__rmsd>  (35) 
2.78050720512357

>  <meeko>  (35) 
{"free_energy": -7.84, "intermolecular_energy": -9.93, "internal_energy": -1.99, "cluster_size": 12, "cluster_id": 4, "rank_in_cluster": 6}

>  <energy>  (35) 
-8.04

>  <cluster_rmsd>  (35) 
1.72

>  <cluster>  (35) 
4

$$$$

     RDKit          3D

 53 55  0  0  0  0  0  0  0  0999 V2000
  140.0610   80.1830  223.4940 C   0  0  0  0  0  0  0  0  0  0  0  0
  141.4360   79.6530  223.8450 C   0  0  0  0  0  0  0  0  0  0  0  0
  142.4350   80.7400  223.6530 C   0  0  0  0  0  0  0  0  0  0  0  0
  141.7370   78.3540  223.1820 C   0  0  0  0  0  0  0  0  0  0  0  0
  140.9890   78.0670  221.9320 C   0  0  2  0  0  0  0  0  0  0  0  0
  141.1200   76.6270  221.6380 N   0  0  0  0  0  0  0  0  0  0  0  0
  139.9470   75.8490  221.4130 C   0  0  0  0  0  0  0  0  0  0  0  0
  138.8330   76.4300  221.4740 O   0  0  0  0  0  0  0  0  0  0  0  0
  140.1180   74.4110  221.1220 C   0  0  0  0  0  0  0  0  0  0  0  0
  139.9510   73.6550  222.3290 N   0  0  0  0  0  0  0  0  0  0  0  0
  140.3770   72.2950  222.3300 C   0  0  0  0  0  0  0  0  0  0  0  0
  140.8830   71.8050  221.2780 O   0  0  0  0  0  0  0  0  0  0  0  0
  140.2290   71.4800  223.5320 C   0  0  0  0  0  0  0  0  0  0  0  0
  139.5910   70.2590  223.4430 C   0  0  0  0  0  0  0  0  0  0  0  0
  139.4050   69.4220  224.5240 C   0  0  0  0  0  0  0  0  0  0  0  0
  139.8930   69.8560  225.7410 C   0  0  0  0  0  0  0  0  0  0  0  0
  139.7250   69.0450  226.8440 C   0  0  0  0  0  0  0  0  0  0  0  0
  140.1940   69.4280  228.0850 C   0  0  0  0  0  0  0  0  0  0  0  0
  140.0280   68.6360  229.1580 F   0  0  0  0  0  0  0  0  0  0  0  0
  140.8390   70.6650  228.1700 C   0  0  0  0  0  0  0  0  0  0  0  0
  141.0080   71.4770  227.0670 C   0  0  0  0  0  0  0  0  0  0  0  0
  140.5330   71.0760  225.8360 C   0  0  0  0  0  0  0  0  0  0  0  0
  140.6960   71.8740  224.7410 N   0  0  0  0  0  0  0  0  0  0  0  0
  141.4860   78.7480  220.7210 C   0  0  0  0  0  0  0  0  0  0  0  0
  141.4050   80.1100  220.5190 C   0  0  0  0  0  0  0  0  0  0  0  0
  141.8670   80.7410  219.3840 C   0  0  0  0  0  0  0  0  0  0  0  0
  142.4480   80.0070  218.3720 C   0  0  0  0  0  0  0  0  0  0  0  0
  142.5480   78.6420  218.5390 C   0  0  0  0  0  0  0  0  0  0  0  0
  142.0800   78.0200  219.6820 C   0  0  0  0  0  0  0  0  0  0  0  0
  139.5040   80.3977  224.4179 H   0  0  0  0  0  0  0  0  0  0  0  0
  140.1633   81.1061  222.9046 H   0  0  0  0  0  0  0  0  0  0  0  0
  139.5173   79.4300  222.9046 H   0  0  0  0  0  0  0  0  0  0  0  0
  141.4816   79.3787  224.9093 H   0  0  0  0  0  0  0  0  0  0  0  0
  142.7715   81.1062  224.6341 H   0  0  0  0  0  0  0  0  0  0  0  0
  143.2971   80.3507  223.0915 H   0  0  0  0  0  0  0  0  0  0  0  0
  141.9745   81.5662  223.0915 H   0  0  0  0  0  0  0  0  0  0  0  0
  142.8103   78.3408  222.9414 H   0  0  0  0  0  0  0  0  0  0  0  0
  141.4236   77.5791  223.8970 H   0  0  0  0  0  0  0  0  0  0  0  0
  139.9659   78.4205  222.1280 H   0  0  0  0  0  0  0  0  0  0  0  0
  142.0680   76.2060  221.6010 H   0  0  0  0  0  0  0  0  0  0  0  0
  139.3660   74.0944  220.3842 H   0  0  0  0  0  0  0  0  0  0  0  0
  141.1257   74.2366  220.7170 H   0  0  0  0  0  0  0  0  0  0  0  0
  139.5250   74.0850  223.1990 H   0  0  0  0  0  0  0  0  0  0  0  0
  139.2122   69.9375  222.4616 H   0  0  0  0  0  0  0  0  0  0  0  0
  138.8921   68.4543  224.4214 H   0  0  0  0  0  0  0  0  0  0  0  0
  139.2100   68.0793  226.7334 H   0  0  0  0  0  0  0  0  0  0  0  0
  141.2231   71.0011  229.1444 H   0  0  0  0  0  0  0  0  0  0  0  0
  141.5217   72.4443  227.1698 H   0  0  0  0  0  0  0  0  0  0  0  0
  140.9467   80.7262  221.3066 H   0  0  0  0  0  0  0  0  0  0  0  0
  141.7719   81.8324  219.2855 H   0  0  0  0  0  0  0  0  0  0  0  0
  142.8203   80.4953  217.4593 H   0  0  0  0  0  0  0  0  0  0  0  0
  143.0098   78.0350  217.7463 H   0  0  0  0  0  0  0  0  0  0  0  0
  142.1764   76.9284  219.7775 H   0  0  0  0  0  0  0  0  0  0  0  0
  1  2  1  0
  2  3  1  0
  2  4  1  0
  4  5  1  0
  5  6  1  0
  6  7  1  0
  7  8  2  0
  7  9  1  0
  9 10  1  0
 10 11  1  0
 11 12  2  0
 11 13  1  0
 13 14  2  0
 14 15  1  0
 15 16  2  0
 16 17  1  0
 17 18  2  0
 18 19  1  0
 18 20  1  0
 20 21  2  0
 21 22  1  0
 22 23  2  0
  5 24  1  0
 24 25  2  0
 25 26  1  0
 26 27  2  0
 27 28  1  0
 28 29  2  0
 23 13  1  0
 29 24  1  0
 22 16  1  0
  1 30  1  0
  1 31  1  0
  1 32  1  0
  2 33  1  0
  3 34  1  0
  3 35  1  0
  3 36  1  0
  4 37  1  0
  4 38  1  0
  5 39  1  1
  6 40  1  0
  9 41  1  0
  9 42  1  0
 10 43  1  0
 14 44  1  0
 15 45  1  0
 17 46  1  0
 20 47  1  0
 21 48  1  0
 25 49  1  0
 26 50  1  0
 27 51  1  0
 28 52  1  0
 29 53  1  0
M  END
>  <smiles>  (36) 
CC(C)C[C@H](NC(=O)CNC(=O)c1ccc2cc(F)ccc2n1)c1ccccc1

>  <score_type>  (36) 
oracle

>  <origin>  (36) 
autodockgpu

>  <m_score__min__energy>  (36) 
-9.1300000000000008

>  <m_primary>  (36) 
energy

>  <rmsd>  (36) 
3.8656440954033826

>  <m_score__min__rmsd>  (36) 
3.8656440954033826

>  <meeko>  (36) 
{"free_energy": -9.12, "intermolecular_energy": -11.21, "internal_energy": -1.41, "cluster_size": 16, "cluster_id": 1, "rank_in_cluster": 2}

>  <energy>  (36) 
-7.84

>  <cluster_rmsd>  (36) 
1.77

>  <cluster>  (36) 
4

$$$$

     RDKit          3D

 53 55  0  0  0  0  0  0  0  0999 V2000
  141.4420   76.5900  217.3610 C   0  0  0  0  0  0  0  0  0  0  0  0
  142.4850   77.1640  218.2960 C   0  0  0  0  0  0  0  0  0  0  0  0
  143.3490   76.0580  218.7920 C   0  0  0  0  0  0  0  0  0  0  0  0
  141.8980   78.0600  219.3310 C   0  0  0  0  0  0  0  0  0  0  0  0
  141.6680   77.4550  220.6680 C   0  0  2  0  0  0  0  0  0  0  0  0
  140.4740   76.5920  220.5830 N   0  0  0  0  0  0  0  0  0  0  0  0
  140.4520   75.3560  221.2910 C   0  0  0  0  0  0  0  0  0  0  0  0
  141.4650   75.0470  221.9710 O   0  0  0  0  0  0  0  0  0  0  0  0
  139.2400   74.5190  221.1820 C   0  0  0  0  0  0  0  0  0  0  0  0
  139.1630   73.6380  222.3120 N   0  0  0  0  0  0  0  0  0  0  0  0
  140.0630   72.5350  222.3610 C   0  0  0  0  0  0  0  0  0  0  0  0
  140.8910   72.3700  221.4190 O   0  0  0  0  0  0  0  0  0  0  0  0
  140.0260   71.6080  223.4880 C   0  0  0  0  0  0  0  0  0  0  0  0
  139.3950   70.3890  223.3360 C   0  0  0  0  0  0  0  0  0  0  0  0
  139.3090   69.4500  224.3430 C   0  0  0  0  0  0  0  0  0  0  0  0
  139.8940   69.7750  225.5510 C   0  0  0  0  0  0  0  0  0  0  0  0
  139.8280   68.8600  226.5820 C   0  0  0  0  0  0  0  0  0  0  0  0
  140.3960   69.1330  227.8100 C   0  0  0  0  0  0  0  0  0  0  0  0
  140.3300   68.2400  228.8120 F   0  0  0  0  0  0  0  0  0  0  0  0
  141.0340   70.3680  227.9590 C   0  0  0  0  0  0  0  0  0  0  0  0
  141.1000   71.2840  226.9290 C   0  0  0  0  0  0  0  0  0  0  0  0
  140.5270   70.9920  225.7090 C   0  0  0  0  0  0  0  0  0  0  0  0
  140.5890   71.8930  224.6860 N   0  0  0  0  0  0  0  0  0  0  0  0
  141.3720   78.4070  221.7560 C   0  0  0  0  0  0  0  0  0  0  0  0
  142.2630   79.3570  222.2070 C   0  0  0  0  0  0  0  0  0  0  0  0
  141.9830   80.2410  223.2280 C   0  0  0  0  0  0  0  0  0  0  0  0
  140.7570   80.2060  223.8570 C   0  0  0  0  0  0  0  0  0  0  0  0
  139.8390   79.2700  223.4310 C   0  0  0  0  0  0  0  0  0  0  0  0
  140.1320   78.3870  222.4060 C   0  0  0  0  0  0  0  0  0  0  0  0
  140.6282   76.1421  217.9501 H   0  0  0  0  0  0  0  0  0  0  0  0
  141.0369   77.3922  216.7267 H   0  0  0  0  0  0  0  0  0  0  0  0
  141.9030   75.8185  216.7267 H   0  0  0  0  0  0  0  0  0  0  0  0
  143.1496   77.8524  217.7534 H   0  0  0  0  0  0  0  0  0  0  0  0
  143.3491   76.0579  219.8920 H   0  0  0  0  0  0  0  0  0  0  0  0
  142.9604   75.0965  218.4253 H   0  0  0  0  0  0  0  0  0  0  0  0
  144.3760   76.2023  218.4253 H   0  0  0  0  0  0  0  0  0  0  0  0
  142.5795   78.9136  219.4616 H   0  0  0  0  0  0  0  0  0  0  0  0
  140.9004   78.3305  218.9547 H   0  0  0  0  0  0  0  0  0  0  0  0
  142.6093   76.9401  220.9107 H   0  0  0  0  0  0  0  0  0  0  0  0
  139.6700   76.9030  220.0040 H   0  0  0  0  0  0  0  0  0  0  0  0
  138.3496   75.1645  221.1592 H   0  0  0  0  0  0  0  0  0  0  0  0
  139.2868   73.9253  220.2572 H   0  0  0  0  0  0  0  0  0  0  0  0
  138.4610   73.7950  223.0910 H   0  0  0  0  0  0  0  0  0  0  0  0
  138.9380   70.1550  222.3631 H   0  0  0  0  0  0  0  0  0  0  0  0
  138.7985   68.4876  224.1909 H   0  0  0  0  0  0  0  0  0  0  0  0
  139.3156   67.8997  226.4229 H   0  0  0  0  0  0  0  0  0  0  0  0
  141.4968   70.6168  228.9254 H   0  0  0  0  0  0  0  0  0  0  0  0
  141.6096   72.2469  227.0810 H   0  0  0  0  0  0  0  0  0  0  0  0
  143.2510   79.4132  221.7266 H   0  0  0  0  0  0  0  0  0  0  0  0
  142.7397   80.9755  223.5410 H   0  0  0  0  0  0  0  0  0  0  0  0
  140.5185   80.9034  224.6736 H   0  0  0  0  0  0  0  0  0  0  0  0
  138.8527   79.2238  223.9159 H   0  0  0  0  0  0  0  0  0  0  0  0
  139.3737   77.6532  222.0952 H   0  0  0  0  0  0  0  0  0  0  0  0
  1  2  1  0
  2  3  1  0
  2  4  1  0
  4  5  1  0
  5  6  1  0
  6  7  1  0
  7  8  2  0
  7  9  1  0
  9 10  1  0
 10 11  1  0
 11 12  2  0
 11 13  1  0
 13 14  2  0
 14 15  1  0
 15 16  2  0
 16 17  1  0
 17 18  2  0
 18 19  1  0
 18 20  1  0
 20 21  2  0
 21 22  1  0
 22 23  2  0
  5 24  1  0
 24 25  2  0
 25 26  1  0
 26 27  2  0
 27 28  1  0
 28 29  2  0
 23 13  1  0
 29 24  1  0
 22 16  1  0
  1 30  1  0
  1 31  1  0
  1 32  1  0
  2 33  1  0
  3 34  1  0
  3 35  1  0
  3 36  1  0
  4 37  1  0
  4 38  1  0
  5 39  1  1
  6 40  1  0
  9 41  1  0
  9 42  1  0
 10 43  1  0
 14 44  1  0
 15 45  1  0
 17 46  1  0
 20 47  1  0
 21 48  1  0
 25 49  1  0
 26 50  1  0
 27 51  1  0
 28 52  1  0
 29 53  1  0
M  END
>  <smiles>  (37) 
CC(C)C[C@H](NC(=O)CNC(=O)c1ccc2cc(F)ccc2n1)c1ccccc1

>  <score_type>  (37) 
oracle

>  <origin>  (37) 
autodockgpu

>  <m_score__min__energy>  (37) 
-9.1300000000000008

>  <m_primary>  (37) 
energy

>  <rmsd>  (37) 
1.7724923309343732

>  <m_score__min__rmsd>  (37) 
1.7724923309343732

>  <meeko>  (37) 
{"free_energy": -8.46, "intermolecular_energy": -10.54, "internal_energy": -1.4, "cluster_size": 10, "cluster_id": 2, "rank_in_cluster": 7}

>  <energy>  (37) 
-7.82

>  <cluster_rmsd>  (37) 
1.75

>  <cluster>  (37) 
4

$$$$

     RDKit          3D

 53 55  0  0  0  0  0  0  0  0999 V2000
  142.7650   77.5700  217.0490 C   0  0  0  0  0  0  0  0  0  0  0  0
  142.9410   77.3970  218.5440 C   0  0  0  0  0  0  0  0  0  0  0  0
  143.3200   75.9850  218.8240 C   0  0  0  0  0  0  0  0  0  0  0  0
  141.7960   77.9420  219.3240 C   0  0  0  0  0  0  0  0  0  0  0  0
  141.5980   77.3740  220.6820 C   0  0  2  0  0  0  0  0  0  0  0  0
  140.4130   76.4960  220.6450 N   0  0  0  0  0  0  0  0  0  0  0  0
  140.5110   75.1660  221.1480 C   0  0  0  0  0  0  0  0  0  0  0  0
  141.6190   74.7900  221.6090 O   0  0  0  0  0  0  0  0  0  0  0  0
  139.3030   74.3170  221.0940 C   0  0  0  0  0  0  0  0  0  0  0  0
  139.2300   73.5140  222.2800 N   0  0  0  0  0  0  0  0  0  0  0  0
  140.0750   72.3700  222.3650 C   0  0  0  0  0  0  0  0  0  0  0  0
  140.8540   72.1040  221.4040 O   0  0  0  0  0  0  0  0  0  0  0  0
  140.0390   71.5180  223.5500 C   0  0  0  0  0  0  0  0  0  0  0  0
  139.4450   70.2750  223.4670 C   0  0  0  0  0  0  0  0  0  0  0  0
  139.3640   69.4020  224.5320 C   0  0  0  0  0  0  0  0  0  0  0  0
  139.9140   69.8210  225.7270 C   0  0  0  0  0  0  0  0  0  0  0  0
  139.8510   68.9740  226.8140 C   0  0  0  0  0  0  0  0  0  0  0  0
  140.3860   69.3430  228.0330 C   0  0  0  0  0  0  0  0  0  0  0  0
  140.3220   68.5160  229.0900 F   0  0  0  0  0  0  0  0  0  0  0  0
  140.9870   70.6030  228.1120 C   0  0  0  0  0  0  0  0  0  0  0  0
  141.0500   71.4500  227.0250 C   0  0  0  0  0  0  0  0  0  0  0  0
  140.5100   71.0640  225.8160 C   0  0  0  0  0  0  0  0  0  0  0  0
  140.5690   71.8970  224.7370 N   0  0  0  0  0  0  0  0  0  0  0  0
  141.3130   78.3530  221.7480 C   0  0  0  0  0  0  0  0  0  0  0  0
  142.2000   79.3280  222.1520 C   0  0  0  0  0  0  0  0  0  0  0  0
  141.9310   80.2370  223.1520 C   0  0  0  0  0  0  0  0  0  0  0  0
  140.7190   80.2060  223.8080 C   0  0  0  0  0  0  0  0  0  0  0  0
  139.8040   79.2450  223.4300 C   0  0  0  0  0  0  0  0  0  0  0  0
  140.0870   78.3370  222.4250 C   0  0  0  0  0  0  0  0  0  0  0  0
  141.9927   78.3292  216.8561 H   0  0  0  0  0  0  0  0  0  0  0  0
  143.7169   77.8937  216.6028 H   0  0  0  0  0  0  0  0  0  0  0  0
  142.4577   76.6127  216.6028 H   0  0  0  0  0  0  0  0  0  0  0  0
  143.7746   78.0161  218.9070 H   0  0  0  0  0  0  0  0  0  0  0  0
  143.3628   75.8256  219.9116 H   0  0  0  0  0  0  0  0  0  0  0  0
  142.5712   75.3101  218.3837 H   0  0  0  0  0  0  0  0  0  0  0  0
  144.3061   75.7758  218.3837 H   0  0  0  0  0  0  0  0  0  0  0  0
  141.9496   79.0258  219.4327 H   0  0  0  0  0  0  0  0  0  0  0  0
  140.8952   77.6669  218.7557 H   0  0  0  0  0  0  0  0  0  0  0  0
  142.5497   76.8768  220.9210 H   0  0  0  0  0  0  0  0  0  0  0  0
  139.5260   76.8660  220.2510 H   0  0  0  0  0  0  0  0  0  0  0  0
  138.4092   74.9548  221.0273 H   0  0  0  0  0  0  0  0  0  0  0  0
  139.3534   73.6631  220.2109 H   0  0  0  0  0  0  0  0  0  0  0  0
  138.5690   73.7550  223.0740 H   0  0  0  0  0  0  0  0  0  0  0  0
  139.0146   69.9649  222.5033 H   0  0  0  0  0  0  0  0  0  0  0  0
  138.8834   68.4175  224.4337 H   0  0  0  0  0  0  0  0  0  0  0  0
  139.3681   67.9913  226.7087 H   0  0  0  0  0  0  0  0  0  0  0  0
  141.4221   70.9282  229.0685 H   0  0  0  0  0  0  0  0  0  0  0  0
  141.5314   72.4342  227.1225 H   0  0  0  0  0  0  0  0  0  0  0  0
  143.1763   79.3833  221.6482 H   0  0  0  0  0  0  0  0  0  0  0  0
  142.6850   80.9890  223.4274 H   0  0  0  0  0  0  0  0  0  0  0  0
  140.4885   80.9250  224.6079 H   0  0  0  0  0  0  0  0  0  0  0  0
  138.8294   79.1997  223.9381 H   0  0  0  0  0  0  0  0  0  0  0  0
  139.3318   77.5854  222.1515 H   0  0  0  0  0  0  0  0  0  0  0  0
  1  2  1  0
  2  3  1  0
  2  4  1  0
  4  5  1  0
  5  6  1  0
  6  7  1  0
  7  8  2  0
  7  9  1  0
  9 10  1  0
 10 11  1  0
 11 12  2  0
 11 13  1  0
 13 14  2  0
 14 15  1  0
 15 16  2  0
 16 17  1  0
 17 18  2  0
 18 19  1  0
 18 20  1  0
 20 21  2  0
 21 22  1  0
 22 23  2  0
  5 24  1  0
 24 25  2  0
 25 26  1  0
 26 27  2  0
 27 28  1  0
 28 29  2  0
 23 13  1  0
 29 24  1  0
 22 16  1  0
  1 30  1  0
  1 31  1  0
  1 32  1  0
  2 33  1  0
  3 34  1  0
  3 35  1  0
  3 36  1  0
  4 37  1  0
  4 38  1  0
  5 39  1  1
  6 40  1  0
  9 41  1  0
  9 42  1  0
 10 43  1  0
 14 44  1  0
 15 45  1  0
 17 46  1  0
 20 47  1  0
 21 48  1  0
 25 49  1  0
 26 50  1  0
 27 51  1  0
 28 52  1  0
 29 53  1  0
M  END
>  <smiles>  (38) 
CC(C)C[C@H](NC(=O)CNC(=O)c1ccc2cc(F)ccc2n1)c1ccccc1

>  <score_type>  (38) 
oracle

>  <origin>  (38) 
autodockgpu

>  <m_score__min__energy>  (38) 
-9.1300000000000008

>  <m_primary>  (38) 
energy

>  <rmsd>  (38) 
2.188953797654751

>  <m_score__min__rmsd>  (38) 
2.188953797654751

>  <meeko>  (38) 
{"free_energy": -8.61, "intermolecular_energy": -10.69, "internal_energy": -1.36, "cluster_size": 10, "cluster_id": 2, "rank_in_cluster": 4}

>  <energy>  (38) 
-7.69

>  <cluster_rmsd>  (38) 
1.08

>  <cluster>  (38) 
4

$$$$

     RDKit          3D

 53 55  0  0  0  0  0  0  0  0999 V2000
  139.8150   78.6970  221.3160 C   0  0  0  0  0  0  0  0  0  0  0  0
  140.2080   78.0980  222.6510 C   0  0  0  0  0  0  0  0  0  0  0  0
  141.5120   78.6790  223.0750 C   0  0  0  0  0  0  0  0  0  0  0  0
  140.1100   76.6120  222.6650 C   0  0  0  0  0  0  0  0  0  0  0  0
  140.1330   75.9410  221.3400 C   0  0  2  0  0  0  0  0  0  0  0  0
  139.5000   74.6160  221.4850 N   0  0  0  0  0  0  0  0  0  0  0  0
  138.0950   74.4870  221.2950 C   0  0  0  0  0  0  0  0  0  0  0  0
  137.4400   75.5230  221.0070 O   0  0  0  0  0  0  0  0  0  0  0  0
  137.4970   73.1450  221.4480 C   0  0  0  0  0  0  0  0  0  0  0  0
  137.9210   72.5710  222.6920 N   0  0  0  0  0  0  0  0  0  0  0  0
  139.1410   71.8340  222.7070 C   0  0  0  0  0  0  0  0  0  0  0  0
  139.8030   71.7130  221.6350 O   0  0  0  0  0  0  0  0  0  0  0  0
  139.6180   71.2290  223.9470 C   0  0  0  0  0  0  0  0  0  0  0  0
  140.5760   71.8870  224.6920 C   0  0  0  0  0  0  0  0  0  0  0  0
  141.0850   71.3940  225.8750 C   0  0  0  0  0  0  0  0  0  0  0  0
  140.5920   70.1790  226.3090 C   0  0  0  0  0  0  0  0  0  0  0  0
  141.0780   69.6550  227.4890 C   0  0  0  0  0  0  0  0  0  0  0  0
  140.6190   68.4450  227.9700 C   0  0  0  0  0  0  0  0  0  0  0  0
  141.0950   67.9370  229.1190 F   0  0  0  0  0  0  0  0  0  0  0  0
  139.6490   67.7830  227.2130 C   0  0  0  0  0  0  0  0  0  0  0  0
  139.1620   68.3060  226.0330 C   0  0  0  0  0  0  0  0  0  0  0  0
  139.6330   69.5170  225.5690 C   0  0  0  0  0  0  0  0  0  0  0  0
  139.1550   70.0410  224.4030 N   0  0  0  0  0  0  0  0  0  0  0  0
  141.4740   75.6640  220.7890 C   0  0  0  0  0  0  0  0  0  0  0  0
  142.1300   74.4610  220.9360 C   0  0  0  0  0  0  0  0  0  0  0  0
  143.3840   74.2090  220.4220 C   0  0  0  0  0  0  0  0  0  0  0  0
  144.0520   75.1860  219.7160 C   0  0  0  0  0  0  0  0  0  0  0  0
  143.4260   76.4030  219.5470 C   0  0  0  0  0  0  0  0  0  0  0  0
  142.1680   76.6440  220.0680 C   0  0  0  0  0  0  0  0  0  0  0  0
  139.2186   79.6060  221.4833 H   0  0  0  0  0  0  0  0  0  0  0  0
  140.7215   78.9526  220.7477 H   0  0  0  0  0  0  0  0  0  0  0  0
  139.2196   77.9672  220.7477 H   0  0  0  0  0  0  0  0  0  0  0  0
  139.4805   78.3786  223.4269 H   0  0  0  0  0  0  0  0  0  0  0  0
  141.5633   78.7019  224.1736 H   0  0  0  0  0  0  0  0  0  0  0  0
  142.3334   78.0617  222.6823 H   0  0  0  0  0  0  0  0  0  0  0  0
  141.6024   79.7025  222.6823 H   0  0  0  0  0  0  0  0  0  0  0  0
  140.9563   76.2253  223.2518 H   0  0  0  0  0  0  0  0  0  0  0  0
  139.1219   76.3860  223.0924 H   0  0  0  0  0  0  0  0  0  0  0  0
  139.6220   76.6390  220.6606 H   0  0  0  0  0  0  0  0  0  0  0  0
  140.0950   73.7990  221.7240 H   0  0  0  0  0  0  0  0  0  0  0  0
  136.4003   73.2291  221.4380 H   0  0  0  0  0  0  0  0  0  0  0  0
  137.8233   72.5016  220.6175 H   0  0  0  0  0  0  0  0  0  0  0  0
  137.3510   72.6850  223.5790 H   0  0  0  0  0  0  0  0  0  0  0  0
  140.9521   72.8528  224.3236 H   0  0  0  0  0  0  0  0  0  0  0  0
  141.8481   71.9428  226.4464 H   0  0  0  0  0  0  0  0  0  0  0  0
  141.8418   70.2089  228.0545 H   0  0  0  0  0  0  0  0  0  0  0  0
  139.2623   66.8164  227.5683 H   0  0  0  0  0  0  0  0  0  0  0  0
  138.3982   67.7576  225.4621 H   0  0  0  0  0  0  0  0  0  0  0  0
  141.6256   73.6583  221.4938 H   0  0  0  0  0  0  0  0  0  0  0  0
  143.8526   73.2257  220.5757 H   0  0  0  0  0  0  0  0  0  0  0  0
  145.0534   75.0008  219.3002 H   0  0  0  0  0  0  0  0  0  0  0  0
  143.9380   77.1987  218.9860 H   0  0  0  0  0  0  0  0  0  0  0  0
  141.7015   77.6280  219.9126 H   0  0  0  0  0  0  0  0  0  0  0  0
  1  2  1  0
  2  3  1  0
  2  4  1  0
  4  5  1  0
  5  6  1  0
  6  7  1  0
  7  8  2  0
  7  9  1  0
  9 10  1  0
 10 11  1  0
 11 12  2  0
 11 13  1  0
 13 14  2  0
 14 15  1  0
 15 16  2  0
 16 17  1  0
 17 18  2  0
 18 19  1  0
 18 20  1  0
 20 21  2  0
 21 22  1  0
 22 23  2  0
  5 24  1  0
 24 25  2  0
 25 26  1  0
 26 27  2  0
 27 28  1  0
 28 29  2  0
 23 13  1  0
 29 24  1  0
 22 16  1  0
  1 30  1  0
  1 31  1  0
  1 32  1  0
  2 33  1  0
  3 34  1  0
  3 35  1  0
  3 36  1  0
  4 37  1  0
  4 38  1  0
  5 39  1  6
  6 40  1  0
  9 41  1  0
  9 42  1  0
 10 43  1  0
 14 44  1  0
 15 45  1  0
 17 46  1  0
 20 47  1  0
 21 48  1  0
 25 49  1  0
 26 50  1  0
 27 51  1  0
 28 52  1  0
 29 53  1  0
M  END
>  <smiles>  (39) 
CC(C)C[C@H](NC(=O)CNC(=O)c1ccc2cc(F)ccc2n1)c1ccccc1

>  <score_type>  (39) 
oracle

>  <origin>  (39) 
autodockgpu

>  <m_score__min__energy>  (39) 
-9.1300000000000008

>  <m_primary>  (39) 
energy

>  <rmsd>  (39) 
3.7032194151923594

>  <m_score__min__rmsd>  (39) 
3.7032194151923594

>  <meeko>  (39) 
{"free_energy": -7.48, "intermolecular_energy": -9.57, "internal_energy": -2.36, "cluster_size": 16, "cluster_id": 1, "rank_in_cluster": 16}

>  <energy>  (39) 
-7.68

>  <cluster_rmsd>  (39) 
1.1

>  <cluster>  (39) 
4

$$$$

     RDKit          3D

 53 55  0  0  0  0  0  0  0  0999 V2000
  139.9120   80.1430  223.4740 C   0  0  0  0  0  0  0  0  0  0  0  0
  141.2700   79.5170  223.7130 C   0  0  0  0  0  0  0  0  0  0  0  0
  142.3150   80.5710  223.5950 C   0  0  0  0  0  0  0  0  0  0  0  0
  141.4830   78.2820  222.9090 C   0  0  0  0  0  0  0  0  0  0  0  0
  140.7450   78.2020  221.6230 C   0  0  2  0  0  0  0  0  0  0  0  0
  140.7350   76.7930  221.1850 N   0  0  0  0  0  0  0  0  0  0  0  0
  139.7400   75.9090  221.6920 C   0  0  0  0  0  0  0  0  0  0  0  0
  138.8980   76.3720  222.5040 O   0  0  0  0  0  0  0  0  0  0  0  0
  139.7620   74.5060  221.2300 C   0  0  0  0  0  0  0  0  0  0  0  0
  139.5520   73.6310  222.3470 N   0  0  0  0  0  0  0  0  0  0  0  0
  140.4350   72.5230  222.5040 C   0  0  0  0  0  0  0  0  0  0  0  0
  141.3640   72.3510  221.6630 O   0  0  0  0  0  0  0  0  0  0  0  0
  140.2640   71.6020  223.6230 C   0  0  0  0  0  0  0  0  0  0  0  0
  139.6240   70.3970  223.4110 C   0  0  0  0  0  0  0  0  0  0  0  0
  139.4170   69.4640  224.4060 C   0  0  0  0  0  0  0  0  0  0  0  0
  139.8850   69.7810  225.6660 C   0  0  0  0  0  0  0  0  0  0  0  0
  139.6960   68.8720  226.6860 C   0  0  0  0  0  0  0  0  0  0  0  0
  140.1450   69.1360  227.9650 C   0  0  0  0  0  0  0  0  0  0  0  0
  139.9590   68.2490  228.9560 F   0  0  0  0  0  0  0  0  0  0  0  0
  140.7930   70.3580  228.1750 C   0  0  0  0  0  0  0  0  0  0  0  0
  140.9820   71.2670  227.1550 C   0  0  0  0  0  0  0  0  0  0  0  0
  140.5270   70.9840  225.8840 C   0  0  0  0  0  0  0  0  0  0  0  0
  140.7110   71.8800  224.8710 N   0  0  0  0  0  0  0  0  0  0  0  0
  141.3430   78.9460  220.4970 C   0  0  0  0  0  0  0  0  0  0  0  0
  141.3030   80.3190  220.3780 C   0  0  0  0  0  0  0  0  0  0  0  0
  141.8590   81.0080  219.3220 C   0  0  0  0  0  0  0  0  0  0  0  0
  142.4990   80.3260  218.3090 C   0  0  0  0  0  0  0  0  0  0  0  0
  142.5590   78.9510  218.3950 C   0  0  0  0  0  0  0  0  0  0  0  0
  141.9970   78.2700  219.4590 C   0  0  0  0  0  0  0  0  0  0  0  0
  139.4345   80.3631  224.4402 H   0  0  0  0  0  0  0  0  0  0  0  0
  140.0335   81.0760  222.9041 H   0  0  0  0  0  0  0  0  0  0  0  0
  139.2815   79.4447  222.9041 H   0  0  0  0  0  0  0  0  0  0  0  0
  141.3386   79.1310  224.7408 H   0  0  0  0  0  0  0  0  0  0  0  0
  142.6302   80.8889  224.5998 H   0  0  0  0  0  0  0  0  0  0  0  0
  143.1812   80.1690  223.0490 H   0  0  0  0  0  0  0  0  0  0  0  0
  141.9056   81.4337  223.0490 H   0  0  0  0  0  0  0  0  0  0  0  0
  142.5574   78.2087  222.6846 H   0  0  0  0  0  0  0  0  0  0  0  0
  141.0920   77.4586  223.5247 H   0  0  0  0  0  0  0  0  0  0  0  0
  139.7585   78.6394  221.8363 H   0  0  0  0  0  0  0  0  0  0  0  0
  141.4580   76.4710  220.5120 H   0  0  0  0  0  0  0  0  0  0  0  0
  138.9643   74.3517  220.4884 H   0  0  0  0  0  0  0  0  0  0  0  0
  140.7372   74.2866  220.7709 H   0  0  0  0  0  0  0  0  0  0  0  0
  138.7660   73.7950  223.0400 H   0  0  0  0  0  0  0  0  0  0  0  0
  139.2609   70.1695  222.3979 H   0  0  0  0  0  0  0  0  0  0  0  0
  138.9033   68.5123  224.2051 H   0  0  0  0  0  0  0  0  0  0  0  0
  139.1802   67.9230  226.4777 H   0  0  0  0  0  0  0  0  0  0  0  0
  141.1623   70.6008  229.1823 H   0  0  0  0  0  0  0  0  0  0  0  0
  141.4961   72.2186  227.3553 H   0  0  0  0  0  0  0  0  0  0  0  0
  140.8002   80.8954  221.1685 H   0  0  0  0  0  0  0  0  0  0  0  0
  141.7920   82.1054  219.2872 H   0  0  0  0  0  0  0  0  0  0  0  0
  142.9474   80.8616  217.4593 H   0  0  0  0  0  0  0  0  0  0  0  0
  143.0650   78.3837  217.5999 H   0  0  0  0  0  0  0  0  0  0  0  0
  142.0650   77.1726  219.4911 H   0  0  0  0  0  0  0  0  0  0  0  0
  1  2  1  0
  2  3  1  0
  2  4  1  0
  4  5  1  0
  5  6  1  0
  6  7  1  0
  7  8  2  0
  7  9  1  0
  9 10  1  0
 10 11  1  0
 11 12  2  0
 11 13  1  0
 13 14  2  0
 14 15  1  0
 15 16  2  0
 16 17  1  0
 17 18  2  0
 18 19  1  0
 18 20  1  0
 20 21  2  0
 21 22  1  0
 22 23  2  0
  5 24  1  0
 24 25  2  0
 25 26  1  0
 26 27  2  0
 27 28  1  0
 28 29  2  0
 23 13  1  0
 29 24  1  0
 22 16  1  0
  1 30  1  0
  1 31  1  0
  1 32  1  0
  2 33  1  0
  3 34  1  0
  3 35  1  0
  3 36  1  0
  4 37  1  0
  4 38  1  0
  5 39  1  1
  6 40  1  0
  9 41  1  0
  9 42  1  0
 10 43  1  0
 14 44  1  0
 15 45  1  0
 17 46  1  0
 20 47  1  0
 21 48  1  0
 25 49  1  0
 26 50  1  0
 27 51  1  0
 28 52  1  0
 29 53  1  0
M  END
>  <smiles>  (40) 
CC(C)C[C@H](NC(=O)CNC(=O)c1ccc2cc(F)ccc2n1)c1ccccc1

>  <score_type>  (40) 
oracle

>  <origin>  (40) 
autodockgpu

>  <m_score__min__energy>  (40) 
-9.1300000000000008

>  <m_primary>  (40) 
energy

>  <rmsd>  (40) 
3.7809116430825536

>  <m_score__min__rmsd>  (40) 
3.7809116430825536

>  <meeko>  (40) 
{"free_energy": -8.7, "intermolecular_energy": -10.79, "internal_energy": -1.44, "cluster_size": 16, "cluster_id": 1, "rank_in_cluster": 7}

>  <energy>  (40) 
-7.67

>  <cluster_rmsd>  (40) 
1.06

>  <cluster>  (40) 
4

$$$$

     RDKit          3D

 53 55  0  0  0  0  0  0  0  0999 V2000
  140.1910   80.1090  223.7380 C   0  0  0  0  0  0  0  0  0  0  0  0
  141.5740   79.5560  224.0140 C   0  0  0  0  0  0  0  0  0  0  0  0
  142.5770   80.6320  223.7850 C   0  0  0  0  0  0  0  0  0  0  0  0
  141.8230   78.2610  223.3220 C   0  0  0  0  0  0  0  0  0  0  0  0
  141.0040   77.9950  222.1120 C   0  0  2  0  0  0  0  0  0  0  0  0
  141.0800   76.5530  221.8130 N   0  0  0  0  0  0  0  0  0  0  0  0
  139.9230   75.8750  221.3320 C   0  0  0  0  0  0  0  0  0  0  0  0
  138.8680   76.5450  221.1790 O   0  0  0  0  0  0  0  0  0  0  0  0
  140.0380   74.4320  221.0430 C   0  0  0  0  0  0  0  0  0  0  0  0
  139.8460   73.6840  222.2520 N   0  0  0  0  0  0  0  0  0  0  0  0
  140.3830   72.3660  222.3150 C   0  0  0  0  0  0  0  0  0  0  0  0
  141.0050   71.9030  221.3150 O   0  0  0  0  0  0  0  0  0  0  0  0
  140.2160   71.5630  223.5230 C   0  0  0  0  0  0  0  0  0  0  0  0
  139.5190   70.3730  223.4480 C   0  0  0  0  0  0  0  0  0  0  0  0
  139.3110   69.5480  224.5340 C   0  0  0  0  0  0  0  0  0  0  0  0
  139.8370   69.9620  225.7420 C   0  0  0  0  0  0  0  0  0  0  0  0
  139.6480   69.1620  226.8510 C   0  0  0  0  0  0  0  0  0  0  0  0
  140.1540   69.5260  228.0830 C   0  0  0  0  0  0  0  0  0  0  0  0
  139.9680   68.7460  229.1600 F   0  0  0  0  0  0  0  0  0  0  0  0
  140.8590   70.7320  228.1530 C   0  0  0  0  0  0  0  0  0  0  0  0
  141.0480   71.5320  227.0450 C   0  0  0  0  0  0  0  0  0  0  0  0
  140.5350   71.1500  225.8230 C   0  0  0  0  0  0  0  0  0  0  0  0
  140.7190   71.9370  224.7230 N   0  0  0  0  0  0  0  0  0  0  0  0
  141.4550   78.6640  220.8770 C   0  0  0  0  0  0  0  0  0  0  0  0
  141.9380   77.9930  219.7730 C   0  0  0  0  0  0  0  0  0  0  0  0
  142.3620   78.6230  218.6230 C   0  0  0  0  0  0  0  0  0  0  0  0
  142.3170   79.9980  218.5300 C   0  0  0  0  0  0  0  0  0  0  0  0
  141.8390   80.7030  219.6140 C   0  0  0  0  0  0  0  0  0  0  0  0
  141.4160   80.0600  220.7630 C   0  0  0  0  0  0  0  0  0  0  0  0
  139.6808   80.3130  224.6909 H   0  0  0  0  0  0  0  0  0  0  0  0
  140.2774   81.0417  223.1613 H   0  0  0  0  0  0  0  0  0  0  0  0
  139.6105   79.3738  223.1613 H   0  0  0  0  0  0  0  0  0  0  0  0
  141.6691   79.2678  225.0713 H   0  0  0  0  0  0  0  0  0  0  0  0
  142.9328   81.0137  224.7533 H   0  0  0  0  0  0  0  0  0  0  0  0
  143.4266   80.2263  223.2162 H   0  0  0  0  0  0  0  0  0  0  0  0
  142.1127   81.4511  223.2162 H   0  0  0  0  0  0  0  0  0  0  0  0
  142.8812   78.2389  223.0223 H   0  0  0  0  0  0  0  0  0  0  0  0
  141.5403   77.4820  224.0454 H   0  0  0  0  0  0  0  0  0  0  0  0
  140.0022   78.3756  222.3602 H   0  0  0  0  0  0  0  0  0  0  0  0
  141.9800   76.0560  221.9600 H   0  0  0  0  0  0  0  0  0  0  0  0
  139.2722   74.1433  220.3080 H   0  0  0  0  0  0  0  0  0  0  0  0
  141.0372   74.2188  220.6354 H   0  0  0  0  0  0  0  0  0  0  0  0
  139.3220   74.0920  223.0790 H   0  0  0  0  0  0  0  0  0  0  0  0
  139.1093   70.0678  222.4738 H   0  0  0  0  0  0  0  0  0  0  0  0
  138.7525   68.6048  224.4421 H   0  0  0  0  0  0  0  0  0  0  0  0
  139.0864   68.2214  226.7518 H   0  0  0  0  0  0  0  0  0  0  0  0
  141.2749   71.0520  229.1198 H   0  0  0  0  0  0  0  0  0  0  0  0
  141.6078   72.4745  227.1361 H   0  0  0  0  0  0  0  0  0  0  0  0
  141.9875   76.8948  219.8126 H   0  0  0  0  0  0  0  0  0  0  0  0
  142.7371   78.0277  217.7775 H   0  0  0  0  0  0  0  0  0  0  0  0
  142.6520   80.5162  217.6194 H   0  0  0  0  0  0  0  0  0  0  0  0
  141.7931   81.8009  219.5639 H   0  0  0  0  0  0  0  0  0  0  0  0
  141.0405   80.6580  221.6064 H   0  0  0  0  0  0  0  0  0  0  0  0
  1  2  1  0
  2  3  1  0
  2  4  1  0
  4  5  1  0
  5  6  1  0
  6  7  1  0
  7  8  2  0
  7  9  1  0
  9 10  1  0
 10 11  1  0
 11 12  2  0
 11 13  1  0
 13 14  2  0
 14 15  1  0
 15 16  2  0
 16 17  1  0
 17 18  2  0
 18 19  1  0
 18 20  1  0
 20 21  2  0
 21 22  1  0
 22 23  2  0
  5 24  1  0
 24 25  2  0
 25 26  1  0
 26 27  2  0
 27 28  1  0
 28 29  2  0
 23 13  1  0
 29 24  1  0
 22 16  1  0
  1 30  1  0
  1 31  1  0
  1 32  1  0
  2 33  1  0
  3 34  1  0
  3 35  1  0
  3 36  1  0
  4 37  1  0
  4 38  1  0
  5 39  1  1
  6 40  1  0
  9 41  1  0
  9 42  1  0
 10 43  1  0
 14 44  1  0
 15 45  1  0
 17 46  1  0
 20 47  1  0
 21 48  1  0
 25 49  1  0
 26 50  1  0
 27 51  1  0
 28 52  1  0
 29 53  1  0
M  END
>  <smiles>  (41) 
CC(C)C[C@H](NC(=O)CNC(=O)c1ccc2cc(F)ccc2n1)c1ccccc1

>  <score_type>  (41) 
oracle

>  <origin>  (41) 
autodockgpu

>  <m_score__min__energy>  (41) 
-9.1300000000000008

>  <m_primary>  (41) 
energy

>  <rmsd>  (41) 
3.929788784176658

>  <m_score__min__rmsd>  (41) 
3.929788784176658

>  <meeko>  (41) 
{"free_energy": -9.09, "intermolecular_energy": -11.17, "internal_energy": -1.35, "cluster_size": 16, "cluster_id": 1, "rank_in_cluster": 3}

>  <energy>  (41) 
-7.66

>  <cluster_rmsd>  (41) 
1.66

>  <cluster>  (41) 
4

$$$$

     RDKit          3D

 53 55  0  0  0  0  0  0  0  0999 V2000
  142.5060   77.1250  217.1590 C   0  0  0  0  0  0  0  0  0  0  0  0
  142.9470   77.2930  218.5980 C   0  0  0  0  0  0  0  0  0  0  0  0
  143.4000   75.9750  219.1210 C   0  0  0  0  0  0  0  0  0  0  0  0
  141.9470   78.0240  219.4240 C   0  0  0  0  0  0  0  0  0  0  0  0
  141.6660   77.4580  220.7680 C   0  0  2  0  0  0  0  0  0  0  0  0
  140.4750   76.5940  220.6640 N   0  0  0  0  0  0  0  0  0  0  0  0
  140.4680   75.3290  221.3190 C   0  0  0  0  0  0  0  0  0  0  0  0
  141.4930   74.9960  221.9690 O   0  0  0  0  0  0  0  0  0  0  0  0
  139.2580   74.4910  221.1930 C   0  0  0  0  0  0  0  0  0  0  0  0
  139.1680   73.6070  222.3180 N   0  0  0  0  0  0  0  0  0  0  0  0
  140.1050   72.5370  222.4040 C   0  0  0  0  0  0  0  0  0  0  0  0
  140.9770   72.4050  221.4970 O   0  0  0  0  0  0  0  0  0  0  0  0
  140.0560   71.6080  223.5290 C   0  0  0  0  0  0  0  0  0  0  0  0
  139.4240   70.3910  223.3690 C   0  0  0  0  0  0  0  0  0  0  0  0
  139.3280   69.4500  224.3740 C   0  0  0  0  0  0  0  0  0  0  0  0
  139.9030   69.7720  225.5880 C   0  0  0  0  0  0  0  0  0  0  0  0
  139.8260   68.8550  226.6160 C   0  0  0  0  0  0  0  0  0  0  0  0
  140.3850   69.1240  227.8490 C   0  0  0  0  0  0  0  0  0  0  0  0
  140.3080   68.2290  228.8490 F   0  0  0  0  0  0  0  0  0  0  0  0
  141.0240   70.3570  228.0060 C   0  0  0  0  0  0  0  0  0  0  0  0
  141.1010   71.2750  226.9780 C   0  0  0  0  0  0  0  0  0  0  0  0
  140.5370   70.9870  225.7530 C   0  0  0  0  0  0  0  0  0  0  0  0
  140.6100   71.8900  224.7320 N   0  0  0  0  0  0  0  0  0  0  0  0
  141.3320   78.4410  221.8170 C   0  0  0  0  0  0  0  0  0  0  0  0
  140.1470   78.4380  222.5210 C   0  0  0  0  0  0  0  0  0  0  0  0
  139.8380   79.3610  223.4970 C   0  0  0  0  0  0  0  0  0  0  0  0
  140.7360   80.3570  223.8170 C   0  0  0  0  0  0  0  0  0  0  0  0
  141.9330   80.3910  223.1340 C   0  0  0  0  0  0  0  0  0  0  0  0
  142.2320   79.4590  222.1560 C   0  0  0  0  0  0  0  0  0  0  0  0
  141.4783   76.7335  217.1338 H   0  0  0  0  0  0  0  0  0  0  0  0
  142.5399   78.0990  216.6490 H   0  0  0  0  0  0  0  0  0  0  0  0
  143.1794   76.4204  216.6490 H   0  0  0  0  0  0  0  0  0  0  0  0
  143.8185   77.9617  218.6563 H   0  0  0  0  0  0  0  0  0  0  0  0
  143.3931   75.9949  220.2208 H   0  0  0  0  0  0  0  0  0  0  0  0
  142.7214   75.1861  218.7643 H   0  0  0  0  0  0  0  0  0  0  0  0
  144.4202   75.7700  218.7643 H   0  0  0  0  0  0  0  0  0  0  0  0
  142.3136   79.0518  219.5628 H   0  0  0  0  0  0  0  0  0  0  0  0
  140.9992   77.9516  218.8705 H   0  0  0  0  0  0  0  0  0  0  0  0
  142.5967   76.9495  221.0597 H   0  0  0  0  0  0  0  0  0  0  0  0
  139.6610   76.9250  220.1120 H   0  0  0  0  0  0  0  0  0  0  0  0
  138.3674   75.1358  221.1615 H   0  0  0  0  0  0  0  0  0  0  0  0
  139.3167   73.9002  220.2670 H   0  0  0  0  0  0  0  0  0  0  0  0
  138.4290   73.7370  223.0680 H   0  0  0  0  0  0  0  0  0  0  0  0
  138.9746   70.1599  222.3919 H   0  0  0  0  0  0  0  0  0  0  0  0
  138.8175   68.4886  224.2157 H   0  0  0  0  0  0  0  0  0  0  0  0
  139.3122   67.8965  226.4507 H   0  0  0  0  0  0  0  0  0  0  0  0
  141.4788   70.6030  228.9769 H   0  0  0  0  0  0  0  0  0  0  0  0
  141.6122   72.2361  227.1359 H   0  0  0  0  0  0  0  0  0  0  0  0
  139.4077   77.6565  222.2915 H   0  0  0  0  0  0  0  0  0  0  0  0
  138.8729   79.3028  224.0216 H   0  0  0  0  0  0  0  0  0  0  0  0
  140.5045   81.1014  224.5931 H   0  0  0  0  0  0  0  0  0  0  0  0
  142.6661   81.1759  223.3716 H   0  0  0  0  0  0  0  0  0  0  0  0
  143.1980   79.5190  221.6332 H   0  0  0  0  0  0  0  0  0  0  0  0
  1  2  1  0
  2  3  1  0
  2  4  1  0
  4  5  1  0
  5  6  1  0
  6  7  1  0
  7  8  2  0
  7  9  1  0
  9 10  1  0
 10 11  1  0
 11 12  2  0
 11 13  1  0
 13 14  2  0
 14 15  1  0
 15 16  2  0
 16 17  1  0
 17 18  2  0
 18 19  1  0
 18 20  1  0
 20 21  2  0
 21 22  1  0
 22 23  2  0
  5 24  1  0
 24 25  2  0
 25 26  1  0
 26 27  2  0
 27 28  1  0
 28 29  2  0
 23 13  1  0
 29 24  1  0
 22 16  1  0
  1 30  1  0
  1 31  1  0
  1 32  1  0
  2 33  1  0
  3 34  1  0
  3 35  1  0
  3 36  1  0
  4 37  1  0
  4 38  1  0
  5 39  1  1
  6 40  1  0
  9 41  1  0
  9 42  1  0
 10 43  1  0
 14 44  1  0
 15 45  1  0
 17 46  1  0
 20 47  1  0
 21 48  1  0
 25 49  1  0
 26 50  1  0
 27 51  1  0
 28 52  1  0
 29 53  1  0
M  END
>  <smiles>  (42) 
CC(C)C[C@H](NC(=O)CNC(=O)c1ccc2cc(F)ccc2n1)c1ccccc1

>  <score_type>  (42) 
oracle

>  <origin>  (42) 
autodockgpu

>  <m_score__min__energy>  (42) 
-9.1300000000000008

>  <m_primary>  (42) 
energy

>  <rmsd>  (42) 
2.05882296593978

>  <m_score__min__rmsd>  (42) 
2.05882296593978

>  <meeko>  (42) 
{"free_energy": -8.67, "intermolecular_energy": -10.76, "internal_energy": -1.33, "cluster_size": 10, "cluster_id": 2, "rank_in_cluster": 1}

>  <energy>  (42) 
-7.59

>  <cluster_rmsd>  (42) 
1.31

>  <cluster>  (42) 
4

$$$$

     RDKit          3D

 53 55  0  0  0  0  0  0  0  0999 V2000
  142.3930   76.5280  217.3950 C   0  0  0  0  0  0  0  0  0  0  0  0
  143.0000   77.0700  218.6730 C   0  0  0  0  0  0  0  0  0  0  0  0
  143.6990   75.9620  219.3820 C   0  0  0  0  0  0  0  0  0  0  0  0
  142.0310   77.8630  219.4780 C   0  0  0  0  0  0  0  0  0  0  0  0
  141.7900   77.3910  220.8650 C   0  0  2  0  0  0  0  0  0  0  0  0
  140.5640   76.5700  220.8660 N   0  0  0  0  0  0  0  0  0  0  0  0
  140.6640   75.1640  221.0790 C   0  0  0  0  0  0  0  0  0  0  0  0
  141.8090   74.6750  221.2610 O   0  0  0  0  0  0  0  0  0  0  0  0
  139.4150   74.3750  221.0730 C   0  0  0  0  0  0  0  0  0  0  0  0
  139.3500   73.5730  222.2610 N   0  0  0  0  0  0  0  0  0  0  0  0
  140.1140   72.3700  222.2980 C   0  0  0  0  0  0  0  0  0  0  0  0
  140.8160   72.0540  221.2940 O   0  0  0  0  0  0  0  0  0  0  0  0
  140.0820   71.5180  223.4820 C   0  0  0  0  0  0  0  0  0  0  0  0
  139.5000   70.2690  223.3960 C   0  0  0  0  0  0  0  0  0  0  0  0
  139.4240   69.3950  224.4600 C   0  0  0  0  0  0  0  0  0  0  0  0
  139.9660   69.8190  225.6580 C   0  0  0  0  0  0  0  0  0  0  0  0
  139.9070   68.9710  226.7440 C   0  0  0  0  0  0  0  0  0  0  0  0
  140.4350   69.3440  227.9640 C   0  0  0  0  0  0  0  0  0  0  0  0
  140.3760   68.5160  229.0210 F   0  0  0  0  0  0  0  0  0  0  0  0
  141.0230   70.6100  228.0460 C   0  0  0  0  0  0  0  0  0  0  0  0
  141.0820   71.4580  226.9600 C   0  0  0  0  0  0  0  0  0  0  0  0
  140.5500   71.0670  225.7490 C   0  0  0  0  0  0  0  0  0  0  0  0
  140.6050   71.9020  224.6710 N   0  0  0  0  0  0  0  0  0  0  0  0
  141.5390   78.4490  221.8640 C   0  0  0  0  0  0  0  0  0  0  0  0
  140.6480   78.3220  222.9080 C   0  0  0  0  0  0  0  0  0  0  0  0
  140.4140   79.3140  223.8350 C   0  0  0  0  0  0  0  0  0  0  0  0
  141.0880   80.5140  223.7510 C   0  0  0  0  0  0  0  0  0  0  0  0
  141.9890   80.6770  222.7200 C   0  0  0  0  0  0  0  0  0  0  0  0
  142.2150   79.6730  221.7940 C   0  0  0  0  0  0  0  0  0  0  0  0
  141.5936   75.8142  217.6427 H   0  0  0  0  0  0  0  0  0  0  0  0
  141.9742   77.3581  216.8072 H   0  0  0  0  0  0  0  0  0  0  0  0
  143.1706   76.0182  216.8072 H   0  0  0  0  0  0  0  0  0  0  0  0
  143.7697   77.8218  218.4440 H   0  0  0  0  0  0  0  0  0  0  0  0
  143.6077   76.1067  220.4686 H   0  0  0  0  0  0  0  0  0  0  0  0
  143.2431   75.0013  219.1005 H   0  0  0  0  0  0  0  0  0  0  0  0
  144.7624   75.9597  219.1005 H   0  0  0  0  0  0  0  0  0  0  0  0
  142.4076   78.8949  219.5353 H   0  0  0  0  0  0  0  0  0  0  0  0
  141.0657   77.7613  218.9605 H   0  0  0  0  0  0  0  0  0  0  0  0
  142.7135   76.8646  221.1479 H   0  0  0  0  0  0  0  0  0  0  0  0
  139.6490   77.0340  220.7100 H   0  0  0  0  0  0  0  0  0  0  0  0
  138.5515   75.0557  221.0425 H   0  0  0  0  0  0  0  0  0  0  0  0
  139.3984   73.7216  220.1882 H   0  0  0  0  0  0  0  0  0  0  0  0
  138.7550   73.8580  223.0910 H   0  0  0  0  0  0  0  0  0  0  0  0
  139.0758   69.9554  222.4307 H   0  0  0  0  0  0  0  0  0  0  0  0
  138.9535   68.4058  224.3595 H   0  0  0  0  0  0  0  0  0  0  0  0
  139.4329   67.9842  226.6368 H   0  0  0  0  0  0  0  0  0  0  0  0
  141.4509   70.9391  229.0045 H   0  0  0  0  0  0  0  0  0  0  0  0
  141.5536   72.4468  227.0597 H   0  0  0  0  0  0  0  0  0  0  0  0
  140.0935   77.3771  223.0064 H   0  0  0  0  0  0  0  0  0  0  0  0
  139.6876   79.1483  224.6443 H   0  0  0  0  0  0  0  0  0  0  0  0
  140.9125   81.3159  224.4833 H   0  0  0  0  0  0  0  0  0  0  0  0
  142.5399   81.6250  222.6314 H   0  0  0  0  0  0  0  0  0  0  0  0
  142.9417   79.8406  220.9854 H   0  0  0  0  0  0  0  0  0  0  0  0
  1  2  1  0
  2  3  1  0
  2  4  1  0
  4  5  1  0
  5  6  1  0
  6  7  1  0
  7  8  2  0
  7  9  1  0
  9 10  1  0
 10 11  1  0
 11 12  2  0
 11 13  1  0
 13 14  2  0
 14 15  1  0
 15 16  2  0
 16 17  1  0
 17 18  2  0
 18 19  1  0
 18 20  1  0
 20 21  2  0
 21 22  1  0
 22 23  2  0
  5 24  1  0
 24 25  2  0
 25 26  1  0
 26 27  2  0
 27 28  1  0
 28 29  2  0
 23 13  1  0
 29 24  1  0
 22 16  1  0
  1 30  1  0
  1 31  1  0
  1 32  1  0
  2 33  1  0
  3 34  1  0
  3 35  1  0
  3 36  1  0
  4 37  1  0
  4 38  1  0
  5 39  1  1
  6 40  1  0
  9 41  1  0
  9 42  1  0
 10 43  1  0
 14 44  1  0
 15 45  1  0
 17 46  1  0
 20 47  1  0
 21 48  1  0
 25 49  1  0
 26 50  1  0
 27 51  1  0
 28 52  1  0
 29 53  1  0
M  END
>  <smiles>  (43) 
CC(C)C[C@H](NC(=O)CNC(=O)c1ccc2cc(F)ccc2n1)c1ccccc1

>  <score_type>  (43) 
oracle

>  <origin>  (43) 
autodockgpu

>  <m_score__min__energy>  (43) 
-9.1300000000000008

>  <m_primary>  (43) 
energy

>  <rmsd>  (43) 
1.9529225587994754

>  <m_score__min__rmsd>  (43) 
1.9529225587994754

>  <meeko>  (43) 
{"free_energy": -8.54, "intermolecular_energy": -10.63, "internal_energy": -1.39, "cluster_size": 16, "cluster_id": 1, "rank_in_cluster": 10}

>  <energy>  (43) 
-7.65

>  <cluster_rmsd>  (43) 
0.0

>  <cluster>  (43) 
5

$$$$

     RDKit          3D

 53 55  0  0  0  0  0  0  0  0999 V2000
  142.1780   77.5600  219.5800 C   0  0  0  0  0  0  0  0  0  0  0  0
  141.2930   77.4030  220.7990 C   0  0  0  0  0  0  0  0  0  0  0  0
  141.4800   78.5830  221.6870 C   0  0  0  0  0  0  0  0  0  0  0  0
  141.4290   76.0660  221.4390 C   0  0  0  0  0  0  0  0  0  0  0  0
  141.5480   74.9060  220.5190 C   0  0  2  0  0  0  0  0  0  0  0  0
  140.5560   73.8920  220.9250 N   0  0  0  0  0  0  0  0  0  0  0  0
  139.1810   74.0930  220.6110 C   0  0  0  0  0  0  0  0  0  0  0  0
  138.8640   75.1420  219.9920 O   0  0  0  0  0  0  0  0  0  0  0  0
  138.2180   73.0560  221.0330 C   0  0  0  0  0  0  0  0  0  0  0  0
  138.5500   72.6030  222.3520 N   0  0  0  0  0  0  0  0  0  0  0  0
  139.5330   71.5780  222.4790 C   0  0  0  0  0  0  0  0  0  0  0  0
  140.0730   71.1090  221.4370 O   0  0  0  0  0  0  0  0  0  0  0  0
  139.9070   71.0800  223.8000 C   0  0  0  0  0  0  0  0  0  0  0  0
  140.6520   71.8870  224.6360 C   0  0  0  0  0  0  0  0  0  0  0  0
  141.0520   71.5030  225.8990 C   0  0  0  0  0  0  0  0  0  0  0  0
  140.6710   70.2440  226.3190 C   0  0  0  0  0  0  0  0  0  0  0  0
  141.0530   69.8260  227.5770 C   0  0  0  0  0  0  0  0  0  0  0  0
  140.6990   68.5770  228.0480 C   0  0  0  0  0  0  0  0  0  0  0  0
  141.0730   68.1720  229.2730 F   0  0  0  0  0  0  0  0  0  0  0  0
  139.9440   67.7640  227.1970 C   0  0  0  0  0  0  0  0  0  0  0  0
  139.5620   68.1810  225.9390 C   0  0  0  0  0  0  0  0  0  0  0  0
  139.9250   69.4330  225.4870 C   0  0  0  0  0  0  0  0  0  0  0  0
  139.5500   69.8520  224.2430 N   0  0  0  0  0  0  0  0  0  0  0  0
  142.8450   74.2020  220.5450 C   0  0  0  0  0  0  0  0  0  0  0  0
  144.0640   74.8340  220.4240 C   0  0  0  0  0  0  0  0  0  0  0  0
  145.2720   74.1700  220.4440 C   0  0  0  0  0  0  0  0  0  0  0  0
  145.3070   72.8000  220.5920 C   0  0  0  0  0  0  0  0  0  0  0  0
  144.1070   72.1330  220.7180 C   0  0  0  0  0  0  0  0  0  0  0  0
  142.9000   72.8100  220.6950 C   0  0  0  0  0  0  0  0  0  0  0  0
  143.2141   77.7438  219.9004 H   0  0  0  0  0  0  0  0  0  0  0  0
  142.1382   76.6408  218.9771 H   0  0  0  0  0  0  0  0  0  0  0  0
  141.8244   78.4094  218.9771 H   0  0  0  0  0  0  0  0  0  0  0  0
  140.2328   77.4055  220.5058 H   0  0  0  0  0  0  0  0  0  0  0  0
  141.4292   78.2626  222.7381 H   0  0  0  0  0  0  0  0  0  0  0  0
  142.4615   79.0386  221.4896 H   0  0  0  0  0  0  0  0  0  0  0  0
  140.6874   79.3198  221.4896 H   0  0  0  0  0  0  0  0  0  0  0  0
  142.3293   76.0867  222.0707 H   0  0  0  0  0  0  0  0  0  0  0  0
  140.4908   75.9079  221.9911 H   0  0  0  0  0  0  0  0  0  0  0  0
  141.4087   75.3286  219.5130 H   0  0  0  0  0  0  0  0  0  0  0  0
  140.8810   73.0480  221.4340 H   0  0  0  0  0  0  0  0  0  0  0  0
  137.2023   73.4782  221.0353 H   0  0  0  0  0  0  0  0  0  0  0  0
  138.2617   72.2087  220.3328 H   0  0  0  0  0  0  0  0  0  0  0  0
  138.0840   73.0110  223.2130 H   0  0  0  0  0  0  0  0  0  0  0  0
  140.9410   72.8859  224.2773 H   0  0  0  0  0  0  0  0  0  0  0  0
  141.6468   72.1687  226.5417 H   0  0  0  0  0  0  0  0  0  0  0  0
  141.6480   70.4971  228.2139 H   0  0  0  0  0  0  0  0  0  0  0  0
  139.6460   66.7625  227.5409 H   0  0  0  0  0  0  0  0  0  0  0  0
  138.9678   67.5152  225.2959 H   0  0  0  0  0  0  0  0  0  0  0  0
  144.0734   75.9275  220.3050 H   0  0  0  0  0  0  0  0  0  0  0  0
  146.2103   74.7349  220.3416 H   0  0  0  0  0  0  0  0  0  0  0  0
  146.2628   72.2557  220.6090 H   0  0  0  0  0  0  0  0  0  0  0  0
  144.1089   71.0397  220.8394 H   0  0  0  0  0  0  0  0  0  0  0  0
  141.9631   72.2426  220.7968 H   0  0  0  0  0  0  0  0  0  0  0  0
  1  2  1  0
  2  3  1  0
  2  4  1  0
  4  5  1  0
  5  6  1  0
  6  7  1  0
  7  8  2  0
  7  9  1  0
  9 10  1  0
 10 11  1  0
 11 12  2  0
 11 13  1  0
 13 14  2  0
 14 15  1  0
 15 16  2  0
 16 17  1  0
 17 18  2  0
 18 19  1  0
 18 20  1  0
 20 21  2  0
 21 22  1  0
 22 23  2  0
  5 24  1  0
 24 25  2  0
 25 26  1  0
 26 27  2  0
 27 28  1  0
 28 29  2  0
 23 13  1  0
 29 24  1  0
 22 16  1  0
  1 30  1  0
  1 31  1  0
  1 32  1  0
  2 33  1  0
  3 34  1  0
  3 35  1  0
  3 36  1  0
  4 37  1  0
  4 38  1  0
  5 39  1  6
  6 40  1  0
  9 41  1  0
  9 42  1  0
 10 43  1  0
 14 44  1  0
 15 45  1  0
 17 46  1  0
 20 47  1  0
 21 48  1  0
 25 49  1  0
 26 50  1  0
 27 51  1  0
 28 52  1  0
 29 53  1  0
M  END
>  <smiles>  (44) 
CC(C)C[C@H](NC(=O)CNC(=O)c1ccc2cc(F)ccc2n1)c1ccccc1

>  <score_type>  (44) 
oracle

>  <origin>  (44) 
autodockgpu

>  <m_score__min__energy>  (44) 
-9.1300000000000008

>  <m_primary>  (44) 
energy

>  <rmsd>  (44) 
3.2573813998153978

>  <m_score__min__rmsd>  (44) 
3.2573813998153978

>  <meeko>  (44) 
{"free_energy": -7.69, "intermolecular_energy": -9.78, "internal_energy": -2.27, "cluster_size": 12, "cluster_id": 4, "rank_in_cluster": 8}

>  <energy>  (44) 
-7.64

>  <cluster_rmsd>  (44) 
0.33

>  <cluster>  (44) 
5

$$$$

     RDKit          3D

 53 55  0  0  0  0  0  0  0  0999 V2000
  142.2040   77.5230  219.4690 C   0  0  0  0  0  0  0  0  0  0  0  0
  141.3000   77.3790  220.6750 C   0  0  0  0  0  0  0  0  0  0  0  0
  141.4590   78.5780  221.5440 C   0  0  0  0  0  0  0  0  0  0  0  0
  141.4390   76.0560  221.3430 C   0  0  0  0  0  0  0  0  0  0  0  0
  141.5610   74.8780  220.4470 C   0  0  2  0  0  0  0  0  0  0  0  0
  140.5700   73.8710  220.8720 N   0  0  0  0  0  0  0  0  0  0  0  0
  139.1900   74.0820  220.5870 C   0  0  0  0  0  0  0  0  0  0  0  0
  138.8690   75.1330  219.9740 O   0  0  0  0  0  0  0  0  0  0  0  0
  138.2280   73.0520  221.0280 C   0  0  0  0  0  0  0  0  0  0  0  0
  138.5730   72.6090  222.3480 N   0  0  0  0  0  0  0  0  0  0  0  0
  139.5290   71.5590  222.4720 C   0  0  0  0  0  0  0  0  0  0  0  0
  140.0360   71.0580  221.4260 O   0  0  0  0  0  0  0  0  0  0  0  0
  139.9140   71.0700  223.7930 C   0  0  0  0  0  0  0  0  0  0  0  0
  140.6680   71.8820  224.6160 C   0  0  0  0  0  0  0  0  0  0  0  0
  141.0780   71.5070  225.8790 C   0  0  0  0  0  0  0  0  0  0  0  0
  140.7000   70.2510  226.3110 C   0  0  0  0  0  0  0  0  0  0  0  0
  141.0930   69.8410  227.5690 C   0  0  0  0  0  0  0  0  0  0  0  0
  140.7420   68.5960  228.0510 C   0  0  0  0  0  0  0  0  0  0  0  0
  141.1260   68.2000  229.2760 F   0  0  0  0  0  0  0  0  0  0  0  0
  139.9790   67.7780  227.2130 C   0  0  0  0  0  0  0  0  0  0  0  0
  139.5870   68.1860  225.9550 C   0  0  0  0  0  0  0  0  0  0  0  0
  139.9460   69.4350  225.4910 C   0  0  0  0  0  0  0  0  0  0  0  0
  139.5610   69.8450  224.2480 N   0  0  0  0  0  0  0  0  0  0  0  0
  142.8590   74.1760  220.4890 C   0  0  0  0  0  0  0  0  0  0  0  0
  144.0790   74.8160  220.4410 C   0  0  0  0  0  0  0  0  0  0  0  0
  145.2880   74.1560  220.4760 C   0  0  0  0  0  0  0  0  0  0  0  0
  145.3230   72.7800  220.5630 C   0  0  0  0  0  0  0  0  0  0  0  0
  144.1220   72.1050  220.6150 C   0  0  0  0  0  0  0  0  0  0  0  0
  142.9140   72.7800  220.5790 C   0  0  0  0  0  0  0  0  0  0  0  0
  143.2387   77.6878  219.8039 H   0  0  0  0  0  0  0  0  0  0  0  0
  142.1563   76.6059  218.8634 H   0  0  0  0  0  0  0  0  0  0  0  0
  141.8737   78.3799  218.8634 H   0  0  0  0  0  0  0  0  0  0  0  0
  140.2452   77.3639  220.3631 H   0  0  0  0  0  0  0  0  0  0  0  0
  141.4186   78.2733  222.6002 H   0  0  0  0  0  0  0  0  0  0  0  0
  142.4283   79.0551  221.3368 H   0  0  0  0  0  0  0  0  0  0  0  0
  140.6476   79.2912  221.3368 H   0  0  0  0  0  0  0  0  0  0  0  0
  142.3390   76.0919  221.9744 H   0  0  0  0  0  0  0  0  0  0  0  0
  140.5013   75.9071  221.8985 H   0  0  0  0  0  0  0  0  0  0  0  0
  141.4227   75.2803  219.4326 H   0  0  0  0  0  0  0  0  0  0  0  0
  140.8990   73.0240  221.3750 H   0  0  0  0  0  0  0  0  0  0  0  0
  137.2138   73.4777  221.0376 H   0  0  0  0  0  0  0  0  0  0  0  0
  138.2611   72.1987  220.3346 H   0  0  0  0  0  0  0  0  0  0  0  0
  138.1360   73.0430  223.2110 H   0  0  0  0  0  0  0  0  0  0  0  0
  140.9563   72.8773  224.2468 H   0  0  0  0  0  0  0  0  0  0  0  0
  141.6779   72.1772  226.5122 H   0  0  0  0  0  0  0  0  0  0  0  0
  141.6942   70.5157  228.1962 H   0  0  0  0  0  0  0  0  0  0  0  0
  139.6824   66.7797  227.5670 H   0  0  0  0  0  0  0  0  0  0  0  0
  138.9880   67.5154  225.3214 H   0  0  0  0  0  0  0  0  0  0  0  0
  144.0878   75.9137  220.3709 H   0  0  0  0  0  0  0  0  0  0  0  0
  146.2269   74.7276  220.4345 H   0  0  0  0  0  0  0  0  0  0  0  0
  146.2797   72.2378  220.5901 H   0  0  0  0  0  0  0  0  0  0  0  0
  144.1237   71.0073  220.6866 H   0  0  0  0  0  0  0  0  0  0  0  0
  141.9762   72.2066  220.6221 H   0  0  0  0  0  0  0  0  0  0  0  0
  1  2  1  0
  2  3  1  0
  2  4  1  0
  4  5  1  0
  5  6  1  0
  6  7  1  0
  7  8  2  0
  7  9  1  0
  9 10  1  0
 10 11  1  0
 11 12  2  0
 11 13  1  0
 13 14  2  0
 14 15  1  0
 15 16  2  0
 16 17  1  0
 17 18  2  0
 18 19  1  0
 18 20  1  0
 20 21  2  0
 21 22  1  0
 22 23  2  0
  5 24  1  0
 24 25  2  0
 25 26  1  0
 26 27  2  0
 27 28  1  0
 28 29  2  0
 23 13  1  0
 29 24  1  0
 22 16  1  0
  1 30  1  0
  1 31  1  0
  1 32  1  0
  2 33  1  0
  3 34  1  0
  3 35  1  0
  3 36  1  0
  4 37  1  0
  4 38  1  0
  5 39  1  6
  6 40  1  0
  9 41  1  0
  9 42  1  0
 10 43  1  0
 14 44  1  0
 15 45  1  0
 17 46  1  0
 20 47  1  0
 21 48  1  0
 25 49  1  0
 26 50  1  0
 27 51  1  0
 28 52  1  0
 29 53  1  0
M  END
>  <smiles>  (45) 
CC(C)C[C@H](NC(=O)CNC(=O)c1ccc2cc(F)ccc2n1)c1ccccc1

>  <score_type>  (45) 
oracle

>  <origin>  (45) 
autodockgpu

>  <m_score__min__energy>  (45) 
-9.1300000000000008

>  <m_primary>  (45) 
energy

>  <rmsd>  (45) 
3.233118846004163

>  <m_score__min__rmsd>  (45) 
3.233118846004163

>  <meeko>  (45) 
{"free_energy": -7.67, "intermolecular_energy": -9.76, "internal_energy": -2.28, "cluster_size": 12, "cluster_id": 4, "rank_in_cluster": 10}

>  <energy>  (45) 
-7.6

>  <cluster_rmsd>  (45) 
0.14

>  <cluster>  (45) 
5

$$$$

     RDKit          3D

 53 55  0  0  0  0  0  0  0  0999 V2000
  135.0140   74.6260  222.2050 C   0  0  0  0  0  0  0  0  0  0  0  0
  135.9290   74.6860  223.4100 C   0  0  0  0  0  0  0  0  0  0  0  0
  135.1480   74.3280  224.6270 C   0  0  0  0  0  0  0  0  0  0  0  0
  136.7110   75.9510  223.4760 C   0  0  0  0  0  0  0  0  0  0  0  0
  137.6330   76.2120  222.3410 C   0  0  2  0  0  0  0  0  0  0  0  0
  138.2810   74.9390  221.9720 N   0  0  0  0  0  0  0  0  0  0  0  0
  138.2630   74.5130  220.6120 C   0  0  0  0  0  0  0  0  0  0  0  0
  137.6880   75.2500  219.7700 O   0  0  0  0  0  0  0  0  0  0  0  0
  138.9220   73.2330  220.2810 C   0  0  0  0  0  0  0  0  0  0  0  0
  138.8460   72.3490  221.4080 N   0  0  0  0  0  0  0  0  0  0  0  0
  139.8050   72.5100  222.4500 C   0  0  0  0  0  0  0  0  0  0  0  0
  140.6820   73.4160  222.3470 O   0  0  0  0  0  0  0  0  0  0  0  0
  139.7720   71.6360  223.6190 C   0  0  0  0  0  0  0  0  0  0  0  0
  139.0110   70.4850  223.5760 C   0  0  0  0  0  0  0  0  0  0  0  0
  138.9190   69.6000  224.6300 C   0  0  0  0  0  0  0  0  0  0  0  0
  139.6360   69.9080  225.7700 C   0  0  0  0  0  0  0  0  0  0  0  0
  139.5670   69.0460  226.8440 C   0  0  0  0  0  0  0  0  0  0  0  0
  140.2640   69.3040  228.0080 C   0  0  0  0  0  0  0  0  0  0  0  0
  140.1960   68.4630  229.0520 F   0  0  0  0  0  0  0  0  0  0  0  0
  141.0340   70.4710  228.0450 C   0  0  0  0  0  0  0  0  0  0  0  0
  141.1030   71.3340  226.9710 C   0  0  0  0  0  0  0  0  0  0  0  0
  140.3990   71.0580  225.8170 C   0  0  0  0  0  0  0  0  0  0  0  0
  140.4630   71.9070  224.7510 N   0  0  0  0  0  0  0  0  0  0  0  0
  138.7470   77.1370  222.6240 C   0  0  0  0  0  0  0  0  0  0  0  0
  140.0760   76.8110  222.4550 C   0  0  0  0  0  0  0  0  0  0  0  0
  141.1140   77.6780  222.7260 C   0  0  0  0  0  0  0  0  0  0  0  0
  140.8510   78.9490  223.1900 C   0  0  0  0  0  0  0  0  0  0  0  0
  139.5320   79.3110  223.3690 C   0  0  0  0  0  0  0  0  0  0  0  0
  138.5000   78.4320  223.0960 C   0  0  0  0  0  0  0  0  0  0  0  0
  133.9689   74.5575  222.5412 H   0  0  0  0  0  0  0  0  0  0  0  0
  135.1454   75.5347  221.5992 H   0  0  0  0  0  0  0  0  0  0  0  0
  135.2630   73.7423  221.5992 H   0  0  0  0  0  0  0  0  0  0  0  0
  136.7262   73.9330  223.3235 H   0  0  0  0  0  0  0  0  0  0  0  0
  135.7259   74.5929  225.5247 H   0  0  0  0  0  0  0  0  0  0  0  0
  134.1964   74.8798  224.6275 H   0  0  0  0  0  0  0  0  0  0  0  0
  134.9449   73.2469  224.6275 H   0  0  0  0  0  0  0  0  0  0  0  0
  135.9959   76.7854  223.5262 H   0  0  0  0  0  0  0  0  0  0  0  0
  137.3553   75.8529  224.3621 H   0  0  0  0  0  0  0  0  0  0  0  0
  137.0010   76.6655  221.5633 H   0  0  0  0  0  0  0  0  0  0  0  0
  138.7390   74.3750  222.7140 H   0  0  0  0  0  0  0  0  0  0  0  0
  138.4163   72.7726  219.4194 H   0  0  0  0  0  0  0  0  0  0  0  0
  139.9772   73.4183  220.0317 H   0  0  0  0  0  0  0  0  0  0  0  0
  138.1020   71.5960  221.4740 H   0  0  0  0  0  0  0  0  0  0  0  0
  138.4505   70.2627  222.6560 H   0  0  0  0  0  0  0  0  0  0  0  0
  138.3031   68.6909  224.5658 H   0  0  0  0  0  0  0  0  0  0  0  0
  138.9478   68.1396  226.7726 H   0  0  0  0  0  0  0  0  0  0  0  0
  141.6012   70.7076  228.9573 H   0  0  0  0  0  0  0  0  0  0  0  0
  141.7196   72.2427  227.0347 H   0  0  0  0  0  0  0  0  0  0  0  0
  140.3218   75.8050  222.0840 H   0  0  0  0  0  0  0  0  0  0  0  0
  142.1539   77.3544  222.5715 H   0  0  0  0  0  0  0  0  0  0  0  0
  141.6673   79.6526  223.4106 H   0  0  0  0  0  0  0  0  0  0  0  0
  139.2961   80.3205  223.7368 H   0  0  0  0  0  0  0  0  0  0  0  0
  137.4611   78.7576  223.2532 H   0  0  0  0  0  0  0  0  0  0  0  0
  1  2  1  0
  2  3  1  0
  2  4  1  0
  4  5  1  0
  5  6  1  0
  6  7  1  0
  7  8  2  0
  7  9  1  0
  9 10  1  0
 10 11  1  0
 11 12  2  0
 11 13  1  0
 13 14  2  0
 14 15  1  0
 15 16  2  0
 16 17  1  0
 17 18  2  0
 18 19  1  0
 18 20  1  0
 20 21  2  0
 21 22  1  0
 22 23  2  0
  5 24  1  0
 24 25  2  0
 25 26  1  0
 26 27  2  0
 27 28  1  0
 28 29  2  0
 23 13  1  0
 29 24  1  0
 22 16  1  0
  1 30  1  0
  1 31  1  0
  1 32  1  0
  2 33  1  0
  3 34  1  0
  3 35  1  0
  3 36  1  0
  4 37  1  0
  4 38  1  0
  5 39  1  6
  6 40  1  0
  9 41  1  0
  9 42  1  0
 10 43  1  0
 14 44  1  0
 15 45  1  0
 17 46  1  0
 20 47  1  0
 21 48  1  0
 25 49  1  0
 26 50  1  0
 27 51  1  0
 28 52  1  0
 29 53  1  0
M  END
>  <smiles>  (46) 
CC(C)C[C@H](NC(=O)CNC(=O)c1ccc2cc(F)ccc2n1)c1ccccc1

>  <score_type>  (46) 
oracle

>  <origin>  (46) 
autodockgpu

>  <m_score__min__energy>  (46) 
-9.1300000000000008

>  <m_primary>  (46) 
energy

>  <rmsd>  (46) 
3.8844413940526477

>  <m_score__min__rmsd>  (46) 
3.8844413940526477

>  <meeko>  (46) 
{"free_energy": -7.64, "intermolecular_energy": -9.73, "internal_energy": -2.37, "cluster_size": 7, "cluster_id": 5, "rank_in_cluster": 2}

>  <energy>  (46) 
-7.55

>  <cluster_rmsd>  (46) 
0.31

>  <cluster>  (46) 
5

$$$$

     RDKit          3D

 53 55  0  0  0  0  0  0  0  0999 V2000
  135.8030   73.3650  223.6820 C   0  0  0  0  0  0  0  0  0  0  0  0
  135.4800   74.7740  223.2310 C   0  0  0  0  0  0  0  0  0  0  0  0
  134.9420   74.7250  221.8430 C   0  0  0  0  0  0  0  0  0  0  0  0
  136.5990   75.7250  223.4730 C   0  0  0  0  0  0  0  0  0  0  0  0
  137.5030   75.9820  222.3230 C   0  0  2  0  0  0  0  0  0  0  0  0
  138.1190   74.7010  221.9270 N   0  0  0  0  0  0  0  0  0  0  0  0
  138.2340   74.3780  220.5440 C   0  0  0  0  0  0  0  0  0  0  0  0
  137.8000   75.2100  219.7050 O   0  0  0  0  0  0  0  0  0  0  0  0
  138.8570   73.0880  220.1860 C   0  0  0  0  0  0  0  0  0  0  0  0
  138.8110   72.2040  221.3150 N   0  0  0  0  0  0  0  0  0  0  0  0
  139.7340   72.4290  222.3780 C   0  0  0  0  0  0  0  0  0  0  0  0
  140.5530   73.3890  222.2910 O   0  0  0  0  0  0  0  0  0  0  0  0
  139.7290   71.5580  223.5500 C   0  0  0  0  0  0  0  0  0  0  0  0
  139.0220   70.3730  223.5040 C   0  0  0  0  0  0  0  0  0  0  0  0
  138.9600   69.4880  224.5610 C   0  0  0  0  0  0  0  0  0  0  0  0
  139.6500   69.8330  225.7060 C   0  0  0  0  0  0  0  0  0  0  0  0
  139.6110   68.9720  226.7830 C   0  0  0  0  0  0  0  0  0  0  0  0
  140.2830   69.2670  227.9520 C   0  0  0  0  0  0  0  0  0  0  0  0
  140.2420   68.4270  229.0000 F   0  0  0  0  0  0  0  0  0  0  0  0
  140.9980   70.4680  227.9930 C   0  0  0  0  0  0  0  0  0  0  0  0
  141.0370   71.3300  226.9170 C   0  0  0  0  0  0  0  0  0  0  0  0
  140.3600   71.0170  225.7570 C   0  0  0  0  0  0  0  0  0  0  0  0
  140.3950   71.8650  224.6880 N   0  0  0  0  0  0  0  0  0  0  0  0
  138.6400   76.8830  222.5930 C   0  0  0  0  0  0  0  0  0  0  0  0
  138.5020   78.1680  223.0750 C   0  0  0  0  0  0  0  0  0  0  0  0
  139.5670   79.0070  223.3210 C   0  0  0  0  0  0  0  0  0  0  0  0
  140.8560   78.5780  223.0880 C   0  0  0  0  0  0  0  0  0  0  0  0
  141.0330   77.2970  222.6070 C   0  0  0  0  0  0  0  0  0  0  0  0
  139.9560   76.4640  222.3630 C   0  0  0  0  0  0  0  0  0  0  0  0
  135.8122   73.3249  224.7812 H   0  0  0  0  0  0  0  0  0  0  0  0
  135.0403   72.6726  223.2962 H   0  0  0  0  0  0  0  0  0  0  0  0
  136.7912   73.0740  223.2962 H   0  0  0  0  0  0  0  0  0  0  0  0
  134.6815   75.2029  223.8543 H   0  0  0  0  0  0  0  0  0  0  0  0
  133.8471   74.6253  221.8775 H   0  0  0  0  0  0  0  0  0  0  0  0
  135.2093   75.6512  221.3132 H   0  0  0  0  0  0  0  0  0  0  0  0
  135.3723   73.8623  221.3132 H   0  0  0  0  0  0  0  0  0  0  0  0
  136.1614   76.6873  223.7772 H   0  0  0  0  0  0  0  0  0  0  0  0
  137.2277   75.2498  224.2405 H   0  0  0  0  0  0  0  0  0  0  0  0
  136.8644   76.4567  221.5635 H   0  0  0  0  0  0  0  0  0  0  0  0
  138.4570   74.0570  222.6670 H   0  0  0  0  0  0  0  0  0  0  0  0
  138.3094   72.6374  219.3452 H   0  0  0  0  0  0  0  0  0  0  0  0
  139.9043   73.2555  219.8944 H   0  0  0  0  0  0  0  0  0  0  0  0
  138.1150   71.4060  221.3670 H   0  0  0  0  0  0  0  0  0  0  0  0
  138.4816   70.1220  222.5794 H   0  0  0  0  0  0  0  0  0  0  0  0
  138.3874   68.5511  224.4944 H   0  0  0  0  0  0  0  0  0  0  0  0
  139.0362   68.0370  226.7092 H   0  0  0  0  0  0  0  0  0  0  0  0
  141.5451   70.7329  228.9098 H   0  0  0  0  0  0  0  0  0  0  0  0
  141.6084   72.2676  226.9841 H   0  0  0  0  0  0  0  0  0  0  0  0
  137.4872   78.5431  223.2737 H   0  0  0  0  0  0  0  0  0  0  0  0
  139.3879   80.0223  223.7045 H   0  0  0  0  0  0  0  0  0  0  0  0
  141.7164   79.2361  223.2795 H   0  0  0  0  0  0  0  0  0  0  0  0
  142.0519   76.9305  222.4135 H   0  0  0  0  0  0  0  0  0  0  0  0
  140.1376   75.4491  221.9795 H   0  0  0  0  0  0  0  0  0  0  0  0
  1  2  1  0
  2  3  1  0
  2  4  1  0
  4  5  1  0
  5  6  1  0
  6  7  1  0
  7  8  2  0
  7  9  1  0
  9 10  1  0
 10 11  1  0
 11 12  2  0
 11 13  1  0
 13 14  2  0
 14 15  1  0
 15 16  2  0
 16 17  1  0
 17 18  2  0
 18 19  1  0
 18 20  1  0
 20 21  2  0
 21 22  1  0
 22 23  2  0
  5 24  1  0
 24 25  2  0
 25 26  1  0
 26 27  2  0
 27 28  1  0
 28 29  2  0
 23 13  1  0
 29 24  1  0
 22 16  1  0
  1 30  1  0
  1 31  1  0
  1 32  1  0
  2 33  1  0
  3 34  1  0
  3 35  1  0
  3 36  1  0
  4 37  1  0
  4 38  1  0
  5 39  1  6
  6 40  1  0
  9 41  1  0
  9 42  1  0
 10 43  1  0
 14 44  1  0
 15 45  1  0
 17 46  1  0
 20 47  1  0
 21 48  1  0
 25 49  1  0
 26 50  1  0
 27 51  1  0
 28 52  1  0
 29 53  1  0
M  END
>  <smiles>  (47) 
CC(C)C[C@H](NC(=O)CNC(=O)c1ccc2cc(F)ccc2n1)c1ccccc1

>  <score_type>  (47) 
oracle

>  <origin>  (47) 
autodockgpu

>  <m_score__min__energy>  (47) 
-9.1300000000000008

>  <m_primary>  (47) 
energy

>  <rmsd>  (47) 
3.9860956951169397

>  <m_score__min__rmsd>  (47) 
3.9860956951169397

>  <meeko>  (47) 
{"free_energy": -7.44, "intermolecular_energy": -9.53, "internal_energy": -2.37, "cluster_size": 7, "cluster_id": 5, "rank_in_cluster": 7}

>  <energy>  (47) 
-7.53

>  <cluster_rmsd>  (47) 
0.31

>  <cluster>  (47) 
5

$$$$

     RDKit          3D

 53 55  0  0  0  0  0  0  0  0999 V2000
  141.7610   78.0960  220.6360 C   0  0  0  0  0  0  0  0  0  0  0  0
  140.6910   77.4510  221.4920 C   0  0  0  0  0  0  0  0  0  0  0  0
  140.3240   78.3850  222.5920 C   0  0  0  0  0  0  0  0  0  0  0  0
  141.0370   76.0600  221.8930 C   0  0  0  0  0  0  0  0  0  0  0  0
  141.1330   75.0640  220.7960 C   0  0  2  0  0  0  0  0  0  0  0  0
  140.2050   73.9570  221.0960 N   0  0  0  0  0  0  0  0  0  0  0  0
  138.8020   74.2010  221.1010 C   0  0  0  0  0  0  0  0  0  0  0  0
  138.4040   75.3670  220.8450 O   0  0  0  0  0  0  0  0  0  0  0  0
  137.9050   73.0670  221.4060 C   0  0  0  0  0  0  0  0  0  0  0  0
  138.2570   72.5070  222.6790 N   0  0  0  0  0  0  0  0  0  0  0  0
  139.4030   71.6630  222.7440 C   0  0  0  0  0  0  0  0  0  0  0  0
  140.0650   71.4380  221.6890 O   0  0  0  0  0  0  0  0  0  0  0  0
  139.8040   71.0670  224.0150 C   0  0  0  0  0  0  0  0  0  0  0  0
  140.5770   71.8050  224.8890 C   0  0  0  0  0  0  0  0  0  0  0  0
  141.0030   71.3270  226.1110 C   0  0  0  0  0  0  0  0  0  0  0  0
  140.6210   70.0420  226.4470 C   0  0  0  0  0  0  0  0  0  0  0  0
  141.0300   69.5300  227.6610 C   0  0  0  0  0  0  0  0  0  0  0  0
  140.6760   68.2530  228.0480 C   0  0  0  0  0  0  0  0  0  0  0  0
  141.0750   67.7570  229.2300 F   0  0  0  0  0  0  0  0  0  0  0  0
  139.8930   67.5100  227.1580 C   0  0  0  0  0  0  0  0  0  0  0  0
  139.4850   68.0210  225.9440 C   0  0  0  0  0  0  0  0  0  0  0  0
  139.8480   69.3000  225.5760 C   0  0  0  0  0  0  0  0  0  0  0  0
  139.4470   69.8120  224.3760 N   0  0  0  0  0  0  0  0  0  0  0  0
  142.4510   74.4220  220.6300 C   0  0  0  0  0  0  0  0  0  0  0  0
  143.5900   75.0970  220.2440 C   0  0  0  0  0  0  0  0  0  0  0  0
  144.8180   74.4910  220.0860 C   0  0  0  0  0  0  0  0  0  0  0  0
  144.9580   73.1390  220.3170 C   0  0  0  0  0  0  0  0  0  0  0  0
  143.8400   72.4310  220.7050 C   0  0  0  0  0  0  0  0  0  0  0  0
  142.6130   73.0500  220.8600 C   0  0  0  0  0  0  0  0  0  0  0  0
  142.5221   78.5548  221.2843 H   0  0  0  0  0  0  0  0  0  0  0  0
  142.2327   77.3317  220.0010 H   0  0  0  0  0  0  0  0  0  0  0  0
  141.3054   78.8701  220.0010 H   0  0  0  0  0  0  0  0  0  0  0  0
  139.7739   77.2939  220.9053 H   0  0  0  0  0  0  0  0  0  0  0  0
  140.5138   77.9019  223.5618 H   0  0  0  0  0  0  0  0  0  0  0  0
  140.9295   79.3000  222.5134 H   0  0  0  0  0  0  0  0  0  0  0  0
  139.2576   78.6431  222.5134 H   0  0  0  0  0  0  0  0  0  0  0  0
  142.0107   76.0908  222.4039 H   0  0  0  0  0  0  0  0  0  0  0  0
  140.2031   75.7208  222.5251 H   0  0  0  0  0  0  0  0  0  0  0  0
  140.9126   75.6321  219.8802 H   0  0  0  0  0  0  0  0  0  0  0  0
  140.5960   73.0160  221.3000 H   0  0  0  0  0  0  0  0  0  0  0  0
  136.8640   73.4210  221.4365 H   0  0  0  0  0  0  0  0  0  0  0  0
  138.0084   72.2980  220.6263 H   0  0  0  0  0  0  0  0  0  0  0  0
  137.6880   72.7090  223.5510 H   0  0  0  0  0  0  0  0  0  0  0  0
  140.8676   72.8248  224.5965 H   0  0  0  0  0  0  0  0  0  0  0  0
  141.6180   71.9400  226.7863 H   0  0  0  0  0  0  0  0  0  0  0  0
  141.6469   70.1480  228.3300 H   0  0  0  0  0  0  0  0  0  0  0  0
  139.5941   66.4882  227.4348 H   0  0  0  0  0  0  0  0  0  0  0  0
  138.8697   67.4084  225.2686 H   0  0  0  0  0  0  0  0  0  0  0  0
  143.5145   76.1774  220.0518 H   0  0  0  0  0  0  0  0  0  0  0  0
  145.6883   75.0875  219.7749 H   0  0  0  0  0  0  0  0  0  0  0  0
  145.9311   72.6406  220.1956 H   0  0  0  0  0  0  0  0  0  0  0  0
  143.9260   71.3510  220.8953 H   0  0  0  0  0  0  0  0  0  0  0  0
  141.7444   72.4510  221.1711 H   0  0  0  0  0  0  0  0  0  0  0  0
  1  2  1  0
  2  3  1  0
  2  4  1  0
  4  5  1  0
  5  6  1  0
  6  7  1  0
  7  8  2  0
  7  9  1  0
  9 10  1  0
 10 11  1  0
 11 12  2  0
 11 13  1  0
 13 14  2  0
 14 15  1  0
 15 16  2  0
 16 17  1  0
 17 18  2  0
 18 19  1  0
 18 20  1  0
 20 21  2  0
 21 22  1  0
 22 23  2  0
  5 24  1  0
 24 25  2  0
 25 26  1  0
 26 27  2  0
 27 28  1  0
 28 29  2  0
 23 13  1  0
 29 24  1  0
 22 16  1  0
  1 30  1  0
  1 31  1  0
  1 32  1  0
  2 33  1  0
  3 34  1  0
  3 35  1  0
  3 36  1  0
  4 37  1  0
  4 38  1  0
  5 39  1  6
  6 40  1  0
  9 41  1  0
  9 42  1  0
 10 43  1  0
 14 44  1  0
 15 45  1  0
 17 46  1  0
 20 47  1  0
 21 48  1  0
 25 49  1  0
 26 50  1  0
 27 51  1  0
 28 52  1  0
 29 53  1  0
M  END
>  <smiles>  (48) 
CC(C)C[C@H](NC(=O)CNC(=O)c1ccc2cc(F)ccc2n1)c1ccccc1

>  <score_type>  (48) 
oracle

>  <origin>  (48) 
autodockgpu

>  <m_score__min__energy>  (48) 
-9.1300000000000008

>  <m_primary>  (48) 
energy

>  <rmsd>  (48) 
3.440103960881836

>  <m_score__min__rmsd>  (48) 
3.440103960881836

>  <meeko>  (48) 
{"free_energy": -7.59, "intermolecular_energy": -9.68, "internal_energy": -2.14, "cluster_size": 12, "cluster_id": 4, "rank_in_cluster": 12}

>  <energy>  (48) 
-7.52

>  <cluster_rmsd>  (48) 
0.33

>  <cluster>  (48) 
5

$$$$

     RDKit          3D

 53 55  0  0  0  0  0  0  0  0999 V2000
  139.6150   79.7580  223.4490 C   0  0  0  0  0  0  0  0  0  0  0  0
  141.0300   79.3820  223.8390 C   0  0  0  0  0  0  0  0  0  0  0  0
  141.9090   80.5710  223.6690 C   0  0  0  0  0  0  0  0  0  0  0  0
  141.4880   78.1220  223.1920 C   0  0  0  0  0  0  0  0  0  0  0  0
  140.8800   77.8010  221.8770 C   0  0  2  0  0  0  0  0  0  0  0  0
  141.1870   76.3930  221.5580 N   0  0  0  0  0  0  0  0  0  0  0  0
  140.1370   75.5210  221.1520 C   0  0  0  0  0  0  0  0  0  0  0  0
  138.9720   75.9940  221.0810 O   0  0  0  0  0  0  0  0  0  0  0  0
  140.4840   74.1200  220.8410 C   0  0  0  0  0  0  0  0  0  0  0  0
  140.5770   73.3680  222.0590 N   0  0  0  0  0  0  0  0  0  0  0  0
  139.7000   72.2580  222.2290 C   0  0  0  0  0  0  0  0  0  0  0  0
  138.8780   71.9750  221.3100 O   0  0  0  0  0  0  0  0  0  0  0  0
  139.7540   71.4600  223.4500 C   0  0  0  0  0  0  0  0  0  0  0  0
  139.1590   70.2140  223.4660 C   0  0  0  0  0  0  0  0  0  0  0  0
  139.1590   69.3900  224.5720 C   0  0  0  0  0  0  0  0  0  0  0  0
  139.7930   69.8630  225.7040 C   0  0  0  0  0  0  0  0  0  0  0  0
  139.8130   69.0660  226.8300 C   0  0  0  0  0  0  0  0  0  0  0  0
  140.4340   69.4890  227.9880 C   0  0  0  0  0  0  0  0  0  0  0  0
  140.4510   68.7110  229.0830 F   0  0  0  0  0  0  0  0  0  0  0  0
  141.0350   70.7510  227.9670 C   0  0  0  0  0  0  0  0  0  0  0  0
  141.0150   71.5490  226.8410 C   0  0  0  0  0  0  0  0  0  0  0  0
  140.3900   71.1080  225.6930 C   0  0  0  0  0  0  0  0  0  0  0  0
  140.3670   71.8930  224.5770 N   0  0  0  0  0  0  0  0  0  0  0  0
  141.3960   78.5720  220.7290 C   0  0  0  0  0  0  0  0  0  0  0  0
  141.2440   79.9350  220.5910 C   0  0  0  0  0  0  0  0  0  0  0  0
  141.7240   80.6500  219.5150 C   0  0  0  0  0  0  0  0  0  0  0  0
  142.4000   80.0050  218.5000 C   0  0  0  0  0  0  0  0  0  0  0  0
  142.5720   78.6410  218.6050 C   0  0  0  0  0  0  0  0  0  0  0  0
  142.0850   77.9340  219.6900 C   0  0  0  0  0  0  0  0  0  0  0  0
  139.0146   79.9175  224.3568 H   0  0  0  0  0  0  0  0  0  0  0  0
  139.6322   80.6827  222.8536 H   0  0  0  0  0  0  0  0  0  0  0  0
  139.1709   78.9467  222.8536 H   0  0  0  0  0  0  0  0  0  0  0  0
  141.0772   79.1167  224.9055 H   0  0  0  0  0  0  0  0  0  0  0  0
  142.1960   80.9592  224.6574 H   0  0  0  0  0  0  0  0  0  0  0  0
  142.8126   80.2824  223.1120 H   0  0  0  0  0  0  0  0  0  0  0  0
  141.3681   81.3502  223.1120 H   0  0  0  0  0  0  0  0  0  0  0  0
  142.5763   78.1945  223.0496 H   0  0  0  0  0  0  0  0  0  0  0  0
  141.1719   77.3132  223.8672 H   0  0  0  0  0  0  0  0  0  0  0  0
  139.8126   78.0386  221.9959 H   0  0  0  0  0  0  0  0  0  0  0  0
  142.1690   76.0640  221.6370 H   0  0  0  0  0  0  0  0  0  0  0  0
  139.7047   73.6832  220.1992 H   0  0  0  0  0  0  0  0  0  0  0  0
  141.4507   74.0897  220.3170 H   0  0  0  0  0  0  0  0  0  0  0  0
  141.2740   73.6230  222.8170 H   0  0  0  0  0  0  0  0  0  0  0  0
  138.6603   69.8611  222.5513 H   0  0  0  0  0  0  0  0  0  0  0  0
  138.6763   68.4017  224.5533 H   0  0  0  0  0  0  0  0  0  0  0  0
  139.3272   68.0794  226.8046 H   0  0  0  0  0  0  0  0  0  0  0  0
  141.5381   71.1185  228.8736 H   0  0  0  0  0  0  0  0  0  0  0  0
  141.4977   72.5373  226.8591 H   0  0  0  0  0  0  0  0  0  0  0  0
  140.7107   80.4817  221.3826 H   0  0  0  0  0  0  0  0  0  0  0  0
  141.5677   81.7377  219.4654 H   0  0  0  0  0  0  0  0  0  0  0  0
  142.7894   80.5612  217.6345 H   0  0  0  0  0  0  0  0  0  0  0  0
  143.1080   78.1033  217.8090 H   0  0  0  0  0  0  0  0  0  0  0  0
  142.2425   76.8464  219.7376 H   0  0  0  0  0  0  0  0  0  0  0  0
  1  2  1  0
  2  3  1  0
  2  4  1  0
  4  5  1  0
  5  6  1  0
  6  7  1  0
  7  8  2  0
  7  9  1  0
  9 10  1  0
 10 11  1  0
 11 12  2  0
 11 13  1  0
 13 14  2  0
 14 15  1  0
 15 16  2  0
 16 17  1  0
 17 18  2  0
 18 19  1  0
 18 20  1  0
 20 21  2  0
 21 22  1  0
 22 23  2  0
  5 24  1  0
 24 25  2  0
 25 26  1  0
 26 27  2  0
 27 28  1  0
 28 29  2  0
 23 13  1  0
 29 24  1  0
 22 16  1  0
  1 30  1  0
  1 31  1  0
  1 32  1  0
  2 33  1  0
  3 34  1  0
  3 35  1  0
  3 36  1  0
  4 37  1  0
  4 38  1  0
  5 39  1  1
  6 40  1  0
  9 41  1  0
  9 42  1  0
 10 43  1  0
 14 44  1  0
 15 45  1  0
 17 46  1  0
 20 47  1  0
 21 48  1  0
 25 49  1  0
 26 50  1  0
 27 51  1  0
 28 52  1  0
 29 53  1  0
M  END
>  <smiles>  (49) 
CC(C)C[C@H](NC(=O)CNC(=O)c1ccc2cc(F)ccc2n1)c1ccccc1

>  <score_type>  (49) 
oracle

>  <origin>  (49) 
autodockgpu

>  <m_score__min__energy>  (49) 
-9.1300000000000008

>  <m_primary>  (49) 
energy

>  <rmsd>  (49) 
3.760847692724026

>  <m_score__min__rmsd>  (49) 
3.760847692724026

>  <meeko>  (49) 
{"free_energy": -8.22, "intermolecular_energy": -10.31, "internal_energy": -1.5, "cluster_size": 16, "cluster_id": 1, "rank_in_cluster": 14}

>  <energy>  (49) 
-7.44

>  <cluster_rmsd>  (49) 
0.34

>  <cluster>  (49) 
5

$$$$

     RDKit          3D

 53 55  0  0  0  0  0  0  0  0999 V2000
  141.5660   77.8340  220.5180 C   0  0  0  0  0  0  0  0  0  0  0  0
  140.8310   77.7780  221.8410 C   0  0  0  0  0  0  0  0  0  0  0  0
  141.4230   78.7850  222.7650 C   0  0  0  0  0  0  0  0  0  0  0  0
  140.7020   76.3920  222.3690 C   0  0  0  0  0  0  0  0  0  0  0  0
  140.3840   75.3380  221.3730 C   0  0  2  0  0  0  0  0  0  0  0  0
  139.2610   74.5360  221.8940 N   0  0  0  0  0  0  0  0  0  0  0  0
  138.2740   74.0440  220.9920 C   0  0  0  0  0  0  0  0  0  0  0  0
  138.4020   74.3180  219.7710 O   0  0  0  0  0  0  0  0  0  0  0  0
  137.1640   73.2450  221.5510 C   0  0  0  0  0  0  0  0  0  0  0  0
  137.6190   72.5440  222.7170 N   0  0  0  0  0  0  0  0  0  0  0  0
  138.4480   71.4010  222.5280 C   0  0  0  0  0  0  0  0  0  0  0  0
  138.7530   71.0460  221.3530 O   0  0  0  0  0  0  0  0  0  0  0  0
  138.9370   70.6510  223.6820 C   0  0  0  0  0  0  0  0  0  0  0  0
  138.7710   69.2810  223.7120 C   0  0  0  0  0  0  0  0  0  0  0  0
  139.2010   68.4900  224.7570 C   0  0  0  0  0  0  0  0  0  0  0  0
  139.8240   69.1300  225.8110 C   0  0  0  0  0  0  0  0  0  0  0  0
  140.2660   68.3710  226.8740 C   0  0  0  0  0  0  0  0  0  0  0  0
  140.8960   68.9590  227.9520 C   0  0  0  0  0  0  0  0  0  0  0  0
  141.3260   68.2180  228.9870 F   0  0  0  0  0  0  0  0  0  0  0  0
  141.0620   70.3470  227.9160 C   0  0  0  0  0  0  0  0  0  0  0  0
  140.6190   71.1070  226.8530 C   0  0  0  0  0  0  0  0  0  0  0  0
  139.9930   70.5000  225.7850 C   0  0  0  0  0  0  0  0  0  0  0  0
  139.5530   71.2460  224.7300 N   0  0  0  0  0  0  0  0  0  0  0  0
  141.4600   74.3610  221.1130 C   0  0  0  0  0  0  0  0  0  0  0  0
  142.6960   74.6990  220.6060 C   0  0  0  0  0  0  0  0  0  0  0  0
  143.6960   73.7830  220.3600 C   0  0  0  0  0  0  0  0  0  0  0  0
  143.4880   72.4450  220.6220 C   0  0  0  0  0  0  0  0  0  0  0  0
  142.2630   72.0690  221.1310 C   0  0  0  0  0  0  0  0  0  0  0  0
  141.2680   72.9990  221.3730 C   0  0  0  0  0  0  0  0  0  0  0  0
  142.6473   77.9164  220.7025 H   0  0  0  0  0  0  0  0  0  0  0  0
  141.3605   76.9176  219.9453 H   0  0  0  0  0  0  0  0  0  0  0  0
  141.2240   78.7087  219.9453 H   0  0  0  0  0  0  0  0  0  0  0  0
  139.7779   78.0662  221.7068 H   0  0  0  0  0  0  0  0  0  0  0  0
  141.2427   78.4783  223.8059 H   0  0  0  0  0  0  0  0  0  0  0  0
  142.5060   78.8551  222.5858 H   0  0  0  0  0  0  0  0  0  0  0  0
  140.9575   79.7654  222.5858 H   0  0  0  0  0  0  0  0  0  0  0  0
  141.6559   76.1249  222.8473 H   0  0  0  0  0  0  0  0  0  0  0  0
  139.8427   76.4173  223.0553 H   0  0  0  0  0  0  0  0  0  0  0  0
  140.1840   75.8837  220.4391 H   0  0  0  0  0  0  0  0  0  0  0  0
  139.2110   74.3450  222.9140 H   0  0  0  0  0  0  0  0  0  0  0  0
  136.3337   73.9124  221.8252 H   0  0  0  0  0  0  0  0  0  0  0  0
  136.8190   72.5202  220.7989 H   0  0  0  0  0  0  0  0  0  0  0  0
  137.3510   72.8590  223.6940 H   0  0  0  0  0  0  0  0  0  0  0  0
  138.2711   68.7961  222.8605 H   0  0  0  0  0  0  0  0  0  0  0  0
  139.0546   67.3998  224.7514 H   0  0  0  0  0  0  0  0  0  0  0  0
  140.1144   67.2816  226.8626 H   0  0  0  0  0  0  0  0  0  0  0  0
  141.5601   70.8474  228.7595 H   0  0  0  0  0  0  0  0  0  0  0  0
  140.7653   72.1972  226.8576 H   0  0  0  0  0  0  0  0  0  0  0  0
  142.8955   75.7581  220.3855 H   0  0  0  0  0  0  0  0  0  0  0  0
  144.6614   74.1196  219.9541 H   0  0  0  0  0  0  0  0  0  0  0  0
  144.2751   71.7008  220.4308 H   0  0  0  0  0  0  0  0  0  0  0  0
  142.0730   71.0077  221.3491 H   0  0  0  0  0  0  0  0  0  0  0  0
  140.3035   72.6604  221.7792 H   0  0  0  0  0  0  0  0  0  0  0  0
  1  2  1  0
  2  3  1  0
  2  4  1  0
  4  5  1  0
  5  6  1  0
  6  7  1  0
  7  8  2  0
  7  9  1  0
  9 10  1  0
 10 11  1  0
 11 12  2  0
 11 13  1  0
 13 14  2  0
 14 15  1  0
 15 16  2  0
 16 17  1  0
 17 18  2  0
 18 19  1  0
 18 20  1  0
 20 21  2  0
 21 22  1  0
 22 23  2  0
  5 24  1  0
 24 25  2  0
 25 26  1  0
 26 27  2  0
 27 28  1  0
 28 29  2  0
 23 13  1  0
 29 24  1  0
 22 16  1  0
  1 30  1  0
  1 31  1  0
  1 32  1  0
  2 33  1  0
  3 34  1  0
  3 35  1  0
  3 36  1  0
  4 37  1  0
  4 38  1  0
  5 39  1  6
  6 40  1  0
  9 41  1  0
  9 42  1  0
 10 43  1  0
 14 44  1  0
 15 45  1  0
 17 46  1  0
 20 47  1  0
 21 48  1  0
 25 49  1  0
 26 50  1  0
 27 51  1  0
 28 52  1  0
 29 53  1  0
M  END
>  <smiles>  (50) 
CC(C)C[C@H](NC(=O)CNC(=O)c1ccc2cc(F)ccc2n1)c1ccccc1

>  <score_type>  (50) 
oracle

>  <origin>  (50) 
autodockgpu

>  <m_score__min__energy>  (50) 
-9.1300000000000008

>  <m_primary>  (50) 
energy

>  <rmsd>  (50) 
2.738715046165504

>  <m_score__min__rmsd>  (50) 
2.738715046165504

>  <meeko>  (50) 
{"free_energy": -7.82, "intermolecular_energy": -9.91, "internal_energy": -1.98, "cluster_size": 12, "cluster_id": 4, "rank_in_cluster": 7}

>  <energy>  (50) 
-7.55

>  <cluster_rmsd>  (50) 
0.0

>  <cluster>  (50) 
6

$$$$
