
     RDKit          3D

 66 70  0  0  0  0  0  0  0  0999 V2000
  137.5890   69.1790  224.6480 O   0  0  0  0  0  0  0  0  0  0  0  0
  138.5840   69.9390  224.4760 C   0  0  0  0  0  0  0  0  0  0  0  0
  139.3810   70.1550  225.5730 C   0  0  0  0  0  0  0  0  0  0  0  0
  139.1280   69.5880  226.7990 C   0  0  0  0  0  0  0  0  0  0  0  0
  139.9870   69.8590  227.8570 C   0  0  0  0  0  0  0  0  0  0  0  0
  141.0670   70.6930  227.6460 C   0  0  0  0  0  0  0  0  0  0  0  0
  141.3330   71.2700  226.4220 C   0  0  0  0  0  0  0  0  0  0  0  0
  140.4630   70.9790  225.3950 C   0  0  0  0  0  0  0  0  0  0  0  0
  140.6730   71.5060  224.2080 N   0  0  0  0  0  0  0  0  0  0  0  0
  139.8950   71.3070  223.0990 C   0  0  0  0  0  0  0  0  0  0  0  0
  140.2900   72.0410  221.9310 C   0  0  0  0  0  0  0  0  0  0  0  0
  139.7100   72.9770  221.2630 C   0  0  0  0  0  0  0  0  0  0  0  0
  139.6710   74.4000  221.6550 C   0  0  0  0  0  0  0  0  0  0  0  0
  138.4700   74.9980  222.0070 C   0  0  0  0  0  0  0  0  0  0  0  0
  138.3660   76.3180  222.3840 C   0  0  0  0  0  0  0  0  0  0  0  0
  139.5010   77.0990  222.4190 C   0  0  0  0  0  0  0  0  0  0  0  0
  139.4530   78.5380  222.8270 C   0  0  0  0  0  0  0  0  0  0  0  0
  140.6240   79.2600  222.7040 N   0  0  0  0  0  0  0  0  0  0  0  0
  140.9900   79.9250  221.5310 C   0  0  0  0  0  0  0  0  0  0  0  0
  141.8350   81.0830  222.0950 C   0  0  0  0  0  0  0  0  0  0  0  0
  142.4720   80.4860  223.3480 C   0  0  2  0  0  0  0  0  0  0  0  0
  143.8110   80.1910  223.1010 O   0  0  0  0  0  0  0  0  0  0  0  0
  141.6430   79.2540  223.6540 C   0  0  0  0  0  0  0  0  0  0  0  0
  140.7150   76.5410  222.0760 C   0  0  0  0  0  0  0  0  0  0  0  0
  140.7870   75.1950  221.6970 C   0  0  0  0  0  0  0  0  0  0  0  0
  138.8380   70.5090  223.2520 N   0  0  0  0  0  0  0  0  0  0  0  0
  137.9110   70.1420  222.2130 C   0  0  0  0  0  0  0  0  0  0  0  0
  138.1910   68.8640  221.5060 C   0  0  0  0  0  0  0  0  0  0  0  0
  139.6760   68.6490  221.2130 C   0  0  0  0  0  0  0  0  0  0  0  0
  139.8370   67.3020  220.5440 C   0  0  0  0  0  0  0  0  0  0  0  0
  139.6120   66.2110  221.5320 C   0  0  0  0  0  0  0  0  0  0  0  0
  138.7730   66.7330  222.6740 C   0  0  0  0  0  0  0  0  0  0  0  0
  137.6530   67.6540  222.1640 C   0  0  0  0  0  0  0  0  0  0  0  0
  138.2584   68.9294  226.9406 H   0  0  0  0  0  0  0  0  0  0  0  0
  139.8093   69.4157  228.8479 H   0  0  0  0  0  0  0  0  0  0  0  0
  141.7423   70.9057  228.4879 H   0  0  0  0  0  0  0  0  0  0  0  0
  142.1992   71.9314  226.2731 H   0  0  0  0  0  0  0  0  0  0  0  0
  141.2724   71.7496  221.5312 H   0  0  0  0  0  0  0  0  0  0  0  0
  139.2045   72.6944  220.3278 H   0  0  0  0  0  0  0  0  0  0  0  0
  137.5554   74.3873  221.9838 H   0  0  0  0  0  0  0  0  0  0  0  0
  137.3886   76.7443  222.6541 H   0  0  0  0  0  0  0  0  0  0  0  0
  138.6900   79.0338  222.2089 H   0  0  0  0  0  0  0  0  0  0  0  0
  139.2356   78.5242  223.9052 H   0  0  0  0  0  0  0  0  0  0  0  0
  141.5840   79.2776  220.8691 H   0  0  0  0  0  0  0  0  0  0  0  0
  140.1406   80.2464  220.9104 H   0  0  0  0  0  0  0  0  0  0  0  0
  142.6047   81.3950  221.3738 H   0  0  0  0  0  0  0  0  0  0  0  0
  141.2393   81.9834  222.3060 H   0  0  0  0  0  0  0  0  0  0  0  0
  142.4750   81.1709  224.2087 H   0  0  0  0  0  0  0  0  0  0  0  0
  143.8040   79.5340  222.3380 H   0  0  0  0  0  0  0  0  0  0  0  0
  142.2537   78.3439  223.5601 H   0  0  0  0  0  0  0  0  0  0  0  0
  141.2501   79.2650  224.6814 H   0  0  0  0  0  0  0  0  0  0  0  0
  141.6278   77.1543  222.1003 H   0  0  0  0  0  0  0  0  0  0  0  0
  141.7627   74.7651  221.4264 H   0  0  0  0  0  0  0  0  0  0  0  0
  136.9121   70.0629  222.6668 H   0  0  0  0  0  0  0  0  0  0  0  0
  137.9993   70.9276  221.4481 H   0  0  0  0  0  0  0  0  0  0  0  0
  137.6463   68.9933  220.5591 H   0  0  0  0  0  0  0  0  0  0  0  0
  140.0421   69.4424  220.5449 H   0  0  0  0  0  0  0  0  0  0  0  0
  140.2554   68.6801  222.1475 H   0  0  0  0  0  0  0  0  0  0  0  0
  139.1049   67.2109  219.7281 H   0  0  0  0  0  0  0  0  0  0  0  0
  140.8574   67.2191  220.1416 H   0  0  0  0  0  0  0  0  0  0  0  0
  139.0882   65.3760  221.0436 H   0  0  0  0  0  0  0  0  0  0  0  0
  140.5803   65.8599  221.9182 H   0  0  0  0  0  0  0  0  0  0  0  0
  138.3234   65.8824  223.2072 H   0  0  0  0  0  0  0  0  0  0  0  0
  139.4219   67.3128  223.3469 H   0  0  0  0  0  0  0  0  0  0  0  0
  137.0382   67.0991  221.4401 H   0  0  0  0  0  0  0  0  0  0  0  0
  137.0543   67.9742  223.0295 H   0  0  0  0  0  0  0  0  0  0  0  0
  1  2  2  0
  2  3  1  0
  3  4  2  0
  4  5  1  0
  5  6  2  0
  6  7  1  0
  7  8  2  0
  8  9  1  0
  9 10  2  0
 10 11  1  0
 11 12  2  0
 12 13  1  0
 13 14  2  0
 14 15  1  0
 15 16  2  0
 16 17  1  0
 17 18  1  0
 18 19  1  0
 19 20  1  0
 20 21  1  0
 21 22  1  0
 21 23  1  0
 16 24  1  0
 24 25  2  0
 10 26  1  0
 26 27  1  0
 27 28  1  0
 28 29  1  0
 29 30  1  0
 30 31  1  0
 31 32  1  0
 32 33  1  0
 26  2  1  0
 33 28  1  0
  8  3  1  0
 25 13  1  0
 23 18  1  0
  4 34  1  0
  5 35  1  0
  6 36  1  0
  7 37  1  0
 11 38  1  0
 12 39  1  0
 14 40  1  0
 15 41  1  0
 17 42  1  0
 17 43  1  0
 19 44  1  0
 19 45  1  0
 20 46  1  0
 20 47  1  0
 21 48  1  1
 22 49  1  0
 23 50  1  0
 23 51  1  0
 24 52  1  0
 25 53  1  0
 27 54  1  0
 27 55  1  0
 28 56  1  0
 29 57  1  0
 29 58  1  0
 30 59  1  0
 30 60  1  0
 31 61  1  0
 31 62  1  0
 32 63  1  0
 32 64  1  0
 33 65  1  0
 33 66  1  0
M  END
>  <smiles>  (1) 
O=c1c2ccccc2nc(/C=C/c2ccc(CN3CCC(O)C3)cc2)n1CC1CCCCC1

>  <score_type>  (1) 
oracle

>  <origin>  (1) 
autodockgpu

>  <m_score__min__energy>  (1) 
-9.2699999999999996

>  <m_primary>  (1) 
energy

>  <rmsd>  (1) 
11.036422327010296

>  <m_score__min__rmsd>  (1) 
11.036422327010296

>  <meeko>  (1) 
{"free_energy": -8.57, "intermolecular_energy": -10.96, "internal_energy": -1.83, "cluster_size": 33, "cluster_id": 1, "rank_in_cluster": 27}

>  <energy>  (1) 
-9.27

>  <cluster_rmsd>  (1) 
0.0

>  <cluster>  (1) 
1

$$$$

     RDKit          3D

 66 70  0  0  0  0  0  0  0  0999 V2000
  138.7320   68.6080  224.8730 O   0  0  0  0  0  0  0  0  0  0  0  0
  139.4120   69.6710  224.7970 C   0  0  0  0  0  0  0  0  0  0  0  0
  139.8620   70.1920  225.9850 C   0  0  0  0  0  0  0  0  0  0  0  0
  139.5990   69.6070  227.2010 C   0  0  0  0  0  0  0  0  0  0  0  0
  140.0930   70.2000  228.3550 C   0  0  0  0  0  0  0  0  0  0  0  0
  140.8310   71.3620  228.2470 C   0  0  0  0  0  0  0  0  0  0  0  0
  141.1030   71.9620  227.0340 C   0  0  0  0  0  0  0  0  0  0  0  0
  140.5990   71.3460  225.9100 C   0  0  0  0  0  0  0  0  0  0  0  0
  140.8290   71.8790  224.7290 N   0  0  0  0  0  0  0  0  0  0  0  0
  140.3930   71.3810  223.5320 C   0  0  0  0  0  0  0  0  0  0  0  0
  140.7170   72.1730  222.3810 C   0  0  0  0  0  0  0  0  0  0  0  0
  139.9860   72.8560  221.5700 C   0  0  0  0  0  0  0  0  0  0  0  0
  139.8750   74.3280  221.5620 C   0  0  0  0  0  0  0  0  0  0  0  0
  138.9130   74.9630  222.3350 C   0  0  0  0  0  0  0  0  0  0  0  0
  138.7590   76.3300  222.3750 C   0  0  0  0  0  0  0  0  0  0  0  0
  139.5910   77.1240  221.6150 C   0  0  0  0  0  0  0  0  0  0  0  0
  139.4750   78.6150  221.6210 C   0  0  0  0  0  0  0  0  0  0  0  0
  140.6200   79.3280  221.9240 N   0  0  0  0  0  0  0  0  0  0  0  0
  141.1130   80.3570  221.1170 C   0  0  0  0  0  0  0  0  0  0  0  0
  141.8200   81.2420  222.1610 C   0  0  0  0  0  0  0  0  0  0  0  0
  142.3050   80.2430  223.2090 C   0  0  2  0  0  0  0  0  0  0  0  0
  143.6780   80.0440  223.0710 O   0  0  0  0  0  0  0  0  0  0  0  0
  141.4980   78.9860  222.9500 C   0  0  0  0  0  0  0  0  0  0  0  0
  140.5590   76.5300  220.8320 C   0  0  0  0  0  0  0  0  0  0  0  0
  140.6910   75.1360  220.8140 C   0  0  0  0  0  0  0  0  0  0  0  0
  139.6740   70.2580  223.5830 N   0  0  0  0  0  0  0  0  0  0  0  0
  139.1470   69.5520  222.4450 C   0  0  0  0  0  0  0  0  0  0  0  0
  137.6910   69.7140  222.1900 C   0  0  0  0  0  0  0  0  0  0  0  0
  136.8600   68.5170  222.6530 C   0  0  0  0  0  0  0  0  0  0  0  0
  135.4020   68.8210  222.3880 C   0  0  0  0  0  0  0  0  0  0  0  0
  134.9160   69.8530  223.3450 C   0  0  0  0  0  0  0  0  0  0  0  0
  136.0880   70.6530  223.8610 C   0  0  0  0  0  0  0  0  0  0  0  0
  137.0940   70.9510  222.7370 C   0  0  0  0  0  0  0  0  0  0  0  0
  139.0058   68.6825  227.2588 H   0  0  0  0  0  0  0  0  0  0  0  0
  139.8994   69.7510  229.3404 H   0  0  0  0  0  0  0  0  0  0  0  0
  141.2179   71.8286  229.1649 H   0  0  0  0  0  0  0  0  0  0  0  0
  141.6938   72.8875  226.9682 H   0  0  0  0  0  0  0  0  0  0  0  0
  141.7914   72.2026  222.1470 H   0  0  0  0  0  0  0  0  0  0  0  0
  139.3985   72.2991  220.8252 H   0  0  0  0  0  0  0  0  0  0  0  0
  138.2404   74.3430  222.9459 H   0  0  0  0  0  0  0  0  0  0  0  0
  137.9808   76.7839  223.0062 H   0  0  0  0  0  0  0  0  0  0  0  0
  139.1439   78.9271  220.6195 H   0  0  0  0  0  0  0  0  0  0  0  0
  138.7691   78.8456  222.4325 H   0  0  0  0  0  0  0  0  0  0  0  0
  141.8204   79.9764  220.3655 H   0  0  0  0  0  0  0  0  0  0  0  0
  140.3432   80.8787  220.5294 H   0  0  0  0  0  0  0  0  0  0  0  0
  142.6666   81.7807  221.7105 H   0  0  0  0  0  0  0  0  0  0  0  0
  141.1615   82.0165  222.5812 H   0  0  0  0  0  0  0  0  0  0  0  0
  142.1590   80.5867  224.2437 H   0  0  0  0  0  0  0  0  0  0  0  0
  143.7820   79.4450  222.2680 H   0  0  0  0  0  0  0  0  0  0  0  0
  142.1557   78.1615  222.6376 H   0  0  0  0  0  0  0  0  0  0  0  0
  140.9682   78.6415  223.8504 H   0  0  0  0  0  0  0  0  0  0  0  0
  141.2286   77.1527  220.2205 H   0  0  0  0  0  0  0  0  0  0  0  0
  141.4683   74.6785  220.1843 H   0  0  0  0  0  0  0  0  0  0  0  0
  139.6854   69.9038  221.5527 H   0  0  0  0  0  0  0  0  0  0  0  0
  139.2904   68.4844  222.6679 H   0  0  0  0  0  0  0  0  0  0  0  0
  137.6496   69.7856  221.0931 H   0  0  0  0  0  0  0  0  0  0  0  0
  137.1600   67.6177  222.0951 H   0  0  0  0  0  0  0  0  0  0  0  0
  137.0208   68.3359  223.7260 H   0  0  0  0  0  0  0  0  0  0  0  0
  135.2887   69.1952  221.3598 H   0  0  0  0  0  0  0  0  0  0  0  0
  134.8118   67.9018  222.5170 H   0  0  0  0  0  0  0  0  0  0  0  0
  134.2107   70.5243  222.8333 H   0  0  0  0  0  0  0  0  0  0  0  0
  134.4084   69.3612  224.1879 H   0  0  0  0  0  0  0  0  0  0  0  0
  135.7197   71.6034  224.2746 H   0  0  0  0  0  0  0  0  0  0  0  0
  136.5973   70.0642  224.6381 H   0  0  0  0  0  0  0  0  0  0  0  0
  136.5747   71.4838  221.9268 H   0  0  0  0  0  0  0  0  0  0  0  0
  137.9046   71.5637  223.1583 H   0  0  0  0  0  0  0  0  0  0  0  0
  1  2  2  0
  2  3  1  0
  3  4  2  0
  4  5  1  0
  5  6  2  0
  6  7  1  0
  7  8  2  0
  8  9  1  0
  9 10  2  0
 10 11  1  0
 11 12  2  0
 12 13  1  0
 13 14  2  0
 14 15  1  0
 15 16  2  0
 16 17  1  0
 17 18  1  0
 18 19  1  0
 19 20  1  0
 20 21  1  0
 21 22  1  0
 21 23  1  0
 16 24  1  0
 24 25  2  0
 10 26  1  0
 26 27  1  0
 27 28  1  0
 28 29  1  0
 29 30  1  0
 30 31  1  0
 31 32  1  0
 32 33  1  0
 26  2  1  0
 33 28  1  0
  8  3  1  0
 25 13  1  0
 23 18  1  0
  4 34  1  0
  5 35  1  0
  6 36  1  0
  7 37  1  0
 11 38  1  0
 12 39  1  0
 14 40  1  0
 15 41  1  0
 17 42  1  0
 17 43  1  0
 19 44  1  0
 19 45  1  0
 20 46  1  0
 20 47  1  0
 21 48  1  1
 22 49  1  0
 23 50  1  0
 23 51  1  0
 24 52  1  0
 25 53  1  0
 27 54  1  0
 27 55  1  0
 28 56  1  0
 29 57  1  0
 29 58  1  0
 30 59  1  0
 30 60  1  0
 31 61  1  0
 31 62  1  0
 32 63  1  0
 32 64  1  0
 33 65  1  0
 33 66  1  0
M  END
>  <smiles>  (2) 
O=c1c2ccccc2nc(/C=C/c2ccc(CN3CCC(O)C3)cc2)n1CC1CCCCC1

>  <score_type>  (2) 
oracle

>  <origin>  (2) 
autodockgpu

>  <m_score__min__energy>  (2) 
-9.2699999999999996

>  <m_primary>  (2) 
energy

>  <rmsd>  (2) 
11.122616178554944

>  <m_score__min__rmsd>  (2) 
11.122616178554944

>  <meeko>  (2) 
{"free_energy": -8.54, "intermolecular_energy": -10.93, "internal_energy": -1.94, "cluster_size": 33, "cluster_id": 1, "rank_in_cluster": 28}

>  <energy>  (2) 
-9.21

>  <cluster_rmsd>  (2) 
0.61

>  <cluster>  (2) 
1

$$$$

     RDKit          3D

 66 70  0  0  0  0  0  0  0  0999 V2000
  138.9390   68.1340  225.0820 O   0  0  0  0  0  0  0  0  0  0  0  0
  139.4460   69.2750  224.8850 C   0  0  0  0  0  0  0  0  0  0  0  0
  139.9750   69.9040  225.9860 C   0  0  0  0  0  0  0  0  0  0  0  0
  139.9650   69.3410  227.2400 C   0  0  0  0  0  0  0  0  0  0  0  0
  140.5220   70.0460  228.2990 C   0  0  0  0  0  0  0  0  0  0  0  0
  141.0690   71.2910  228.0600 C   0  0  0  0  0  0  0  0  0  0  0  0
  141.0860   71.8690  226.8080 C   0  0  0  0  0  0  0  0  0  0  0  0
  140.5260   71.1430  225.7810 C   0  0  0  0  0  0  0  0  0  0  0  0
  140.5170   71.6500  224.5670 N   0  0  0  0  0  0  0  0  0  0  0  0
  139.9970   71.0460  223.4550 C   0  0  0  0  0  0  0  0  0  0  0  0
  140.0470   71.8250  222.2510 C   0  0  0  0  0  0  0  0  0  0  0  0
  141.0110   72.4430  221.6630 C   0  0  0  0  0  0  0  0  0  0  0  0
  141.0590   73.8970  221.4120 C   0  0  0  0  0  0  0  0  0  0  0  0
  140.0900   74.7340  221.9480 C   0  0  0  0  0  0  0  0  0  0  0  0
  140.0800   76.0960  221.7550 C   0  0  0  0  0  0  0  0  0  0  0  0
  141.0710   76.6770  220.9940 C   0  0  0  0  0  0  0  0  0  0  0  0
  141.1160   78.1530  220.7540 C   0  0  0  0  0  0  0  0  0  0  0  0
  141.4020   78.9540  221.8430 N   0  0  0  0  0  0  0  0  0  0  0  0
  140.7590   78.8200  223.0760 C   0  0  0  0  0  0  0  0  0  0  0  0
  141.8550   79.3130  224.0390 C   0  0  0  0  0  0  0  0  0  0  0  0
  142.6080   80.3600  223.2200 C   0  0  2  0  0  0  0  0  0  0  0  0
  142.2520   81.6380  223.6470 O   0  0  0  0  0  0  0  0  0  0  0  0
  142.2120   80.0860  221.7820 C   0  0  0  0  0  0  0  0  0  0  0  0
  142.0520   75.8790  220.4440 C   0  0  0  0  0  0  0  0  0  0  0  0
  142.0360   74.4950  220.6590 C   0  0  0  0  0  0  0  0  0  0  0  0
  139.4560   69.8400  223.6330 N   0  0  0  0  0  0  0  0  0  0  0  0
  138.8840   69.0200  222.5980 C   0  0  0  0  0  0  0  0  0  0  0  0
  137.4240   69.1800  222.3670 C   0  0  0  0  0  0  0  0  0  0  0  0
  136.6690   67.8510  222.3270 C   0  0  0  0  0  0  0  0  0  0  0  0
  135.1980   68.1470  222.1390 C   0  0  0  0  0  0  0  0  0  0  0  0
  134.6310   68.7240  223.3890 C   0  0  0  0  0  0  0  0  0  0  0  0
  135.7390   69.3430  224.2050 C   0  0  0  0  0  0  0  0  0  0  0  0
  136.7380   70.0920  223.3070 C   0  0  0  0  0  0  0  0  0  0  0  0
  139.5225   68.3471  227.4023 H   0  0  0  0  0  0  0  0  0  0  0  0
  140.5273   69.6190  229.3127 H   0  0  0  0  0  0  0  0  0  0  0  0
  141.5092   71.8444  228.9026 H   0  0  0  0  0  0  0  0  0  0  0  0
  141.5260   72.8627  226.6380 H   0  0  0  0  0  0  0  0  0  0  0  0
  139.0801   71.9100  221.7334 H   0  0  0  0  0  0  0  0  0  0  0  0
  141.8656   71.8408  221.3209 H   0  0  0  0  0  0  0  0  0  0  0  0
  139.2909   74.2862  222.5570 H   0  0  0  0  0  0  0  0  0  0  0  0
  139.2890   76.7150  222.2036 H   0  0  0  0  0  0  0  0  0  0  0  0
  141.8851   78.3425  219.9907 H   0  0  0  0  0  0  0  0  0  0  0  0
  140.0930   78.4270  220.4566 H   0  0  0  0  0  0  0  0  0  0  0  0
  139.8593   79.4504  223.1323 H   0  0  0  0  0  0  0  0  0  0  0  0
  140.3952   77.8037  223.2878 H   0  0  0  0  0  0  0  0  0  0  0  0
  141.4128   79.7628  224.9402 H   0  0  0  0  0  0  0  0  0  0  0  0
  142.5056   78.5017  224.3976 H   0  0  0  0  0  0  0  0  0  0  0  0
  143.7006   80.3048  223.3345 H   0  0  0  0  0  0  0  0  0  0  0  0
  141.3570   81.8210  223.2230 H   0  0  0  0  0  0  0  0  0  0  0  0
  141.6555   80.9381  221.3647 H   0  0  0  0  0  0  0  0  0  0  0  0
  143.0872   79.9346  221.1330 H   0  0  0  0  0  0  0  0  0  0  0  0
  142.8490   76.3304  219.8350 H   0  0  0  0  0  0  0  0  0  0  0  0
  142.8262   73.8732  220.2130 H   0  0  0  0  0  0  0  0  0  0  0  0
  139.4010   69.2581  221.6567 H   0  0  0  0  0  0  0  0  0  0  0  0
  139.0169   67.9820  222.9369 H   0  0  0  0  0  0  0  0  0  0  0  0
  137.3925   69.6482  221.3721 H   0  0  0  0  0  0  0  0  0  0  0  0
  137.0356   67.2398  221.4891 H   0  0  0  0  0  0  0  0  0  0  0  0
  136.8277   67.2962  223.2635 H   0  0  0  0  0  0  0  0  0  0  0  0
  135.0734   68.8666  221.3164 H   0  0  0  0  0  0  0  0  0  0  0  0
  134.6692   67.2124  221.9004 H   0  0  0  0  0  0  0  0  0  0  0  0
  133.8892   69.4950  223.1334 H   0  0  0  0  0  0  0  0  0  0  0  0
  134.1461   67.9280  223.9732 H   0  0  0  0  0  0  0  0  0  0  0  0
  135.3023   70.0511  224.9246 H   0  0  0  0  0  0  0  0  0  0  0  0
  136.2764   68.5394  224.7298 H   0  0  0  0  0  0  0  0  0  0  0  0
  136.1951   70.8551  222.7301 H   0  0  0  0  0  0  0  0  0  0  0  0
  137.4998   70.5520  223.9536 H   0  0  0  0  0  0  0  0  0  0  0  0
  1  2  2  0
  2  3  1  0
  3  4  2  0
  4  5  1  0
  5  6  2  0
  6  7  1  0
  7  8  2  0
  8  9  1  0
  9 10  2  0
 10 11  1  0
 11 12  2  0
 12 13  1  0
 13 14  2  0
 14 15  1  0
 15 16  2  0
 16 17  1  0
 17 18  1  0
 18 19  1  0
 19 20  1  0
 20 21  1  0
 21 22  1  0
 21 23  1  0
 16 24  1  0
 24 25  2  0
 10 26  1  0
 26 27  1  0
 27 28  1  0
 28 29  1  0
 29 30  1  0
 30 31  1  0
 31 32  1  0
 32 33  1  0
 26  2  1  0
 33 28  1  0
  8  3  1  0
 25 13  1  0
 23 18  1  0
  4 34  1  0
  5 35  1  0
  6 36  1  0
  7 37  1  0
 11 38  1  0
 12 39  1  0
 14 40  1  0
 15 41  1  0
 17 42  1  0
 17 43  1  0
 19 44  1  0
 19 45  1  0
 20 46  1  0
 20 47  1  0
 21 48  1  6
 22 49  1  0
 23 50  1  0
 23 51  1  0
 24 52  1  0
 25 53  1  0
 27 54  1  0
 27 55  1  0
 28 56  1  0
 29 57  1  0
 29 58  1  0
 30 59  1  0
 30 60  1  0
 31 61  1  0
 31 62  1  0
 32 63  1  0
 32 64  1  0
 33 65  1  0
 33 66  1  0
M  END
>  <smiles>  (3) 
O=c1c2ccccc2nc(/C=C/c2ccc(CN3CCC(O)C3)cc2)n1CC1CCCCC1

>  <score_type>  (3) 
oracle

>  <origin>  (3) 
autodockgpu

>  <m_score__min__energy>  (3) 
-9.2699999999999996

>  <m_primary>  (3) 
energy

>  <rmsd>  (3) 
11.446466149701358

>  <m_score__min__rmsd>  (3) 
11.446466149701358

>  <meeko>  (3) 
{"free_energy": -8.81, "intermolecular_energy": -11.2, "internal_energy": -1.64, "cluster_size": 33, "cluster_id": 1, "rank_in_cluster": 15}

>  <energy>  (3) 
-9.19

>  <cluster_rmsd>  (3) 
0.6

>  <cluster>  (3) 
1

$$$$

     RDKit          3D

 66 70  0  0  0  0  0  0  0  0999 V2000
  138.7530   68.5410  225.0070 O   0  0  0  0  0  0  0  0  0  0  0  0
  139.3830   69.6270  224.8660 C   0  0  0  0  0  0  0  0  0  0  0  0
  139.9160   70.1740  226.0080 C   0  0  0  0  0  0  0  0  0  0  0  0
  139.7830   69.5880  227.2440 C   0  0  0  0  0  0  0  0  0  0  0  0
  140.3540   70.2080  228.3480 C   0  0  0  0  0  0  0  0  0  0  0  0
  141.0360   71.3950  228.1700 C   0  0  0  0  0  0  0  0  0  0  0  0
  141.1780   71.9950  226.9360 C   0  0  0  0  0  0  0  0  0  0  0  0
  140.6000   71.3530  225.8640 C   0  0  0  0  0  0  0  0  0  0  0  0
  140.7060   71.8850  224.6650 N   0  0  0  0  0  0  0  0  0  0  0  0
  140.1850   71.3620  223.5130 C   0  0  0  0  0  0  0  0  0  0  0  0
  140.3770   72.1570  222.3340 C   0  0  0  0  0  0  0  0  0  0  0  0
  139.6120   72.9940  221.7230 C   0  0  0  0  0  0  0  0  0  0  0  0
  139.5760   74.4490  221.9710 C   0  0  0  0  0  0  0  0  0  0  0  0
  138.3710   75.0870  222.2280 C   0  0  0  0  0  0  0  0  0  0  0  0
  138.2710   76.4390  222.4700 C   0  0  0  0  0  0  0  0  0  0  0  0
  139.4110   77.2120  222.4590 C   0  0  0  0  0  0  0  0  0  0  0  0
  139.3660   78.6840  222.7200 C   0  0  0  0  0  0  0  0  0  0  0  0
  140.5620   79.3710  222.6290 N   0  0  0  0  0  0  0  0  0  0  0  0
  140.9690   80.0410  221.4730 C   0  0  0  0  0  0  0  0  0  0  0  0
  141.8400   81.1630  222.0700 C   0  0  0  0  0  0  0  0  0  0  0  0
  142.4350   80.5270  223.3240 C   0  0  2  0  0  0  0  0  0  0  0  0
  143.7690   80.1940  223.0970 O   0  0  0  0  0  0  0  0  0  0  0  0
  141.5630   79.3170  223.5970 C   0  0  0  0  0  0  0  0  0  0  0  0
  140.6280   76.6140  222.2060 C   0  0  0  0  0  0  0  0  0  0  0  0
  140.6980   75.2370  221.9650 C   0  0  0  0  0  0  0  0  0  0  0  0
  139.5160   70.2150  223.6310 N   0  0  0  0  0  0  0  0  0  0  0  0
  138.9170   69.4810  222.5480 C   0  0  0  0  0  0  0  0  0  0  0  0
  137.4570   69.6800  222.3490 C   0  0  0  0  0  0  0  0  0  0  0  0
  136.6120   68.5200  222.8740 C   0  0  0  0  0  0  0  0  0  0  0  0
  135.1540   68.8620  222.6620 C   0  0  0  0  0  0  0  0  0  0  0  0
  134.7380   69.9300  223.6120 C   0  0  0  0  0  0  0  0  0  0  0  0
  135.9530   70.7060  224.0590 C   0  0  0  0  0  0  0  0  0  0  0  0
  136.9200   70.9470  222.8880 C   0  0  0  0  0  0  0  0  0  0  0  0
  139.2327   68.6423  227.3573 H   0  0  0  0  0  0  0  0  0  0  0  0
  140.2642   69.7601  229.3487 H   0  0  0  0  0  0  0  0  0  0  0  0
  141.4846   71.8824  229.0482 H   0  0  0  0  0  0  0  0  0  0  0  0
  141.7265   72.9407  226.8144 H   0  0  0  0  0  0  0  0  0  0  0  0
  141.3628   72.0273  221.8635 H   0  0  0  0  0  0  0  0  0  0  0  0
  138.9323   72.5934  220.9565 H   0  0  0  0  0  0  0  0  0  0  0  0
  137.4512   74.4838  222.2390 H   0  0  0  0  0  0  0  0  0  0  0  0
  137.2910   76.8968  222.6700 H   0  0  0  0  0  0  0  0  0  0  0  0
  138.6705   79.1294  221.9935 H   0  0  0  0  0  0  0  0  0  0  0  0
  139.0588   78.7800  223.7719 H   0  0  0  0  0  0  0  0  0  0  0  0
  141.5539   79.3851  220.8115 H   0  0  0  0  0  0  0  0  0  0  0  0
  140.1414   80.3982  220.8426 H   0  0  0  0  0  0  0  0  0  0  0  0
  142.6320   81.4613  221.3674 H   0  0  0  0  0  0  0  0  0  0  0  0
  141.2694   82.0786  222.2848 H   0  0  0  0  0  0  0  0  0  0  0  0
  142.4432   81.1989  224.1949 H   0  0  0  0  0  0  0  0  0  0  0  0
  143.7530   79.5360  222.3340 H   0  0  0  0  0  0  0  0  0  0  0  0
  142.1463   78.3895  223.4993 H   0  0  0  0  0  0  0  0  0  0  0  0
  141.1530   79.3237  224.6177 H   0  0  0  0  0  0  0  0  0  0  0  0
  141.5455   77.2206  222.1936 H   0  0  0  0  0  0  0  0  0  0  0  0
  141.6767   74.7759  221.7660 H   0  0  0  0  0  0  0  0  0  0  0  0
  139.4260   69.7781  221.6192 H   0  0  0  0  0  0  0  0  0  0  0  0
  139.0366   68.4194  222.8100 H   0  0  0  0  0  0  0  0  0  0  0  0
  137.3716   69.7264  221.2533 H   0  0  0  0  0  0  0  0  0  0  0  0
  136.8619   67.5996  222.3258 H   0  0  0  0  0  0  0  0  0  0  0  0
  136.8122   68.3583  223.9435 H   0  0  0  0  0  0  0  0  0  0  0  0
  135.0090   69.2154  221.6305 H   0  0  0  0  0  0  0  0  0  0  0  0
  134.5433   67.9642  222.8382 H   0  0  0  0  0  0  0  0  0  0  0  0
  134.0317   70.6099  223.1132 H   0  0  0  0  0  0  0  0  0  0  0  0
  134.2516   69.4739  224.4868 H   0  0  0  0  0  0  0  0  0  0  0  0
  135.6301   71.6767  224.4634 H   0  0  0  0  0  0  0  0  0  0  0  0
  136.4769   70.1203  224.8288 H   0  0  0  0  0  0  0  0  0  0  0  0
  136.3835   71.4758  222.0864 H   0  0  0  0  0  0  0  0  0  0  0  0
  137.7648   71.5451  223.2602 H   0  0  0  0  0  0  0  0  0  0  0  0
  1  2  2  0
  2  3  1  0
  3  4  2  0
  4  5  1  0
  5  6  2  0
  6  7  1  0
  7  8  2  0
  8  9  1  0
  9 10  2  0
 10 11  1  0
 11 12  2  0
 12 13  1  0
 13 14  2  0
 14 15  1  0
 15 16  2  0
 16 17  1  0
 17 18  1  0
 18 19  1  0
 19 20  1  0
 20 21  1  0
 21 22  1  0
 21 23  1  0
 16 24  1  0
 24 25  2  0
 10 26  1  0
 26 27  1  0
 27 28  1  0
 28 29  1  0
 29 30  1  0
 30 31  1  0
 31 32  1  0
 32 33  1  0
 26  2  1  0
 33 28  1  0
  8  3  1  0
 25 13  1  0
 23 18  1  0
  4 34  1  0
  5 35  1  0
  6 36  1  0
  7 37  1  0
 11 38  1  0
 12 39  1  0
 14 40  1  0
 15 41  1  0
 17 42  1  0
 17 43  1  0
 19 44  1  0
 19 45  1  0
 20 46  1  0
 20 47  1  0
 21 48  1  1
 22 49  1  0
 23 50  1  0
 23 51  1  0
 24 52  1  0
 25 53  1  0
 27 54  1  0
 27 55  1  0
 28 56  1  0
 29 57  1  0
 29 58  1  0
 30 59  1  0
 30 60  1  0
 31 61  1  0
 31 62  1  0
 32 63  1  0
 32 64  1  0
 33 65  1  0
 33 66  1  0
M  END
>  <smiles>  (4) 
O=c1c2ccccc2nc(/C=C/c2ccc(CN3CCC(O)C3)cc2)n1CC1CCCCC1

>  <score_type>  (4) 
oracle

>  <origin>  (4) 
autodockgpu

>  <m_score__min__energy>  (4) 
-9.2699999999999996

>  <m_primary>  (4) 
energy

>  <rmsd>  (4) 
11.203721549462541

>  <m_score__min__rmsd>  (4) 
11.203721549462541

>  <meeko>  (4) 
{"free_energy": -9.15, "intermolecular_energy": -11.54, "internal_energy": -1.95, "cluster_size": 33, "cluster_id": 1, "rank_in_cluster": 6}

>  <energy>  (4) 
-9.16

>  <cluster_rmsd>  (4) 
0.57

>  <cluster>  (4) 
1

$$$$

     RDKit          3D

 66 70  0  0  0  0  0  0  0  0999 V2000
  139.1870   67.4150  224.7420 O   0  0  0  0  0  0  0  0  0  0  0  0
  139.5140   68.6290  224.8700 C   0  0  0  0  0  0  0  0  0  0  0  0
  140.0730   68.9840  226.0730 C   0  0  0  0  0  0  0  0  0  0  0  0
  140.2730   68.0860  227.0940 C   0  0  0  0  0  0  0  0  0  0  0  0
  140.8460   68.5300  228.2790 C   0  0  0  0  0  0  0  0  0  0  0  0
  141.1940   69.8610  228.3970 C   0  0  0  0  0  0  0  0  0  0  0  0
  140.9990   70.7740  227.3820 C   0  0  0  0  0  0  0  0  0  0  0  0
  140.4300   70.3000  226.2200 C   0  0  0  0  0  0  0  0  0  0  0  0
  140.2220   71.1320  225.2220 N   0  0  0  0  0  0  0  0  0  0  0  0
  139.6680   70.8040  224.0150 C   0  0  0  0  0  0  0  0  0  0  0  0
  139.4840   71.8970  223.1050 C   0  0  0  0  0  0  0  0  0  0  0  0
  140.1520   72.2850  222.0750 C   0  0  0  0  0  0  0  0  0  0  0  0
  140.4560   73.6910  221.7400 C   0  0  0  0  0  0  0  0  0  0  0  0
  141.6800   74.0300  221.1830 C   0  0  0  0  0  0  0  0  0  0  0  0
  142.0240   75.3200  220.8460 C   0  0  0  0  0  0  0  0  0  0  0  0
  141.1210   76.3370  221.0670 C   0  0  0  0  0  0  0  0  0  0  0  0
  141.4350   77.7570  220.7160 C   0  0  0  0  0  0  0  0  0  0  0  0
  141.5000   78.6580  221.7620 N   0  0  0  0  0  0  0  0  0  0  0  0
  141.2830   78.2960  223.0940 C   0  0  0  0  0  0  0  0  0  0  0  0
  142.1570   79.3290  223.8300 C   0  0  0  0  0  0  0  0  0  0  0  0
  142.0960   80.5590  222.9280 C   0  0  2  0  0  0  0  0  0  0  0  0
  141.2460   81.5120  223.4860 O   0  0  0  0  0  0  0  0  0  0  0  0
  141.6020   80.0370  221.5930 C   0  0  0  0  0  0  0  0  0  0  0  0
  139.8930   76.0400  221.6200 C   0  0  0  0  0  0  0  0  0  0  0  0
  139.5730   74.7180  221.9510 C   0  0  0  0  0  0  0  0  0  0  0  0
  139.3140   69.5280  223.8510 N   0  0  0  0  0  0  0  0  0  0  0  0
  138.7450   68.9660  222.6550 C   0  0  0  0  0  0  0  0  0  0  0  0
  137.2820   69.1580  222.4720 C   0  0  0  0  0  0  0  0  0  0  0  0
  136.5100   67.8430  222.3550 C   0  0  0  0  0  0  0  0  0  0  0  0
  135.0390   68.1670  222.2250 C   0  0  0  0  0  0  0  0  0  0  0  0
  134.5080   68.6590  223.5270 C   0  0  0  0  0  0  0  0  0  0  0  0
  135.6440   69.2060  224.3580 C   0  0  0  0  0  0  0  0  0  0  0  0
  136.6300   70.0070  223.4910 C   0  0  0  0  0  0  0  0  0  0  0  0
  139.9837   67.0315  226.9746 H   0  0  0  0  0  0  0  0  0  0  0  0
  141.0199   67.8317  229.1109 H   0  0  0  0  0  0  0  0  0  0  0  0
  141.6450   70.2071  229.3387 H   0  0  0  0  0  0  0  0  0  0  0  0
  141.2841   71.8304  227.4947 H   0  0  0  0  0  0  0  0  0  0  0  0
  138.6068   72.5216  223.3293 H   0  0  0  0  0  0  0  0  0  0  0  0
  140.5255   71.5087  221.3910 H   0  0  0  0  0  0  0  0  0  0  0  0
  142.4119   73.2291  221.0015 H   0  0  0  0  0  0  0  0  0  0  0  0
  143.0084   75.5362  220.4054 H   0  0  0  0  0  0  0  0  0  0  0  0
  142.4105   77.7662  220.2078 H   0  0  0  0  0  0  0  0  0  0  0  0
  140.5898   78.0942  220.0979 H   0  0  0  0  0  0  0  0  0  0  0  0
  140.2230   78.3942  223.3710 H   0  0  0  0  0  0  0  0  0  0  0  0
  141.5306   77.2491  223.3238 H   0  0  0  0  0  0  0  0  0  0  0  0
  141.7469   79.5518  224.8261 H   0  0  0  0  0  0  0  0  0  0  0  0
  143.1844   78.9751  224.0010 H   0  0  0  0  0  0  0  0  0  0  0  0
  143.0659   81.0638  222.8080 H   0  0  0  0  0  0  0  0  0  0  0  0
  140.3340   81.3070  223.1130 H   0  0  0  0  0  0  0  0  0  0  0  0
  140.6213   80.4702  221.3471 H   0  0  0  0  0  0  0  0  0  0  0  0
  142.2792   80.3038  220.7682 H   0  0  0  0  0  0  0  0  0  0  0  0
  139.1637   76.8433  221.8013 H   0  0  0  0  0  0  0  0  0  0  0  0
  138.5892   74.4980  222.3911 H   0  0  0  0  0  0  0  0  0  0  0  0
  139.2540   69.4236  221.7939 H   0  0  0  0  0  0  0  0  0  0  0  0
  138.8910   67.8792  222.7417 H   0  0  0  0  0  0  0  0  0  0  0  0
  137.2325   69.6972  221.5145 H   0  0  0  0  0  0  0  0  0  0  0  0
  136.8492   67.2902  221.4665 H   0  0  0  0  0  0  0  0  0  0  0  0
  136.6841   67.2205  223.2450 H   0  0  0  0  0  0  0  0  0  0  0  0
  134.9038   68.9450  221.4592 H   0  0  0  0  0  0  0  0  0  0  0  0
  134.4936   67.2573  221.9335 H   0  0  0  0  0  0  0  0  0  0  0  0
  133.7702   69.4544  223.3453 H   0  0  0  0  0  0  0  0  0  0  0  0
  134.0264   67.8288  224.0645 H   0  0  0  0  0  0  0  0  0  0  0  0
  135.2338   69.8651  225.1374 H   0  0  0  0  0  0  0  0  0  0  0  0
  136.1839   68.3610  224.8102 H   0  0  0  0  0  0  0  0  0  0  0  0
  136.0825   70.8149  222.9836 H   0  0  0  0  0  0  0  0  0  0  0  0
  137.4126   70.4117  224.1495 H   0  0  0  0  0  0  0  0  0  0  0  0
  1  2  2  0
  2  3  1  0
  3  4  2  0
  4  5  1  0
  5  6  2  0
  6  7  1  0
  7  8  2  0
  8  9  1  0
  9 10  2  0
 10 11  1  0
 11 12  2  0
 12 13  1  0
 13 14  2  0
 14 15  1  0
 15 16  2  0
 16 17  1  0
 17 18  1  0
 18 19  1  0
 19 20  1  0
 20 21  1  0
 21 22  1  0
 21 23  1  0
 16 24  1  0
 24 25  2  0
 10 26  1  0
 26 27  1  0
 27 28  1  0
 28 29  1  0
 29 30  1  0
 30 31  1  0
 31 32  1  0
 32 33  1  0
 26  2  1  0
 33 28  1  0
  8  3  1  0
 25 13  1  0
 23 18  1  0
  4 34  1  0
  5 35  1  0
  6 36  1  0
  7 37  1  0
 11 38  1  0
 12 39  1  0
 14 40  1  0
 15 41  1  0
 17 42  1  0
 17 43  1  0
 19 44  1  0
 19 45  1  0
 20 46  1  0
 20 47  1  0
 21 48  1  6
 22 49  1  0
 23 50  1  0
 23 51  1  0
 24 52  1  0
 25 53  1  0
 27 54  1  0
 27 55  1  0
 28 56  1  0
 29 57  1  0
 29 58  1  0
 30 59  1  0
 30 60  1  0
 31 61  1  0
 31 62  1  0
 32 63  1  0
 32 64  1  0
 33 65  1  0
 33 66  1  0
M  END
>  <smiles>  (5) 
O=c1c2ccccc2nc(/C=C/c2ccc(CN3CCC(O)C3)cc2)n1CC1CCCCC1

>  <score_type>  (5) 
oracle

>  <origin>  (5) 
autodockgpu

>  <m_score__min__energy>  (5) 
-9.2699999999999996

>  <m_primary>  (5) 
energy

>  <rmsd>  (5) 
12.075256850790366

>  <m_score__min__rmsd>  (5) 
12.075256850790366

>  <meeko>  (5) 
{"free_energy": -8.74, "intermolecular_energy": -11.12, "internal_energy": -1.55, "cluster_size": 33, "cluster_id": 1, "rank_in_cluster": 18}

>  <energy>  (5) 
-9.16

>  <cluster_rmsd>  (5) 
0.39

>  <cluster>  (5) 
1

$$$$

     RDKit          3D

 66 70  0  0  0  0  0  0  0  0999 V2000
  138.9080   68.4000  224.9560 O   0  0  0  0  0  0  0  0  0  0  0  0
  139.4870   69.5170  224.8410 C   0  0  0  0  0  0  0  0  0  0  0  0
  139.9820   70.0670  225.9980 C   0  0  0  0  0  0  0  0  0  0  0  0
  139.8640   69.4540  227.2230 C   0  0  0  0  0  0  0  0  0  0  0  0
  140.3930   70.0800  228.3440 C   0  0  0  0  0  0  0  0  0  0  0  0
  141.0200   71.3010  228.1950 C   0  0  0  0  0  0  0  0  0  0  0  0
  141.1460   71.9290  226.9730 C   0  0  0  0  0  0  0  0  0  0  0  0
  140.6100   71.2800  225.8830 C   0  0  0  0  0  0  0  0  0  0  0  0
  140.7030   71.8390  224.6950 N   0  0  0  0  0  0  0  0  0  0  0  0
  140.2200   71.3130  223.5280 C   0  0  0  0  0  0  0  0  0  0  0  0
  140.3860   72.1380  222.3660 C   0  0  0  0  0  0  0  0  0  0  0  0
  139.5880   72.9470  221.7610 C   0  0  0  0  0  0  0  0  0  0  0  0
  139.5470   74.4090  221.9660 C   0  0  0  0  0  0  0  0  0  0  0  0
  138.3380   75.0510  222.1970 C   0  0  0  0  0  0  0  0  0  0  0  0
  138.2320   76.4090  222.3990 C   0  0  0  0  0  0  0  0  0  0  0  0
  139.3710   77.1850  222.3710 C   0  0  0  0  0  0  0  0  0  0  0  0
  139.3190   78.6640  222.5890 C   0  0  0  0  0  0  0  0  0  0  0  0
  140.5200   79.3460  222.5260 N   0  0  0  0  0  0  0  0  0  0  0  0
  140.9680   79.9940  221.3720 C   0  0  0  0  0  0  0  0  0  0  0  0
  141.8220   81.1240  221.9780 C   0  0  0  0  0  0  0  0  0  0  0  0
  142.3720   80.5100  223.2630 C   0  0  2  0  0  0  0  0  0  0  0  0
  143.7120   80.1690  223.0870 O   0  0  0  0  0  0  0  0  0  0  0  0
  141.4870   79.3070  223.5280 C   0  0  0  0  0  0  0  0  0  0  0  0
  140.5910   76.5840  222.1430 C   0  0  0  0  0  0  0  0  0  0  0  0
  140.6660   75.2000  221.9430 C   0  0  0  0  0  0  0  0  0  0  0  0
  139.6050   70.1330  223.6190 N   0  0  0  0  0  0  0  0  0  0  0  0
  139.0530   69.3910  222.5160 C   0  0  0  0  0  0  0  0  0  0  0  0
  137.5820   69.4980  222.3250 C   0  0  0  0  0  0  0  0  0  0  0  0
  136.8290   68.2250  222.7140 C   0  0  0  0  0  0  0  0  0  0  0  0
  135.3490   68.4740  222.5250 C   0  0  0  0  0  0  0  0  0  0  0  0
  134.8490   69.3980  223.5810 C   0  0  0  0  0  0  0  0  0  0  0  0
  136.0000   70.2130  224.1210 C   0  0  0  0  0  0  0  0  0  0  0  0
  136.9470   70.6540  222.9930 C   0  0  0  0  0  0  0  0  0  0  0  0
  139.3578   68.4816  227.3138 H   0  0  0  0  0  0  0  0  0  0  0  0
  140.3137   69.6103  229.3355 H   0  0  0  0  0  0  0  0  0  0  0  0
  141.4359   71.7930  229.0866 H   0  0  0  0  0  0  0  0  0  0  0  0
  141.6504   72.9015  226.8741 H   0  0  0  0  0  0  0  0  0  0  0  0
  141.3824   72.0657  221.9055 H   0  0  0  0  0  0  0  0  0  0  0  0
  138.8823   72.5161  221.0355 H   0  0  0  0  0  0  0  0  0  0  0  0
  137.4200   74.4454  222.2198 H   0  0  0  0  0  0  0  0  0  0  0  0
  137.2496   76.8693  222.5806 H   0  0  0  0  0  0  0  0  0  0  0  0
  138.6538   79.0900  221.8235 H   0  0  0  0  0  0  0  0  0  0  0  0
  138.9703   78.7902  223.6246 H   0  0  0  0  0  0  0  0  0  0  0  0
  141.5727   79.3247  220.7424 H   0  0  0  0  0  0  0  0  0  0  0  0
  140.1634   80.3420  220.7075 H   0  0  0  0  0  0  0  0  0  0  0  0
  142.6385   81.4071  221.2974 H   0  0  0  0  0  0  0  0  0  0  0  0
  141.2473   82.0448  222.1566 H   0  0  0  0  0  0  0  0  0  0  0  0
  142.3529   81.1977  224.1213 H   0  0  0  0  0  0  0  0  0  0  0  0
  143.7250   79.5310  222.3080 H   0  0  0  0  0  0  0  0  0  0  0  0
  142.0703   78.3764  223.4669 H   0  0  0  0  0  0  0  0  0  0  0  0
  141.0425   79.3333  224.5338 H   0  0  0  0  0  0  0  0  0  0  0  0
  141.5069   77.1928  222.1182 H   0  0  0  0  0  0  0  0  0  0  0  0
  141.6471   74.7363  221.7630 H   0  0  0  0  0  0  0  0  0  0  0  0
  139.5380   69.7473  221.5953 H   0  0  0  0  0  0  0  0  0  0  0  0
  139.2442   68.3327  222.7473 H   0  0  0  0  0  0  0  0  0  0  0  0
  137.4946   69.6571  221.2401 H   0  0  0  0  0  0  0  0  0  0  0  0
  137.1511   67.3913  222.0727 H   0  0  0  0  0  0  0  0  0  0  0  0
  137.0394   67.9646  223.7618 H   0  0  0  0  0  0  0  0  0  0  0  0
  135.1788   68.9247  221.5361 H   0  0  0  0  0  0  0  0  0  0  0  0
  134.8099   67.5179  222.5969 H   0  0  0  0  0  0  0  0  0  0  0  0
  134.0925   70.0712  223.1514 H   0  0  0  0  0  0  0  0  0  0  0  0
  134.3981   68.8138  224.3967 H   0  0  0  0  0  0  0  0  0  0  0  0
  135.6019   71.1061  224.6249 H   0  0  0  0  0  0  0  0  0  0  0  0
  136.5670   69.5891  224.8276 H   0  0  0  0  0  0  0  0  0  0  0  0
  136.3722   71.2239  222.2481 H   0  0  0  0  0  0  0  0  0  0  0  0
  137.7421   71.2715  223.4363 H   0  0  0  0  0  0  0  0  0  0  0  0
  1  2  2  0
  2  3  1  0
  3  4  2  0
  4  5  1  0
  5  6  2  0
  6  7  1  0
  7  8  2  0
  8  9  1  0
  9 10  2  0
 10 11  1  0
 11 12  2  0
 12 13  1  0
 13 14  2  0
 14 15  1  0
 15 16  2  0
 16 17  1  0
 17 18  1  0
 18 19  1  0
 19 20  1  0
 20 21  1  0
 21 22  1  0
 21 23  1  0
 16 24  1  0
 24 25  2  0
 10 26  1  0
 26 27  1  0
 27 28  1  0
 28 29  1  0
 29 30  1  0
 30 31  1  0
 31 32  1  0
 32 33  1  0
 26  2  1  0
 33 28  1  0
  8  3  1  0
 25 13  1  0
 23 18  1  0
  4 34  1  0
  5 35  1  0
  6 36  1  0
  7 37  1  0
 11 38  1  0
 12 39  1  0
 14 40  1  0
 15 41  1  0
 17 42  1  0
 17 43  1  0
 19 44  1  0
 19 45  1  0
 20 46  1  0
 20 47  1  0
 21 48  1  1
 22 49  1  0
 23 50  1  0
 23 51  1  0
 24 52  1  0
 25 53  1  0
 27 54  1  0
 27 55  1  0
 28 56  1  0
 29 57  1  0
 29 58  1  0
 30 59  1  0
 30 60  1  0
 31 61  1  0
 31 62  1  0
 32 63  1  0
 32 64  1  0
 33 65  1  0
 33 66  1  0
M  END
>  <smiles>  (6) 
O=c1c2ccccc2nc(/C=C/c2ccc(CN3CCC(O)C3)cc2)n1CC1CCCCC1

>  <score_type>  (6) 
oracle

>  <origin>  (6) 
autodockgpu

>  <m_score__min__energy>  (6) 
-9.2699999999999996

>  <m_primary>  (6) 
energy

>  <rmsd>  (6) 
11.301735408410982

>  <m_score__min__rmsd>  (6) 
11.301735408410982

>  <meeko>  (6) 
{"free_energy": -9.21, "intermolecular_energy": -11.59, "internal_energy": -1.89, "cluster_size": 33, "cluster_id": 1, "rank_in_cluster": 2}

>  <energy>  (6) 
-9.15

>  <cluster_rmsd>  (6) 
0.69

>  <cluster>  (6) 
1

$$$$

     RDKit          3D

 66 70  0  0  0  0  0  0  0  0999 V2000
  138.8640   68.4350  224.9050 O   0  0  0  0  0  0  0  0  0  0  0  0
  139.4630   69.5460  224.8270 C   0  0  0  0  0  0  0  0  0  0  0  0
  139.9570   70.0540  226.0030 C   0  0  0  0  0  0  0  0  0  0  0  0
  139.8200   69.4060  227.2080 C   0  0  0  0  0  0  0  0  0  0  0  0
  140.3510   69.9910  228.3510 C   0  0  0  0  0  0  0  0  0  0  0  0
  140.9990   71.2050  228.2430 C   0  0  0  0  0  0  0  0  0  0  0  0
  141.1450   71.8670  227.0410 C   0  0  0  0  0  0  0  0  0  0  0  0
  140.6070   71.2590  225.9280 C   0  0  0  0  0  0  0  0  0  0  0  0
  140.7180   71.8500  224.7580 N   0  0  0  0  0  0  0  0  0  0  0  0
  140.2350   71.3670  223.5730 C   0  0  0  0  0  0  0  0  0  0  0  0
  140.4240   72.2220  222.4370 C   0  0  0  0  0  0  0  0  0  0  0  0
  139.6150   72.9870  221.7890 C   0  0  0  0  0  0  0  0  0  0  0  0
  139.5200   74.4520  221.9520 C   0  0  0  0  0  0  0  0  0  0  0  0
  140.6280   75.2560  221.7270 C   0  0  0  0  0  0  0  0  0  0  0  0
  140.6040   76.6260  221.8590 C   0  0  0  0  0  0  0  0  0  0  0  0
  139.4320   77.2470  222.2330 C   0  0  0  0  0  0  0  0  0  0  0  0
  139.3430   78.7330  222.3870 C   0  0  0  0  0  0  0  0  0  0  0  0
  140.5360   79.4270  222.4400 N   0  0  0  0  0  0  0  0  0  0  0  0
  140.9510   80.3050  221.4350 C   0  0  0  0  0  0  0  0  0  0  0  0
  141.8110   81.2960  222.2420 C   0  0  0  0  0  0  0  0  0  0  0  0
  142.3970   80.4360  223.3590 C   0  0  2  0  0  0  0  0  0  0  0  0
  143.7350   80.1560  223.0860 O   0  0  0  0  0  0  0  0  0  0  0  0
  141.5280   79.1940  223.3900 C   0  0  0  0  0  0  0  0  0  0  0  0
  138.3080   76.4820  222.4660 C   0  0  0  0  0  0  0  0  0  0  0  0
  138.3650   75.0900  222.3230 C   0  0  0  0  0  0  0  0  0  0  0  0
  139.6000   70.1950  223.6240 N   0  0  0  0  0  0  0  0  0  0  0  0
  139.0450   69.4950  222.4960 C   0  0  0  0  0  0  0  0  0  0  0  0
  137.5830   69.6630  222.2750 C   0  0  0  0  0  0  0  0  0  0  0  0
  136.7460   68.5470  222.8990 C   0  0  0  0  0  0  0  0  0  0  0  0
  135.2860   68.8550  222.6530 C   0  0  0  0  0  0  0  0  0  0  0  0
  134.8570   70.0000  223.5020 C   0  0  0  0  0  0  0  0  0  0  0  0
  136.0630   70.8240  223.8820 C   0  0  0  0  0  0  0  0  0  0  0  0
  137.0330   70.9680  222.6970 C   0  0  0  0  0  0  0  0  0  0  0  0
  139.2981   68.4394  227.2662 H   0  0  0  0  0  0  0  0  0  0  0  0
  140.2564   69.4939  229.3277 H   0  0  0  0  0  0  0  0  0  0  0  0
  141.4159   71.6633  229.1519 H   0  0  0  0  0  0  0  0  0  0  0  0
  141.6659   72.8336  226.9748 H   0  0  0  0  0  0  0  0  0  0  0  0
  141.4521   72.2251  222.0459 H   0  0  0  0  0  0  0  0  0  0  0  0
  138.9434   72.5128  221.0582 H   0  0  0  0  0  0  0  0  0  0  0  0
  141.5714   74.7754  221.4287 H   0  0  0  0  0  0  0  0  0  0  0  0
  141.5107   77.2188  221.6680 H   0  0  0  0  0  0  0  0  0  0  0  0
  138.7695   79.1221  221.5328 H   0  0  0  0  0  0  0  0  0  0  0  0
  138.8738   78.8926  223.3690 H   0  0  0  0  0  0  0  0  0  0  0  0
  141.5451   79.7875  220.6674 H   0  0  0  0  0  0  0  0  0  0  0  0
  140.1278   80.7727  220.8750 H   0  0  0  0  0  0  0  0  0  0  0  0
  142.6082   81.7240  221.6165 H   0  0  0  0  0  0  0  0  0  0  0  0
  141.2342   82.1529  222.6202 H   0  0  0  0  0  0  0  0  0  0  0  0
  142.3939   80.9307  224.3415 H   0  0  0  0  0  0  0  0  0  0  0  0
  143.7200   79.5060  222.3170 H   0  0  0  0  0  0  0  0  0  0  0  0
  142.1164   78.3032  223.1247 H   0  0  0  0  0  0  0  0  0  0  0  0
  141.1085   79.0069  224.3895 H   0  0  0  0  0  0  0  0  0  0  0  0
  137.3662   76.9657  222.7644 H   0  0  0  0  0  0  0  0  0  0  0  0
  137.4603   74.4938  222.5132 H   0  0  0  0  0  0  0  0  0  0  0  0
  139.5641   69.8483  221.5928 H   0  0  0  0  0  0  0  0  0  0  0  0
  139.1900   68.4261  222.7116 H   0  0  0  0  0  0  0  0  0  0  0  0
  137.5016   69.6110  221.1792 H   0  0  0  0  0  0  0  0  0  0  0  0
  137.0061   67.5836  222.4361 H   0  0  0  0  0  0  0  0  0  0  0  0
  136.9434   68.4837  223.9793 H   0  0  0  0  0  0  0  0  0  0  0  0
  135.1417   69.1130  221.5935 H   0  0  0  0  0  0  0  0  0  0  0  0
  134.6827   67.9710  222.9073 H   0  0  0  0  0  0  0  0  0  0  0  0
  134.1469   70.6260  222.9418 H   0  0  0  0  0  0  0  0  0  0  0  0
  134.3711   69.6195  224.4126 H   0  0  0  0  0  0  0  0  0  0  0  0
  135.7298   71.8240  224.1967 H   0  0  0  0  0  0  0  0  0  0  0  0
  136.5887   70.3146  224.7030 H   0  0  0  0  0  0  0  0  0  0  0  0
  136.4953   71.4183  221.8496 H   0  0  0  0  0  0  0  0  0  0  0  0
  137.8712   71.6043  223.0172 H   0  0  0  0  0  0  0  0  0  0  0  0
  1  2  2  0
  2  3  1  0
  3  4  2  0
  4  5  1  0
  5  6  2  0
  6  7  1  0
  7  8  2  0
  8  9  1  0
  9 10  2  0
 10 11  1  0
 11 12  2  0
 12 13  1  0
 13 14  2  0
 14 15  1  0
 15 16  2  0
 16 17  1  0
 17 18  1  0
 18 19  1  0
 19 20  1  0
 20 21  1  0
 21 22  1  0
 21 23  1  0
 16 24  1  0
 24 25  2  0
 10 26  1  0
 26 27  1  0
 27 28  1  0
 28 29  1  0
 29 30  1  0
 30 31  1  0
 31 32  1  0
 32 33  1  0
 26  2  1  0
 33 28  1  0
  8  3  1  0
 25 13  1  0
 23 18  1  0
  4 34  1  0
  5 35  1  0
  6 36  1  0
  7 37  1  0
 11 38  1  0
 12 39  1  0
 14 40  1  0
 15 41  1  0
 17 42  1  0
 17 43  1  0
 19 44  1  0
 19 45  1  0
 20 46  1  0
 20 47  1  0
 21 48  1  1
 22 49  1  0
 23 50  1  0
 23 51  1  0
 24 52  1  0
 25 53  1  0
 27 54  1  0
 27 55  1  0
 28 56  1  0
 29 57  1  0
 29 58  1  0
 30 59  1  0
 30 60  1  0
 31 61  1  0
 31 62  1  0
 32 63  1  0
 32 64  1  0
 33 65  1  0
 33 66  1  0
M  END
>  <smiles>  (7) 
O=c1c2ccccc2nc(/C=C/c2ccc(CN3CCC(O)C3)cc2)n1CC1CCCCC1

>  <score_type>  (7) 
oracle

>  <origin>  (7) 
autodockgpu

>  <m_score__min__energy>  (7) 
-9.2699999999999996

>  <m_primary>  (7) 
energy

>  <rmsd>  (7) 
11.24508339301087

>  <m_score__min__rmsd>  (7) 
11.24508339301087

>  <meeko>  (7) 
{"free_energy": -9.12, "intermolecular_energy": -11.51, "internal_energy": -1.91, "cluster_size": 33, "cluster_id": 1, "rank_in_cluster": 7}

>  <energy>  (7) 
-9.12

>  <cluster_rmsd>  (7) 
0.68

>  <cluster>  (7) 
1

$$$$

     RDKit          3D

 66 70  0  0  0  0  0  0  0  0999 V2000
  139.1910   67.7560  225.2370 O   0  0  0  0  0  0  0  0  0  0  0  0
  139.5570   68.9500  225.0430 C   0  0  0  0  0  0  0  0  0  0  0  0
  140.1060   69.6010  226.1210 C   0  0  0  0  0  0  0  0  0  0  0  0
  140.2580   69.0050  227.3510 C   0  0  0  0  0  0  0  0  0  0  0  0
  140.8240   69.7350  228.3880 C   0  0  0  0  0  0  0  0  0  0  0  0
  141.2140   71.0380  228.1540 C   0  0  0  0  0  0  0  0  0  0  0  0
  141.0680   71.6500  226.9260 C   0  0  0  0  0  0  0  0  0  0  0  0
  140.5040   70.8970  225.9200 C   0  0  0  0  0  0  0  0  0  0  0  0
  140.3420   71.4350  224.7300 N   0  0  0  0  0  0  0  0  0  0  0  0
  139.7990   70.8110  223.6410 C   0  0  0  0  0  0  0  0  0  0  0  0
  139.6670   71.6240  222.4670 C   0  0  0  0  0  0  0  0  0  0  0  0
  138.9230   72.6400  222.2000 C   0  0  0  0  0  0  0  0  0  0  0  0
  139.4180   73.9920  221.8700 C   0  0  0  0  0  0  0  0  0  0  0  0
  138.5400   75.0640  221.8070 C   0  0  0  0  0  0  0  0  0  0  0  0
  138.9380   76.3480  221.5090 C   0  0  0  0  0  0  0  0  0  0  0  0
  140.2690   76.5990  221.2560 C   0  0  0  0  0  0  0  0  0  0  0  0
  140.7630   77.9740  220.9320 C   0  0  0  0  0  0  0  0  0  0  0  0
  141.2120   78.7410  221.9900 N   0  0  0  0  0  0  0  0  0  0  0  0
  140.6150   78.7210  223.2530 C   0  0  0  0  0  0  0  0  0  0  0  0
  141.8150   79.0630  224.1560 C   0  0  0  0  0  0  0  0  0  0  0  0
  142.6740   79.9750  223.2820 C   0  0  2  0  0  0  0  0  0  0  0  0
  142.5290   81.2980  223.6950 O   0  0  0  0  0  0  0  0  0  0  0  0
  142.1750   79.7400  221.8690 C   0  0  0  0  0  0  0  0  0  0  0  0
  141.1730   75.5590  221.3090 C   0  0  0  0  0  0  0  0  0  0  0  0
  140.7370   74.2640  221.6160 C   0  0  0  0  0  0  0  0  0  0  0  0
  139.4050   69.5480  223.8160 N   0  0  0  0  0  0  0  0  0  0  0  0
  138.8390   68.7010  222.8000 C   0  0  0  0  0  0  0  0  0  0  0  0
  137.3620   68.7680  222.6380 C   0  0  0  0  0  0  0  0  0  0  0  0
  136.6410   69.2830  223.8840 C   0  0  0  0  0  0  0  0  0  0  0  0
  135.1610   69.3540  223.5790 C   0  0  0  0  0  0  0  0  0  0  0  0
  134.8870   70.4800  222.6440 C   0  0  0  0  0  0  0  0  0  0  0  0
  136.1430   70.8120  221.8760 C   0  0  0  0  0  0  0  0  0  0  0  0
  136.8960   69.5360  221.4630 C   0  0  0  0  0  0  0  0  0  0  0  0
  139.9360   67.9654  227.5111 H   0  0  0  0  0  0  0  0  0  0  0  0
  140.9594   69.2815  229.3810 H   0  0  0  0  0  0  0  0  0  0  0  0
  141.6593   71.6120  228.9800 H   0  0  0  0  0  0  0  0  0  0  0  0
  141.3867   72.6894  226.7585 H   0  0  0  0  0  0  0  0  0  0  0  0
  140.3254   71.3227  221.6389 H   0  0  0  0  0  0  0  0  0  0  0  0
  137.8335   72.4896  222.2191 H   0  0  0  0  0  0  0  0  0  0  0  0
  137.4738   74.8793  222.0048 H   0  0  0  0  0  0  0  0  0  0  0  0
  138.2016   77.1643  221.4733 H   0  0  0  0  0  0  0  0  0  0  0  0
  141.5952   77.8693  220.2204 H   0  0  0  0  0  0  0  0  0  0  0  0
  139.8857   78.5098  220.5406 H   0  0  0  0  0  0  0  0  0  0  0  0
  139.8201   79.4769  223.3353 H   0  0  0  0  0  0  0  0  0  0  0  0
  140.1179   77.7720  223.5026 H   0  0  0  0  0  0  0  0  0  0  0  0
  141.4855   79.5870  225.0653 H   0  0  0  0  0  0  0  0  0  0  0  0
  142.3562   78.1707  224.5037 H   0  0  0  0  0  0  0  0  0  0  0  0
  143.7509   79.7614  223.3502 H   0  0  0  0  0  0  0  0  0  0  0  0
  141.7000   81.6330  223.2310 H   0  0  0  0  0  0  0  0  0  0  0  0
  141.7303   80.6583  221.4579 H   0  0  0  0  0  0  0  0  0  0  0  0
  142.9874   79.4512  221.1858 H   0  0  0  0  0  0  0  0  0  0  0  0
  142.2384   75.7469  221.1098 H   0  0  0  0  0  0  0  0  0  0  0  0
  141.4709   73.4455  221.6542 H   0  0  0  0  0  0  0  0  0  0  0  0
  139.2952   68.9792  221.8385 H   0  0  0  0  0  0  0  0  0  0  0  0
  139.0538   67.6712  223.1215 H   0  0  0  0  0  0  0  0  0  0  0  0
  137.0939   67.7145  222.4698 H   0  0  0  0  0  0  0  0  0  0  0  0
  136.8152   68.5962  224.7254 H   0  0  0  0  0  0  0  0  0  0  0  0
  137.0204   70.2785  224.1580 H   0  0  0  0  0  0  0  0  0  0  0  0
  134.8388   68.4096  223.1161 H   0  0  0  0  0  0  0  0  0  0  0  0
  134.6070   69.5189  224.5149 H   0  0  0  0  0  0  0  0  0  0  0  0
  134.0933   70.1879  221.9406 H   0  0  0  0  0  0  0  0  0  0  0  0
  134.5628   71.3617  223.2163 H   0  0  0  0  0  0  0  0  0  0  0  0
  135.8720   71.3772  220.9721 H   0  0  0  0  0  0  0  0  0  0  0  0
  136.8002   71.4098  222.5247 H   0  0  0  0  0  0  0  0  0  0  0  0
  136.2224   68.9021  220.8677 H   0  0  0  0  0  0  0  0  0  0  0  0
  137.7784   69.8343  220.8779 H   0  0  0  0  0  0  0  0  0  0  0  0
  1  2  2  0
  2  3  1  0
  3  4  2  0
  4  5  1  0
  5  6  2  0
  6  7  1  0
  7  8  2  0
  8  9  1  0
  9 10  2  0
 10 11  1  0
 11 12  2  0
 12 13  1  0
 13 14  2  0
 14 15  1  0
 15 16  2  0
 16 17  1  0
 17 18  1  0
 18 19  1  0
 19 20  1  0
 20 21  1  0
 21 22  1  0
 21 23  1  0
 16 24  1  0
 24 25  2  0
 10 26  1  0
 26 27  1  0
 27 28  1  0
 28 29  1  0
 29 30  1  0
 30 31  1  0
 31 32  1  0
 32 33  1  0
 26  2  1  0
 33 28  1  0
  8  3  1  0
 25 13  1  0
 23 18  1  0
  4 34  1  0
  5 35  1  0
  6 36  1  0
  7 37  1  0
 11 38  1  0
 12 39  1  0
 14 40  1  0
 15 41  1  0
 17 42  1  0
 17 43  1  0
 19 44  1  0
 19 45  1  0
 20 46  1  0
 20 47  1  0
 21 48  1  6
 22 49  1  0
 23 50  1  0
 23 51  1  0
 24 52  1  0
 25 53  1  0
 27 54  1  0
 27 55  1  0
 28 56  1  0
 29 57  1  0
 29 58  1  0
 30 59  1  0
 30 60  1  0
 31 61  1  0
 31 62  1  0
 32 63  1  0
 32 64  1  0
 33 65  1  0
 33 66  1  0
M  END
>  <smiles>  (8) 
O=c1c2ccccc2nc(/C=C/c2ccc(CN3CCC(O)C3)cc2)n1CC1CCCCC1

>  <score_type>  (8) 
oracle

>  <origin>  (8) 
autodockgpu

>  <m_score__min__energy>  (8) 
-9.2699999999999996

>  <m_primary>  (8) 
energy

>  <rmsd>  (8) 
11.48265783464032

>  <m_score__min__rmsd>  (8) 
11.48265783464032

>  <meeko>  (8) 
{"free_energy": -8.47, "intermolecular_energy": -10.86, "internal_energy": -1.93, "cluster_size": 33, "cluster_id": 1, "rank_in_cluster": 29}

>  <energy>  (8) 
-9.12

>  <cluster_rmsd>  (8) 
0.63

>  <cluster>  (8) 
1

$$$$

     RDKit          3D

 66 70  0  0  0  0  0  0  0  0999 V2000
  139.2780   67.2110  225.0980 O   0  0  0  0  0  0  0  0  0  0  0  0
  139.2920   68.4720  225.1760 C   0  0  0  0  0  0  0  0  0  0  0  0
  139.9460   69.0070  226.2590 C   0  0  0  0  0  0  0  0  0  0  0  0
  140.5580   68.2320  227.2150 C   0  0  0  0  0  0  0  0  0  0  0  0
  141.1990   68.8540  228.2780 C   0  0  0  0  0  0  0  0  0  0  0  0
  141.2000   70.2340  228.3440 C   0  0  0  0  0  0  0  0  0  0  0  0
  140.5900   71.0250  227.3930 C   0  0  0  0  0  0  0  0  0  0  0  0
  139.9650   70.3750  226.3520 C   0  0  0  0  0  0  0  0  0  0  0  0
  139.3680   71.0840  225.4190 N   0  0  0  0  0  0  0  0  0  0  0  0
  138.7100   70.5780  224.3320 C   0  0  0  0  0  0  0  0  0  0  0  0
  138.0820   71.5500  223.4840 C   0  0  0  0  0  0  0  0  0  0  0  0
  138.3090   71.9100  222.2690 C   0  0  0  0  0  0  0  0  0  0  0  0
  139.4640   72.7160  221.8240 C   0  0  0  0  0  0  0  0  0  0  0  0
  140.6740   72.1040  221.5300 C   0  0  0  0  0  0  0  0  0  0  0  0
  141.7860   72.7960  221.1080 C   0  0  0  0  0  0  0  0  0  0  0  0
  141.7140   74.1650  220.9670 C   0  0  0  0  0  0  0  0  0  0  0  0
  142.8880   74.9720  220.5080 C   0  0  0  0  0  0  0  0  0  0  0  0
  143.9780   74.2700  220.0300 N   0  0  0  0  0  0  0  0  0  0  0  0
  145.1030   73.9880  220.8100 C   0  0  0  0  0  0  0  0  0  0  0  0
  145.5890   72.6750  220.1680 C   0  0  0  0  0  0  0  0  0  0  0  0
  145.1890   72.8220  218.7020 C   0  0  2  0  0  0  0  0  0  0  0  0
  146.3130   73.1170  217.9330 O   0  0  0  0  0  0  0  0  0  0  0  0
  144.1580   73.9340  218.6900 C   0  0  0  0  0  0  0  0  0  0  0  0
  140.5290   74.8110  221.2510 C   0  0  0  0  0  0  0  0  0  0  0  0
  139.4140   74.0770  221.6770 C   0  0  0  0  0  0  0  0  0  0  0  0
  138.6800   69.2490  224.2220 N   0  0  0  0  0  0  0  0  0  0  0  0
  138.0720   68.5120  223.1460 C   0  0  0  0  0  0  0  0  0  0  0  0
  136.5850   68.5180  223.1060 C   0  0  0  0  0  0  0  0  0  0  0  0
  135.9500   69.1170  224.3610 C   0  0  0  0  0  0  0  0  0  0  0  0
  134.4480   69.1130  224.1790 C   0  0  0  0  0  0  0  0  0  0  0  0
  134.0540   70.1430  223.1790 C   0  0  0  0  0  0  0  0  0  0  0  0
  135.2280   70.4470  222.2800 C   0  0  0  0  0  0  0  0  0  0  0  0
  135.9940   69.1640  221.9150 C   0  0  0  0  0  0  0  0  0  0  0  0
  140.5402   67.1348  227.1390 H   0  0  0  0  0  0  0  0  0  0  0  0
  141.6983   68.2573  229.0556 H   0  0  0  0  0  0  0  0  0  0  0  0
  141.7078   70.7216  229.1892 H   0  0  0  0  0  0  0  0  0  0  0  0
  140.6021   72.1227  227.4626 H   0  0  0  0  0  0  0  0  0  0  0  0
  137.2504   72.0888  223.9616 H   0  0  0  0  0  0  0  0  0  0  0  0
  137.5866   71.5927  221.5026 H   0  0  0  0  0  0  0  0  0  0  0  0
  140.7480   71.0120  221.6396 H   0  0  0  0  0  0  0  0  0  0  0  0
  142.7219   72.2624  220.8857 H   0  0  0  0  0  0  0  0  0  0  0  0
  142.5409   75.6362  219.7028 H   0  0  0  0  0  0  0  0  0  0  0  0
  143.2512   75.4895  221.4082 H   0  0  0  0  0  0  0  0  0  0  0  0
  145.8602   74.7817  220.7276 H   0  0  0  0  0  0  0  0  0  0  0  0
  144.8986   73.9152  221.8884 H   0  0  0  0  0  0  0  0  0  0  0  0
  146.6792   72.5687  220.2688 H   0  0  0  0  0  0  0  0  0  0  0  0
  145.1555   71.7818  220.6416 H   0  0  0  0  0  0  0  0  0  0  0  0
  144.7680   71.9029  218.2683 H   0  0  0  0  0  0  0  0  0  0  0  0
  146.4040   74.1190  217.9660 H   0  0  0  0  0  0  0  0  0  0  0  0
  144.5284   74.7991  218.1204 H   0  0  0  0  0  0  0  0  0  0  0  0
  143.2180   73.6222  218.2113 H   0  0  0  0  0  0  0  0  0  0  0  0
  140.4591   75.9035  221.1430 H   0  0  0  0  0  0  0  0  0  0  0  0
  138.4757   74.6066  221.8988 H   0  0  0  0  0  0  0  0  0  0  0  0
  138.4352   68.9385  222.1994 H   0  0  0  0  0  0  0  0  0  0  0  0
  138.3587   67.4625  223.3082 H   0  0  0  0  0  0  0  0  0  0  0  0
  136.3453   67.4458  223.0513 H   0  0  0  0  0  0  0  0  0  0  0  0
  136.2202   68.5128  225.2396 H   0  0  0  0  0  0  0  0  0  0  0  0
  136.3111   70.1444  224.5161 H   0  0  0  0  0  0  0  0  0  0  0  0
  134.1262   68.1217  223.8271 H   0  0  0  0  0  0  0  0  0  0  0  0
  133.9669   69.3413  225.1415 H   0  0  0  0  0  0  0  0  0  0  0  0
  133.2169   69.7650  222.5737 H   0  0  0  0  0  0  0  0  0  0  0  0
  133.7444   71.0607  223.7005 H   0  0  0  0  0  0  0  0  0  0  0  0
  134.8608   70.9207  221.3576 H   0  0  0  0  0  0  0  0  0  0  0  0
  135.9122   71.1215  222.8156 H   0  0  0  0  0  0  0  0  0  0  0  0
  135.2989   68.4588  221.4359 H   0  0  0  0  0  0  0  0  0  0  0  0
  136.8130   69.4377  221.2336 H   0  0  0  0  0  0  0  0  0  0  0  0
  1  2  2  0
  2  3  1  0
  3  4  2  0
  4  5  1  0
  5  6  2  0
  6  7  1  0
  7  8  2  0
  8  9  1  0
  9 10  2  0
 10 11  1  0
 11 12  2  0
 12 13  1  0
 13 14  2  0
 14 15  1  0
 15 16  2  0
 16 17  1  0
 17 18  1  0
 18 19  1  0
 19 20  1  0
 20 21  1  0
 21 22  1  0
 21 23  1  0
 16 24  1  0
 24 25  2  0
 10 26  1  0
 26 27  1  0
 27 28  1  0
 28 29  1  0
 29 30  1  0
 30 31  1  0
 31 32  1  0
 32 33  1  0
 26  2  1  0
 33 28  1  0
  8  3  1  0
 25 13  1  0
 23 18  1  0
  4 34  1  0
  5 35  1  0
  6 36  1  0
  7 37  1  0
 11 38  1  0
 12 39  1  0
 14 40  1  0
 15 41  1  0
 17 42  1  0
 17 43  1  0
 19 44  1  0
 19 45  1  0
 20 46  1  0
 20 47  1  0
 21 48  1  6
 22 49  1  0
 23 50  1  0
 23 51  1  0
 24 52  1  0
 25 53  1  0
 27 54  1  0
 27 55  1  0
 28 56  1  0
 29 57  1  0
 29 58  1  0
 30 59  1  0
 30 60  1  0
 31 61  1  0
 31 62  1  0
 32 63  1  0
 32 64  1  0
 33 65  1  0
 33 66  1  0
M  END
>  <smiles>  (9) 
O=c1c2ccccc2nc(/C=C/c2ccc(CN3CCC(O)C3)cc2)n1CC1CCCCC1

>  <score_type>  (9) 
oracle

>  <origin>  (9) 
autodockgpu

>  <m_score__min__energy>  (9) 
-9.2699999999999996

>  <m_primary>  (9) 
energy

>  <rmsd>  (9) 
12.146938941950035

>  <m_score__min__rmsd>  (9) 
12.146938941950035

>  <meeko>  (9) 
{"free_energy": -8.62, "intermolecular_energy": -11.01, "internal_energy": -1.94, "cluster_size": 2, "cluster_id": 4, "rank_in_cluster": 2}

>  <energy>  (9) 
-8.98

>  <cluster_rmsd>  (9) 
0.66

>  <cluster>  (9) 
1

$$$$

     RDKit          3D

 66 70  0  0  0  0  0  0  0  0999 V2000
  138.8980   67.7140  224.5430 O   0  0  0  0  0  0  0  0  0  0  0  0
  139.3990   68.8420  224.8150 C   0  0  0  0  0  0  0  0  0  0  0  0
  139.9630   68.9730  226.0600 C   0  0  0  0  0  0  0  0  0  0  0  0
  139.9910   67.9480  226.9750 C   0  0  0  0  0  0  0  0  0  0  0  0
  140.5820   68.1660  228.2130 C   0  0  0  0  0  0  0  0  0  0  0  0
  141.1220   69.4060  228.4880 C   0  0  0  0  0  0  0  0  0  0  0  0
  141.1010   70.4450  227.5800 C   0  0  0  0  0  0  0  0  0  0  0  0
  140.5080   70.1940  226.3630 C   0  0  0  0  0  0  0  0  0  0  0  0
  140.4620   71.1530  225.4620 N   0  0  0  0  0  0  0  0  0  0  0  0
  139.9070   71.0480  224.2160 C   0  0  0  0  0  0  0  0  0  0  0  0
  139.9200   72.2510  223.4340 C   0  0  0  0  0  0  0  0  0  0  0  0
  140.4220   72.5240  222.2800 C   0  0  0  0  0  0  0  0  0  0  0  0
  140.5130   73.8760  221.6930 C   0  0  0  0  0  0  0  0  0  0  0  0
  139.4210   74.7310  221.7290 C   0  0  0  0  0  0  0  0  0  0  0  0
  139.4410   76.0030  221.2040 C   0  0  0  0  0  0  0  0  0  0  0  0
  140.5940   76.4670  220.6070 C   0  0  0  0  0  0  0  0  0  0  0  0
  140.6790   77.8420  220.0230 C   0  0  0  0  0  0  0  0  0  0  0  0
  141.3550   78.7930  220.7630 N   0  0  0  0  0  0  0  0  0  0  0  0
  141.8120   79.9970  220.2190 C   0  0  0  0  0  0  0  0  0  0  0  0
  141.7660   80.9180  221.4530 C   0  0  0  0  0  0  0  0  0  0  0  0
  142.0580   79.9740  222.6170 C   0  0  2  0  0  0  0  0  0  0  0  0
  143.3680   80.1590  223.0570 O   0  0  0  0  0  0  0  0  0  0  0  0
  141.8130   78.5850  222.0610 C   0  0  0  0  0  0  0  0  0  0  0  0
  141.7010   75.6470  220.5500 C   0  0  0  0  0  0  0  0  0  0  0  0
  141.6480   74.3580  221.0950 C   0  0  0  0  0  0  0  0  0  0  0  0
  139.3710   69.8680  223.9020 N   0  0  0  0  0  0  0  0  0  0  0  0
  138.7660   69.5350  222.6390 C   0  0  0  0  0  0  0  0  0  0  0  0
  139.5390   68.6130  221.7650 C   0  0  0  0  0  0  0  0  0  0  0  0
  138.8530   67.2630  221.5530 C   0  0  0  0  0  0  0  0  0  0  0  0
  139.7060   66.4410  220.6130 C   0  0  0  0  0  0  0  0  0  0  0  0
  139.6170   66.9910  219.2320 C   0  0  0  0  0  0  0  0  0  0  0  0
  139.2090   68.4420  219.2950 C   0  0  0  0  0  0  0  0  0  0  0  0
  139.9180   69.1700  220.4490 C   0  0  0  0  0  0  0  0  0  0  0  0
  139.5519   66.9695  226.7306 H   0  0  0  0  0  0  0  0  0  0  0  0
  140.6191   67.3623  228.9631 H   0  0  0  0  0  0  0  0  0  0  0  0
  141.5878   69.5728  229.4704 H   0  0  0  0  0  0  0  0  0  0  0  0
  141.5371   71.4266  227.8171 H   0  0  0  0  0  0  0  0  0  0  0  0
  139.4047   73.0987  223.9092 H   0  0  0  0  0  0  0  0  0  0  0  0
  140.8133   71.6853  221.6855 H   0  0  0  0  0  0  0  0  0  0  0  0
  138.4933   74.3746  222.2005 H   0  0  0  0  0  0  0  0  0  0  0  0
  138.5475   76.6421  221.2600 H   0  0  0  0  0  0  0  0  0  0  0  0
  141.1826   77.7590  219.0486 H   0  0  0  0  0  0  0  0  0  0  0  0
  139.6397   78.1993  219.9763 H   0  0  0  0  0  0  0  0  0  0  0  0
  142.8349   79.8996  219.8263 H   0  0  0  0  0  0  0  0  0  0  0  0
  141.2232   80.3585  219.3631 H   0  0  0  0  0  0  0  0  0  0  0  0
  142.5313   81.7051  221.3843 H   0  0  0  0  0  0  0  0  0  0  0  0
  140.8050   81.4427  221.5590 H   0  0  0  0  0  0  0  0  0  0  0  0
  141.4231   80.1528  223.4973 H   0  0  0  0  0  0  0  0  0  0  0  0
  143.9490   79.7450  222.3460 H   0  0  0  0  0  0  0  0  0  0  0  0
  142.7454   78.0015  222.0533 H   0  0  0  0  0  0  0  0  0  0  0  0
  141.0920   78.0178  222.6680 H   0  0  0  0  0  0  0  0  0  0  0  0
  142.6266   76.0056  220.0760 H   0  0  0  0  0  0  0  0  0  0  0  0
  142.5398   73.7163  221.0417 H   0  0  0  0  0  0  0  0  0  0  0  0
  137.7933   69.0649  222.8461 H   0  0  0  0  0  0  0  0  0  0  0  0
  138.7012   70.4825  222.0840 H   0  0  0  0  0  0  0  0  0  0  0  0
  140.4656   68.4648  222.3389 H   0  0  0  0  0  0  0  0  0  0  0  0
  138.7520   66.7415  222.5162 H   0  0  0  0  0  0  0  0  0  0  0  0
  137.8502   67.4098  221.1253 H   0  0  0  0  0  0  0  0  0  0  0  0
  140.7526   66.4711  220.9504 H   0  0  0  0  0  0  0  0  0  0  0  0
  139.3441   65.4022  220.6120 H   0  0  0  0  0  0  0  0  0  0  0  0
  140.5970   66.9065  218.7396 H   0  0  0  0  0  0  0  0  0  0  0  0
  138.8690   66.4239  218.6585 H   0  0  0  0  0  0  0  0  0  0  0  0
  139.4742   68.9307  218.3459 H   0  0  0  0  0  0  0  0  0  0  0  0
  138.1236   68.4912  219.4670 H   0  0  0  0  0  0  0  0  0  0  0  0
  141.0056   69.0684  220.3193 H   0  0  0  0  0  0  0  0  0  0  0  0
  139.6138   70.2268  220.4247 H   0  0  0  0  0  0  0  0  0  0  0  0
  1  2  2  0
  2  3  1  0
  3  4  2  0
  4  5  1  0
  5  6  2  0
  6  7  1  0
  7  8  2  0
  8  9  1  0
  9 10  2  0
 10 11  1  0
 11 12  2  0
 12 13  1  0
 13 14  2  0
 14 15  1  0
 15 16  2  0
 16 17  1  0
 17 18  1  0
 18 19  1  0
 19 20  1  0
 20 21  1  0
 21 22  1  0
 21 23  1  0
 16 24  1  0
 24 25  2  0
 10 26  1  0
 26 27  1  0
 27 28  1  0
 28 29  1  0
 29 30  1  0
 30 31  1  0
 31 32  1  0
 32 33  1  0
 26  2  1  0
 33 28  1  0
  8  3  1  0
 25 13  1  0
 23 18  1  0
  4 34  1  0
  5 35  1  0
  6 36  1  0
  7 37  1  0
 11 38  1  0
 12 39  1  0
 14 40  1  0
 15 41  1  0
 17 42  1  0
 17 43  1  0
 19 44  1  0
 19 45  1  0
 20 46  1  0
 20 47  1  0
 21 48  1  1
 22 49  1  0
 23 50  1  0
 23 51  1  0
 24 52  1  0
 25 53  1  0
 27 54  1  0
 27 55  1  0
 28 56  1  0
 29 57  1  0
 29 58  1  0
 30 59  1  0
 30 60  1  0
 31 61  1  0
 31 62  1  0
 32 63  1  0
 32 64  1  0
 33 65  1  0
 33 66  1  0
M  END
>  <smiles>  (10) 
O=c1c2ccccc2nc(/C=C/c2ccc(CN3CCC(O)C3)cc2)n1CC1CCCCC1

>  <score_type>  (10) 
oracle

>  <origin>  (10) 
autodockgpu

>  <m_score__min__energy>  (10) 
-9.2699999999999996

>  <m_primary>  (10) 
energy

>  <rmsd>  (10) 
11.954204029664888

>  <m_score__min__rmsd>  (10) 
11.954204029664888

>  <meeko>  (10) 
{"free_energy": -8.31, "intermolecular_energy": -10.7, "internal_energy": -1.49, "cluster_size": 33, "cluster_id": 1, "rank_in_cluster": 31}

>  <energy>  (10) 
-8.95

>  <cluster_rmsd>  (10) 
0.6

>  <cluster>  (10) 
1

$$$$

     RDKit          3D

 66 70  0  0  0  0  0  0  0  0999 V2000
  138.7090   68.5890  224.9170 O   0  0  0  0  0  0  0  0  0  0  0  0
  139.3870   69.6510  224.8160 C   0  0  0  0  0  0  0  0  0  0  0  0
  139.8550   70.1880  225.9910 C   0  0  0  0  0  0  0  0  0  0  0  0
  139.6090   69.6180  227.2180 C   0  0  0  0  0  0  0  0  0  0  0  0
  140.1200   70.2270  228.3570 C   0  0  0  0  0  0  0  0  0  0  0  0
  140.8570   71.3870  228.2230 C   0  0  0  0  0  0  0  0  0  0  0  0
  141.1110   71.9700  226.9990 C   0  0  0  0  0  0  0  0  0  0  0  0
  140.5910   71.3400  225.8910 C   0  0  0  0  0  0  0  0  0  0  0  0
  140.8040   71.8570  224.7000 N   0  0  0  0  0  0  0  0  0  0  0  0
  140.3510   71.3440  223.5160 C   0  0  0  0  0  0  0  0  0  0  0  0
  140.6580   72.1210  222.3500 C   0  0  0  0  0  0  0  0  0  0  0  0
  139.9370   72.8940  221.6140 C   0  0  0  0  0  0  0  0  0  0  0  0
  139.7720   74.3480  221.8170 C   0  0  0  0  0  0  0  0  0  0  0  0
  140.7900   75.2250  221.4710 C   0  0  0  0  0  0  0  0  0  0  0  0
  140.6980   76.5880  221.6320 C   0  0  0  0  0  0  0  0  0  0  0  0
  139.5460   77.1280  222.1630 C   0  0  0  0  0  0  0  0  0  0  0  0
  139.3850   78.6020  222.3580 C   0  0  0  0  0  0  0  0  0  0  0  0
  140.5430   79.3440  222.4940 N   0  0  0  0  0  0  0  0  0  0  0  0
  140.8400   80.4470  221.6890 C   0  0  0  0  0  0  0  0  0  0  0  0
  141.7050   81.2900  222.6450 C   0  0  0  0  0  0  0  0  0  0  0  0
  142.4120   80.2450  223.5050 C   0  0  2  0  0  0  0  0  0  0  0  0
  143.7390   80.1180  223.0970 O   0  0  0  0  0  0  0  0  0  0  0  0
  141.6110   78.9720  223.3070 C   0  0  0  0  0  0  0  0  0  0  0  0
  138.5120   76.2890  222.5210 C   0  0  0  0  0  0  0  0  0  0  0  0
  138.6360   74.9050  222.3440 C   0  0  0  0  0  0  0  0  0  0  0  0
  139.6320   70.2230  223.5910 N   0  0  0  0  0  0  0  0  0  0  0  0
  139.0880   69.5010  222.4710 C   0  0  0  0  0  0  0  0  0  0  0  0
  137.6380   69.6980  222.2060 C   0  0  0  0  0  0  0  0  0  0  0  0
  136.7700   68.5460  222.7120 C   0  0  0  0  0  0  0  0  0  0  0  0
  135.3230   68.8850  222.4320 C   0  0  0  0  0  0  0  0  0  0  0  0
  134.8670   69.9670  223.3470 C   0  0  0  0  0  0  0  0  0  0  0  0
  136.0620   70.7500  223.8350 C   0  0  0  0  0  0  0  0  0  0  0  0
  137.0790   70.9730  222.7040 C   0  0  0  0  0  0  0  0  0  0  0  0
  139.0169   68.6943  227.2963 H   0  0  0  0  0  0  0  0  0  0  0  0
  139.9402   69.7916  229.3511 H   0  0  0  0  0  0  0  0  0  0  0  0
  141.2577   71.8654  229.1289 H   0  0  0  0  0  0  0  0  0  0  0  0
  141.7010   72.8943  226.9124 H   0  0  0  0  0  0  0  0  0  0  0  0
  141.7053   72.0419  222.0232 H   0  0  0  0  0  0  0  0  0  0  0  0
  139.4026   72.4359  220.7686 H   0  0  0  0  0  0  0  0  0  0  0  0
  141.7162   74.8099  221.0470 H   0  0  0  0  0  0  0  0  0  0  0  0
  141.5345   77.2400  221.3403 H   0  0  0  0  0  0  0  0  0  0  0  0
  138.8387   78.9948  221.4878 H   0  0  0  0  0  0  0  0  0  0  0  0
  138.8608   78.7090  223.3191 H   0  0  0  0  0  0  0  0  0  0  0  0
  141.4025   80.1511  220.7912 H   0  0  0  0  0  0  0  0  0  0  0  0
  139.9560   80.9720  221.2980 H   0  0  0  0  0  0  0  0  0  0  0  0
  142.4329   81.8957  222.0852 H   0  0  0  0  0  0  0  0  0  0  0  0
  141.1148   82.0037  223.2385 H   0  0  0  0  0  0  0  0  0  0  0  0
  142.4544   80.5108  224.5716 H   0  0  0  0  0  0  0  0  0  0  0  0
  143.7260   79.4430  222.3500 H   0  0  0  0  0  0  0  0  0  0  0  0
  142.2230   78.2023  222.8141 H   0  0  0  0  0  0  0  0  0  0  0  0
  141.2746   78.5414  224.2617 H   0  0  0  0  0  0  0  0  0  0  0  0
  137.5879   76.7073  222.9464 H   0  0  0  0  0  0  0  0  0  0  0  0
  137.8018   74.2496  222.6349 H   0  0  0  0  0  0  0  0  0  0  0  0
  139.6391   69.8120  221.5712 H   0  0  0  0  0  0  0  0  0  0  0  0
  139.1995   68.4364  222.7241 H   0  0  0  0  0  0  0  0  0  0  0  0
  137.6002   69.7289  221.1071 H   0  0  0  0  0  0  0  0  0  0  0  0
  137.0425   67.6172  222.1894 H   0  0  0  0  0  0  0  0  0  0  0  0
  136.9238   68.4007  223.7915 H   0  0  0  0  0  0  0  0  0  0  0  0
  135.2232   69.2230  221.3900 H   0  0  0  0  0  0  0  0  0  0  0  0
  134.7046   67.9900  222.5949 H   0  0  0  0  0  0  0  0  0  0  0  0
  134.1834   70.6393  222.8079 H   0  0  0  0  0  0  0  0  0  0  0  0
  134.3430   69.5238  224.2066 H   0  0  0  0  0  0  0  0  0  0  0  0
  135.7224   71.7267  224.2101 H   0  0  0  0  0  0  0  0  0  0  0  0
  136.5514   70.1763  224.6359 H   0  0  0  0  0  0  0  0  0  0  0  0
  136.5784   71.4907  221.8725 H   0  0  0  0  0  0  0  0  0  0  0  0
  137.9077   71.5753  223.1045 H   0  0  0  0  0  0  0  0  0  0  0  0
  1  2  2  0
  2  3  1  0
  3  4  2  0
  4  5  1  0
  5  6  2  0
  6  7  1  0
  7  8  2  0
  8  9  1  0
  9 10  2  0
 10 11  1  0
 11 12  2  0
 12 13  1  0
 13 14  2  0
 14 15  1  0
 15 16  2  0
 16 17  1  0
 17 18  1  0
 18 19  1  0
 19 20  1  0
 20 21  1  0
 21 22  1  0
 21 23  1  0
 16 24  1  0
 24 25  2  0
 10 26  1  0
 26 27  1  0
 27 28  1  0
 28 29  1  0
 29 30  1  0
 30 31  1  0
 31 32  1  0
 32 33  1  0
 26  2  1  0
 33 28  1  0
  8  3  1  0
 25 13  1  0
 23 18  1  0
  4 34  1  0
  5 35  1  0
  6 36  1  0
  7 37  1  0
 11 38  1  0
 12 39  1  0
 14 40  1  0
 15 41  1  0
 17 42  1  0
 17 43  1  0
 19 44  1  0
 19 45  1  0
 20 46  1  0
 20 47  1  0
 21 48  1  1
 22 49  1  0
 23 50  1  0
 23 51  1  0
 24 52  1  0
 25 53  1  0
 27 54  1  0
 27 55  1  0
 28 56  1  0
 29 57  1  0
 29 58  1  0
 30 59  1  0
 30 60  1  0
 31 61  1  0
 31 62  1  0
 32 63  1  0
 32 64  1  0
 33 65  1  0
 33 66  1  0
M  END
>  <smiles>  (11) 
O=c1c2ccccc2nc(/C=C/c2ccc(CN3CCC(O)C3)cc2)n1CC1CCCCC1

>  <score_type>  (11) 
oracle

>  <origin>  (11) 
autodockgpu

>  <m_score__min__energy>  (11) 
-9.2699999999999996

>  <m_primary>  (11) 
energy

>  <rmsd>  (11) 
11.126397520751366

>  <m_score__min__rmsd>  (11) 
11.126397520751366

>  <meeko>  (11) 
{"free_energy": -8.98, "intermolecular_energy": -11.36, "internal_energy": -1.91, "cluster_size": 33, "cluster_id": 1, "rank_in_cluster": 9}

>  <energy>  (11) 
-8.94

>  <cluster_rmsd>  (11) 
0.67

>  <cluster>  (11) 
1

$$$$

     RDKit          3D

 66 70  0  0  0  0  0  0  0  0999 V2000
  143.2650   76.4680  219.7750 O   0  0  0  0  0  0  0  0  0  0  0  0
  142.4090   75.7780  220.4000 C   0  0  0  0  0  0  0  0  0  0  0  0
  142.6900   74.4400  220.5380 C   0  0  0  0  0  0  0  0  0  0  0  0
  143.8310   73.8640  220.0310 C   0  0  0  0  0  0  0  0  0  0  0  0
  144.0370   72.5030  220.2160 C   0  0  0  0  0  0  0  0  0  0  0  0
  143.0880   71.7690  220.9000 C   0  0  0  0  0  0  0  0  0  0  0  0
  141.9380   72.3330  221.4140 C   0  0  0  0  0  0  0  0  0  0  0  0
  141.7660   73.6850  221.2130 C   0  0  0  0  0  0  0  0  0  0  0  0
  140.6860   74.2700  221.6830 N   0  0  0  0  0  0  0  0  0  0  0  0
  140.3820   75.5990  221.5600 C   0  0  0  0  0  0  0  0  0  0  0  0
  139.1130   75.9930  222.1000 C   0  0  0  0  0  0  0  0  0  0  0  0
  138.1230   76.6410  221.5920 C   0  0  0  0  0  0  0  0  0  0  0  0
  137.4290   77.7730  222.2390 C   0  0  0  0  0  0  0  0  0  0  0  0
  137.8350   79.0770  221.9940 C   0  0  0  0  0  0  0  0  0  0  0  0
  137.2290   80.1740  222.5630 C   0  0  0  0  0  0  0  0  0  0  0  0
  136.1670   79.9880  223.4200 C   0  0  0  0  0  0  0  0  0  0  0  0
  135.4640   81.1420  224.0640 C   0  0  0  0  0  0  0  0  0  0  0  0
  135.8470   81.4660  225.3520 N   0  0  0  0  0  0  0  0  0  0  0  0
  137.1690   81.7550  225.7030 C   0  0  0  0  0  0  0  0  0  0  0  0
  136.9580   82.7160  226.8880 C   0  0  0  0  0  0  0  0  0  0  0  0
  135.6600   82.2240  227.5240 C   0  0  2  0  0  0  0  0  0  0  0  0
  135.9450   81.5210  228.6930 O   0  0  0  0  0  0  0  0  0  0  0  0
  135.0100   81.3600  226.4600 C   0  0  0  0  0  0  0  0  0  0  0  0
  135.7340   78.7070  223.6900 C   0  0  0  0  0  0  0  0  0  0  0  0
  136.3710   77.6110  223.0950 C   0  0  0  0  0  0  0  0  0  0  0  0
  141.2680   76.3520  220.9060 N   0  0  0  0  0  0  0  0  0  0  0  0
  141.1610   77.7710  220.6900 C   0  0  0  0  0  0  0  0  0  0  0  0
  141.8010   78.6390  221.7150 C   0  0  0  0  0  0  0  0  0  0  0  0
  141.5790   80.1310  221.4660 C   0  0  0  0  0  0  0  0  0  0  0  0
  142.2280   80.9010  222.5940 C   0  0  0  0  0  0  0  0  0  0  0  0
  141.4400   80.7320  223.8460 C   0  0  0  0  0  0  0  0  0  0  0  0
  140.6270   79.4620  223.7610 C   0  0  0  0  0  0  0  0  0  0  0  0
  141.4370   78.3270  223.1140 C   0  0  0  0  0  0  0  0  0  0  0  0
  144.5692   74.4718  219.4873 H   0  0  0  0  0  0  0  0  0  0  0  0
  144.9425   72.0170  219.8236 H   0  0  0  0  0  0  0  0  0  0  0  0
  143.2555   70.6910  221.0409 H   0  0  0  0  0  0  0  0  0  0  0  0
  141.1945   71.7319  221.9580 H   0  0  0  0  0  0  0  0  0  0  0  0
  138.9561   75.6836  223.1439 H   0  0  0  0  0  0  0  0  0  0  0  0
  137.7667   76.3274  220.5997 H   0  0  0  0  0  0  0  0  0  0  0  0
  138.6822   79.2420  221.3120 H   0  0  0  0  0  0  0  0  0  0  0  0
  137.5890   81.1883  222.3357 H   0  0  0  0  0  0  0  0  0  0  0  0
  135.6328   82.0278  223.4340 H   0  0  0  0  0  0  0  0  0  0  0  0
  134.4130   80.8282  224.1470 H   0  0  0  0  0  0  0  0  0  0  0  0
  137.7123   80.8491  226.0099 H   0  0  0  0  0  0  0  0  0  0  0  0
  137.7736   82.1722  224.8842 H   0  0  0  0  0  0  0  0  0  0  0  0
  137.7937   82.6503  227.6003 H   0  0  0  0  0  0  0  0  0  0  0  0
  136.9091   83.7706  226.5790 H   0  0  0  0  0  0  0  0  0  0  0  0
  134.9831   83.0368  227.8257 H   0  0  0  0  0  0  0  0  0  0  0  0
  135.6830   80.5670  228.5020 H   0  0  0  0  0  0  0  0  0  0  0  0
  134.9444   80.3149  226.7969 H   0  0  0  0  0  0  0  0  0  0  0  0
  133.9826   81.6824  226.2353 H   0  0  0  0  0  0  0  0  0  0  0  0
  134.8873   78.5459  224.3735 H   0  0  0  0  0  0  0  0  0  0  0  0
  136.0135   76.5954  223.3201 H   0  0  0  0  0  0  0  0  0  0  0  0
  141.6251   77.9991  219.7191 H   0  0  0  0  0  0  0  0  0  0  0  0
  140.0857   77.9974  220.7406 H   0  0  0  0  0  0  0  0  0  0  0  0
  142.8684   78.4031  221.5926 H   0  0  0  0  0  0  0  0  0  0  0  0
  142.0347   80.4202  220.5075 H   0  0  0  0  0  0  0  0  0  0  0  0
  140.5024   80.3529  221.4252 H   0  0  0  0  0  0  0  0  0  0  0  0
  143.2490   80.5235  222.7525 H   0  0  0  0  0  0  0  0  0  0  0  0
  142.2615   81.9683  222.3299 H   0  0  0  0  0  0  0  0  0  0  0  0
  142.1245   80.6725  224.7050 H   0  0  0  0  0  0  0  0  0  0  0  0
  140.7655   81.5915  223.9738 H   0  0  0  0  0  0  0  0  0  0  0  0
  140.3294   79.1577  224.7753 H   0  0  0  0  0  0  0  0  0  0  0  0
  139.7406   79.6562  223.1392 H   0  0  0  0  0  0  0  0  0  0  0  0
  142.3579   78.1711  223.6950 H   0  0  0  0  0  0  0  0  0  0  0  0
  140.8129   77.4212  223.1105 H   0  0  0  0  0  0  0  0  0  0  0  0
  1  2  2  0
  2  3  1  0
  3  4  2  0
  4  5  1  0
  5  6  2  0
  6  7  1  0
  7  8  2  0
  8  9  1  0
  9 10  2  0
 10 11  1  0
 11 12  2  0
 12 13  1  0
 13 14  2  0
 14 15  1  0
 15 16  2  0
 16 17  1  0
 17 18  1  0
 18 19  1  0
 19 20  1  0
 20 21  1  0
 21 22  1  0
 21 23  1  0
 16 24  1  0
 24 25  2  0
 10 26  1  0
 26 27  1  0
 27 28  1  0
 28 29  1  0
 29 30  1  0
 30 31  1  0
 31 32  1  0
 32 33  1  0
 26  2  1  0
 33 28  1  0
  8  3  1  0
 25 13  1  0
 23 18  1  0
  4 34  1  0
  5 35  1  0
  6 36  1  0
  7 37  1  0
 11 38  1  0
 12 39  1  0
 14 40  1  0
 15 41  1  0
 17 42  1  0
 17 43  1  0
 19 44  1  0
 19 45  1  0
 20 46  1  0
 20 47  1  0
 21 48  1  1
 22 49  1  0
 23 50  1  0
 23 51  1  0
 24 52  1  0
 25 53  1  0
 27 54  1  0
 27 55  1  0
 28 56  1  0
 29 57  1  0
 29 58  1  0
 30 59  1  0
 30 60  1  0
 31 61  1  0
 31 62  1  0
 32 63  1  0
 32 64  1  0
 33 65  1  0
 33 66  1  0
M  END
>  <smiles>  (12) 
O=c1c2ccccc2nc(/C=C/c2ccc(CN3CCC(O)C3)cc2)n1CC1CCCCC1

>  <score_type>  (12) 
oracle

>  <origin>  (12) 
autodockgpu

>  <m_score__min__energy>  (12) 
-9.2699999999999996

>  <m_primary>  (12) 
energy

>  <rmsd>  (12) 
7.690823046229323

>  <m_score__min__rmsd>  (12) 
7.690823046229323

>  <meeko>  (12) 
{"free_energy": -7.67, "intermolecular_energy": -10.06, "internal_energy": -2.27, "cluster_size": 6, "cluster_id": 6, "rank_in_cluster": 5}

>  <energy>  (12) 
-8.86

>  <cluster_rmsd>  (12) 
0.76

>  <cluster>  (12) 
1

$$$$

     RDKit          3D

 66 70  0  0  0  0  0  0  0  0999 V2000
  138.8560   68.0940  225.3000 O   0  0  0  0  0  0  0  0  0  0  0  0
  139.3610   69.2180  225.0190 C   0  0  0  0  0  0  0  0  0  0  0  0
  139.9140   69.9160  226.0640 C   0  0  0  0  0  0  0  0  0  0  0  0
  139.9290   69.4360  227.3530 C   0  0  0  0  0  0  0  0  0  0  0  0
  140.5100   70.2070  228.3510 C   0  0  0  0  0  0  0  0  0  0  0  0
  141.0540   71.4320  228.0210 C   0  0  0  0  0  0  0  0  0  0  0  0
  141.0470   71.9270  226.7330 C   0  0  0  0  0  0  0  0  0  0  0  0
  140.4630   71.1370  225.7670 C   0  0  0  0  0  0  0  0  0  0  0  0
  140.4300   71.5630  224.5230 N   0  0  0  0  0  0  0  0  0  0  0  0
  139.8860   70.8900  223.4640 C   0  0  0  0  0  0  0  0  0  0  0  0
  139.9130   71.5870  222.2110 C   0  0  0  0  0  0  0  0  0  0  0  0
  140.6890   72.5060  221.7510 C   0  0  0  0  0  0  0  0  0  0  0  0
  140.4190   73.9570  221.8180 C   0  0  0  0  0  0  0  0  0  0  0  0
  139.2030   74.4230  222.2960 C   0  0  0  0  0  0  0  0  0  0  0  0
  138.8910   75.7600  222.3870 C   0  0  0  0  0  0  0  0  0  0  0  0
  139.8190   76.6970  221.9870 C   0  0  0  0  0  0  0  0  0  0  0  0
  139.5390   78.1650  222.0670 C   0  0  0  0  0  0  0  0  0  0  0  0
  140.6310   79.0010  222.1970 N   0  0  0  0  0  0  0  0  0  0  0  0
  141.0230   79.9020  221.2030 C   0  0  0  0  0  0  0  0  0  0  0  0
  141.6840   81.0080  222.0460 C   0  0  0  0  0  0  0  0  0  0  0  0
  142.2710   80.2510  223.2360 C   0  0  2  0  0  0  0  0  0  0  0  0
  143.6510   80.1310  223.0840 O   0  0  0  0  0  0  0  0  0  0  0  0
  141.5580   78.9130  223.2330 C   0  0  0  0  0  0  0  0  0  0  0  0
  141.0400   76.2740  221.5050 C   0  0  0  0  0  0  0  0  0  0  0  0
  141.3270   74.9050  221.4260 C   0  0  0  0  0  0  0  0  0  0  0  0
  139.3470   69.6990  223.7320 N   0  0  0  0  0  0  0  0  0  0  0  0
  138.7510   68.8150  222.7650 C   0  0  0  0  0  0  0  0  0  0  0  0
  137.3160   69.0520  222.4570 C   0  0  0  0  0  0  0  0  0  0  0  0
  136.5000   67.7630  222.3490 C   0  0  0  0  0  0  0  0  0  0  0  0
  135.0580   68.1360  222.0860 C   0  0  0  0  0  0  0  0  0  0  0  0
  134.4510   68.7200  223.3140 C   0  0  0  0  0  0  0  0  0  0  0  0
  135.5410   69.2690  224.2020 C   0  0  0  0  0  0  0  0  0  0  0  0
  136.6240   69.9820  223.3750 C   0  0  0  0  0  0  0  0  0  0  0  0
  139.4876   68.4566  227.5895 H   0  0  0  0  0  0  0  0  0  0  0  0
  140.5364   69.8467  229.3900 H   0  0  0  0  0  0  0  0  0  0  0  0
  141.5115   72.0380  228.8169 H   0  0  0  0  0  0  0  0  0  0  0  0
  141.4866   72.9054  226.4892 H   0  0  0  0  0  0  0  0  0  0  0  0
  139.1222   71.2787  221.5113 H   0  0  0  0  0  0  0  0  0  0  0  0
  141.6255   72.1858  221.2710 H   0  0  0  0  0  0  0  0  0  0  0  0
  138.4512   73.6875  222.6182 H   0  0  0  0  0  0  0  0  0  0  0  0
  137.9118   76.0774  222.7747 H   0  0  0  0  0  0  0  0  0  0  0  0
  139.0070   78.4529  221.1483 H   0  0  0  0  0  0  0  0  0  0  0  0
  138.9625   78.2980  222.9944 H   0  0  0  0  0  0  0  0  0  0  0  0
  141.7394   79.4450  220.5044 H   0  0  0  0  0  0  0  0  0  0  0  0
  140.2008   80.2532  220.5622 H   0  0  0  0  0  0  0  0  0  0  0  0
  142.4750   81.5168  221.4755 H   0  0  0  0  0  0  0  0  0  0  0  0
  140.9775   81.7955  222.3471 H   0  0  0  0  0  0  0  0  0  0  0  0
  142.1241   80.7627  224.1986 H   0  0  0  0  0  0  0  0  0  0  0  0
  143.7810   79.4780  222.3290 H   0  0  0  0  0  0  0  0  0  0  0  0
  142.2702   78.0958  223.0462 H   0  0  0  0  0  0  0  0  0  0  0  0
  141.0786   78.6981  224.1994 H   0  0  0  0  0  0  0  0  0  0  0  0
  141.7891   77.0121  221.1824 H   0  0  0  0  0  0  0  0  0  0  0  0
  142.3054   74.5834  221.0397 H   0  0  0  0  0  0  0  0  0  0  0  0
  139.3165   68.9135  221.8267 H   0  0  0  0  0  0  0  0  0  0  0  0
  138.7940   67.8127  223.2161 H   0  0  0  0  0  0  0  0  0  0  0  0
  137.3632   69.5379  221.4712 H   0  0  0  0  0  0  0  0  0  0  0  0
  136.8826   67.1486  221.5206 H   0  0  0  0  0  0  0  0  0  0  0  0
  136.5785   67.1849  223.2815 H   0  0  0  0  0  0  0  0  0  0  0  0
  135.0154   68.8746  221.2719 H   0  0  0  0  0  0  0  0  0  0  0  0
  134.4978   67.2334  221.8004 H   0  0  0  0  0  0  0  0  0  0  0  0
  133.7636   69.5315  223.0329 H   0  0  0  0  0  0  0  0  0  0  0  0
  133.8956   67.9398  223.8550 H   0  0  0  0  0  0  0  0  0  0  0  0
  135.1001   69.9859  224.9103 H   0  0  0  0  0  0  0  0  0  0  0  0
  136.0081   68.4308  224.7398 H   0  0  0  0  0  0  0  0  0  0  0  0
  136.1521   70.7805  222.7837 H   0  0  0  0  0  0  0  0  0  0  0  0
  137.3700   70.3931  224.0711 H   0  0  0  0  0  0  0  0  0  0  0  0
  1  2  2  0
  2  3  1  0
  3  4  2  0
  4  5  1  0
  5  6  2  0
  6  7  1  0
  7  8  2  0
  8  9  1  0
  9 10  2  0
 10 11  1  0
 11 12  2  0
 12 13  1  0
 13 14  2  0
 14 15  1  0
 15 16  2  0
 16 17  1  0
 17 18  1  0
 18 19  1  0
 19 20  1  0
 20 21  1  0
 21 22  1  0
 21 23  1  0
 16 24  1  0
 24 25  2  0
 10 26  1  0
 26 27  1  0
 27 28  1  0
 28 29  1  0
 29 30  1  0
 30 31  1  0
 31 32  1  0
 32 33  1  0
 26  2  1  0
 33 28  1  0
  8  3  1  0
 25 13  1  0
 23 18  1  0
  4 34  1  0
  5 35  1  0
  6 36  1  0
  7 37  1  0
 11 38  1  0
 12 39  1  0
 14 40  1  0
 15 41  1  0
 17 42  1  0
 17 43  1  0
 19 44  1  0
 19 45  1  0
 20 46  1  0
 20 47  1  0
 21 48  1  1
 22 49  1  0
 23 50  1  0
 23 51  1  0
 24 52  1  0
 25 53  1  0
 27 54  1  0
 27 55  1  0
 28 56  1  0
 29 57  1  0
 29 58  1  0
 30 59  1  0
 30 60  1  0
 31 61  1  0
 31 62  1  0
 32 63  1  0
 32 64  1  0
 33 65  1  0
 33 66  1  0
M  END
>  <smiles>  (13) 
O=c1c2ccccc2nc(/C=C/c2ccc(CN3CCC(O)C3)cc2)n1CC1CCCCC1

>  <score_type>  (13) 
oracle

>  <origin>  (13) 
autodockgpu

>  <m_score__min__energy>  (13) 
-9.2699999999999996

>  <m_primary>  (13) 
energy

>  <rmsd>  (13) 
11.473294807220297

>  <m_score__min__rmsd>  (13) 
11.473294807220297

>  <meeko>  (13) 
{"free_energy": -9.27, "intermolecular_energy": -11.66, "internal_energy": -1.73, "cluster_size": 33, "cluster_id": 1, "rank_in_cluster": 1}

>  <energy>  (13) 
-8.83

>  <cluster_rmsd>  (13) 
0.82

>  <cluster>  (13) 
1

$$$$

     RDKit          3D

 66 70  0  0  0  0  0  0  0  0999 V2000
  139.1830   67.8520  224.9610 O   0  0  0  0  0  0  0  0  0  0  0  0
  139.6010   69.0420  224.8860 C   0  0  0  0  0  0  0  0  0  0  0  0
  140.0830   69.5920  226.0490 C   0  0  0  0  0  0  0  0  0  0  0  0
  140.1170   68.9040  227.2380 C   0  0  0  0  0  0  0  0  0  0  0  0
  140.6210   69.5360  228.3680 C   0  0  0  0  0  0  0  0  0  0  0  0
  141.0700   70.8380  228.2620 C   0  0  0  0  0  0  0  0  0  0  0  0
  141.0420   71.5410  227.0760 C   0  0  0  0  0  0  0  0  0  0  0  0
  140.5360   70.8840  225.9760 C   0  0  0  0  0  0  0  0  0  0  0  0
  140.4870   71.5120  224.8210 N   0  0  0  0  0  0  0  0  0  0  0  0
  140.0120   70.9880  223.6490 C   0  0  0  0  0  0  0  0  0  0  0  0
  140.0010   71.8890  222.5330 C   0  0  0  0  0  0  0  0  0  0  0  0
  139.3350   72.9660  222.3000 C   0  0  0  0  0  0  0  0  0  0  0  0
  139.9280   74.2640  221.9200 C   0  0  0  0  0  0  0  0  0  0  0  0
  139.2990   75.4510  222.2690 C   0  0  0  0  0  0  0  0  0  0  0  0
  139.8000   76.6920  221.9490 C   0  0  0  0  0  0  0  0  0  0  0  0
  140.9830   76.7810  221.2470 C   0  0  0  0  0  0  0  0  0  0  0  0
  141.5800   78.1010  220.8750 C   0  0  0  0  0  0  0  0  0  0  0  0
  141.5320   79.0990  221.8300 N   0  0  0  0  0  0  0  0  0  0  0  0
  140.5080   80.0480  221.8880 C   0  0  0  0  0  0  0  0  0  0  0  0
  140.4820   80.3660  223.3960 C   0  0  0  0  0  0  0  0  0  0  0  0
  141.9350   80.1860  223.8270 C   0  0  2  0  0  0  0  0  0  0  0  0
  142.5320   81.4320  224.0070 O   0  0  0  0  0  0  0  0  0  0  0  0
  142.5740   79.3810  222.7110 C   0  0  0  0  0  0  0  0  0  0  0  0
  141.6370   75.6240  220.8810 C   0  0  0  0  0  0  0  0  0  0  0  0
  141.1020   74.3750  221.2230 C   0  0  0  0  0  0  0  0  0  0  0  0
  139.5660   69.7320  223.6990 N   0  0  0  0  0  0  0  0  0  0  0  0
  139.0560   68.9820  222.5810 C   0  0  0  0  0  0  0  0  0  0  0  0
  137.5970   69.1040  222.3210 C   0  0  0  0  0  0  0  0  0  0  0  0
  136.8680   67.7600  222.3330 C   0  0  0  0  0  0  0  0  0  0  0  0
  135.3950   68.0190  222.1090 C   0  0  0  0  0  0  0  0  0  0  0  0
  134.7970   68.6440  223.3220 C   0  0  0  0  0  0  0  0  0  0  0  0
  135.8810   69.3220  224.1240 C   0  0  0  0  0  0  0  0  0  0  0  0
  136.8800   70.0460  223.2060 C   0  0  0  0  0  0  0  0  0  0  0  0
  139.7507   67.8683  227.2943 H   0  0  0  0  0  0  0  0  0  0  0  0
  140.6618   69.0078  229.3320 H   0  0  0  0  0  0  0  0  0  0  0  0
  141.4660   71.3343  229.1602 H   0  0  0  0  0  0  0  0  0  0  0  0
  141.4063   72.5769  227.0114 H   0  0  0  0  0  0  0  0  0  0  0  0
  140.6912   71.6069  221.7243 H   0  0  0  0  0  0  0  0  0  0  0  0
  138.2399   72.9154  222.3910 H   0  0  0  0  0  0  0  0  0  0  0  0
  138.3537   75.3970  222.8288 H   0  0  0  0  0  0  0  0  0  0  0  0
  139.2623   77.6032  222.2501 H   0  0  0  0  0  0  0  0  0  0  0  0
  142.6377   77.9294  220.6262 H   0  0  0  0  0  0  0  0  0  0  0  0
  140.9639   78.4705  220.0420 H   0  0  0  0  0  0  0  0  0  0  0  0
  140.7504   80.9400  221.2917 H   0  0  0  0  0  0  0  0  0  0  0  0
  139.5462   79.7007  221.4825 H   0  0  0  0  0  0  0  0  0  0  0  0
  140.1447   81.3978  223.5738 H   0  0  0  0  0  0  0  0  0  0  0  0
  139.7876   79.7225  223.9561 H   0  0  0  0  0  0  0  0  0  0  0  0
  142.0458   79.6646  224.7892 H   0  0  0  0  0  0  0  0  0  0  0  0
  143.4360   81.3610  223.5700 H   0  0  0  0  0  0  0  0  0  0  0  0
  143.3567   79.9688  222.2091 H   0  0  0  0  0  0  0  0  0  0  0  0
  143.0587   78.4671  223.0850 H   0  0  0  0  0  0  0  0  0  0  0  0
  142.5810   75.6815  220.3192 H   0  0  0  0  0  0  0  0  0  0  0  0
  141.6376   73.4617  220.9247 H   0  0  0  0  0  0  0  0  0  0  0  0
  139.5873   69.3203  221.6792 H   0  0  0  0  0  0  0  0  0  0  0  0
  139.2231   67.9247  222.8342 H   0  0  0  0  0  0  0  0  0  0  0  0
  137.5719   69.5249  221.3050 H   0  0  0  0  0  0  0  0  0  0  0  0
  137.2592   67.1171  221.5307 H   0  0  0  0  0  0  0  0  0  0  0  0
  137.0222   67.2529  223.2969 H   0  0  0  0  0  0  0  0  0  0  0  0
  135.2706   68.6964  221.2513 H   0  0  0  0  0  0  0  0  0  0  0  0
  134.8872   67.0643  221.9073 H   0  0  0  0  0  0  0  0  0  0  0  0
  134.0454   69.3878  223.0188 H   0  0  0  0  0  0  0  0  0  0  0  0
  134.3171   67.8678  223.9362 H   0  0  0  0  0  0  0  0  0  0  0  0
  135.4204   70.0552  224.8024 H   0  0  0  0  0  0  0  0  0  0  0  0
  136.4245   68.5545  224.6946 H   0  0  0  0  0  0  0  0  0  0  0  0
  136.3323   70.7704  222.5853 H   0  0  0  0  0  0  0  0  0  0  0  0
  137.6232   70.5504  223.8410 H   0  0  0  0  0  0  0  0  0  0  0  0
  1  2  2  0
  2  3  1  0
  3  4  2  0
  4  5  1  0
  5  6  2  0
  6  7  1  0
  7  8  2  0
  8  9  1  0
  9 10  2  0
 10 11  1  0
 11 12  2  0
 12 13  1  0
 13 14  2  0
 14 15  1  0
 15 16  2  0
 16 17  1  0
 17 18  1  0
 18 19  1  0
 19 20  1  0
 20 21  1  0
 21 22  1  0
 21 23  1  0
 16 24  1  0
 24 25  2  0
 10 26  1  0
 26 27  1  0
 27 28  1  0
 28 29  1  0
 29 30  1  0
 30 31  1  0
 31 32  1  0
 32 33  1  0
 26  2  1  0
 33 28  1  0
  8  3  1  0
 25 13  1  0
 23 18  1  0
  4 34  1  0
  5 35  1  0
  6 36  1  0
  7 37  1  0
 11 38  1  0
 12 39  1  0
 14 40  1  0
 15 41  1  0
 17 42  1  0
 17 43  1  0
 19 44  1  0
 19 45  1  0
 20 46  1  0
 20 47  1  0
 21 48  1  1
 22 49  1  0
 23 50  1  0
 23 51  1  0
 24 52  1  0
 25 53  1  0
 27 54  1  0
 27 55  1  0
 28 56  1  0
 29 57  1  0
 29 58  1  0
 30 59  1  0
 30 60  1  0
 31 61  1  0
 31 62  1  0
 32 63  1  0
 32 64  1  0
 33 65  1  0
 33 66  1  0
M  END
>  <smiles>  (14) 
O=c1c2ccccc2nc(/C=C/c2ccc(CN3CCC(O)C3)cc2)n1CC1CCCCC1

>  <score_type>  (14) 
oracle

>  <origin>  (14) 
autodockgpu

>  <m_score__min__energy>  (14) 
-9.2699999999999996

>  <m_primary>  (14) 
energy

>  <rmsd>  (14) 
11.641253130793046

>  <m_score__min__rmsd>  (14) 
11.641253130793046

>  <meeko>  (14) 
{"free_energy": -8.72, "intermolecular_energy": -11.11, "internal_energy": -1.74, "cluster_size": 33, "cluster_id": 1, "rank_in_cluster": 19}

>  <energy>  (14) 
-8.81

>  <cluster_rmsd>  (14) 
0.85

>  <cluster>  (14) 
1

$$$$

     RDKit          3D

 66 70  0  0  0  0  0  0  0  0999 V2000
  138.8390   67.1920  223.8120 O   0  0  0  0  0  0  0  0  0  0  0  0
  139.1140   68.0710  222.9460 C   0  0  0  0  0  0  0  0  0  0  0  0
  139.3230   67.6190  221.6660 C   0  0  0  0  0  0  0  0  0  0  0  0
  139.2420   66.2900  221.3240 C   0  0  0  0  0  0  0  0  0  0  0  0
  139.4670   65.9190  220.0050 C   0  0  0  0  0  0  0  0  0  0  0  0
  139.7680   66.8960  219.0760 C   0  0  0  0  0  0  0  0  0  0  0  0
  139.8540   68.2330  219.4040 C   0  0  0  0  0  0  0  0  0  0  0  0
  139.6240   68.5660  220.7210 C   0  0  0  0  0  0  0  0  0  0  0  0
  139.6950   69.8280  221.0850 N   0  0  0  0  0  0  0  0  0  0  0  0
  139.4920   70.3050  222.3510 C   0  0  0  0  0  0  0  0  0  0  0  0
  139.6860   71.7160  222.5160 C   0  0  0  0  0  0  0  0  0  0  0  0
  140.3350   72.5850  221.8220 C   0  0  0  0  0  0  0  0  0  0  0  0
  140.1640   74.0490  221.9200 C   0  0  0  0  0  0  0  0  0  0  0  0
  138.9490   74.5870  222.3190 C   0  0  0  0  0  0  0  0  0  0  0  0
  138.7260   75.9410  222.4340 C   0  0  0  0  0  0  0  0  0  0  0  0
  139.7470   76.8190  222.1420 C   0  0  0  0  0  0  0  0  0  0  0  0
  139.5670   78.3000  222.2530 C   0  0  0  0  0  0  0  0  0  0  0  0
  140.7150   79.0680  222.2810 N   0  0  0  0  0  0  0  0  0  0  0  0
  141.1960   79.7590  221.1650 C   0  0  0  0  0  0  0  0  0  0  0  0
  141.9180   80.9420  221.8370 C   0  0  0  0  0  0  0  0  0  0  0  0
  142.4190   80.3560  223.1550 C   0  0  2  0  0  0  0  0  0  0  0  0
  143.7900   80.1160  223.0730 O   0  0  0  0  0  0  0  0  0  0  0  0
  141.6090   79.0900  223.3490 C   0  0  0  0  0  0  0  0  0  0  0  0
  140.9690   76.3220  221.7410 C   0  0  0  0  0  0  0  0  0  0  0  0
  141.1650   74.9400  221.6350 C   0  0  0  0  0  0  0  0  0  0  0  0
  139.1980   69.3990  223.2860 N   0  0  0  0  0  0  0  0  0  0  0  0
  138.9170   69.6860  224.6680 C   0  0  0  0  0  0  0  0  0  0  0  0
  140.0910   70.0070  225.5220 C   0  0  0  0  0  0  0  0  0  0  0  0
  140.2690   71.5060  225.7650 C   0  0  0  0  0  0  0  0  0  0  0  0
  141.4560   71.7000  226.6810 C   0  0  0  0  0  0  0  0  0  0  0  0
  141.1120   71.2580  228.0610 C   0  0  0  0  0  0  0  0  0  0  0  0
  139.9700   70.2730  228.0030 C   0  0  0  0  0  0  0  0  0  0  0  0
  140.1320   69.3030  226.8210 C   0  0  0  0  0  0  0  0  0  0  0  0
  139.0025   65.5317  222.0840 H   0  0  0  0  0  0  0  0  0  0  0  0
  139.4064   64.8626  219.7043 H   0  0  0  0  0  0  0  0  0  0  0  0
  139.9463   66.5957  218.0329 H   0  0  0  0  0  0  0  0  0  0  0  0
  140.0947   68.9969  218.6501 H   0  0  0  0  0  0  0  0  0  0  0  0
  139.1865   72.1349  223.4020 H   0  0  0  0  0  0  0  0  0  0  0  0
  141.0743   72.2079  221.1000 H   0  0  0  0  0  0  0  0  0  0  0  0
  138.1240   73.8987  222.5549 H   0  0  0  0  0  0  0  0  0  0  0  0
  137.7437   76.3175  222.7554 H   0  0  0  0  0  0  0  0  0  0  0  0
  138.9686   78.6278  221.3902 H   0  0  0  0  0  0  0  0  0  0  0  0
  139.0913   78.4589  223.2320 H   0  0  0  0  0  0  0  0  0  0  0  0
  141.8923   79.1423  220.5778 H   0  0  0  0  0  0  0  0  0  0  0  0
  140.4180   80.0536  220.4454 H   0  0  0  0  0  0  0  0  0  0  0  0
  142.7577   81.2920  221.2186 H   0  0  0  0  0  0  0  0  0  0  0  0
  141.2652   81.8159  221.9789 H   0  0  0  0  0  0  0  0  0  0  0  0
  142.2884   81.0308  224.0139 H   0  0  0  0  0  0  0  0  0  0  0  0
  143.9000   79.4520  222.3240 H   0  0  0  0  0  0  0  0  0  0  0  0
  142.2623   78.2053  223.3249 H   0  0  0  0  0  0  0  0  0  0  0  0
  141.0933   79.0737  224.3205 H   0  0  0  0  0  0  0  0  0  0  0  0
  141.7915   77.0128  221.5039 H   0  0  0  0  0  0  0  0  0  0  0  0
  142.1465   74.5602  221.3151 H   0  0  0  0  0  0  0  0  0  0  0  0
  138.2329   70.5468  224.7000 H   0  0  0  0  0  0  0  0  0  0  0  0
  138.4956   68.7582  225.0823 H   0  0  0  0  0  0  0  0  0  0  0  0
  140.9310   69.6319  224.9189 H   0  0  0  0  0  0  0  0  0  0  0  0
  140.4491   72.0191  224.8088 H   0  0  0  0  0  0  0  0  0  0  0  0
  139.3623   71.9260  226.2249 H   0  0  0  0  0  0  0  0  0  0  0  0
  142.3040   71.1063  226.3091 H   0  0  0  0  0  0  0  0  0  0  0  0
  141.7269   72.7660  226.7002 H   0  0  0  0  0  0  0  0  0  0  0  0
  141.9879   70.7774  228.5213 H   0  0  0  0  0  0  0  0  0  0  0  0
  140.8145   72.1299  228.6621 H   0  0  0  0  0  0  0  0  0  0  0  0
  139.9455   69.6965  228.9395 H   0  0  0  0  0  0  0  0  0  0  0  0
  139.0331   70.8334  227.8679 H   0  0  0  0  0  0  0  0  0  0  0  0
  141.0982   68.7857  226.9150 H   0  0  0  0  0  0  0  0  0  0  0  0
  139.2960   68.5886  226.8486 H   0  0  0  0  0  0  0  0  0  0  0  0
  1  2  2  0
  2  3  1  0
  3  4  2  0
  4  5  1  0
  5  6  2  0
  6  7  1  0
  7  8  2  0
  8  9  1  0
  9 10  2  0
 10 11  1  0
 11 12  2  0
 12 13  1  0
 13 14  2  0
 14 15  1  0
 15 16  2  0
 16 17  1  0
 17 18  1  0
 18 19  1  0
 19 20  1  0
 20 21  1  0
 21 22  1  0
 21 23  1  0
 16 24  1  0
 24 25  2  0
 10 26  1  0
 26 27  1  0
 27 28  1  0
 28 29  1  0
 29 30  1  0
 30 31  1  0
 31 32  1  0
 32 33  1  0
 26  2  1  0
 33 28  1  0
  8  3  1  0
 25 13  1  0
 23 18  1  0
  4 34  1  0
  5 35  1  0
  6 36  1  0
  7 37  1  0
 11 38  1  0
 12 39  1  0
 14 40  1  0
 15 41  1  0
 17 42  1  0
 17 43  1  0
 19 44  1  0
 19 45  1  0
 20 46  1  0
 20 47  1  0
 21 48  1  1
 22 49  1  0
 23 50  1  0
 23 51  1  0
 24 52  1  0
 25 53  1  0
 27 54  1  0
 27 55  1  0
 28 56  1  0
 29 57  1  0
 29 58  1  0
 30 59  1  0
 30 60  1  0
 31 61  1  0
 31 62  1  0
 32 63  1  0
 32 64  1  0
 33 65  1  0
 33 66  1  0
M  END
>  <smiles>  (15) 
O=c1c2ccccc2nc(/C=C/c2ccc(CN3CCC(O)C3)cc2)n1CC1CCCCC1

>  <score_type>  (15) 
oracle

>  <origin>  (15) 
autodockgpu

>  <m_score__min__energy>  (15) 
-9.2699999999999996

>  <m_primary>  (15) 
energy

>  <rmsd>  (15) 
12.314232214792556

>  <m_score__min__rmsd>  (15) 
12.314232214792556

>  <meeko>  (15) 
{"free_energy": -8.45, "intermolecular_energy": -10.84, "internal_energy": -1.53, "cluster_size": 1, "cluster_id": 5, "rank_in_cluster": 1}

>  <energy>  (15) 
-8.81

>  <cluster_rmsd>  (15) 
0.94

>  <cluster>  (15) 
1

$$$$

     RDKit          3D

 66 70  0  0  0  0  0  0  0  0999 V2000
  138.4650   68.1720  225.6010 O   0  0  0  0  0  0  0  0  0  0  0  0
  139.1110   69.1470  225.1210 C   0  0  0  0  0  0  0  0  0  0  0  0
  139.8090   69.9160  226.0190 C   0  0  0  0  0  0  0  0  0  0  0  0
  139.8180   69.6580  227.3700 C   0  0  0  0  0  0  0  0  0  0  0  0
  140.5510   70.4860  228.2090 C   0  0  0  0  0  0  0  0  0  0  0  0
  141.2470   71.5460  227.6620 C   0  0  0  0  0  0  0  0  0  0  0  0
  141.2470   71.8180  226.3100 C   0  0  0  0  0  0  0  0  0  0  0  0
  140.5110   70.9760  225.5070 C   0  0  0  0  0  0  0  0  0  0  0  0
  140.4780   71.1940  224.2090 N   0  0  0  0  0  0  0  0  0  0  0  0
  139.7920   70.4440  223.2930 C   0  0  0  0  0  0  0  0  0  0  0  0
  139.8560   70.9160  221.9400 C   0  0  0  0  0  0  0  0  0  0  0  0
  139.0200   71.5740  221.2150 C   0  0  0  0  0  0  0  0  0  0  0  0
  137.6270   71.8840  221.5950 C   0  0  0  0  0  0  0  0  0  0  0  0
  137.3620   72.6590  222.7140 C   0  0  0  0  0  0  0  0  0  0  0  0
  136.0880   72.9870  223.1200 C   0  0  0  0  0  0  0  0  0  0  0  0
  135.0110   72.5290  222.3930 C   0  0  0  0  0  0  0  0  0  0  0  0
  133.6040   72.8560  222.7810 C   0  0  0  0  0  0  0  0  0  0  0  0
  133.2920   72.7740  224.1250 N   0  0  0  0  0  0  0  0  0  0  0  0
  132.2990   71.9270  224.6260 C   0  0  0  0  0  0  0  0  0  0  0  0
  132.8370   71.6420  226.0410 C   0  0  0  0  0  0  0  0  0  0  0  0
  133.5740   72.9270  226.4110 C   0  0  2  0  0  0  0  0  0  0  0  0
  132.8100   73.6670  227.3110 O   0  0  0  0  0  0  0  0  0  0  0  0
  133.7910   73.6440  225.0920 C   0  0  0  0  0  0  0  0  0  0  0  0
  135.2330   71.7550  221.2740 C   0  0  0  0  0  0  0  0  0  0  0  0
  136.5420   71.4400  220.8860 C   0  0  0  0  0  0  0  0  0  0  0  0
  139.1020   69.4080  223.7720 N   0  0  0  0  0  0  0  0  0  0  0  0
  138.3400   68.4760  222.9840 C   0  0  0  0  0  0  0  0  0  0  0  0
  136.9290   68.8540  222.7030 C   0  0  0  0  0  0  0  0  0  0  0  0
  136.0390   67.6580  222.3650 C   0  0  0  0  0  0  0  0  0  0  0  0
  134.6290   68.1630  222.1520 C   0  0  0  0  0  0  0  0  0  0  0  0
  134.0300   68.5670  223.4540 C   0  0  0  0  0  0  0  0  0  0  0  0
  135.1310   68.8850  224.4360 C   0  0  0  0  0  0  0  0  0  0  0  0
  136.2750   69.6570  223.7580 C   0  0  0  0  0  0  0  0  0  0  0  0
  139.2526   68.8080  227.7796 H   0  0  0  0  0  0  0  0  0  0  0  0
  140.5771   70.3007  229.2930 H   0  0  0  0  0  0  0  0  0  0  0  0
  141.8248   72.1998  228.3318 H   0  0  0  0  0  0  0  0  0  0  0  0
  141.8083   72.6672  225.8931 H   0  0  0  0  0  0  0  0  0  0  0  0
  140.7962   70.6694  221.4250 H   0  0  0  0  0  0  0  0  0  0  0  0
  139.3706   71.9333  220.2362 H   0  0  0  0  0  0  0  0  0  0  0  0
  138.2114   73.0299  223.3064 H   0  0  0  0  0  0  0  0  0  0  0  0
  135.9318   73.6077  224.0146 H   0  0  0  0  0  0  0  0  0  0  0  0
  133.3999   73.8864  222.4545 H   0  0  0  0  0  0  0  0  0  0  0  0
  132.9858   72.0868  222.2951 H   0  0  0  0  0  0  0  0  0  0  0  0
  131.3205   72.4284  224.6599 H   0  0  0  0  0  0  0  0  0  0  0  0
  132.1243   71.0265  224.0189 H   0  0  0  0  0  0  0  0  0  0  0  0
  132.0126   71.4463  226.7425 H   0  0  0  0  0  0  0  0  0  0  0  0
  133.4827   70.7524  226.0814 H   0  0  0  0  0  0  0  0  0  0  0  0
  134.5356   72.7514  226.9155 H   0  0  0  0  0  0  0  0  0  0  0  0
  132.7350   73.0920  228.1340 H   0  0  0  0  0  0  0  0  0  0  0  0
  133.2426   74.5974  225.0749 H   0  0  0  0  0  0  0  0  0  0  0  0
  134.8501   73.8881  224.9226 H   0  0  0  0  0  0  0  0  0  0  0  0
  134.3813   71.3842  220.6849 H   0  0  0  0  0  0  0  0  0  0  0  0
  136.7024   70.8214  219.9907 H   0  0  0  0  0  0  0  0  0  0  0  0
  138.8534   68.3540  222.0188 H   0  0  0  0  0  0  0  0  0  0  0  0
  138.2845   67.5573  223.5864 H   0  0  0  0  0  0  0  0  0  0  0  0
  137.0280   69.4964  221.8156 H   0  0  0  0  0  0  0  0  0  0  0  0
  136.4025   67.1707  221.4482 H   0  0  0  0  0  0  0  0  0  0  0  0
  136.0602   66.9250  223.1849 H   0  0  0  0  0  0  0  0  0  0  0  0
  134.6512   69.0308  221.4764 H   0  0  0  0  0  0  0  0  0  0  0  0
  134.0213   67.3603  221.7088 H   0  0  0  0  0  0  0  0  0  0  0  0
  133.4005   69.4571  223.3077 H   0  0  0  0  0  0  0  0  0  0  0  0
  133.4147   67.7438  223.8462 H   0  0  0  0  0  0  0  0  0  0  0  0
  134.7187   69.4975  225.2514 H   0  0  0  0  0  0  0  0  0  0  0  0
  135.5331   67.9387  224.8269 H   0  0  0  0  0  0  0  0  0  0  0  0
  135.8676   70.5737  223.3067 H   0  0  0  0  0  0  0  0  0  0  0  0
  137.0283   69.8945  224.5236 H   0  0  0  0  0  0  0  0  0  0  0  0
  1  2  2  0
  2  3  1  0
  3  4  2  0
  4  5  1  0
  5  6  2  0
  6  7  1  0
  7  8  2  0
  8  9  1  0
  9 10  2  0
 10 11  1  0
 11 12  2  0
 12 13  1  0
 13 14  2  0
 14 15  1  0
 15 16  2  0
 16 17  1  0
 17 18  1  0
 18 19  1  0
 19 20  1  0
 20 21  1  0
 21 22  1  0
 21 23  1  0
 16 24  1  0
 24 25  2  0
 10 26  1  0
 26 27  1  0
 27 28  1  0
 28 29  1  0
 29 30  1  0
 30 31  1  0
 31 32  1  0
 32 33  1  0
 26  2  1  0
 33 28  1  0
  8  3  1  0
 25 13  1  0
 23 18  1  0
  4 34  1  0
  5 35  1  0
  6 36  1  0
  7 37  1  0
 11 38  1  0
 12 39  1  0
 14 40  1  0
 15 41  1  0
 17 42  1  0
 17 43  1  0
 19 44  1  0
 19 45  1  0
 20 46  1  0
 20 47  1  0
 21 48  1  1
 22 49  1  0
 23 50  1  0
 23 51  1  0
 24 52  1  0
 25 53  1  0
 27 54  1  0
 27 55  1  0
 28 56  1  0
 29 57  1  0
 29 58  1  0
 30 59  1  0
 30 60  1  0
 31 61  1  0
 31 62  1  0
 32 63  1  0
 32 64  1  0
 33 65  1  0
 33 66  1  0
M  END
>  <smiles>  (16) 
O=c1c2ccccc2nc(/C=C/c2ccc(CN3CCC(O)C3)cc2)n1CC1CCCCC1

>  <score_type>  (16) 
oracle

>  <origin>  (16) 
autodockgpu

>  <m_score__min__energy>  (16) 
-9.2699999999999996

>  <m_primary>  (16) 
energy

>  <rmsd>  (16) 
11.558618527733943

>  <m_score__min__rmsd>  (16) 
11.558618527733943

>  <meeko>  (16) 
{"free_energy": -6.54, "intermolecular_energy": -8.93, "internal_energy": -3.17, "cluster_size": 1, "cluster_id": 9, "rank_in_cluster": 1}

>  <energy>  (16) 
-8.8

>  <cluster_rmsd>  (16) 
0.76

>  <cluster>  (16) 
1

$$$$

     RDKit          3D

 66 70  0  0  0  0  0  0  0  0999 V2000
  139.0940   68.0800  224.9980 O   0  0  0  0  0  0  0  0  0  0  0  0
  139.4850   69.2810  224.9410 C   0  0  0  0  0  0  0  0  0  0  0  0
  140.0650   69.7870  226.0780 C   0  0  0  0  0  0  0  0  0  0  0  0
  140.2210   69.0460  227.2260 C   0  0  0  0  0  0  0  0  0  0  0  0
  140.8190   69.6350  228.3320 C   0  0  0  0  0  0  0  0  0  0  0  0
  141.2370   70.9480  228.2470 C   0  0  0  0  0  0  0  0  0  0  0  0
  141.0870   71.7050  227.1030 C   0  0  0  0  0  0  0  0  0  0  0  0
  140.4910   71.0890  226.0250 C   0  0  0  0  0  0  0  0  0  0  0  0
  140.3240   71.7680  224.9100 N   0  0  0  0  0  0  0  0  0  0  0  0
  139.7500   71.2890  223.7640 C   0  0  0  0  0  0  0  0  0  0  0  0
  139.6200   72.2380  222.6970 C   0  0  0  0  0  0  0  0  0  0  0  0
  140.4940   72.8650  221.9890 C   0  0  0  0  0  0  0  0  0  0  0  0
  140.4380   74.3000  221.6460 C   0  0  0  0  0  0  0  0  0  0  0  0
  139.5040   75.1300  222.2520 C   0  0  0  0  0  0  0  0  0  0  0  0
  139.4020   76.4750  221.9790 C   0  0  0  0  0  0  0  0  0  0  0  0
  140.2580   77.0430  221.0610 C   0  0  0  0  0  0  0  0  0  0  0  0
  140.1980   78.5000  220.7260 C   0  0  0  0  0  0  0  0  0  0  0  0
  141.0820   79.3290  221.3900 N   0  0  0  0  0  0  0  0  0  0  0  0
  141.3070   80.6570  221.0170 C   0  0  0  0  0  0  0  0  0  0  0  0
  141.6890   81.2860  222.3700 C   0  0  0  0  0  0  0  0  0  0  0  0
  142.3820   80.1470  223.1140 C   0  0  2  0  0  0  0  0  0  0  0  0
  143.7600   80.3520  223.1110 O   0  0  0  0  0  0  0  0  0  0  0  0
  141.9700   78.8910  222.3690 C   0  0  0  0  0  0  0  0  0  0  0  0
  141.1990   76.2520  220.4360 C   0  0  0  0  0  0  0  0  0  0  0  0
  141.2790   74.8860  220.7360 C   0  0  0  0  0  0  0  0  0  0  0  0
  139.3290   70.0230  223.7950 N   0  0  0  0  0  0  0  0  0  0  0  0
  138.7280   69.3150  222.6960 C   0  0  0  0  0  0  0  0  0  0  0  0
  137.2590   69.4820  222.5330 C   0  0  0  0  0  0  0  0  0  0  0  0
  136.4800   69.2800  223.8330 C   0  0  0  0  0  0  0  0  0  0  0  0
  135.0150   69.5240  223.5510 C   0  0  0  0  0  0  0  0  0  0  0  0
  134.7740   70.9780  223.3340 C   0  0  0  0  0  0  0  0  0  0  0  0
  136.0600   71.6420  222.9060 C   0  0  0  0  0  0  0  0  0  0  0  0
  136.8390   70.7590  221.9180 C   0  0  0  0  0  0  0  0  0  0  0  0
  139.8770   68.0020  227.2674 H   0  0  0  0  0  0  0  0  0  0  0  0
  140.9576   69.0641  229.2620 H   0  0  0  0  0  0  0  0  0  0  0  0
  141.7088   71.4095  229.1270 H   0  0  0  0  0  0  0  0  0  0  0  0
  141.4271   72.7500  227.0544 H   0  0  0  0  0  0  0  0  0  0  0  0
  138.5785   72.4748  222.4339 H   0  0  0  0  0  0  0  0  0  0  0  0
  141.3492   72.2862  221.6101 H   0  0  0  0  0  0  0  0  0  0  0  0
  138.8121   74.6911  222.9859 H   0  0  0  0  0  0  0  0  0  0  0  0
  138.6452   77.0899  222.4882 H   0  0  0  0  0  0  0  0  0  0  0  0
  140.3920   78.6018  219.6480 H   0  0  0  0  0  0  0  0  0  0  0  0
  139.1986   78.8283  221.0476 H   0  0  0  0  0  0  0  0  0  0  0  0
  142.1274   80.7379  220.2887 H   0  0  0  0  0  0  0  0  0  0  0  0
  140.4514   81.1381  220.5205 H   0  0  0  0  0  0  0  0  0  0  0  0
  142.3729   82.1359  222.2286 H   0  0  0  0  0  0  0  0  0  0  0  0
  140.8213   81.6863  222.9149 H   0  0  0  0  0  0  0  0  0  0  0  0
  142.0969   80.0763  224.1741 H   0  0  0  0  0  0  0  0  0  0  0  0
  144.1010   79.8640  222.2990 H   0  0  0  0  0  0  0  0  0  0  0  0
  142.8455   78.4091  221.9094 H   0  0  0  0  0  0  0  0  0  0  0  0
  141.5146   78.1447  223.0365 H   0  0  0  0  0  0  0  0  0  0  0  0
  141.8876   76.6942  219.7010 H   0  0  0  0  0  0  0  0  0  0  0  0
  142.0351   74.2686  220.2289 H   0  0  0  0  0  0  0  0  0  0  0  0
  139.2101   69.6611  221.7698 H   0  0  0  0  0  0  0  0  0  0  0  0
  138.8809   68.2477  222.9141 H   0  0  0  0  0  0  0  0  0  0  0  0
  137.0070   68.6774  221.8266 H   0  0  0  0  0  0  0  0  0  0  0  0
  136.6226   68.2515  224.1962 H   0  0  0  0  0  0  0  0  0  0  0  0
  136.8394   69.9788  224.6028 H   0  0  0  0  0  0  0  0  0  0  0  0
  134.7197   68.9671  222.6495 H   0  0  0  0  0  0  0  0  0  0  0  0
  134.4198   69.1834  224.4110 H   0  0  0  0  0  0  0  0  0  0  0  0
  134.0140   71.1108  222.5499 H   0  0  0  0  0  0  0  0  0  0  0  0
  134.4189   71.4347  224.2696 H   0  0  0  0  0  0  0  0  0  0  0  0
  135.8247   72.6012  222.4216 H   0  0  0  0  0  0  0  0  0  0  0  0
  136.6838   71.8009  223.7980 H   0  0  0  0  0  0  0  0  0  0  0  0
  136.1965   70.5423  221.0518 H   0  0  0  0  0  0  0  0  0  0  0  0
  137.7442   71.3048  221.6135 H   0  0  0  0  0  0  0  0  0  0  0  0
  1  2  2  0
  2  3  1  0
  3  4  2  0
  4  5  1  0
  5  6  2  0
  6  7  1  0
  7  8  2  0
  8  9  1  0
  9 10  2  0
 10 11  1  0
 11 12  2  0
 12 13  1  0
 13 14  2  0
 14 15  1  0
 15 16  2  0
 16 17  1  0
 17 18  1  0
 18 19  1  0
 19 20  1  0
 20 21  1  0
 21 22  1  0
 21 23  1  0
 16 24  1  0
 24 25  2  0
 10 26  1  0
 26 27  1  0
 27 28  1  0
 28 29  1  0
 29 30  1  0
 30 31  1  0
 31 32  1  0
 32 33  1  0
 26  2  1  0
 33 28  1  0
  8  3  1  0
 25 13  1  0
 23 18  1  0
  4 34  1  0
  5 35  1  0
  6 36  1  0
  7 37  1  0
 11 38  1  0
 12 39  1  0
 14 40  1  0
 15 41  1  0
 17 42  1  0
 17 43  1  0
 19 44  1  0
 19 45  1  0
 20 46  1  0
 20 47  1  0
 21 48  1  1
 22 49  1  0
 23 50  1  0
 23 51  1  0
 24 52  1  0
 25 53  1  0
 27 54  1  0
 27 55  1  0
 28 56  1  0
 29 57  1  0
 29 58  1  0
 30 59  1  0
 30 60  1  0
 31 61  1  0
 31 62  1  0
 32 63  1  0
 32 64  1  0
 33 65  1  0
 33 66  1  0
M  END
>  <smiles>  (17) 
O=c1c2ccccc2nc(/C=C/c2ccc(CN3CCC(O)C3)cc2)n1CC1CCCCC1

>  <score_type>  (17) 
oracle

>  <origin>  (17) 
autodockgpu

>  <m_score__min__energy>  (17) 
-9.2699999999999996

>  <m_primary>  (17) 
energy

>  <rmsd>  (17) 
11.398492657632593

>  <m_score__min__rmsd>  (17) 
11.398492657632593

>  <meeko>  (17) 
{"free_energy": -8.81, "intermolecular_energy": -11.2, "internal_energy": -1.79, "cluster_size": 33, "cluster_id": 1, "rank_in_cluster": 14}

>  <energy>  (17) 
-8.78

>  <cluster_rmsd>  (17) 
0.94

>  <cluster>  (17) 
1

$$$$

     RDKit          3D

 66 70  0  0  0  0  0  0  0  0999 V2000
  138.9720   68.1140  224.9560 O   0  0  0  0  0  0  0  0  0  0  0  0
  139.3870   69.3080  224.9170 C   0  0  0  0  0  0  0  0  0  0  0  0
  139.9690   69.7870  226.0650 C   0  0  0  0  0  0  0  0  0  0  0  0
  140.1030   69.0280  227.2040 C   0  0  0  0  0  0  0  0  0  0  0  0
  140.7050   69.5910  228.3220 C   0  0  0  0  0  0  0  0  0  0  0  0
  141.1490   70.8970  228.2570 C   0  0  0  0  0  0  0  0  0  0  0  0
  141.0220   71.6710  227.1220 C   0  0  0  0  0  0  0  0  0  0  0  0
  140.4210   71.0810  226.0320 C   0  0  0  0  0  0  0  0  0  0  0  0
  140.2750   71.7780  224.9250 N   0  0  0  0  0  0  0  0  0  0  0  0
  139.7000   71.3250  223.7700 C   0  0  0  0  0  0  0  0  0  0  0  0
  139.5960   72.2910  222.7140 C   0  0  0  0  0  0  0  0  0  0  0  0
  140.4470   72.7130  221.8440 C   0  0  0  0  0  0  0  0  0  0  0  0
  140.7330   74.1330  221.5570 C   0  0  0  0  0  0  0  0  0  0  0  0
  141.8310   74.4840  220.7830 C   0  0  0  0  0  0  0  0  0  0  0  0
  142.1510   75.7870  220.4770 C   0  0  0  0  0  0  0  0  0  0  0  0
  141.3550   76.8060  220.9530 C   0  0  0  0  0  0  0  0  0  0  0  0
  141.6490   78.2420  220.6490 C   0  0  0  0  0  0  0  0  0  0  0  0
  141.5370   79.1370  221.6960 N   0  0  0  0  0  0  0  0  0  0  0  0
  140.4300   79.9720  221.8690 C   0  0  0  0  0  0  0  0  0  0  0  0
  140.4220   80.1440  223.3990 C   0  0  0  0  0  0  0  0  0  0  0  0
  141.9000   80.0680  223.7770 C   0  0  2  0  0  0  0  0  0  0  0  0
  142.3800   81.3450  224.0610 O   0  0  0  0  0  0  0  0  0  0  0  0
  142.5750   79.4370  222.5750 C   0  0  0  0  0  0  0  0  0  0  0  0
  140.2560   76.4980  221.7270 C   0  0  0  0  0  0  0  0  0  0  0  0
  139.9560   75.1620  222.0200 C   0  0  0  0  0  0  0  0  0  0  0  0
  139.2540   70.0680  223.7810 N   0  0  0  0  0  0  0  0  0  0  0  0
  138.6470   69.3870  222.6680 C   0  0  0  0  0  0  0  0  0  0  0  0
  137.1660   69.4840  222.5690 C   0  0  0  0  0  0  0  0  0  0  0  0
  136.4630   68.1310  222.6910 C   0  0  0  0  0  0  0  0  0  0  0  0
  134.9700   68.3660  222.6270 C   0  0  0  0  0  0  0  0  0  0  0  0
  134.5010   69.0110  223.8840 C   0  0  0  0  0  0  0  0  0  0  0  0
  135.6570   69.7220  224.5460 C   0  0  0  0  0  0  0  0  0  0  0  0
  136.5370   70.4370  223.5080 C   0  0  0  0  0  0  0  0  0  0  0  0
  139.7388   67.9903  227.2293 H   0  0  0  0  0  0  0  0  0  0  0  0
  140.8262   69.0054  229.2452 H   0  0  0  0  0  0  0  0  0  0  0  0
  141.6231   71.3381  229.1462 H   0  0  0  0  0  0  0  0  0  0  0  0
  141.3833   72.7094  227.0891 H   0  0  0  0  0  0  0  0  0  0  0  0
  138.6038   72.7587  222.6321 H   0  0  0  0  0  0  0  0  0  0  0  0
  141.0037   71.9572  221.2705 H   0  0  0  0  0  0  0  0  0  0  0  0
  142.4763   73.6818  220.3957 H   0  0  0  0  0  0  0  0  0  0  0  0
  143.0327   76.0126  219.8591 H   0  0  0  0  0  0  0  0  0  0  0  0
  142.6812   78.2977  220.2728 H   0  0  0  0  0  0  0  0  0  0  0  0
  140.8774   78.5467  219.9267 H   0  0  0  0  0  0  0  0  0  0  0  0
  140.5673   80.9352  221.3557 H   0  0  0  0  0  0  0  0  0  0  0  0
  139.4930   79.5715  221.4546 H   0  0  0  0  0  0  0  0  0  0  0  0
  139.9936   81.1167  223.6826 H   0  0  0  0  0  0  0  0  0  0  0  0
  139.8105   79.3864  223.9110 H   0  0  0  0  0  0  0  0  0  0  0  0
  142.0925   79.4730  224.6819 H   0  0  0  0  0  0  0  0  0  0  0  0
  142.5500   81.7720  223.1650 H   0  0  0  0  0  0  0  0  0  0  0  0
  143.2811   80.1428  222.1132 H   0  0  0  0  0  0  0  0  0  0  0  0
  143.1563   78.5441  222.8485 H   0  0  0  0  0  0  0  0  0  0  0  0
  139.6142   77.3029  222.1147 H   0  0  0  0  0  0  0  0  0  0  0  0
  139.0747   74.9330  222.6372 H   0  0  0  0  0  0  0  0  0  0  0  0
  139.0735   69.8061  221.7447 H   0  0  0  0  0  0  0  0  0  0  0  0
  138.8631   68.3195  222.8219 H   0  0  0  0  0  0  0  0  0  0  0  0
  137.0222   69.8806  221.5531 H   0  0  0  0  0  0  0  0  0  0  0  0
  136.7724   67.4748  221.8641 H   0  0  0  0  0  0  0  0  0  0  0  0
  136.7310   67.6482  223.6424 H   0  0  0  0  0  0  0  0  0  0  0  0
  134.7408   69.0215  221.7739 H   0  0  0  0  0  0  0  0  0  0  0  0
  134.4578   67.4003  222.5042 H   0  0  0  0  0  0  0  0  0  0  0  0
  133.7090   69.7376  223.6500 H   0  0  0  0  0  0  0  0  0  0  0  0
  134.1044   68.2431  224.5645 H   0  0  0  0  0  0  0  0  0  0  0  0
  135.2629   70.4649  225.2551 H   0  0  0  0  0  0  0  0  0  0  0  0
  136.2721   68.9751  225.0692 H   0  0  0  0  0  0  0  0  0  0  0  0
  135.9131   71.1400  222.9366 H   0  0  0  0  0  0  0  0  0  0  0  0
  137.3382   70.9650  224.0458 H   0  0  0  0  0  0  0  0  0  0  0  0
  1  2  2  0
  2  3  1  0
  3  4  2  0
  4  5  1  0
  5  6  2  0
  6  7  1  0
  7  8  2  0
  8  9  1  0
  9 10  2  0
 10 11  1  0
 11 12  2  0
 12 13  1  0
 13 14  2  0
 14 15  1  0
 15 16  2  0
 16 17  1  0
 17 18  1  0
 18 19  1  0
 19 20  1  0
 20 21  1  0
 21 22  1  0
 21 23  1  0
 16 24  1  0
 24 25  2  0
 10 26  1  0
 26 27  1  0
 27 28  1  0
 28 29  1  0
 29 30  1  0
 30 31  1  0
 31 32  1  0
 32 33  1  0
 26  2  1  0
 33 28  1  0
  8  3  1  0
 25 13  1  0
 23 18  1  0
  4 34  1  0
  5 35  1  0
  6 36  1  0
  7 37  1  0
 11 38  1  0
 12 39  1  0
 14 40  1  0
 15 41  1  0
 17 42  1  0
 17 43  1  0
 19 44  1  0
 19 45  1  0
 20 46  1  0
 20 47  1  0
 21 48  1  1
 22 49  1  0
 23 50  1  0
 23 51  1  0
 24 52  1  0
 25 53  1  0
 27 54  1  0
 27 55  1  0
 28 56  1  0
 29 57  1  0
 29 58  1  0
 30 59  1  0
 30 60  1  0
 31 61  1  0
 31 62  1  0
 32 63  1  0
 32 64  1  0
 33 65  1  0
 33 66  1  0
M  END
>  <smiles>  (18) 
O=c1c2ccccc2nc(/C=C/c2ccc(CN3CCC(O)C3)cc2)n1CC1CCCCC1

>  <score_type>  (18) 
oracle

>  <origin>  (18) 
autodockgpu

>  <m_score__min__energy>  (18) 
-9.2699999999999996

>  <m_primary>  (18) 
energy

>  <rmsd>  (18) 
11.603575357517864

>  <m_score__min__rmsd>  (18) 
11.603575357517864

>  <meeko>  (18) 
{"free_energy": -8.61, "intermolecular_energy": -10.99, "internal_energy": -1.73, "cluster_size": 33, "cluster_id": 1, "rank_in_cluster": 25}

>  <energy>  (18) 
-8.74

>  <cluster_rmsd>  (18) 
1.17

>  <cluster>  (18) 
1

$$$$

     RDKit          3D

 66 70  0  0  0  0  0  0  0  0999 V2000
  138.4890   68.5440  225.5790 O   0  0  0  0  0  0  0  0  0  0  0  0
  139.1720   69.5230  225.1640 C   0  0  0  0  0  0  0  0  0  0  0  0
  139.9160   70.1880  226.1080 C   0  0  0  0  0  0  0  0  0  0  0  0
  139.9310   69.8260  227.4340 C   0  0  0  0  0  0  0  0  0  0  0  0
  140.7120   70.5540  228.3220 C   0  0  0  0  0  0  0  0  0  0  0  0
  141.4490   71.6200  227.8470 C   0  0  0  0  0  0  0  0  0  0  0  0
  141.4450   71.9960  226.5200 C   0  0  0  0  0  0  0  0  0  0  0  0
  140.6600   71.2530  225.6660 C   0  0  0  0  0  0  0  0  0  0  0  0
  140.6210   71.5710  224.3900 N   0  0  0  0  0  0  0  0  0  0  0  0
  139.8890   70.9260  223.4310 C   0  0  0  0  0  0  0  0  0  0  0  0
  139.9580   71.4970  222.1170 C   0  0  0  0  0  0  0  0  0  0  0  0
  140.6850   72.4370  221.6210 C   0  0  0  0  0  0  0  0  0  0  0  0
  140.4300   73.8820  221.7850 C   0  0  0  0  0  0  0  0  0  0  0  0
  139.1910   74.3310  222.2190 C   0  0  0  0  0  0  0  0  0  0  0  0
  138.8900   75.6630  222.3940 C   0  0  0  0  0  0  0  0  0  0  0  0
  139.8540   76.6120  222.1290 C   0  0  0  0  0  0  0  0  0  0  0  0
  139.5880   78.0730  222.3060 C   0  0  0  0  0  0  0  0  0  0  0  0
  140.6880   78.9100  222.3170 N   0  0  0  0  0  0  0  0  0  0  0  0
  141.1340   79.5960  221.1840 C   0  0  0  0  0  0  0  0  0  0  0  0
  141.7790   80.8400  221.8230 C   0  0  0  0  0  0  0  0  0  0  0  0
  142.3050   80.3250  223.1610 C   0  0  2  0  0  0  0  0  0  0  0  0
  143.6880   80.1660  223.0940 O   0  0  0  0  0  0  0  0  0  0  0  0
  141.5710   79.0180  223.3890 C   0  0  0  0  0  0  0  0  0  0  0  0
  141.0980   76.2050  221.6950 C   0  0  0  0  0  0  0  0  0  0  0  0
  141.3740   74.8430  221.5270 C   0  0  0  0  0  0  0  0  0  0  0  0
  139.1580   69.8870  223.8400 N   0  0  0  0  0  0  0  0  0  0  0  0
  138.3440   69.0540  222.9950 C   0  0  0  0  0  0  0  0  0  0  0  0
  136.9250   69.4700  222.8360 C   0  0  0  0  0  0  0  0  0  0  0  0
  136.0180   68.9650  223.9580 C   0  0  0  0  0  0  0  0  0  0  0  0
  134.6220   69.4920  223.7130 C   0  0  0  0  0  0  0  0  0  0  0  0
  134.5750   70.9550  223.9870 C   0  0  0  0  0  0  0  0  0  0  0  0
  135.9630   71.5350  223.8620 C   0  0  0  0  0  0  0  0  0  0  0  0
  136.7150   70.9240  222.6680 C   0  0  0  0  0  0  0  0  0  0  0  0
  139.3333   68.9724  227.7864 H   0  0  0  0  0  0  0  0  0  0  0  0
  140.7428   70.2851  229.3882 H   0  0  0  0  0  0  0  0  0  0  0  0
  142.0647   72.1931  228.5558 H   0  0  0  0  0  0  0  0  0  0  0  0
  142.0402   72.8485  226.1608 H   0  0  0  0  0  0  0  0  0  0  0  0
  139.2580   71.0472  221.3975 H   0  0  0  0  0  0  0  0  0  0  0  0
  141.5638   72.1406  221.0295 H   0  0  0  0  0  0  0  0  0  0  0  0
  138.4107   73.5860  222.4338 H   0  0  0  0  0  0  0  0  0  0  0  0
  137.8914   75.9665  222.7414 H   0  0  0  0  0  0  0  0  0  0  0  0
  138.9336   78.3943  221.4822 H   0  0  0  0  0  0  0  0  0  0  0  0
  139.1459   78.1656  223.3090 H   0  0  0  0  0  0  0  0  0  0  0  0
  141.8701   79.0055  220.6188 H   0  0  0  0  0  0  0  0  0  0  0  0
  140.3440   79.8220  220.4527 H   0  0  0  0  0  0  0  0  0  0  0  0
  142.6005   81.2210  221.1985 H   0  0  0  0  0  0  0  0  0  0  0  0
  141.0742   81.6771  221.9346 H   0  0  0  0  0  0  0  0  0  0  0  0
  142.1278   81.0161  223.9982 H   0  0  0  0  0  0  0  0  0  0  0  0
  143.8480   79.5500  222.3140 H   0  0  0  0  0  0  0  0  0  0  0  0
  142.2766   78.1741  223.3955 H   0  0  0  0  0  0  0  0  0  0  0  0
  141.0500   78.9996  224.3576 H   0  0  0  0  0  0  0  0  0  0  0  0
  141.8757   76.9527  221.4802 H   0  0  0  0  0  0  0  0  0  0  0  0
  142.3716   74.5361  221.1798 H   0  0  0  0  0  0  0  0  0  0  0  0
  138.8035   69.0385  221.9957 H   0  0  0  0  0  0  0  0  0  0  0  0
  138.3100   68.0733  223.4921 H   0  0  0  0  0  0  0  0  0  0  0  0
  136.6407   68.9848  221.8906 H   0  0  0  0  0  0  0  0  0  0  0  0
  136.0055   67.8651  223.9596 H   0  0  0  0  0  0  0  0  0  0  0  0
  136.3897   69.3147  224.9324 H   0  0  0  0  0  0  0  0  0  0  0  0
  134.3419   69.3084  222.6652 H   0  0  0  0  0  0  0  0  0  0  0  0
  133.9184   68.9762  224.3830 H   0  0  0  0  0  0  0  0  0  0  0  0
  133.9071   71.4427  223.2617 H   0  0  0  0  0  0  0  0  0  0  0  0
  134.1967   71.1253  225.0058 H   0  0  0  0  0  0  0  0  0  0  0  0
  135.8858   72.6229  223.7189 H   0  0  0  0  0  0  0  0  0  0  0  0
  136.5215   71.3036  224.7810 H   0  0  0  0  0  0  0  0  0  0  0  0
  136.1292   71.0956  221.7529 H   0  0  0  0  0  0  0  0  0  0  0  0
  137.7015   71.4063  222.6027 H   0  0  0  0  0  0  0  0  0  0  0  0
  1  2  2  0
  2  3  1  0
  3  4  2  0
  4  5  1  0
  5  6  2  0
  6  7  1  0
  7  8  2  0
  8  9  1  0
  9 10  2  0
 10 11  1  0
 11 12  2  0
 12 13  1  0
 13 14  2  0
 14 15  1  0
 15 16  2  0
 16 17  1  0
 17 18  1  0
 18 19  1  0
 19 20  1  0
 20 21  1  0
 21 22  1  0
 21 23  1  0
 16 24  1  0
 24 25  2  0
 10 26  1  0
 26 27  1  0
 27 28  1  0
 28 29  1  0
 29 30  1  0
 30 31  1  0
 31 32  1  0
 32 33  1  0
 26  2  1  0
 33 28  1  0
  8  3  1  0
 25 13  1  0
 23 18  1  0
  4 34  1  0
  5 35  1  0
  6 36  1  0
  7 37  1  0
 11 38  1  0
 12 39  1  0
 14 40  1  0
 15 41  1  0
 17 42  1  0
 17 43  1  0
 19 44  1  0
 19 45  1  0
 20 46  1  0
 20 47  1  0
 21 48  1  1
 22 49  1  0
 23 50  1  0
 23 51  1  0
 24 52  1  0
 25 53  1  0
 27 54  1  0
 27 55  1  0
 28 56  1  0
 29 57  1  0
 29 58  1  0
 30 59  1  0
 30 60  1  0
 31 61  1  0
 31 62  1  0
 32 63  1  0
 32 64  1  0
 33 65  1  0
 33 66  1  0
M  END
>  <smiles>  (19) 
O=c1c2ccccc2nc(/C=C/c2ccc(CN3CCC(O)C3)cc2)n1CC1CCCCC1

>  <score_type>  (19) 
oracle

>  <origin>  (19) 
autodockgpu

>  <m_score__min__energy>  (19) 
-9.2699999999999996

>  <m_primary>  (19) 
energy

>  <rmsd>  (19) 
11.307157650194753

>  <m_score__min__rmsd>  (19) 
11.307157650194753

>  <meeko>  (19) 
{"free_energy": -8.95, "intermolecular_energy": -11.34, "internal_energy": -2.01, "cluster_size": 33, "cluster_id": 1, "rank_in_cluster": 10}

>  <energy>  (19) 
-8.72

>  <cluster_rmsd>  (19) 
0.89

>  <cluster>  (19) 
1

$$$$

     RDKit          3D

 66 70  0  0  0  0  0  0  0  0999 V2000
  138.0610   68.5610  225.4170 O   0  0  0  0  0  0  0  0  0  0  0  0
  137.9480   69.6060  224.7160 C   0  0  0  0  0  0  0  0  0  0  0  0
  136.6670   70.0380  224.4720 C   0  0  0  0  0  0  0  0  0  0  0  0
  135.5570   69.3860  224.9530 C   0  0  0  0  0  0  0  0  0  0  0  0
  134.2980   69.8920  224.6590 C   0  0  0  0  0  0  0  0  0  0  0  0
  134.1980   71.0340  223.8900 C   0  0  0  0  0  0  0  0  0  0  0  0
  135.3020   71.6990  223.3990 C   0  0  0  0  0  0  0  0  0  0  0  0
  136.5350   71.1710  223.7100 C   0  0  0  0  0  0  0  0  0  0  0  0
  137.6200   71.7690  223.2650 N   0  0  0  0  0  0  0  0  0  0  0  0
  138.9050   71.3590  223.4930 C   0  0  0  0  0  0  0  0  0  0  0  0
  139.9230   72.1390  222.8500 C   0  0  0  0  0  0  0  0  0  0  0  0
  139.8900   72.9350  221.8380 C   0  0  0  0  0  0  0  0  0  0  0  0
  139.7830   74.4050  221.9180 C   0  0  0  0  0  0  0  0  0  0  0  0
  138.5990   75.0010  222.3270 C   0  0  0  0  0  0  0  0  0  0  0  0
  138.4350   76.3650  222.4270 C   0  0  0  0  0  0  0  0  0  0  0  0
  139.4880   77.1940  222.1070 C   0  0  0  0  0  0  0  0  0  0  0  0
  139.3730   78.6830  222.2000 C   0  0  0  0  0  0  0  0  0  0  0  0
  140.5530   79.3940  222.3110 N   0  0  0  0  0  0  0  0  0  0  0  0
  141.0200   80.2530  221.3130 C   0  0  0  0  0  0  0  0  0  0  0  0
  141.8160   81.2750  222.1480 C   0  0  0  0  0  0  0  0  0  0  0  0
  142.3400   80.4490  223.3210 C   0  0  2  0  0  0  0  0  0  0  0  0
  143.6950   80.1800  223.1390 O   0  0  0  0  0  0  0  0  0  0  0  0
  141.4850   79.1970  223.3270 C   0  0  0  0  0  0  0  0  0  0  0  0
  140.6820   76.6400  221.6950 C   0  0  0  0  0  0  0  0  0  0  0  0
  140.8170   75.2490  221.6050 C   0  0  0  0  0  0  0  0  0  0  0  0
  139.0550   70.2590  224.2320 N   0  0  0  0  0  0  0  0  0  0  0  0
  140.3140   69.6760  224.6170 C   0  0  0  0  0  0  0  0  0  0  0  0
  140.9720   70.2680  225.8120 C   0  0  0  0  0  0  0  0  0  0  0  0
  140.7330   71.7710  225.9510 C   0  0  0  0  0  0  0  0  0  0  0  0
  141.4040   72.2430  227.2210 C   0  0  0  0  0  0  0  0  0  0  0  0
  140.6490   71.7540  228.4080 C   0  0  0  0  0  0  0  0  0  0  0  0
  139.8440   70.5360  228.0250 C   0  0  0  0  0  0  0  0  0  0  0  0
  140.6460   69.6100  227.0950 C   0  0  0  0  0  0  0  0  0  0  0  0
  135.6645   68.4764  225.5621 H   0  0  0  0  0  0  0  0  0  0  0  0
  133.3935   69.3903  225.0333 H   0  0  0  0  0  0  0  0  0  0  0  0
  133.1977   71.4295  223.6596 H   0  0  0  0  0  0  0  0  0  0  0  0
  135.2022   72.6082  222.7879 H   0  0  0  0  0  0  0  0  0  0  0  0
  140.9185   72.0384  223.3070 H   0  0  0  0  0  0  0  0  0  0  0  0
  139.9459   72.4843  220.8361 H   0  0  0  0  0  0  0  0  0  0  0  0
  137.7488   74.3521  222.5842 H   0  0  0  0  0  0  0  0  0  0  0  0
  137.4749   76.7874  222.7584 H   0  0  0  0  0  0  0  0  0  0  0  0
  138.8571   79.0340  221.2941 H   0  0  0  0  0  0  0  0  0  0  0  0
  138.8341   78.8716  223.1402 H   0  0  0  0  0  0  0  0  0  0  0  0
  141.6674   79.7254  220.5972 H   0  0  0  0  0  0  0  0  0  0  0  0
  140.2282   80.6961  220.6912 H   0  0  0  0  0  0  0  0  0  0  0  0
  142.6463   81.6983  221.5636 H   0  0  0  0  0  0  0  0  0  0  0  0
  141.2068   82.1333  222.4676 H   0  0  0  0  0  0  0  0  0  0  0  0
  142.2692   80.9663  224.2892 H   0  0  0  0  0  0  0  0  0  0  0  0
  143.7430   79.5860  222.3270 H   0  0  0  0  0  0  0  0  0  0  0  0
  142.0993   78.3080  223.1215 H   0  0  0  0  0  0  0  0  0  0  0  0
  141.0048   79.0285  224.3022 H   0  0  0  0  0  0  0  0  0  0  0  0
  141.5296   77.2918  221.4367 H   0  0  0  0  0  0  0  0  0  0  0  0
  141.7761   74.8232  221.2751 H   0  0  0  0  0  0  0  0  0  0  0  0
  140.1413   68.6093  224.8226 H   0  0  0  0  0  0  0  0  0  0  0  0
  140.9978   69.8696  223.7774 H   0  0  0  0  0  0  0  0  0  0  0  0
  142.0378   70.0855  225.6100 H   0  0  0  0  0  0  0  0  0  0  0  0
  141.1622   72.2975  225.0858 H   0  0  0  0  0  0  0  0  0  0  0  0
  139.6540   71.9810  225.9919 H   0  0  0  0  0  0  0  0  0  0  0  0
  142.4317   71.8525  227.2568 H   0  0  0  0  0  0  0  0  0  0  0  0
  141.4222   73.3428  227.2325 H   0  0  0  0  0  0  0  0  0  0  0  0
  141.3555   71.4898  229.2087 H   0  0  0  0  0  0  0  0  0  0  0  0
  139.9716   72.5446  228.7631 H   0  0  0  0  0  0  0  0  0  0  0  0
  139.5742   69.9828  228.9367 H   0  0  0  0  0  0  0  0  0  0  0  0
  138.9410   70.8684  227.4919 H   0  0  0  0  0  0  0  0  0  0  0  0
  141.5824   69.3255  227.5972 H   0  0  0  0  0  0  0  0  0  0  0  0
  140.0288   68.7257  226.8783 H   0  0  0  0  0  0  0  0  0  0  0  0
  1  2  2  0
  2  3  1  0
  3  4  2  0
  4  5  1  0
  5  6  2  0
  6  7  1  0
  7  8  2  0
  8  9  1  0
  9 10  2  0
 10 11  1  0
 11 12  2  0
 12 13  1  0
 13 14  2  0
 14 15  1  0
 15 16  2  0
 16 17  1  0
 17 18  1  0
 18 19  1  0
 19 20  1  0
 20 21  1  0
 21 22  1  0
 21 23  1  0
 16 24  1  0
 24 25  2  0
 10 26  1  0
 26 27  1  0
 27 28  1  0
 28 29  1  0
 29 30  1  0
 30 31  1  0
 31 32  1  0
 32 33  1  0
 26  2  1  0
 33 28  1  0
  8  3  1  0
 25 13  1  0
 23 18  1  0
  4 34  1  0
  5 35  1  0
  6 36  1  0
  7 37  1  0
 11 38  1  0
 12 39  1  0
 14 40  1  0
 15 41  1  0
 17 42  1  0
 17 43  1  0
 19 44  1  0
 19 45  1  0
 20 46  1  0
 20 47  1  0
 21 48  1  1
 22 49  1  0
 23 50  1  0
 23 51  1  0
 24 52  1  0
 25 53  1  0
 27 54  1  0
 27 55  1  0
 28 56  1  0
 29 57  1  0
 29 58  1  0
 30 59  1  0
 30 60  1  0
 31 61  1  0
 31 62  1  0
 32 63  1  0
 32 64  1  0
 33 65  1  0
 33 66  1  0
M  END
>  <smiles>  (20) 
O=c1c2ccccc2nc(/C=C/c2ccc(CN3CCC(O)C3)cc2)n1CC1CCCCC1

>  <score_type>  (20) 
oracle

>  <origin>  (20) 
autodockgpu

>  <m_score__min__energy>  (20) 
-9.2699999999999996

>  <m_primary>  (20) 
energy

>  <rmsd>  (20) 
11.270966296709293

>  <m_score__min__rmsd>  (20) 
11.270966296709293

>  <meeko>  (20) 
{"free_energy": -8.98, "intermolecular_energy": -11.37, "internal_energy": -1.8, "cluster_size": 2, "cluster_id": 2, "rank_in_cluster": 1}

>  <energy>  (20) 
-8.72

>  <cluster_rmsd>  (20) 
0.94

>  <cluster>  (20) 
1

$$$$

     RDKit          3D

 66 70  0  0  0  0  0  0  0  0999 V2000
  139.2040   67.2980  224.8510 O   0  0  0  0  0  0  0  0  0  0  0  0
  139.5500   68.4980  225.0490 C   0  0  0  0  0  0  0  0  0  0  0  0
  140.1220   68.7730  226.2670 C   0  0  0  0  0  0  0  0  0  0  0  0
  140.3160   67.8130  227.2310 C   0  0  0  0  0  0  0  0  0  0  0  0
  140.9020   68.1780  228.4360 C   0  0  0  0  0  0  0  0  0  0  0  0
  141.2700   69.4940  228.6300 C   0  0  0  0  0  0  0  0  0  0  0  0
  141.0810   70.4690  227.6730 C   0  0  0  0  0  0  0  0  0  0  0  0
  140.4980   70.0730  226.4890 C   0  0  0  0  0  0  0  0  0  0  0  0
  140.2960   70.9650  225.5440 N   0  0  0  0  0  0  0  0  0  0  0  0
  139.7300   70.7180  224.3230 C   0  0  0  0  0  0  0  0  0  0  0  0
  139.5550   71.8660  223.4820 C   0  0  0  0  0  0  0  0  0  0  0  0
  140.1550   72.2480  222.4080 C   0  0  0  0  0  0  0  0  0  0  0  0
  140.1720   73.6320  221.8920 C   0  0  0  0  0  0  0  0  0  0  0  0
  139.0020   74.3760  221.8430 C   0  0  0  0  0  0  0  0  0  0  0  0
  138.9500   75.6700  221.3770 C   0  0  0  0  0  0  0  0  0  0  0  0
  140.1070   76.2720  220.9320 C   0  0  0  0  0  0  0  0  0  0  0  0
  140.1150   77.6780  220.4190 C   0  0  0  0  0  0  0  0  0  0  0  0
  140.9960   78.5560  221.0200 N   0  0  0  0  0  0  0  0  0  0  0  0
  141.6810   79.5500  220.3150 C   0  0  0  0  0  0  0  0  0  0  0  0
  141.8620   80.6190  221.4090 C   0  0  0  0  0  0  0  0  0  0  0  0
  141.9830   79.8030  222.6940 C   0  0  2  0  0  0  0  0  0  0  0  0
  143.3140   79.7650  223.1060 O   0  0  0  0  0  0  0  0  0  0  0  0
  141.4370   78.4340  222.3360 C   0  0  0  0  0  0  0  0  0  0  0  0
  141.2900   75.5650  220.9630 C   0  0  0  0  0  0  0  0  0  0  0  0
  141.3100   74.2500  221.4440 C   0  0  0  0  0  0  0  0  0  0  0  0
  139.3560   69.4590  224.0870 N   0  0  0  0  0  0  0  0  0  0  0  0
  138.7720   68.9770  222.8630 C   0  0  0  0  0  0  0  0  0  0  0  0
  137.3350   69.2980  222.6520 C   0  0  0  0  0  0  0  0  0  0  0  0
  136.4820   68.0690  222.3350 C   0  0  0  0  0  0  0  0  0  0  0  0
  135.0440   68.5140  222.1940 C   0  0  0  0  0  0  0  0  0  0  0  0
  134.4880   68.8730  223.5280 C   0  0  0  0  0  0  0  0  0  0  0  0
  135.6180   69.2240  224.4650 C   0  0  0  0  0  0  0  0  0  0  0  0
  136.6950   70.0550  223.7490 C   0  0  0  0  0  0  0  0  0  0  0  0
  140.0118   66.7714  227.0509 H   0  0  0  0  0  0  0  0  0  0  0  0
  141.0704   67.4294  229.2242 H   0  0  0  0  0  0  0  0  0  0  0  0
  141.7329   69.7768  229.5869 H   0  0  0  0  0  0  0  0  0  0  0  0
  141.3813   71.5129  227.8467 H   0  0  0  0  0  0  0  0  0  0  0  0
  138.7595   72.5482  223.8165 H   0  0  0  0  0  0  0  0  0  0  0  0
  140.6966   71.4844  221.8304 H   0  0  0  0  0  0  0  0  0  0  0  0
  138.0701   73.9087  222.1939 H   0  0  0  0  0  0  0  0  0  0  0  0
  137.9960   76.2173  221.3600 H   0  0  0  0  0  0  0  0  0  0  0  0
  140.3622   77.6398  219.3478 H   0  0  0  0  0  0  0  0  0  0  0  0
  139.1143   78.0732  220.6478 H   0  0  0  0  0  0  0  0  0  0  0  0
  142.6498   79.1857  219.9427 H   0  0  0  0  0  0  0  0  0  0  0  0
  141.1590   79.9076  219.4152 H   0  0  0  0  0  0  0  0  0  0  0  0
  142.7723   81.2108  221.2327 H   0  0  0  0  0  0  0  0  0  0  0  0
  141.0344   81.3430  221.4394 H   0  0  0  0  0  0  0  0  0  0  0  0
  141.4251   80.2309  223.5400 H   0  0  0  0  0  0  0  0  0  0  0  0
  143.8210   79.3610  222.3340 H   0  0  0  0  0  0  0  0  0  0  0  0
  142.2261   77.6712  222.4105 H   0  0  0  0  0  0  0  0  0  0  0  0
  140.6308   78.1196  223.0151 H   0  0  0  0  0  0  0  0  0  0  0  0
  142.2197   76.0345  220.6093 H   0  0  0  0  0  0  0  0  0  0  0  0
  142.2623   73.6998  221.4627 H   0  0  0  0  0  0  0  0  0  0  0  0
  139.3395   69.4107  222.0264 H   0  0  0  0  0  0  0  0  0  0  0  0
  138.8236   67.8799  222.9233 H   0  0  0  0  0  0  0  0  0  0  0  0
  137.3670   69.9578  221.7724 H   0  0  0  0  0  0  0  0  0  0  0  0
  136.8237   67.6112  221.3950 H   0  0  0  0  0  0  0  0  0  0  0  0
  136.5720   67.3264  223.1415 H   0  0  0  0  0  0  0  0  0  0  0  0
  134.9976   69.3913  221.5321 H   0  0  0  0  0  0  0  0  0  0  0  0
  134.4522   67.6915  221.7660 H   0  0  0  0  0  0  0  0  0  0  0  0
  133.8153   69.7372  223.4246 H   0  0  0  0  0  0  0  0  0  0  0  0
  133.9266   68.0185  223.9338 H   0  0  0  0  0  0  0  0  0  0  0  0
  135.2175   69.8057  225.3083 H   0  0  0  0  0  0  0  0  0  0  0  0
  136.0778   68.2906  224.8218 H   0  0  0  0  0  0  0  0  0  0  0  0
  136.2279   70.9594  223.3320 H   0  0  0  0  0  0  0  0  0  0  0  0
  137.4716   70.3134  224.4839 H   0  0  0  0  0  0  0  0  0  0  0  0
  1  2  2  0
  2  3  1  0
  3  4  2  0
  4  5  1  0
  5  6  2  0
  6  7  1  0
  7  8  2  0
  8  9  1  0
  9 10  2  0
 10 11  1  0
 11 12  2  0
 12 13  1  0
 13 14  2  0
 14 15  1  0
 15 16  2  0
 16 17  1  0
 17 18  1  0
 18 19  1  0
 19 20  1  0
 20 21  1  0
 21 22  1  0
 21 23  1  0
 16 24  1  0
 24 25  2  0
 10 26  1  0
 26 27  1  0
 27 28  1  0
 28 29  1  0
 29 30  1  0
 30 31  1  0
 31 32  1  0
 32 33  1  0
 26  2  1  0
 33 28  1  0
  8  3  1  0
 25 13  1  0
 23 18  1  0
  4 34  1  0
  5 35  1  0
  6 36  1  0
  7 37  1  0
 11 38  1  0
 12 39  1  0
 14 40  1  0
 15 41  1  0
 17 42  1  0
 17 43  1  0
 19 44  1  0
 19 45  1  0
 20 46  1  0
 20 47  1  0
 21 48  1  1
 22 49  1  0
 23 50  1  0
 23 51  1  0
 24 52  1  0
 25 53  1  0
 27 54  1  0
 27 55  1  0
 28 56  1  0
 29 57  1  0
 29 58  1  0
 30 59  1  0
 30 60  1  0
 31 61  1  0
 31 62  1  0
 32 63  1  0
 32 64  1  0
 33 65  1  0
 33 66  1  0
M  END
>  <smiles>  (21) 
O=c1c2ccccc2nc(/C=C/c2ccc(CN3CCC(O)C3)cc2)n1CC1CCCCC1

>  <score_type>  (21) 
oracle

>  <origin>  (21) 
autodockgpu

>  <m_score__min__energy>  (21) 
-9.2699999999999996

>  <m_primary>  (21) 
energy

>  <rmsd>  (21) 
12.192859931396526

>  <m_score__min__rmsd>  (21) 
12.192859931396526

>  <meeko>  (21) 
{"free_energy": -8.72, "intermolecular_energy": -11.1, "internal_energy": -1.6, "cluster_size": 33, "cluster_id": 1, "rank_in_cluster": 20}

>  <energy>  (21) 
-8.66

>  <cluster_rmsd>  (21) 
1.03

>  <cluster>  (21) 
1

$$$$

     RDKit          3D

 66 70  0  0  0  0  0  0  0  0999 V2000
  138.8270   68.1060  225.5140 O   0  0  0  0  0  0  0  0  0  0  0  0
  139.2610   69.2550  225.2130 C   0  0  0  0  0  0  0  0  0  0  0  0
  139.9590   69.9160  226.1940 C   0  0  0  0  0  0  0  0  0  0  0  0
  140.1830   69.3780  227.4390 C   0  0  0  0  0  0  0  0  0  0  0  0
  140.9000   70.1160  228.3720 C   0  0  0  0  0  0  0  0  0  0  0  0
  141.3630   71.3690  228.0230 C   0  0  0  0  0  0  0  0  0  0  0  0
  141.1460   71.9220  226.7780 C   0  0  0  0  0  0  0  0  0  0  0  0
  140.4330   71.1630  225.8770 C   0  0  0  0  0  0  0  0  0  0  0  0
  140.1980   71.6470  224.6760 N   0  0  0  0  0  0  0  0  0  0  0  0
  139.5070   71.0090  223.6820 C   0  0  0  0  0  0  0  0  0  0  0  0
  139.3250   71.7650  222.4760 C   0  0  0  0  0  0  0  0  0  0  0  0
  138.4440   72.6380  222.1290 C   0  0  0  0  0  0  0  0  0  0  0  0
  138.7070   74.0770  221.9300 C   0  0  0  0  0  0  0  0  0  0  0  0
  137.6610   74.9540  221.6820 C   0  0  0  0  0  0  0  0  0  0  0  0
  137.8390   76.3050  221.4910 C   0  0  0  0  0  0  0  0  0  0  0  0
  139.1110   76.8310  221.5430 C   0  0  0  0  0  0  0  0  0  0  0  0
  139.3670   78.2920  221.3490 C   0  0  0  0  0  0  0  0  0  0  0  0
  140.4120   78.8440  222.0660 N   0  0  0  0  0  0  0  0  0  0  0  0
  140.2440   79.4350  223.3210 C   0  0  0  0  0  0  0  0  0  0  0  0
  141.6250   79.1820  223.9560 C   0  0  0  0  0  0  0  0  0  0  0  0
  142.5800   79.2150  222.7650 C   0  0  2  0  0  0  0  0  0  0  0  0
  143.2780   80.4210  222.7550 O   0  0  0  0  0  0  0  0  0  0  0  0
  141.6910   79.0370  221.5500 C   0  0  0  0  0  0  0  0  0  0  0  0
  140.1780   75.9920  221.7860 C   0  0  0  0  0  0  0  0  0  0  0  0
  139.9640   74.6210  221.9780 C   0  0  0  0  0  0  0  0  0  0  0  0
  139.0370   69.7950  223.9700 N   0  0  0  0  0  0  0  0  0  0  0  0
  138.3140   68.9410  223.0650 C   0  0  0  0  0  0  0  0  0  0  0  0
  136.8320   69.0620  223.0940 C   0  0  0  0  0  0  0  0  0  0  0  0
  136.2740   69.3120  224.4950 C   0  0  0  0  0  0  0  0  0  0  0  0
  134.7730   69.4660  224.3870 C   0  0  0  0  0  0  0  0  0  0  0  0
  134.4400   70.7670  223.7440 C   0  0  0  0  0  0  0  0  0  0  0  0
  135.6140   71.2360  222.9200 C   0  0  0  0  0  0  0  0  0  0  0  0
  136.2680   70.0660  222.1670 C   0  0  0  0  0  0  0  0  0  0  0  0
  139.8003   68.3784  227.6925 H   0  0  0  0  0  0  0  0  0  0  0  0
  141.0961   69.7080  229.3745 H   0  0  0  0  0  0  0  0  0  0  0  0
  141.9275   71.9496  228.7675 H   0  0  0  0  0  0  0  0  0  0  0  0
  141.5244   72.9215  226.5174 H   0  0  0  0  0  0  0  0  0  0  0  0
  140.0798   71.5604  221.7025 H   0  0  0  0  0  0  0  0  0  0  0  0
  137.4151   72.2837  221.9683 H   0  0  0  0  0  0  0  0  0  0  0  0
  136.6391   74.5495  221.6358 H   0  0  0  0  0  0  0  0  0  0  0  0
  136.9748   76.9579  221.2988 H   0  0  0  0  0  0  0  0  0  0  0  0
  139.5744   78.4542  220.2810 H   0  0  0  0  0  0  0  0  0  0  0  0
  138.4637   78.7941  221.7257 H   0  0  0  0  0  0  0  0  0  0  0  0
  140.0304   80.5106  223.2351 H   0  0  0  0  0  0  0  0  0  0  0  0
  139.3995   79.0337  223.9004 H   0  0  0  0  0  0  0  0  0  0  0  0
  141.8742   79.9708  224.6811 H   0  0  0  0  0  0  0  0  0  0  0  0
  141.6714   78.2355  224.5146 H   0  0  0  0  0  0  0  0  0  0  0  0
  143.3491   78.4291  222.7960 H   0  0  0  0  0  0  0  0  0  0  0  0
  144.0330   80.2870  222.1010 H   0  0  0  0  0  0  0  0  0  0  0  0
  141.7204   79.9343  220.9144 H   0  0  0  0  0  0  0  0  0  0  0  0
  142.0145   78.1950  220.9204 H   0  0  0  0  0  0  0  0  0  0  0  0
  141.1987   76.3999  221.8291 H   0  0  0  0  0  0  0  0  0  0  0  0
  140.8256   73.9653  222.1720 H   0  0  0  0  0  0  0  0  0  0  0  0
  138.6501   69.1726  222.0435 H   0  0  0  0  0  0  0  0  0  0  0  0
  138.5328   67.9133  223.3903 H   0  0  0  0  0  0  0  0  0  0  0  0
  136.5068   68.0716  222.7428 H   0  0  0  0  0  0  0  0  0  0  0  0
  136.5146   68.4607  225.1487 H   0  0  0  0  0  0  0  0  0  0  0  0
  136.7189   70.2221  224.9237 H   0  0  0  0  0  0  0  0  0  0  0  0
  134.3652   68.6445  223.7797 H   0  0  0  0  0  0  0  0  0  0  0  0
  134.3335   69.4382  225.3950 H   0  0  0  0  0  0  0  0  0  0  0  0
  133.5624   70.6403  223.0930 H   0  0  0  0  0  0  0  0  0  0  0  0
  134.2158   71.5130  224.5206 H   0  0  0  0  0  0  0  0  0  0  0  0
  135.2652   71.9818  222.1906 H   0  0  0  0  0  0  0  0  0  0  0  0
  136.3613   71.6754  223.5971 H   0  0  0  0  0  0  0  0  0  0  0  0
  135.5093   69.5807  221.5355 H   0  0  0  0  0  0  0  0  0  0  0  0
  137.0908   70.4690  221.5583 H   0  0  0  0  0  0  0  0  0  0  0  0
  1  2  2  0
  2  3  1  0
  3  4  2  0
  4  5  1  0
  5  6  2  0
  6  7  1  0
  7  8  2  0
  8  9  1  0
  9 10  2  0
 10 11  1  0
 11 12  2  0
 12 13  1  0
 13 14  2  0
 14 15  1  0
 15 16  2  0
 16 17  1  0
 17 18  1  0
 18 19  1  0
 19 20  1  0
 20 21  1  0
 21 22  1  0
 21 23  1  0
 16 24  1  0
 24 25  2  0
 10 26  1  0
 26 27  1  0
 27 28  1  0
 28 29  1  0
 29 30  1  0
 30 31  1  0
 31 32  1  0
 32 33  1  0
 26  2  1  0
 33 28  1  0
  8  3  1  0
 25 13  1  0
 23 18  1  0
  4 34  1  0
  5 35  1  0
  6 36  1  0
  7 37  1  0
 11 38  1  0
 12 39  1  0
 14 40  1  0
 15 41  1  0
 17 42  1  0
 17 43  1  0
 19 44  1  0
 19 45  1  0
 20 46  1  0
 20 47  1  0
 21 48  1  1
 22 49  1  0
 23 50  1  0
 23 51  1  0
 24 52  1  0
 25 53  1  0
 27 54  1  0
 27 55  1  0
 28 56  1  0
 29 57  1  0
 29 58  1  0
 30 59  1  0
 30 60  1  0
 31 61  1  0
 31 62  1  0
 32 63  1  0
 32 64  1  0
 33 65  1  0
 33 66  1  0
M  END
>  <smiles>  (22) 
O=c1c2ccccc2nc(/C=C/c2ccc(CN3CCC(O)C3)cc2)n1CC1CCCCC1

>  <score_type>  (22) 
oracle

>  <origin>  (22) 
autodockgpu

>  <m_score__min__energy>  (22) 
-9.2699999999999996

>  <m_primary>  (22) 
energy

>  <rmsd>  (22) 
11.52911801630631

>  <m_score__min__rmsd>  (22) 
11.52911801630631

>  <meeko>  (22) 
{"free_energy": -8.44, "intermolecular_energy": -10.83, "internal_energy": -1.89, "cluster_size": 33, "cluster_id": 1, "rank_in_cluster": 30}

>  <energy>  (22) 
-8.65

>  <cluster_rmsd>  (22) 
0.98

>  <cluster>  (22) 
1

$$$$

     RDKit          3D

 66 70  0  0  0  0  0  0  0  0999 V2000
  142.5780   78.0060  219.1660 O   0  0  0  0  0  0  0  0  0  0  0  0
  142.0360   77.4970  220.1880 C   0  0  0  0  0  0  0  0  0  0  0  0
  141.7410   78.3610  221.2140 C   0  0  0  0  0  0  0  0  0  0  0  0
  142.0100   79.7080  221.1520 C   0  0  0  0  0  0  0  0  0  0  0  0
  141.6770   80.5120  222.2350 C   0  0  0  0  0  0  0  0  0  0  0  0
  141.0890   79.9330  223.3420 C   0  0  0  0  0  0  0  0  0  0  0  0
  140.8130   78.5840  223.4190 C   0  0  0  0  0  0  0  0  0  0  0  0
  141.1550   77.8170  222.3270 C   0  0  0  0  0  0  0  0  0  0  0  0
  140.9130   76.5240  222.3510 N   0  0  0  0  0  0  0  0  0  0  0  0
  141.1970   75.6410  221.3450 C   0  0  0  0  0  0  0  0  0  0  0  0
  140.8990   74.2670  221.6280 C   0  0  0  0  0  0  0  0  0  0  0  0
  139.8030   73.5930  221.5710 C   0  0  0  0  0  0  0  0  0  0  0  0
  139.4390   72.4880  222.4810 C   0  0  0  0  0  0  0  0  0  0  0  0
  138.1120   72.1120  222.6310 C   0  0  0  0  0  0  0  0  0  0  0  0
  137.7060   71.0900  223.4590 C   0  0  0  0  0  0  0  0  0  0  0  0
  138.6510   70.3960  224.1840 C   0  0  0  0  0  0  0  0  0  0  0  0
  138.2720   69.2730  225.0970 C   0  0  0  0  0  0  0  0  0  0  0  0
  139.2450   68.8230  225.9690 N   0  0  0  0  0  0  0  0  0  0  0  0
  139.9190   67.6110  225.7990 C   0  0  0  0  0  0  0  0  0  0  0  0
  141.2700   67.9240  226.4680 C   0  0  0  0  0  0  0  0  0  0  0  0
  140.9030   68.9130  227.5720 C   0  0  2  0  0  0  0  0  0  0  0  0
  140.9230   68.2690  228.8080 O   0  0  0  0  0  0  0  0  0  0  0  0
  139.5260   69.4230  227.1940 C   0  0  0  0  0  0  0  0  0  0  0  0
  139.9810   70.7410  224.0630 C   0  0  0  0  0  0  0  0  0  0  0  0
  140.3610   71.7850  223.2110 C   0  0  0  0  0  0  0  0  0  0  0  0
  141.7680   76.1510  220.2520 N   0  0  0  0  0  0  0  0  0  0  0  0
  142.1200   75.4100  219.0700 C   0  0  0  0  0  0  0  0  0  0  0  0
  143.3270   74.5470  219.1720 C   0  0  0  0  0  0  0  0  0  0  0  0
  144.2080   74.8830  220.3750 C   0  0  0  0  0  0  0  0  0  0  0  0
  145.3670   73.9120  220.3990 C   0  0  0  0  0  0  0  0  0  0  0  0
  144.8900   72.5600  220.8020 C   0  0  0  0  0  0  0  0  0  0  0  0
  143.4140   72.4400  220.5110 C   0  0  0  0  0  0  0  0  0  0  0  0
  143.0590   73.0940  219.1650 C   0  0  0  0  0  0  0  0  0  0  0  0
  142.4818   80.1425  220.2583 H   0  0  0  0  0  0  0  0  0  0  0  0
  141.8787   81.5931  222.2109 H   0  0  0  0  0  0  0  0  0  0  0  0
  140.8301   80.5740  224.1976 H   0  0  0  0  0  0  0  0  0  0  0  0
  140.3424   78.1418  224.3095 H   0  0  0  0  0  0  0  0  0  0  0  0
  141.7692   73.6788  221.9549 H   0  0  0  0  0  0  0  0  0  0  0  0
  139.0826   73.8609  220.7841 H   0  0  0  0  0  0  0  0  0  0  0  0
  137.3463   72.6576  222.0600 H   0  0  0  0  0  0  0  0  0  0  0  0
  136.6403   70.8302  223.5411 H   0  0  0  0  0  0  0  0  0  0  0  0
  137.4150   69.6087  225.6993 H   0  0  0  0  0  0  0  0  0  0  0  0
  138.0639   68.4207  224.4335 H   0  0  0  0  0  0  0  0  0  0  0  0
  139.3990   66.7857  226.3074 H   0  0  0  0  0  0  0  0  0  0  0  0
  139.9989   67.2817  224.7525 H   0  0  0  0  0  0  0  0  0  0  0  0
  141.7197   67.0132  226.8901 H   0  0  0  0  0  0  0  0  0  0  0  0
  142.0130   68.3260  225.7635 H   0  0  0  0  0  0  0  0  0  0  0  0
  141.6104   69.7503  227.6646 H   0  0  0  0  0  0  0  0  0  0  0  0
  140.6440   67.3200  228.6190 H   0  0  0  0  0  0  0  0  0  0  0  0
  138.7830   69.1271  227.9493 H   0  0  0  0  0  0  0  0  0  0  0  0
  139.4932   70.5209  227.1343 H   0  0  0  0  0  0  0  0  0  0  0  0
  140.7443   70.1950  224.6368 H   0  0  0  0  0  0  0  0  0  0  0  0
  141.4259   72.0473  223.1256 H   0  0  0  0  0  0  0  0  0  0  0  0
  141.2671   74.7652  218.8116 H   0  0  0  0  0  0  0  0  0  0  0  0
  142.3621   76.1666  218.3091 H   0  0  0  0  0  0  0  0  0  0  0  0
  143.8683   74.7852  218.2445 H   0  0  0  0  0  0  0  0  0  0  0  0
  144.5862   75.9119  220.2835 H   0  0  0  0  0  0  0  0  0  0  0  0
  143.6266   74.8031  221.3054 H   0  0  0  0  0  0  0  0  0  0  0  0
  145.8162   73.8560  219.3965 H   0  0  0  0  0  0  0  0  0  0  0  0
  146.1163   74.2618  221.1244 H   0  0  0  0  0  0  0  0  0  0  0  0
  145.4390   71.7935  220.2353 H   0  0  0  0  0  0  0  0  0  0  0  0
  145.0645   72.4153  221.8784 H   0  0  0  0  0  0  0  0  0  0  0  0
  143.1403   71.3752  220.4761 H   0  0  0  0  0  0  0  0  0  0  0  0
  142.8582   72.9567  221.3073 H   0  0  0  0  0  0  0  0  0  0  0  0
  143.6601   72.6251  218.3720 H   0  0  0  0  0  0  0  0  0  0  0  0
  141.9837   72.9460  218.9866 H   0  0  0  0  0  0  0  0  0  0  0  0
  1  2  2  0
  2  3  1  0
  3  4  2  0
  4  5  1  0
  5  6  2  0
  6  7  1  0
  7  8  2  0
  8  9  1  0
  9 10  2  0
 10 11  1  0
 11 12  2  0
 12 13  1  0
 13 14  2  0
 14 15  1  0
 15 16  2  0
 16 17  1  0
 17 18  1  0
 18 19  1  0
 19 20  1  0
 20 21  1  0
 21 22  1  0
 21 23  1  0
 16 24  1  0
 24 25  2  0
 10 26  1  0
 26 27  1  0
 27 28  1  0
 28 29  1  0
 29 30  1  0
 30 31  1  0
 31 32  1  0
 32 33  1  0
 26  2  1  0
 33 28  1  0
  8  3  1  0
 25 13  1  0
 23 18  1  0
  4 34  1  0
  5 35  1  0
  6 36  1  0
  7 37  1  0
 11 38  1  0
 12 39  1  0
 14 40  1  0
 15 41  1  0
 17 42  1  0
 17 43  1  0
 19 44  1  0
 19 45  1  0
 20 46  1  0
 20 47  1  0
 21 48  1  1
 22 49  1  0
 23 50  1  0
 23 51  1  0
 24 52  1  0
 25 53  1  0
 27 54  1  0
 27 55  1  0
 28 56  1  0
 29 57  1  0
 29 58  1  0
 30 59  1  0
 30 60  1  0
 31 61  1  0
 31 62  1  0
 32 63  1  0
 32 64  1  0
 33 65  1  0
 33 66  1  0
M  END
>  <smiles>  (23) 
O=c1c2ccccc2nc(/C=C/c2ccc(CN3CCC(O)C3)cc2)n1CC1CCCCC1

>  <score_type>  (23) 
oracle

>  <origin>  (23) 
autodockgpu

>  <m_score__min__energy>  (23) 
-9.2699999999999996

>  <m_primary>  (23) 
energy

>  <rmsd>  (23) 
4.644661122595375

>  <m_score__min__rmsd>  (23) 
4.644661122595375

>  <meeko>  (23) 
{"free_energy": -8.73, "intermolecular_energy": -11.12, "internal_energy": -1.89, "cluster_size": 3, "cluster_id": 3, "rank_in_cluster": 2}

>  <energy>  (23) 
-8.64

>  <cluster_rmsd>  (23) 
1.01

>  <cluster>  (23) 
1

$$$$

     RDKit          3D

 66 70  0  0  0  0  0  0  0  0999 V2000
  139.1900   67.8740  224.8670 O   0  0  0  0  0  0  0  0  0  0  0  0
  139.5010   69.0890  224.7150 C   0  0  0  0  0  0  0  0  0  0  0  0
  140.0230   69.7250  225.8150 C   0  0  0  0  0  0  0  0  0  0  0  0
  140.2060   69.0940  227.0220 C   0  0  0  0  0  0  0  0  0  0  0  0
  140.7410   69.8120  228.0840 C   0  0  0  0  0  0  0  0  0  0  0  0
  141.0720   71.1390  227.8950 C   0  0  0  0  0  0  0  0  0  0  0  0
  140.8940   71.7870  226.6900 C   0  0  0  0  0  0  0  0  0  0  0  0
  140.3610   71.0450  225.6590 C   0  0  0  0  0  0  0  0  0  0  0  0
  140.1710   71.6170  224.4890 N   0  0  0  0  0  0  0  0  0  0  0  0
  139.6530   71.0070  223.3800 C   0  0  0  0  0  0  0  0  0  0  0  0
  139.4810   71.8550  222.2350 C   0  0  0  0  0  0  0  0  0  0  0  0
  140.2210   72.7770  221.7250 C   0  0  0  0  0  0  0  0  0  0  0  0
  140.0510   74.2260  221.9560 C   0  0  0  0  0  0  0  0  0  0  0  0
  141.1250   75.0910  221.8020 C   0  0  0  0  0  0  0  0  0  0  0  0
  141.0310   76.4510  221.9980 C   0  0  0  0  0  0  0  0  0  0  0  0
  139.8210   76.9970  222.3680 C   0  0  0  0  0  0  0  0  0  0  0  0
  139.6560   78.4670  222.5900 C   0  0  0  0  0  0  0  0  0  0  0  0
  140.8040   79.2350  222.5600 N   0  0  0  0  0  0  0  0  0  0  0  0
  141.1590   80.0310  221.4670 C   0  0  0  0  0  0  0  0  0  0  0  0
  141.9600   81.1490  222.1610 C   0  0  0  0  0  0  0  0  0  0  0  0
  142.6040   80.4440  223.3520 C   0  0  2  0  0  0  0  0  0  0  0  0
  143.9550   80.2200  223.0940 O   0  0  0  0  0  0  0  0  0  0  0  0
  141.8140   79.1610  223.5170 C   0  0  0  0  0  0  0  0  0  0  0  0
  138.7300   76.1690  222.5320 C   0  0  0  0  0  0  0  0  0  0  0  0
  138.8570   74.7900  222.3230 C   0  0  0  0  0  0  0  0  0  0  0  0
  139.3170   69.7230  223.5100 N   0  0  0  0  0  0  0  0  0  0  0  0
  138.7870   68.8870  222.4650 C   0  0  0  0  0  0  0  0  0  0  0  0
  137.3200   68.9720  222.2390 C   0  0  0  0  0  0  0  0  0  0  0  0
  136.6140   67.6200  222.3420 C   0  0  0  0  0  0  0  0  0  0  0  0
  135.1310   67.8430  222.1460 C   0  0  0  0  0  0  0  0  0  0  0  0
  134.5560   68.5220  223.3400 C   0  0  0  0  0  0  0  0  0  0  0  0
  135.6490   69.2590  224.0750 C   0  0  0  0  0  0  0  0  0  0  0  0
  136.6110   69.9490  223.0930 C   0  0  0  0  0  0  0  0  0  0  0  0
  139.9328   68.0356  227.1454 H   0  0  0  0  0  0  0  0  0  0  0  0
  140.8985   69.3307  229.0605 H   0  0  0  0  0  0  0  0  0  0  0  0
  141.4949   71.7027  228.7397 H   0  0  0  0  0  0  0  0  0  0  0  0
  141.1646   72.8451  226.5589 H   0  0  0  0  0  0  0  0  0  0  0  0
  138.5402   71.6854  221.6909 H   0  0  0  0  0  0  0  0  0  0  0  0
  141.0434   72.4612  221.0663 H   0  0  0  0  0  0  0  0  0  0  0  0
  142.0983   74.6703  221.5093 H   0  0  0  0  0  0  0  0  0  0  0  0
  141.9124   77.0946  221.8607 H   0  0  0  0  0  0  0  0  0  0  0  0
  138.9808   78.8475  221.8095 H   0  0  0  0  0  0  0  0  0  0  0  0
  139.2737   78.5615  223.6171 H   0  0  0  0  0  0  0  0  0  0  0  0
  141.7802   79.4760  220.7486 H   0  0  0  0  0  0  0  0  0  0  0  0
  140.3057   80.3886  220.8720 H   0  0  0  0  0  0  0  0  0  0  0  0
  142.7260   81.5597  221.4868 H   0  0  0  0  0  0  0  0  0  0  0  0
  141.3329   82.0025  222.4579 H   0  0  0  0  0  0  0  0  0  0  0  0
  142.5754   81.0346  224.2796 H   0  0  0  0  0  0  0  0  0  0  0  0
  143.9760   79.5420  222.3500 H   0  0  0  0  0  0  0  0  0  0  0  0
  142.4553   78.2858  223.3357 H   0  0  0  0  0  0  0  0  0  0  0  0
  141.4120   79.0508  224.5350 H   0  0  0  0  0  0  0  0  0  0  0  0
  137.7587   76.5925  222.8274 H   0  0  0  0  0  0  0  0  0  0  0  0
  137.9769   74.1438  222.4567 H   0  0  0  0  0  0  0  0  0  0  0  0
  139.2882   69.1647  221.5260 H   0  0  0  0  0  0  0  0  0  0  0  0
  138.9761   67.8532  222.7897 H   0  0  0  0  0  0  0  0  0  0  0  0
  137.2610   69.3371  221.2030 H   0  0  0  0  0  0  0  0  0  0  0  0
  136.9942   66.9416  221.5641 H   0  0  0  0  0  0  0  0  0  0  0  0
  136.8025   67.1679  223.3269 H   0  0  0  0  0  0  0  0  0  0  0  0
  134.9714   68.4715  221.2574 H   0  0  0  0  0  0  0  0  0  0  0  0
  134.6346   66.8709  222.0094 H   0  0  0  0  0  0  0  0  0  0  0  0
  133.7838   69.2366  223.0190 H   0  0  0  0  0  0  0  0  0  0  0  0
  134.1068   67.7718  224.0074 H   0  0  0  0  0  0  0  0  0  0  0  0
  135.1938   70.0199  224.7260 H   0  0  0  0  0  0  0  0  0  0  0  0
  136.2207   68.5317  224.6702 H   0  0  0  0  0  0  0  0  0  0  0  0
  136.0348   70.6310  222.4505 H   0  0  0  0  0  0  0  0  0  0  0  0
  137.3622   70.4978  223.6799 H   0  0  0  0  0  0  0  0  0  0  0  0
  1  2  2  0
  2  3  1  0
  3  4  2  0
  4  5  1  0
  5  6  2  0
  6  7  1  0
  7  8  2  0
  8  9  1  0
  9 10  2  0
 10 11  1  0
 11 12  2  0
 12 13  1  0
 13 14  2  0
 14 15  1  0
 15 16  2  0
 16 17  1  0
 17 18  1  0
 18 19  1  0
 19 20  1  0
 20 21  1  0
 21 22  1  0
 21 23  1  0
 16 24  1  0
 24 25  2  0
 10 26  1  0
 26 27  1  0
 27 28  1  0
 28 29  1  0
 29 30  1  0
 30 31  1  0
 31 32  1  0
 32 33  1  0
 26  2  1  0
 33 28  1  0
  8  3  1  0
 25 13  1  0
 23 18  1  0
  4 34  1  0
  5 35  1  0
  6 36  1  0
  7 37  1  0
 11 38  1  0
 12 39  1  0
 14 40  1  0
 15 41  1  0
 17 42  1  0
 17 43  1  0
 19 44  1  0
 19 45  1  0
 20 46  1  0
 20 47  1  0
 21 48  1  1
 22 49  1  0
 23 50  1  0
 23 51  1  0
 24 52  1  0
 25 53  1  0
 27 54  1  0
 27 55  1  0
 28 56  1  0
 29 57  1  0
 29 58  1  0
 30 59  1  0
 30 60  1  0
 31 61  1  0
 31 62  1  0
 32 63  1  0
 32 64  1  0
 33 65  1  0
 33 66  1  0
M  END
>  <smiles>  (24) 
O=c1c2ccccc2nc(/C=C/c2ccc(CN3CCC(O)C3)cc2)n1CC1CCCCC1

>  <score_type>  (24) 
oracle

>  <origin>  (24) 
autodockgpu

>  <m_score__min__energy>  (24) 
-9.2699999999999996

>  <m_primary>  (24) 
energy

>  <rmsd>  (24) 
11.568612215177012

>  <m_score__min__rmsd>  (24) 
11.568612215177012

>  <meeko>  (24) 
{"free_energy": -9.16, "intermolecular_energy": -11.55, "internal_energy": -1.72, "cluster_size": 33, "cluster_id": 1, "rank_in_cluster": 5}

>  <energy>  (24) 
-8.64

>  <cluster_rmsd>  (24) 
0.8

>  <cluster>  (24) 
1

$$$$

     RDKit          3D

 66 70  0  0  0  0  0  0  0  0999 V2000
  143.0100   76.6640  219.7300 O   0  0  0  0  0  0  0  0  0  0  0  0
  142.2770   75.8790  220.3970 C   0  0  0  0  0  0  0  0  0  0  0  0
  142.6510   74.5580  220.4050 C   0  0  0  0  0  0  0  0  0  0  0  0
  143.7570   74.0930  219.7330 C   0  0  0  0  0  0  0  0  0  0  0  0
  144.0640   72.7400  219.7940 C   0  0  0  0  0  0  0  0  0  0  0  0
  143.2480   71.9020  220.5280 C   0  0  0  0  0  0  0  0  0  0  0  0
  142.1360   72.3520  221.2080 C   0  0  0  0  0  0  0  0  0  0  0  0
  141.8610   73.6990  221.1260 C   0  0  0  0  0  0  0  0  0  0  0  0
  140.8100   74.1790  221.7560 N   0  0  0  0  0  0  0  0  0  0  0  0
  140.4160   75.4890  221.7640 C   0  0  0  0  0  0  0  0  0  0  0  0
  139.1990   75.7610  222.4720 C   0  0  0  0  0  0  0  0  0  0  0  0
  138.0630   76.2300  222.0880 C   0  0  0  0  0  0  0  0  0  0  0  0
  137.4290   77.4560  222.6130 C   0  0  0  0  0  0  0  0  0  0  0  0
  136.1160   77.4300  223.0610 C   0  0  0  0  0  0  0  0  0  0  0  0
  135.4690   78.5350  223.5650 C   0  0  0  0  0  0  0  0  0  0  0  0
  136.1420   79.7360  223.6350 C   0  0  0  0  0  0  0  0  0  0  0  0
  135.4940   80.9700  224.1780 C   0  0  0  0  0  0  0  0  0  0  0  0
  135.8860   81.3780  225.4380 N   0  0  0  0  0  0  0  0  0  0  0  0
  137.1940   81.7660  225.7400 C   0  0  0  0  0  0  0  0  0  0  0  0
  136.9510   82.7660  226.8860 C   0  0  0  0  0  0  0  0  0  0  0  0
  135.7030   82.2240  227.5780 C   0  0  2  0  0  0  0  0  0  0  0  0
  136.0600   81.5960  228.7700 O   0  0  0  0  0  0  0  0  0  0  0  0
  135.0850   81.2720  226.5730 C   0  0  0  0  0  0  0  0  0  0  0  0
  137.4480   79.8030  223.1990 C   0  0  0  0  0  0  0  0  0  0  0  0
  138.0790   78.6600  222.6920 C   0  0  0  0  0  0  0  0  0  0  0  0
  141.1720   76.3410  221.0690 N   0  0  0  0  0  0  0  0  0  0  0  0
  140.9560   77.7600  220.9700 C   0  0  0  0  0  0  0  0  0  0  0  0
  141.7760   78.6120  221.8730 C   0  0  0  0  0  0  0  0  0  0  0  0
  141.7780   80.0880  221.4730 C   0  0  0  0  0  0  0  0  0  0  0  0
  142.5970   80.8520  222.4880 C   0  0  0  0  0  0  0  0  0  0  0  0
  141.8590   80.9390  223.7780 C   0  0  0  0  0  0  0  0  0  0  0  0
  140.8540   79.8160  223.8580 C   0  0  0  0  0  0  0  0  0  0  0  0
  141.4410   78.5050  223.3090 C   0  0  0  0  0  0  0  0  0  0  0  0
  144.3896   74.7830  219.1553 H   0  0  0  0  0  0  0  0  0  0  0  0
  144.9432   72.3422  219.2660 H   0  0  0  0  0  0  0  0  0  0  0  0
  143.4953   70.8311  220.5721 H   0  0  0  0  0  0  0  0  0  0  0  0
  141.4992   71.6679  221.7881 H   0  0  0  0  0  0  0  0  0  0  0  0
  139.2445   75.5244  223.5453 H   0  0  0  0  0  0  0  0  0  0  0  0
  137.5225   75.6739  221.3078 H   0  0  0  0  0  0  0  0  0  0  0  0
  135.5651   76.4792  223.0108 H   0  0  0  0  0  0  0  0  0  0  0  0
  134.4265   78.4608  223.9082 H   0  0  0  0  0  0  0  0  0  0  0  0
  135.7088   81.7928  223.4803 H   0  0  0  0  0  0  0  0  0  0  0  0
  134.4286   80.7149  224.2773 H   0  0  0  0  0  0  0  0  0  0  0  0
  137.8016   80.9114  226.0725 H   0  0  0  0  0  0  0  0  0  0  0  0
  137.7502   82.1824  224.8872 H   0  0  0  0  0  0  0  0  0  0  0  0
  137.8061   82.7858  227.5777 H   0  0  0  0  0  0  0  0  0  0  0  0
  136.8278   83.8000  226.5316 H   0  0  0  0  0  0  0  0  0  0  0  0
  134.9829   83.0062  227.8602 H   0  0  0  0  0  0  0  0  0  0  0  0
  135.8090   80.6290  228.6490 H   0  0  0  0  0  0  0  0  0  0  0  0
  135.0952   80.2420  226.9589 H   0  0  0  0  0  0  0  0  0  0  0  0
  134.0339   81.5182  226.3620 H   0  0  0  0  0  0  0  0  0  0  0  0
  137.9955   80.7557  223.2494 H   0  0  0  0  0  0  0  0  0  0  0  0
  139.1217   78.7304  222.3488 H   0  0  0  0  0  0  0  0  0  0  0  0
  141.1732   78.0615  219.9347 H   0  0  0  0  0  0  0  0  0  0  0  0
  139.9126   77.9220  221.2782 H   0  0  0  0  0  0  0  0  0  0  0  0
  142.7854   78.1958  221.7393 H   0  0  0  0  0  0  0  0  0  0  0  0
  142.2231   80.2022  220.4736 H   0  0  0  0  0  0  0  0  0  0  0  0
  140.7489   80.4755  221.4463 H   0  0  0  0  0  0  0  0  0  0  0  0
  143.5530   80.3325  222.6498 H   0  0  0  0  0  0  0  0  0  0  0  0
  142.7832   81.8680  222.1099 H   0  0  0  0  0  0  0  0  0  0  0  0
  142.5696   80.8557  224.6135 H   0  0  0  0  0  0  0  0  0  0  0  0
  141.3358   81.9048  223.8373 H   0  0  0  0  0  0  0  0  0  0  0  0
  140.5647   79.6674  224.9088 H   0  0  0  0  0  0  0  0  0  0  0  0
  139.9787   80.0876  223.2497 H   0  0  0  0  0  0  0  0  0  0  0  0
  142.3549   78.2615  223.8706 H   0  0  0  0  0  0  0  0  0  0  0  0
  140.6833   77.7161  223.4253 H   0  0  0  0  0  0  0  0  0  0  0  0
  1  2  2  0
  2  3  1  0
  3  4  2  0
  4  5  1  0
  5  6  2  0
  6  7  1  0
  7  8  2  0
  8  9  1  0
  9 10  2  0
 10 11  1  0
 11 12  2  0
 12 13  1  0
 13 14  2  0
 14 15  1  0
 15 16  2  0
 16 17  1  0
 17 18  1  0
 18 19  1  0
 19 20  1  0
 20 21  1  0
 21 22  1  0
 21 23  1  0
 16 24  1  0
 24 25  2  0
 10 26  1  0
 26 27  1  0
 27 28  1  0
 28 29  1  0
 29 30  1  0
 30 31  1  0
 31 32  1  0
 32 33  1  0
 26  2  1  0
 33 28  1  0
  8  3  1  0
 25 13  1  0
 23 18  1  0
  4 34  1  0
  5 35  1  0
  6 36  1  0
  7 37  1  0
 11 38  1  0
 12 39  1  0
 14 40  1  0
 15 41  1  0
 17 42  1  0
 17 43  1  0
 19 44  1  0
 19 45  1  0
 20 46  1  0
 20 47  1  0
 21 48  1  1
 22 49  1  0
 23 50  1  0
 23 51  1  0
 24 52  1  0
 25 53  1  0
 27 54  1  0
 27 55  1  0
 28 56  1  0
 29 57  1  0
 29 58  1  0
 30 59  1  0
 30 60  1  0
 31 61  1  0
 31 62  1  0
 32 63  1  0
 32 64  1  0
 33 65  1  0
 33 66  1  0
M  END
>  <smiles>  (25) 
O=c1c2ccccc2nc(/C=C/c2ccc(CN3CCC(O)C3)cc2)n1CC1CCCCC1

>  <score_type>  (25) 
oracle

>  <origin>  (25) 
autodockgpu

>  <m_score__min__energy>  (25) 
-9.2699999999999996

>  <m_primary>  (25) 
energy

>  <rmsd>  (25) 
7.67286901371301

>  <m_score__min__rmsd>  (25) 
7.67286901371301

>  <meeko>  (25) 
{"free_energy": -8.11, "intermolecular_energy": -10.49, "internal_energy": -2.11, "cluster_size": 6, "cluster_id": 6, "rank_in_cluster": 2}

>  <energy>  (25) 
-8.61

>  <cluster_rmsd>  (25) 
0.97

>  <cluster>  (25) 
1

$$$$

     RDKit          3D

 66 70  0  0  0  0  0  0  0  0999 V2000
  138.8730   68.1360  225.1840 O   0  0  0  0  0  0  0  0  0  0  0  0
  139.3540   69.2930  225.0140 C   0  0  0  0  0  0  0  0  0  0  0  0
  139.9810   69.8570  226.0980 C   0  0  0  0  0  0  0  0  0  0  0  0
  140.0910   69.2160  227.3090 C   0  0  0  0  0  0  0  0  0  0  0  0
  140.7430   69.8590  228.3540 C   0  0  0  0  0  0  0  0  0  0  0  0
  141.2580   71.1230  228.1450 C   0  0  0  0  0  0  0  0  0  0  0  0
  141.1550   71.7780  226.9360 C   0  0  0  0  0  0  0  0  0  0  0  0
  140.5040   71.1120  225.9220 C   0  0  0  0  0  0  0  0  0  0  0  0
  140.3780   71.6950  224.7490 N   0  0  0  0  0  0  0  0  0  0  0  0
  139.7590   71.1570  223.6540 C   0  0  0  0  0  0  0  0  0  0  0  0
  139.6920   72.0100  222.5030 C   0  0  0  0  0  0  0  0  0  0  0  0
  140.5810   72.7230  221.9040 C   0  0  0  0  0  0  0  0  0  0  0  0
  140.4660   74.1700  221.6320 C   0  0  0  0  0  0  0  0  0  0  0  0
  139.5420   74.9420  222.3210 C   0  0  0  0  0  0  0  0  0  0  0  0
  139.3870   76.2940  222.1160 C   0  0  0  0  0  0  0  0  0  0  0  0
  140.1790   76.9300  221.1850 C   0  0  0  0  0  0  0  0  0  0  0  0
  140.0620   78.3980  220.9220 C   0  0  0  0  0  0  0  0  0  0  0  0
  141.0160   79.2130  221.4990 N   0  0  0  0  0  0  0  0  0  0  0  0
  141.3970   80.4430  220.9550 C   0  0  0  0  0  0  0  0  0  0  0  0
  141.8140   81.2140  222.2220 C   0  0  0  0  0  0  0  0  0  0  0  0
  142.3580   80.1230  223.1430 C   0  0  2  0  0  0  0  0  0  0  0  0
  143.7500   80.1770  223.1660 O   0  0  0  0  0  0  0  0  0  0  0  0
  141.8270   78.8260  222.5640 C   0  0  0  0  0  0  0  0  0  0  0  0
  141.1100   76.1960  220.4790 C   0  0  0  0  0  0  0  0  0  0  0  0
  141.2440   74.8220  220.7110 C   0  0  0  0  0  0  0  0  0  0  0  0
  139.2430   69.9360  223.8050 N   0  0  0  0  0  0  0  0  0  0  0  0
  138.5800   69.1760  222.7780 C   0  0  0  0  0  0  0  0  0  0  0  0
  137.1180   69.4070  222.6330 C   0  0  0  0  0  0  0  0  0  0  0  0
  136.3460   69.2310  223.9410 C   0  0  0  0  0  0  0  0  0  0  0  0
  134.8900   69.5400  223.6760 C   0  0  0  0  0  0  0  0  0  0  0  0
  134.7090   71.0030  223.4690 C   0  0  0  0  0  0  0  0  0  0  0  0
  136.0170   71.6140  223.0300 C   0  0  0  0  0  0  0  0  0  0  0  0
  136.7470   70.7040  222.0280 C   0  0  0  0  0  0  0  0  0  0  0  0
  139.6694   68.2096  227.4486 H   0  0  0  0  0  0  0  0  0  0  0  0
  140.8473   69.3685  229.3330 H   0  0  0  0  0  0  0  0  0  0  0  0
  141.7712   71.6279  228.9767 H   0  0  0  0  0  0  0  0  0  0  0  0
  141.5731   72.7847  226.7887 H   0  0  0  0  0  0  0  0  0  0  0  0
  138.6930   72.0655  222.0460 H   0  0  0  0  0  0  0  0  0  0  0  0
  141.4973   72.2150  221.5688 H   0  0  0  0  0  0  0  0  0  0  0  0
  138.9019   74.4494  223.0677 H   0  0  0  0  0  0  0  0  0  0  0  0
  138.6387   76.8609  222.6893 H   0  0  0  0  0  0  0  0  0  0  0  0
  140.1128   78.5459  219.8332 H   0  0  0  0  0  0  0  0  0  0  0  0
  139.1101   78.6978  221.3847 H   0  0  0  0  0  0  0  0  0  0  0  0
  142.2388   80.3312  220.2558 H   0  0  0  0  0  0  0  0  0  0  0  0
  140.6126   80.9374  220.3632 H   0  0  0  0  0  0  0  0  0  0  0  0
  142.5915   81.9573  221.9915 H   0  0  0  0  0  0  0  0  0  0  0  0
  140.9839   81.7786  222.6717 H   0  0  0  0  0  0  0  0  0  0  0  0
  142.0411   80.2339  224.1905 H   0  0  0  0  0  0  0  0  0  0  0  0
  144.0500   79.7030  222.3300 H   0  0  0  0  0  0  0  0  0  0  0  0
  142.6542   78.1930  222.2102 H   0  0  0  0  0  0  0  0  0  0  0  0
  141.2757   78.2350  223.3102 H   0  0  0  0  0  0  0  0  0  0  0  0
  141.7481   76.6915  219.7325 H   0  0  0  0  0  0  0  0  0  0  0  0
  141.9918   74.2518  220.1403 H   0  0  0  0  0  0  0  0  0  0  0  0
  139.0560   69.4225  221.8174 H   0  0  0  0  0  0  0  0  0  0  0  0
  138.6842   68.1225  223.0767 H   0  0  0  0  0  0  0  0  0  0  0  0
  136.8226   68.6179  221.9259 H   0  0  0  0  0  0  0  0  0  0  0  0
  136.4479   68.1952  224.2970 H   0  0  0  0  0  0  0  0  0  0  0  0
  136.7439   69.9084  224.7109 H   0  0  0  0  0  0  0  0  0  0  0  0
  134.5615   69.0013  222.7749 H   0  0  0  0  0  0  0  0  0  0  0  0
  134.2901   69.2210  224.5411 H   0  0  0  0  0  0  0  0  0  0  0  0
  133.9468   71.1722  222.6941 H   0  0  0  0  0  0  0  0  0  0  0  0
  134.3840   71.4693  224.4107 H   0  0  0  0  0  0  0  0  0  0  0  0
  135.8174   72.5851  222.5534 H   0  0  0  0  0  0  0  0  0  0  0  0
  136.6569   71.7410  223.9157 H   0  0  0  0  0  0  0  0  0  0  0  0
  136.0865   70.5197  221.1679 H   0  0  0  0  0  0  0  0  0  0  0  0
  137.6712   71.2121  221.7153 H   0  0  0  0  0  0  0  0  0  0  0  0
  1  2  2  0
  2  3  1  0
  3  4  2  0
  4  5  1  0
  5  6  2  0
  6  7  1  0
  7  8  2  0
  8  9  1  0
  9 10  2  0
 10 11  1  0
 11 12  2  0
 12 13  1  0
 13 14  2  0
 14 15  1  0
 15 16  2  0
 16 17  1  0
 17 18  1  0
 18 19  1  0
 19 20  1  0
 20 21  1  0
 21 22  1  0
 21 23  1  0
 16 24  1  0
 24 25  2  0
 10 26  1  0
 26 27  1  0
 27 28  1  0
 28 29  1  0
 29 30  1  0
 30 31  1  0
 31 32  1  0
 32 33  1  0
 26  2  1  0
 33 28  1  0
  8  3  1  0
 25 13  1  0
 23 18  1  0
  4 34  1  0
  5 35  1  0
  6 36  1  0
  7 37  1  0
 11 38  1  0
 12 39  1  0
 14 40  1  0
 15 41  1  0
 17 42  1  0
 17 43  1  0
 19 44  1  0
 19 45  1  0
 20 46  1  0
 20 47  1  0
 21 48  1  1
 22 49  1  0
 23 50  1  0
 23 51  1  0
 24 52  1  0
 25 53  1  0
 27 54  1  0
 27 55  1  0
 28 56  1  0
 29 57  1  0
 29 58  1  0
 30 59  1  0
 30 60  1  0
 31 61  1  0
 31 62  1  0
 32 63  1  0
 32 64  1  0
 33 65  1  0
 33 66  1  0
M  END
>  <smiles>  (26) 
O=c1c2ccccc2nc(/C=C/c2ccc(CN3CCC(O)C3)cc2)n1CC1CCCCC1

>  <score_type>  (26) 
oracle

>  <origin>  (26) 
autodockgpu

>  <m_score__min__energy>  (26) 
-9.2699999999999996

>  <m_primary>  (26) 
energy

>  <rmsd>  (26) 
11.401738524874263

>  <m_score__min__rmsd>  (26) 
11.401738524874263

>  <meeko>  (26) 
{"free_energy": -8.86, "intermolecular_energy": -11.25, "internal_energy": -1.81, "cluster_size": 33, "cluster_id": 1, "rank_in_cluster": 12}

>  <energy>  (26) 
-8.6

>  <cluster_rmsd>  (26) 
1.01

>  <cluster>  (26) 
1

$$$$

     RDKit          3D

 66 70  0  0  0  0  0  0  0  0999 V2000
  139.1860   67.8290  225.3660 O   0  0  0  0  0  0  0  0  0  0  0  0
  139.5030   69.0190  225.0820 C   0  0  0  0  0  0  0  0  0  0  0  0
  140.0580   69.7590  226.0970 C   0  0  0  0  0  0  0  0  0  0  0  0
  140.2670   69.2530  227.3580 C   0  0  0  0  0  0  0  0  0  0  0  0
  140.8350   70.0710  228.3260 C   0  0  0  0  0  0  0  0  0  0  0  0
  141.1710   71.3680  227.9940 C   0  0  0  0  0  0  0  0  0  0  0  0
  140.9680   71.8900  226.7330 C   0  0  0  0  0  0  0  0  0  0  0  0
  140.4040   71.0520  225.7970 C   0  0  0  0  0  0  0  0  0  0  0  0
  140.1890   71.5020  224.5800 N   0  0  0  0  0  0  0  0  0  0  0  0
  139.6380   70.7870  223.5520 C   0  0  0  0  0  0  0  0  0  0  0  0
  139.4440   71.5140  222.3310 C   0  0  0  0  0  0  0  0  0  0  0  0
  140.1550   72.4090  221.7370 C   0  0  0  0  0  0  0  0  0  0  0  0
  139.9610   73.8680  221.8630 C   0  0  0  0  0  0  0  0  0  0  0  0
  141.0540   74.7220  221.8740 C   0  0  0  0  0  0  0  0  0  0  0  0
  140.9420   76.0890  221.9860 C   0  0  0  0  0  0  0  0  0  0  0  0
  139.6900   76.6560  222.0950 C   0  0  0  0  0  0  0  0  0  0  0  0
  139.5040   78.1350  222.2130 C   0  0  0  0  0  0  0  0  0  0  0  0
  140.6470   78.9110  222.2030 N   0  0  0  0  0  0  0  0  0  0  0  0
  141.1980   79.4390  221.0320 C   0  0  0  0  0  0  0  0  0  0  0  0
  141.8750   80.7140  221.5700 C   0  0  0  0  0  0  0  0  0  0  0  0
  142.2900   80.3290  222.9880 C   0  0  2  0  0  0  0  0  0  0  0  0
  143.6630   80.0940  223.0300 O   0  0  0  0  0  0  0  0  0  0  0  0
  141.4700   79.0960  223.3120 C   0  0  0  0  0  0  0  0  0  0  0  0
  138.5780   75.8400  222.0890 C   0  0  0  0  0  0  0  0  0  0  0  0
  138.7260   74.4520  221.9730 C   0  0  0  0  0  0  0  0  0  0  0  0
  139.2950   69.5270  223.8220 N   0  0  0  0  0  0  0  0  0  0  0  0
  138.7320   68.5940  222.8830 C   0  0  0  0  0  0  0  0  0  0  0  0
  137.2620   68.6820  222.6730 C   0  0  0  0  0  0  0  0  0  0  0  0
  136.5130   69.2520  223.8780 C   0  0  0  0  0  0  0  0  0  0  0  0
  135.0450   69.3380  223.5250 C   0  0  0  0  0  0  0  0  0  0  0  0
  134.8200   70.4360  222.5440 C   0  0  0  0  0  0  0  0  0  0  0  0
  136.1050   70.7190  221.8040 C   0  0  0  0  0  0  0  0  0  0  0  0
  136.8460   69.4160  221.4590 C   0  0  0  0  0  0  0  0  0  0  0  0
  139.9886   68.2159  227.5967 H   0  0  0  0  0  0  0  0  0  0  0  0
  141.0145   69.6908  229.3425 H   0  0  0  0  0  0  0  0  0  0  0  0
  141.6186   72.0114  228.7658 H   0  0  0  0  0  0  0  0  0  0  0  0
  141.2435   72.9261  226.4871 H   0  0  0  0  0  0  0  0  0  0  0  0
  138.5134   71.2596  221.8026 H   0  0  0  0  0  0  0  0  0  0  0  0
  140.9696   72.0598  221.0855 H   0  0  0  0  0  0  0  0  0  0  0  0
  142.0599   74.2850  221.7890 H   0  0  0  0  0  0  0  0  0  0  0  0
  141.8414   76.7223  221.9885 H   0  0  0  0  0  0  0  0  0  0  0  0
  138.8748   78.4591  221.3710 H   0  0  0  0  0  0  0  0  0  0  0  0
  139.0605   78.2900  223.2076 H   0  0  0  0  0  0  0  0  0  0  0  0
  141.9309   78.7510  220.5852 H   0  0  0  0  0  0  0  0  0  0  0  0
  140.4672   79.6194  220.2299 H   0  0  0  0  0  0  0  0  0  0  0  0
  142.7527   80.9790  220.9622 H   0  0  0  0  0  0  0  0  0  0  0  0
  141.2145   81.5931  221.5418 H   0  0  0  0  0  0  0  0  0  0  0  0
  142.1032   81.1195  223.7297 H   0  0  0  0  0  0  0  0  0  0  0  0
  143.8420   79.4240  222.2990 H   0  0  0  0  0  0  0  0  0  0  0  0
  142.1240   78.2238  223.4583 H   0  0  0  0  0  0  0  0  0  0  0  0
  140.8927   79.2150  224.2408 H   0  0  0  0  0  0  0  0  0  0  0  0
  137.5735   76.2799  222.1754 H   0  0  0  0  0  0  0  0  0  0  0  0
  137.8291   73.8151  221.9701 H   0  0  0  0  0  0  0  0  0  0  0  0
  139.2206   68.7592  221.9114 H   0  0  0  0  0  0  0  0  0  0  0  0
  138.9093   67.5978  223.3145 H   0  0  0  0  0  0  0  0  0  0  0  0
  136.9797   67.6282  222.5324 H   0  0  0  0  0  0  0  0  0  0  0  0
  136.6488   68.5916  224.7472 H   0  0  0  0  0  0  0  0  0  0  0  0
  136.9021   70.2496  224.1299 H   0  0  0  0  0  0  0  0  0  0  0  0
  134.7198   68.3839  223.0846 H   0  0  0  0  0  0  0  0  0  0  0  0
  134.4660   69.5447  224.4371 H   0  0  0  0  0  0  0  0  0  0  0  0
  134.0426   70.1337  221.8269 H   0  0  0  0  0  0  0  0  0  0  0  0
  134.4951   71.3425  223.0756 H   0  0  0  0  0  0  0  0  0  0  0  0
  135.8721   71.2567  220.8731 H   0  0  0  0  0  0  0  0  0  0  0  0
  136.7533   71.3278  222.4514 H   0  0  0  0  0  0  0  0  0  0  0  0
  136.1787   68.7735  220.8658 H   0  0  0  0  0  0  0  0  0  0  0  0
  137.7511   69.6779  220.8913 H   0  0  0  0  0  0  0  0  0  0  0  0
  1  2  2  0
  2  3  1  0
  3  4  2  0
  4  5  1  0
  5  6  2  0
  6  7  1  0
  7  8  2  0
  8  9  1  0
  9 10  2  0
 10 11  1  0
 11 12  2  0
 12 13  1  0
 13 14  2  0
 14 15  1  0
 15 16  2  0
 16 17  1  0
 17 18  1  0
 18 19  1  0
 19 20  1  0
 20 21  1  0
 21 22  1  0
 21 23  1  0
 16 24  1  0
 24 25  2  0
 10 26  1  0
 26 27  1  0
 27 28  1  0
 28 29  1  0
 29 30  1  0
 30 31  1  0
 31 32  1  0
 32 33  1  0
 26  2  1  0
 33 28  1  0
  8  3  1  0
 25 13  1  0
 23 18  1  0
  4 34  1  0
  5 35  1  0
  6 36  1  0
  7 37  1  0
 11 38  1  0
 12 39  1  0
 14 40  1  0
 15 41  1  0
 17 42  1  0
 17 43  1  0
 19 44  1  0
 19 45  1  0
 20 46  1  0
 20 47  1  0
 21 48  1  1
 22 49  1  0
 23 50  1  0
 23 51  1  0
 24 52  1  0
 25 53  1  0
 27 54  1  0
 27 55  1  0
 28 56  1  0
 29 57  1  0
 29 58  1  0
 30 59  1  0
 30 60  1  0
 31 61  1  0
 31 62  1  0
 32 63  1  0
 32 64  1  0
 33 65  1  0
 33 66  1  0
M  END
>  <smiles>  (27) 
O=c1c2ccccc2nc(/C=C/c2ccc(CN3CCC(O)C3)cc2)n1CC1CCCCC1

>  <score_type>  (27) 
oracle

>  <origin>  (27) 
autodockgpu

>  <m_score__min__energy>  (27) 
-9.2699999999999996

>  <m_primary>  (27) 
energy

>  <rmsd>  (27) 
11.3778085666793

>  <m_score__min__rmsd>  (27) 
11.3778085666793

>  <meeko>  (27) 
{"free_energy": -9.12, "intermolecular_energy": -11.5, "internal_energy": -1.91, "cluster_size": 33, "cluster_id": 1, "rank_in_cluster": 8}

>  <energy>  (27) 
-8.57

>  <cluster_rmsd>  (27) 
1.17

>  <cluster>  (27) 
1

$$$$

     RDKit          3D

 66 70  0  0  0  0  0  0  0  0999 V2000
  139.2010   67.6610  225.2180 O   0  0  0  0  0  0  0  0  0  0  0  0
  139.4860   68.8910  225.1560 C   0  0  0  0  0  0  0  0  0  0  0  0
  140.1080   69.4270  226.2570 C   0  0  0  0  0  0  0  0  0  0  0  0
  140.4130   68.6860  227.3740 C   0  0  0  0  0  0  0  0  0  0  0  0
  141.0430   69.3070  228.4430 C   0  0  0  0  0  0  0  0  0  0  0  0
  141.3430   70.6520  228.3540 C   0  0  0  0  0  0  0  0  0  0  0  0
  141.0440   71.4090  227.2410 C   0  0  0  0  0  0  0  0  0  0  0  0
  140.4190   70.7610  226.1980 C   0  0  0  0  0  0  0  0  0  0  0  0
  140.1120   71.4400  225.1140 N   0  0  0  0  0  0  0  0  0  0  0  0
  139.4930   70.9310  224.0050 C   0  0  0  0  0  0  0  0  0  0  0  0
  139.2040   71.8820  222.9710 C   0  0  0  0  0  0  0  0  0  0  0  0
  139.8580   72.2410  221.9210 C   0  0  0  0  0  0  0  0  0  0  0  0
  140.3170   73.6150  221.6360 C   0  0  0  0  0  0  0  0  0  0  0  0
  141.5060   73.8300  220.9520 C   0  0  0  0  0  0  0  0  0  0  0  0
  141.9870   75.0840  220.6530 C   0  0  0  0  0  0  0  0  0  0  0  0
  141.2700   76.1920  221.0450 C   0  0  0  0  0  0  0  0  0  0  0  0
  141.7390   77.5810  220.7450 C   0  0  0  0  0  0  0  0  0  0  0  0
  141.9550   77.8920  219.4160 N   0  0  0  0  0  0  0  0  0  0  0  0
  142.9400   77.2770  218.6400 C   0  0  0  0  0  0  0  0  0  0  0  0
  142.3120   77.3640  217.2360 C   0  0  0  0  0  0  0  0  0  0  0  0
  141.5000   78.6570  217.2860 C   0  0  2  0  0  0  0  0  0  0  0  0
  142.1670   79.6600  216.5850 O   0  0  0  0  0  0  0  0  0  0  0  0
  141.3530   78.9660  218.7630 C   0  0  0  0  0  0  0  0  0  0  0  0
  140.0840   76.0210  221.7280 C   0  0  0  0  0  0  0  0  0  0  0  0
  139.6190   74.7310  222.0170 C   0  0  0  0  0  0  0  0  0  0  0  0
  139.1810   69.6350  224.0410 N   0  0  0  0  0  0  0  0  0  0  0  0
  138.5590   68.8940  222.9760 C   0  0  0  0  0  0  0  0  0  0  0  0
  137.0770   68.9900  222.8900 C   0  0  0  0  0  0  0  0  0  0  0  0
  136.4110   69.2680  224.2380 C   0  0  0  0  0  0  0  0  0  0  0  0
  134.9210   69.3940  224.0130 C   0  0  0  0  0  0  0  0  0  0  0  0
  134.6170   70.6720  223.3120 C   0  0  0  0  0  0  0  0  0  0  0  0
  135.8440   71.1390  222.5660 C   0  0  0  0  0  0  0  0  0  0  0  0
  136.5690   69.9600  221.8970 C   0  0  0  0  0  0  0  0  0  0  0  0
  140.1612   67.6162  227.4197 H   0  0  0  0  0  0  0  0  0  0  0  0
  141.2996   68.7365  229.3478 H   0  0  0  0  0  0  0  0  0  0  0  0
  141.8406   71.1392  229.2055 H   0  0  0  0  0  0  0  0  0  0  0  0
  141.2926   72.4792  227.1883 H   0  0  0  0  0  0  0  0  0  0  0  0
  138.2434   72.4026  223.0986 H   0  0  0  0  0  0  0  0  0  0  0  0
  140.0928   71.4635  221.1791 H   0  0  0  0  0  0  0  0  0  0  0  0
  142.0920   72.9552  220.6336 H   0  0  0  0  0  0  0  0  0  0  0  0
  142.9345   75.2000  220.1065 H   0  0  0  0  0  0  0  0  0  0  0  0
  140.9814   78.2788  221.1312 H   0  0  0  0  0  0  0  0  0  0  0  0
  142.7261   77.6613  221.2236 H   0  0  0  0  0  0  0  0  0  0  0  0
  143.8928   77.8243  218.6901 H   0  0  0  0  0  0  0  0  0  0  0  0
  143.1935   76.2552  218.9588 H   0  0  0  0  0  0  0  0  0  0  0  0
  143.0900   77.4184  216.4603 H   0  0  0  0  0  0  0  0  0  0  0  0
  141.7007   76.4844  216.9856 H   0  0  0  0  0  0  0  0  0  0  0  0
  140.5113   78.5735  216.8112 H   0  0  0  0  0  0  0  0  0  0  0  0
  143.1460   79.5030  216.7620 H   0  0  0  0  0  0  0  0  0  0  0  0
  141.8639   79.9072  219.0141 H   0  0  0  0  0  0  0  0  0  0  0  0
  140.3005   79.0919  219.0568 H   0  0  0  0  0  0  0  0  0  0  0  0
  139.5022   76.8986  222.0464 H   0  0  0  0  0  0  0  0  0  0  0  0
  138.6713   74.6114  222.5626 H   0  0  0  0  0  0  0  0  0  0  0  0
  138.9751   69.2588  222.0253 H   0  0  0  0  0  0  0  0  0  0  0  0
  138.7746   67.8362  223.1872 H   0  0  0  0  0  0  0  0  0  0  0  0
  136.7951   67.9852  222.5423 H   0  0  0  0  0  0  0  0  0  0  0  0
  136.6138   68.4385  224.9314 H   0  0  0  0  0  0  0  0  0  0  0  0
  136.8089   70.1964  224.6736 H   0  0  0  0  0  0  0  0  0  0  0  0
  134.5729   68.5503  223.3991 H   0  0  0  0  0  0  0  0  0  0  0  0
  134.4074   69.3852  224.9857 H   0  0  0  0  0  0  0  0  0  0  0  0
  133.7932   70.5134  222.6006 H   0  0  0  0  0  0  0  0  0  0  0  0
  134.3226   71.4341  224.0486 H   0  0  0  0  0  0  0  0  0  0  0  0
  135.5410   71.8598  221.7923 H   0  0  0  0  0  0  0  0  0  0  0  0
  136.5315   71.6085  223.2849 H   0  0  0  0  0  0  0  0  0  0  0  0
  135.8664   69.4457  221.2248 H   0  0  0  0  0  0  0  0  0  0  0  0
  137.4293   70.3604  221.3406 H   0  0  0  0  0  0  0  0  0  0  0  0
  1  2  2  0
  2  3  1  0
  3  4  2  0
  4  5  1  0
  5  6  2  0
  6  7  1  0
  7  8  2  0
  8  9  1  0
  9 10  2  0
 10 11  1  0
 11 12  2  0
 12 13  1  0
 13 14  2  0
 14 15  1  0
 15 16  2  0
 16 17  1  0
 17 18  1  0
 18 19  1  0
 19 20  1  0
 20 21  1  0
 21 22  1  0
 21 23  1  0
 16 24  1  0
 24 25  2  0
 10 26  1  0
 26 27  1  0
 27 28  1  0
 28 29  1  0
 29 30  1  0
 30 31  1  0
 31 32  1  0
 32 33  1  0
 26  2  1  0
 33 28  1  0
  8  3  1  0
 25 13  1  0
 23 18  1  0
  4 34  1  0
  5 35  1  0
  6 36  1  0
  7 37  1  0
 11 38  1  0
 12 39  1  0
 14 40  1  0
 15 41  1  0
 17 42  1  0
 17 43  1  0
 19 44  1  0
 19 45  1  0
 20 46  1  0
 20 47  1  0
 21 48  1  6
 22 49  1  0
 23 50  1  0
 23 51  1  0
 24 52  1  0
 25 53  1  0
 27 54  1  0
 27 55  1  0
 28 56  1  0
 29 57  1  0
 29 58  1  0
 30 59  1  0
 30 60  1  0
 31 61  1  0
 31 62  1  0
 32 63  1  0
 32 64  1  0
 33 65  1  0
 33 66  1  0
M  END
>  <smiles>  (28) 
O=c1c2ccccc2nc(/C=C/c2ccc(CN3CCC(O)C3)cc2)n1CC1CCCCC1

>  <score_type>  (28) 
oracle

>  <origin>  (28) 
autodockgpu

>  <m_score__min__energy>  (28) 
-9.2699999999999996

>  <m_primary>  (28) 
energy

>  <rmsd>  (28) 
11.752095786455284

>  <m_score__min__rmsd>  (28) 
11.752095786455284

>  <meeko>  (28) 
{"free_energy": -8.15, "intermolecular_energy": -10.54, "internal_energy": -1.75, "cluster_size": 1, "cluster_id": 7, "rank_in_cluster": 1}

>  <energy>  (28) 
-8.54

>  <cluster_rmsd>  (28) 
0.66

>  <cluster>  (28) 
1

$$$$

     RDKit          3D

 66 70  0  0  0  0  0  0  0  0999 V2000
  138.5960   68.6660  225.6680 O   0  0  0  0  0  0  0  0  0  0  0  0
  139.2640   69.6400  225.2170 C   0  0  0  0  0  0  0  0  0  0  0  0
  139.9770   70.3660  226.1390 C   0  0  0  0  0  0  0  0  0  0  0  0
  139.9770   70.0690  227.4810 C   0  0  0  0  0  0  0  0  0  0  0  0
  140.7280   70.8560  228.3450 C   0  0  0  0  0  0  0  0  0  0  0  0
  141.4480   71.9160  227.8300 C   0  0  0  0  0  0  0  0  0  0  0  0
  141.4580   72.2270  226.4860 C   0  0  0  0  0  0  0  0  0  0  0  0
  140.7040   71.4250  225.6580 C   0  0  0  0  0  0  0  0  0  0  0  0
  140.6790   71.6810  224.3670 N   0  0  0  0  0  0  0  0  0  0  0  0
  139.9780   70.9730  223.4290 C   0  0  0  0  0  0  0  0  0  0  0  0
  140.0560   71.4820  222.0900 C   0  0  0  0  0  0  0  0  0  0  0  0
  140.7170   72.4600  221.5750 C   0  0  0  0  0  0  0  0  0  0  0  0
  140.4110   73.8900  221.7760 C   0  0  0  0  0  0  0  0  0  0  0  0
  141.3730   74.8560  221.5210 C   0  0  0  0  0  0  0  0  0  0  0  0
  141.1510   76.2050  221.6850 C   0  0  0  0  0  0  0  0  0  0  0  0
  139.9180   76.6350  222.1250 C   0  0  0  0  0  0  0  0  0  0  0  0
  139.6140   78.0880  222.3170 C   0  0  0  0  0  0  0  0  0  0  0  0
  140.6930   78.9510  222.3540 N   0  0  0  0  0  0  0  0  0  0  0  0
  141.0690   79.7460  221.2680 C   0  0  0  0  0  0  0  0  0  0  0  0
  141.7130   80.9470  221.9870 C   0  0  0  0  0  0  0  0  0  0  0  0
  142.3130   80.3310  223.2490 C   0  0  2  0  0  0  0  0  0  0  0  0
  143.6940   80.2170  223.1070 O   0  0  0  0  0  0  0  0  0  0  0  0
  141.6220   78.9880  223.3910 C   0  0  0  0  0  0  0  0  0  0  0  0
  138.9350   75.7060  222.3910 C   0  0  0  0  0  0  0  0  0  0  0  0
  139.1920   74.3400  222.2130 C   0  0  0  0  0  0  0  0  0  0  0  0
  139.2640   69.9390  223.8760 N   0  0  0  0  0  0  0  0  0  0  0  0
  138.4830   69.0480  223.0600 C   0  0  0  0  0  0  0  0  0  0  0  0
  137.0610   69.4290  222.8490 C   0  0  0  0  0  0  0  0  0  0  0  0
  136.2050   69.2890  224.1090 C   0  0  0  0  0  0  0  0  0  0  0  0
  134.8030   69.7520  223.7820 C   0  0  0  0  0  0  0  0  0  0  0  0
  134.7790   71.2320  223.6200 C   0  0  0  0  0  0  0  0  0  0  0  0
  136.1630   71.7220  223.2720 C   0  0  0  0  0  0  0  0  0  0  0  0
  136.8530   70.7750  222.2750 C   0  0  0  0  0  0  0  0  0  0  0  0
  139.3912   69.2209  227.8651 H   0  0  0  0  0  0  0  0  0  0  0  0
  140.7488   70.6382  229.4230 H   0  0  0  0  0  0  0  0  0  0  0  0
  142.0377   72.5378  228.5197 H   0  0  0  0  0  0  0  0  0  0  0  0
  142.0399   73.0744  226.0945 H   0  0  0  0  0  0  0  0  0  0  0  0
  139.4341   70.9337  221.3670 H   0  0  0  0  0  0  0  0  0  0  0  0
  141.5765   72.2103  220.9356 H   0  0  0  0  0  0  0  0  0  0  0  0
  142.3627   74.5281  221.1702 H   0  0  0  0  0  0  0  0  0  0  0  0
  141.9484   76.9308  221.4674 H   0  0  0  0  0  0  0  0  0  0  0  0
  138.9633   78.4041  221.4883 H   0  0  0  0  0  0  0  0  0  0  0  0
  139.1562   78.1568  223.3148 H   0  0  0  0  0  0  0  0  0  0  0  0
  141.7921   79.2285  220.6205 H   0  0  0  0  0  0  0  0  0  0  0  0
  140.2408   80.0130  220.5951 H   0  0  0  0  0  0  0  0  0  0  0  0
  142.4951   81.4047  221.3634 H   0  0  0  0  0  0  0  0  0  0  0  0
  140.9940   81.7507  222.2041 H   0  0  0  0  0  0  0  0  0  0  0  0
  142.1584   80.9406  224.1515 H   0  0  0  0  0  0  0  0  0  0  0  0
  143.8330   79.6430  222.2910 H   0  0  0  0  0  0  0  0  0  0  0  0
  142.3473   78.1671  223.2902 H   0  0  0  0  0  0  0  0  0  0  0  0
  141.1475   78.8688  224.3762 H   0  0  0  0  0  0  0  0  0  0  0  0
  137.9472   76.0375  222.7436 H   0  0  0  0  0  0  0  0  0  0  0  0
  138.3967   73.6114  222.4291 H   0  0  0  0  0  0  0  0  0  0  0  0
  138.9645   68.9878  222.0728 H   0  0  0  0  0  0  0  0  0  0  0  0
  138.4546   68.0948  223.6083 H   0  0  0  0  0  0  0  0  0  0  0  0
  136.7283   68.6969  222.0984 H   0  0  0  0  0  0  0  0  0  0  0  0
  136.1843   68.2371  224.4301 H   0  0  0  0  0  0  0  0  0  0  0  0
  136.6256   69.8971  224.9234 H   0  0  0  0  0  0  0  0  0  0  0  0
  134.4720   69.2779  222.8462 H   0  0  0  0  0  0  0  0  0  0  0  0
  134.1287   69.4682  224.6035 H   0  0  0  0  0  0  0  0  0  0  0  0
  134.0810   71.5014  222.8136 H   0  0  0  0  0  0  0  0  0  0  0  0
  134.4503   71.6987  224.5603 H   0  0  0  0  0  0  0  0  0  0  0  0
  136.0869   72.7231  222.8225 H   0  0  0  0  0  0  0  0  0  0  0  0
  136.7630   71.7557  224.1934 H   0  0  0  0  0  0  0  0  0  0  0  0
  136.2250   70.6855  221.3763 H   0  0  0  0  0  0  0  0  0  0  0  0
  137.8384   71.1973  222.0289 H   0  0  0  0  0  0  0  0  0  0  0  0
  1  2  2  0
  2  3  1  0
  3  4  2  0
  4  5  1  0
  5  6  2  0
  6  7  1  0
  7  8  2  0
  8  9  1  0
  9 10  2  0
 10 11  1  0
 11 12  2  0
 12 13  1  0
 13 14  2  0
 14 15  1  0
 15 16  2  0
 16 17  1  0
 17 18  1  0
 18 19  1  0
 19 20  1  0
 20 21  1  0
 21 22  1  0
 21 23  1  0
 16 24  1  0
 24 25  2  0
 10 26  1  0
 26 27  1  0
 27 28  1  0
 28 29  1  0
 29 30  1  0
 30 31  1  0
 31 32  1  0
 32 33  1  0
 26  2  1  0
 33 28  1  0
  8  3  1  0
 25 13  1  0
 23 18  1  0
  4 34  1  0
  5 35  1  0
  6 36  1  0
  7 37  1  0
 11 38  1  0
 12 39  1  0
 14 40  1  0
 15 41  1  0
 17 42  1  0
 17 43  1  0
 19 44  1  0
 19 45  1  0
 20 46  1  0
 20 47  1  0
 21 48  1  1
 22 49  1  0
 23 50  1  0
 23 51  1  0
 24 52  1  0
 25 53  1  0
 27 54  1  0
 27 55  1  0
 28 56  1  0
 29 57  1  0
 29 58  1  0
 30 59  1  0
 30 60  1  0
 31 61  1  0
 31 62  1  0
 32 63  1  0
 32 64  1  0
 33 65  1  0
 33 66  1  0
M  END
>  <smiles>  (29) 
O=c1c2ccccc2nc(/C=C/c2ccc(CN3CCC(O)C3)cc2)n1CC1CCCCC1

>  <score_type>  (29) 
oracle

>  <origin>  (29) 
autodockgpu

>  <m_score__min__energy>  (29) 
-9.2699999999999996

>  <m_primary>  (29) 
energy

>  <rmsd>  (29) 
11.109981202450625

>  <m_score__min__rmsd>  (29) 
11.109981202450625

>  <meeko>  (29) 
{"free_energy": -8.94, "intermolecular_energy": -11.32, "internal_energy": -2.05, "cluster_size": 33, "cluster_id": 1, "rank_in_cluster": 11}

>  <energy>  (29) 
-8.47

>  <cluster_rmsd>  (29) 
1.05

>  <cluster>  (29) 
1

$$$$

     RDKit          3D

 66 70  0  0  0  0  0  0  0  0999 V2000
  139.2320   67.2980  225.3720 O   0  0  0  0  0  0  0  0  0  0  0  0
  139.2800   68.5610  225.3620 C   0  0  0  0  0  0  0  0  0  0  0  0
  139.9800   69.1510  226.3860 C   0  0  0  0  0  0  0  0  0  0  0  0
  140.6000   68.4280  227.3770 C   0  0  0  0  0  0  0  0  0  0  0  0
  141.2870   69.1050  228.3750 C   0  0  0  0  0  0  0  0  0  0  0  0
  141.3250   70.4850  228.3450 C   0  0  0  0  0  0  0  0  0  0  0  0
  140.7070   71.2250  227.3580 C   0  0  0  0  0  0  0  0  0  0  0  0
  140.0360   70.5210  226.3830 C   0  0  0  0  0  0  0  0  0  0  0  0
  139.4290   71.1810  225.4190 N   0  0  0  0  0  0  0  0  0  0  0  0
  138.7260   70.6180  224.3890 C   0  0  0  0  0  0  0  0  0  0  0  0
  138.0980   71.5460  223.4930 C   0  0  0  0  0  0  0  0  0  0  0  0
  138.3400   71.8610  222.2680 C   0  0  0  0  0  0  0  0  0  0  0  0
  139.4710   72.6930  221.8130 C   0  0  0  0  0  0  0  0  0  0  0  0
  140.7270   72.1320  221.6330 C   0  0  0  0  0  0  0  0  0  0  0  0
  141.8210   72.8510  221.2090 C   0  0  0  0  0  0  0  0  0  0  0  0
  141.6820   74.1970  220.9470 C   0  0  0  0  0  0  0  0  0  0  0  0
  142.8330   75.0300  220.4780 C   0  0  0  0  0  0  0  0  0  0  0  0
  143.9710   74.3550  220.0780 N   0  0  0  0  0  0  0  0  0  0  0  0
  145.1510   74.3430  220.8260 C   0  0  0  0  0  0  0  0  0  0  0  0
  145.7450   72.9800  220.4230 C   0  0  0  0  0  0  0  0  0  0  0  0
  145.2710   72.7920  218.9840 C   0  0  2  0  0  0  0  0  0  0  0  0
  146.3240   73.0330  218.1050 O   0  0  0  0  0  0  0  0  0  0  0  0
  144.1280   73.7760  218.8210 C   0  0  0  0  0  0  0  0  0  0  0  0
  140.4500   74.7920  221.1150 C   0  0  0  0  0  0  0  0  0  0  0  0
  139.3560   74.0330  221.5470 C   0  0  0  0  0  0  0  0  0  0  0  0
  138.6600   69.2860  224.3730 N   0  0  0  0  0  0  0  0  0  0  0  0
  138.0020   68.4940  223.3680 C   0  0  0  0  0  0  0  0  0  0  0  0
  136.5150   68.5410  223.3660 C   0  0  0  0  0  0  0  0  0  0  0  0
  135.9310   69.2140  224.6080 C   0  0  0  0  0  0  0  0  0  0  0  0
  134.4260   69.2470  224.4650 C   0  0  0  0  0  0  0  0  0  0  0  0
  134.0340   70.2410  223.4280 C   0  0  0  0  0  0  0  0  0  0  0  0
  135.1920   70.4690  222.4870 C   0  0  0  0  0  0  0  0  0  0  0  0
  135.9110   69.1490  222.1620 C   0  0  0  0  0  0  0  0  0  0  0  0
  140.5524   67.3290  227.3791 H   0  0  0  0  0  0  0  0  0  0  0  0
  141.7939   68.5502  229.1783 H   0  0  0  0  0  0  0  0  0  0  0  0
  141.8698   71.0156  229.1398 H   0  0  0  0  0  0  0  0  0  0  0  0
  140.7483   72.3242  227.3503 H   0  0  0  0  0  0  0  0  0  0  0  0
  137.2509   72.0906  223.9354 H   0  0  0  0  0  0  0  0  0  0  0  0
  137.6498   71.4802  221.5008 H   0  0  0  0  0  0  0  0  0  0  0  0
  140.8547   71.0591  221.8395 H   0  0  0  0  0  0  0  0  0  0  0  0
  142.7955   72.3571  221.0806 H   0  0  0  0  0  0  0  0  0  0  0  0
  142.4839   75.6284  219.6236 H   0  0  0  0  0  0  0  0  0  0  0  0
  143.1406   75.6153  221.3571 H   0  0  0  0  0  0  0  0  0  0  0  0
  145.8161   75.1723  220.5434 H   0  0  0  0  0  0  0  0  0  0  0  0
  145.0013   74.4686  221.9085 H   0  0  0  0  0  0  0  0  0  0  0  0
  146.8436   72.9997  220.4750 H   0  0  0  0  0  0  0  0  0  0  0  0
  145.4277   72.1627  221.0873 H   0  0  0  0  0  0  0  0  0  0  0  0
  144.9320   71.7691  218.7632 H   0  0  0  0  0  0  0  0  0  0  0  0
  146.4120   74.0360  218.0620 H   0  0  0  0  0  0  0  0  0  0  0  0
  144.3797   74.5407  218.0715 H   0  0  0  0  0  0  0  0  0  0  0  0
  143.2066   73.2862  218.4729 H   0  0  0  0  0  0  0  0  0  0  0  0
  140.3263   75.8655  220.9092 H   0  0  0  0  0  0  0  0  0  0  0  0
  138.3801   74.5238  221.6762 H   0  0  0  0  0  0  0  0  0  0  0  0
  138.3504   68.8424  222.3845 H   0  0  0  0  0  0  0  0  0  0  0  0
  138.2638   67.4504  223.5967 H   0  0  0  0  0  0  0  0  0  0  0  0
  136.2437   67.4750  223.3671 H   0  0  0  0  0  0  0  0  0  0  0  0
  136.2071   68.6418  225.5060 H   0  0  0  0  0  0  0  0  0  0  0  0
  136.3254   70.2361  224.7068 H   0  0  0  0  0  0  0  0  0  0  0  0
  134.0664   68.2506  224.1687 H   0  0  0  0  0  0  0  0  0  0  0  0
  133.9783   69.5344  225.4278 H   0  0  0  0  0  0  0  0  0  0  0  0
  133.1712   69.8598  222.8621 H   0  0  0  0  0  0  0  0  0  0  0  0
  133.7634   71.1903  223.9134 H   0  0  0  0  0  0  0  0  0  0  0  0
  134.8143   70.9114  221.5534 H   0  0  0  0  0  0  0  0  0  0  0  0
  135.9091   71.1462  222.9740 H   0  0  0  0  0  0  0  0  0  0  0  0
  135.1836   68.4436  221.7339 H   0  0  0  0  0  0  0  0  0  0  0  0
  136.7187   69.3670  221.4478 H   0  0  0  0  0  0  0  0  0  0  0  0
  1  2  2  0
  2  3  1  0
  3  4  2  0
  4  5  1  0
  5  6  2  0
  6  7  1  0
  7  8  2  0
  8  9  1  0
  9 10  2  0
 10 11  1  0
 11 12  2  0
 12 13  1  0
 13 14  2  0
 14 15  1  0
 15 16  2  0
 16 17  1  0
 17 18  1  0
 18 19  1  0
 19 20  1  0
 20 21  1  0
 21 22  1  0
 21 23  1  0
 16 24  1  0
 24 25  2  0
 10 26  1  0
 26 27  1  0
 27 28  1  0
 28 29  1  0
 29 30  1  0
 30 31  1  0
 31 32  1  0
 32 33  1  0
 26  2  1  0
 33 28  1  0
  8  3  1  0
 25 13  1  0
 23 18  1  0
  4 34  1  0
  5 35  1  0
  6 36  1  0
  7 37  1  0
 11 38  1  0
 12 39  1  0
 14 40  1  0
 15 41  1  0
 17 42  1  0
 17 43  1  0
 19 44  1  0
 19 45  1  0
 20 46  1  0
 20 47  1  0
 21 48  1  1
 22 49  1  0
 23 50  1  0
 23 51  1  0
 24 52  1  0
 25 53  1  0
 27 54  1  0
 27 55  1  0
 28 56  1  0
 29 57  1  0
 29 58  1  0
 30 59  1  0
 30 60  1  0
 31 61  1  0
 31 62  1  0
 32 63  1  0
 32 64  1  0
 33 65  1  0
 33 66  1  0
M  END
>  <smiles>  (30) 
O=c1c2ccccc2nc(/C=C/c2ccc(CN3CCC(O)C3)cc2)n1CC1CCCCC1

>  <score_type>  (30) 
oracle

>  <origin>  (30) 
autodockgpu

>  <m_score__min__energy>  (30) 
-9.2699999999999996

>  <m_primary>  (30) 
energy

>  <rmsd>  (30) 
12.120643605206803

>  <m_score__min__rmsd>  (30) 
12.120643605206803

>  <meeko>  (30) 
{"free_energy": -8.68, "intermolecular_energy": -11.07, "internal_energy": -1.94, "cluster_size": 2, "cluster_id": 4, "rank_in_cluster": 1}

>  <energy>  (30) 
-8.44

>  <cluster_rmsd>  (30) 
0.93

>  <cluster>  (30) 
1

$$$$

     RDKit          3D

 66 70  0  0  0  0  0  0  0  0999 V2000
  138.9250   68.3950  224.9540 O   0  0  0  0  0  0  0  0  0  0  0  0
  139.4960   69.5180  224.8470 C   0  0  0  0  0  0  0  0  0  0  0  0
  140.0040   70.0550  226.0040 C   0  0  0  0  0  0  0  0  0  0  0  0
  139.9080   69.4230  227.2220 C   0  0  0  0  0  0  0  0  0  0  0  0
  140.4500   70.0370  228.3430 C   0  0  0  0  0  0  0  0  0  0  0  0
  141.0680   71.2640  228.2030 C   0  0  0  0  0  0  0  0  0  0  0  0
  141.1720   71.9100  226.9880 C   0  0  0  0  0  0  0  0  0  0  0  0
  140.6240   71.2730  225.8970 C   0  0  0  0  0  0  0  0  0  0  0  0
  140.6960   71.8480  224.7160 N   0  0  0  0  0  0  0  0  0  0  0  0
  140.1990   71.3360  223.5490 C   0  0  0  0  0  0  0  0  0  0  0  0
  140.3430   72.1780  222.3960 C   0  0  0  0  0  0  0  0  0  0  0  0
  139.6450   73.1670  221.9570 C   0  0  0  0  0  0  0  0  0  0  0  0
  140.1790   74.5060  221.6360 C   0  0  0  0  0  0  0  0  0  0  0  0
  139.7420   75.6220  222.3350 C   0  0  0  0  0  0  0  0  0  0  0  0
  140.2020   76.8950  222.0860 C   0  0  0  0  0  0  0  0  0  0  0  0
  141.1410   77.0910  221.0980 C   0  0  0  0  0  0  0  0  0  0  0  0
  141.6820   78.4500  220.7850 C   0  0  0  0  0  0  0  0  0  0  0  0
  141.6300   79.3900  221.7960 N   0  0  0  0  0  0  0  0  0  0  0  0
  140.6340   80.3670  221.8770 C   0  0  0  0  0  0  0  0  0  0  0  0
  140.5630   80.5950  223.3990 C   0  0  0  0  0  0  0  0  0  0  0  0
  141.9940   80.3430  223.8670 C   0  0  2  0  0  0  0  0  0  0  0  0
  142.6210   81.5570  224.1430 O   0  0  0  0  0  0  0  0  0  0  0  0
  142.6480   79.5860  222.7270 C   0  0  0  0  0  0  0  0  0  0  0  0
  141.6000   76.0070  220.3790 C   0  0  0  0  0  0  0  0  0  0  0  0
  141.1130   74.7230  220.6570 C   0  0  0  0  0  0  0  0  0  0  0  0
  139.5920   70.1510  223.6320 N   0  0  0  0  0  0  0  0  0  0  0  0
  139.0290   69.4210  222.5260 C   0  0  0  0  0  0  0  0  0  0  0  0
  137.5520   69.5040  222.3720 C   0  0  0  0  0  0  0  0  0  0  0  0
  136.8370   68.1920  222.6970 C   0  0  0  0  0  0  0  0  0  0  0  0
  135.3480   68.4160  222.5530 C   0  0  0  0  0  0  0  0  0  0  0  0
  134.8490   69.2620  223.6730 C   0  0  0  0  0  0  0  0  0  0  0  0
  135.9920   70.0700  224.2390 C   0  0  0  0  0  0  0  0  0  0  0  0
  136.9050   70.6010  223.1210 C   0  0  0  0  0  0  0  0  0  0  0  0
  139.4095   68.4461  227.3065 H   0  0  0  0  0  0  0  0  0  0  0  0
  140.3880   69.5530  229.3288 H   0  0  0  0  0  0  0  0  0  0  0  0
  141.4943   71.7455  229.0954 H   0  0  0  0  0  0  0  0  0  0  0  0
  141.6689   72.8870  226.8954 H   0  0  0  0  0  0  0  0  0  0  0  0
  141.2131   71.9325  221.7694 H   0  0  0  0  0  0  0  0  0  0  0  0
  138.5675   73.0018  221.8097 H   0  0  0  0  0  0  0  0  0  0  0  0
  138.9913   75.4825  223.1268 H   0  0  0  0  0  0  0  0  0  0  0  0
  139.8236   77.7469  222.6700 H   0  0  0  0  0  0  0  0  0  0  0  0
  142.7367   78.3298  220.4965 H   0  0  0  0  0  0  0  0  0  0  0  0
  141.0288   78.8439  219.9924 H   0  0  0  0  0  0  0  0  0  0  0  0
  140.9251   81.2847  221.3449 H   0  0  0  0  0  0  0  0  0  0  0  0
  139.6773   80.0761  221.4186 H   0  0  0  0  0  0  0  0  0  0  0  0
  140.2506   81.6246  223.6277 H   0  0  0  0  0  0  0  0  0  0  0  0
  139.8299   79.9421  223.8952 H   0  0  0  0  0  0  0  0  0  0  0  0
  142.0551   79.7615  224.7987 H   0  0  0  0  0  0  0  0  0  0  0  0
  142.5130   82.1090  223.3080 H   0  0  0  0  0  0  0  0  0  0  0  0
  143.4651   80.1774  222.2882 H   0  0  0  0  0  0  0  0  0  0  0  0
  143.0919   78.6366  223.0612 H   0  0  0  0  0  0  0  0  0  0  0  0
  142.3492   76.1508  219.5865 H   0  0  0  0  0  0  0  0  0  0  0  0
  141.4895   73.8686  220.0754 H   0  0  0  0  0  0  0  0  0  0  0  0
  139.4855   69.8057  221.6021 H   0  0  0  0  0  0  0  0  0  0  0  0
  139.2461   68.3620  222.7295 H   0  0  0  0  0  0  0  0  0  0  0  0
  137.4380   69.7270  221.3009 H   0  0  0  0  0  0  0  0  0  0  0  0
  137.1645   67.4069  221.9996 H   0  0  0  0  0  0  0  0  0  0  0  0
  137.0756   67.8736  223.7225 H   0  0  0  0  0  0  0  0  0  0  0  0
  135.1465   68.9215  221.5970 H   0  0  0  0  0  0  0  0  0  0  0  0
  134.8328   67.4444  222.5773 H   0  0  0  0  0  0  0  0  0  0  0  0
  134.0685   69.9415  223.3001 H   0  0  0  0  0  0  0  0  0  0  0  0
  134.4285   68.6189  224.4601 H   0  0  0  0  0  0  0  0  0  0  0  0
  135.5844   70.9212  224.8040 H   0  0  0  0  0  0  0  0  0  0  0  0
  136.5877   69.4185  224.8952 H   0  0  0  0  0  0  0  0  0  0  0  0
  136.3017   71.2006  222.4236 H   0  0  0  0  0  0  0  0  0  0  0  0
  137.6949   71.2096  223.5854 H   0  0  0  0  0  0  0  0  0  0  0  0
  1  2  2  0
  2  3  1  0
  3  4  2  0
  4  5  1  0
  5  6  2  0
  6  7  1  0
  7  8  2  0
  8  9  1  0
  9 10  2  0
 10 11  1  0
 11 12  2  0
 12 13  1  0
 13 14  2  0
 14 15  1  0
 15 16  2  0
 16 17  1  0
 17 18  1  0
 18 19  1  0
 19 20  1  0
 20 21  1  0
 21 22  1  0
 21 23  1  0
 16 24  1  0
 24 25  2  0
 10 26  1  0
 26 27  1  0
 27 28  1  0
 28 29  1  0
 29 30  1  0
 30 31  1  0
 31 32  1  0
 32 33  1  0
 26  2  1  0
 33 28  1  0
  8  3  1  0
 25 13  1  0
 23 18  1  0
  4 34  1  0
  5 35  1  0
  6 36  1  0
  7 37  1  0
 11 38  1  0
 12 39  1  0
 14 40  1  0
 15 41  1  0
 17 42  1  0
 17 43  1  0
 19 44  1  0
 19 45  1  0
 20 46  1  0
 20 47  1  0
 21 48  1  1
 22 49  1  0
 23 50  1  0
 23 51  1  0
 24 52  1  0
 25 53  1  0
 27 54  1  0
 27 55  1  0
 28 56  1  0
 29 57  1  0
 29 58  1  0
 30 59  1  0
 30 60  1  0
 31 61  1  0
 31 62  1  0
 32 63  1  0
 32 64  1  0
 33 65  1  0
 33 66  1  0
M  END
>  <smiles>  (31) 
O=c1c2ccccc2nc(/C=C/c2ccc(CN3CCC(O)C3)cc2)n1CC1CCCCC1

>  <score_type>  (31) 
oracle

>  <origin>  (31) 
autodockgpu

>  <m_score__min__energy>  (31) 
-9.2699999999999996

>  <m_primary>  (31) 
energy

>  <rmsd>  (31) 
11.335358908097668

>  <m_score__min__rmsd>  (31) 
11.335358908097668

>  <meeko>  (31) 
{"free_energy": -8.6, "intermolecular_energy": -10.98, "internal_energy": -1.82, "cluster_size": 33, "cluster_id": 1, "rank_in_cluster": 26}

>  <energy>  (31) 
-8.31

>  <cluster_rmsd>  (31) 
1.57

>  <cluster>  (31) 
1

$$$$

     RDKit          3D

 66 70  0  0  0  0  0  0  0  0999 V2000
  138.5820   68.7000  225.4860 O   0  0  0  0  0  0  0  0  0  0  0  0
  139.2530   69.7050  225.1170 C   0  0  0  0  0  0  0  0  0  0  0  0
  139.9660   70.3530  226.0950 C   0  0  0  0  0  0  0  0  0  0  0  0
  139.9630   69.9490  227.4090 C   0  0  0  0  0  0  0  0  0  0  0  0
  140.7130   70.6610  228.3350 C   0  0  0  0  0  0  0  0  0  0  0  0
  141.4380   71.7570  227.9090 C   0  0  0  0  0  0  0  0  0  0  0  0
  141.4510   72.1760  226.5950 C   0  0  0  0  0  0  0  0  0  0  0  0
  140.6970   71.4460  225.7030 C   0  0  0  0  0  0  0  0  0  0  0  0
  140.6750   71.8050  224.4380 N   0  0  0  0  0  0  0  0  0  0  0  0
  139.9740   71.1780  223.4440 C   0  0  0  0  0  0  0  0  0  0  0  0
  140.0560   71.7930  222.1510 C   0  0  0  0  0  0  0  0  0  0  0  0
  140.7020   72.8220  221.7240 C   0  0  0  0  0  0  0  0  0  0  0  0
  140.2580   74.2230  221.8700 C   0  0  0  0  0  0  0  0  0  0  0  0
  141.1800   75.2590  221.8250 C   0  0  0  0  0  0  0  0  0  0  0  0
  140.8310   76.5840  221.9520 C   0  0  0  0  0  0  0  0  0  0  0  0
  139.5070   76.9180  222.1350 C   0  0  0  0  0  0  0  0  0  0  0  0
  139.0660   78.3410  222.2730 C   0  0  0  0  0  0  0  0  0  0  0  0
  140.0510   79.2780  222.5250 N   0  0  0  0  0  0  0  0  0  0  0  0
  140.6400   79.4440  223.7820 C   0  0  0  0  0  0  0  0  0  0  0  0
  142.0390   79.9550  223.3890 C   0  0  0  0  0  0  0  0  0  0  0  0
  141.7880   80.7380  222.1030 C   0  0  2  0  0  0  0  0  0  0  0  0
  141.8280   82.1060  222.3670 O   0  0  0  0  0  0  0  0  0  0  0  0
  140.4280   80.2690  221.6230 C   0  0  0  0  0  0  0  0  0  0  0  0
  138.5600   75.9170  222.1860 C   0  0  0  0  0  0  0  0  0  0  0  0
  138.9470   74.5770  222.0530 C   0  0  0  0  0  0  0  0  0  0  0  0
  139.2570   70.1130  223.8050 N   0  0  0  0  0  0  0  0  0  0  0  0
  138.4750   69.2920  222.9180 C   0  0  0  0  0  0  0  0  0  0  0  0
  137.0420   69.6620  222.7750 C   0  0  0  0  0  0  0  0  0  0  0  0
  136.1600   69.1050  223.8930 C   0  0  0  0  0  0  0  0  0  0  0  0
  134.7450   69.5890  223.6660 C   0  0  0  0  0  0  0  0  0  0  0  0
  134.6500   71.0440  223.9680 C   0  0  0  0  0  0  0  0  0  0  0  0
  136.0170   71.6740  223.8450 C   0  0  0  0  0  0  0  0  0  0  0  0
  136.7810   71.1110  222.6350 C   0  0  0  0  0  0  0  0  0  0  0  0
  139.3746   69.0739  227.7222 H   0  0  0  0  0  0  0  0  0  0  0  0
  140.7298   70.3571  229.3921 H   0  0  0  0  0  0  0  0  0  0  0  0
  142.0289   72.3183  228.6477 H   0  0  0  0  0  0  0  0  0  0  0  0
  142.0355   73.0511  226.2748 H   0  0  0  0  0  0  0  0  0  0  0  0
  139.4540   71.2915  221.3789 H   0  0  0  0  0  0  0  0  0  0  0  0
  141.6585   72.6437  221.2108 H   0  0  0  0  0  0  0  0  0  0  0  0
  142.2414   75.0090  221.6808 H   0  0  0  0  0  0  0  0  0  0  0  0
  141.6011   77.3683  221.9079 H   0  0  0  0  0  0  0  0  0  0  0  0
  138.5669   78.6270  221.3354 H   0  0  0  0  0  0  0  0  0  0  0  0
  138.4198   78.3567  223.1631 H   0  0  0  0  0  0  0  0  0  0  0  0
  140.0959   80.1833  224.3881 H   0  0  0  0  0  0  0  0  0  0  0  0
  140.6479   78.5351  224.4015 H   0  0  0  0  0  0  0  0  0  0  0  0
  142.4527   80.6079  224.1717 H   0  0  0  0  0  0  0  0  0  0  0  0
  142.7693   79.1428  223.2588 H   0  0  0  0  0  0  0  0  0  0  0  0
  142.5498   80.5656  221.3284 H   0  0  0  0  0  0  0  0  0  0  0  0
  141.6040   82.5530  221.4930 H   0  0  0  0  0  0  0  0  0  0  0  0
  139.7059   81.0987  221.6358 H   0  0  0  0  0  0  0  0  0  0  0  0
  140.4603   79.8963  220.5886 H   0  0  0  0  0  0  0  0  0  0  0  0
  137.4996   76.1708  222.3313 H   0  0  0  0  0  0  0  0  0  0  0  0
  138.1797   73.7900  222.0965 H   0  0  0  0  0  0  0  0  0  0  0  0
  138.9359   69.3420  221.9205 H   0  0  0  0  0  0  0  0  0  0  0  0
  138.4768   68.2879  223.3673 H   0  0  0  0  0  0  0  0  0  0  0  0
  136.7683   69.1852  221.8222 H   0  0  0  0  0  0  0  0  0  0  0  0
  136.1848   68.0055  223.8737 H   0  0  0  0  0  0  0  0  0  0  0  0
  136.5260   69.4484  224.8718 H   0  0  0  0  0  0  0  0  0  0  0  0
  134.4646   69.4157  222.6165 H   0  0  0  0  0  0  0  0  0  0  0  0
  134.0636   69.0371  224.3301 H   0  0  0  0  0  0  0  0  0  0  0  0
  133.9606   71.5219  223.2564 H   0  0  0  0  0  0  0  0  0  0  0  0
  134.2735   71.1820  224.9923 H   0  0  0  0  0  0  0  0  0  0  0  0
  135.9016   72.7611  223.7225 H   0  0  0  0  0  0  0  0  0  0  0  0
  136.5895   71.4454  224.7560 H   0  0  0  0  0  0  0  0  0  0  0  0
  136.1831   71.2788  221.7271 H   0  0  0  0  0  0  0  0  0  0  0  0
  137.7499   71.6281  222.5721 H   0  0  0  0  0  0  0  0  0  0  0  0
  1  2  2  0
  2  3  1  0
  3  4  2  0
  4  5  1  0
  5  6  2  0
  6  7  1  0
  7  8  2  0
  8  9  1  0
  9 10  2  0
 10 11  1  0
 11 12  2  0
 12 13  1  0
 13 14  2  0
 14 15  1  0
 15 16  2  0
 16 17  1  0
 17 18  1  0
 18 19  1  0
 19 20  1  0
 20 21  1  0
 21 22  1  0
 21 23  1  0
 16 24  1  0
 24 25  2  0
 10 26  1  0
 26 27  1  0
 27 28  1  0
 28 29  1  0
 29 30  1  0
 30 31  1  0
 31 32  1  0
 32 33  1  0
 26  2  1  0
 33 28  1  0
  8  3  1  0
 25 13  1  0
 23 18  1  0
  4 34  1  0
  5 35  1  0
  6 36  1  0
  7 37  1  0
 11 38  1  0
 12 39  1  0
 14 40  1  0
 15 41  1  0
 17 42  1  0
 17 43  1  0
 19 44  1  0
 19 45  1  0
 20 46  1  0
 20 47  1  0
 21 48  1  6
 22 49  1  0
 23 50  1  0
 23 51  1  0
 24 52  1  0
 25 53  1  0
 27 54  1  0
 27 55  1  0
 28 56  1  0
 29 57  1  0
 29 58  1  0
 30 59  1  0
 30 60  1  0
 31 61  1  0
 31 62  1  0
 32 63  1  0
 32 64  1  0
 33 65  1  0
 33 66  1  0
M  END
>  <smiles>  (32) 
O=c1c2ccccc2nc(/C=C/c2ccc(CN3CCC(O)C3)cc2)n1CC1CCCCC1

>  <score_type>  (32) 
oracle

>  <origin>  (32) 
autodockgpu

>  <m_score__min__energy>  (32) 
-9.2699999999999996

>  <m_primary>  (32) 
energy

>  <rmsd>  (32) 
11.16166335255281

>  <m_score__min__rmsd>  (32) 
11.16166335255281

>  <meeko>  (32) 
{"free_energy": -8.15, "intermolecular_energy": -10.53, "internal_energy": -2.03, "cluster_size": 33, "cluster_id": 1, "rank_in_cluster": 33}

>  <energy>  (32) 
-8.3

>  <cluster_rmsd>  (32) 
1.54

>  <cluster>  (32) 
1

$$$$

     RDKit          3D

 66 70  0  0  0  0  0  0  0  0999 V2000
  143.1140   77.2760  219.3440 O   0  0  0  0  0  0  0  0  0  0  0  0
  142.1550   76.8740  220.0630 C   0  0  0  0  0  0  0  0  0  0  0  0
  142.1650   75.5440  220.4040 C   0  0  0  0  0  0  0  0  0  0  0  0
  143.1540   74.6800  219.9960 C   0  0  0  0  0  0  0  0  0  0  0  0
  143.0880   73.3490  220.3860 C   0  0  0  0  0  0  0  0  0  0  0  0
  142.0300   72.9320  221.1700 C   0  0  0  0  0  0  0  0  0  0  0  0
  141.0310   73.7870  221.5870 C   0  0  0  0  0  0  0  0  0  0  0  0
  141.1280   75.1000  221.1830 C   0  0  0  0  0  0  0  0  0  0  0  0
  140.1990   75.9550  221.5540 N   0  0  0  0  0  0  0  0  0  0  0  0
  140.1650   77.2840  221.2290 C   0  0  0  0  0  0  0  0  0  0  0  0
  139.0160   78.0030  221.6980 C   0  0  0  0  0  0  0  0  0  0  0  0
  138.5000   78.1360  222.8700 C   0  0  0  0  0  0  0  0  0  0  0  0
  137.9510   79.3920  223.4180 C   0  0  0  0  0  0  0  0  0  0  0  0
  138.6420   80.0920  224.3970 C   0  0  0  0  0  0  0  0  0  0  0  0
  138.1870   81.2690  224.9460 C   0  0  0  0  0  0  0  0  0  0  0  0
  136.9870   81.7940  224.5150 C   0  0  0  0  0  0  0  0  0  0  0  0
  136.4440   83.0720  225.0700 C   0  0  0  0  0  0  0  0  0  0  0  0
  136.0830   83.0710  226.4040 N   0  0  0  0  0  0  0  0  0  0  0  0
  136.1550   84.2070  227.2140 C   0  0  0  0  0  0  0  0  0  0  0  0
  135.0290   83.9230  228.2270 C   0  0  0  0  0  0  0  0  0  0  0  0
  135.0300   82.4000  228.3460 C   0  0  2  0  0  0  0  0  0  0  0  0
  135.6280   82.0210  229.5460 O   0  0  0  0  0  0  0  0  0  0  0  0
  135.7930   81.9160  227.1280 C   0  0  0  0  0  0  0  0  0  0  0  0
  136.2700   81.1270  223.5440 C   0  0  0  0  0  0  0  0  0  0  0  0
  136.7610   79.9320  223.0050 C   0  0  0  0  0  0  0  0  0  0  0  0
  141.1650   77.7360  220.4710 N   0  0  0  0  0  0  0  0  0  0  0  0
  141.3390   79.0990  220.0420 C   0  0  0  0  0  0  0  0  0  0  0  0
  141.8810   80.0410  221.0570 C   0  0  0  0  0  0  0  0  0  0  0  0
  140.8380   81.0270  221.5830 C   0  0  0  0  0  0  0  0  0  0  0  0
  141.4930   81.8910  222.6380 C   0  0  0  0  0  0  0  0  0  0  0  0
  141.7350   81.0940  223.8720 C   0  0  0  0  0  0  0  0  0  0  0  0
  141.7930   79.6270  223.5200 C   0  0  0  0  0  0  0  0  0  0  0  0
  142.5590   79.4020  222.2050 C   0  0  0  0  0  0  0  0  0  0  0  0
  143.9848   75.0379  219.3702 H   0  0  0  0  0  0  0  0  0  0  0  0
  143.8668   72.6371  220.0752 H   0  0  0  0  0  0  0  0  0  0  0  0
  141.9821   71.8759  221.4740 H   0  0  0  0  0  0  0  0  0  0  0  0
  140.1967   73.4367  222.2124 H   0  0  0  0  0  0  0  0  0  0  0  0
  138.4735   78.5423  220.9075 H   0  0  0  0  0  0  0  0  0  0  0  0
  138.4655   77.2443  223.5131 H   0  0  0  0  0  0  0  0  0  0  0  0
  139.6008   79.6860  224.7517 H   0  0  0  0  0  0  0  0  0  0  0  0
  138.7740   81.7852  225.7199 H   0  0  0  0  0  0  0  0  0  0  0  0
  137.2133   83.8465  224.9345 H   0  0  0  0  0  0  0  0  0  0  0  0
  135.5080   83.2487  224.5198 H   0  0  0  0  0  0  0  0  0  0  0  0
  137.1333   84.2870  227.7104 H   0  0  0  0  0  0  0  0  0  0  0  0
  136.0449   85.1571  226.6706 H   0  0  0  0  0  0  0  0  0  0  0  0
  135.2459   84.3931  229.1976 H   0  0  0  0  0  0  0  0  0  0  0  0
  134.0562   84.3267  227.9097 H   0  0  0  0  0  0  0  0  0  0  0  0
  134.0217   81.9608  228.3674 H   0  0  0  0  0  0  0  0  0  0  0  0
  136.5680   82.3780  229.5000 H   0  0  0  0  0  0  0  0  0  0  0  0
  136.7195   81.4054  227.4295 H   0  0  0  0  0  0  0  0  0  0  0  0
  135.2132   81.1916  226.5371 H   0  0  0  0  0  0  0  0  0  0  0  0
  135.3107   81.5347  223.1925 H   0  0  0  0  0  0  0  0  0  0  0  0
  136.1770   79.4133  222.2305 H   0  0  0  0  0  0  0  0  0  0  0  0
  142.0282   79.0959  219.1847 H   0  0  0  0  0  0  0  0  0  0  0  0
  140.3287   79.4661  219.8084 H   0  0  0  0  0  0  0  0  0  0  0  0
  142.6463   80.5883  220.4871 H   0  0  0  0  0  0  0  0  0  0  0  0
  140.4733   81.6579  220.7590 H   0  0  0  0  0  0  0  0  0  0  0  0
  139.9846   80.4830  222.0140 H   0  0  0  0  0  0  0  0  0  0  0  0
  142.4523   82.2691  222.2548 H   0  0  0  0  0  0  0  0  0  0  0  0
  140.8281   82.7339  222.8777 H   0  0  0  0  0  0  0  0  0  0  0  0
  142.6893   81.4004  224.3252 H   0  0  0  0  0  0  0  0  0  0  0  0
  140.9173   81.2676  224.5870 H   0  0  0  0  0  0  0  0  0  0  0  0
  142.3019   79.0833  224.3296 H   0  0  0  0  0  0  0  0  0  0  0  0
  140.7647   79.2577  223.3925 H   0  0  0  0  0  0  0  0  0  0  0  0
  143.5685   79.8276  222.3040 H   0  0  0  0  0  0  0  0  0  0  0  0
  142.6025   78.3192  222.0162 H   0  0  0  0  0  0  0  0  0  0  0  0
  1  2  2  0
  2  3  1  0
  3  4  2  0
  4  5  1  0
  5  6  2  0
  6  7  1  0
  7  8  2  0
  8  9  1  0
  9 10  2  0
 10 11  1  0
 11 12  2  0
 12 13  1  0
 13 14  2  0
 14 15  1  0
 15 16  2  0
 16 17  1  0
 17 18  1  0
 18 19  1  0
 19 20  1  0
 20 21  1  0
 21 22  1  0
 21 23  1  0
 16 24  1  0
 24 25  2  0
 10 26  1  0
 26 27  1  0
 27 28  1  0
 28 29  1  0
 29 30  1  0
 30 31  1  0
 31 32  1  0
 32 33  1  0
 26  2  1  0
 33 28  1  0
  8  3  1  0
 25 13  1  0
 23 18  1  0
  4 34  1  0
  5 35  1  0
  6 36  1  0
  7 37  1  0
 11 38  1  0
 12 39  1  0
 14 40  1  0
 15 41  1  0
 17 42  1  0
 17 43  1  0
 19 44  1  0
 19 45  1  0
 20 46  1  0
 20 47  1  0
 21 48  1  1
 22 49  1  0
 23 50  1  0
 23 51  1  0
 24 52  1  0
 25 53  1  0
 27 54  1  0
 27 55  1  0
 28 56  1  0
 29 57  1  0
 29 58  1  0
 30 59  1  0
 30 60  1  0
 31 61  1  0
 31 62  1  0
 32 63  1  0
 32 64  1  0
 33 65  1  0
 33 66  1  0
M  END
>  <smiles>  (33) 
O=c1c2ccccc2nc(/C=C/c2ccc(CN3CCC(O)C3)cc2)n1CC1CCCCC1

>  <score_type>  (33) 
oracle

>  <origin>  (33) 
autodockgpu

>  <m_score__min__energy>  (33) 
-9.2699999999999996

>  <m_primary>  (33) 
energy

>  <rmsd>  (33) 
7.258360362467247

>  <m_score__min__rmsd>  (33) 
7.258360362467247

>  <meeko>  (33) 
{"free_energy": -7.51, "intermolecular_energy": -9.9, "internal_energy": -2.4, "cluster_size": 6, "cluster_id": 6, "rank_in_cluster": 6}

>  <energy>  (33) 
-8.15

>  <cluster_rmsd>  (33) 
1.1

>  <cluster>  (33) 
1

$$$$

     RDKit          3D

 66 70  0  0  0  0  0  0  0  0999 V2000
  138.8470   68.4320  224.9410 O   0  0  0  0  0  0  0  0  0  0  0  0
  139.4420   69.5420  224.8310 C   0  0  0  0  0  0  0  0  0  0  0  0
  139.9190   70.0930  225.9950 C   0  0  0  0  0  0  0  0  0  0  0  0
  139.7700   69.4890  227.2210 C   0  0  0  0  0  0  0  0  0  0  0  0
  140.2840   70.1150  228.3480 C   0  0  0  0  0  0  0  0  0  0  0  0
  140.9280   71.3280  228.2050 C   0  0  0  0  0  0  0  0  0  0  0  0
  141.0850   71.9480  226.9820 C   0  0  0  0  0  0  0  0  0  0  0  0
  140.5640   71.2980  225.8850 C   0  0  0  0  0  0  0  0  0  0  0  0
  140.6880   71.8480  224.6960 N   0  0  0  0  0  0  0  0  0  0  0  0
  140.2220   71.3210  223.5230 C   0  0  0  0  0  0  0  0  0  0  0  0
  140.4210   72.1370  222.3600 C   0  0  0  0  0  0  0  0  0  0  0  0
  139.6400   72.9410  221.7260 C   0  0  0  0  0  0  0  0  0  0  0  0
  139.5470   74.3950  221.9630 C   0  0  0  0  0  0  0  0  0  0  0  0
  140.6670   75.2020  221.8190 C   0  0  0  0  0  0  0  0  0  0  0  0
  140.6460   76.5640  222.0220 C   0  0  0  0  0  0  0  0  0  0  0  0
  139.4650   77.1730  222.3870 C   0  0  0  0  0  0  0  0  0  0  0  0
  139.3790   78.6490  222.6160 C   0  0  0  0  0  0  0  0  0  0  0  0
  140.5650   79.3560  222.5810 N   0  0  0  0  0  0  0  0  0  0  0  0
  140.9510   80.1430  221.4930 C   0  0  0  0  0  0  0  0  0  0  0  0
  141.8160   81.2110  222.1890 C   0  0  0  0  0  0  0  0  0  0  0  0
  142.4330   80.4610  223.3670 C   0  0  2  0  0  0  0  0  0  0  0  0
  143.7680   80.1690  223.0930 O   0  0  0  0  0  0  0  0  0  0  0  0
  141.5780   79.2190  223.5270 C   0  0  0  0  0  0  0  0  0  0  0  0
  138.3300   76.4040  222.5400 C   0  0  0  0  0  0  0  0  0  0  0  0
  138.3830   75.0210  222.3260 C   0  0  0  0  0  0  0  0  0  0  0  0
  139.5910   70.1490  223.6080 N   0  0  0  0  0  0  0  0  0  0  0  0
  139.0530   69.4070  222.4980 C   0  0  0  0  0  0  0  0  0  0  0  0
  137.5840   69.5070  222.2940 C   0  0  0  0  0  0  0  0  0  0  0  0
  136.8310   68.2370  222.6920 C   0  0  0  0  0  0  0  0  0  0  0  0
  135.3520   68.4790  222.4880 C   0  0  0  0  0  0  0  0  0  0  0  0
  134.8410   69.4140  223.5280 C   0  0  0  0  0  0  0  0  0  0  0  0
  135.9840   70.2380  224.0690 C   0  0  0  0  0  0  0  0  0  0  0  0
  136.9400   70.6680  222.9430 C   0  0  0  0  0  0  0  0  0  0  0  0
  139.2507   68.5232  227.3075 H   0  0  0  0  0  0  0  0  0  0  0  0
  140.1799   69.6518  229.3403 H   0  0  0  0  0  0  0  0  0  0  0  0
  141.3322   71.8200  229.1020 H   0  0  0  0  0  0  0  0  0  0  0  0
  141.6014   72.9147  226.8878 H   0  0  0  0  0  0  0  0  0  0  0  0
  141.4302   72.0618  221.9289 H   0  0  0  0  0  0  0  0  0  0  0  0
  138.9922   72.5111  220.9478 H   0  0  0  0  0  0  0  0  0  0  0  0
  141.6176   74.7308  221.5286 H   0  0  0  0  0  0  0  0  0  0  0  0
  141.5621   77.1593  221.8942 H   0  0  0  0  0  0  0  0  0  0  0  0
  138.7193   79.0677  221.8418 H   0  0  0  0  0  0  0  0  0  0  0  0
  139.0095   78.7588  223.6462 H   0  0  0  0  0  0  0  0  0  0  0  0
  141.5356   79.5634  220.7634 H   0  0  0  0  0  0  0  0  0  0  0  0
  140.1119   80.5508  220.9102 H   0  0  0  0  0  0  0  0  0  0  0  0
  142.5961   81.5875  221.5111 H   0  0  0  0  0  0  0  0  0  0  0  0
  141.2377   82.0936  222.4997 H   0  0  0  0  0  0  0  0  0  0  0  0
  142.4440   81.0426  224.3006 H   0  0  0  0  0  0  0  0  0  0  0  0
  143.7480   79.5380  222.3080 H   0  0  0  0  0  0  0  0  0  0  0  0
  142.1707   78.3134  223.3307 H   0  0  0  0  0  0  0  0  0  0  0  0
  141.1802   79.1192  224.5477 H   0  0  0  0  0  0  0  0  0  0  0  0
  137.3810   76.8782  222.8308 H   0  0  0  0  0  0  0  0  0  0  0  0
  137.4685   74.4228  222.4523 H   0  0  0  0  0  0  0  0  0  0  0  0
  139.5446   69.7682  221.5827 H   0  0  0  0  0  0  0  0  0  0  0  0
  139.2476   68.3491  222.7282 H   0  0  0  0  0  0  0  0  0  0  0  0
  137.5060   69.6528  221.2065 H   0  0  0  0  0  0  0  0  0  0  0  0
  137.1607   67.3966  222.0635 H   0  0  0  0  0  0  0  0  0  0  0  0
  137.0333   67.9903  223.7447 H   0  0  0  0  0  0  0  0  0  0  0  0
  135.1884   68.9170  221.4923 H   0  0  0  0  0  0  0  0  0  0  0  0
  134.8152   67.5222  222.5674 H   0  0  0  0  0  0  0  0  0  0  0  0
  134.0869   70.0802  223.0835 H   0  0  0  0  0  0  0  0  0  0  0  0
  134.3846   68.8381  224.3465 H   0  0  0  0  0  0  0  0  0  0  0  0
  135.5790   71.1359  224.5586 H   0  0  0  0  0  0  0  0  0  0  0  0
  136.5461   69.6247  224.7887 H   0  0  0  0  0  0  0  0  0  0  0  0
  136.3699   71.2273  222.1866 H   0  0  0  0  0  0  0  0  0  0  0  0
  137.7297   71.2925  223.3860 H   0  0  0  0  0  0  0  0  0  0  0  0
  1  2  2  0
  2  3  1  0
  3  4  2  0
  4  5  1  0
  5  6  2  0
  6  7  1  0
  7  8  2  0
  8  9  1  0
  9 10  2  0
 10 11  1  0
 11 12  2  0
 12 13  1  0
 13 14  2  0
 14 15  1  0
 15 16  2  0
 16 17  1  0
 17 18  1  0
 18 19  1  0
 19 20  1  0
 20 21  1  0
 21 22  1  0
 21 23  1  0
 16 24  1  0
 24 25  2  0
 10 26  1  0
 26 27  1  0
 27 28  1  0
 28 29  1  0
 29 30  1  0
 30 31  1  0
 31 32  1  0
 32 33  1  0
 26  2  1  0
 33 28  1  0
  8  3  1  0
 25 13  1  0
 23 18  1  0
  4 34  1  0
  5 35  1  0
  6 36  1  0
  7 37  1  0
 11 38  1  0
 12 39  1  0
 14 40  1  0
 15 41  1  0
 17 42  1  0
 17 43  1  0
 19 44  1  0
 19 45  1  0
 20 46  1  0
 20 47  1  0
 21 48  1  1
 22 49  1  0
 23 50  1  0
 23 51  1  0
 24 52  1  0
 25 53  1  0
 27 54  1  0
 27 55  1  0
 28 56  1  0
 29 57  1  0
 29 58  1  0
 30 59  1  0
 30 60  1  0
 31 61  1  0
 31 62  1  0
 32 63  1  0
 32 64  1  0
 33 65  1  0
 33 66  1  0
M  END
>  <smiles>  (34) 
O=c1c2ccccc2nc(/C=C/c2ccc(CN3CCC(O)C3)cc2)n1CC1CCCCC1

>  <score_type>  (34) 
oracle

>  <origin>  (34) 
autodockgpu

>  <m_score__min__energy>  (34) 
-9.2699999999999996

>  <m_primary>  (34) 
energy

>  <rmsd>  (34) 
11.278560915766999

>  <m_score__min__rmsd>  (34) 
11.278560915766999

>  <meeko>  (34) 
{"free_energy": -9.19, "intermolecular_energy": -11.58, "internal_energy": -1.91, "cluster_size": 33, "cluster_id": 1, "rank_in_cluster": 3}

>  <energy>  (34) 
-8.98

>  <cluster_rmsd>  (34) 
0.0

>  <cluster>  (34) 
2

$$$$

     RDKit          3D

 66 70  0  0  0  0  0  0  0  0999 V2000
  142.6240   77.6540  219.3660 O   0  0  0  0  0  0  0  0  0  0  0  0
  142.0410   76.7980  220.0910 C   0  0  0  0  0  0  0  0  0  0  0  0
  142.5820   75.5360  220.0950 C   0  0  0  0  0  0  0  0  0  0  0  0
  143.6950   75.2010  219.3600 C   0  0  0  0  0  0  0  0  0  0  0  0
  144.1770   73.9000  219.4230 C   0  0  0  0  0  0  0  0  0  0  0  0
  143.5230   72.9810  220.2190 C   0  0  0  0  0  0  0  0  0  0  0  0
  142.4060   73.3020  220.9620 C   0  0  0  0  0  0  0  0  0  0  0  0
  141.9550   74.6000  220.8770 C   0  0  0  0  0  0  0  0  0  0  0  0
  140.8920   74.9560  221.5660 N   0  0  0  0  0  0  0  0  0  0  0  0
  140.3330   76.2050  221.5800 C   0  0  0  0  0  0  0  0  0  0  0  0
  139.1360   76.3350  222.3600 C   0  0  0  0  0  0  0  0  0  0  0  0
  138.0760   77.0480  222.2000 C   0  0  0  0  0  0  0  0  0  0  0  0
  137.8150   78.3410  222.8640 C   0  0  0  0  0  0  0  0  0  0  0  0
  136.5340   78.8750  222.8800 C   0  0  0  0  0  0  0  0  0  0  0  0
  136.2240   80.0720  223.4830 C   0  0  0  0  0  0  0  0  0  0  0  0
  137.2210   80.7920  224.1050 C   0  0  0  0  0  0  0  0  0  0  0  0
  136.9450   82.0970  224.7820 C   0  0  0  0  0  0  0  0  0  0  0  0
  136.2290   82.0480  225.9630 N   0  0  0  0  0  0  0  0  0  0  0  0
  134.8360   81.9470  226.0040 C   0  0  0  0  0  0  0  0  0  0  0  0
  134.6310   81.2030  227.3380 C   0  0  0  0  0  0  0  0  0  0  0  0
  135.7950   81.6840  228.2010 C   0  0  2  0  0  0  0  0  0  0  0  0
  135.3370   82.6110  229.1360 O   0  0  0  0  0  0  0  0  0  0  0  0
  136.7860   82.2780  227.2190 C   0  0  0  0  0  0  0  0  0  0  0  0
  138.5080   80.2950  224.1090 C   0  0  0  0  0  0  0  0  0  0  0  0
  138.7910   79.0720  223.4880 C   0  0  0  0  0  0  0  0  0  0  0  0
  140.9280   77.1300  220.8250 N   0  0  0  0  0  0  0  0  0  0  0  0
  140.5260   78.5070  220.7180 C   0  0  0  0  0  0  0  0  0  0  0  0
  141.4500   79.5080  221.3150 C   0  0  0  0  0  0  0  0  0  0  0  0
  140.7620   80.8240  221.6790 C   0  0  0  0  0  0  0  0  0  0  0  0
  141.7870   81.7340  222.3180 C   0  0  0  0  0  0  0  0  0  0  0  0
  142.1270   81.2390  223.6810 C   0  0  0  0  0  0  0  0  0  0  0  0
  141.8160   79.7650  223.7730 C   0  0  0  0  0  0  0  0  0  0  0  0
  142.2190   79.0310  222.4830 C   0  0  0  0  0  0  0  0  0  0  0  0
  144.1960   75.9521  218.7317 H   0  0  0  0  0  0  0  0  0  0  0  0
  145.0669   73.6061  218.8471 H   0  0  0  0  0  0  0  0  0  0  0  0
  143.9081   71.9515  220.2625 H   0  0  0  0  0  0  0  0  0  0  0  0
  141.8997   72.5563  221.5925 H   0  0  0  0  0  0  0  0  0  0  0  0
  139.1211   75.7083  223.2639 H   0  0  0  0  0  0  0  0  0  0  0  0
  137.3050   76.6643  221.5156 H   0  0  0  0  0  0  0  0  0  0  0  0
  135.7271   78.3136  222.3863 H   0  0  0  0  0  0  0  0  0  0  0  0
  135.1912   80.4504  223.4688 H   0  0  0  0  0  0  0  0  0  0  0  0
  137.9139   82.5701  224.9998 H   0  0  0  0  0  0  0  0  0  0  0  0
  136.3062   82.6548  224.0815 H   0  0  0  0  0  0  0  0  0  0  0  0
  134.3598   82.9385  226.0177 H   0  0  0  0  0  0  0  0  0  0  0  0
  134.3933   81.4428  225.1323 H   0  0  0  0  0  0  0  0  0  0  0  0
  133.6668   81.4726  227.7937 H   0  0  0  0  0  0  0  0  0  0  0  0
  134.6112   80.1097  227.2185 H   0  0  0  0  0  0  0  0  0  0  0  0
  136.2678   80.8822  228.7871 H   0  0  0  0  0  0  0  0  0  0  0  0
  136.1640   82.9700  229.5830 H   0  0  0  0  0  0  0  0  0  0  0  0
  136.9074   83.3567  227.3967 H   0  0  0  0  0  0  0  0  0  0  0  0
  137.7853   81.8288  227.3170 H   0  0  0  0  0  0  0  0  0  0  0  0
  139.3133   80.8603  224.6008 H   0  0  0  0  0  0  0  0  0  0  0  0
  139.8221   78.6891  223.5017 H   0  0  0  0  0  0  0  0  0  0  0  0
  140.4197   78.7437  219.6490 H   0  0  0  0  0  0  0  0  0  0  0  0
  139.5923   78.5872  221.2940 H   0  0  0  0  0  0  0  0  0  0  0  0
  142.1665   79.6838  220.4991 H   0  0  0  0  0  0  0  0  0  0  0  0
  140.3592   81.2968  220.7711 H   0  0  0  0  0  0  0  0  0  0  0  0
  139.9325   80.6379  222.3770 H   0  0  0  0  0  0  0  0  0  0  0  0
  142.6961   81.7504  221.6989 H   0  0  0  0  0  0  0  0  0  0  0  0
  141.3707   82.7492  222.3955 H   0  0  0  0  0  0  0  0  0  0  0  0
  143.1980   81.4005  223.8732 H   0  0  0  0  0  0  0  0  0  0  0  0
  141.5338   81.7863  224.4284 H   0  0  0  0  0  0  0  0  0  0  0  0
  142.3700   79.3334  224.6196 H   0  0  0  0  0  0  0  0  0  0  0  0
  140.7322   79.6457  223.9181 H   0  0  0  0  0  0  0  0  0  0  0  0
  143.2899   79.2004  222.2971 H   0  0  0  0  0  0  0  0  0  0  0  0
  142.0047   77.9606  222.6184 H   0  0  0  0  0  0  0  0  0  0  0  0
  1  2  2  0
  2  3  1  0
  3  4  2  0
  4  5  1  0
  5  6  2  0
  6  7  1  0
  7  8  2  0
  8  9  1  0
  9 10  2  0
 10 11  1  0
 11 12  2  0
 12 13  1  0
 13 14  2  0
 14 15  1  0
 15 16  2  0
 16 17  1  0
 17 18  1  0
 18 19  1  0
 19 20  1  0
 20 21  1  0
 21 22  1  0
 21 23  1  0
 16 24  1  0
 24 25  2  0
 10 26  1  0
 26 27  1  0
 27 28  1  0
 28 29  1  0
 29 30  1  0
 30 31  1  0
 31 32  1  0
 32 33  1  0
 26  2  1  0
 33 28  1  0
  8  3  1  0
 25 13  1  0
 23 18  1  0
  4 34  1  0
  5 35  1  0
  6 36  1  0
  7 37  1  0
 11 38  1  0
 12 39  1  0
 14 40  1  0
 15 41  1  0
 17 42  1  0
 17 43  1  0
 19 44  1  0
 19 45  1  0
 20 46  1  0
 20 47  1  0
 21 48  1  1
 22 49  1  0
 23 50  1  0
 23 51  1  0
 24 52  1  0
 25 53  1  0
 27 54  1  0
 27 55  1  0
 28 56  1  0
 29 57  1  0
 29 58  1  0
 30 59  1  0
 30 60  1  0
 31 61  1  0
 31 62  1  0
 32 63  1  0
 32 64  1  0
 33 65  1  0
 33 66  1  0
M  END
>  <smiles>  (35) 
O=c1c2ccccc2nc(/C=C/c2ccc(CN3CCC(O)C3)cc2)n1CC1CCCCC1

>  <score_type>  (35) 
oracle

>  <origin>  (35) 
autodockgpu

>  <m_score__min__energy>  (35) 
-9.2699999999999996

>  <m_primary>  (35) 
energy

>  <rmsd>  (35) 
7.347472963695054

>  <m_score__min__rmsd>  (35) 
7.347472963695054

>  <meeko>  (35) 
{"free_energy": -8.16, "intermolecular_energy": -10.55, "internal_energy": -2.24, "cluster_size": 6, "cluster_id": 6, "rank_in_cluster": 1}

>  <energy>  (35) 
-8.82

>  <cluster_rmsd>  (35) 
0.52

>  <cluster>  (35) 
2

$$$$

     RDKit          3D

 66 70  0  0  0  0  0  0  0  0999 V2000
  139.2120   67.6970  225.3360 O   0  0  0  0  0  0  0  0  0  0  0  0
  139.4550   68.9350  225.2490 C   0  0  0  0  0  0  0  0  0  0  0  0
  140.1040   69.5040  226.3170 C   0  0  0  0  0  0  0  0  0  0  0  0
  140.4780   68.7860  227.4280 C   0  0  0  0  0  0  0  0  0  0  0  0
  141.1320   69.4400  228.4640 C   0  0  0  0  0  0  0  0  0  0  0  0
  141.3850   70.7930  228.3470 C   0  0  0  0  0  0  0  0  0  0  0  0
  141.0160   71.5260  227.2390 C   0  0  0  0  0  0  0  0  0  0  0  0
  140.3700   70.8460  226.2310 C   0  0  0  0  0  0  0  0  0  0  0  0
  139.9960   71.5010  225.1520 N   0  0  0  0  0  0  0  0  0  0  0  0
  139.3490   70.9590  224.0760 C   0  0  0  0  0  0  0  0  0  0  0  0
  138.9870   71.8870  223.0440 C   0  0  0  0  0  0  0  0  0  0  0  0
  139.6840   72.5020  222.1530 C   0  0  0  0  0  0  0  0  0  0  0  0
  139.6540   73.9580  221.9080 C   0  0  0  0  0  0  0  0  0  0  0  0
  138.4580   74.6570  221.9840 C   0  0  0  0  0  0  0  0  0  0  0  0
  138.3630   76.0140  221.7700 C   0  0  0  0  0  0  0  0  0  0  0  0
  139.5000   76.7290  221.4630 C   0  0  0  0  0  0  0  0  0  0  0  0
  139.4600   78.2050  221.2250 C   0  0  0  0  0  0  0  0  0  0  0  0
  140.5830   78.9260  221.5860 N   0  0  0  0  0  0  0  0  0  0  0  0
  141.2900   79.7330  220.6900 C   0  0  0  0  0  0  0  0  0  0  0  0
  141.8650   80.8000  221.6410 C   0  0  0  0  0  0  0  0  0  0  0  0
  142.0770   80.0390  222.9490 C   0  0  2  0  0  0  0  0  0  0  0  0
  143.4320   79.7650  223.1210 O   0  0  0  0  0  0  0  0  0  0  0  0
  141.2350   78.7860  222.8090 C   0  0  0  0  0  0  0  0  0  0  0  0
  140.7080   76.0700  221.3770 C   0  0  0  0  0  0  0  0  0  0  0  0
  140.7720   74.6890  221.6010 C   0  0  0  0  0  0  0  0  0  0  0  0
  139.0810   69.6540  224.1400 N   0  0  0  0  0  0  0  0  0  0  0  0
  138.4380   68.8810  223.1100 C   0  0  0  0  0  0  0  0  0  0  0  0
  136.9530   68.9520  223.0670 C   0  0  0  0  0  0  0  0  0  0  0  0
  136.3260   69.2960  224.4180 C   0  0  0  0  0  0  0  0  0  0  0  0
  134.8280   69.3890  224.2350 C   0  0  0  0  0  0  0  0  0  0  0  0
  134.4830   70.6210  223.4740 C   0  0  0  0  0  0  0  0  0  0  0  0
  135.6780   71.0620  222.6640 C   0  0  0  0  0  0  0  0  0  0  0  0
  136.4000   69.8580  222.0380 C   0  0  0  0  0  0  0  0  0  0  0  0
  140.2625   67.7094  227.4954 H   0  0  0  0  0  0  0  0  0  0  0  0
  141.4437   68.8892  229.3637 H   0  0  0  0  0  0  0  0  0  0  0  0
  141.9018   71.3064  229.1712 H   0  0  0  0  0  0  0  0  0  0  0  0
  141.2277   72.6028  227.1639 H   0  0  0  0  0  0  0  0  0  0  0  0
  137.9118   72.1164  223.0067 H   0  0  0  0  0  0  0  0  0  0  0  0
  140.3539   71.8957  221.5255 H   0  0  0  0  0  0  0  0  0  0  0  0
  137.5410   74.1001  222.2270 H   0  0  0  0  0  0  0  0  0  0  0  0
  137.3899   76.5216  221.8434 H   0  0  0  0  0  0  0  0  0  0  0  0
  139.2942   78.3641  220.1493 H   0  0  0  0  0  0  0  0  0  0  0  0
  138.6564   78.5795  221.8761 H   0  0  0  0  0  0  0  0  0  0  0  0
  142.0888   79.1706  220.1844 H   0  0  0  0  0  0  0  0  0  0  0  0
  140.6803   80.1397  219.8697 H   0  0  0  0  0  0  0  0  0  0  0  0
  142.8173   81.1953  221.2579 H   0  0  0  0  0  0  0  0  0  0  0  0
  141.2034   81.6712  221.7559 H   0  0  0  0  0  0  0  0  0  0  0  0
  141.7756   80.6071  223.8414 H   0  0  0  0  0  0  0  0  0  0  0  0
  143.6860   79.1740  222.3460 H   0  0  0  0  0  0  0  0  0  0  0  0
  141.8726   77.8897  222.8071 H   0  0  0  0  0  0  0  0  0  0  0  0
  140.5282   78.6672  223.6434 H   0  0  0  0  0  0  0  0  0  0  0  0
  141.6228   76.6297  221.1321 H   0  0  0  0  0  0  0  0  0  0  0  0
  141.7436   74.1784  221.5287 H   0  0  0  0  0  0  0  0  0  0  0  0
  138.8191   69.2318  222.1396 H   0  0  0  0  0  0  0  0  0  0  0  0
  138.6764   67.8314  223.3371 H   0  0  0  0  0  0  0  0  0  0  0  0
  136.6748   67.9257  222.7856 H   0  0  0  0  0  0  0  0  0  0  0  0
  136.5634   68.5095  225.1495 H   0  0  0  0  0  0  0  0  0  0  0  0
  136.7232   70.2527  224.7881 H   0  0  0  0  0  0  0  0  0  0  0  0
  134.4734   68.5074  223.6809 H   0  0  0  0  0  0  0  0  0  0  0  0
  134.3456   69.4281  225.2228 H   0  0  0  0  0  0  0  0  0  0  0  0
  133.6397   70.4115  222.7995 H   0  0  0  0  0  0  0  0  0  0  0  0
  134.2006   71.4193  224.1762 H   0  0  0  0  0  0  0  0  0  0  0  0
  135.3394   71.7342  221.8618 H   0  0  0  0  0  0  0  0  0  0  0  0
  136.3806   71.5801  223.3333 H   0  0  0  0  0  0  0  0  0  0  0  0
  135.6851   69.2976  221.4176 H   0  0  0  0  0  0  0  0  0  0  0  0
  137.2363   70.2383  221.4330 H   0  0  0  0  0  0  0  0  0  0  0  0
  1  2  2  0
  2  3  1  0
  3  4  2  0
  4  5  1  0
  5  6  2  0
  6  7  1  0
  7  8  2  0
  8  9  1  0
  9 10  2  0
 10 11  1  0
 11 12  2  0
 12 13  1  0
 13 14  2  0
 14 15  1  0
 15 16  2  0
 16 17  1  0
 17 18  1  0
 18 19  1  0
 19 20  1  0
 20 21  1  0
 21 22  1  0
 21 23  1  0
 16 24  1  0
 24 25  2  0
 10 26  1  0
 26 27  1  0
 27 28  1  0
 28 29  1  0
 29 30  1  0
 30 31  1  0
 31 32  1  0
 32 33  1  0
 26  2  1  0
 33 28  1  0
  8  3  1  0
 25 13  1  0
 23 18  1  0
  4 34  1  0
  5 35  1  0
  6 36  1  0
  7 37  1  0
 11 38  1  0
 12 39  1  0
 14 40  1  0
 15 41  1  0
 17 42  1  0
 17 43  1  0
 19 44  1  0
 19 45  1  0
 20 46  1  0
 20 47  1  0
 21 48  1  1
 22 49  1  0
 23 50  1  0
 23 51  1  0
 24 52  1  0
 25 53  1  0
 27 54  1  0
 27 55  1  0
 28 56  1  0
 29 57  1  0
 29 58  1  0
 30 59  1  0
 30 60  1  0
 31 61  1  0
 31 62  1  0
 32 63  1  0
 32 64  1  0
 33 65  1  0
 33 66  1  0
M  END
>  <smiles>  (36) 
O=c1c2ccccc2nc(/C=C/c2ccc(CN3CCC(O)C3)cc2)n1CC1CCCCC1

>  <score_type>  (36) 
oracle

>  <origin>  (36) 
autodockgpu

>  <m_score__min__energy>  (36) 
-9.2699999999999996

>  <m_primary>  (36) 
energy

>  <rmsd>  (36) 
11.773566133179715

>  <m_score__min__rmsd>  (36) 
11.773566133179715

>  <meeko>  (36) 
{"free_energy": -8.83, "intermolecular_energy": -11.22, "internal_energy": -1.77, "cluster_size": 33, "cluster_id": 1, "rank_in_cluster": 13}

>  <energy>  (36) 
-8.78

>  <cluster_rmsd>  (36) 
0.0

>  <cluster>  (36) 
3

$$$$

     RDKit          3D

 66 70  0  0  0  0  0  0  0  0999 V2000
  138.9190   68.3160  224.9770 O   0  0  0  0  0  0  0  0  0  0  0  0
  139.4940   69.4340  224.8430 C   0  0  0  0  0  0  0  0  0  0  0  0
  140.0110   69.9940  225.9850 C   0  0  0  0  0  0  0  0  0  0  0  0
  139.9200   69.3890  227.2160 C   0  0  0  0  0  0  0  0  0  0  0  0
  140.4720   70.0240  228.3210 C   0  0  0  0  0  0  0  0  0  0  0  0
  141.0930   71.2450  228.1510 C   0  0  0  0  0  0  0  0  0  0  0  0
  141.1920   71.8650  226.9220 C   0  0  0  0  0  0  0  0  0  0  0  0
  140.6350   71.2070  225.8480 C   0  0  0  0  0  0  0  0  0  0  0  0
  140.7020   71.7570  224.6540 N   0  0  0  0  0  0  0  0  0  0  0  0
  140.1950   71.2220  223.5020 C   0  0  0  0  0  0  0  0  0  0  0  0
  140.3350   72.0380  222.3310 C   0  0  0  0  0  0  0  0  0  0  0  0
  139.5160   72.8260  221.7250 C   0  0  0  0  0  0  0  0  0  0  0  0
  139.4470   74.2880  221.9170 C   0  0  0  0  0  0  0  0  0  0  0  0
  140.6090   75.0450  221.9630 C   0  0  0  0  0  0  0  0  0  0  0  0
  140.6130   76.4110  222.1360 C   0  0  0  0  0  0  0  0  0  0  0  0
  139.4140   77.0760  222.2730 C   0  0  0  0  0  0  0  0  0  0  0  0
  139.3540   78.5600  222.4580 C   0  0  0  0  0  0  0  0  0  0  0  0
  140.5540   79.2440  222.4050 N   0  0  0  0  0  0  0  0  0  0  0  0
  141.0730   79.7810  221.2240 C   0  0  0  0  0  0  0  0  0  0  0  0
  141.8810   80.9730  221.7690 C   0  0  0  0  0  0  0  0  0  0  0  0
  142.3500   80.4930  223.1410 C   0  0  2  0  0  0  0  0  0  0  0  0
  143.7000   80.1500  223.0840 O   0  0  0  0  0  0  0  0  0  0  0  0
  141.4550   79.3130  223.4660 C   0  0  0  0  0  0  0  0  0  0  0  0
  138.2370   76.3590  222.2330 C   0  0  0  0  0  0  0  0  0  0  0  0
  138.2660   74.9700  222.0550 C   0  0  0  0  0  0  0  0  0  0  0  0
  139.5840   70.0410  223.6130 N   0  0  0  0  0  0  0  0  0  0  0  0
  139.0110   69.2900  222.5280 C   0  0  0  0  0  0  0  0  0  0  0  0
  137.5700   69.5320  222.2530 C   0  0  0  0  0  0  0  0  0  0  0  0
  136.9300   70.5300  223.2190 C   0  0  0  0  0  0  0  0  0  0  0  0
  135.4880   70.7290  222.8080 C   0  0  0  0  0  0  0  0  0  0  0  0
  135.4220   71.5180  221.5460 C   0  0  0  0  0  0  0  0  0  0  0  0
  136.7260   71.3810  220.7990 C   0  0  0  0  0  0  0  0  0  0  0  0
  137.2560   69.9390  220.8670 C   0  0  0  0  0  0  0  0  0  0  0  0
  139.4175   68.4165  227.3243 H   0  0  0  0  0  0  0  0  0  0  0  0
  140.4152   69.5607  229.3171 H   0  0  0  0  0  0  0  0  0  0  0  0
  141.5264   71.7439  229.0304 H   0  0  0  0  0  0  0  0  0  0  0  0
  141.6918   72.8380  226.8058 H   0  0  0  0  0  0  0  0  0  0  0  0
  141.3285   71.9800  221.8623 H   0  0  0  0  0  0  0  0  0  0  0  0
  138.8136   72.3746  221.0089 H   0  0  0  0  0  0  0  0  0  0  0  0
  141.5743   74.5285  221.8560 H   0  0  0  0  0  0  0  0  0  0  0  0
  141.5628   76.9652  222.1645 H   0  0  0  0  0  0  0  0  0  0  0  0
  138.7037   78.9675  221.6699 H   0  0  0  0  0  0  0  0  0  0  0  0
  138.9839   78.7073  223.4833 H   0  0  0  0  0  0  0  0  0  0  0  0
  141.7198   79.0597  220.7031 H   0  0  0  0  0  0  0  0  0  0  0  0
  140.3115   80.0541  220.4787 H   0  0  0  0  0  0  0  0  0  0  0  0
  142.7384   81.1969  221.1172 H   0  0  0  0  0  0  0  0  0  0  0  0
  141.2921   81.9007  221.8195 H   0  0  0  0  0  0  0  0  0  0  0  0
  142.2732   81.2608  223.9249 H   0  0  0  0  0  0  0  0  0  0  0  0
  143.7730   79.4750  222.3410 H   0  0  0  0  0  0  0  0  0  0  0  0
  142.0448   78.3870  223.5339 H   0  0  0  0  0  0  0  0  0  0  0  0
  140.9466   79.4329  224.4341 H   0  0  0  0  0  0  0  0  0  0  0  0
  137.2736   76.8787  222.3411 H   0  0  0  0  0  0  0  0  0  0  0  0
  137.3180   74.4129  222.0252 H   0  0  0  0  0  0  0  0  0  0  0  0
  139.5732   69.5365  221.6152 H   0  0  0  0  0  0  0  0  0  0  0  0
  139.0805   68.2347  222.8306 H   0  0  0  0  0  0  0  0  0  0  0  0
  137.1298   68.5363  222.4104 H   0  0  0  0  0  0  0  0  0  0  0  0
  136.9735   70.1353  224.2448 H   0  0  0  0  0  0  0  0  0  0  0  0
  137.4693   71.4882  223.1872 H   0  0  0  0  0  0  0  0  0  0  0  0
  135.0157   69.7483  222.6495 H   0  0  0  0  0  0  0  0  0  0  0  0
  134.9580   71.2743  223.6028 H   0  0  0  0  0  0  0  0  0  0  0  0
  134.5995   71.1410  220.9204 H   0  0  0  0  0  0  0  0  0  0  0  0
  135.2452   72.5772  221.7843 H   0  0  0  0  0  0  0  0  0  0  0  0
  136.5669   71.6557  219.7458 H   0  0  0  0  0  0  0  0  0  0  0  0
  137.4667   72.0471  221.2655 H   0  0  0  0  0  0  0  0  0  0  0  0
  136.4918   69.2597  220.4614 H   0  0  0  0  0  0  0  0  0  0  0  0
  138.1839   69.8887  220.2784 H   0  0  0  0  0  0  0  0  0  0  0  0
  1  2  2  0
  2  3  1  0
  3  4  2  0
  4  5  1  0
  5  6  2  0
  6  7  1  0
  7  8  2  0
  8  9  1  0
  9 10  2  0
 10 11  1  0
 11 12  2  0
 12 13  1  0
 13 14  2  0
 14 15  1  0
 15 16  2  0
 16 17  1  0
 17 18  1  0
 18 19  1  0
 19 20  1  0
 20 21  1  0
 21 22  1  0
 21 23  1  0
 16 24  1  0
 24 25  2  0
 10 26  1  0
 26 27  1  0
 27 28  1  0
 28 29  1  0
 29 30  1  0
 30 31  1  0
 31 32  1  0
 32 33  1  0
 26  2  1  0
 33 28  1  0
  8  3  1  0
 25 13  1  0
 23 18  1  0
  4 34  1  0
  5 35  1  0
  6 36  1  0
  7 37  1  0
 11 38  1  0
 12 39  1  0
 14 40  1  0
 15 41  1  0
 17 42  1  0
 17 43  1  0
 19 44  1  0
 19 45  1  0
 20 46  1  0
 20 47  1  0
 21 48  1  1
 22 49  1  0
 23 50  1  0
 23 51  1  0
 24 52  1  0
 25 53  1  0
 27 54  1  0
 27 55  1  0
 28 56  1  0
 29 57  1  0
 29 58  1  0
 30 59  1  0
 30 60  1  0
 31 61  1  0
 31 62  1  0
 32 63  1  0
 32 64  1  0
 33 65  1  0
 33 66  1  0
M  END
>  <smiles>  (37) 
O=c1c2ccccc2nc(/C=C/c2ccc(CN3CCC(O)C3)cc2)n1CC1CCCCC1

>  <score_type>  (37) 
oracle

>  <origin>  (37) 
autodockgpu

>  <m_score__min__energy>  (37) 
-9.2699999999999996

>  <m_primary>  (37) 
energy

>  <rmsd>  (37) 
10.802515023379692

>  <m_score__min__rmsd>  (37) 
10.802515023379692

>  <meeko>  (37) 
{"free_energy": -8.78, "intermolecular_energy": -11.17, "internal_energy": -2.07, "cluster_size": 33, "cluster_id": 1, "rank_in_cluster": 17}

>  <energy>  (37) 
-8.73

>  <cluster_rmsd>  (37) 
0.47

>  <cluster>  (37) 
3

$$$$

     RDKit          3D

 66 70  0  0  0  0  0  0  0  0999 V2000
  142.4650   78.1190  219.6630 O   0  0  0  0  0  0  0  0  0  0  0  0
  141.5880   77.8080  220.5190 C   0  0  0  0  0  0  0  0  0  0  0  0
  141.4800   78.6380  221.6080 C   0  0  0  0  0  0  0  0  0  0  0  0
  142.2720   79.7490  221.7780 C   0  0  0  0  0  0  0  0  0  0  0  0
  142.0960   80.5340  222.9100 C   0  0  0  0  0  0  0  0  0  0  0  0
  141.1330   80.1740  223.8320 C   0  0  0  0  0  0  0  0  0  0  0  0
  140.3320   79.0620  223.6750 C   0  0  0  0  0  0  0  0  0  0  0  0
  140.5320   78.3060  222.5420 C   0  0  0  0  0  0  0  0  0  0  0  0
  139.7930   77.2350  222.3460 N   0  0  0  0  0  0  0  0  0  0  0  0
  139.8800   76.3930  221.2720 C   0  0  0  0  0  0  0  0  0  0  0  0
  139.0100   75.2530  221.3110 C   0  0  0  0  0  0  0  0  0  0  0  0
  139.1910   74.0180  220.9950 C   0  0  0  0  0  0  0  0  0  0  0  0
  139.3630   72.9120  221.9570 C   0  0  0  0  0  0  0  0  0  0  0  0
  140.6330   72.5240  222.3600 C   0  0  0  0  0  0  0  0  0  0  0  0
  140.8610   71.5040  223.2560 C   0  0  0  0  0  0  0  0  0  0  0  0
  139.7880   70.8220  223.7880 C   0  0  0  0  0  0  0  0  0  0  0  0
  139.9720   69.7080  224.7700 C   0  0  0  0  0  0  0  0  0  0  0  0
  140.0610   70.0600  226.1040 N   0  0  0  0  0  0  0  0  0  0  0  0
  139.7180   69.1930  227.1440 C   0  0  0  0  0  0  0  0  0  0  0  0
  140.6440   69.6960  228.2680 C   0  0  0  0  0  0  0  0  0  0  0  0
  140.7720   71.1910  227.9860 C   0  0  2  0  0  0  0  0  0  0  0  0
  139.9900   71.9100  228.8880 O   0  0  0  0  0  0  0  0  0  0  0  0
  140.3160   71.3550  226.5490 C   0  0  0  0  0  0  0  0  0  0  0  0
  138.5100   71.1780  223.4120 C   0  0  0  0  0  0  0  0  0  0  0  0
  138.3110   72.2210  222.4990 C   0  0  0  0  0  0  0  0  0  0  0  0
  140.7960   76.6980  220.3510 N   0  0  0  0  0  0  0  0  0  0  0  0
  141.0320   75.9680  219.1340 C   0  0  0  0  0  0  0  0  0  0  0  0
  142.2430   75.1050  219.1110 C   0  0  0  0  0  0  0  0  0  0  0  0
  142.8310   74.8530  220.5000 C   0  0  0  0  0  0  0  0  0  0  0  0
  144.0180   73.9280  220.3510 C   0  0  0  0  0  0  0  0  0  0  0  0
  143.5540   72.5530  220.0180 C   0  0  0  0  0  0  0  0  0  0  0  0
  142.1820   72.6230  219.3930 C   0  0  0  0  0  0  0  0  0  0  0  0
  142.0750   73.8090  218.4200 C   0  0  0  0  0  0  0  0  0  0  0  0
  143.0333   80.0120  221.0289 H   0  0  0  0  0  0  0  0  0  0  0  0
  142.7146   81.4294  223.0699 H   0  0  0  0  0  0  0  0  0  0  0  0
  140.9993   80.7989  224.7273 H   0  0  0  0  0  0  0  0  0  0  0  0
  139.5692   78.7920  224.4202 H   0  0  0  0  0  0  0  0  0  0  0  0
  137.9981   75.4758  221.6803 H   0  0  0  0  0  0  0  0  0  0  0  0
  139.2197   73.7676  219.9242 H   0  0  0  0  0  0  0  0  0  0  0  0
  141.4999   73.0576  221.9431 H   0  0  0  0  0  0  0  0  0  0  0  0
  141.8883   71.2363  223.5442 H   0  0  0  0  0  0  0  0  0  0  0  0
  139.1162   69.0253  224.6626 H   0  0  0  0  0  0  0  0  0  0  0  0
  140.9488   69.2662  224.5236 H   0  0  0  0  0  0  0  0  0  0  0  0
  138.6578   69.2931  227.4196 H   0  0  0  0  0  0  0  0  0  0  0  0
  139.8384   68.1267  226.9021 H   0  0  0  0  0  0  0  0  0  0  0  0
  140.1937   69.5199  229.2561 H   0  0  0  0  0  0  0  0  0  0  0  0
  141.6151   69.1796  228.2848 H   0  0  0  0  0  0  0  0  0  0  0  0
  141.7951   71.5752  228.1111 H   0  0  0  0  0  0  0  0  0  0  0  0
  140.0060   72.8610  228.5570 H   0  0  0  0  0  0  0  0  0  0  0  0
  139.4038   71.9677  226.5000 H   0  0  0  0  0  0  0  0  0  0  0  0
  141.0699   71.8644  225.9308 H   0  0  0  0  0  0  0  0  0  0  0  0
  137.6453   70.6418  223.8300 H   0  0  0  0  0  0  0  0  0  0  0  0
  137.2850   72.4923  222.2097 H   0  0  0  0  0  0  0  0  0  0  0  0
  140.1580   75.3250  218.9534 H   0  0  0  0  0  0  0  0  0  0  0  0
  141.1996   76.7316  218.3602 H   0  0  0  0  0  0  0  0  0  0  0  0
  142.9493   75.7045  218.5179 H   0  0  0  0  0  0  0  0  0  0  0  0
  143.1548   75.8052  220.9455 H   0  0  0  0  0  0  0  0  0  0  0  0
  142.0744   74.3970  221.1554 H   0  0  0  0  0  0  0  0  0  0  0  0
  144.6690   74.2978  219.5451 H   0  0  0  0  0  0  0  0  0  0  0  0
  144.5757   73.9011  221.2987 H   0  0  0  0  0  0  0  0  0  0  0  0
  144.2567   72.0904  219.3093 H   0  0  0  0  0  0  0  0  0  0  0  0
  143.5085   71.9488  220.9361 H   0  0  0  0  0  0  0  0  0  0  0  0
  141.9897   71.6896  218.8437 H   0  0  0  0  0  0  0  0  0  0  0  0
  141.4406   72.7610  220.1938 H   0  0  0  0  0  0  0  0  0  0  0  0
  142.8569   73.7111  217.6525 H   0  0  0  0  0  0  0  0  0  0  0  0
  141.0721   73.7905  217.9686 H   0  0  0  0  0  0  0  0  0  0  0  0
  1  2  2  0
  2  3  1  0
  3  4  2  0
  4  5  1  0
  5  6  2  0
  6  7  1  0
  7  8  2  0
  8  9  1  0
  9 10  2  0
 10 11  1  0
 11 12  2  0
 12 13  1  0
 13 14  2  0
 14 15  1  0
 15 16  2  0
 16 17  1  0
 17 18  1  0
 18 19  1  0
 19 20  1  0
 20 21  1  0
 21 22  1  0
 21 23  1  0
 16 24  1  0
 24 25  2  0
 10 26  1  0
 26 27  1  0
 27 28  1  0
 28 29  1  0
 29 30  1  0
 30 31  1  0
 31 32  1  0
 32 33  1  0
 26  2  1  0
 33 28  1  0
  8  3  1  0
 25 13  1  0
 23 18  1  0
  4 34  1  0
  5 35  1  0
  6 36  1  0
  7 37  1  0
 11 38  1  0
 12 39  1  0
 14 40  1  0
 15 41  1  0
 17 42  1  0
 17 43  1  0
 19 44  1  0
 19 45  1  0
 20 46  1  0
 20 47  1  0
 21 48  1  6
 22 49  1  0
 23 50  1  0
 23 51  1  0
 24 52  1  0
 25 53  1  0
 27 54  1  0
 27 55  1  0
 28 56  1  0
 29 57  1  0
 29 58  1  0
 30 59  1  0
 30 60  1  0
 31 61  1  0
 31 62  1  0
 32 63  1  0
 32 64  1  0
 33 65  1  0
 33 66  1  0
M  END
>  <smiles>  (38) 
O=c1c2ccccc2nc(/C=C/c2ccc(CN3CCC(O)C3)cc2)n1CC1CCCCC1

>  <score_type>  (38) 
oracle

>  <origin>  (38) 
autodockgpu

>  <m_score__min__energy>  (38) 
-9.2699999999999996

>  <m_primary>  (38) 
energy

>  <rmsd>  (38) 
4.030024636720164

>  <m_score__min__rmsd>  (38) 
4.030024636720164

>  <meeko>  (38) 
{"free_energy": -7.81, "intermolecular_energy": -10.2, "internal_energy": -2.21, "cluster_size": 3, "cluster_id": 3, "rank_in_cluster": 3}

>  <energy>  (38) 
-7.81

>  <cluster_rmsd>  (38) 
1.69

>  <cluster>  (38) 
3

$$$$

     RDKit          3D

 66 70  0  0  0  0  0  0  0  0999 V2000
  138.8360   67.8290  225.5170 O   0  0  0  0  0  0  0  0  0  0  0  0
  139.1820   69.0250  225.2950 C   0  0  0  0  0  0  0  0  0  0  0  0
  139.9360   69.6310  226.2700 C   0  0  0  0  0  0  0  0  0  0  0  0
  140.3050   68.9910  227.4290 C   0  0  0  0  0  0  0  0  0  0  0  0
  141.0690   69.6790  228.3630 C   0  0  0  0  0  0  0  0  0  0  0  0
  141.4330   70.9840  228.1000 C   0  0  0  0  0  0  0  0  0  0  0  0
  141.0700   71.6390  226.9420 C   0  0  0  0  0  0  0  0  0  0  0  0
  140.3140   70.9280  226.0370 C   0  0  0  0  0  0  0  0  0  0  0  0
  139.9410   71.5080  224.9160 N   0  0  0  0  0  0  0  0  0  0  0  0
  139.1910   70.9280  223.9300 C   0  0  0  0  0  0  0  0  0  0  0  0
  138.8570   71.7830  222.8280 C   0  0  0  0  0  0  0  0  0  0  0  0
  139.5040   72.1120  221.7640 C   0  0  0  0  0  0  0  0  0  0  0  0
  140.2020   71.1680  220.8690 C   0  0  0  0  0  0  0  0  0  0  0  0
  141.0000   71.6400  219.8360 C   0  0  0  0  0  0  0  0  0  0  0  0
  141.6790   70.8140  218.9700 C   0  0  0  0  0  0  0  0  0  0  0  0
  141.5720   69.4480  219.1180 C   0  0  0  0  0  0  0  0  0  0  0  0
  142.2900   68.5000  218.2110 C   0  0  0  0  0  0  0  0  0  0  0  0
  143.5200   68.0380  218.6380 N   0  0  0  0  0  0  0  0  0  0  0  0
  143.8800   66.6880  218.6050 C   0  0  0  0  0  0  0  0  0  0  0  0
  145.4070   66.7920  218.4320 C   0  0  0  0  0  0  0  0  0  0  0  0
  145.7660   68.0800  219.1690 C   0  0  2  0  0  0  0  0  0  0  0  0
  146.3520   67.7750  220.3960 O   0  0  0  0  0  0  0  0  0  0  0  0
  144.4520   68.8240  219.3120 C   0  0  0  0  0  0  0  0  0  0  0  0
  140.7870   68.9400  220.1320 C   0  0  0  0  0  0  0  0  0  0  0  0
  140.1100   69.8070  220.9980 C   0  0  0  0  0  0  0  0  0  0  0  0
  138.8130   69.6660  224.1370 N   0  0  0  0  0  0  0  0  0  0  0  0
  138.0500   68.8610  223.2200 C   0  0  0  0  0  0  0  0  0  0  0  0
  136.6100   69.2070  223.0850 C   0  0  0  0  0  0  0  0  0  0  0  0
  135.7420   68.0230  222.6590 C   0  0  0  0  0  0  0  0  0  0  0  0
  134.3030   68.4860  222.6070 C   0  0  0  0  0  0  0  0  0  0  0  0
  133.7850   68.6990  223.9870 C   0  0  0  0  0  0  0  0  0  0  0  0
  134.9420   68.9420  224.9260 C   0  0  0  0  0  0  0  0  0  0  0  0
  136.0060   69.8430  224.2750 C   0  0  0  0  0  0  0  0  0  0  0  0
  140.0001   67.9504  227.6140 H   0  0  0  0  0  0  0  0  0  0  0  0
  141.3794   69.1908  229.2986 H   0  0  0  0  0  0  0  0  0  0  0  0
  142.0372   71.5235  228.8442 H   0  0  0  0  0  0  0  0  0  0  0  0
  141.3701   72.6798  226.7504 H   0  0  0  0  0  0  0  0  0  0  0  0
  137.8615   72.2443  222.9062 H   0  0  0  0  0  0  0  0  0  0  0  0
  139.5392   73.1797  221.5017 H   0  0  0  0  0  0  0  0  0  0  0  0
  141.0942   72.7279  219.7031 H   0  0  0  0  0  0  0  0  0  0  0  0
  142.3005   71.2394  218.1682 H   0  0  0  0  0  0  0  0  0  0  0  0
  141.6397   67.6254  218.0622 H   0  0  0  0  0  0  0  0  0  0  0  0
  142.5013   69.0789  217.2998 H   0  0  0  0  0  0  0  0  0  0  0  0
  143.6140   66.1765  219.5418 H   0  0  0  0  0  0  0  0  0  0  0  0
  143.3748   66.1042  217.8215 H   0  0  0  0  0  0  0  0  0  0  0  0
  145.9132   65.9266  218.8846 H   0  0  0  0  0  0  0  0  0  0  0  0
  145.7174   66.8031  217.3768 H   0  0  0  0  0  0  0  0  0  0  0  0
  146.5030   68.6991  218.6365 H   0  0  0  0  0  0  0  0  0  0  0  0
  146.6980   66.8340  220.3000 H   0  0  0  0  0  0  0  0  0  0  0  0
  144.1781   68.9254  220.3725 H   0  0  0  0  0  0  0  0  0  0  0  0
  144.5068   69.8437  218.9031 H   0  0  0  0  0  0  0  0  0  0  0  0
  140.6927   67.8516  220.2605 H   0  0  0  0  0  0  0  0  0  0  0  0
  139.4888   69.3852  221.8019 H   0  0  0  0  0  0  0  0  0  0  0  0
  138.5124   68.9545  222.2263 H   0  0  0  0  0  0  0  0  0  0  0  0
  138.0707   67.8423  223.6346 H   0  0  0  0  0  0  0  0  0  0  0  0
  136.6205   69.9583  222.2816 H   0  0  0  0  0  0  0  0  0  0  0  0
  136.0556   67.6699  221.6655 H   0  0  0  0  0  0  0  0  0  0  0  0
  135.8492   67.1960  223.3763 H   0  0  0  0  0  0  0  0  0  0  0  0
  134.2445   69.4306  222.0464 H   0  0  0  0  0  0  0  0  0  0  0  0
  133.6947   67.7172  222.1082 H   0  0  0  0  0  0  0  0  0  0  0  0
  133.1152   69.5715  223.9968 H   0  0  0  0  0  0  0  0  0  0  0  0
  133.2295   67.8070  224.3122 H   0  0  0  0  0  0  0  0  0  0  0  0
  134.5677   69.4299  225.8381 H   0  0  0  0  0  0  0  0  0  0  0  0
  135.4050   67.9737  225.1668 H   0  0  0  0  0  0  0  0  0  0  0  0
  135.5342   70.7894  223.9721 H   0  0  0  0  0  0  0  0  0  0  0  0
  136.8040   70.0172  225.0118 H   0  0  0  0  0  0  0  0  0  0  0  0
  1  2  2  0
  2  3  1  0
  3  4  2  0
  4  5  1  0
  5  6  2  0
  6  7  1  0
  7  8  2  0
  8  9  1  0
  9 10  2  0
 10 11  1  0
 11 12  2  0
 12 13  1  0
 13 14  2  0
 14 15  1  0
 15 16  2  0
 16 17  1  0
 17 18  1  0
 18 19  1  0
 19 20  1  0
 20 21  1  0
 21 22  1  0
 21 23  1  0
 16 24  1  0
 24 25  2  0
 10 26  1  0
 26 27  1  0
 27 28  1  0
 28 29  1  0
 29 30  1  0
 30 31  1  0
 31 32  1  0
 32 33  1  0
 26  2  1  0
 33 28  1  0
  8  3  1  0
 25 13  1  0
 23 18  1  0
  4 34  1  0
  5 35  1  0
  6 36  1  0
  7 37  1  0
 11 38  1  0
 12 39  1  0
 14 40  1  0
 15 41  1  0
 17 42  1  0
 17 43  1  0
 19 44  1  0
 19 45  1  0
 20 46  1  0
 20 47  1  0
 21 48  1  6
 22 49  1  0
 23 50  1  0
 23 51  1  0
 24 52  1  0
 25 53  1  0
 27 54  1  0
 27 55  1  0
 28 56  1  0
 29 57  1  0
 29 58  1  0
 30 59  1  0
 30 60  1  0
 31 61  1  0
 31 62  1  0
 32 63  1  0
 32 64  1  0
 33 65  1  0
 33 66  1  0
M  END
>  <smiles>  (39) 
O=c1c2ccccc2nc(/C=C/c2ccc(CN3CCC(O)C3)cc2)n1CC1CCCCC1

>  <score_type>  (39) 
oracle

>  <origin>  (39) 
autodockgpu

>  <m_score__min__energy>  (39) 
-9.2699999999999996

>  <m_primary>  (39) 
energy

>  <rmsd>  (39) 
11.845323392727487

>  <m_score__min__rmsd>  (39) 
11.845323392727487

>  <meeko>  (39) 
{"free_energy": -7.86, "intermolecular_energy": -10.24, "internal_energy": -1.87, "cluster_size": 1, "cluster_id": 8, "rank_in_cluster": 1}

>  <energy>  (39) 
-8.68

>  <cluster_rmsd>  (39) 
0.0

>  <cluster>  (39) 
4

$$$$

     RDKit          3D

 66 70  0  0  0  0  0  0  0  0999 V2000
  139.1100   67.7710  224.9790 O   0  0  0  0  0  0  0  0  0  0  0  0
  139.5720   68.9460  224.9260 C   0  0  0  0  0  0  0  0  0  0  0  0
  140.0530   69.4650  226.1030 C   0  0  0  0  0  0  0  0  0  0  0  0
  140.0400   68.7630  227.2850 C   0  0  0  0  0  0  0  0  0  0  0  0
  140.5470   69.3630  228.4300 C   0  0  0  0  0  0  0  0  0  0  0  0
  141.0450   70.6480  228.3480 C   0  0  0  0  0  0  0  0  0  0  0  0
  141.0640   71.3660  227.1700 C   0  0  0  0  0  0  0  0  0  0  0  0
  140.5550   70.7400  226.0540 C   0  0  0  0  0  0  0  0  0  0  0  0
  140.5490   71.3820  224.9050 N   0  0  0  0  0  0  0  0  0  0  0  0
  140.0770   70.8900  223.7200 C   0  0  0  0  0  0  0  0  0  0  0  0
  140.1190   71.8020  222.6140 C   0  0  0  0  0  0  0  0  0  0  0  0
  139.2950   72.7050  222.2080 C   0  0  0  0  0  0  0  0  0  0  0  0
  139.6610   74.0920  221.8580 C   0  0  0  0  0  0  0  0  0  0  0  0
  140.9680   74.4070  221.5140 C   0  0  0  0  0  0  0  0  0  0  0  0
  141.3730   75.6780  221.1750 C   0  0  0  0  0  0  0  0  0  0  0  0
  140.4500   76.7010  221.1730 C   0  0  0  0  0  0  0  0  0  0  0  0
  140.8290   78.1020  220.8090 C   0  0  0  0  0  0  0  0  0  0  0  0
  141.2290   78.9290  221.8410 N   0  0  0  0  0  0  0  0  0  0  0  0
  140.9570   78.6560  223.1840 C   0  0  0  0  0  0  0  0  0  0  0  0
  142.1510   79.3410  223.8750 C   0  0  0  0  0  0  0  0  0  0  0  0
  142.4640   80.5250  222.9620 C   0  0  2  0  0  0  0  0  0  0  0  0
  141.9970   81.7030  223.5420 O   0  0  0  0  0  0  0  0  0  0  0  0
  141.7730   80.1970  221.6530 C   0  0  0  0  0  0  0  0  0  0  0  0
  139.1410   76.4290  221.5110 C   0  0  0  0  0  0  0  0  0  0  0  0
  138.7600   75.1240  221.8500 C   0  0  0  0  0  0  0  0  0  0  0  0
  139.5840   69.6500  223.7460 N   0  0  0  0  0  0  0  0  0  0  0  0
  139.0680   68.9320  222.6110 C   0  0  0  0  0  0  0  0  0  0  0  0
  137.6090   69.0670  222.3580 C   0  0  0  0  0  0  0  0  0  0  0  0
  136.8710   67.7280  222.3510 C   0  0  0  0  0  0  0  0  0  0  0  0
  135.3980   68.0000  222.1370 C   0  0  0  0  0  0  0  0  0  0  0  0
  134.8090   68.6080  223.3620 C   0  0  0  0  0  0  0  0  0  0  0  0
  135.9010   69.2660  224.1710 C   0  0  0  0  0  0  0  0  0  0  0  0
  136.9010   69.9990  223.2620 C   0  0  0  0  0  0  0  0  0  0  0  0
  139.6340   67.7414  227.3231 H   0  0  0  0  0  0  0  0  0  0  0  0
  140.5518   68.8225  229.3881 H   0  0  0  0  0  0  0  0  0  0  0  0
  141.4429   71.1187  229.2591 H   0  0  0  0  0  0  0  0  0  0  0  0
  141.4662   72.3888  227.1245 H   0  0  0  0  0  0  0  0  0  0  0  0
  141.0250   71.7138  221.9964 H   0  0  0  0  0  0  0  0  0  0  0  0
  138.2365   72.4208  222.1148 H   0  0  0  0  0  0  0  0  0  0  0  0
  141.7170   73.6014  221.5122 H   0  0  0  0  0  0  0  0  0  0  0  0
  142.4219   75.8749  220.9086 H   0  0  0  0  0  0  0  0  0  0  0  0
  141.6578   78.0455  220.0880 H   0  0  0  0  0  0  0  0  0  0  0  0
  139.9067   78.5565  220.4181 H   0  0  0  0  0  0  0  0  0  0  0  0
  140.0005   79.0980  223.4997 H   0  0  0  0  0  0  0  0  0  0  0  0
  140.8540   77.5856  223.4157 H   0  0  0  0  0  0  0  0  0  0  0  0
  141.8769   79.6845  224.8834 H   0  0  0  0  0  0  0  0  0  0  0  0
  143.0100   78.6674  224.0108 H   0  0  0  0  0  0  0  0  0  0  0  0
  143.5404   80.6830  222.7994 H   0  0  0  0  0  0  0  0  0  0  0  0
  141.0230   81.7570  223.2920 H   0  0  0  0  0  0  0  0  0  0  0  0
  140.9809   80.9299  221.4396 H   0  0  0  0  0  0  0  0  0  0  0  0
  142.4673   80.2267  220.8003 H   0  0  0  0  0  0  0  0  0  0  0  0
  138.3951   77.2375  221.5145 H   0  0  0  0  0  0  0  0  0  0  0  0
  137.7118   74.9232  222.1163 H   0  0  0  0  0  0  0  0  0  0  0  0
  139.5985   69.2913  221.7169 H   0  0  0  0  0  0  0  0  0  0  0  0
  139.2309   67.8677  222.8364 H   0  0  0  0  0  0  0  0  0  0  0  0
  137.5833   69.5040  221.3488 H   0  0  0  0  0  0  0  0  0  0  0  0
  137.2549   67.0957  221.5368 H   0  0  0  0  0  0  0  0  0  0  0  0
  137.0255   67.2045  223.3060 H   0  0  0  0  0  0  0  0  0  0  0  0
  135.2746   68.6924  221.2912 H   0  0  0  0  0  0  0  0  0  0  0  0
  134.8834   67.0520  221.9213 H   0  0  0  0  0  0  0  0  0  0  0  0
  134.0609   69.3614  223.0743 H   0  0  0  0  0  0  0  0  0  0  0  0
  134.3266   67.8247  223.9651 H   0  0  0  0  0  0  0  0  0  0  0  0
  135.4476   69.9905  224.8635 H   0  0  0  0  0  0  0  0  0  0  0  0
  136.4420   68.4854  224.7261 H   0  0  0  0  0  0  0  0  0  0  0  0
  136.3557   70.7373  222.6558 H   0  0  0  0  0  0  0  0  0  0  0  0
  137.6497   70.4878  223.9027 H   0  0  0  0  0  0  0  0  0  0  0  0
  1  2  2  0
  2  3  1  0
  3  4  2  0
  4  5  1  0
  5  6  2  0
  6  7  1  0
  7  8  2  0
  8  9  1  0
  9 10  2  0
 10 11  1  0
 11 12  2  0
 12 13  1  0
 13 14  2  0
 14 15  1  0
 15 16  2  0
 16 17  1  0
 17 18  1  0
 18 19  1  0
 19 20  1  0
 20 21  1  0
 21 22  1  0
 21 23  1  0
 16 24  1  0
 24 25  2  0
 10 26  1  0
 26 27  1  0
 27 28  1  0
 28 29  1  0
 29 30  1  0
 30 31  1  0
 31 32  1  0
 32 33  1  0
 26  2  1  0
 33 28  1  0
  8  3  1  0
 25 13  1  0
 23 18  1  0
  4 34  1  0
  5 35  1  0
  6 36  1  0
  7 37  1  0
 11 38  1  0
 12 39  1  0
 14 40  1  0
 15 41  1  0
 17 42  1  0
 17 43  1  0
 19 44  1  0
 19 45  1  0
 20 46  1  0
 20 47  1  0
 21 48  1  6
 22 49  1  0
 23 50  1  0
 23 51  1  0
 24 52  1  0
 25 53  1  0
 27 54  1  0
 27 55  1  0
 28 56  1  0
 29 57  1  0
 29 58  1  0
 30 59  1  0
 30 60  1  0
 31 61  1  0
 31 62  1  0
 32 63  1  0
 32 64  1  0
 33 65  1  0
 33 66  1  0
M  END
>  <smiles>  (40) 
O=c1c2ccccc2nc(/C=C/c2ccc(CN3CCC(O)C3)cc2)n1CC1CCCCC1

>  <score_type>  (40) 
oracle

>  <origin>  (40) 
autodockgpu

>  <m_score__min__energy>  (40) 
-9.2699999999999996

>  <m_primary>  (40) 
energy

>  <rmsd>  (40) 
11.746885142529432

>  <m_score__min__rmsd>  (40) 
11.746885142529432

>  <meeko>  (40) 
{"free_energy": -8.64, "intermolecular_energy": -11.03, "internal_energy": -1.78, "cluster_size": 33, "cluster_id": 1, "rank_in_cluster": 23}

>  <energy>  (40) 
-8.62

>  <cluster_rmsd>  (40) 
0.22

>  <cluster>  (40) 
4

$$$$

     RDKit          3D

 66 70  0  0  0  0  0  0  0  0999 V2000
  137.9090   69.1640  225.4480 O   0  0  0  0  0  0  0  0  0  0  0  0
  137.9850   70.0710  224.5710 C   0  0  0  0  0  0  0  0  0  0  0  0
  136.8050   70.6850  224.2280 C   0  0  0  0  0  0  0  0  0  0  0  0
  135.5990   70.3460  224.7940 C   0  0  0  0  0  0  0  0  0  0  0  0
  134.4520   71.0180  224.3890 C   0  0  0  0  0  0  0  0  0  0  0  0
  134.5590   72.0050  223.4290 C   0  0  0  0  0  0  0  0  0  0  0  0
  135.7620   72.3560  222.8520 C   0  0  0  0  0  0  0  0  0  0  0  0
  136.8780   71.6700  223.2770 C   0  0  0  0  0  0  0  0  0  0  0  0
  138.0490   71.9670  222.7570 N   0  0  0  0  0  0  0  0  0  0  0  0
  139.2380   71.3720  223.0800 C   0  0  0  0  0  0  0  0  0  0  0  0
  140.3750   71.8220  222.3310 C   0  0  0  0  0  0  0  0  0  0  0  0
  140.5190   72.7580  221.4580 C   0  0  0  0  0  0  0  0  0  0  0  0
  140.2760   74.1930  221.7050 C   0  0  0  0  0  0  0  0  0  0  0  0
  141.2290   75.1370  221.3490 C   0  0  0  0  0  0  0  0  0  0  0  0
  141.0630   76.4880  221.5490 C   0  0  0  0  0  0  0  0  0  0  0  0
  139.9020   76.9460  222.1320 C   0  0  0  0  0  0  0  0  0  0  0  0
  139.6620   78.4030  222.3710 C   0  0  0  0  0  0  0  0  0  0  0  0
  140.7780   79.2120  222.4630 N   0  0  0  0  0  0  0  0  0  0  0  0
  141.0640   80.2230  221.5420 C   0  0  0  0  0  0  0  0  0  0  0  0
  141.8450   81.2170  222.4220 C   0  0  0  0  0  0  0  0  0  0  0  0
  142.5560   80.3200  223.4330 C   0  0  2  0  0  0  0  0  0  0  0  0
  143.9050   80.2110  223.1000 O   0  0  0  0  0  0  0  0  0  0  0  0
  141.8220   78.9950  223.3600 C   0  0  0  0  0  0  0  0  0  0  0  0
  138.9310   76.0390  222.5020 C   0  0  0  0  0  0  0  0  0  0  0  0
  139.1290   74.6690  222.2840 C   0  0  0  0  0  0  0  0  0  0  0  0
  139.1890   70.4110  224.0040 N   0  0  0  0  0  0  0  0  0  0  0  0
  140.3210   69.6810  224.5110 C   0  0  0  0  0  0  0  0  0  0  0  0
  141.0110   70.2760  225.6860 C   0  0  0  0  0  0  0  0  0  0  0  0
  140.6990   71.7600  225.8820 C   0  0  0  0  0  0  0  0  0  0  0  0
  141.4130   72.2330  227.1280 C   0  0  0  0  0  0  0  0  0  0  0  0
  140.7530   71.6720  228.3390 C   0  0  0  0  0  0  0  0  0  0  0  0
  139.9950   70.4210  227.9640 C   0  0  0  0  0  0  0  0  0  0  0  0
  140.7940   69.5670  226.9650 C   0  0  0  0  0  0  0  0  0  0  0  0
  135.5427   69.5547  225.5560 H   0  0  0  0  0  0  0  0  0  0  0  0
  133.4742   70.7677  224.8262 H   0  0  0  0  0  0  0  0  0  0  0  0
  133.6477   72.5329  223.1114 H   0  0  0  0  0  0  0  0  0  0  0  0
  135.8267   73.1459  222.0891 H   0  0  0  0  0  0  0  0  0  0  0  0
  141.2982   71.2623  222.5417 H   0  0  0  0  0  0  0  0  0  0  0  0
  140.8486   72.4654  220.4502 H   0  0  0  0  0  0  0  0  0  0  0  0
  142.1628   74.7879  220.8841 H   0  0  0  0  0  0  0  0  0  0  0  0
  141.8493   77.1952  221.2465 H   0  0  0  0  0  0  0  0  0  0  0  0
  139.0460   78.7792  221.5409 H   0  0  0  0  0  0  0  0  0  0  0  0
  139.1853   78.4572  223.3609 H   0  0  0  0  0  0  0  0  0  0  0  0
  141.6807   79.8490  220.7115 H   0  0  0  0  0  0  0  0  0  0  0  0
  140.1771   80.6528  221.0534 H   0  0  0  0  0  0  0  0  0  0  0  0
  142.5712   81.7856  221.8226 H   0  0  0  0  0  0  0  0  0  0  0  0
  141.1966   81.9672  222.8981 H   0  0  0  0  0  0  0  0  0  0  0  0
  142.5362   80.7144  224.4597 H   0  0  0  0  0  0  0  0  0  0  0  0
  143.9340   79.5990  222.3000 H   0  0  0  0  0  0  0  0  0  0  0  0
  142.4900   78.2024  222.9919 H   0  0  0  0  0  0  0  0  0  0  0  0
  141.4596   78.6677  224.3457 H   0  0  0  0  0  0  0  0  0  0  0  0
  137.9996   76.3917  222.9690 H   0  0  0  0  0  0  0  0  0  0  0  0
  138.3448   73.9587  222.5849 H   0  0  0  0  0  0  0  0  0  0  0  0
  139.9726   68.6780  224.7984 H   0  0  0  0  0  0  0  0  0  0  0  0
  141.0632   69.6861  223.6991 H   0  0  0  0  0  0  0  0  0  0  0  0
  142.0722   70.1578  225.4216 H   0  0  0  0  0  0  0  0  0  0  0  0
  141.0510   72.3326  225.0112 H   0  0  0  0  0  0  0  0  0  0  0  0
  139.6142   71.9094  225.9862 H   0  0  0  0  0  0  0  0  0  0  0  0
  142.4604   71.8986  227.0964 H   0  0  0  0  0  0  0  0  0  0  0  0
  141.3724   73.3314  227.1716 H   0  0  0  0  0  0  0  0  0  0  0  0
  141.5161   71.4266  229.0923 H   0  0  0  0  0  0  0  0  0  0  0  0
  140.0547   72.4140  228.7535 H   0  0  0  0  0  0  0  0  0  0  0  0
  139.8067   69.8294  228.8721 H   0  0  0  0  0  0  0  0  0  0  0  0
  139.0468   70.7160  227.4908 H   0  0  0  0  0  0  0  0  0  0  0  0
  141.7713   69.3232  227.4071 H   0  0  0  0  0  0  0  0  0  0  0  0
  140.2156   68.6550  226.7561 H   0  0  0  0  0  0  0  0  0  0  0  0
  1  2  2  0
  2  3  1  0
  3  4  2  0
  4  5  1  0
  5  6  2  0
  6  7  1  0
  7  8  2  0
  8  9  1  0
  9 10  2  0
 10 11  1  0
 11 12  2  0
 12 13  1  0
 13 14  2  0
 14 15  1  0
 15 16  2  0
 16 17  1  0
 17 18  1  0
 18 19  1  0
 19 20  1  0
 20 21  1  0
 21 22  1  0
 21 23  1  0
 16 24  1  0
 24 25  2  0
 10 26  1  0
 26 27  1  0
 27 28  1  0
 28 29  1  0
 29 30  1  0
 30 31  1  0
 31 32  1  0
 32 33  1  0
 26  2  1  0
 33 28  1  0
  8  3  1  0
 25 13  1  0
 23 18  1  0
  4 34  1  0
  5 35  1  0
  6 36  1  0
  7 37  1  0
 11 38  1  0
 12 39  1  0
 14 40  1  0
 15 41  1  0
 17 42  1  0
 17 43  1  0
 19 44  1  0
 19 45  1  0
 20 46  1  0
 20 47  1  0
 21 48  1  1
 22 49  1  0
 23 50  1  0
 23 51  1  0
 24 52  1  0
 25 53  1  0
 27 54  1  0
 27 55  1  0
 28 56  1  0
 29 57  1  0
 29 58  1  0
 30 59  1  0
 30 60  1  0
 31 61  1  0
 31 62  1  0
 32 63  1  0
 32 64  1  0
 33 65  1  0
 33 66  1  0
M  END
>  <smiles>  (41) 
O=c1c2ccccc2nc(/C=C/c2ccc(CN3CCC(O)C3)cc2)n1CC1CCCCC1

>  <score_type>  (41) 
oracle

>  <origin>  (41) 
autodockgpu

>  <m_score__min__energy>  (41) 
-9.2699999999999996

>  <m_primary>  (41) 
energy

>  <rmsd>  (41) 
10.792100108105313

>  <m_score__min__rmsd>  (41) 
10.792100108105313

>  <meeko>  (41) 
{"free_energy": -8.82, "intermolecular_energy": -11.21, "internal_energy": -1.96, "cluster_size": 2, "cluster_id": 2, "rank_in_cluster": 2}

>  <energy>  (41) 
-8.45

>  <cluster_rmsd>  (41) 
0.0

>  <cluster>  (41) 
5

$$$$

     RDKit          3D

 66 70  0  0  0  0  0  0  0  0999 V2000
  139.2010   67.7930  225.0370 O   0  0  0  0  0  0  0  0  0  0  0  0
  139.5950   68.9870  224.9080 C   0  0  0  0  0  0  0  0  0  0  0  0
  140.0810   69.5920  226.0410 C   0  0  0  0  0  0  0  0  0  0  0  0
  140.1440   68.9540  227.2570 C   0  0  0  0  0  0  0  0  0  0  0  0
  140.6500   69.6410  228.3520 C   0  0  0  0  0  0  0  0  0  0  0  0
  141.0730   70.9450  228.1880 C   0  0  0  0  0  0  0  0  0  0  0  0
  141.0170   71.5990  226.9750 C   0  0  0  0  0  0  0  0  0  0  0  0
  140.5100   70.8880  225.9090 C   0  0  0  0  0  0  0  0  0  0  0  0
  140.4340   71.4670  224.7300 N   0  0  0  0  0  0  0  0  0  0  0  0
  139.9550   70.8880  223.5880 C   0  0  0  0  0  0  0  0  0  0  0  0
  139.9120   71.7410  222.4350 C   0  0  0  0  0  0  0  0  0  0  0  0
  139.1430   72.7230  222.1170 C   0  0  0  0  0  0  0  0  0  0  0  0
  139.6010   74.0910  221.7980 C   0  0  0  0  0  0  0  0  0  0  0  0
  140.9530   74.3590  221.6410 C   0  0  0  0  0  0  0  0  0  0  0  0
  141.4440   75.6090  221.3410 C   0  0  0  0  0  0  0  0  0  0  0  0
  140.5650   76.6590  221.1860 C   0  0  0  0  0  0  0  0  0  0  0  0
  141.0380   78.0390  220.8550 C   0  0  0  0  0  0  0  0  0  0  0  0
  141.3340   78.8690  221.9180 N   0  0  0  0  0  0  0  0  0  0  0  0
  140.7340   78.7420  223.1740 C   0  0  0  0  0  0  0  0  0  0  0  0
  141.8450   79.2860  224.0920 C   0  0  0  0  0  0  0  0  0  0  0  0
  142.5420   80.3360  223.2300 C   0  0  2  0  0  0  0  0  0  0  0  0
  142.1620   81.6120  223.6430 O   0  0  0  0  0  0  0  0  0  0  0  0
  142.1090   80.0220  221.8110 C   0  0  0  0  0  0  0  0  0  0  0  0
  139.2130   76.4330  221.3350 C   0  0  0  0  0  0  0  0  0  0  0  0
  138.7440   75.1490  221.6400 C   0  0  0  0  0  0  0  0  0  0  0  0
  139.5320   69.6270  223.6940 N   0  0  0  0  0  0  0  0  0  0  0  0
  139.0230   68.8220  222.6150 C   0  0  0  0  0  0  0  0  0  0  0  0
  137.5800   68.9900  222.2970 C   0  0  0  0  0  0  0  0  0  0  0  0
  136.8090   67.6700  222.2720 C   0  0  0  0  0  0  0  0  0  0  0  0
  135.3550   67.9750  221.9910 C   0  0  0  0  0  0  0  0  0  0  0  0
  134.7290   68.6120  223.1830 C   0  0  0  0  0  0  0  0  0  0  0  0
  135.8000   69.2520  224.0320 C   0  0  0  0  0  0  0  0  0  0  0  0
  136.8570   69.9500  223.1590 C   0  0  0  0  0  0  0  0  0  0  0  0
  139.7987   67.9148  227.3608 H   0  0  0  0  0  0  0  0  0  0  0  0
  140.7130   69.1535  229.3361 H   0  0  0  0  0  0  0  0  0  0  0  0
  141.4709   71.4843  229.0603 H   0  0  0  0  0  0  0  0  0  0  0  0
  141.3605   72.6381  226.8639 H   0  0  0  0  0  0  0  0  0  0  0  0
  140.6803   71.5129  221.6815 H   0  0  0  0  0  0  0  0  0  0  0  0
  138.0609   72.5286  222.0799 H   0  0  0  0  0  0  0  0  0  0  0  0
  141.6677   73.5316  221.7623 H   0  0  0  0  0  0  0  0  0  0  0  0
  142.5263   75.7684  221.2262 H   0  0  0  0  0  0  0  0  0  0  0  0
  141.9488   77.9411  220.2460 H   0  0  0  0  0  0  0  0  0  0  0  0
  140.1899   78.5183  220.3441 H   0  0  0  0  0  0  0  0  0  0  0  0
  139.8185   79.3474  223.2466 H   0  0  0  0  0  0  0  0  0  0  0  0
  140.4070   77.7202  223.4172 H   0  0  0  0  0  0  0  0  0  0  0  0
  141.4180   79.7419  224.9975 H   0  0  0  0  0  0  0  0  0  0  0  0
  142.5295   78.5009  224.4456 H   0  0  0  0  0  0  0  0  0  0  0  0
  143.6388   80.3137  223.3110 H   0  0  0  0  0  0  0  0  0  0  0  0
  141.2620   81.7720  223.2220 H   0  0  0  0  0  0  0  0  0  0  0  0
  141.5155   80.8498  221.3956 H   0  0  0  0  0  0  0  0  0  0  0  0
  142.9678   79.8820  221.1380 H   0  0  0  0  0  0  0  0  0  0  0  0
  138.5012   77.2629  221.2141 H   0  0  0  0  0  0  0  0  0  0  0  0
  137.6623   74.9858  221.7555 H   0  0  0  0  0  0  0  0  0  0  0  0
  139.5975   69.0705  221.7105 H   0  0  0  0  0  0  0  0  0  0  0  0
  139.1325   67.7792  222.9476 H   0  0  0  0  0  0  0  0  0  0  0  0
  137.6097   69.4153  221.2830 H   0  0  0  0  0  0  0  0  0  0  0  0
  137.2119   67.0188  221.4823 H   0  0  0  0  0  0  0  0  0  0  0  0
  136.9083   67.1546  223.2387 H   0  0  0  0  0  0  0  0  0  0  0  0
  135.2856   68.6601  221.1332 H   0  0  0  0  0  0  0  0  0  0  0  0
  134.8267   67.0375  221.7631 H   0  0  0  0  0  0  0  0  0  0  0  0
  134.0134   69.3803  222.8548 H   0  0  0  0  0  0  0  0  0  0  0  0
  134.2016   67.8477  223.7727 H   0  0  0  0  0  0  0  0  0  0  0  0
  135.3351   69.9954  224.6962 H   0  0  0  0  0  0  0  0  0  0  0  0
  136.2965   68.4652  224.6189 H   0  0  0  0  0  0  0  0  0  0  0  0
  136.3570   70.6941  222.5215 H   0  0  0  0  0  0  0  0  0  0  0  0
  137.5892   70.4283  223.8262 H   0  0  0  0  0  0  0  0  0  0  0  0
  1  2  2  0
  2  3  1  0
  3  4  2  0
  4  5  1  0
  5  6  2  0
  6  7  1  0
  7  8  2  0
  8  9  1  0
  9 10  2  0
 10 11  1  0
 11 12  2  0
 12 13  1  0
 13 14  2  0
 14 15  1  0
 15 16  2  0
 16 17  1  0
 17 18  1  0
 18 19  1  0
 19 20  1  0
 20 21  1  0
 21 22  1  0
 21 23  1  0
 16 24  1  0
 24 25  2  0
 10 26  1  0
 26 27  1  0
 27 28  1  0
 28 29  1  0
 29 30  1  0
 30 31  1  0
 31 32  1  0
 32 33  1  0
 26  2  1  0
 33 28  1  0
  8  3  1  0
 25 13  1  0
 23 18  1  0
  4 34  1  0
  5 35  1  0
  6 36  1  0
  7 37  1  0
 11 38  1  0
 12 39  1  0
 14 40  1  0
 15 41  1  0
 17 42  1  0
 17 43  1  0
 19 44  1  0
 19 45  1  0
 20 46  1  0
 20 47  1  0
 21 48  1  6
 22 49  1  0
 23 50  1  0
 23 51  1  0
 24 52  1  0
 25 53  1  0
 27 54  1  0
 27 55  1  0
 28 56  1  0
 29 57  1  0
 29 58  1  0
 30 59  1  0
 30 60  1  0
 31 61  1  0
 31 62  1  0
 32 63  1  0
 32 64  1  0
 33 65  1  0
 33 66  1  0
M  END
>  <smiles>  (42) 
O=c1c2ccccc2nc(/C=C/c2ccc(CN3CCC(O)C3)cc2)n1CC1CCCCC1

>  <score_type>  (42) 
oracle

>  <origin>  (42) 
autodockgpu

>  <m_score__min__energy>  (42) 
-9.2699999999999996

>  <m_primary>  (42) 
energy

>  <rmsd>  (42) 
11.63094820598531

>  <m_score__min__rmsd>  (42) 
11.63094820598531

>  <meeko>  (42) 
{"free_energy": -8.65, "intermolecular_energy": -11.04, "internal_energy": -1.77, "cluster_size": 33, "cluster_id": 1, "rank_in_cluster": 22}

>  <energy>  (42) 
-8.16

>  <cluster_rmsd>  (42) 
0.0

>  <cluster>  (42) 
6

$$$$

     RDKit          3D

 66 70  0  0  0  0  0  0  0  0999 V2000
  138.8350   68.0830  224.5720 O   0  0  0  0  0  0  0  0  0  0  0  0
  139.4370   69.1830  224.7280 C   0  0  0  0  0  0  0  0  0  0  0  0
  139.9600   69.4180  225.9760 C   0  0  0  0  0  0  0  0  0  0  0  0
  139.8460   68.5210  227.0110 C   0  0  0  0  0  0  0  0  0  0  0  0
  140.4050   68.8380  228.2420 C   0  0  0  0  0  0  0  0  0  0  0  0
  141.0560   70.0460  228.3910 C   0  0  0  0  0  0  0  0  0  0  0  0
  141.1780   70.9570  227.3620 C   0  0  0  0  0  0  0  0  0  0  0  0
  140.6130   70.6110  226.1550 C   0  0  0  0  0  0  0  0  0  0  0  0
  140.7020   71.4460  225.1420 N   0  0  0  0  0  0  0  0  0  0  0  0
  140.1910   71.2370  223.8900 C   0  0  0  0  0  0  0  0  0  0  0  0
  140.3580   72.3220  222.9680 C   0  0  0  0  0  0  0  0  0  0  0  0
  139.5200   72.9650  222.2310 C   0  0  0  0  0  0  0  0  0  0  0  0
  139.6110   74.4010  221.8980 C   0  0  0  0  0  0  0  0  0  0  0  0
  140.6410   74.8710  221.0950 C   0  0  0  0  0  0  0  0  0  0  0  0
  140.7800   76.1950  220.7460 C   0  0  0  0  0  0  0  0  0  0  0  0
  139.8620   77.1140  221.2080 C   0  0  0  0  0  0  0  0  0  0  0  0
  139.9580   78.5660  220.8580 C   0  0  0  0  0  0  0  0  0  0  0  0
  140.8890   79.3150  221.5520 N   0  0  0  0  0  0  0  0  0  0  0  0
  141.1130   80.6710  221.3020 C   0  0  0  0  0  0  0  0  0  0  0  0
  141.5770   81.1560  222.6890 C   0  0  0  0  0  0  0  0  0  0  0  0
  142.2920   79.9410  223.2740 C   0  0  2  0  0  0  0  0  0  0  0  0
  143.6710   80.1320  223.2160 O   0  0  0  0  0  0  0  0  0  0  0  0
  141.8220   78.7710  222.4310 C   0  0  0  0  0  0  0  0  0  0  0  0
  138.8250   76.6860  222.0090 C   0  0  0  0  0  0  0  0  0  0  0  0
  138.7100   75.3310  222.3460 C   0  0  0  0  0  0  0  0  0  0  0  0
  139.5510   70.0820  223.6960 N   0  0  0  0  0  0  0  0  0  0  0  0
  138.9680   69.6490  222.4530 C   0  0  0  0  0  0  0  0  0  0  0  0
  137.4910   69.7830  222.3410 C   0  0  0  0  0  0  0  0  0  0  0  0
  136.7480   68.4620  222.5400 C   0  0  0  0  0  0  0  0  0  0  0  0
  135.2630   68.7370  222.4540 C   0  0  0  0  0  0  0  0  0  0  0  0
  134.8090   69.4700  223.6680 C   0  0  0  0  0  0  0  0  0  0  0  0
  135.9830   70.1840  224.2920 C   0  0  0  0  0  0  0  0  0  0  0  0
  136.8880   70.8100  223.2170 C   0  0  0  0  0  0  0  0  0  0  0  0
  139.3197   67.5660  226.8664 H   0  0  0  0  0  0  0  0  0  0  0  0
  140.3301   68.1366  229.0861 H   0  0  0  0  0  0  0  0  0  0  0  0
  141.4950   70.2922  229.3691 H   0  0  0  0  0  0  0  0  0  0  0  0
  141.7019   71.9144  227.4994 H   0  0  0  0  0  0  0  0  0  0  0  0
  141.3968   72.6708  222.8720 H   0  0  0  0  0  0  0  0  0  0  0  0
  138.6709   72.4010  221.8176 H   0  0  0  0  0  0  0  0  0  0  0  0
  141.3822   74.1502  220.7193 H   0  0  0  0  0  0  0  0  0  0  0  0
  141.6145   76.5165  220.1054 H   0  0  0  0  0  0  0  0  0  0  0  0
  140.2064   78.6346  219.7886 H   0  0  0  0  0  0  0  0  0  0  0  0
  138.9825   78.9931  221.1337 H   0  0  0  0  0  0  0  0  0  0  0  0
  141.8940   80.8174  220.5413 H   0  0  0  0  0  0  0  0  0  0  0  0
  140.2393   81.2079  220.9040 H   0  0  0  0  0  0  0  0  0  0  0  0
  142.2647   82.0095  222.5967 H   0  0  0  0  0  0  0  0  0  0  0  0
  140.7462   81.5070  223.3188 H   0  0  0  0  0  0  0  0  0  0  0  0
  142.0632   79.7660  224.3356 H   0  0  0  0  0  0  0  0  0  0  0  0
  143.9620   79.7190  222.3450 H   0  0  0  0  0  0  0  0  0  0  0  0
  142.6640   78.3299  221.8774 H   0  0  0  0  0  0  0  0  0  0  0  0
  141.3927   77.9648  223.0440 H   0  0  0  0  0  0  0  0  0  0  0  0
  138.0864   77.4097  222.3843 H   0  0  0  0  0  0  0  0  0  0  0  0
  137.8763   75.0059  222.9857 H   0  0  0  0  0  0  0  0  0  0  0  0
  139.4214   70.2416  221.6447 H   0  0  0  0  0  0  0  0  0  0  0  0
  139.1722   68.5699  222.3911 H   0  0  0  0  0  0  0  0  0  0  0  0
  137.3619   70.1209  221.3022 H   0  0  0  0  0  0  0  0  0  0  0  0
  137.0405   67.7485  221.7556 H   0  0  0  0  0  0  0  0  0  0  0  0
  136.9981   68.0294  223.5200 H   0  0  0  0  0  0  0  0  0  0  0  0
  135.0566   69.3467  221.5620 H   0  0  0  0  0  0  0  0  0  0  0  0
  134.7224   67.7814  222.3863 H   0  0  0  0  0  0  0  0  0  0  0  0
  134.0401   70.2047  223.3868 H   0  0  0  0  0  0  0  0  0  0  0  0
  134.3869   68.7565  224.3910 H   0  0  0  0  0  0  0  0  0  0  0  0
  135.6090   70.9791  224.9538 H   0  0  0  0  0  0  0  0  0  0  0  0
  136.5738   69.4515  224.8616 H   0  0  0  0  0  0  0  0  0  0  0  0
  136.2874   71.4954  222.6010 H   0  0  0  0  0  0  0  0  0  0  0  0
  137.7025   71.3465  223.7257 H   0  0  0  0  0  0  0  0  0  0  0  0
  1  2  2  0
  2  3  1  0
  3  4  2  0
  4  5  1  0
  5  6  2  0
  6  7  1  0
  7  8  2  0
  8  9  1  0
  9 10  2  0
 10 11  1  0
 11 12  2  0
 12 13  1  0
 13 14  2  0
 14 15  1  0
 15 16  2  0
 16 17  1  0
 17 18  1  0
 18 19  1  0
 19 20  1  0
 20 21  1  0
 21 22  1  0
 21 23  1  0
 16 24  1  0
 24 25  2  0
 10 26  1  0
 26 27  1  0
 27 28  1  0
 28 29  1  0
 29 30  1  0
 30 31  1  0
 31 32  1  0
 32 33  1  0
 26  2  1  0
 33 28  1  0
  8  3  1  0
 25 13  1  0
 23 18  1  0
  4 34  1  0
  5 35  1  0
  6 36  1  0
  7 37  1  0
 11 38  1  0
 12 39  1  0
 14 40  1  0
 15 41  1  0
 17 42  1  0
 17 43  1  0
 19 44  1  0
 19 45  1  0
 20 46  1  0
 20 47  1  0
 21 48  1  1
 22 49  1  0
 23 50  1  0
 23 51  1  0
 24 52  1  0
 25 53  1  0
 27 54  1  0
 27 55  1  0
 28 56  1  0
 29 57  1  0
 29 58  1  0
 30 59  1  0
 30 60  1  0
 31 61  1  0
 31 62  1  0
 32 63  1  0
 32 64  1  0
 33 65  1  0
 33 66  1  0
M  END
>  <smiles>  (43) 
O=c1c2ccccc2nc(/C=C/c2ccc(CN3CCC(O)C3)cc2)n1CC1CCCCC1

>  <score_type>  (43) 
oracle

>  <origin>  (43) 
autodockgpu

>  <m_score__min__energy>  (43) 
-9.2699999999999996

>  <m_primary>  (43) 
energy

>  <rmsd>  (43) 
11.682577536698798

>  <m_score__min__rmsd>  (43) 
11.682577536698798

>  <meeko>  (43) 
{"free_energy": -8.64, "intermolecular_energy": -11.02, "internal_energy": -1.8, "cluster_size": 33, "cluster_id": 1, "rank_in_cluster": 24}

>  <energy>  (43) 
-8.11

>  <cluster_rmsd>  (43) 
1.05

>  <cluster>  (43) 
6

$$$$

     RDKit          3D

 66 70  0  0  0  0  0  0  0  0999 V2000
  138.8520   68.4580  225.0070 O   0  0  0  0  0  0  0  0  0  0  0  0
  139.4370   69.5690  224.8590 C   0  0  0  0  0  0  0  0  0  0  0  0
  139.9140   70.1610  226.0030 C   0  0  0  0  0  0  0  0  0  0  0  0
  139.7750   69.5950  227.2470 C   0  0  0  0  0  0  0  0  0  0  0  0
  140.2890   70.2620  228.3520 C   0  0  0  0  0  0  0  0  0  0  0  0
  140.9220   71.4750  228.1670 C   0  0  0  0  0  0  0  0  0  0  0  0
  141.0690   72.0560  226.9250 C   0  0  0  0  0  0  0  0  0  0  0  0
  140.5490   71.3670  225.8510 C   0  0  0  0  0  0  0  0  0  0  0  0
  140.6620   71.8800  224.6450 N   0  0  0  0  0  0  0  0  0  0  0  0
  140.1960   71.3120  223.4910 C   0  0  0  0  0  0  0  0  0  0  0  0
  140.3830   72.0910  222.3020 C   0  0  0  0  0  0  0  0  0  0  0  0
  139.6240   72.9370  221.6960 C   0  0  0  0  0  0  0  0  0  0  0  0
  139.5830   74.3870  221.9680 C   0  0  0  0  0  0  0  0  0  0  0  0
  138.3880   75.0040  222.3100 C   0  0  0  0  0  0  0  0  0  0  0  0
  138.2830   76.3490  222.5780 C   0  0  0  0  0  0  0  0  0  0  0  0
  139.4100   77.1400  222.5070 C   0  0  0  0  0  0  0  0  0  0  0  0
  139.3600   78.6080  222.7940 C   0  0  0  0  0  0  0  0  0  0  0  0
  140.5430   79.3090  222.6630 N   0  0  0  0  0  0  0  0  0  0  0  0
  140.9070   79.9780  221.4920 C   0  0  0  0  0  0  0  0  0  0  0  0
  141.7800   81.1150  222.0560 C   0  0  0  0  0  0  0  0  0  0  0  0
  142.4210   80.4940  223.2950 C   0  0  2  0  0  0  0  0  0  0  0  0
  143.7520   80.1770  223.0290 O   0  0  0  0  0  0  0  0  0  0  0  0
  141.5730   79.2740  223.6000 C   0  0  0  0  0  0  0  0  0  0  0  0
  140.6170   76.5650  222.1700 C   0  0  0  0  0  0  0  0  0  0  0  0
  140.6910   75.1920  221.9030 C   0  0  0  0  0  0  0  0  0  0  0  0
  139.5760   70.1370  223.6160 N   0  0  0  0  0  0  0  0  0  0  0  0
  139.0400   69.3560  222.5330 C   0  0  0  0  0  0  0  0  0  0  0  0
  137.5730   69.4610  222.3130 C   0  0  0  0  0  0  0  0  0  0  0  0
  136.8430   68.1250  222.4550 C   0  0  0  0  0  0  0  0  0  0  0  0
  135.3630   68.3710  222.2600 C   0  0  0  0  0  0  0  0  0  0  0  0
  134.8070   69.0920  223.4380 C   0  0  0  0  0  0  0  0  0  0  0  0
  135.9180   69.8270  224.1480 C   0  0  0  0  0  0  0  0  0  0  0  0
  136.8860   70.4730  223.1440 C   0  0  0  0  0  0  0  0  0  0  0  0
  139.2643   68.6281  227.3664 H   0  0  0  0  0  0  0  0  0  0  0  0
  140.1931   69.8302  229.3592 H   0  0  0  0  0  0  0  0  0  0  0  0
  141.3254   71.9992  229.0459 H   0  0  0  0  0  0  0  0  0  0  0  0
  141.5771   73.0233  226.7978 H   0  0  0  0  0  0  0  0  0  0  0  0
  141.3578   71.9373  221.8160 H   0  0  0  0  0  0  0  0  0  0  0  0
  138.9541   72.5485  220.9148 H   0  0  0  0  0  0  0  0  0  0  0  0
  137.4795   74.3867  222.3697 H   0  0  0  0  0  0  0  0  0  0  0  0
  137.3109   76.7886  222.8459 H   0  0  0  0  0  0  0  0  0  0  0  0
  138.6292   79.0570  222.1053 H   0  0  0  0  0  0  0  0  0  0  0  0
  139.0969   78.6841  223.8594 H   0  0  0  0  0  0  0  0  0  0  0  0
  141.4809   79.3260  220.8170 H   0  0  0  0  0  0  0  0  0  0  0  0
  140.0562   80.3208  220.8848 H   0  0  0  0  0  0  0  0  0  0  0  0
  142.5464   81.4198  221.3282 H   0  0  0  0  0  0  0  0  0  0  0  0
  141.2039   82.0242  222.2828 H   0  0  0  0  0  0  0  0  0  0  0  0
  142.4469   81.1705  224.1620 H   0  0  0  0  0  0  0  0  0  0  0  0
  143.7190   79.4470  222.3360 H   0  0  0  0  0  0  0  0  0  0  0  0
  142.1653   78.3537  223.4896 H   0  0  0  0  0  0  0  0  0  0  0  0
  141.1935   79.2816  224.6324 H   0  0  0  0  0  0  0  0  0  0  0  0
  141.5233   77.1855  222.1107 H   0  0  0  0  0  0  0  0  0  0  0  0
  141.6614   74.7489  221.6347 H   0  0  0  0  0  0  0  0  0  0  0  0
  139.5421   69.6754  221.6079 H   0  0  0  0  0  0  0  0  0  0  0  0
  139.2228   68.3066  222.8073 H   0  0  0  0  0  0  0  0  0  0  0  0
  137.5151   69.7994  221.2680 H   0  0  0  0  0  0  0  0  0  0  0  0
  137.2066   67.4194  221.6935 H   0  0  0  0  0  0  0  0  0  0  0  0
  137.0284   67.6950  223.4503 H   0  0  0  0  0  0  0  0  0  0  0  0
  135.2108   68.9787  221.3558 H   0  0  0  0  0  0  0  0  0  0  0  0
  134.8477   67.4052  222.1516 H   0  0  0  0  0  0  0  0  0  0  0  0
  134.0469   69.8126  223.1017 H   0  0  0  0  0  0  0  0  0  0  0  0
  134.3468   68.3686  224.1271 H   0  0  0  0  0  0  0  0  0  0  0  0
  135.4810   70.6127  224.7817 H   0  0  0  0  0  0  0  0  0  0  0  0
  136.4796   69.1046  224.7586 H   0  0  0  0  0  0  0  0  0  0  0  0
  136.3185   71.1478  222.4863 H   0  0  0  0  0  0  0  0  0  0  0  0
  137.6499   71.0239  223.7123 H   0  0  0  0  0  0  0  0  0  0  0  0
  1  2  2  0
  2  3  1  0
  3  4  2  0
  4  5  1  0
  5  6  2  0
  6  7  1  0
  7  8  2  0
  8  9  1  0
  9 10  2  0
 10 11  1  0
 11 12  2  0
 12 13  1  0
 13 14  2  0
 14 15  1  0
 15 16  2  0
 16 17  1  0
 17 18  1  0
 18 19  1  0
 19 20  1  0
 20 21  1  0
 21 22  1  0
 21 23  1  0
 16 24  1  0
 24 25  2  0
 10 26  1  0
 26 27  1  0
 27 28  1  0
 28 29  1  0
 29 30  1  0
 30 31  1  0
 31 32  1  0
 32 33  1  0
 26  2  1  0
 33 28  1  0
  8  3  1  0
 25 13  1  0
 23 18  1  0
  4 34  1  0
  5 35  1  0
  6 36  1  0
  7 37  1  0
 11 38  1  0
 12 39  1  0
 14 40  1  0
 15 41  1  0
 17 42  1  0
 17 43  1  0
 19 44  1  0
 19 45  1  0
 20 46  1  0
 20 47  1  0
 21 48  1  1
 22 49  1  0
 23 50  1  0
 23 51  1  0
 24 52  1  0
 25 53  1  0
 27 54  1  0
 27 55  1  0
 28 56  1  0
 29 57  1  0
 29 58  1  0
 30 59  1  0
 30 60  1  0
 31 61  1  0
 31 62  1  0
 32 63  1  0
 32 64  1  0
 33 65  1  0
 33 66  1  0
M  END
>  <smiles>  (44) 
O=c1c2ccccc2nc(/C=C/c2ccc(CN3CCC(O)C3)cc2)n1CC1CCCCC1

>  <score_type>  (44) 
oracle

>  <origin>  (44) 
autodockgpu

>  <m_score__min__energy>  (44) 
-9.2699999999999996

>  <m_primary>  (44) 
energy

>  <rmsd>  (44) 
11.240151387375052

>  <m_score__min__rmsd>  (44) 
11.240151387375052

>  <meeko>  (44) 
{"free_energy": -9.16, "intermolecular_energy": -11.55, "internal_energy": -1.87, "cluster_size": 33, "cluster_id": 1, "rank_in_cluster": 4}

>  <energy>  (44) 
-7.98

>  <cluster_rmsd>  (44) 
0.55

>  <cluster>  (44) 
6

$$$$

     RDKit          3D

 66 70  0  0  0  0  0  0  0  0999 V2000
  139.1510   67.7590  225.2070 O   0  0  0  0  0  0  0  0  0  0  0  0
  139.5220   68.9560  225.0430 C   0  0  0  0  0  0  0  0  0  0  0  0
  140.0780   69.5760  226.1350 C   0  0  0  0  0  0  0  0  0  0  0  0
  140.2310   68.9480  227.3480 C   0  0  0  0  0  0  0  0  0  0  0  0
  140.8040   69.6480  228.4020 C   0  0  0  0  0  0  0  0  0  0  0  0
  141.2000   70.9550  228.2000 C   0  0  0  0  0  0  0  0  0  0  0  0
  141.0530   71.5990  226.9890 C   0  0  0  0  0  0  0  0  0  0  0  0
  140.4820   70.8750  225.9660 C   0  0  0  0  0  0  0  0  0  0  0  0
  140.3190   71.4440  224.7910 N   0  0  0  0  0  0  0  0  0  0  0  0
  139.7690   70.8510  223.6880 C   0  0  0  0  0  0  0  0  0  0  0  0
  139.6390   71.6950  222.5350 C   0  0  0  0  0  0  0  0  0  0  0  0
  140.5090   72.3110  221.8130 C   0  0  0  0  0  0  0  0  0  0  0  0
  140.5620   73.7720  221.6110 C   0  0  0  0  0  0  0  0  0  0  0  0
  141.6830   74.3620  221.0430 C   0  0  0  0  0  0  0  0  0  0  0  0
  141.7940   75.7160  220.8240 C   0  0  0  0  0  0  0  0  0  0  0  0
  140.7510   76.5430  221.1820 C   0  0  0  0  0  0  0  0  0  0  0  0
  140.8110   78.0230  220.9650 C   0  0  0  0  0  0  0  0  0  0  0  0
  141.2350   78.7930  222.0300 N   0  0  0  0  0  0  0  0  0  0  0  0
  140.6310   78.7490  223.2900 C   0  0  0  0  0  0  0  0  0  0  0  0
  141.8170   79.1150  224.2020 C   0  0  0  0  0  0  0  0  0  0  0  0
  142.6560   80.0560  223.3400 C   0  0  2  0  0  0  0  0  0  0  0  0
  142.4730   81.3710  223.7620 O   0  0  0  0  0  0  0  0  0  0  0  0
  142.1720   79.8190  221.9230 C   0  0  0  0  0  0  0  0  0  0  0  0
  139.6200   75.9960  221.7500 C   0  0  0  0  0  0  0  0  0  0  0  0
  139.5380   74.6140  221.9590 C   0  0  0  0  0  0  0  0  0  0  0  0
  139.3690   69.5860  223.8310 N   0  0  0  0  0  0  0  0  0  0  0  0
  138.7960   68.7680  222.7960 C   0  0  0  0  0  0  0  0  0  0  0  0
  137.3340   68.9240  222.5720 C   0  0  0  0  0  0  0  0  0  0  0  0
  136.5570   69.2360  223.8510 C   0  0  0  0  0  0  0  0  0  0  0  0
  135.1000   69.4210  223.4870 C   0  0  0  0  0  0  0  0  0  0  0  0
  134.9170   70.7060  222.7580 C   0  0  0  0  0  0  0  0  0  0  0  0
  136.2250   71.1190  222.1290 C   0  0  0  0  0  0  0  0  0  0  0  0
  136.9610   69.9080  221.5330 C   0  0  0  0  0  0  0  0  0  0  0  0
  139.9044   67.9062  227.4821 H   0  0  0  0  0  0  0  0  0  0  0  0
  140.9402   69.1684  229.3825 H   0  0  0  0  0  0  0  0  0  0  0  0
  141.6511   71.5053  229.0389 H   0  0  0  0  0  0  0  0  0  0  0  0
  141.3763   72.6408  226.8472 H   0  0  0  0  0  0  0  0  0  0  0  0
  138.6000   71.8438  222.2058 H   0  0  0  0  0  0  0  0  0  0  0  0
  141.2721   71.7010  221.3074 H   0  0  0  0  0  0  0  0  0  0  0  0
  142.5242   73.7150  220.7536 H   0  0  0  0  0  0  0  0  0  0  0  0
  142.7042   76.1334  220.3687 H   0  0  0  0  0  0  0  0  0  0  0  0
  141.4981   78.2085  220.1262 H   0  0  0  0  0  0  0  0  0  0  0  0
  139.7699   78.3294  220.7855 H   0  0  0  0  0  0  0  0  0  0  0  0
  139.8168   79.4840  223.3728 H   0  0  0  0  0  0  0  0  0  0  0  0
  140.1565   77.7861  223.5303 H   0  0  0  0  0  0  0  0  0  0  0  0
  141.4692   79.6228  225.1137 H   0  0  0  0  0  0  0  0  0  0  0  0
  142.3796   78.2344  224.5455 H   0  0  0  0  0  0  0  0  0  0  0  0
  143.7378   79.8705  223.4129 H   0  0  0  0  0  0  0  0  0  0  0  0
  141.6760   81.7090  223.2480 H   0  0  0  0  0  0  0  0  0  0  0  0
  141.7052   80.7283  221.5165 H   0  0  0  0  0  0  0  0  0  0  0  0
  142.9959   79.5575  221.2427 H   0  0  0  0  0  0  0  0  0  0  0  0
  138.7811   76.6461  222.0393 H   0  0  0  0  0  0  0  0  0  0  0  0
  138.6290   74.1935  222.4139 H   0  0  0  0  0  0  0  0  0  0  0  0
  139.3081   69.0112  221.8534 H   0  0  0  0  0  0  0  0  0  0  0  0
  138.9342   67.7292  223.1303 H   0  0  0  0  0  0  0  0  0  0  0  0
  137.0446   67.9295  222.2017 H   0  0  0  0  0  0  0  0  0  0  0  0
  136.6602   68.4028  224.5618 H   0  0  0  0  0  0  0  0  0  0  0  0
  136.9499   70.1499  224.3204 H   0  0  0  0  0  0  0  0  0  0  0  0
  134.7763   68.5885  222.8449 H   0  0  0  0  0  0  0  0  0  0  0  0
  134.4972   69.4385  224.4070 H   0  0  0  0  0  0  0  0  0  0  0  0
  134.1573   70.5771  221.9730 H   0  0  0  0  0  0  0  0  0  0  0  0
  134.5879   71.4835  223.4631 H   0  0  0  0  0  0  0  0  0  0  0  0
  136.0246   71.8467  221.3288 H   0  0  0  0  0  0  0  0  0  0  0  0
  136.8610   71.5650  222.9078 H   0  0  0  0  0  0  0  0  0  0  0  0
  136.3041   69.4185  220.7989 H   0  0  0  0  0  0  0  0  0  0  0  0
  137.8850   70.2700  221.0586 H   0  0  0  0  0  0  0  0  0  0  0  0
  1  2  2  0
  2  3  1  0
  3  4  2  0
  4  5  1  0
  5  6  2  0
  6  7  1  0
  7  8  2  0
  8  9  1  0
  9 10  2  0
 10 11  1  0
 11 12  2  0
 12 13  1  0
 13 14  2  0
 14 15  1  0
 15 16  2  0
 16 17  1  0
 17 18  1  0
 18 19  1  0
 19 20  1  0
 20 21  1  0
 21 22  1  0
 21 23  1  0
 16 24  1  0
 24 25  2  0
 10 26  1  0
 26 27  1  0
 27 28  1  0
 28 29  1  0
 29 30  1  0
 30 31  1  0
 31 32  1  0
 32 33  1  0
 26  2  1  0
 33 28  1  0
  8  3  1  0
 25 13  1  0
 23 18  1  0
  4 34  1  0
  5 35  1  0
  6 36  1  0
  7 37  1  0
 11 38  1  0
 12 39  1  0
 14 40  1  0
 15 41  1  0
 17 42  1  0
 17 43  1  0
 19 44  1  0
 19 45  1  0
 20 46  1  0
 20 47  1  0
 21 48  1  6
 22 49  1  0
 23 50  1  0
 23 51  1  0
 24 52  1  0
 25 53  1  0
 27 54  1  0
 27 55  1  0
 28 56  1  0
 29 57  1  0
 29 58  1  0
 30 59  1  0
 30 60  1  0
 31 61  1  0
 31 62  1  0
 32 63  1  0
 32 64  1  0
 33 65  1  0
 33 66  1  0
M  END
>  <smiles>  (45) 
O=c1c2ccccc2nc(/C=C/c2ccc(CN3CCC(O)C3)cc2)n1CC1CCCCC1

>  <score_type>  (45) 
oracle

>  <origin>  (45) 
autodockgpu

>  <m_score__min__energy>  (45) 
-9.2699999999999996

>  <m_primary>  (45) 
energy

>  <rmsd>  (45) 
11.492810194036673

>  <m_score__min__rmsd>  (45) 
11.492810194036673

>  <meeko>  (45) 
{"free_energy": -8.66, "intermolecular_energy": -11.05, "internal_energy": -1.85, "cluster_size": 33, "cluster_id": 1, "rank_in_cluster": 21}

>  <energy>  (45) 
-7.97

>  <cluster_rmsd>  (45) 
0.8

>  <cluster>  (45) 
6

$$$$

     RDKit          3D

 66 70  0  0  0  0  0  0  0  0999 V2000
  142.6620   77.8520  218.9670 O   0  0  0  0  0  0  0  0  0  0  0  0
  142.1040   77.3800  219.9980 C   0  0  0  0  0  0  0  0  0  0  0  0
  141.7200   78.2900  220.9530 C   0  0  0  0  0  0  0  0  0  0  0  0
  141.9220   79.6430  220.8140 C   0  0  0  0  0  0  0  0  0  0  0  0
  141.5030   80.4940  221.8280 C   0  0  0  0  0  0  0  0  0  0  0  0
  140.8970   79.9560  222.9460 C   0  0  0  0  0  0  0  0  0  0  0  0
  140.6880   78.6010  223.1000 C   0  0  0  0  0  0  0  0  0  0  0  0
  141.1150   77.7860  222.0750 C   0  0  0  0  0  0  0  0  0  0  0  0
  140.9400   76.4860  222.1740 N   0  0  0  0  0  0  0  0  0  0  0  0
  141.3120   75.5590  221.2400 C   0  0  0  0  0  0  0  0  0  0  0  0
  141.0730   74.1910  221.6000 C   0  0  0  0  0  0  0  0  0  0  0  0
  140.0690   73.4090  221.4010 C   0  0  0  0  0  0  0  0  0  0  0  0
  139.6030   72.3700  222.3420 C   0  0  0  0  0  0  0  0  0  0  0  0
  140.4830   71.8050  223.2540 C   0  0  0  0  0  0  0  0  0  0  0  0
  140.1110   70.8360  224.1580 C   0  0  0  0  0  0  0  0  0  0  0  0
  138.8070   70.3920  224.1730 C   0  0  0  0  0  0  0  0  0  0  0  0
  138.3420   69.3460  225.1360 C   0  0  0  0  0  0  0  0  0  0  0  0
  139.2890   68.8290  226.0000 N   0  0  0  0  0  0  0  0  0  0  0  0
  139.8980   67.5860  225.8060 C   0  0  0  0  0  0  0  0  0  0  0  0
  141.2640   67.8150  226.4820 C   0  0  0  0  0  0  0  0  0  0  0  0
  140.9480   68.8010  227.6050 C   0  0  2  0  0  0  0  0  0  0  0  0
  140.9320   68.1330  228.8280 O   0  0  0  0  0  0  0  0  0  0  0  0
  139.6000   69.3900  227.2360 C   0  0  0  0  0  0  0  0  0  0  0  0
  137.9020   70.9300  223.2810 C   0  0  0  0  0  0  0  0  0  0  0  0
  138.3110   71.9150  222.3740 C   0  0  0  0  0  0  0  0  0  0  0  0
  141.9020   76.0280  220.1400 N   0  0  0  0  0  0  0  0  0  0  0  0
  142.3420   75.2340  219.0230 C   0  0  0  0  0  0  0  0  0  0  0  0
  143.7320   74.7100  219.1000 C   0  0  0  0  0  0  0  0  0  0  0  0
  144.2120   74.4770  220.5330 C   0  0  0  0  0  0  0  0  0  0  0  0
  145.6080   73.9000  220.4770 C   0  0  0  0  0  0  0  0  0  0  0  0
  145.5590   72.4920  219.9940 C   0  0  0  0  0  0  0  0  0  0  0  0
  144.2910   72.2770  219.2020 C   0  0  0  0  0  0  0  0  0  0  0  0
  143.9840   73.4880  218.3060 C   0  0  0  0  0  0  0  0  0  0  0  0
  142.4082   80.0452  219.9130 H   0  0  0  0  0  0  0  0  0  0  0  0
  141.6516   81.5805  221.7420 H   0  0  0  0  0  0  0  0  0  0  0  0
  140.5676   80.6352  223.7461 H   0  0  0  0  0  0  0  0  0  0  0  0
  140.2035   78.1911  223.9985 H   0  0  0  0  0  0  0  0  0  0  0  0
  141.9028   73.7219  222.1490 H   0  0  0  0  0  0  0  0  0  0  0  0
  139.5157   73.5238  220.4572 H   0  0  0  0  0  0  0  0  0  0  0  0
  141.5282   72.1480  223.2546 H   0  0  0  0  0  0  0  0  0  0  0  0
  140.8475   70.4203  224.8614 H   0  0  0  0  0  0  0  0  0  0  0  0
  137.5409   69.7882  225.7464 H   0  0  0  0  0  0  0  0  0  0  0  0
  138.0296   68.4971  224.5101 H   0  0  0  0  0  0  0  0  0  0  0  0
  139.3345   66.7796  226.2981 H   0  0  0  0  0  0  0  0  0  0  0  0
  139.9613   67.2729  224.7534 H   0  0  0  0  0  0  0  0  0  0  0  0
  141.6646   66.8739  226.8868 H   0  0  0  0  0  0  0  0  0  0  0  0
  142.0280   68.1908  225.7855 H   0  0  0  0  0  0  0  0  0  0  0  0
  141.6983   69.5979  227.7142 H   0  0  0  0  0  0  0  0  0  0  0  0
  140.4750   67.2540  228.6460 H   0  0  0  0  0  0  0  0  0  0  0  0
  138.8415   69.1196  227.9854 H   0  0  0  0  0  0  0  0  0  0  0  0
  139.6255   70.4890  227.1968 H   0  0  0  0  0  0  0  0  0  0  0  0
  136.8577   70.5845  223.2826 H   0  0  0  0  0  0  0  0  0  0  0  0
  137.5771   72.3339  221.6698 H   0  0  0  0  0  0  0  0  0  0  0  0
  141.6628   74.3733  218.9341 H   0  0  0  0  0  0  0  0  0  0  0  0
  142.3289   75.9108  218.1559 H   0  0  0  0  0  0  0  0  0  0  0  0
  144.3170   75.5240  218.6471 H   0  0  0  0  0  0  0  0  0  0  0  0
  144.2253   75.4308  221.0807 H   0  0  0  0  0  0  0  0  0  0  0  0
  143.5349   73.7824  221.0517 H   0  0  0  0  0  0  0  0  0  0  0  0
  146.2226   74.4997  219.7894 H   0  0  0  0  0  0  0  0  0  0  0  0
  146.0475   73.9205  221.4852 H   0  0  0  0  0  0  0  0  0  0  0  0
  146.4304   72.2935  219.3527 H   0  0  0  0  0  0  0  0  0  0  0  0
  145.5749   71.8075  220.8549 H   0  0  0  0  0  0  0  0  0  0  0  0
  144.4092   71.3841  218.5705 H   0  0  0  0  0  0  0  0  0  0  0  0
  143.4574   72.1450  219.9075 H   0  0  0  0  0  0  0  0  0  0  0  0
  144.8425   73.6660  217.6417 H   0  0  0  0  0  0  0  0  0  0  0  0
  143.0758   73.2633  217.7275 H   0  0  0  0  0  0  0  0  0  0  0  0
  1  2  2  0
  2  3  1  0
  3  4  2  0
  4  5  1  0
  5  6  2  0
  6  7  1  0
  7  8  2  0
  8  9  1  0
  9 10  2  0
 10 11  1  0
 11 12  2  0
 12 13  1  0
 13 14  2  0
 14 15  1  0
 15 16  2  0
 16 17  1  0
 17 18  1  0
 18 19  1  0
 19 20  1  0
 20 21  1  0
 21 22  1  0
 21 23  1  0
 16 24  1  0
 24 25  2  0
 10 26  1  0
 26 27  1  0
 27 28  1  0
 28 29  1  0
 29 30  1  0
 30 31  1  0
 31 32  1  0
 32 33  1  0
 26  2  1  0
 33 28  1  0
  8  3  1  0
 25 13  1  0
 23 18  1  0
  4 34  1  0
  5 35  1  0
  6 36  1  0
  7 37  1  0
 11 38  1  0
 12 39  1  0
 14 40  1  0
 15 41  1  0
 17 42  1  0
 17 43  1  0
 19 44  1  0
 19 45  1  0
 20 46  1  0
 20 47  1  0
 21 48  1  1
 22 49  1  0
 23 50  1  0
 23 51  1  0
 24 52  1  0
 25 53  1  0
 27 54  1  0
 27 55  1  0
 28 56  1  0
 29 57  1  0
 29 58  1  0
 30 59  1  0
 30 60  1  0
 31 61  1  0
 31 62  1  0
 32 63  1  0
 32 64  1  0
 33 65  1  0
 33 66  1  0
M  END
>  <smiles>  (46) 
O=c1c2ccccc2nc(/C=C/c2ccc(CN3CCC(O)C3)cc2)n1CC1CCCCC1

>  <score_type>  (46) 
oracle

>  <origin>  (46) 
autodockgpu

>  <m_score__min__energy>  (46) 
-9.2699999999999996

>  <m_primary>  (46) 
energy

>  <rmsd>  (46) 
4.784879790520955

>  <m_score__min__rmsd>  (46) 
4.784879790520955

>  <meeko>  (46) 
{"free_energy": -8.78, "intermolecular_energy": -11.17, "internal_energy": -1.67, "cluster_size": 3, "cluster_id": 3, "rank_in_cluster": 1}

>  <energy>  (46) 
-7.67

>  <cluster_rmsd>  (46) 
1.09

>  <cluster>  (46) 
6

$$$$

     RDKit          3D

 66 70  0  0  0  0  0  0  0  0999 V2000
  142.5830   77.7060  219.4450 O   0  0  0  0  0  0  0  0  0  0  0  0
  142.0060   76.8430  220.1660 C   0  0  0  0  0  0  0  0  0  0  0  0
  142.5430   75.5790  220.1480 C   0  0  0  0  0  0  0  0  0  0  0  0
  143.6450   75.2500  219.3940 C   0  0  0  0  0  0  0  0  0  0  0  0
  144.1230   73.9460  219.4340 C   0  0  0  0  0  0  0  0  0  0  0  0
  143.4760   73.0200  220.2270 C   0  0  0  0  0  0  0  0  0  0  0  0
  142.3690   73.3340  220.9880 C   0  0  0  0  0  0  0  0  0  0  0  0
  141.9220   74.6360  220.9260 C   0  0  0  0  0  0  0  0  0  0  0  0
  140.8690   74.9860  221.6330 N   0  0  0  0  0  0  0  0  0  0  0  0
  140.3150   76.2370  221.6690 C   0  0  0  0  0  0  0  0  0  0  0  0
  139.1290   76.3610  222.4660 C   0  0  0  0  0  0  0  0  0  0  0  0
  138.0690   77.0790  222.3290 C   0  0  0  0  0  0  0  0  0  0  0  0
  137.8730   78.4230  222.9080 C   0  0  0  0  0  0  0  0  0  0  0  0
  136.6680   79.0900  222.7420 C   0  0  0  0  0  0  0  0  0  0  0  0
  136.4210   80.3420  223.2580 C   0  0  0  0  0  0  0  0  0  0  0  0
  137.4080   80.9800  223.9770 C   0  0  0  0  0  0  0  0  0  0  0  0
  137.1970   82.3390  224.5680 C   0  0  0  0  0  0  0  0  0  0  0  0
  136.6800   82.3890  225.8480 N   0  0  0  0  0  0  0  0  0  0  0  0
  136.4510   83.5870  226.5300 C   0  0  0  0  0  0  0  0  0  0  0  0
  135.2760   83.1910  227.4430 C   0  0  0  0  0  0  0  0  0  0  0  0
  135.5260   81.7120  227.7290 C   0  0  2  0  0  0  0  0  0  0  0  0
  136.0260   81.5590  229.0200 O   0  0  0  0  0  0  0  0  0  0  0  0
  136.5060   81.2710  226.6590 C   0  0  0  0  0  0  0  0  0  0  0  0
  138.6210   80.3510  224.1640 C   0  0  0  0  0  0  0  0  0  0  0  0
  138.8400   79.0760  223.6260 C   0  0  0  0  0  0  0  0  0  0  0  0
  140.9040   77.1690  220.9190 N   0  0  0  0  0  0  0  0  0  0  0  0
  140.5050   78.5490  220.8350 C   0  0  0  0  0  0  0  0  0  0  0  0
  141.4500   79.5410  221.4140 C   0  0  0  0  0  0  0  0  0  0  0  0
  140.7760   80.8510  221.8230 C   0  0  0  0  0  0  0  0  0  0  0  0
  141.8230   81.7500  222.4410 C   0  0  0  0  0  0  0  0  0  0  0  0
  142.2110   81.2340  223.7820 C   0  0  0  0  0  0  0  0  0  0  0  0
  141.9040   79.7580  223.8610 C   0  0  0  0  0  0  0  0  0  0  0  0
  142.2610   79.0450  222.5470 C   0  0  0  0  0  0  0  0  0  0  0  0
  144.1404   76.0075  218.7689 H   0  0  0  0  0  0  0  0  0  0  0  0
  145.0039   73.6560  218.8425 H   0  0  0  0  0  0  0  0  0  0  0  0
  143.8588   71.9891  220.2533 H   0  0  0  0  0  0  0  0  0  0  0  0
  141.8674   72.5814  221.6141 H   0  0  0  0  0  0  0  0  0  0  0  0
  139.1241   75.7232  223.3622 H   0  0  0  0  0  0  0  0  0  0  0  0
  137.2450   76.6582  221.7340 H   0  0  0  0  0  0  0  0  0  0  0  0
  135.8704   78.5938  222.1697 H   0  0  0  0  0  0  0  0  0  0  0  0
  135.4470   80.8275  223.0981 H   0  0  0  0  0  0  0  0  0  0  0  0
  138.1709   82.8503  224.5824 H   0  0  0  0  0  0  0  0  0  0  0  0
  136.4357   82.8141  223.9318 H   0  0  0  0  0  0  0  0  0  0  0  0
  137.3310   83.8924  227.1150 H   0  0  0  0  0  0  0  0  0  0  0  0
  136.2447   84.4468  225.8757 H   0  0  0  0  0  0  0  0  0  0  0  0
  135.2863   83.7781  228.3732 H   0  0  0  0  0  0  0  0  0  0  0  0
  134.2948   83.3772  226.9818 H   0  0  0  0  0  0  0  0  0  0  0  0
  134.6147   81.0970  227.6922 H   0  0  0  0  0  0  0  0  0  0  0  0
  136.5390   82.4050  229.2100 H   0  0  0  0  0  0  0  0  0  0  0  0
  137.4621   80.9686  227.1111 H   0  0  0  0  0  0  0  0  0  0  0  0
  136.1372   80.4029  226.0929 H   0  0  0  0  0  0  0  0  0  0  0  0
  139.4169   80.8505  224.7358 H   0  0  0  0  0  0  0  0  0  0  0  0
  139.8126   78.5871  223.7840 H   0  0  0  0  0  0  0  0  0  0  0  0
  140.3695   78.7953  219.7715 H   0  0  0  0  0  0  0  0  0  0  0  0
  139.5883   78.6282  221.4379 H   0  0  0  0  0  0  0  0  0  0  0  0
  142.1367   79.7303  220.5758 H   0  0  0  0  0  0  0  0  0  0  0  0
  140.3426   81.3387  220.9374 H   0  0  0  0  0  0  0  0  0  0  0  0
  139.9709   80.6537  222.5461 H   0  0  0  0  0  0  0  0  0  0  0  0
  142.7097   81.7768  221.7906 H   0  0  0  0  0  0  0  0  0  0  0  0
  141.4092   82.7633  222.5503 H   0  0  0  0  0  0  0  0  0  0  0  0
  143.2880   81.3935  223.9388 H   0  0  0  0  0  0  0  0  0  0  0  0
  141.6445   81.7686  224.5587 H   0  0  0  0  0  0  0  0  0  0  0  0
  142.4877   79.3135  224.6805 H   0  0  0  0  0  0  0  0  0  0  0  0
  140.8259   79.6356  224.0420 H   0  0  0  0  0  0  0  0  0  0  0  0
  143.3246   79.2178  222.3259 H   0  0  0  0  0  0  0  0  0  0  0  0
  142.0521   77.9724  222.6728 H   0  0  0  0  0  0  0  0  0  0  0  0
  1  2  2  0
  2  3  1  0
  3  4  2  0
  4  5  1  0
  5  6  2  0
  6  7  1  0
  7  8  2  0
  8  9  1  0
  9 10  2  0
 10 11  1  0
 11 12  2  0
 12 13  1  0
 13 14  2  0
 14 15  1  0
 15 16  2  0
 16 17  1  0
 17 18  1  0
 18 19  1  0
 19 20  1  0
 20 21  1  0
 21 22  1  0
 21 23  1  0
 16 24  1  0
 24 25  2  0
 10 26  1  0
 26 27  1  0
 27 28  1  0
 28 29  1  0
 29 30  1  0
 30 31  1  0
 31 32  1  0
 32 33  1  0
 26  2  1  0
 33 28  1  0
  8  3  1  0
 25 13  1  0
 23 18  1  0
  4 34  1  0
  5 35  1  0
  6 36  1  0
  7 37  1  0
 11 38  1  0
 12 39  1  0
 14 40  1  0
 15 41  1  0
 17 42  1  0
 17 43  1  0
 19 44  1  0
 19 45  1  0
 20 46  1  0
 20 47  1  0
 21 48  1  1
 22 49  1  0
 23 50  1  0
 23 51  1  0
 24 52  1  0
 25 53  1  0
 27 54  1  0
 27 55  1  0
 28 56  1  0
 29 57  1  0
 29 58  1  0
 30 59  1  0
 30 60  1  0
 31 61  1  0
 31 62  1  0
 32 63  1  0
 32 64  1  0
 33 65  1  0
 33 66  1  0
M  END
>  <smiles>  (47) 
O=c1c2ccccc2nc(/C=C/c2ccc(CN3CCC(O)C3)cc2)n1CC1CCCCC1

>  <score_type>  (47) 
oracle

>  <origin>  (47) 
autodockgpu

>  <m_score__min__energy>  (47) 
-9.2699999999999996

>  <m_primary>  (47) 
energy

>  <rmsd>  (47) 
7.354870672083947

>  <m_score__min__rmsd>  (47) 
7.354870672083947

>  <meeko>  (47) 
{"free_energy": -7.98, "intermolecular_energy": -10.37, "internal_energy": -2.28, "cluster_size": 6, "cluster_id": 6, "rank_in_cluster": 3}

>  <energy>  (47) 
-7.51

>  <cluster_rmsd>  (47) 
1.04

>  <cluster>  (47) 
6

$$$$

     RDKit          3D

 66 70  0  0  0  0  0  0  0  0999 V2000
  142.7300   77.6980  219.0700 O   0  0  0  0  0  0  0  0  0  0  0  0
  142.1590   76.9830  219.9430 C   0  0  0  0  0  0  0  0  0  0  0  0
  142.5740   75.6770  220.0260 C   0  0  0  0  0  0  0  0  0  0  0  0
  143.5550   75.1560  219.2150 C   0  0  0  0  0  0  0  0  0  0  0  0
  143.9150   73.8230  219.3660 C   0  0  0  0  0  0  0  0  0  0  0  0
  143.2770   73.0610  220.3240 C   0  0  0  0  0  0  0  0  0  0  0  0
  142.2910   73.5700  221.1440 C   0  0  0  0  0  0  0  0  0  0  0  0
  141.9590   74.8940  220.9690 C   0  0  0  0  0  0  0  0  0  0  0  0
  141.0240   75.4270  221.7260 N   0  0  0  0  0  0  0  0  0  0  0  0
  140.5920   76.7240  221.6640 C   0  0  0  0  0  0  0  0  0  0  0  0
  139.5150   77.0560  222.5510 C   0  0  0  0  0  0  0  0  0  0  0  0
  138.3710   77.6130  222.3490 C   0  0  0  0  0  0  0  0  0  0  0  0
  137.9360   78.8960  222.9370 C   0  0  0  0  0  0  0  0  0  0  0  0
  138.7550   79.5710  223.8310 C   0  0  0  0  0  0  0  0  0  0  0  0
  138.4100   80.7700  224.4120 C   0  0  0  0  0  0  0  0  0  0  0  0
  137.1960   81.3430  224.1040 C   0  0  0  0  0  0  0  0  0  0  0  0
  136.7680   82.6480  224.6990 C   0  0  0  0  0  0  0  0  0  0  0  0
  136.4430   82.6440  226.0420 N   0  0  0  0  0  0  0  0  0  0  0  0
  136.5540   83.7750  226.8550 C   0  0  0  0  0  0  0  0  0  0  0  0
  135.4510   83.5030  227.8960 C   0  0  0  0  0  0  0  0  0  0  0  0
  135.4300   81.9800  228.0070 C   0  0  2  0  0  0  0  0  0  0  0  0
  136.0530   81.5850  229.1890 O   0  0  0  0  0  0  0  0  0  0  0  0
  136.1520   81.4910  226.7670 C   0  0  0  0  0  0  0  0  0  0  0  0
  136.3530   80.7020  223.2200 C   0  0  0  0  0  0  0  0  0  0  0  0
  136.7330   79.4830  222.6450 C   0  0  0  0  0  0  0  0  0  0  0  0
  141.1780   77.5020  220.7530 N   0  0  0  0  0  0  0  0  0  0  0  0
  140.8980   78.8980  220.5420 C   0  0  0  0  0  0  0  0  0  0  0  0
  141.7150   79.8570  221.3310 C   0  0  0  0  0  0  0  0  0  0  0  0
  140.9050   81.0330  221.8790 C   0  0  0  0  0  0  0  0  0  0  0  0
  141.8300   81.9030  222.7000 C   0  0  0  0  0  0  0  0  0  0  0  0
  142.1760   81.2170  223.9750 C   0  0  0  0  0  0  0  0  0  0  0  0
  141.9930   79.7280  223.8110 C   0  0  0  0  0  0  0  0  0  0  0  0
  142.4930   79.2550  222.4350 C   0  0  0  0  0  0  0  0  0  0  0  0
  144.0468   75.7852  218.4585 H   0  0  0  0  0  0  0  0  0  0  0  0
  144.6972   73.3810  218.7313 H   0  0  0  0  0  0  0  0  0  0  0  0
  143.5662   72.0059  220.4382 H   0  0  0  0  0  0  0  0  0  0  0  0
  141.7937   72.9469  221.9019 H   0  0  0  0  0  0  0  0  0  0  0  0
  139.7005   76.7841  223.6006 H   0  0  0  0  0  0  0  0  0  0  0  0
  137.6632   77.0925  221.6871 H   0  0  0  0  0  0  0  0  0  0  0  0
  139.7276   79.1260  224.0879 H   0  0  0  0  0  0  0  0  0  0  0  0
  139.0963   81.2652  225.1147 H   0  0  0  0  0  0  0  0  0  0  0  0
  137.5912   83.3638  224.5581 H   0  0  0  0  0  0  0  0  0  0  0  0
  135.8351   82.9095  224.1781 H   0  0  0  0  0  0  0  0  0  0  0  0
  137.5462   83.8376  227.3257 H   0  0  0  0  0  0  0  0  0  0  0  0
  136.4443   84.7294  226.3191 H   0  0  0  0  0  0  0  0  0  0  0  0
  135.7012   83.9639  228.8629 H   0  0  0  0  0  0  0  0  0  0  0  0
  134.4768   83.9240  227.6066 H   0  0  0  0  0  0  0  0  0  0  0  0
  134.4158   81.5567  228.0528 H   0  0  0  0  0  0  0  0  0  0  0  0
  136.1490   80.5850  229.1190 H   0  0  0  0  0  0  0  0  0  0  0  0
  137.0771   80.9627  227.0411 H   0  0  0  0  0  0  0  0  0  0  0  0
  135.5440   80.7806  226.1876 H   0  0  0  0  0  0  0  0  0  0  0  0
  135.3806   81.1492  222.9663 H   0  0  0  0  0  0  0  0  0  0  0  0
  136.0492   78.9848  221.9420 H   0  0  0  0  0  0  0  0  0  0  0  0
  141.0608   79.1157  219.4761 H   0  0  0  0  0  0  0  0  0  0  0  0
  139.8618   79.0453  220.8807 H   0  0  0  0  0  0  0  0  0  0  0  0
  142.4341   80.2254  220.5845 H   0  0  0  0  0  0  0  0  0  0  0  0
  140.4865   81.6170  221.0461 H   0  0  0  0  0  0  0  0  0  0  0  0
  140.0765   80.6656  222.5025 H   0  0  0  0  0  0  0  0  0  0  0  0
  142.7501   82.0965  222.1291 H   0  0  0  0  0  0  0  0  0  0  0  0
  141.3249   82.8534  222.9269 H   0  0  0  0  0  0  0  0  0  0  0  0
  143.2233   81.4313  224.2342 H   0  0  0  0  0  0  0  0  0  0  0  0
  141.5177   81.5811  224.7776 H   0  0  0  0  0  0  0  0  0  0  0  0
  142.5600   79.2079  224.5972 H   0  0  0  0  0  0  0  0  0  0  0  0
  140.9203   79.4977  223.8902 H   0  0  0  0  0  0  0  0  0  0  0  0
  143.5495   79.5402  222.3228 H   0  0  0  0  0  0  0  0  0  0  0  0
  142.3704   78.1631  222.3837 H   0  0  0  0  0  0  0  0  0  0  0  0
  1  2  2  0
  2  3  1  0
  3  4  2  0
  4  5  1  0
  5  6  2  0
  6  7  1  0
  7  8  2  0
  8  9  1  0
  9 10  2  0
 10 11  1  0
 11 12  2  0
 12 13  1  0
 13 14  2  0
 14 15  1  0
 15 16  2  0
 16 17  1  0
 17 18  1  0
 18 19  1  0
 19 20  1  0
 20 21  1  0
 21 22  1  0
 21 23  1  0
 16 24  1  0
 24 25  2  0
 10 26  1  0
 26 27  1  0
 27 28  1  0
 28 29  1  0
 29 30  1  0
 30 31  1  0
 31 32  1  0
 32 33  1  0
 26  2  1  0
 33 28  1  0
  8  3  1  0
 25 13  1  0
 23 18  1  0
  4 34  1  0
  5 35  1  0
  6 36  1  0
  7 37  1  0
 11 38  1  0
 12 39  1  0
 14 40  1  0
 15 41  1  0
 17 42  1  0
 17 43  1  0
 19 44  1  0
 19 45  1  0
 20 46  1  0
 20 47  1  0
 21 48  1  1
 22 49  1  0
 23 50  1  0
 23 51  1  0
 24 52  1  0
 25 53  1  0
 27 54  1  0
 27 55  1  0
 28 56  1  0
 29 57  1  0
 29 58  1  0
 30 59  1  0
 30 60  1  0
 31 61  1  0
 31 62  1  0
 32 63  1  0
 32 64  1  0
 33 65  1  0
 33 66  1  0
M  END
>  <smiles>  (48) 
O=c1c2ccccc2nc(/C=C/c2ccc(CN3CCC(O)C3)cc2)n1CC1CCCCC1

>  <score_type>  (48) 
oracle

>  <origin>  (48) 
autodockgpu

>  <m_score__min__energy>  (48) 
-9.2699999999999996

>  <m_primary>  (48) 
energy

>  <rmsd>  (48) 
7.401716929471156

>  <m_score__min__rmsd>  (48) 
7.401716929471156

>  <meeko>  (48) 
{"free_energy": -7.97, "intermolecular_energy": -10.36, "internal_energy": -2.37, "cluster_size": 6, "cluster_id": 6, "rank_in_cluster": 4}

>  <energy>  (48) 
-8.15

>  <cluster_rmsd>  (48) 
0.0

>  <cluster>  (48) 
7

$$$$

     RDKit          3D

 66 70  0  0  0  0  0  0  0  0999 V2000
  138.8310   68.1400  225.2930 O   0  0  0  0  0  0  0  0  0  0  0  0
  139.3950   69.2360  225.0100 C   0  0  0  0  0  0  0  0  0  0  0  0
  139.9670   69.9130  226.0590 C   0  0  0  0  0  0  0  0  0  0  0  0
  139.9390   69.4450  227.3510 C   0  0  0  0  0  0  0  0  0  0  0  0
  140.5430   70.1940  228.3530 C   0  0  0  0  0  0  0  0  0  0  0  0
  141.1510   71.3880  228.0210 C   0  0  0  0  0  0  0  0  0  0  0  0
  141.1880   71.8710  226.7300 C   0  0  0  0  0  0  0  0  0  0  0  0
  140.5800   71.1030  225.7610 C   0  0  0  0  0  0  0  0  0  0  0  0
  140.5870   71.5210  224.5140 N   0  0  0  0  0  0  0  0  0  0  0  0
  140.0260   70.8670  223.4520 C   0  0  0  0  0  0  0  0  0  0  0  0
  140.1050   71.5520  222.1940 C   0  0  0  0  0  0  0  0  0  0  0  0
  139.4650   72.5640  221.7200 C   0  0  0  0  0  0  0  0  0  0  0  0
  140.0110   73.9300  221.5950 C   0  0  0  0  0  0  0  0  0  0  0  0
  139.3930   74.9940  222.2380 C   0  0  0  0  0  0  0  0  0  0  0  0
  139.8530   76.2890  222.1640 C   0  0  0  0  0  0  0  0  0  0  0  0
  140.9790   76.5630  221.4190 C   0  0  0  0  0  0  0  0  0  0  0  0
  141.5290   77.9500  221.3060 C   0  0  0  0  0  0  0  0  0  0  0  0
  141.1550   78.8510  222.2830 N   0  0  0  0  0  0  0  0  0  0  0  0
  141.8390   78.9900  223.4940 C   0  0  0  0  0  0  0  0  0  0  0  0
  141.5680   80.4700  223.8220 C   0  0  0  0  0  0  0  0  0  0  0  0
  140.1860   80.7240  223.2240 C   0  0  2  0  0  0  0  0  0  0  0  0
  139.2330   80.7640  224.2400 O   0  0  0  0  0  0  0  0  0  0  0  0
  139.9670   79.5780  222.2550 C   0  0  0  0  0  0  0  0  0  0  0  0
  141.6210   75.5330  220.7640 C   0  0  0  0  0  0  0  0  0  0  0  0
  141.1290   74.2250  220.8600 C   0  0  0  0  0  0  0  0  0  0  0  0
  139.4240   69.7070  223.7200 N   0  0  0  0  0  0  0  0  0  0  0  0
  138.8000   68.8450  222.7510 C   0  0  0  0  0  0  0  0  0  0  0  0
  137.3580   69.0930  222.4860 C   0  0  0  0  0  0  0  0  0  0  0  0
  136.5160   69.1760  223.7590 C   0  0  0  0  0  0  0  0  0  0  0  0
  135.0880   69.4800  223.3640 C   0  0  0  0  0  0  0  0  0  0  0  0
  134.9780   70.8880  222.8930 C   0  0  0  0  0  0  0  0  0  0  0  0
  136.3310   71.3700  222.4270 C   0  0  0  0  0  0  0  0  0  0  0  0
  137.0700   70.2730  221.6430 C   0  0  0  0  0  0  0  0  0  0  0  0
  139.4454   68.4910  227.5882 H   0  0  0  0  0  0  0  0  0  0  0  0
  140.5369   69.8411  229.3948 H   0  0  0  0  0  0  0  0  0  0  0  0
  141.6253   71.9782  228.8189 H   0  0  0  0  0  0  0  0  0  0  0  0
  141.6796   72.8242  226.4853 H   0  0  0  0  0  0  0  0  0  0  0  0
  140.8532   71.1341  221.5044 H   0  0  0  0  0  0  0  0  0  0  0  0
  138.4315   72.3978  221.3821 H   0  0  0  0  0  0  0  0  0  0  0  0
  138.4919   74.7922  222.8357 H   0  0  0  0  0  0  0  0  0  0  0  0
  139.3271   77.0968  222.6941 H   0  0  0  0  0  0  0  0  0  0  0  0
  142.6263   77.8751  221.3253 H   0  0  0  0  0  0  0  0  0  0  0  0
  141.1097   78.3499  220.3710 H   0  0  0  0  0  0  0  0  0  0  0  0
  141.4289   78.3240  224.2674 H   0  0  0  0  0  0  0  0  0  0  0  0
  142.9058   78.7268  223.4429 H   0  0  0  0  0  0  0  0  0  0  0  0
  141.5619   80.6364  224.9093 H   0  0  0  0  0  0  0  0  0  0  0  0
  142.3380   81.1446  223.4196 H   0  0  0  0  0  0  0  0  0  0  0  0
  140.1031   81.6894  222.7033 H   0  0  0  0  0  0  0  0  0  0  0  0
  138.7390   81.6310  224.1090 H   0  0  0  0  0  0  0  0  0  0  0  0
  139.1229   78.9523  222.5805 H   0  0  0  0  0  0  0  0  0  0  0  0
  139.7234   79.9332  221.2428 H   0  0  0  0  0  0  0  0  0  0  0  0
  142.5206   75.7389  220.1654 H   0  0  0  0  0  0  0  0  0  0  0  0
  141.6532   73.4146  220.3322 H   0  0  0  0  0  0  0  0  0  0  0  0
  139.3411   68.9612  221.8003 H   0  0  0  0  0  0  0  0  0  0  0  0
  138.8515   67.8333  223.1797 H   0  0  0  0  0  0  0  0  0  0  0  0
  137.0664   68.2009  221.9123 H   0  0  0  0  0  0  0  0  0  0  0  0
  136.5574   68.2167  224.2957 H   0  0  0  0  0  0  0  0  0  0  0  0
  136.9033   69.9661  224.4191 H   0  0  0  0  0  0  0  0  0  0  0  0
  134.7814   68.8005  222.5552 H   0  0  0  0  0  0  0  0  0  0  0  0
  134.4344   69.3397  224.2375 H   0  0  0  0  0  0  0  0  0  0  0  0
  134.2627   70.9408  222.0590 H   0  0  0  0  0  0  0  0  0  0  0  0
  134.6264   71.5244  223.7185 H   0  0  0  0  0  0  0  0  0  0  0  0
  136.1955   72.2469  221.7768 H   0  0  0  0  0  0  0  0  0  0  0  0
  136.9315   71.6326  223.3105 H   0  0  0  0  0  0  0  0  0  0  0  0
  136.4446   69.9597  220.7941 H   0  0  0  0  0  0  0  0  0  0  0  0
  138.0284   70.6875  221.2972 H   0  0  0  0  0  0  0  0  0  0  0  0
  1  2  2  0
  2  3  1  0
  3  4  2  0
  4  5  1  0
  5  6  2  0
  6  7  1  0
  7  8  2  0
  8  9  1  0
  9 10  2  0
 10 11  1  0
 11 12  2  0
 12 13  1  0
 13 14  2  0
 14 15  1  0
 15 16  2  0
 16 17  1  0
 17 18  1  0
 18 19  1  0
 19 20  1  0
 20 21  1  0
 21 22  1  0
 21 23  1  0
 16 24  1  0
 24 25  2  0
 10 26  1  0
 26 27  1  0
 27 28  1  0
 28 29  1  0
 29 30  1  0
 30 31  1  0
 31 32  1  0
 32 33  1  0
 26  2  1  0
 33 28  1  0
  8  3  1  0
 25 13  1  0
 23 18  1  0
  4 34  1  0
  5 35  1  0
  6 36  1  0
  7 37  1  0
 11 38  1  0
 12 39  1  0
 14 40  1  0
 15 41  1  0
 17 42  1  0
 17 43  1  0
 19 44  1  0
 19 45  1  0
 20 46  1  0
 20 47  1  0
 21 48  1  6
 22 49  1  0
 23 50  1  0
 23 51  1  0
 24 52  1  0
 25 53  1  0
 27 54  1  0
 27 55  1  0
 28 56  1  0
 29 57  1  0
 29 58  1  0
 30 59  1  0
 30 60  1  0
 31 61  1  0
 31 62  1  0
 32 63  1  0
 32 64  1  0
 33 65  1  0
 33 66  1  0
M  END
>  <smiles>  (49) 
O=c1c2ccccc2nc(/C=C/c2ccc(CN3CCC(O)C3)cc2)n1CC1CCCCC1

>  <score_type>  (49) 
oracle

>  <origin>  (49) 
autodockgpu

>  <m_score__min__energy>  (49) 
-9.2699999999999996

>  <m_primary>  (49) 
energy

>  <rmsd>  (49) 
11.257712486227401

>  <m_score__min__rmsd>  (49) 
11.257712486227401

>  <meeko>  (49) 
{"free_energy": -8.3, "intermolecular_energy": -10.69, "internal_energy": -1.83, "cluster_size": 33, "cluster_id": 1, "rank_in_cluster": 32}

>  <energy>  (49) 
-7.86

>  <cluster_rmsd>  (49) 
0.0

>  <cluster>  (49) 
8

$$$$

     RDKit          3D

 66 70  0  0  0  0  0  0  0  0999 V2000
  138.8370   68.0060  225.3120 O   0  0  0  0  0  0  0  0  0  0  0  0
  139.3560   69.1210  225.0180 C   0  0  0  0  0  0  0  0  0  0  0  0
  139.9310   69.8150  226.0550 C   0  0  0  0  0  0  0  0  0  0  0  0
  139.9510   69.3430  227.3460 C   0  0  0  0  0  0  0  0  0  0  0  0
  140.5540   70.1090  228.3340 C   0  0  0  0  0  0  0  0  0  0  0  0
  141.1130   71.3240  227.9910 C   0  0  0  0  0  0  0  0  0  0  0  0
  141.1000   71.8120  226.7000 C   0  0  0  0  0  0  0  0  0  0  0  0
  140.4950   71.0260  225.7450 C   0  0  0  0  0  0  0  0  0  0  0  0
  140.4550   71.4470  224.4990 N   0  0  0  0  0  0  0  0  0  0  0  0
  139.8900   70.7760  223.4500 C   0  0  0  0  0  0  0  0  0  0  0  0
  139.9140   71.4670  222.1930 C   0  0  0  0  0  0  0  0  0  0  0  0
  140.7120   72.3560  221.7120 C   0  0  0  0  0  0  0  0  0  0  0  0
  140.4320   73.8040  221.6520 C   0  0  0  0  0  0  0  0  0  0  0  0
  139.2990   74.3250  222.2620 C   0  0  0  0  0  0  0  0  0  0  0  0
  138.9830   75.6640  222.2460 C   0  0  0  0  0  0  0  0  0  0  0  0
  139.8180   76.5460  221.5950 C   0  0  0  0  0  0  0  0  0  0  0  0
  139.5300   78.0140  221.5480 C   0  0  0  0  0  0  0  0  0  0  0  0
  140.4490   78.8500  222.1520 N   0  0  0  0  0  0  0  0  0  0  0  0
  140.1010   80.0740  222.7300 C   0  0  0  0  0  0  0  0  0  0  0  0
  141.1760   80.2020  223.8260 C   0  0  0  0  0  0  0  0  0  0  0  0
  142.3890   79.4950  223.2250 C   0  0  2  0  0  0  0  0  0  0  0  0
  143.3200   80.4400  222.7960 O   0  0  0  0  0  0  0  0  0  0  0  0
  141.8280   78.6610  222.0890 C   0  0  0  0  0  0  0  0  0  0  0  0
  140.9530   76.0670  220.9760 C   0  0  0  0  0  0  0  0  0  0  0  0
  141.2490   74.6990  221.0110 C   0  0  0  0  0  0  0  0  0  0  0  0
  139.3350   69.5950  223.7290 N   0  0  0  0  0  0  0  0  0  0  0  0
  138.7160   68.7150  222.7740 C   0  0  0  0  0  0  0  0  0  0  0  0
  137.2830   68.9750  222.4760 C   0  0  0  0  0  0  0  0  0  0  0  0
  136.4340   69.1850  223.7310 C   0  0  0  0  0  0  0  0  0  0  0  0
  135.0170   69.4880  223.2980 C   0  0  0  0  0  0  0  0  0  0  0  0
  134.9450   70.8550  222.7120 C   0  0  0  0  0  0  0  0  0  0  0  0
  136.3120   71.2630  222.2190 C   0  0  0  0  0  0  0  0  0  0  0  0
  137.0300   70.0870  221.5360 C   0  0  0  0  0  0  0  0  0  0  0  0
  139.4958   68.3724  227.5924 H   0  0  0  0  0  0  0  0  0  0  0  0
  140.5860   69.7535  229.3745 H   0  0  0  0  0  0  0  0  0  0  0  0
  141.5880   71.9275  228.7785 H   0  0  0  0  0  0  0  0  0  0  0  0
  141.5514   72.7825  226.4462 H   0  0  0  0  0  0  0  0  0  0  0  0
  139.0975   71.1844  221.5122 H   0  0  0  0  0  0  0  0  0  0  0  0
  141.6775   72.0092  221.3150 H   0  0  0  0  0  0  0  0  0  0  0  0
  138.6208   73.6336  222.7835 H   0  0  0  0  0  0  0  0  0  0  0  0
  138.0736   76.0266  222.7475 H   0  0  0  0  0  0  0  0  0  0  0  0
  139.4606   78.3055  220.4896 H   0  0  0  0  0  0  0  0  0  0  0  0
  138.6020   78.1432  222.1244 H   0  0  0  0  0  0  0  0  0  0  0  0
  140.1665   80.8966  222.0027 H   0  0  0  0  0  0  0  0  0  0  0  0
  139.0673   80.1200  223.1032 H   0  0  0  0  0  0  0  0  0  0  0  0
  141.4006   81.2585  224.0341 H   0  0  0  0  0  0  0  0  0  0  0  0
  140.8608   79.7675  224.7861 H   0  0  0  0  0  0  0  0  0  0  0  0
  142.9256   78.8562  223.9419 H   0  0  0  0  0  0  0  0  0  0  0  0
  143.7490   80.0390  221.9770 H   0  0  0  0  0  0  0  0  0  0  0  0
  142.2224   79.0083  221.1226 H   0  0  0  0  0  0  0  0  0  0  0  0
  142.1049   77.6002  222.1784 H   0  0  0  0  0  0  0  0  0  0  0  0
  141.6276   76.7612  220.4534 H   0  0  0  0  0  0  0  0  0  0  0  0
  142.1588   74.3336  220.5123 H   0  0  0  0  0  0  0  0  0  0  0  0
  139.2754   68.7966  221.8304 H   0  0  0  0  0  0  0  0  0  0  0  0
  138.7452   67.7153  223.2321 H   0  0  0  0  0  0  0  0  0  0  0  0
  136.9738   68.0455  221.9756 H   0  0  0  0  0  0  0  0  0  0  0  0
  136.4483   68.2737  224.3470 H   0  0  0  0  0  0  0  0  0  0  0  0
  136.8357   70.0182  224.3263 H   0  0  0  0  0  0  0  0  0  0  0  0
  134.7009   68.7515  222.5445 H   0  0  0  0  0  0  0  0  0  0  0  0
  134.3527   69.4348  224.1732 H   0  0  0  0  0  0  0  0  0  0  0  0
  134.2362   70.8566  221.8708 H   0  0  0  0  0  0  0  0  0  0  0  0
  134.6045   71.5657  223.4794 H   0  0  0  0  0  0  0  0  0  0  0  0
  136.2023   72.0851  221.4964 H   0  0  0  0  0  0  0  0  0  0  0  0
  136.9127   71.5839  223.0828 H   0  0  0  0  0  0  0  0  0  0  0  0
  136.4034   69.7190  220.7102 H   0  0  0  0  0  0  0  0  0  0  0  0
  138.0009   70.4486  221.1664 H   0  0  0  0  0  0  0  0  0  0  0  0
  1  2  2  0
  2  3  1  0
  3  4  2  0
  4  5  1  0
  5  6  2  0
  6  7  1  0
  7  8  2  0
  8  9  1  0
  9 10  2  0
 10 11  1  0
 11 12  2  0
 12 13  1  0
 13 14  2  0
 14 15  1  0
 15 16  2  0
 16 17  1  0
 17 18  1  0
 18 19  1  0
 19 20  1  0
 20 21  1  0
 21 22  1  0
 21 23  1  0
 16 24  1  0
 24 25  2  0
 10 26  1  0
 26 27  1  0
 27 28  1  0
 28 29  1  0
 29 30  1  0
 30 31  1  0
 31 32  1  0
 32 33  1  0
 26  2  1  0
 33 28  1  0
  8  3  1  0
 25 13  1  0
 23 18  1  0
  4 34  1  0
  5 35  1  0
  6 36  1  0
  7 37  1  0
 11 38  1  0
 12 39  1  0
 14 40  1  0
 15 41  1  0
 17 42  1  0
 17 43  1  0
 19 44  1  0
 19 45  1  0
 20 46  1  0
 20 47  1  0
 21 48  1  1
 22 49  1  0
 23 50  1  0
 23 51  1  0
 24 52  1  0
 25 53  1  0
 27 54  1  0
 27 55  1  0
 28 56  1  0
 29 57  1  0
 29 58  1  0
 30 59  1  0
 30 60  1  0
 31 61  1  0
 31 62  1  0
 32 63  1  0
 32 64  1  0
 33 65  1  0
 33 66  1  0
M  END
>  <smiles>  (50) 
O=c1c2ccccc2nc(/C=C/c2ccc(CN3CCC(O)C3)cc2)n1CC1CCCCC1

>  <score_type>  (50) 
oracle

>  <origin>  (50) 
autodockgpu

>  <m_score__min__energy>  (50) 
-9.2699999999999996

>  <m_primary>  (50) 
energy

>  <rmsd>  (50) 
11.303423580307578

>  <m_score__min__rmsd>  (50) 
11.303423580307578

>  <meeko>  (50) 
{"free_energy": -8.8, "intermolecular_energy": -11.19, "internal_energy": -1.77, "cluster_size": 33, "cluster_id": 1, "rank_in_cluster": 16}

>  <energy>  (50) 
-6.54

>  <cluster_rmsd>  (50) 
0.0

>  <cluster>  (50) 
9

$$$$

     RDKit          3D

 66 70  0  0  0  0  0  0  0  0999 V2000
  142.3150   77.3950  219.7680 O   0  0  0  0  0  0  0  0  0  0  0  0
  141.6720   76.5250  220.4200 C   0  0  0  0  0  0  0  0  0  0  0  0
  142.1980   75.2510  220.4330 C   0  0  0  0  0  0  0  0  0  0  0  0
  143.3700   74.9250  219.7710 C   0  0  0  0  0  0  0  0  0  0  0  0
  143.8560   73.6170  219.8200 C   0  0  0  0  0  0  0  0  0  0  0  0
  143.1460   72.6470  220.5430 C   0  0  0  0  0  0  0  0  0  0  0  0
  141.9790   72.9720  221.2020 C   0  0  0  0  0  0  0  0  0  0  0  0
  141.5130   74.2870  221.1400 C   0  0  0  0  0  0  0  0  0  0  0  0
  140.3840   74.6280  221.7700 N   0  0  0  0  0  0  0  0  0  0  0  0
  139.8860   75.8750  221.7470 C   0  0  0  0  0  0  0  0  0  0  0  0
  138.6290   76.1290  222.4630 C   0  0  0  0  0  0  0  0  0  0  0  0
  137.5030   75.5710  222.0600 C   0  0  0  0  0  0  0  0  0  0  0  0
  136.3460   75.3330  222.8790 C   0  0  0  0  0  0  0  0  0  0  0  0
  135.2020   74.7400  222.3450 C   0  0  0  0  0  0  0  0  0  0  0  0
  134.0790   74.4970  223.0990 C   0  0  0  0  0  0  0  0  0  0  0  0
  134.0240   74.8300  224.4290 C   0  0  0  0  0  0  0  0  0  0  0  0
  132.8370   74.6050  225.2850 C   0  0  0  0  0  0  0  0  0  0  0  0
  133.1850   74.0620  226.5530 N   0  0  0  0  0  0  0  0  0  0  0  0
  133.6790   72.7090  226.3490 C   0  0  0  0  0  0  0  0  0  0  0  0
  132.8860   71.7920  227.2390 C   0  0  0  0  0  0  0  0  0  0  0  0
  131.5720   72.5700  227.3940 C   0  0  1  0  0  0  0  0  0  0  0  0
  130.8730   72.1740  228.5150 O   0  0  0  0  0  0  0  0  0  0  0  0
  132.1370   73.9830  227.5140 C   0  0  0  0  0  0  0  0  0  0  0  0
  135.1370   75.4160  224.9860 C   0  0  0  0  0  0  0  0  0  0  0  0
  136.2690   75.6600  224.2230 C   0  0  0  0  0  0  0  0  0  0  0  0
  140.5230   76.8480  221.0700 N   0  0  0  0  0  0  0  0  0  0  0  0
  140.0290   78.2040  221.0340 C   0  0  0  0  0  0  0  0  0  0  0  0
  140.7990   79.0490  221.9850 C   0  0  0  0  0  0  0  0  0  0  0  0
  141.4430   78.2310  223.0950 C   0  0  0  0  0  0  0  0  0  0  0  0
  141.7600   79.1890  224.2190 C   0  0  0  0  0  0  0  0  0  0  0  0
  142.6770   80.2990  223.7630 C   0  0  0  0  0  0  0  0  0  0  0  0
  142.2330   80.9510  222.5030 C   0  0  0  0  0  0  0  0  0  0  0  0
  141.8200   79.9570  221.4070 C   0  0  0  0  0  0  0  0  0  0  0  0
  143.9170   75.6953  219.2076 H   0  0  0  0  0  0  0  0  0  0  0  0
  144.7861   73.3499  219.2970 H   0  0  0  0  0  0  0  0  0  0  0  0
  143.5245   71.6150  220.5848 H   0  0  0  0  0  0  0  0  0  0  0  0
  141.4245   72.2083  221.7670 H   0  0  0  0  0  0  0  0  0  0  0  0
  138.6261   76.7898  223.3424 H   0  0  0  0  0  0  0  0  0  0  0  0
  137.4449   75.2612  221.0061 H   0  0  0  0  0  0  0  0  0  0  0  0
  135.1985   74.4566  221.2821 H   0  0  0  0  0  0  0  0  0  0  0  0
  133.2051   74.0252  222.6260 H   0  0  0  0  0  0  0  0  0  0  0  0
  132.3243   75.5658  225.4396 H   0  0  0  0  0  0  0  0  0  0  0  0
  132.1846   73.8811  224.7748 H   0  0  0  0  0  0  0  0  0  0  0  0
  133.5463   72.4166  225.2969 H   0  0  0  0  0  0  0  0  0  0  0  0
  134.7501   72.6498  226.5924 H   0  0  0  0  0  0  0  0  0  0  0  0
  132.7198   70.8149  226.7619 H   0  0  0  0  0  0  0  0  0  0  0  0
  133.3811   71.5565  228.1926 H   0  0  0  0  0  0  0  0  0  0  0  0
  130.8372   72.4355  226.5866 H   0  0  0  0  0  0  0  0  0  0  0  0
  131.4040   72.2510  229.3410 H   0  0  0  0  0  0  0  0  0  0  0  0
  131.3578   74.7276  227.2938 H   0  0  0  0  0  0  0  0  0  0  0  0
  132.5023   74.1891  228.5309 H   0  0  0  0  0  0  0  0  0  0  0  0
  135.1290   75.6946  226.0501 H   0  0  0  0  0  0  0  0  0  0  0  0
  137.1391   76.1313  224.7034 H   0  0  0  0  0  0  0  0  0  0  0  0
  140.1408   78.6059  220.0162 H   0  0  0  0  0  0  0  0  0  0  0  0
  138.9674   78.2103  221.3220 H   0  0  0  0  0  0  0  0  0  0  0  0
  140.0106   79.7047  222.3831 H   0  0  0  0  0  0  0  0  0  0  0  0
  140.7471   77.4543  223.4450 H   0  0  0  0  0  0  0  0  0  0  0  0
  142.3540   77.7295  222.7365 H   0  0  0  0  0  0  0  0  0  0  0  0
  140.8219   79.6299  224.5872 H   0  0  0  0  0  0  0  0  0  0  0  0
  142.2701   78.6274  225.0155 H   0  0  0  0  0  0  0  0  0  0  0  0
  142.7208   81.0622  224.5539 H   0  0  0  0  0  0  0  0  0  0  0  0
  143.6606   79.8476  223.5661 H   0  0  0  0  0  0  0  0  0  0  0  0
  141.3711   81.5955  222.7303 H   0  0  0  0  0  0  0  0  0  0  0  0
  143.0909   81.5198  222.1151 H   0  0  0  0  0  0  0  0  0  0  0  0
  141.3965   80.4996  220.5490 H   0  0  0  0  0  0  0  0  0  0  0  0
  142.6916   79.3845  221.0569 H   0  0  0  0  0  0  0  0  0  0  0  0
  1  2  2  0
  2  3  1  0
  3  4  2  0
  4  5  1  0
  5  6  2  0
  6  7  1  0
  7  8  2  0
  8  9  1  0
  9 10  2  0
 10 11  1  0
 11 12  2  0
 12 13  1  0
 13 14  2  0
 14 15  1  0
 15 16  2  0
 16 17  1  0
 17 18  1  0
 18 19  1  0
 19 20  1  0
 20 21  1  0
 21 22  1  0
 21 23  1  0
 16 24  1  0
 24 25  2  0
 10 26  1  0
 26 27  1  0
 27 28  1  0
 28 29  1  0
 29 30  1  0
 30 31  1  0
 31 32  1  0
 32 33  1  0
 26  2  1  0
 33 28  1  0
  8  3  1  0
 25 13  1  0
 23 18  1  0
  4 34  1  0
  5 35  1  0
  6 36  1  0
  7 37  1  0
 11 38  1  0
 12 39  1  0
 14 40  1  0
 15 41  1  0
 17 42  1  0
 17 43  1  0
 19 44  1  0
 19 45  1  0
 20 46  1  0
 20 47  1  0
 21 48  1  6
 22 49  1  0
 23 50  1  0
 23 51  1  0
 24 52  1  0
 25 53  1  0
 27 54  1  0
 27 55  1  0
 28 56  1  0
 29 57  1  0
 29 58  1  0
 30 59  1  0
 30 60  1  0
 31 61  1  0
 31 62  1  0
 32 63  1  0
 32 64  1  0
 33 65  1  0
 33 66  1  0
M  END
>  <smiles>  (51) 
O=c1c2ccccc2nc(/C=C/c2ccc(CN3CCC(O)C3)cc2)n1CC1CCCCC1

>  <score_type>  (51) 
oracle

>  <origin>  (51) 
autodockgpu

>  <m_score__min__energy>  (51) 
-9.3900000000000006

>  <m_primary>  (51) 
energy

>  <rmsd>  (51) 
7.376511842594032

>  <m_score__min__rmsd>  (51) 
7.376511842594032

>  <meeko>  (51) 
{"free_energy": -8.47, "intermolecular_energy": -10.86, "internal_energy": -1.54, "cluster_size": 2, "cluster_id": 3, "rank_in_cluster": 1}

>  <energy>  (51) 
-9.39

>  <cluster_rmsd>  (51) 
0.0

>  <cluster>  (51) 
1

$$$$

     RDKit          3D

 66 70  0  0  0  0  0  0  0  0999 V2000
  139.1950   67.8700  225.3640 O   0  0  0  0  0  0  0  0  0  0  0  0
  139.5500   69.0440  225.0630 C   0  0  0  0  0  0  0  0  0  0  0  0
  140.1050   69.7980  226.0750 C   0  0  0  0  0  0  0  0  0  0  0  0
  140.2720   69.3100  227.3600 C   0  0  0  0  0  0  0  0  0  0  0  0
  140.8400   70.1200  228.3450 C   0  0  0  0  0  0  0  0  0  0  0  0
  141.2360   71.4250  228.0150 C   0  0  0  0  0  0  0  0  0  0  0  0
  141.0700   71.9110  226.7360 C   0  0  0  0  0  0  0  0  0  0  0  0
  140.5000   71.0820  225.7680 C   0  0  0  0  0  0  0  0  0  0  0  0
  140.3290   71.5300  224.5200 N   0  0  0  0  0  0  0  0  0  0  0  0
  139.7860   70.7800  223.5460 C   0  0  0  0  0  0  0  0  0  0  0  0
  139.6330   71.3840  222.2160 C   0  0  0  0  0  0  0  0  0  0  0  0
  140.4940   72.2860  221.7860 C   0  0  0  0  0  0  0  0  0  0  0  0
  140.3220   73.7110  221.8630 C   0  0  0  0  0  0  0  0  0  0  0  0
  139.1210   74.2630  222.3100 C   0  0  0  0  0  0  0  0  0  0  0  0
  138.9220   75.6210  222.3970 C   0  0  0  0  0  0  0  0  0  0  0  0
  139.9040   76.5120  222.0440 C   0  0  0  0  0  0  0  0  0  0  0  0
  139.7400   77.9820  222.1040 C   0  0  0  0  0  0  0  0  0  0  0  0
  140.4050   78.5510  223.2270 N   0  0  0  0  0  0  0  0  0  0  0  0
  139.9850   79.9380  223.3490 C   0  0  0  0  0  0  0  0  0  0  0  0
  141.2240   80.7900  223.3880 C   0  0  0  0  0  0  0  0  0  0  0  0
  142.2290   79.9110  222.6310 C   0  0  1  0  0  0  0  0  0  0  0  0
  143.5310   80.2510  222.9290 O   0  0  0  0  0  0  0  0  0  0  0  0
  141.8280   78.5470  223.1860 C   0  0  0  0  0  0  0  0  0  0  0  0
  141.1010   75.9980  221.6000 C   0  0  0  0  0  0  0  0  0  0  0  0
  141.2990   74.6290  221.5130 C   0  0  0  0  0  0  0  0  0  0  0  0
  139.3870   69.5210  223.8010 N   0  0  0  0  0  0  0  0  0  0  0  0
  138.8150   68.6770  222.7790 C   0  0  0  0  0  0  0  0  0  0  0  0
  137.3450   68.8930  222.7090 C   0  0  0  0  0  0  0  0  0  0  0  0
  136.7930   69.5350  223.9730 C   0  0  0  0  0  0  0  0  0  0  0  0
  135.3080   69.2620  223.9920 C   0  0  0  0  0  0  0  0  0  0  0  0
  134.6240   69.8120  222.7630 C   0  0  0  0  0  0  0  0  0  0  0  0
  135.3040   69.4420  221.4940 C   0  0  0  0  0  0  0  0  0  0  0  0
  136.8280   69.6340  221.5320 C   0  0  0  0  0  0  0  0  0  0  0  0
  139.9573   68.2847  227.6046 H   0  0  0  0  0  0  0  0  0  0  0  0
  140.9755   69.7395  229.3682 H   0  0  0  0  0  0  0  0  0  0  0  0
  141.6844   72.0681  228.7866 H   0  0  0  0  0  0  0  0  0  0  0  0
  141.3815   72.9350  226.4821 H   0  0  0  0  0  0  0  0  0  0  0  0
  138.7933   71.0816  221.5731 H   0  0  0  0  0  0  0  0  0  0  0  0
  141.4237   71.9159  221.3291 H   0  0  0  0  0  0  0  0  0  0  0  0
  138.3039   73.5876  222.6034 H   0  0  0  0  0  0  0  0  0  0  0  0
  137.9547   76.0011  222.7574 H   0  0  0  0  0  0  0  0  0  0  0  0
  140.1550   78.4227  221.1856 H   0  0  0  0  0  0  0  0  0  0  0  0
  138.6660   78.1987  222.2015 H   0  0  0  0  0  0  0  0  0  0  0  0
  139.3645   80.2188  222.4852 H   0  0  0  0  0  0  0  0  0  0  0  0
  139.3904   80.0812  224.2633 H   0  0  0  0  0  0  0  0  0  0  0  0
  141.0663   81.7509  222.8762 H   0  0  0  0  0  0  0  0  0  0  0  0
  141.5461   81.0640  224.4035 H   0  0  0  0  0  0  0  0  0  0  0  0
  142.2013   79.9870  221.5340 H   0  0  0  0  0  0  0  0  0  0  0  0
  144.1850   79.7860  222.3580 H   0  0  0  0  0  0  0  0  0  0  0  0
  142.1905   77.7435  222.5279 H   0  0  0  0  0  0  0  0  0  0  0  0
  142.2623   78.3699  224.1810 H   0  0  0  0  0  0  0  0  0  0  0  0
  141.9115   76.6829  221.3103 H   0  0  0  0  0  0  0  0  0  0  0  0
  142.2692   74.2569  221.1521 H   0  0  0  0  0  0  0  0  0  0  0  0
  139.2667   68.9239  221.8069 H   0  0  0  0  0  0  0  0  0  0  0  0
  139.0152   67.6237  223.0250 H   0  0  0  0  0  0  0  0  0  0  0  0
  136.9772   67.8624  222.5966 H   0  0  0  0  0  0  0  0  0  0  0  0
  137.2700   69.0937  224.8606 H   0  0  0  0  0  0  0  0  0  0  0  0
  136.9944   70.6163  223.9853 H   0  0  0  0  0  0  0  0  0  0  0  0
  135.1458   68.1748  224.0340 H   0  0  0  0  0  0  0  0  0  0  0  0
  134.8790   69.7586  224.8748 H   0  0  0  0  0  0  0  0  0  0  0  0
  133.5952   69.4239  222.7334 H   0  0  0  0  0  0  0  0  0  0  0  0
  134.6523   70.9090  222.8389 H   0  0  0  0  0  0  0  0  0  0  0  0
  135.0924   68.3835  221.2823 H   0  0  0  0  0  0  0  0  0  0  0  0
  134.9147   70.1118  220.7131 H   0  0  0  0  0  0  0  0  0  0  0  0
  137.2791   69.2365  220.6109 H   0  0  0  0  0  0  0  0  0  0  0  0
  137.0808   70.7020  221.6066 H   0  0  0  0  0  0  0  0  0  0  0  0
  1  2  2  0
  2  3  1  0
  3  4  2  0
  4  5  1  0
  5  6  2  0
  6  7  1  0
  7  8  2  0
  8  9  1  0
  9 10  2  0
 10 11  1  0
 11 12  2  0
 12 13  1  0
 13 14  2  0
 14 15  1  0
 15 16  2  0
 16 17  1  0
 17 18  1  0
 18 19  1  0
 19 20  1  0
 20 21  1  0
 21 22  1  0
 21 23  1  0
 16 24  1  0
 24 25  2  0
 10 26  1  0
 26 27  1  0
 27 28  1  0
 28 29  1  0
 29 30  1  0
 30 31  1  0
 31 32  1  0
 32 33  1  0
 26  2  1  0
 33 28  1  0
  8  3  1  0
 25 13  1  0
 23 18  1  0
  4 34  1  0
  5 35  1  0
  6 36  1  0
  7 37  1  0
 11 38  1  0
 12 39  1  0
 14 40  1  0
 15 41  1  0
 17 42  1  0
 17 43  1  0
 19 44  1  0
 19 45  1  0
 20 46  1  0
 20 47  1  0
 21 48  1  6
 22 49  1  0
 23 50  1  0
 23 51  1  0
 24 52  1  0
 25 53  1  0
 27 54  1  0
 27 55  1  0
 28 56  1  0
 29 57  1  0
 29 58  1  0
 30 59  1  0
 30 60  1  0
 31 61  1  0
 31 62  1  0
 32 63  1  0
 32 64  1  0
 33 65  1  0
 33 66  1  0
M  END
>  <smiles>  (52) 
O=c1c2ccccc2nc(/C=C/c2ccc(CN3CCC(O)C3)cc2)n1CC1CCCCC1

>  <score_type>  (52) 
oracle

>  <origin>  (52) 
autodockgpu

>  <m_score__min__energy>  (52) 
-9.3900000000000006

>  <m_primary>  (52) 
energy

>  <rmsd>  (52) 
11.384087531172485

>  <m_score__min__rmsd>  (52) 
11.384087531172485

>  <meeko>  (52) 
{"free_energy": -9.21, "intermolecular_energy": -11.6, "internal_energy": -1.64, "cluster_size": 37, "cluster_id": 1, "rank_in_cluster": 7}

>  <energy>  (52) 
-9.37

>  <cluster_rmsd>  (52) 
0.2

>  <cluster>  (52) 
1

$$$$

     RDKit          3D

 66 70  0  0  0  0  0  0  0  0999 V2000
  139.1710   67.8630  225.2830 O   0  0  0  0  0  0  0  0  0  0  0  0
  139.5060   69.0470  224.9980 C   0  0  0  0  0  0  0  0  0  0  0  0
  140.0490   69.7960  226.0200 C   0  0  0  0  0  0  0  0  0  0  0  0
  140.2250   69.2920  227.2980 C   0  0  0  0  0  0  0  0  0  0  0  0
  140.7800   70.0990  228.2940 C   0  0  0  0  0  0  0  0  0  0  0  0
  141.1540   71.4140  227.9830 C   0  0  0  0  0  0  0  0  0  0  0  0
  140.9790   71.9160  226.7100 C   0  0  0  0  0  0  0  0  0  0  0  0
  140.4220   71.0910  225.7310 C   0  0  0  0  0  0  0  0  0  0  0  0
  140.2410   71.5530  224.4890 N   0  0  0  0  0  0  0  0  0  0  0  0
  139.7110   70.8090  223.5060 C   0  0  0  0  0  0  0  0  0  0  0  0
  139.5450   71.4280  222.1840 C   0  0  0  0  0  0  0  0  0  0  0  0
  140.4150   72.3190  221.7480 C   0  0  0  0  0  0  0  0  0  0  0  0
  140.2560   73.7460  221.8130 C   0  0  0  0  0  0  0  0  0  0  0  0
  139.0610   74.3120  222.2570 C   0  0  0  0  0  0  0  0  0  0  0  0
  138.8740   75.6730  222.3320 C   0  0  0  0  0  0  0  0  0  0  0  0
  139.8630   76.5510  221.9690 C   0  0  0  0  0  0  0  0  0  0  0  0
  139.7130   78.0240  222.0150 C   0  0  0  0  0  0  0  0  0  0  0  0
  140.4020   78.5990  223.1200 N   0  0  0  0  0  0  0  0  0  0  0  0
  139.9140   79.9570  223.3020 C   0  0  0  0  0  0  0  0  0  0  0  0
  141.1050   80.8750  223.3050 C   0  0  0  0  0  0  0  0  0  0  0  0
  142.1160   80.0750  222.4740 C   0  0  1  0  0  0  0  0  0  0  0  0
  143.4120   80.4790  222.7170 O   0  0  0  0  0  0  0  0  0  0  0  0
  141.8190   78.6760  223.0080 C   0  0  0  0  0  0  0  0  0  0  0  0
  141.0550   76.0240  221.5270 C   0  0  0  0  0  0  0  0  0  0  0  0
  141.2410   74.6520  221.4520 C   0  0  0  0  0  0  0  0  0  0  0  0
  139.3340   69.5390  223.7430 N   0  0  0  0  0  0  0  0  0  0  0  0
  138.7750   68.7000  222.7100 C   0  0  0  0  0  0  0  0  0  0  0  0
  137.3170   68.5170  222.9390 C   0  0  0  0  0  0  0  0  0  0  0  0
  136.6770   69.7310  223.5970 C   0  0  0  0  0  0  0  0  0  0  0  0
  135.3760   69.2660  224.2060 C   0  0  0  0  0  0  0  0  0  0  0  0
  134.4570   68.6670  223.1670 C   0  0  0  0  0  0  0  0  0  0  0  0
  135.1260   67.6640  222.2970 C   0  0  0  0  0  0  0  0  0  0  0  0
  136.4950   68.1190  221.7700 C   0  0  0  0  0  0  0  0  0  0  0  0
  139.9283   68.2581  227.5283 H   0  0  0  0  0  0  0  0  0  0  0  0
  140.9221   69.7068  229.3118 H   0  0  0  0  0  0  0  0  0  0  0  0
  141.5923   72.0532  228.7636 H   0  0  0  0  0  0  0  0  0  0  0  0
  141.2732   72.9485  226.4704 H   0  0  0  0  0  0  0  0  0  0  0  0
  138.6891   71.1466  221.5530 H   0  0  0  0  0  0  0  0  0  0  0  0
  141.3420   71.9367  221.2957 H   0  0  0  0  0  0  0  0  0  0  0  0
  138.2386   73.6464  222.5580 H   0  0  0  0  0  0  0  0  0  0  0  0
  137.9109   76.0652  222.6907 H   0  0  0  0  0  0  0  0  0  0  0  0
  140.1163   78.4507  221.0848 H   0  0  0  0  0  0  0  0  0  0  0  0
  138.6428   78.2517  222.1279 H   0  0  0  0  0  0  0  0  0  0  0  0
  139.2366   80.2251  222.4779 H   0  0  0  0  0  0  0  0  0  0  0  0
  139.3592   80.0432  224.2479 H   0  0  0  0  0  0  0  0  0  0  0  0
  140.8694   81.8390  222.8305 H   0  0  0  0  0  0  0  0  0  0  0  0
  141.4631   81.1388  224.3111 H   0  0  0  0  0  0  0  0  0  0  0  0
  142.0280   80.1792  221.3825 H   0  0  0  0  0  0  0  0  0  0  0  0
  144.0800   79.8510  222.3550 H   0  0  0  0  0  0  0  0  0  0  0  0
  142.1905   77.9120  222.3093 H   0  0  0  0  0  0  0  0  0  0  0  0
  142.3129   78.4971  223.9745 H   0  0  0  0  0  0  0  0  0  0  0  0
  141.8704   76.6997  221.2295 H   0  0  0  0  0  0  0  0  0  0  0  0
  142.2070   74.2679  221.0923 H   0  0  0  0  0  0  0  0  0  0  0  0
  138.9335   69.1738  221.7300 H   0  0  0  0  0  0  0  0  0  0  0  0
  139.2709   67.7184  222.7335 H   0  0  0  0  0  0  0  0  0  0  0  0
  137.3094   67.6502  223.6162 H   0  0  0  0  0  0  0  0  0  0  0  0
  137.3393   70.1302  224.3793 H   0  0  0  0  0  0  0  0  0  0  0  0
  136.5036   70.5310  222.8622 H   0  0  0  0  0  0  0  0  0  0  0  0
  135.5919   68.5064  224.9718 H   0  0  0  0  0  0  0  0  0  0  0  0
  134.8724   70.1383  224.6481 H   0  0  0  0  0  0  0  0  0  0  0  0
  133.6186   68.1769  223.6837 H   0  0  0  0  0  0  0  0  0  0  0  0
  134.1209   69.4886  222.5174 H   0  0  0  0  0  0  0  0  0  0  0  0
  135.2668   66.7400  222.8770 H   0  0  0  0  0  0  0  0  0  0  0  0
  134.4777   67.5150  221.4209 H   0  0  0  0  0  0  0  0  0  0  0  0
  136.9832   67.2929  221.2322 H   0  0  0  0  0  0  0  0  0  0  0  0
  136.3795   68.9630  221.0741 H   0  0  0  0  0  0  0  0  0  0  0  0
  1  2  2  0
  2  3  1  0
  3  4  2  0
  4  5  1  0
  5  6  2  0
  6  7  1  0
  7  8  2  0
  8  9  1  0
  9 10  2  0
 10 11  1  0
 11 12  2  0
 12 13  1  0
 13 14  2  0
 14 15  1  0
 15 16  2  0
 16 17  1  0
 17 18  1  0
 18 19  1  0
 19 20  1  0
 20 21  1  0
 21 22  1  0
 21 23  1  0
 16 24  1  0
 24 25  2  0
 10 26  1  0
 26 27  1  0
 27 28  1  0
 28 29  1  0
 29 30  1  0
 30 31  1  0
 31 32  1  0
 32 33  1  0
 26  2  1  0
 33 28  1  0
  8  3  1  0
 25 13  1  0
 23 18  1  0
  4 34  1  0
  5 35  1  0
  6 36  1  0
  7 37  1  0
 11 38  1  0
 12 39  1  0
 14 40  1  0
 15 41  1  0
 17 42  1  0
 17 43  1  0
 19 44  1  0
 19 45  1  0
 20 46  1  0
 20 47  1  0
 21 48  1  6
 22 49  1  0
 23 50  1  0
 23 51  1  0
 24 52  1  0
 25 53  1  0
 27 54  1  0
 27 55  1  0
 28 56  1  0
 29 57  1  0
 29 58  1  0
 30 59  1  0
 30 60  1  0
 31 61  1  0
 31 62  1  0
 32 63  1  0
 32 64  1  0
 33 65  1  0
 33 66  1  0
M  END
>  <smiles>  (53) 
O=c1c2ccccc2nc(/C=C/c2ccc(CN3CCC(O)C3)cc2)n1CC1CCCCC1

>  <score_type>  (53) 
oracle

>  <origin>  (53) 
autodockgpu

>  <m_score__min__energy>  (53) 
-9.3900000000000006

>  <m_primary>  (53) 
energy

>  <rmsd>  (53) 
11.455039276787174

>  <m_score__min__rmsd>  (53) 
11.455039276787174

>  <meeko>  (53) 
{"free_energy": -9.37, "intermolecular_energy": -11.75, "internal_energy": -1.64, "cluster_size": 37, "cluster_id": 1, "rank_in_cluster": 2}

>  <energy>  (53) 
-9.37

>  <cluster_rmsd>  (53) 
0.21

>  <cluster>  (53) 
1

$$$$

     RDKit          3D

 66 70  0  0  0  0  0  0  0  0999 V2000
  139.1840   67.7920  225.3090 O   0  0  0  0  0  0  0  0  0  0  0  0
  139.5060   68.9850  225.0500 C   0  0  0  0  0  0  0  0  0  0  0  0
  140.0560   69.7130  226.0840 C   0  0  0  0  0  0  0  0  0  0  0  0
  140.2530   69.1780  227.3460 C   0  0  0  0  0  0  0  0  0  0  0  0
  140.8150   69.9630  228.3550 C   0  0  0  0  0  0  0  0  0  0  0  0
  141.1750   71.2890  228.0730 C   0  0  0  0  0  0  0  0  0  0  0  0
  140.9790   71.8210  226.8160 C   0  0  0  0  0  0  0  0  0  0  0  0
  140.4160   71.0170  225.8230 C   0  0  0  0  0  0  0  0  0  0  0  0
  140.2160   71.5090  224.5960 N   0  0  0  0  0  0  0  0  0  0  0  0
  139.6780   70.7860  223.6010 C   0  0  0  0  0  0  0  0  0  0  0  0
  139.4910   71.4380  222.2980 C   0  0  0  0  0  0  0  0  0  0  0  0
  140.4040   72.2640  221.8250 C   0  0  0  0  0  0  0  0  0  0  0  0
  140.3150   73.6990  221.8280 C   0  0  0  0  0  0  0  0  0  0  0  0
  141.4170   74.4840  221.4890 C   0  0  0  0  0  0  0  0  0  0  0  0
  141.3680   75.8580  221.4800 C   0  0  0  0  0  0  0  0  0  0  0  0
  140.2200   76.5350  221.8090 C   0  0  0  0  0  0  0  0  0  0  0  0
  140.1140   78.0110  221.8310 C   0  0  0  0  0  0  0  0  0  0  0  0
  140.4500   78.5550  223.1020 N   0  0  0  0  0  0  0  0  0  0  0  0
  139.8960   79.8980  223.1830 C   0  0  0  0  0  0  0  0  0  0  0  0
  141.0160   80.8330  223.5510 C   0  0  0  0  0  0  0  0  0  0  0  0
  142.2390   80.0790  223.0130 C   0  0  1  0  0  0  0  0  0  0  0  0
  143.4030   80.4930  223.6240 O   0  0  0  0  0  0  0  0  0  0  0  0
  141.8380   78.6570  223.3970 C   0  0  0  0  0  0  0  0  0  0  0  0
  139.1150   75.7890  222.1480 C   0  0  0  0  0  0  0  0  0  0  0  0
  139.1670   74.4030  222.1550 C   0  0  0  0  0  0  0  0  0  0  0  0
  139.3140   69.5080  223.8110 N   0  0  0  0  0  0  0  0  0  0  0  0
  138.7480   68.6910  222.7630 C   0  0  0  0  0  0  0  0  0  0  0  0
  137.2910   68.5060  222.9970 C   0  0  0  0  0  0  0  0  0  0  0  0
  136.6540   69.7130  223.6700 C   0  0  0  0  0  0  0  0  0  0  0  0
  135.3550   69.2420  224.2790 C   0  0  0  0  0  0  0  0  0  0  0  0
  134.4320   68.6530  223.2390 C   0  0  0  0  0  0  0  0  0  0  0  0
  135.0970   67.6580  222.3560 C   0  0  0  0  0  0  0  0  0  0  0  0
  136.4640   68.1190  221.8280 C   0  0  0  0  0  0  0  0  0  0  0  0
  139.9672   68.1362  227.5534 H   0  0  0  0  0  0  0  0  0  0  0  0
  140.9737   69.5458  229.3604 H   0  0  0  0  0  0  0  0  0  0  0  0
  141.6188   71.9117  228.8637 H   0  0  0  0  0  0  0  0  0  0  0  0
  141.2616   72.8617  226.5991 H   0  0  0  0  0  0  0  0  0  0  0  0
  138.5823   71.2357  221.7121 H   0  0  0  0  0  0  0  0  0  0  0  0
  141.3107   71.8170  221.3913 H   0  0  0  0  0  0  0  0  0  0  0  0
  142.3597   73.9856  221.2190 H   0  0  0  0  0  0  0  0  0  0  0  0
  142.2679   76.4269  221.2033 H   0  0  0  0  0  0  0  0  0  0  0  0
  140.7975   78.4265  221.0759 H   0  0  0  0  0  0  0  0  0  0  0  0
  139.0689   78.2778  221.6150 H   0  0  0  0  0  0  0  0  0  0  0  0
  139.4707   80.1872  222.2106 H   0  0  0  0  0  0  0  0  0  0  0  0
  139.0956   79.9400  223.9364 H   0  0  0  0  0  0  0  0  0  0  0  0
  140.8998   81.8107  223.0605 H   0  0  0  0  0  0  0  0  0  0  0  0
  141.0705   81.0641  224.6251 H   0  0  0  0  0  0  0  0  0  0  0  0
  142.4590   80.2217  221.9447 H   0  0  0  0  0  0  0  0  0  0  0  0
  143.2810   81.3100  224.1610 H   0  0  0  0  0  0  0  0  0  0  0  0
  142.4100   77.9250  222.8080 H   0  0  0  0  0  0  0  0  0  0  0  0
  142.0438   78.4497  224.4575 H   0  0  0  0  0  0  0  0  0  0  0  0
  138.1779   76.2984  222.4170 H   0  0  0  0  0  0  0  0  0  0  0  0
  138.2624   73.8411  222.4307 H   0  0  0  0  0  0  0  0  0  0  0  0
  138.9017   69.1849  221.7922 H   0  0  0  0  0  0  0  0  0  0  0  0
  139.2425   67.7084  222.7626 H   0  0  0  0  0  0  0  0  0  0  0  0
  137.2863   67.6328  223.6660 H   0  0  0  0  0  0  0  0  0  0  0  0
  137.3194   70.1037  224.4540 H   0  0  0  0  0  0  0  0  0  0  0  0
  136.4782   70.5207  222.9443 H   0  0  0  0  0  0  0  0  0  0  0  0
  135.5738   68.4752  225.0367 H   0  0  0  0  0  0  0  0  0  0  0  0
  134.8531   70.1104  224.7306 H   0  0  0  0  0  0  0  0  0  0  0  0
  133.5960   68.1580  223.7548 H   0  0  0  0  0  0  0  0  0  0  0  0
  134.0933   69.4808  222.5987 H   0  0  0  0  0  0  0  0  0  0  0  0
  135.2402   66.7283  222.9262 H   0  0  0  0  0  0  0  0  0  0  0  0
  134.4449   67.5170  221.4814 H   0  0  0  0  0  0  0  0  0  0  0  0
  136.9503   67.2984  221.2801 H   0  0  0  0  0  0  0  0  0  0  0  0
  136.3451   68.9700  221.1412 H   0  0  0  0  0  0  0  0  0  0  0  0
  1  2  2  0
  2  3  1  0
  3  4  2  0
  4  5  1  0
  5  6  2  0
  6  7  1  0
  7  8  2  0
  8  9  1  0
  9 10  2  0
 10 11  1  0
 11 12  2  0
 12 13  1  0
 13 14  2  0
 14 15  1  0
 15 16  2  0
 16 17  1  0
 17 18  1  0
 18 19  1  0
 19 20  1  0
 20 21  1  0
 21 22  1  0
 21 23  1  0
 16 24  1  0
 24 25  2  0
 10 26  1  0
 26 27  1  0
 27 28  1  0
 28 29  1  0
 29 30  1  0
 30 31  1  0
 31 32  1  0
 32 33  1  0
 26  2  1  0
 33 28  1  0
  8  3  1  0
 25 13  1  0
 23 18  1  0
  4 34  1  0
  5 35  1  0
  6 36  1  0
  7 37  1  0
 11 38  1  0
 12 39  1  0
 14 40  1  0
 15 41  1  0
 17 42  1  0
 17 43  1  0
 19 44  1  0
 19 45  1  0
 20 46  1  0
 20 47  1  0
 21 48  1  6
 22 49  1  0
 23 50  1  0
 23 51  1  0
 24 52  1  0
 25 53  1  0
 27 54  1  0
 27 55  1  0
 28 56  1  0
 29 57  1  0
 29 58  1  0
 30 59  1  0
 30 60  1  0
 31 61  1  0
 31 62  1  0
 32 63  1  0
 32 64  1  0
 33 65  1  0
 33 66  1  0
M  END
>  <smiles>  (54) 
O=c1c2ccccc2nc(/C=C/c2ccc(CN3CCC(O)C3)cc2)n1CC1CCCCC1

>  <score_type>  (54) 
oracle

>  <origin>  (54) 
autodockgpu

>  <m_score__min__energy>  (54) 
-9.3900000000000006

>  <m_primary>  (54) 
energy

>  <rmsd>  (54) 
11.545542332355902

>  <m_score__min__rmsd>  (54) 
11.545542332355902

>  <meeko>  (54) 
{"free_energy": -8.89, "intermolecular_energy": -11.27, "internal_energy": -1.66, "cluster_size": 37, "cluster_id": 1, "rank_in_cluster": 17}

>  <energy>  (54) 
-9.27

>  <cluster_rmsd>  (54) 
0.47

>  <cluster>  (54) 
1

$$$$

     RDKit          3D

 66 70  0  0  0  0  0  0  0  0999 V2000
  139.1950   67.6890  225.0700 O   0  0  0  0  0  0  0  0  0  0  0  0
  139.4280   68.9290  225.0180 C   0  0  0  0  0  0  0  0  0  0  0  0
  140.0140   69.4940  226.1310 C   0  0  0  0  0  0  0  0  0  0  0  0
  140.3370   68.7540  227.2560 C   0  0  0  0  0  0  0  0  0  0  0  0
  140.9290   69.3800  228.3550 C   0  0  0  0  0  0  0  0  0  0  0  0
  141.1910   70.7570  228.3010 C   0  0  0  0  0  0  0  0  0  0  0  0
  140.8700   71.4930  227.1810 C   0  0  0  0  0  0  0  0  0  0  0  0
  140.2780   70.8460  226.0950 C   0  0  0  0  0  0  0  0  0  0  0  0
  139.9580   71.5370  224.9960 N   0  0  0  0  0  0  0  0  0  0  0  0
  139.3870   70.9710  223.9200 C   0  0  0  0  0  0  0  0  0  0  0  0
  139.0640   71.8340  222.7760 C   0  0  0  0  0  0  0  0  0  0  0  0
  140.0240   72.3250  222.0160 C   0  0  0  0  0  0  0  0  0  0  0  0
  140.2490   73.7200  221.7500 C   0  0  0  0  0  0  0  0  0  0  0  0
  139.3240   74.6830  222.1520 C   0  0  0  0  0  0  0  0  0  0  0  0
  139.5070   76.0250  221.9140 C   0  0  0  0  0  0  0  0  0  0  0  0
  140.6200   76.4900  221.2610 C   0  0  0  0  0  0  0  0  0  0  0  0
  140.8630   77.9200  220.9650 C   0  0  0  0  0  0  0  0  0  0  0  0
  141.8730   78.4770  221.7980 N   0  0  0  0  0  0  0  0  0  0  0  0
  141.4560   78.3250  223.1830 C   0  0  0  0  0  0  0  0  0  0  0  0
  141.5130   79.6820  223.8300 C   0  0  0  0  0  0  0  0  0  0  0  0
  141.3210   80.6090  222.6230 C   0  0  1  0  0  0  0  0  0  0  0  0
  141.7900   81.8810  222.8750 O   0  0  0  0  0  0  0  0  0  0  0  0
  142.1660   79.8560  221.5980 C   0  0  0  0  0  0  0  0  0  0  0  0
  141.5520   75.5640  220.8510 C   0  0  0  0  0  0  0  0  0  0  0  0
  141.3650   74.2120  221.0920 C   0  0  0  0  0  0  0  0  0  0  0  0
  139.1130   69.6540  223.9120 N   0  0  0  0  0  0  0  0  0  0  0  0
  138.5150   69.0040  222.7700 C   0  0  0  0  0  0  0  0  0  0  0  0
  137.0320   69.0620  222.8720 C   0  0  0  0  0  0  0  0  0  0  0  0
  136.3630   67.8220  222.2990 C   0  0  0  0  0  0  0  0  0  0  0  0
  134.9270   68.1890  222.0140 C   0  0  0  0  0  0  0  0  0  0  0  0
  134.2150   68.6610  223.2600 C   0  0  0  0  0  0  0  0  0  0  0  0
  134.9750   69.6860  224.0220 C   0  0  0  0  0  0  0  0  0  0  0  0
  136.4590   69.3370  224.2120 C   0  0  0  0  0  0  0  0  0  0  0  0
  140.1275   67.6745  227.2839 H   0  0  0  0  0  0  0  0  0  0  0  0
  141.1870   68.7997  229.2531 H   0  0  0  0  0  0  0  0  0  0  0  0
  141.6583   71.2554  229.1631 H   0  0  0  0  0  0  0  0  0  0  0  0
  141.0769   72.5727  227.1434 H   0  0  0  0  0  0  0  0  0  0  0  0
  138.0139   72.0726  222.5514 H   0  0  0  0  0  0  0  0  0  0  0  0
  140.7109   71.6059  221.5457 H   0  0  0  0  0  0  0  0  0  0  0  0
  138.4149   74.3573  222.6786 H   0  0  0  0  0  0  0  0  0  0  0  0
  138.7445   76.7409  222.2546 H   0  0  0  0  0  0  0  0  0  0  0  0
  141.1769   78.0161  219.9151 H   0  0  0  0  0  0  0  0  0  0  0  0
  139.9283   78.4679  221.1551 H   0  0  0  0  0  0  0  0  0  0  0  0
  140.4289   77.9333  223.2241 H   0  0  0  0  0  0  0  0  0  0  0  0
  142.1164   77.6197  223.7088 H   0  0  0  0  0  0  0  0  0  0  0  0
  140.7058   79.8096  224.5663 H   0  0  0  0  0  0  0  0  0  0  0  0
  142.4381   79.8694  224.3948 H   0  0  0  0  0  0  0  0  0  0  0  0
  140.2794   80.7879  222.3179 H   0  0  0  0  0  0  0  0  0  0  0  0
  141.9410   82.0460  223.8350 H   0  0  0  0  0  0  0  0  0  0  0  0
  141.8940   80.1621  220.5771 H   0  0  0  0  0  0  0  0  0  0  0  0
  143.2386   80.0660  221.7221 H   0  0  0  0  0  0  0  0  0  0  0  0
  142.4573   75.9014  220.3251 H   0  0  0  0  0  0  0  0  0  0  0  0
  142.1318   73.5023  220.7478 H   0  0  0  0  0  0  0  0  0  0  0  0
  138.8373   69.5139  221.8502 H   0  0  0  0  0  0  0  0  0  0  0  0
  138.8348   67.9518  222.7442 H   0  0  0  0  0  0  0  0  0  0  0  0
  136.8054   69.9500  222.2636 H   0  0  0  0  0  0  0  0  0  0  0  0
  136.8665   67.5159  221.3701 H   0  0  0  0  0  0  0  0  0  0  0  0
  136.4211   66.9815  223.0063 H   0  0  0  0  0  0  0  0  0  0  0  0
  134.9064   68.9940  221.2647 H   0  0  0  0  0  0  0  0  0  0  0  0
  134.4104   67.2920  221.6419 H   0  0  0  0  0  0  0  0  0  0  0  0
  133.2466   69.0921  222.9660 H   0  0  0  0  0  0  0  0  0  0  0  0
  134.0987   67.7873  223.9181 H   0  0  0  0  0  0  0  0  0  0  0  0
  134.9091   70.6413  223.4807 H   0  0  0  0  0  0  0  0  0  0  0  0
  134.5259   69.7410  225.0246 H   0  0  0  0  0  0  0  0  0  0  0  0
  136.9860   70.1823  224.6787 H   0  0  0  0  0  0  0  0  0  0  0  0
  136.5679   68.4589  224.8655 H   0  0  0  0  0  0  0  0  0  0  0  0
  1  2  2  0
  2  3  1  0
  3  4  2  0
  4  5  1  0
  5  6  2  0
  6  7  1  0
  7  8  2  0
  8  9  1  0
  9 10  2  0
 10 11  1  0
 11 12  2  0
 12 13  1  0
 13 14  2  0
 14 15  1  0
 15 16  2  0
 16 17  1  0
 17 18  1  0
 18 19  1  0
 19 20  1  0
 20 21  1  0
 21 22  1  0
 21 23  1  0
 16 24  1  0
 24 25  2  0
 10 26  1  0
 26 27  1  0
 27 28  1  0
 28 29  1  0
 29 30  1  0
 30 31  1  0
 31 32  1  0
 32 33  1  0
 26  2  1  0
 33 28  1  0
  8  3  1  0
 25 13  1  0
 23 18  1  0
  4 34  1  0
  5 35  1  0
  6 36  1  0
  7 37  1  0
 11 38  1  0
 12 39  1  0
 14 40  1  0
 15 41  1  0
 17 42  1  0
 17 43  1  0
 19 44  1  0
 19 45  1  0
 20 46  1  0
 20 47  1  0
 21 48  1  6
 22 49  1  0
 23 50  1  0
 23 51  1  0
 24 52  1  0
 25 53  1  0
 27 54  1  0
 27 55  1  0
 28 56  1  0
 29 57  1  0
 29 58  1  0
 30 59  1  0
 30 60  1  0
 31 61  1  0
 31 62  1  0
 32 63  1  0
 32 64  1  0
 33 65  1  0
 33 66  1  0
M  END
>  <smiles>  (55) 
O=c1c2ccccc2nc(/C=C/c2ccc(CN3CCC(O)C3)cc2)n1CC1CCCCC1

>  <score_type>  (55) 
oracle

>  <origin>  (55) 
autodockgpu

>  <m_score__min__energy>  (55) 
-9.3900000000000006

>  <m_primary>  (55) 
energy

>  <rmsd>  (55) 
11.77702314571167

>  <m_score__min__rmsd>  (55) 
11.77702314571167

>  <meeko>  (55) 
{"free_energy": -8.54, "intermolecular_energy": -10.93, "internal_energy": -1.56, "cluster_size": 37, "cluster_id": 1, "rank_in_cluster": 35}

>  <energy>  (55) 
-9.25

>  <cluster_rmsd>  (55) 
0.55

>  <cluster>  (55) 
1

$$$$

     RDKit          3D

 66 70  0  0  0  0  0  0  0  0999 V2000
  142.5650   77.4480  219.6160 O   0  0  0  0  0  0  0  0  0  0  0  0
  141.9740   76.5410  220.2680 C   0  0  0  0  0  0  0  0  0  0  0  0
  142.5860   75.3060  220.2970 C   0  0  0  0  0  0  0  0  0  0  0  0
  143.7860   75.0550  219.6520 C   0  0  0  0  0  0  0  0  0  0  0  0
  144.3580   73.7840  219.7170 C   0  0  0  0  0  0  0  0  0  0  0  0
  143.7070   72.7730  220.4390 C   0  0  0  0  0  0  0  0  0  0  0  0
  142.5130   73.0230  221.0820 C   0  0  0  0  0  0  0  0  0  0  0  0
  141.9590   74.3020  221.0040 C   0  0  0  0  0  0  0  0  0  0  0  0
  140.8020   74.5700  221.6180 N   0  0  0  0  0  0  0  0  0  0  0  0
  140.2210   75.7800  221.5790 C   0  0  0  0  0  0  0  0  0  0  0  0
  138.9410   75.9530  222.2780 C   0  0  0  0  0  0  0  0  0  0  0  0
  137.8780   75.2630  221.9110 C   0  0  0  0  0  0  0  0  0  0  0  0
  136.7000   75.0530  222.7080 C   0  0  0  0  0  0  0  0  0  0  0  0
  136.0840   76.1170  223.3680 C   0  0  0  0  0  0  0  0  0  0  0  0
  134.9570   75.9520  224.1370 C   0  0  0  0  0  0  0  0  0  0  0  0
  134.3740   74.7210  224.2980 C   0  0  0  0  0  0  0  0  0  0  0  0
  133.1690   74.4820  225.1250 C   0  0  0  0  0  0  0  0  0  0  0  0
  133.4090   74.7280  226.5060 N   0  0  0  0  0  0  0  0  0  0  0  0
  132.1540   74.5630  227.2230 C   0  0  0  0  0  0  0  0  0  0  0  0
  131.9150   75.8160  228.0200 C   0  0  0  0  0  0  0  0  0  0  0  0
  132.6940   76.8570  227.2050 C   0  0  1  0  0  0  0  0  0  0  0  0
  133.0110   77.9650  227.9620 O   0  0  0  0  0  0  0  0  0  0  0  0
  133.9150   76.0160  226.8390 C   0  0  0  0  0  0  0  0  0  0  0  0
  134.9580   73.6510  223.6590 C   0  0  0  0  0  0  0  0  0  0  0  0
  136.0940   73.8200  222.8840 C   0  0  0  0  0  0  0  0  0  0  0  0
  140.7980   76.7890  220.9020 N   0  0  0  0  0  0  0  0  0  0  0  0
  140.2140   78.1080  220.8480 C   0  0  0  0  0  0  0  0  0  0  0  0
  140.8700   78.9930  221.8480 C   0  0  0  0  0  0  0  0  0  0  0  0
  141.4470   78.2150  223.0210 C   0  0  0  0  0  0  0  0  0  0  0  0
  141.6330   79.1980  224.1520 C   0  0  0  0  0  0  0  0  0  0  0  0
  142.5450   80.3360  223.7570 C   0  0  0  0  0  0  0  0  0  0  0  0
  142.1860   80.9540  222.4540 C   0  0  0  0  0  0  0  0  0  0  0  0
  141.9030   79.9310  221.3430 C   0  0  0  0  0  0  0  0  0  0  0  0
  144.2872   75.8565  219.0894 H   0  0  0  0  0  0  0  0  0  0  0  0
  145.3103   73.5769  219.2069 H   0  0  0  0  0  0  0  0  0  0  0  0
  144.1539   71.7693  220.4929 H   0  0  0  0  0  0  0  0  0  0  0  0
  142.0053   72.2275  221.6472 H   0  0  0  0  0  0  0  0  0  0  0  0
  138.8679   76.6637  223.1144 H   0  0  0  0  0  0  0  0  0  0  0  0
  137.8945   74.8094  220.9090 H   0  0  0  0  0  0  0  0  0  0  0  0
  136.5159   77.1238  223.2692 H   0  0  0  0  0  0  0  0  0  0  0  0
  134.5126   76.8267  224.6344 H   0  0  0  0  0  0  0  0  0  0  0  0
  132.3647   75.1488  224.7807 H   0  0  0  0  0  0  0  0  0  0  0  0
  132.8866   73.4247  225.0138 H   0  0  0  0  0  0  0  0  0  0  0  0
  131.3315   74.4107  226.5086 H   0  0  0  0  0  0  0  0  0  0  0  0
  132.2016   73.6872  227.8868 H   0  0  0  0  0  0  0  0  0  0  0  0
  130.8441   76.0631  228.0669 H   0  0  0  0  0  0  0  0  0  0  0  0
  132.2318   75.7438  229.0709 H   0  0  0  0  0  0  0  0  0  0  0  0
  132.1610   77.2917  226.3465 H   0  0  0  0  0  0  0  0  0  0  0  0
  133.9580   77.9810  228.2340 H   0  0  0  0  0  0  0  0  0  0  0  0
  134.4400   76.4562  225.9784 H   0  0  0  0  0  0  0  0  0  0  0  0
  134.6375   75.9670  227.6670 H   0  0  0  0  0  0  0  0  0  0  0  0
  134.5172   72.6488  223.7649 H   0  0  0  0  0  0  0  0  0  0  0  0
  136.5318   72.9405  222.3891 H   0  0  0  0  0  0  0  0  0  0  0  0
  140.3544   78.5282  219.8412 H   0  0  0  0  0  0  0  0  0  0  0  0
  139.1400   78.0383  221.0751 H   0  0  0  0  0  0  0  0  0  0  0  0
  140.0271   79.6228  222.1686 H   0  0  0  0  0  0  0  0  0  0  0  0
  140.7527   77.4173  223.3237 H   0  0  0  0  0  0  0  0  0  0  0  0
  142.4029   77.7439  222.7483 H   0  0  0  0  0  0  0  0  0  0  0  0
  140.6518   79.6082  224.4331 H   0  0  0  0  0  0  0  0  0  0  0  0
  142.0938   78.6660  224.9973 H   0  0  0  0  0  0  0  0  0  0  0  0
  142.4939   81.1106  224.5363 H   0  0  0  0  0  0  0  0  0  0  0  0
  143.5576   79.9194  223.6512 H   0  0  0  0  0  0  0  0  0  0  0  0
  141.2854   81.5690  222.5976 H   0  0  0  0  0  0  0  0  0  0  0  0
  143.0528   81.5489  222.1304 H   0  0  0  0  0  0  0  0  0  0  0  0
  141.5341   80.4463  220.4439 H   0  0  0  0  0  0  0  0  0  0  0  0
  142.8211   79.3869  221.0764 H   0  0  0  0  0  0  0  0  0  0  0  0
  1  2  2  0
  2  3  1  0
  3  4  2  0
  4  5  1  0
  5  6  2  0
  6  7  1  0
  7  8  2  0
  8  9  1  0
  9 10  2  0
 10 11  1  0
 11 12  2  0
 12 13  1  0
 13 14  2  0
 14 15  1  0
 15 16  2  0
 16 17  1  0
 17 18  1  0
 18 19  1  0
 19 20  1  0
 20 21  1  0
 21 22  1  0
 21 23  1  0
 16 24  1  0
 24 25  2  0
 10 26  1  0
 26 27  1  0
 27 28  1  0
 28 29  1  0
 29 30  1  0
 30 31  1  0
 31 32  1  0
 32 33  1  0
 26  2  1  0
 33 28  1  0
  8  3  1  0
 25 13  1  0
 23 18  1  0
  4 34  1  0
  5 35  1  0
  6 36  1  0
  7 37  1  0
 11 38  1  0
 12 39  1  0
 14 40  1  0
 15 41  1  0
 17 42  1  0
 17 43  1  0
 19 44  1  0
 19 45  1  0
 20 46  1  0
 20 47  1  0
 21 48  1  6
 22 49  1  0
 23 50  1  0
 23 51  1  0
 24 52  1  0
 25 53  1  0
 27 54  1  0
 27 55  1  0
 28 56  1  0
 29 57  1  0
 29 58  1  0
 30 59  1  0
 30 60  1  0
 31 61  1  0
 31 62  1  0
 32 63  1  0
 32 64  1  0
 33 65  1  0
 33 66  1  0
M  END
>  <smiles>  (56) 
O=c1c2ccccc2nc(/C=C/c2ccc(CN3CCC(O)C3)cc2)n1CC1CCCCC1

>  <score_type>  (56) 
oracle

>  <origin>  (56) 
autodockgpu

>  <m_score__min__energy>  (56) 
-9.3900000000000006

>  <m_primary>  (56) 
energy

>  <rmsd>  (56) 
7.400912885592659

>  <m_score__min__rmsd>  (56) 
7.400912885592659

>  <meeko>  (56) 
{"free_energy": -8.42, "intermolecular_energy": -10.81, "internal_energy": -1.33, "cluster_size": 2, "cluster_id": 3, "rank_in_cluster": 2}

>  <energy>  (56) 
-9.24

>  <cluster_rmsd>  (56) 
0.47

>  <cluster>  (56) 
1

$$$$

     RDKit          3D

 66 70  0  0  0  0  0  0  0  0999 V2000
  138.8800   68.0130  225.3760 O   0  0  0  0  0  0  0  0  0  0  0  0
  139.3280   69.1480  225.0510 C   0  0  0  0  0  0  0  0  0  0  0  0
  139.9420   69.8770  226.0480 C   0  0  0  0  0  0  0  0  0  0  0  0
  140.0690   69.4030  227.3430 C   0  0  0  0  0  0  0  0  0  0  0  0
  140.7010   70.1860  228.3110 C   0  0  0  0  0  0  0  0  0  0  0  0
  141.2010   71.4470  227.9550 C   0  0  0  0  0  0  0  0  0  0  0  0
  141.0750   71.9180  226.6650 C   0  0  0  0  0  0  0  0  0  0  0  0
  140.4400   71.1180  225.7140 C   0  0  0  0  0  0  0  0  0  0  0  0
  140.3050   71.5520  224.4570 N   0  0  0  0  0  0  0  0  0  0  0  0
  139.7030   70.8280  223.4980 C   0  0  0  0  0  0  0  0  0  0  0  0
  139.5980   71.4150  222.1550 C   0  0  0  0  0  0  0  0  0  0  0  0
  140.4470   72.3450  221.7620 C   0  0  0  0  0  0  0  0  0  0  0  0
  140.2420   73.7640  221.8690 C   0  0  0  0  0  0  0  0  0  0  0  0
  141.2720   74.6590  221.5770 C   0  0  0  0  0  0  0  0  0  0  0  0
  141.1110   76.0210  221.6680 C   0  0  0  0  0  0  0  0  0  0  0  0
  139.9180   76.5760  222.0560 C   0  0  0  0  0  0  0  0  0  0  0  0
  139.6920   78.0340  222.1850 C   0  0  0  0  0  0  0  0  0  0  0  0
  140.4040   78.5920  223.2830 N   0  0  0  0  0  0  0  0  0  0  0  0
  140.0090   79.9850  223.4210 C   0  0  0  0  0  0  0  0  0  0  0  0
  141.2610   80.8190  223.4160 C   0  0  0  0  0  0  0  0  0  0  0  0
  142.2250   79.9270  222.6220 C   0  0  1  0  0  0  0  0  0  0  0  0
  143.5420   80.2480  222.8730 O   0  0  0  0  0  0  0  0  0  0  0  0
  141.8240   78.5680  223.1910 C   0  0  0  0  0  0  0  0  0  0  0  0
  138.8820   75.7200  222.3510 C   0  0  0  0  0  0  0  0  0  0  0  0
  139.0470   74.3460  222.2580 C   0  0  0  0  0  0  0  0  0  0  0  0
  139.2040   69.6110  223.7790 N   0  0  0  0  0  0  0  0  0  0  0  0
  138.5660   68.7950  222.7730 C   0  0  0  0  0  0  0  0  0  0  0  0
  137.1200   68.6410  223.0890 C   0  0  0  0  0  0  0  0  0  0  0  0
  136.5280   69.8940  223.7170 C   0  0  0  0  0  0  0  0  0  0  0  0
  135.2570   69.4760  224.4170 C   0  0  0  0  0  0  0  0  0  0  0  0
  134.2790   68.8350  223.4610 C   0  0  0  0  0  0  0  0  0  0  0  0
  134.8900   67.7810  222.6100 C   0  0  0  0  0  0  0  0  0  0  0  0
  136.2330   68.1930  221.9880 C   0  0  0  0  0  0  0  0  0  0  0  0
  139.6728   68.4118  227.6085 H   0  0  0  0  0  0  0  0  0  0  0  0
  140.8057   69.8176  229.3422 H   0  0  0  0  0  0  0  0  0  0  0  0
  141.6997   72.0678  228.7139 H   0  0  0  0  0  0  0  0  0  0  0  0
  141.4685   72.9078  226.3902 H   0  0  0  0  0  0  0  0  0  0  0  0
  138.8051   71.0762  221.4719 H   0  0  0  0  0  0  0  0  0  0  0  0
  141.3927   72.0058  221.3141 H   0  0  0  0  0  0  0  0  0  0  0  0
  142.2478   74.2602  221.2627 H   0  0  0  0  0  0  0  0  0  0  0  0
  141.9572   76.6803  221.4244 H   0  0  0  0  0  0  0  0  0  0  0  0
  140.0241   78.5274  221.2596 H   0  0  0  0  0  0  0  0  0  0  0  0
  138.6183   78.1955  222.3610 H   0  0  0  0  0  0  0  0  0  0  0  0
  139.3620   80.2758  222.5803 H   0  0  0  0  0  0  0  0  0  0  0  0
  139.4499   80.1357  224.3563 H   0  0  0  0  0  0  0  0  0  0  0  0
  141.0988   81.7829  222.9115 H   0  0  0  0  0  0  0  0  0  0  0  0
  141.6237   81.0865  224.4194 H   0  0  0  0  0  0  0  0  0  0  0  0
  142.1590   80.0046  221.5267 H   0  0  0  0  0  0  0  0  0  0  0  0
  144.1720   79.7180  222.3320 H   0  0  0  0  0  0  0  0  0  0  0  0
  142.1511   77.7599  222.5202 H   0  0  0  0  0  0  0  0  0  0  0  0
  142.2909   78.3843  224.1699 H   0  0  0  0  0  0  0  0  0  0  0  0
  137.9108   76.1304  222.6645 H   0  0  0  0  0  0  0  0  0  0  0  0
  138.1959   73.6934  222.5026 H   0  0  0  0  0  0  0  0  0  0  0  0
  138.6754   69.2760  221.7898 H   0  0  0  0  0  0  0  0  0  0  0  0
  139.0410   67.8030  222.7562 H   0  0  0  0  0  0  0  0  0  0  0  0
  137.1405   67.8101  223.8095 H   0  0  0  0  0  0  0  0  0  0  0  0
  137.2350   70.3240  224.4417 H   0  0  0  0  0  0  0  0  0  0  0  0
  136.3232   70.6581  222.9527 H   0  0  0  0  0  0  0  0  0  0  0  0
  135.5067   68.7545  225.2089 H   0  0  0  0  0  0  0  0  0  0  0  0
  134.7854   70.3758  224.8388 H   0  0  0  0  0  0  0  0  0  0  0  0
  133.4652   68.3822  224.0463 H   0  0  0  0  0  0  0  0  0  0  0  0
  133.9169   69.6262  222.7880 H   0  0  0  0  0  0  0  0  0  0  0  0
  135.0534   66.8862  223.2286 H   0  0  0  0  0  0  0  0  0  0  0  0
  134.1939   67.5943  221.7790 H   0  0  0  0  0  0  0  0  0  0  0  0
  136.6845   67.3349  221.4685 H   0  0  0  0  0  0  0  0  0  0  0  0
  136.0875   69.0016  221.2566 H   0  0  0  0  0  0  0  0  0  0  0  0
  1  2  2  0
  2  3  1  0
  3  4  2  0
  4  5  1  0
  5  6  2  0
  6  7  1  0
  7  8  2  0
  8  9  1  0
  9 10  2  0
 10 11  1  0
 11 12  2  0
 12 13  1  0
 13 14  2  0
 14 15  1  0
 15 16  2  0
 16 17  1  0
 17 18  1  0
 18 19  1  0
 19 20  1  0
 20 21  1  0
 21 22  1  0
 21 23  1  0
 16 24  1  0
 24 25  2  0
 10 26  1  0
 26 27  1  0
 27 28  1  0
 28 29  1  0
 29 30  1  0
 30 31  1  0
 31 32  1  0
 32 33  1  0
 26  2  1  0
 33 28  1  0
  8  3  1  0
 25 13  1  0
 23 18  1  0
  4 34  1  0
  5 35  1  0
  6 36  1  0
  7 37  1  0
 11 38  1  0
 12 39  1  0
 14 40  1  0
 15 41  1  0
 17 42  1  0
 17 43  1  0
 19 44  1  0
 19 45  1  0
 20 46  1  0
 20 47  1  0
 21 48  1  6
 22 49  1  0
 23 50  1  0
 23 51  1  0
 24 52  1  0
 25 53  1  0
 27 54  1  0
 27 55  1  0
 28 56  1  0
 29 57  1  0
 29 58  1  0
 30 59  1  0
 30 60  1  0
 31 61  1  0
 31 62  1  0
 32 63  1  0
 32 64  1  0
 33 65  1  0
 33 66  1  0
M  END
>  <smiles>  (57) 
O=c1c2ccccc2nc(/C=C/c2ccc(CN3CCC(O)C3)cc2)n1CC1CCCCC1

>  <score_type>  (57) 
oracle

>  <origin>  (57) 
autodockgpu

>  <m_score__min__energy>  (57) 
-9.3900000000000006

>  <m_primary>  (57) 
energy

>  <rmsd>  (57) 
11.453807434840305

>  <m_score__min__rmsd>  (57) 
11.453807434840305

>  <meeko>  (57) 
{"free_energy": -9.39, "intermolecular_energy": -11.78, "internal_energy": -1.61, "cluster_size": 37, "cluster_id": 1, "rank_in_cluster": 1}

>  <energy>  (57) 
-9.21

>  <cluster_rmsd>  (57) 
0.49

>  <cluster>  (57) 
1

$$$$

     RDKit          3D

 66 70  0  0  0  0  0  0  0  0999 V2000
  139.1860   67.7330  225.3580 O   0  0  0  0  0  0  0  0  0  0  0  0
  139.4210   68.9530  225.1350 C   0  0  0  0  0  0  0  0  0  0  0  0
  140.0360   69.6580  226.1470 C   0  0  0  0  0  0  0  0  0  0  0  0
  140.3860   69.0730  227.3530 C   0  0  0  0  0  0  0  0  0  0  0  0
  141.0070   69.8360  228.3430 C   0  0  0  0  0  0  0  0  0  0  0  0
  141.2710   71.1920  228.0990 C   0  0  0  0  0  0  0  0  0  0  0  0
  140.9240   71.7750  226.8990 C   0  0  0  0  0  0  0  0  0  0  0  0
  140.3030   70.9910  225.9240 C   0  0  0  0  0  0  0  0  0  0  0  0
  139.9560   71.5320  224.7510 N   0  0  0  0  0  0  0  0  0  0  0  0
  139.3570   70.8300  223.7750 C   0  0  0  0  0  0  0  0  0  0  0  0
  139.0070   71.5340  222.5350 C   0  0  0  0  0  0  0  0  0  0  0  0
  139.9240   72.2020  221.8620 C   0  0  0  0  0  0  0  0  0  0  0  0
  140.0500   73.6340  221.8130 C   0  0  0  0  0  0  0  0  0  0  0  0
  141.2800   74.2350  221.5480 C   0  0  0  0  0  0  0  0  0  0  0  0
  141.4360   75.6000  221.4920 C   0  0  0  0  0  0  0  0  0  0  0  0
  140.3790   76.4490  221.6980 C   0  0  0  0  0  0  0  0  0  0  0  0
  140.4910   77.9250  221.6650 C   0  0  0  0  0  0  0  0  0  0  0  0
  140.5870   78.4860  222.9690 N   0  0  0  0  0  0  0  0  0  0  0  0
  139.9630   79.8000  222.9470 C   0  0  0  0  0  0  0  0  0  0  0  0
  140.9610   80.7890  223.4850 C   0  0  0  0  0  0  0  0  0  0  0  0
  142.2910   80.0960  223.1610 C   0  0  1  0  0  0  0  0  0  0  0  0
  143.3180   80.5680  223.9500 O   0  0  0  0  0  0  0  0  0  0  0  0
  141.9020   78.6570  223.4860 C   0  0  0  0  0  0  0  0  0  0  0  0
  139.1510   75.8870  221.9620 C   0  0  0  0  0  0  0  0  0  0  0  0
  138.9960   74.5100  222.0170 C   0  0  0  0  0  0  0  0  0  0  0  0
  139.0790   69.5250  223.9500 N   0  0  0  0  0  0  0  0  0  0  0  0
  138.4510   68.7320  222.9200 C   0  0  0  0  0  0  0  0  0  0  0  0
  137.0100   68.5390  223.2370 C   0  0  0  0  0  0  0  0  0  0  0  0
  136.4300   69.7030  224.0270 C   0  0  0  0  0  0  0  0  0  0  0  0
  135.1700   69.2000  224.6900 C   0  0  0  0  0  0  0  0  0  0  0  0
  134.1750   68.6850  223.6760 C   0  0  0  0  0  0  0  0  0  0  0  0
  134.7710   67.7470  222.6890 C   0  0  0  0  0  0  0  0  0  0  0  0
  136.1050   68.2340  222.1030 C   0  0  0  0  0  0  0  0  0  0  0  0
  140.1747   68.0081  227.5302 H   0  0  0  0  0  0  0  0  0  0  0  0
  141.2863   69.3792  229.3039 H   0  0  0  0  0  0  0  0  0  0  0  0
  141.7612   71.7979  228.8753 H   0  0  0  0  0  0  0  0  0  0  0  0
  141.1325   72.8389  226.7126 H   0  0  0  0  0  0  0  0  0  0  0  0
  137.9718   71.5041  222.1642 H   0  0  0  0  0  0  0  0  0  0  0  0
  140.6553   71.6132  221.2889 H   0  0  0  0  0  0  0  0  0  0  0  0
  142.1574   73.5938  221.3776 H   0  0  0  0  0  0  0  0  0  0  0  0
  142.4298   76.0199  221.2774 H   0  0  0  0  0  0  0  0  0  0  0  0
  141.3904   78.1993  221.0942 H   0  0  0  0  0  0  0  0  0  0  0  0
  139.5805   78.3223  221.1927 H   0  0  0  0  0  0  0  0  0  0  0  0
  139.6890   80.0675  221.9158 H   0  0  0  0  0  0  0  0  0  0  0  0
  139.0491   79.8029  223.5592 H   0  0  0  0  0  0  0  0  0  0  0  0
  140.8795   81.7595  222.9736 H   0  0  0  0  0  0  0  0  0  0  0  0
  140.8275   81.0230  224.5515 H   0  0  0  0  0  0  0  0  0  0  0  0
  142.6762   80.2485  222.1420 H   0  0  0  0  0  0  0  0  0  0  0  0
  143.0210   81.2550  224.5900 H   0  0  0  0  0  0  0  0  0  0  0  0
  142.5976   77.9539  223.0046 H   0  0  0  0  0  0  0  0  0  0  0  0
  141.9410   78.4609  224.5677 H   0  0  0  0  0  0  0  0  0  0  0  0
  138.2810   76.5384  222.1316 H   0  0  0  0  0  0  0  0  0  0  0  0
  137.9988   74.0977  222.2306 H   0  0  0  0  0  0  0  0  0  0  0  0
  138.5458   69.2485  221.9534 H   0  0  0  0  0  0  0  0  0  0  0  0
  138.9447   67.7504  222.8672 H   0  0  0  0  0  0  0  0  0  0  0  0
  137.0408   67.6238  223.8464 H   0  0  0  0  0  0  0  0  0  0  0  0
  137.1494   70.0391  224.7882 H   0  0  0  0  0  0  0  0  0  0  0  0
  136.2137   70.5567  223.3679 H   0  0  0  0  0  0  0  0  0  0  0  0
  135.4311   68.3841  225.3801 H   0  0  0  0  0  0  0  0  0  0  0  0
  134.7073   70.0389  225.2305 H   0  0  0  0  0  0  0  0  0  0  0  0
  133.3696   68.1618  224.2122 H   0  0  0  0  0  0  0  0  0  0  0  0
  133.8034   69.5548  223.1145 H   0  0  0  0  0  0  0  0  0  0  0  0
  134.9422   66.7812  223.1870 H   0  0  0  0  0  0  0  0  0  0  0  0
  134.0618   67.6672  221.8519 H   0  0  0  0  0  0  0  0  0  0  0  0
  136.5463   67.4483  221.4721 H   0  0  0  0  0  0  0  0  0  0  0  0
  135.9497   69.1287  221.4822 H   0  0  0  0  0  0  0  0  0  0  0  0
  1  2  2  0
  2  3  1  0
  3  4  2  0
  4  5  1  0
  5  6  2  0
  6  7  1  0
  7  8  2  0
  8  9  1  0
  9 10  2  0
 10 11  1  0
 11 12  2  0
 12 13  1  0
 13 14  2  0
 14 15  1  0
 15 16  2  0
 16 17  1  0
 17 18  1  0
 18 19  1  0
 19 20  1  0
 20 21  1  0
 21 22  1  0
 21 23  1  0
 16 24  1  0
 24 25  2  0
 10 26  1  0
 26 27  1  0
 27 28  1  0
 28 29  1  0
 29 30  1  0
 30 31  1  0
 31 32  1  0
 32 33  1  0
 26  2  1  0
 33 28  1  0
  8  3  1  0
 25 13  1  0
 23 18  1  0
  4 34  1  0
  5 35  1  0
  6 36  1  0
  7 37  1  0
 11 38  1  0
 12 39  1  0
 14 40  1  0
 15 41  1  0
 17 42  1  0
 17 43  1  0
 19 44  1  0
 19 45  1  0
 20 46  1  0
 20 47  1  0
 21 48  1  6
 22 49  1  0
 23 50  1  0
 23 51  1  0
 24 52  1  0
 25 53  1  0
 27 54  1  0
 27 55  1  0
 28 56  1  0
 29 57  1  0
 29 58  1  0
 30 59  1  0
 30 60  1  0
 31 61  1  0
 31 62  1  0
 32 63  1  0
 32 64  1  0
 33 65  1  0
 33 66  1  0
M  END
>  <smiles>  (58) 
O=c1c2ccccc2nc(/C=C/c2ccc(CN3CCC(O)C3)cc2)n1CC1CCCCC1

>  <score_type>  (58) 
oracle

>  <origin>  (58) 
autodockgpu

>  <m_score__min__energy>  (58) 
-9.3900000000000006

>  <m_primary>  (58) 
energy

>  <rmsd>  (58) 
11.713463991073896

>  <m_score__min__rmsd>  (58) 
11.713463991073896

>  <meeko>  (58) 
{"free_energy": -8.89, "intermolecular_energy": -11.27, "internal_energy": -1.62, "cluster_size": 37, "cluster_id": 1, "rank_in_cluster": 15}

>  <energy>  (58) 
-9.21

>  <cluster_rmsd>  (58) 
0.28

>  <cluster>  (58) 
1

$$$$

     RDKit          3D

 66 70  0  0  0  0  0  0  0  0999 V2000
  138.8650   68.0920  225.3040 O   0  0  0  0  0  0  0  0  0  0  0  0
  139.3920   69.1960  224.9910 C   0  0  0  0  0  0  0  0  0  0  0  0
  139.9450   69.9290  226.0190 C   0  0  0  0  0  0  0  0  0  0  0  0
  139.9310   69.4920  227.3330 C   0  0  0  0  0  0  0  0  0  0  0  0
  140.5070   70.2790  228.3330 C   0  0  0  0  0  0  0  0  0  0  0  0
  141.0930   71.5050  227.9900 C   0  0  0  0  0  0  0  0  0  0  0  0
  141.1070   71.9400  226.6810 C   0  0  0  0  0  0  0  0  0  0  0  0
  140.5250   71.1370  225.6980 C   0  0  0  0  0  0  0  0  0  0  0  0
  140.5250   71.5350  224.4220 N   0  0  0  0  0  0  0  0  0  0  0  0
  139.9820   70.8080  223.4330 C   0  0  0  0  0  0  0  0  0  0  0  0
  140.0270   71.3540  222.0700 C   0  0  0  0  0  0  0  0  0  0  0  0
  139.1620   72.2740  221.6890 C   0  0  0  0  0  0  0  0  0  0  0  0
  139.3190   73.6930  221.8600 C   0  0  0  0  0  0  0  0  0  0  0  0
  140.5700   74.2950  221.7240 C   0  0  0  0  0  0  0  0  0  0  0  0
  140.7560   75.6480  221.8800 C   0  0  0  0  0  0  0  0  0  0  0  0
  139.7110   76.4840  222.1830 C   0  0  0  0  0  0  0  0  0  0  0  0
  139.8560   77.9450  222.3770 C   0  0  0  0  0  0  0  0  0  0  0  0
  141.2020   78.3780  222.2120 N   0  0  0  0  0  0  0  0  0  0  0  0
  141.7510   78.6680  223.5270 C   0  0  0  0  0  0  0  0  0  0  0  0
  142.3010   80.0680  223.4950 C   0  0  0  0  0  0  0  0  0  0  0  0
  141.4510   80.7100  222.3910 C   0  0  1  0  0  0  0  0  0  0  0  0
  142.0620   81.8260  221.8600 O   0  0  0  0  0  0  0  0  0  0  0  0
  141.3960   79.5390  221.4120 C   0  0  0  0  0  0  0  0  0  0  0  0
  138.4640   75.9200  222.3250 C   0  0  0  0  0  0  0  0  0  0  0  0
  138.2790   74.5560  222.1660 C   0  0  0  0  0  0  0  0  0  0  0  0
  139.4050   69.6220  223.7000 N   0  0  0  0  0  0  0  0  0  0  0  0
  138.8250   68.8020  222.6630 C   0  0  0  0  0  0  0  0  0  0  0  0
  137.3600   68.6680  222.8840 C   0  0  0  0  0  0  0  0  0  0  0  0
  136.7220   69.9710  223.3430 C   0  0  0  0  0  0  0  0  0  0  0  0
  135.4020   69.6120  223.9830 C   0  0  0  0  0  0  0  0  0  0  0  0
  134.4990   68.8760  223.0230 C   0  0  0  0  0  0  0  0  0  0  0  0
  135.1730   67.7500  222.3240 C   0  0  0  0  0  0  0  0  0  0  0  0
  136.5580   68.1100  221.7680 C   0  0  0  0  0  0  0  0  0  0  0  0
  139.4675   68.5277  227.5885 H   0  0  0  0  0  0  0  0  0  0  0  0
  140.5007   69.9398  229.3794 H   0  0  0  0  0  0  0  0  0  0  0  0
  141.5474   72.1281  228.7744 H   0  0  0  0  0  0  0  0  0  0  0  0
  141.5686   72.9027  226.4162 H   0  0  0  0  0  0  0  0  0  0  0  0
  140.7875   70.9930  221.3620 H   0  0  0  0  0  0  0  0  0  0  0  0
  138.2413   71.9257  221.1982 H   0  0  0  0  0  0  0  0  0  0  0  0
  141.4387   73.6645  221.4833 H   0  0  0  0  0  0  0  0  0  0  0  0
  141.7647   76.0698  221.7593 H   0  0  0  0  0  0  0  0  0  0  0  0
  139.2240   78.4645  221.6417 H   0  0  0  0  0  0  0  0  0  0  0  0
  139.5489   78.1813  223.4065 H   0  0  0  0  0  0  0  0  0  0  0  0
  140.9601   78.5936  224.2878 H   0  0  0  0  0  0  0  0  0  0  0  0
  142.5436   77.9486  223.7806 H   0  0  0  0  0  0  0  0  0  0  0  0
  142.1574   80.5775  224.4592 H   0  0  0  0  0  0  0  0  0  0  0  0
  143.3843   80.1184  223.3111 H   0  0  0  0  0  0  0  0  0  0  0  0
  140.4689   81.0939  222.7042 H   0  0  0  0  0  0  0  0  0  0  0  0
  142.2330   81.7420  220.8930 H   0  0  0  0  0  0  0  0  0  0  0  0
  140.5590   79.6652  220.7096 H   0  0  0  0  0  0  0  0  0  0  0  0
  142.3141   79.4690  220.8102 H   0  0  0  0  0  0  0  0  0  0  0  0
  137.6030   76.5601  222.5678 H   0  0  0  0  0  0  0  0  0  0  0  0
  137.2671   74.1421  222.2874 H   0  0  0  0  0  0  0  0  0  0  0  0
  139.0049   69.2704  221.6841 H   0  0  0  0  0  0  0  0  0  0  0  0
  139.2880   67.8045  222.6884 H   0  0  0  0  0  0  0  0  0  0  0  0
  137.3270   67.9102  223.6806 H   0  0  0  0  0  0  0  0  0  0  0  0
  137.3724   70.4737  224.0740 H   0  0  0  0  0  0  0  0  0  0  0  0
  136.5750   70.6571  222.4958 H   0  0  0  0  0  0  0  0  0  0  0  0
  135.5918   68.9711  224.8566 H   0  0  0  0  0  0  0  0  0  0  0  0
  134.8998   70.5444  224.2804 H   0  0  0  0  0  0  0  0  0  0  0  0
  133.6439   68.4747  223.5867 H   0  0  0  0  0  0  0  0  0  0  0  0
  134.1876   69.5968  222.2526 H   0  0  0  0  0  0  0  0  0  0  0  0
  135.2895   66.9193  223.0356 H   0  0  0  0  0  0  0  0  0  0  0  0
  134.5414   67.4806  221.4646 H   0  0  0  0  0  0  0  0  0  0  0  0
  137.0472   67.2093  221.3687 H   0  0  0  0  0  0  0  0  0  0  0  0
  136.4677   68.8438  220.9535 H   0  0  0  0  0  0  0  0  0  0  0  0
  1  2  2  0
  2  3  1  0
  3  4  2  0
  4  5  1  0
  5  6  2  0
  6  7  1  0
  7  8  2  0
  8  9  1  0
  9 10  2  0
 10 11  1  0
 11 12  2  0
 12 13  1  0
 13 14  2  0
 14 15  1  0
 15 16  2  0
 16 17  1  0
 17 18  1  0
 18 19  1  0
 19 20  1  0
 20 21  1  0
 21 22  1  0
 21 23  1  0
 16 24  1  0
 24 25  2  0
 10 26  1  0
 26 27  1  0
 27 28  1  0
 28 29  1  0
 29 30  1  0
 30 31  1  0
 31 32  1  0
 32 33  1  0
 26  2  1  0
 33 28  1  0
  8  3  1  0
 25 13  1  0
 23 18  1  0
  4 34  1  0
  5 35  1  0
  6 36  1  0
  7 37  1  0
 11 38  1  0
 12 39  1  0
 14 40  1  0
 15 41  1  0
 17 42  1  0
 17 43  1  0
 19 44  1  0
 19 45  1  0
 20 46  1  0
 20 47  1  0
 21 48  1  1
 22 49  1  0
 23 50  1  0
 23 51  1  0
 24 52  1  0
 25 53  1  0
 27 54  1  0
 27 55  1  0
 28 56  1  0
 29 57  1  0
 29 58  1  0
 30 59  1  0
 30 60  1  0
 31 61  1  0
 31 62  1  0
 32 63  1  0
 32 64  1  0
 33 65  1  0
 33 66  1  0
M  END
>  <smiles>  (59) 
O=c1c2ccccc2nc(/C=C/c2ccc(CN3CCC(O)C3)cc2)n1CC1CCCCC1

>  <score_type>  (59) 
oracle

>  <origin>  (59) 
autodockgpu

>  <m_score__min__energy>  (59) 
-9.3900000000000006

>  <m_primary>  (59) 
energy

>  <rmsd>  (59) 
11.287148028457812

>  <m_score__min__rmsd>  (59) 
11.287148028457812

>  <meeko>  (59) 
{"free_energy": -8.49, "intermolecular_energy": -10.88, "internal_energy": -1.82, "cluster_size": 37, "cluster_id": 1, "rank_in_cluster": 37}

>  <energy>  (59) 
-9.13

>  <cluster_rmsd>  (59) 
0.64

>  <cluster>  (59) 
1

$$$$

     RDKit          3D

 66 70  0  0  0  0  0  0  0  0999 V2000
  139.1900   67.6380  225.1870 O   0  0  0  0  0  0  0  0  0  0  0  0
  139.5470   68.8370  225.0170 C   0  0  0  0  0  0  0  0  0  0  0  0
  140.0630   69.4890  226.1170 C   0  0  0  0  0  0  0  0  0  0  0  0
  140.1890   68.8750  227.3520 C   0  0  0  0  0  0  0  0  0  0  0  0
  140.7190   69.5850  228.4310 C   0  0  0  0  0  0  0  0  0  0  0  0
  141.1180   70.9170  228.2470 C   0  0  0  0  0  0  0  0  0  0  0  0
  140.9930   71.5280  227.0170 C   0  0  0  0  0  0  0  0  0  0  0  0
  140.4600   70.7980  225.9530 C   0  0  0  0  0  0  0  0  0  0  0  0
  140.3280   71.3670  224.7500 N   0  0  0  0  0  0  0  0  0  0  0  0
  139.8240   70.7180  223.6890 C   0  0  0  0  0  0  0  0  0  0  0  0
  139.7110   71.4500  222.4210 C   0  0  0  0  0  0  0  0  0  0  0  0
  139.0910   72.6140  222.3730 C   0  0  0  0  0  0  0  0  0  0  0  0
  139.6710   73.8540  221.9340 C   0  0  0  0  0  0  0  0  0  0  0  0
  140.9980   73.9110  221.5070 C   0  0  0  0  0  0  0  0  0  0  0  0
  141.5840   75.0790  221.0810 C   0  0  0  0  0  0  0  0  0  0  0  0
  140.8880   76.2610  221.0540 C   0  0  0  0  0  0  0  0  0  0  0  0
  141.4720   77.5500  220.6180 C   0  0  0  0  0  0  0  0  0  0  0  0
  141.1400   77.8610  219.2700 N   0  0  0  0  0  0  0  0  0  0  0  0
  142.0710   77.1610  218.3990 C   0  0  0  0  0  0  0  0  0  0  0  0
  142.6910   78.1770  217.4790 C   0  0  0  0  0  0  0  0  0  0  0  0
  142.5740   79.4610  218.3110 C   0  0  1  0  0  0  0  0  0  0  0  0
  142.6430   80.5890  217.5220 O   0  0  0  0  0  0  0  0  0  0  0  0
  141.1880   79.2380  218.9110 C   0  0  0  0  0  0  0  0  0  0  0  0
  139.5760   76.2380  221.4680 C   0  0  0  0  0  0  0  0  0  0  0  0
  138.9870   75.0580  221.8970 C   0  0  0  0  0  0  0  0  0  0  0  0
  139.4240   69.4380  223.8040 N   0  0  0  0  0  0  0  0  0  0  0  0
  138.8920   68.6990  222.6830 C   0  0  0  0  0  0  0  0  0  0  0  0
  137.4180   68.8830  222.6100 C   0  0  0  0  0  0  0  0  0  0  0  0
  136.7110   67.6720  222.0190 C   0  0  0  0  0  0  0  0  0  0  0  0
  135.3530   68.1400  221.5520 C   0  0  0  0  0  0  0  0  0  0  0  0
  134.5500   68.7350  222.6840 C   0  0  0  0  0  0  0  0  0  0  0  0
  135.3070   69.7350  223.4820 C   0  0  0  0  0  0  0  0  0  0  0  0
  136.7240   69.2780  223.8600 C   0  0  0  0  0  0  0  0  0  0  0  0
  139.8720   67.8298  227.4826 H   0  0  0  0  0  0  0  0  0  0  0  0
  140.8226   69.1048  229.4152 H   0  0  0  0  0  0  0  0  0  0  0  0
  141.5357   71.4811  229.0940 H   0  0  0  0  0  0  0  0  0  0  0  0
  141.3078   72.5726  226.8767 H   0  0  0  0  0  0  0  0  0  0  0  0
  140.1463   71.0250  221.5045 H   0  0  0  0  0  0  0  0  0  0  0  0
  138.0400   72.6374  222.6967 H   0  0  0  0  0  0  0  0  0  0  0  0
  141.5967   72.9882  221.5114 H   0  0  0  0  0  0  0  0  0  0  0  0
  142.6343   75.0658  220.7544 H   0  0  0  0  0  0  0  0  0  0  0  0
  141.0918   78.3500  221.2702 H   0  0  0  0  0  0  0  0  0  0  0  0
  142.5666   77.4652  220.6856 H   0  0  0  0  0  0  0  0  0  0  0  0
  142.8528   76.6744  219.0006 H   0  0  0  0  0  0  0  0  0  0  0  0
  141.5474   76.3863  217.8196 H   0  0  0  0  0  0  0  0  0  0  0  0
  143.7417   77.9337  217.2624 H   0  0  0  0  0  0  0  0  0  0  0  0
  142.2095   78.2387  216.4919 H   0  0  0  0  0  0  0  0  0  0  0  0
  143.3727   79.6290  219.0485 H   0  0  0  0  0  0  0  0  0  0  0  0
  143.2640   80.4860  216.7640 H   0  0  0  0  0  0  0  0  0  0  0  0
  141.0485   79.8710  219.7997 H   0  0  0  0  0  0  0  0  0  0  0  0
  140.3909   79.4999  218.1996 H   0  0  0  0  0  0  0  0  0  0  0  0
  138.9870   77.1670  221.4586 H   0  0  0  0  0  0  0  0  0  0  0  0
  137.9358   75.0790  222.2204 H   0  0  0  0  0  0  0  0  0  0  0  0
  139.3519   69.0652  221.7533 H   0  0  0  0  0  0  0  0  0  0  0  0
  139.1179   67.6304  222.8133 H   0  0  0  0  0  0  0  0  0  0  0  0
  137.3400   69.7521  221.9402 H   0  0  0  0  0  0  0  0  0  0  0  0
  137.2868   67.2752  221.1698 H   0  0  0  0  0  0  0  0  0  0  0  0
  136.6152   66.8695  222.7653 H   0  0  0  0  0  0  0  0  0  0  0  0
  135.4875   68.9024  220.7706 H   0  0  0  0  0  0  0  0  0  0  0  0
  134.8048   67.2698  221.1619 H   0  0  0  0  0  0  0  0  0  0  0  0
  133.6617   69.2267  222.2607 H   0  0  0  0  0  0  0  0  0  0  0  0
  134.2849   67.9109  223.3627 H   0  0  0  0  0  0  0  0  0  0  0  0
  135.3861   70.6610  222.8936 H   0  0  0  0  0  0  0  0  0  0  0  0
  134.7547   69.8811  224.4220 H   0  0  0  0  0  0  0  0  0  0  0  0
  137.2667   70.1025  224.3455 H   0  0  0  0  0  0  0  0  0  0  0  0
  136.6820   68.4319  224.5616 H   0  0  0  0  0  0  0  0  0  0  0  0
  1  2  2  0
  2  3  1  0
  3  4  2  0
  4  5  1  0
  5  6  2  0
  6  7  1  0
  7  8  2  0
  8  9  1  0
  9 10  2  0
 10 11  1  0
 11 12  2  0
 12 13  1  0
 13 14  2  0
 14 15  1  0
 15 16  2  0
 16 17  1  0
 17 18  1  0
 18 19  1  0
 19 20  1  0
 20 21  1  0
 21 22  1  0
 21 23  1  0
 16 24  1  0
 24 25  2  0
 10 26  1  0
 26 27  1  0
 27 28  1  0
 28 29  1  0
 29 30  1  0
 30 31  1  0
 31 32  1  0
 32 33  1  0
 26  2  1  0
 33 28  1  0
  8  3  1  0
 25 13  1  0
 23 18  1  0
  4 34  1  0
  5 35  1  0
  6 36  1  0
  7 37  1  0
 11 38  1  0
 12 39  1  0
 14 40  1  0
 15 41  1  0
 17 42  1  0
 17 43  1  0
 19 44  1  0
 19 45  1  0
 20 46  1  0
 20 47  1  0
 21 48  1  1
 22 49  1  0
 23 50  1  0
 23 51  1  0
 24 52  1  0
 25 53  1  0
 27 54  1  0
 27 55  1  0
 28 56  1  0
 29 57  1  0
 29 58  1  0
 30 59  1  0
 30 60  1  0
 31 61  1  0
 31 62  1  0
 32 63  1  0
 32 64  1  0
 33 65  1  0
 33 66  1  0
M  END
>  <smiles>  (60) 
O=c1c2ccccc2nc(/C=C/c2ccc(CN3CCC(O)C3)cc2)n1CC1CCCCC1

>  <score_type>  (60) 
oracle

>  <origin>  (60) 
autodockgpu

>  <m_score__min__energy>  (60) 
-9.3900000000000006

>  <m_primary>  (60) 
energy

>  <rmsd>  (60) 
11.648071919317443

>  <m_score__min__rmsd>  (60) 
11.648071919317443

>  <meeko>  (60) 
{"free_energy": -8.25, "intermolecular_energy": -10.63, "internal_energy": -1.6, "cluster_size": 2, "cluster_id": 4, "rank_in_cluster": 2}

>  <energy>  (60) 
-9.09

>  <cluster_rmsd>  (60) 
0.65

>  <cluster>  (60) 
1

$$$$

     RDKit          3D

 66 70  0  0  0  0  0  0  0  0999 V2000
  143.3980   77.4840  218.9650 O   0  0  0  0  0  0  0  0  0  0  0  0
  142.5450   76.8240  219.6220 C   0  0  0  0  0  0  0  0  0  0  0  0
  142.8570   75.5080  219.8910 C   0  0  0  0  0  0  0  0  0  0  0  0
  144.0410   74.9250  219.4700 C   0  0  0  0  0  0  0  0  0  0  0  0
  144.3030   73.5870  219.7720 C   0  0  0  0  0  0  0  0  0  0  0  0
  143.3580   72.8500  220.5020 C   0  0  0  0  0  0  0  0  0  0  0  0
  142.1800   73.4320  220.9210 C   0  0  0  0  0  0  0  0  0  0  0  0
  141.9400   74.7710  220.6070 C   0  0  0  0  0  0  0  0  0  0  0  0
  140.8050   75.3580  221.0020 N   0  0  0  0  0  0  0  0  0  0  0  0
  140.5170   76.6410  220.7310 C   0  0  0  0  0  0  0  0  0  0  0  0
  139.2320   77.1740  221.2020 C   0  0  0  0  0  0  0  0  0  0  0  0
  139.0040   77.3310  222.4910 C   0  0  0  0  0  0  0  0  0  0  0  0
  138.3100   78.4380  223.0900 C   0  0  0  0  0  0  0  0  0  0  0  0
  139.0030   79.4150  223.8050 C   0  0  0  0  0  0  0  0  0  0  0  0
  138.3710   80.4870  224.3900 C   0  0  0  0  0  0  0  0  0  0  0  0
  137.0120   80.6520  224.3010 C   0  0  0  0  0  0  0  0  0  0  0  0
  136.2780   81.7770  224.9220 C   0  0  0  0  0  0  0  0  0  0  0  0
  136.4900   81.8460  226.3280 N   0  0  0  0  0  0  0  0  0  0  0  0
  135.2300   81.5510  226.9930 C   0  0  0  0  0  0  0  0  0  0  0  0
  134.9390   82.6800  227.9440 C   0  0  0  0  0  0  0  0  0  0  0  0
  135.6970   83.8420  227.2870 C   0  0  1  0  0  0  0  0  0  0  0  0
  135.9680   84.8490  228.1880 O   0  0  0  0  0  0  0  0  0  0  0  0
  136.9490   83.0940  226.8360 C   0  0  0  0  0  0  0  0  0  0  0  0
  136.2990   79.7050  223.6020 C   0  0  0  0  0  0  0  0  0  0  0  0
  136.9390   78.6250  223.0130 C   0  0  0  0  0  0  0  0  0  0  0  0
  141.3850   77.3990  220.0350 N   0  0  0  0  0  0  0  0  0  0  0  0
  141.1200   78.7860  219.7370 C   0  0  0  0  0  0  0  0  0  0  0  0
  141.5740   79.6420  220.8670 C   0  0  0  0  0  0  0  0  0  0  0  0
  140.5960   80.7670  221.1690 C   0  0  0  0  0  0  0  0  0  0  0  0
  141.3560   81.8100  221.9540 C   0  0  0  0  0  0  0  0  0  0  0  0
  141.9340   81.2390  223.2270 C   0  0  0  0  0  0  0  0  0  0  0  0
  142.6690   79.9640  223.0200 C   0  0  0  0  0  0  0  0  0  0  0  0
  141.9200   78.9560  222.1360 C   0  0  0  0  0  0  0  0  0  0  0  0
  144.7732   75.5148  218.8990 H   0  0  0  0  0  0  0  0  0  0  0  0
  145.2403   73.1158  219.4411 H   0  0  0  0  0  0  0  0  0  0  0  0
  143.5592   71.7957  220.7429 H   0  0  0  0  0  0  0  0  0  0  0  0
  141.4418   72.8509  221.4931 H   0  0  0  0  0  0  0  0  0  0  0  0
  138.4535   77.4444  220.4734 H   0  0  0  0  0  0  0  0  0  0  0  0
  139.3771   76.5471  223.1664 H   0  0  0  0  0  0  0  0  0  0  0  0
  140.0948   79.3246  223.9044 H   0  0  0  0  0  0  0  0  0  0  0  0
  138.9681   81.2283  224.9413 H   0  0  0  0  0  0  0  0  0  0  0  0
  136.6194   82.7178  224.4656 H   0  0  0  0  0  0  0  0  0  0  0  0
  135.2036   81.6156  224.7498 H   0  0  0  0  0  0  0  0  0  0  0  0
  134.4237   81.4706  226.2491 H   0  0  0  0  0  0  0  0  0  0  0  0
  135.2955   80.5969  227.5364 H   0  0  0  0  0  0  0  0  0  0  0  0
  133.8603   82.8870  228.0028 H   0  0  0  0  0  0  0  0  0  0  0  0
  135.2417   82.4791  228.9823 H   0  0  0  0  0  0  0  0  0  0  0  0
  135.1625   84.3696  226.4833 H   0  0  0  0  0  0  0  0  0  0  0  0
  136.8160   84.7110  228.6690 H   0  0  0  0  0  0  0  0  0  0  0  0
  137.4713   83.6593  226.0501 H   0  0  0  0  0  0  0  0  0  0  0  0
  137.6611   82.9584  227.6634 H   0  0  0  0  0  0  0  0  0  0  0  0
  135.2076   79.8060  223.5093 H   0  0  0  0  0  0  0  0  0  0  0  0
  136.3350   77.8881  222.4633 H   0  0  0  0  0  0  0  0  0  0  0  0
  141.6601   79.0723  218.8225 H   0  0  0  0  0  0  0  0  0  0  0  0
  140.0389   78.9247  219.5888 H   0  0  0  0  0  0  0  0  0  0  0  0
  142.5229   80.0374  220.4756 H   0  0  0  0  0  0  0  0  0  0  0  0
  140.2171   81.2006  220.2318 H   0  0  0  0  0  0  0  0  0  0  0  0
  139.7328   80.3955  221.7407 H   0  0  0  0  0  0  0  0  0  0  0  0
  142.1766   82.1967  221.3318 H   0  0  0  0  0  0  0  0  0  0  0  0
  140.6552   82.6132  222.2254 H   0  0  0  0  0  0  0  0  0  0  0  0
  142.6283   81.9763  223.6564 H   0  0  0  0  0  0  0  0  0  0  0  0
  141.0904   81.0228  223.8990 H   0  0  0  0  0  0  0  0  0  0  0  0
  143.6342   80.1928  222.5446 H   0  0  0  0  0  0  0  0  0  0  0  0
  142.7884   79.4976  224.0091 H   0  0  0  0  0  0  0  0  0  0  0  0
  142.5631   78.0877  221.9297 H   0  0  0  0  0  0  0  0  0  0  0  0
  141.0110   78.5991  222.6423 H   0  0  0  0  0  0  0  0  0  0  0  0
  1  2  2  0
  2  3  1  0
  3  4  2  0
  4  5  1  0
  5  6  2  0
  6  7  1  0
  7  8  2  0
  8  9  1  0
  9 10  2  0
 10 11  1  0
 11 12  2  0
 12 13  1  0
 13 14  2  0
 14 15  1  0
 15 16  2  0
 16 17  1  0
 17 18  1  0
 18 19  1  0
 19 20  1  0
 20 21  1  0
 21 22  1  0
 21 23  1  0
 16 24  1  0
 24 25  2  0
 10 26  1  0
 26 27  1  0
 27 28  1  0
 28 29  1  0
 29 30  1  0
 30 31  1  0
 31 32  1  0
 32 33  1  0
 26  2  1  0
 33 28  1  0
  8  3  1  0
 25 13  1  0
 23 18  1  0
  4 34  1  0
  5 35  1  0
  6 36  1  0
  7 37  1  0
 11 38  1  0
 12 39  1  0
 14 40  1  0
 15 41  1  0
 17 42  1  0
 17 43  1  0
 19 44  1  0
 19 45  1  0
 20 46  1  0
 20 47  1  0
 21 48  1  6
 22 49  1  0
 23 50  1  0
 23 51  1  0
 24 52  1  0
 25 53  1  0
 27 54  1  0
 27 55  1  0
 28 56  1  0
 29 57  1  0
 29 58  1  0
 30 59  1  0
 30 60  1  0
 31 61  1  0
 31 62  1  0
 32 63  1  0
 32 64  1  0
 33 65  1  0
 33 66  1  0
M  END
>  <smiles>  (61) 
O=c1c2ccccc2nc(/C=C/c2ccc(CN3CCC(O)C3)cc2)n1CC1CCCCC1

>  <score_type>  (61) 
oracle

>  <origin>  (61) 
autodockgpu

>  <m_score__min__energy>  (61) 
-9.3900000000000006

>  <m_primary>  (61) 
energy

>  <rmsd>  (61) 
7.314486724637312

>  <m_score__min__rmsd>  (61) 
7.314486724637312

>  <meeko>  (61) 
{"free_energy": -7.79, "intermolecular_energy": -10.18, "internal_energy": -2.22, "cluster_size": 4, "cluster_id": 7, "rank_in_cluster": 2}

>  <energy>  (61) 
-9.02

>  <cluster_rmsd>  (61) 
0.78

>  <cluster>  (61) 
1

$$$$

     RDKit          3D

 66 70  0  0  0  0  0  0  0  0999 V2000
  138.9260   68.2580  225.0240 O   0  0  0  0  0  0  0  0  0  0  0  0
  139.4930   69.3740  224.8580 C   0  0  0  0  0  0  0  0  0  0  0  0
  140.0070   69.9780  225.9860 C   0  0  0  0  0  0  0  0  0  0  0  0
  139.9140   69.4040  227.2430 C   0  0  0  0  0  0  0  0  0  0  0  0
  140.4530   70.0620  228.3500 C   0  0  0  0  0  0  0  0  0  0  0  0
  141.0840   71.3020  228.1720 C   0  0  0  0  0  0  0  0  0  0  0  0
  141.1770   71.8730  226.9200 C   0  0  0  0  0  0  0  0  0  0  0  0
  140.6310   71.1960  225.8280 C   0  0  0  0  0  0  0  0  0  0  0  0
  140.7080   71.7280  224.6030 N   0  0  0  0  0  0  0  0  0  0  0  0
  140.2020   71.1250  223.5150 C   0  0  0  0  0  0  0  0  0  0  0  0
  140.3320   71.8130  222.2230 C   0  0  0  0  0  0  0  0  0  0  0  0
  139.3960   72.6470  221.8120 C   0  0  0  0  0  0  0  0  0  0  0  0
  139.4460   74.0800  221.9190 C   0  0  0  0  0  0  0  0  0  0  0  0
  140.6620   74.7590  221.8530 C   0  0  0  0  0  0  0  0  0  0  0  0
  140.7460   76.1280  221.9520 C   0  0  0  0  0  0  0  0  0  0  0  0
  139.6280   76.9030  222.1230 C   0  0  0  0  0  0  0  0  0  0  0  0
  139.6600   78.3780  222.2490 C   0  0  0  0  0  0  0  0  0  0  0  0
  140.4570   78.8050  223.3480 N   0  0  0  0  0  0  0  0  0  0  0  0
  140.1890   80.2150  223.5850 C   0  0  0  0  0  0  0  0  0  0  0  0
  141.5070   80.9400  223.5770 C   0  0  0  0  0  0  0  0  0  0  0  0
  142.3610   80.0220  222.6920 C   0  0  1  0  0  0  0  0  0  0  0  0
  143.7090   80.2150  222.9060 O   0  0  0  0  0  0  0  0  0  0  0  0
  141.8660   78.6680  223.1960 C   0  0  0  0  0  0  0  0  0  0  0  0
  138.4120   76.2620  222.1920 C   0  0  0  0  0  0  0  0  0  0  0  0
  138.3300   74.8820  222.0920 C   0  0  0  0  0  0  0  0  0  0  0  0
  139.5850   69.9350  223.6230 N   0  0  0  0  0  0  0  0  0  0  0  0
  139.0430   69.2460  222.4760 C   0  0  0  0  0  0  0  0  0  0  0  0
  137.5740   69.4680  222.4000 C   0  0  0  0  0  0  0  0  0  0  0  0
  136.7820   68.2020  222.6870 C   0  0  0  0  0  0  0  0  0  0  0  0
  135.3970   68.4110  222.1210 C   0  0  0  0  0  0  0  0  0  0  0  0
  134.7240   69.6200  222.7280 C   0  0  0  0  0  0  0  0  0  0  0  0
  135.5820   70.8340  222.7300 C   0  0  0  0  0  0  0  0  0  0  0  0
  137.0160   70.5750  223.2150 C   0  0  0  0  0  0  0  0  0  0  0  0
  139.4162   68.4312  227.3689 H   0  0  0  0  0  0  0  0  0  0  0  0
  140.3836   69.6126  229.3516 H   0  0  0  0  0  0  0  0  0  0  0  0
  141.5096   71.8251  229.0410 H   0  0  0  0  0  0  0  0  0  0  0  0
  141.6730   72.8454  226.7842 H   0  0  0  0  0  0  0  0  0  0  0  0
  141.2160   71.6313  221.5941 H   0  0  0  0  0  0  0  0  0  0  0  0
  138.5005   72.2084  221.3476 H   0  0  0  0  0  0  0  0  0  0  0  0
  141.5868   74.1791  221.7169 H   0  0  0  0  0  0  0  0  0  0  0  0
  141.7320   76.6120  221.8927 H   0  0  0  0  0  0  0  0  0  0  0  0
  140.0748   78.8040  221.3235 H   0  0  0  0  0  0  0  0  0  0  0  0
  138.6307   78.7252  222.4223 H   0  0  0  0  0  0  0  0  0  0  0  0
  139.5389   80.6112  222.7910 H   0  0  0  0  0  0  0  0  0  0  0  0
  139.6799   80.3529  224.5503 H   0  0  0  0  0  0  0  0  0  0  0  0
  141.4099   81.9438  223.1376 H   0  0  0  0  0  0  0  0  0  0  0  0
  141.9279   81.1129  224.5785 H   0  0  0  0  0  0  0  0  0  0  0  0
  142.2616   80.1736  221.6070 H   0  0  0  0  0  0  0  0  0  0  0  0
  144.2710   79.6500  222.3270 H   0  0  0  0  0  0  0  0  0  0  0  0
  142.0980   77.8788  222.4657 H   0  0  0  0  0  0  0  0  0  0  0  0
  142.3507   78.3850  224.1420 H   0  0  0  0  0  0  0  0  0  0  0  0
  137.4938   76.8522  222.3282 H   0  0  0  0  0  0  0  0  0  0  0  0
  137.3405   74.4053  222.1523 H   0  0  0  0  0  0  0  0  0  0  0  0
  139.5179   69.6307  221.5614 H   0  0  0  0  0  0  0  0  0  0  0  0
  139.2420   68.1685  222.5732 H   0  0  0  0  0  0  0  0  0  0  0  0
  137.4538   69.7808  221.3523 H   0  0  0  0  0  0  0  0  0  0  0  0
  137.2616   67.3383  222.2033 H   0  0  0  0  0  0  0  0  0  0  0  0
  136.7388   68.0019  223.7678 H   0  0  0  0  0  0  0  0  0  0  0  0
  135.4739   68.5541  221.0331 H   0  0  0  0  0  0  0  0  0  0  0  0
  134.7909   67.5244  222.3591 H   0  0  0  0  0  0  0  0  0  0  0  0
  133.8127   69.8379  222.1517 H   0  0  0  0  0  0  0  0  0  0  0  0
  134.5035   69.3763  223.7777 H   0  0  0  0  0  0  0  0  0  0  0  0
  135.6281   71.2285  221.7042 H   0  0  0  0  0  0  0  0  0  0  0  0
  135.1283   71.5474  223.4337 H   0  0  0  0  0  0  0  0  0  0  0  0
  137.6255   71.4812  223.0836 H   0  0  0  0  0  0  0  0  0  0  0  0
  137.0198   70.3080  224.2821 H   0  0  0  0  0  0  0  0  0  0  0  0
  1  2  2  0
  2  3  1  0
  3  4  2  0
  4  5  1  0
  5  6  2  0
  6  7  1  0
  7  8  2  0
  8  9  1  0
  9 10  2  0
 10 11  1  0
 11 12  2  0
 12 13  1  0
 13 14  2  0
 14 15  1  0
 15 16  2  0
 16 17  1  0
 17 18  1  0
 18 19  1  0
 19 20  1  0
 20 21  1  0
 21 22  1  0
 21 23  1  0
 16 24  1  0
 24 25  2  0
 10 26  1  0
 26 27  1  0
 27 28  1  0
 28 29  1  0
 29 30  1  0
 30 31  1  0
 31 32  1  0
 32 33  1  0
 26  2  1  0
 33 28  1  0
  8  3  1  0
 25 13  1  0
 23 18  1  0
  4 34  1  0
  5 35  1  0
  6 36  1  0
  7 37  1  0
 11 38  1  0
 12 39  1  0
 14 40  1  0
 15 41  1  0
 17 42  1  0
 17 43  1  0
 19 44  1  0
 19 45  1  0
 20 46  1  0
 20 47  1  0
 21 48  1  6
 22 49  1  0
 23 50  1  0
 23 51  1  0
 24 52  1  0
 25 53  1  0
 27 54  1  0
 27 55  1  0
 28 56  1  0
 29 57  1  0
 29 58  1  0
 30 59  1  0
 30 60  1  0
 31 61  1  0
 31 62  1  0
 32 63  1  0
 32 64  1  0
 33 65  1  0
 33 66  1  0
M  END
>  <smiles>  (62) 
O=c1c2ccccc2nc(/C=C/c2ccc(CN3CCC(O)C3)cc2)n1CC1CCCCC1

>  <score_type>  (62) 
oracle

>  <origin>  (62) 
autodockgpu

>  <m_score__min__energy>  (62) 
-9.3900000000000006

>  <m_primary>  (62) 
energy

>  <rmsd>  (62) 
11.279013307808649

>  <m_score__min__rmsd>  (62) 
11.279013307808649

>  <meeko>  (62) 
{"free_energy": -9.09, "intermolecular_energy": -11.48, "internal_energy": -1.75, "cluster_size": 37, "cluster_id": 1, "rank_in_cluster": 10}

>  <energy>  (62) 
-9.02

>  <cluster_rmsd>  (62) 
0.7

>  <cluster>  (62) 
1

$$$$

     RDKit          3D

 66 70  0  0  0  0  0  0  0  0999 V2000
  136.9560   79.0300  223.4530 O   0  0  0  0  0  0  0  0  0  0  0  0
  137.8320   78.2400  223.0020 C   0  0  0  0  0  0  0  0  0  0  0  0
  139.1450   78.6420  223.1250 C   0  0  0  0  0  0  0  0  0  0  0  0
  139.5020   79.8450  223.7100 C   0  0  0  0  0  0  0  0  0  0  0  0
  140.8490   80.1990  223.8070 C   0  0  0  0  0  0  0  0  0  0  0  0
  141.8260   79.3250  223.3080 C   0  0  0  0  0  0  0  0  0  0  0  0
  141.4710   78.1270  222.7260 C   0  0  0  0  0  0  0  0  0  0  0  0
  140.1180   77.7940  222.6400 C   0  0  0  0  0  0  0  0  0  0  0  0
  139.7460   76.6380  222.0800 N   0  0  0  0  0  0  0  0  0  0  0  0
  138.4620   76.2630  221.9680 C   0  0  0  0  0  0  0  0  0  0  0  0
  138.1720   74.9770  221.3190 C   0  0  0  0  0  0  0  0  0  0  0  0
  139.0940   74.0350  221.2590 C   0  0  0  0  0  0  0  0  0  0  0  0
  139.2390   72.9460  222.1870 C   0  0  0  0  0  0  0  0  0  0  0  0
  140.4970   72.5680  222.6530 C   0  0  0  0  0  0  0  0  0  0  0  0
  140.6730   71.5320  223.5400 C   0  0  0  0  0  0  0  0  0  0  0  0
  139.6080   70.8090  224.0150 C   0  0  0  0  0  0  0  0  0  0  0  0
  139.7390   69.6760  224.9590 C   0  0  0  0  0  0  0  0  0  0  0  0
  140.8480   69.8330  225.8370 N   0  0  0  0  0  0  0  0  0  0  0  0
  140.7350   68.8420  226.8950 C   0  0  0  0  0  0  0  0  0  0  0  0
  140.8100   69.5660  228.2110 C   0  0  0  0  0  0  0  0  0  0  0  0
  140.3010   70.9620  227.8260 C   0  0  1  0  0  0  0  0  0  0  0  0
  140.7050   71.9200  228.7310 O   0  0  0  0  0  0  0  0  0  0  0  0
  140.9790   71.1030  226.4660 C   0  0  0  0  0  0  0  0  0  0  0  0
  138.3520   71.1580  223.5740 C   0  0  0  0  0  0  0  0  0  0  0  0
  138.1780   72.2030  222.6800 C   0  0  0  0  0  0  0  0  0  0  0  0
  137.4800   77.0590  222.4290 N   0  0  0  0  0  0  0  0  0  0  0  0
  136.0880   76.6850  222.3440 C   0  0  0  0  0  0  0  0  0  0  0  0
  135.7530   75.7280  223.4320 C   0  0  0  0  0  0  0  0  0  0  0  0
  134.7070   76.2820  224.3880 C   0  0  0  0  0  0  0  0  0  0  0  0
  134.8070   75.4780  225.6620 C   0  0  0  0  0  0  0  0  0  0  0  0
  134.5850   74.0050  225.4110 C   0  0  0  0  0  0  0  0  0  0  0  0
  135.3870   73.4720  224.2800 C   0  0  0  0  0  0  0  0  0  0  0  0
  135.3510   74.3590  223.0260 C   0  0  0  0  0  0  0  0  0  0  0  0
  138.7255   80.5208  224.0978 H   0  0  0  0  0  0  0  0  0  0  0  0
  141.1410   81.1532  224.2699 H   0  0  0  0  0  0  0  0  0  0  0  0
  142.8887   79.5990  223.3820 H   0  0  0  0  0  0  0  0  0  0  0  0
  142.2408   77.4449  222.3359 H   0  0  0  0  0  0  0  0  0  0  0  0
  137.1793   74.7983  220.8801 H   0  0  0  0  0  0  0  0  0  0  0  0
  139.8131   74.0871  220.4282 H   0  0  0  0  0  0  0  0  0  0  0  0
  141.3810   73.1183  222.2984 H   0  0  0  0  0  0  0  0  0  0  0  0
  141.6891   71.2775  223.8758 H   0  0  0  0  0  0  0  0  0  0  0  0
  138.8195   69.6065  225.5587 H   0  0  0  0  0  0  0  0  0  0  0  0
  139.9023   68.7621  224.3690 H   0  0  0  0  0  0  0  0  0  0  0  0
  139.7735   68.3140  226.8124 H   0  0  0  0  0  0  0  0  0  0  0  0
  141.5445   68.1013  226.8166 H   0  0  0  0  0  0  0  0  0  0  0  0
  140.1612   69.0962  228.9649 H   0  0  0  0  0  0  0  0  0  0  0  0
  141.8118   69.5650  228.6653 H   0  0  0  0  0  0  0  0  0  0  0  0
  139.2082   71.0868  227.8094 H   0  0  0  0  0  0  0  0  0  0  0  0
  140.0560   72.6560  228.8210 H   0  0  0  0  0  0  0  0  0  0  0  0
  140.4811   71.8804  225.8679 H   0  0  0  0  0  0  0  0  0  0  0  0
  142.0335   71.3994  226.5668 H   0  0  0  0  0  0  0  0  0  0  0  0
  137.4752   70.6008  223.9355 H   0  0  0  0  0  0  0  0  0  0  0  0
  137.1589   72.4521  222.3492 H   0  0  0  0  0  0  0  0  0  0  0  0
  135.4621   77.5841  222.4437 H   0  0  0  0  0  0  0  0  0  0  0  0
  135.9005   76.2070  221.3712 H   0  0  0  0  0  0  0  0  0  0  0  0
  136.7262   75.6155  223.9323 H   0  0  0  0  0  0  0  0  0  0  0  0
  134.9076   77.3437  224.5941 H   0  0  0  0  0  0  0  0  0  0  0  0
  133.6989   76.2081  223.9541 H   0  0  0  0  0  0  0  0  0  0  0  0
  135.8083   75.6190  226.0951 H   0  0  0  0  0  0  0  0  0  0  0  0
  134.0263   75.8301  226.3523 H   0  0  0  0  0  0  0  0  0  0  0  0
  134.8560   73.4513  226.3220 H   0  0  0  0  0  0  0  0  0  0  0  0
  133.5250   73.8768  225.1464 H   0  0  0  0  0  0  0  0  0  0  0  0
  136.4324   73.3782  224.6092 H   0  0  0  0  0  0  0  0  0  0  0  0
  134.9464   72.5033  224.0016 H   0  0  0  0  0  0  0  0  0  0  0  0
  136.0514   73.9707  222.2719 H   0  0  0  0  0  0  0  0  0  0  0  0
  134.3420   74.3671  222.5879 H   0  0  0  0  0  0  0  0  0  0  0  0
  1  2  2  0
  2  3  1  0
  3  4  2  0
  4  5  1  0
  5  6  2  0
  6  7  1  0
  7  8  2  0
  8  9  1  0
  9 10  2  0
 10 11  1  0
 11 12  2  0
 12 13  1  0
 13 14  2  0
 14 15  1  0
 15 16  2  0
 16 17  1  0
 17 18  1  0
 18 19  1  0
 19 20  1  0
 20 21  1  0
 21 22  1  0
 21 23  1  0
 16 24  1  0
 24 25  2  0
 10 26  1  0
 26 27  1  0
 27 28  1  0
 28 29  1  0
 29 30  1  0
 30 31  1  0
 31 32  1  0
 32 33  1  0
 26  2  1  0
 33 28  1  0
  8  3  1  0
 25 13  1  0
 23 18  1  0
  4 34  1  0
  5 35  1  0
  6 36  1  0
  7 37  1  0
 11 38  1  0
 12 39  1  0
 14 40  1  0
 15 41  1  0
 17 42  1  0
 17 43  1  0
 19 44  1  0
 19 45  1  0
 20 46  1  0
 20 47  1  0
 21 48  1  6
 22 49  1  0
 23 50  1  0
 23 51  1  0
 24 52  1  0
 25 53  1  0
 27 54  1  0
 27 55  1  0
 28 56  1  0
 29 57  1  0
 29 58  1  0
 30 59  1  0
 30 60  1  0
 31 61  1  0
 31 62  1  0
 32 63  1  0
 32 64  1  0
 33 65  1  0
 33 66  1  0
M  END
>  <smiles>  (63) 
O=c1c2ccccc2nc(/C=C/c2ccc(CN3CCC(O)C3)cc2)n1CC1CCCCC1

>  <score_type>  (63) 
oracle

>  <origin>  (63) 
autodockgpu

>  <m_score__min__energy>  (63) 
-9.3900000000000006

>  <m_primary>  (63) 
energy

>  <rmsd>  (63) 
6.7656335910403484

>  <m_score__min__rmsd>  (63) 
6.7656335910403484

>  <meeko>  (63) 
{"free_energy": -8.2, "intermolecular_energy": -10.59, "internal_energy": -1.93, "cluster_size": 1, "cluster_id": 5, "rank_in_cluster": 1}

>  <energy>  (63) 
-9.01

>  <cluster_rmsd>  (63) 
0.34

>  <cluster>  (63) 
1

$$$$

     RDKit          3D

 66 70  0  0  0  0  0  0  0  0999 V2000
  139.1740   67.7920  225.3190 O   0  0  0  0  0  0  0  0  0  0  0  0
  139.5170   68.9750  225.0420 C   0  0  0  0  0  0  0  0  0  0  0  0
  140.0530   69.7190  226.0720 C   0  0  0  0  0  0  0  0  0  0  0  0
  140.2130   69.2100  227.3500 C   0  0  0  0  0  0  0  0  0  0  0  0
  140.7620   70.0110  228.3530 C   0  0  0  0  0  0  0  0  0  0  0  0
  141.1450   71.3250  228.0510 C   0  0  0  0  0  0  0  0  0  0  0  0
  140.9860   71.8320  226.7780 C   0  0  0  0  0  0  0  0  0  0  0  0
  140.4350   71.0130  225.7900 C   0  0  0  0  0  0  0  0  0  0  0  0
  140.2700   71.4800  224.5480 N   0  0  0  0  0  0  0  0  0  0  0  0
  139.7460   70.7410  223.5570 C   0  0  0  0  0  0  0  0  0  0  0  0
  139.5980   71.3660  222.2360 C   0  0  0  0  0  0  0  0  0  0  0  0
  140.5300   72.1730  221.7680 C   0  0  0  0  0  0  0  0  0  0  0  0
  140.4610   73.6090  221.7500 C   0  0  0  0  0  0  0  0  0  0  0  0
  139.3690   74.2790  222.3000 C   0  0  0  0  0  0  0  0  0  0  0  0
  139.2700   75.6510  222.3000 C   0  0  0  0  0  0  0  0  0  0  0  0
  140.2500   76.4380  221.7520 C   0  0  0  0  0  0  0  0  0  0  0  0
  140.1900   77.9170  221.7110 C   0  0  0  0  0  0  0  0  0  0  0  0
  141.4500   78.5140  221.9980 N   0  0  0  0  0  0  0  0  0  0  0  0
  141.6160   78.5550  223.4420 C   0  0  0  0  0  0  0  0  0  0  0  0
  141.9290   79.9750  223.8270 C   0  0  0  0  0  0  0  0  0  0  0  0
  141.2770   80.7580  222.6810 C   0  0  1  0  0  0  0  0  0  0  0  0
  141.8110   82.0230  222.5570 O   0  0  0  0  0  0  0  0  0  0  0  0
  141.6430   79.8400  221.5170 C   0  0  0  0  0  0  0  0  0  0  0  0
  141.3410   75.8070  221.2010 C   0  0  0  0  0  0  0  0  0  0  0  0
  141.4390   74.4240  221.2020 C   0  0  0  0  0  0  0  0  0  0  0  0
  139.3610   69.4730  223.7860 N   0  0  0  0  0  0  0  0  0  0  0  0
  138.8080   68.6400  222.7440 C   0  0  0  0  0  0  0  0  0  0  0  0
  137.3370   68.8390  222.6630 C   0  0  0  0  0  0  0  0  0  0  0  0
  136.6220   67.6400  222.0590 C   0  0  0  0  0  0  0  0  0  0  0  0
  135.2720   68.1240  221.5880 C   0  0  0  0  0  0  0  0  0  0  0  0
  134.4670   68.7180  222.7200 C   0  0  0  0  0  0  0  0  0  0  0  0
  135.2290   69.7040  223.5310 C   0  0  0  0  0  0  0  0  0  0  0  0
  136.6390   69.2300  223.9130 C   0  0  0  0  0  0  0  0  0  0  0  0
  139.9083   68.1771  227.5743 H   0  0  0  0  0  0  0  0  0  0  0  0
  140.8927   69.6146  229.3707 H   0  0  0  0  0  0  0  0  0  0  0  0
  141.5776   71.9595  228.8385 H   0  0  0  0  0  0  0  0  0  0  0  0
  141.2880   72.8638  226.5450 H   0  0  0  0  0  0  0  0  0  0  0  0
  138.7022   71.1591  221.6320 H   0  0  0  0  0  0  0  0  0  0  0  0
  141.4378   71.7078  221.3562 H   0  0  0  0  0  0  0  0  0  0  0  0
  138.5571   73.6890  222.7503 H   0  0  0  0  0  0  0  0  0  0  0  0
  138.3858   76.1269  222.7492 H   0  0  0  0  0  0  0  0  0  0  0  0
  139.8697   78.2309  220.7066 H   0  0  0  0  0  0  0  0  0  0  0  0
  139.4764   78.2477  222.4800 H   0  0  0  0  0  0  0  0  0  0  0  0
  140.6882   78.2291  223.9350 H   0  0  0  0  0  0  0  0  0  0  0  0
  142.4287   77.8832  223.7553 H   0  0  0  0  0  0  0  0  0  0  0  0
  141.4805   80.2357  224.7970 H   0  0  0  0  0  0  0  0  0  0  0  0
  143.0029   80.1776  223.9523 H   0  0  0  0  0  0  0  0  0  0  0  0
  140.2004   80.9568  222.7883 H   0  0  0  0  0  0  0  0  0  0  0  0
  142.0600   82.2410  221.6280 H   0  0  0  0  0  0  0  0  0  0  0  0
  140.9885   80.0344  220.6545 H   0  0  0  0  0  0  0  0  0  0  0  0
  142.6773   80.0036  221.1801 H   0  0  0  0  0  0  0  0  0  0  0  0
  142.1466   76.4077  220.7536 H   0  0  0  0  0  0  0  0  0  0  0  0
  142.3264   73.9559  220.7509 H   0  0  0  0  0  0  0  0  0  0  0  0
  139.2659   68.9091  221.7807 H   0  0  0  0  0  0  0  0  0  0  0  0
  139.0182   67.5851  222.9744 H   0  0  0  0  0  0  0  0  0  0  0  0
  137.2718   69.7138  221.9993 H   0  0  0  0  0  0  0  0  0  0  0  0
  137.1988   67.2441  221.2102 H   0  0  0  0  0  0  0  0  0  0  0  0
  136.5141   66.8331  222.7987 H   0  0  0  0  0  0  0  0  0  0  0  0
  135.4184   68.8912  220.8134 H   0  0  0  0  0  0  0  0  0  0  0  0
  134.7182   67.2618  221.1881 H   0  0  0  0  0  0  0  0  0  0  0  0
  133.5864   69.2220  222.2950 H   0  0  0  0  0  0  0  0  0  0  0  0
  134.1889   67.8912  223.3902 H   0  0  0  0  0  0  0  0  0  0  0  0
  135.3204   70.6342  222.9511 H   0  0  0  0  0  0  0  0  0  0  0  0
  134.6727   69.8476  224.4690 H   0  0  0  0  0  0  0  0  0  0  0  0
  137.1868   70.0449  224.4089 H   0  0  0  0  0  0  0  0  0  0  0  0
  136.5846   68.3781  224.6068 H   0  0  0  0  0  0  0  0  0  0  0  0
  1  2  2  0
  2  3  1  0
  3  4  2  0
  4  5  1  0
  5  6  2  0
  6  7  1  0
  7  8  2  0
  8  9  1  0
  9 10  2  0
 10 11  1  0
 11 12  2  0
 12 13  1  0
 13 14  2  0
 14 15  1  0
 15 16  2  0
 16 17  1  0
 17 18  1  0
 18 19  1  0
 19 20  1  0
 20 21  1  0
 21 22  1  0
 21 23  1  0
 16 24  1  0
 24 25  2  0
 10 26  1  0
 26 27  1  0
 27 28  1  0
 28 29  1  0
 29 30  1  0
 30 31  1  0
 31 32  1  0
 32 33  1  0
 26  2  1  0
 33 28  1  0
  8  3  1  0
 25 13  1  0
 23 18  1  0
  4 34  1  0
  5 35  1  0
  6 36  1  0
  7 37  1  0
 11 38  1  0
 12 39  1  0
 14 40  1  0
 15 41  1  0
 17 42  1  0
 17 43  1  0
 19 44  1  0
 19 45  1  0
 20 46  1  0
 20 47  1  0
 21 48  1  1
 22 49  1  0
 23 50  1  0
 23 51  1  0
 24 52  1  0
 25 53  1  0
 27 54  1  0
 27 55  1  0
 28 56  1  0
 29 57  1  0
 29 58  1  0
 30 59  1  0
 30 60  1  0
 31 61  1  0
 31 62  1  0
 32 63  1  0
 32 64  1  0
 33 65  1  0
 33 66  1  0
M  END
>  <smiles>  (64) 
O=c1c2ccccc2nc(/C=C/c2ccc(CN3CCC(O)C3)cc2)n1CC1CCCCC1

>  <score_type>  (64) 
oracle

>  <origin>  (64) 
autodockgpu

>  <m_score__min__energy>  (64) 
-9.3900000000000006

>  <m_primary>  (64) 
energy

>  <rmsd>  (64) 
11.50855862427106

>  <m_score__min__rmsd>  (64) 
11.50855862427106

>  <meeko>  (64) 
{"free_energy": -8.65, "intermolecular_energy": -11.04, "internal_energy": -1.64, "cluster_size": 37, "cluster_id": 1, "rank_in_cluster": 28}

>  <energy>  (64) 
-8.99

>  <cluster_rmsd>  (64) 
0.45

>  <cluster>  (64) 
1

$$$$

     RDKit          3D

 66 70  0  0  0  0  0  0  0  0999 V2000
  138.8310   68.1170  225.3040 O   0  0  0  0  0  0  0  0  0  0  0  0
  139.3420   69.2290  224.9940 C   0  0  0  0  0  0  0  0  0  0  0  0
  139.9090   69.9540  226.0200 C   0  0  0  0  0  0  0  0  0  0  0  0
  139.9260   69.5010  227.3290 C   0  0  0  0  0  0  0  0  0  0  0  0
  140.5150   70.2790  228.3270 C   0  0  0  0  0  0  0  0  0  0  0  0
  141.0840   71.5160  227.9880 C   0  0  0  0  0  0  0  0  0  0  0  0
  141.0670   71.9670  226.6850 C   0  0  0  0  0  0  0  0  0  0  0  0
  140.4730   71.1710  225.7030 C   0  0  0  0  0  0  0  0  0  0  0  0
  140.4440   71.5860  224.4320 N   0  0  0  0  0  0  0  0  0  0  0  0
  139.8870   70.8660  223.4450 C   0  0  0  0  0  0  0  0  0  0  0  0
  139.8990   71.4300  222.0890 C   0  0  0  0  0  0  0  0  0  0  0  0
  140.7640   72.3710  221.7630 C   0  0  0  0  0  0  0  0  0  0  0  0
  140.5030   73.7850  221.7660 C   0  0  0  0  0  0  0  0  0  0  0  0
  139.3340   74.2950  222.3310 C   0  0  0  0  0  0  0  0  0  0  0  0
  139.0530   75.6410  222.3520 C   0  0  0  0  0  0  0  0  0  0  0  0
  139.9160   76.5600  221.8130 C   0  0  0  0  0  0  0  0  0  0  0  0
  139.6580   78.0180  221.7950 C   0  0  0  0  0  0  0  0  0  0  0  0
  140.1950   78.6730  222.9390 N   0  0  0  0  0  0  0  0  0  0  0  0
  139.8590   80.0850  222.8550 C   0  0  0  0  0  0  0  0  0  0  0  0
  141.1360   80.8690  222.9900 C   0  0  0  0  0  0  0  0  0  0  0  0
  142.1740   79.8590  222.4830 C   0  0  1  0  0  0  0  0  0  0  0  0
  143.4420   80.1600  222.9340 O   0  0  0  0  0  0  0  0  0  0  0  0
  141.6060   78.5880  223.1100 C   0  0  0  0  0  0  0  0  0  0  0  0
  141.0790   76.0890  221.2480 C   0  0  0  0  0  0  0  0  0  0  0  0
  141.3600   74.7320  221.2280 C   0  0  0  0  0  0  0  0  0  0  0  0
  139.3250   69.6720  223.7090 N   0  0  0  0  0  0  0  0  0  0  0  0
  138.7310   68.8600  222.6740 C   0  0  0  0  0  0  0  0  0  0  0  0
  137.2730   68.7050  222.9250 C   0  0  0  0  0  0  0  0  0  0  0  0
  136.6360   69.9870  223.4420 C   0  0  0  0  0  0  0  0  0  0  0  0
  135.3350   69.5950  224.1020 C   0  0  0  0  0  0  0  0  0  0  0  0
  134.4150   68.8820  223.1410 C   0  0  0  0  0  0  0  0  0  0  0  0
  135.0810   67.7860  222.3900 C   0  0  0  0  0  0  0  0  0  0  0  0
  136.4490   68.1770  221.8120 C   0  0  0  0  0  0  0  0  0  0  0  0
  139.4760   68.5296  227.5815 H   0  0  0  0  0  0  0  0  0  0  0  0
  140.5329   69.9260  229.3687 H   0  0  0  0  0  0  0  0  0  0  0  0
  141.5491   72.1332  228.7708 H   0  0  0  0  0  0  0  0  0  0  0  0
  141.5138   72.9375  226.4233 H   0  0  0  0  0  0  0  0  0  0  0  0
  139.1813   71.0650  221.3396 H   0  0  0  0  0  0  0  0  0  0  0  0
  141.7713   72.0462  221.4632 H   0  0  0  0  0  0  0  0  0  0  0  0
  138.6110   73.5954  222.7757 H   0  0  0  0  0  0  0  0  0  0  0  0
  138.1155   75.9879  222.8112 H   0  0  0  0  0  0  0  0  0  0  0  0
  140.1171   78.4479  220.8925 H   0  0  0  0  0  0  0  0  0  0  0  0
  138.5683   78.1683  221.8001 H   0  0  0  0  0  0  0  0  0  0  0  0
  139.3880   80.3007  221.8846 H   0  0  0  0  0  0  0  0  0  0  0  0
  139.1523   80.3604  223.6517 H   0  0  0  0  0  0  0  0  0  0  0  0
  141.1189   81.7745  222.3657 H   0  0  0  0  0  0  0  0  0  0  0  0
  141.3298   81.2363  224.0086 H   0  0  0  0  0  0  0  0  0  0  0  0
  142.3058   79.8140  221.3919 H   0  0  0  0  0  0  0  0  0  0  0  0
  144.1480   79.8140  222.3400 H   0  0  0  0  0  0  0  0  0  0  0  0
  142.0016   77.6980  222.5988 H   0  0  0  0  0  0  0  0  0  0  0  0
  141.8824   78.4995  224.1710 H   0  0  0  0  0  0  0  0  0  0  0  0
  141.7946   76.7984  220.8067 H   0  0  0  0  0  0  0  0  0  0  0  0
  142.2997   74.3935  220.7672 H   0  0  0  0  0  0  0  0  0  0  0  0
  138.8835   69.3443  221.6982 H   0  0  0  0  0  0  0  0  0  0  0  0
  139.2058   67.8678  222.6755 H   0  0  0  0  0  0  0  0  0  0  0  0
  137.2655   67.9205  223.6960 H   0  0  0  0  0  0  0  0  0  0  0  0
  137.3001   70.4714  224.1730 H   0  0  0  0  0  0  0  0  0  0  0  0
  136.4626   70.6992  222.6218 H   0  0  0  0  0  0  0  0  0  0  0  0
  135.5518   68.9280  224.9494 H   0  0  0  0  0  0  0  0  0  0  0  0
  134.8323   70.5126  224.4416 H   0  0  0  0  0  0  0  0  0  0  0  0
  133.5775   68.4547  223.7120 H   0  0  0  0  0  0  0  0  0  0  0  0
  134.0785   69.6243  222.4022 H   0  0  0  0  0  0  0  0  0  0  0  0
  135.2224   66.9340  223.0713 H   0  0  0  0  0  0  0  0  0  0  0  0
  134.4307   67.5383  221.5381 H   0  0  0  0  0  0  0  0  0  0  0  0
  136.9357   67.2945  221.3712 H   0  0  0  0  0  0  0  0  0  0  0  0
  136.3323   68.9362  221.0246 H   0  0  0  0  0  0  0  0  0  0  0  0
  1  2  2  0
  2  3  1  0
  3  4  2  0
  4  5  1  0
  5  6  2  0
  6  7  1  0
  7  8  2  0
  8  9  1  0
  9 10  2  0
 10 11  1  0
 11 12  2  0
 12 13  1  0
 13 14  2  0
 14 15  1  0
 15 16  2  0
 16 17  1  0
 17 18  1  0
 18 19  1  0
 19 20  1  0
 20 21  1  0
 21 22  1  0
 21 23  1  0
 16 24  1  0
 24 25  2  0
 10 26  1  0
 26 27  1  0
 27 28  1  0
 28 29  1  0
 29 30  1  0
 30 31  1  0
 31 32  1  0
 32 33  1  0
 26  2  1  0
 33 28  1  0
  8  3  1  0
 25 13  1  0
 23 18  1  0
  4 34  1  0
  5 35  1  0
  6 36  1  0
  7 37  1  0
 11 38  1  0
 12 39  1  0
 14 40  1  0
 15 41  1  0
 17 42  1  0
 17 43  1  0
 19 44  1  0
 19 45  1  0
 20 46  1  0
 20 47  1  0
 21 48  1  6
 22 49  1  0
 23 50  1  0
 23 51  1  0
 24 52  1  0
 25 53  1  0
 27 54  1  0
 27 55  1  0
 28 56  1  0
 29 57  1  0
 29 58  1  0
 30 59  1  0
 30 60  1  0
 31 61  1  0
 31 62  1  0
 32 63  1  0
 32 64  1  0
 33 65  1  0
 33 66  1  0
M  END
>  <smiles>  (65) 
O=c1c2ccccc2nc(/C=C/c2ccc(CN3CCC(O)C3)cc2)n1CC1CCCCC1

>  <score_type>  (65) 
oracle

>  <origin>  (65) 
autodockgpu

>  <m_score__min__energy>  (65) 
-9.3900000000000006

>  <m_primary>  (65) 
energy

>  <rmsd>  (65) 
11.30907509988938

>  <m_score__min__rmsd>  (65) 
11.30907509988938

>  <meeko>  (65) 
{"free_energy": -9.21, "intermolecular_energy": -11.59, "internal_energy": -1.67, "cluster_size": 37, "cluster_id": 1, "rank_in_cluster": 8}

>  <energy>  (65) 
-8.89

>  <cluster_rmsd>  (65) 
0.69

>  <cluster>  (65) 
1

$$$$

     RDKit          3D

 66 70  0  0  0  0  0  0  0  0999 V2000
  139.0170   67.8690  225.7220 O   0  0  0  0  0  0  0  0  0  0  0  0
  139.3120   69.0330  225.3320 C   0  0  0  0  0  0  0  0  0  0  0  0
  139.9960   69.8290  226.2270 C   0  0  0  0  0  0  0  0  0  0  0  0
  140.3490   69.3890  227.4920 C   0  0  0  0  0  0  0  0  0  0  0  0
  141.0410   70.2400  228.3560 C   0  0  0  0  0  0  0  0  0  0  0  0
  141.3720   71.5330  227.9270 C   0  0  0  0  0  0  0  0  0  0  0  0
  141.0210   71.9700  226.6670 C   0  0  0  0  0  0  0  0  0  0  0  0
  140.3290   71.1030  225.8200 C   0  0  0  0  0  0  0  0  0  0  0  0
  139.9770   71.5020  224.5940 N   0  0  0  0  0  0  0  0  0  0  0  0
  139.3110   70.7140  223.7350 C   0  0  0  0  0  0  0  0  0  0  0  0
  138.9630   71.2660  222.4190 C   0  0  0  0  0  0  0  0  0  0  0  0
  139.8510   71.9520  221.7250 C   0  0  0  0  0  0  0  0  0  0  0  0
  139.9910   73.3830  221.7270 C   0  0  0  0  0  0  0  0  0  0  0  0
  141.2450   73.9780  221.5900 C   0  0  0  0  0  0  0  0  0  0  0  0
  141.4160   75.3420  221.5870 C   0  0  0  0  0  0  0  0  0  0  0  0
  140.3520   76.1970  221.7230 C   0  0  0  0  0  0  0  0  0  0  0  0
  140.4790   77.6720  221.7420 C   0  0  0  0  0  0  0  0  0  0  0  0
  140.5430   78.1880  223.0660 N   0  0  0  0  0  0  0  0  0  0  0  0
  139.6250   79.3130  223.1610 C   0  0  0  0  0  0  0  0  0  0  0  0
  140.3980   80.4920  223.6850 C   0  0  0  0  0  0  0  0  0  0  0  0
  141.8250   80.1530  223.2320 C   0  0  1  0  0  0  0  0  0  0  0  0
  142.7700   80.8280  223.9750 O   0  0  0  0  0  0  0  0  0  0  0  0
  141.8170   78.6510  223.5010 C   0  0  0  0  0  0  0  0  0  0  0  0
  139.1010   75.6410  221.8610 C   0  0  0  0  0  0  0  0  0  0  0  0
  138.9310   74.2650  221.8620 C   0  0  0  0  0  0  0  0  0  0  0  0
  138.9660   69.4620  224.0890 N   0  0  0  0  0  0  0  0  0  0  0  0
  138.2650   68.5780  223.1900 C   0  0  0  0  0  0  0  0  0  0  0  0
  136.8260   68.9510  223.1320 C   0  0  0  0  0  0  0  0  0  0  0  0
  135.9910   67.9230  222.3840 C   0  0  0  0  0  0  0  0  0  0  0  0
  134.7100   68.6110  221.9750 C   0  0  0  0  0  0  0  0  0  0  0  0
  133.9610   69.1500  223.1700 C   0  0  0  0  0  0  0  0  0  0  0  0
  134.8160   69.9370  224.0970 C   0  0  0  0  0  0  0  0  0  0  0  0
  136.1580   69.2630  224.4200 C   0  0  0  0  0  0  0  0  0  0  0  0
  140.0847   68.3713  227.8153 H   0  0  0  0  0  0  0  0  0  0  0  0
  141.3236   69.8994  229.3630 H   0  0  0  0  0  0  0  0  0  0  0  0
  141.9181   72.2069  228.6034 H   0  0  0  0  0  0  0  0  0  0  0  0
  141.2822   72.9856  226.3348 H   0  0  0  0  0  0  0  0  0  0  0  0
  137.9548   71.1063  222.0092 H   0  0  0  0  0  0  0  0  0  0  0  0
  140.5438   71.3800  221.0903 H   0  0  0  0  0  0  0  0  0  0  0  0
  142.1290   73.3326  221.4804 H   0  0  0  0  0  0  0  0  0  0  0  0
  142.4283   75.7569  221.4730 H   0  0  0  0  0  0  0  0  0  0  0  0
  141.3970   77.9556  221.2064 H   0  0  0  0  0  0  0  0  0  0  0  0
  139.5865   78.0944  221.2573 H   0  0  0  0  0  0  0  0  0  0  0  0
  139.2142   79.5461  222.1675 H   0  0  0  0  0  0  0  0  0  0  0  0
  138.7885   79.0716  223.8333 H   0  0  0  0  0  0  0  0  0  0  0  0
  140.0475   81.4331  223.2362 H   0  0  0  0  0  0  0  0  0  0  0  0
  140.2979   80.6459  224.7696 H   0  0  0  0  0  0  0  0  0  0  0  0
  142.0799   80.4330  222.1992 H   0  0  0  0  0  0  0  0  0  0  0  0
  143.6640   80.8090  223.5600 H   0  0  0  0  0  0  0  0  0  0  0  0
  142.6191   78.1557  222.9341 H   0  0  0  0  0  0  0  0  0  0  0  0
  141.9882   78.4283  224.5645 H   0  0  0  0  0  0  0  0  0  0  0  0
  138.2246   76.2965  221.9719 H   0  0  0  0  0  0  0  0  0  0  0  0
  137.9153   73.8578  221.9743 H   0  0  0  0  0  0  0  0  0  0  0  0
  138.7033   68.6582  222.1843 H   0  0  0  0  0  0  0  0  0  0  0  0
  138.3565   67.5442  223.5544 H   0  0  0  0  0  0  0  0  0  0  0  0
  136.8682   69.9021  222.5809 H   0  0  0  0  0  0  0  0  0  0  0  0
  136.5326   67.5716  221.4934 H   0  0  0  0  0  0  0  0  0  0  0  0
  135.7829   67.0485  223.0180 H   0  0  0  0  0  0  0  0  0  0  0  0
  134.9528   69.4451  221.3003 H   0  0  0  0  0  0  0  0  0  0  0  0
  134.0686   67.8721  221.4723 H   0  0  0  0  0  0  0  0  0  0  0  0
  133.1491   69.7986  222.8091 H   0  0  0  0  0  0  0  0  0  0  0  0
  133.5825   68.2844  223.7334 H   0  0  0  0  0  0  0  0  0  0  0  0
  135.0202   70.9146  223.6359 H   0  0  0  0  0  0  0  0  0  0  0  0
  134.2649   70.0275  225.0447 H   0  0  0  0  0  0  0  0  0  0  0  0
  136.7864   69.9438  225.0130 H   0  0  0  0  0  0  0  0  0  0  0  0
  135.9980   68.3447  225.0041 H   0  0  0  0  0  0  0  0  0  0  0  0
  1  2  2  0
  2  3  1  0
  3  4  2  0
  4  5  1  0
  5  6  2  0
  6  7  1  0
  7  8  2  0
  8  9  1  0
  9 10  2  0
 10 11  1  0
 11 12  2  0
 12 13  1  0
 13 14  2  0
 14 15  1  0
 15 16  2  0
 16 17  1  0
 17 18  1  0
 18 19  1  0
 19 20  1  0
 20 21  1  0
 21 22  1  0
 21 23  1  0
 16 24  1  0
 24 25  2  0
 10 26  1  0
 26 27  1  0
 27 28  1  0
 28 29  1  0
 29 30  1  0
 30 31  1  0
 31 32  1  0
 32 33  1  0
 26  2  1  0
 33 28  1  0
  8  3  1  0
 25 13  1  0
 23 18  1  0
  4 34  1  0
  5 35  1  0
  6 36  1  0
  7 37  1  0
 11 38  1  0
 12 39  1  0
 14 40  1  0
 15 41  1  0
 17 42  1  0
 17 43  1  0
 19 44  1  0
 19 45  1  0
 20 46  1  0
 20 47  1  0
 21 48  1  6
 22 49  1  0
 23 50  1  0
 23 51  1  0
 24 52  1  0
 25 53  1  0
 27 54  1  0
 27 55  1  0
 28 56  1  0
 29 57  1  0
 29 58  1  0
 30 59  1  0
 30 60  1  0
 31 61  1  0
 31 62  1  0
 32 63  1  0
 32 64  1  0
 33 65  1  0
 33 66  1  0
M  END
>  <smiles>  (66) 
O=c1c2ccccc2nc(/C=C/c2ccc(CN3CCC(O)C3)cc2)n1CC1CCCCC1

>  <score_type>  (66) 
oracle

>  <origin>  (66) 
autodockgpu

>  <m_score__min__energy>  (66) 
-9.3900000000000006

>  <m_primary>  (66) 
energy

>  <rmsd>  (66) 
11.524235537582273

>  <m_score__min__rmsd>  (66) 
11.524235537582273

>  <meeko>  (66) 
{"free_energy": -8.61, "intermolecular_energy": -10.99, "internal_energy": -1.67, "cluster_size": 37, "cluster_id": 1, "rank_in_cluster": 32}

>  <energy>  (66) 
-8.89

>  <cluster_rmsd>  (66) 
0.9

>  <cluster>  (66) 
1

$$$$

     RDKit          3D

 66 70  0  0  0  0  0  0  0  0999 V2000
  139.1860   67.8650  225.2240 O   0  0  0  0  0  0  0  0  0  0  0  0
  139.5100   69.0590  224.9690 C   0  0  0  0  0  0  0  0  0  0  0  0
  140.0510   69.7860  226.0080 C   0  0  0  0  0  0  0  0  0  0  0  0
  140.2350   69.2520  227.2720 C   0  0  0  0  0  0  0  0  0  0  0  0
  140.7880   70.0370  228.2850 C   0  0  0  0  0  0  0  0  0  0  0  0
  141.1500   71.3630  228.0070 C   0  0  0  0  0  0  0  0  0  0  0  0
  140.9660   71.8950  226.7480 C   0  0  0  0  0  0  0  0  0  0  0  0
  140.4120   71.0910  225.7500 C   0  0  0  0  0  0  0  0  0  0  0  0
  140.2240   71.5830  224.5210 N   0  0  0  0  0  0  0  0  0  0  0  0
  139.6960   70.8590  223.5210 C   0  0  0  0  0  0  0  0  0  0  0  0
  139.5210   71.5110  222.2160 C   0  0  0  0  0  0  0  0  0  0  0  0
  140.4730   72.2760  221.7160 C   0  0  0  0  0  0  0  0  0  0  0  0
  140.4020   73.7030  221.5540 C   0  0  0  0  0  0  0  0  0  0  0  0
  139.5570   74.4710  222.3540 C   0  0  0  0  0  0  0  0  0  0  0  0
  139.4640   75.8370  222.2270 C   0  0  0  0  0  0  0  0  0  0  0  0
  140.2060   76.5210  221.2970 C   0  0  0  0  0  0  0  0  0  0  0  0
  140.1360   77.9870  221.1060 C   0  0  0  0  0  0  0  0  0  0  0  0
  140.4260   78.6990  222.3040 N   0  0  0  0  0  0  0  0  0  0  0  0
  140.1030   80.1010  222.0900 C   0  0  0  0  0  0  0  0  0  0  0  0
  141.3210   80.9110  222.4420 C   0  0  0  0  0  0  0  0  0  0  0  0
  142.4480   79.8970  222.2010 C   0  0  1  0  0  0  0  0  0  0  0  0
  143.5960   80.2380  222.8830 O   0  0  0  0  0  0  0  0  0  0  0  0
  141.7740   78.6460  222.7580 C   0  0  0  0  0  0  0  0  0  0  0  0
  141.0500   75.7900  220.4920 C   0  0  0  0  0  0  0  0  0  0  0  0
  141.1410   74.4130  220.6230 C   0  0  0  0  0  0  0  0  0  0  0  0
  139.3300   69.5810  223.7270 N   0  0  0  0  0  0  0  0  0  0  0  0
  138.7740   68.7650  222.6740 C   0  0  0  0  0  0  0  0  0  0  0  0
  137.3250   68.5370  222.9210 C   0  0  0  0  0  0  0  0  0  0  0  0
  136.6370   69.7640  223.5000 C   0  0  0  0  0  0  0  0  0  0  0  0
  135.3570   69.2870  224.1430 C   0  0  0  0  0  0  0  0  0  0  0  0
  134.4630   68.5830  223.1500 C   0  0  0  0  0  0  0  0  0  0  0  0
  135.1710   67.5530  222.3460 C   0  0  0  0  0  0  0  0  0  0  0  0
  136.5190   68.0280  221.7850 C   0  0  0  0  0  0  0  0  0  0  0  0
  139.9459   68.2108  227.4776 H   0  0  0  0  0  0  0  0  0  0  0  0
  140.9384   69.6196  229.2916 H   0  0  0  0  0  0  0  0  0  0  0  0
  141.5856   71.9858  228.8022 H   0  0  0  0  0  0  0  0  0  0  0  0
  141.2510   72.9356  226.5336 H   0  0  0  0  0  0  0  0  0  0  0  0
  138.5891   71.3603  221.6513 H   0  0  0  0  0  0  0  0  0  0  0  0
  141.4007   71.7793  221.3956 H   0  0  0  0  0  0  0  0  0  0  0  0
  138.9427   73.9661  223.1140 H   0  0  0  0  0  0  0  0  0  0  0  0
  138.7802   76.3934  222.8849 H   0  0  0  0  0  0  0  0  0  0  0  0
  140.8642   78.2791  220.3350 H   0  0  0  0  0  0  0  0  0  0  0  0
  139.1093   78.2397  220.8026 H   0  0  0  0  0  0  0  0  0  0  0  0
  139.8347   80.2668  221.0362 H   0  0  0  0  0  0  0  0  0  0  0  0
  139.2487   80.3989  222.7156 H   0  0  0  0  0  0  0  0  0  0  0  0
  141.4231   81.7878  221.7857 H   0  0  0  0  0  0  0  0  0  0  0  0
  141.3030   81.3255  223.4608 H   0  0  0  0  0  0  0  0  0  0  0  0
  142.7982   79.8067  221.1622 H   0  0  0  0  0  0  0  0  0  0  0  0
  144.4160   79.9750  222.4030 H   0  0  0  0  0  0  0  0  0  0  0  0
  142.2712   77.7413  222.3781 H   0  0  0  0  0  0  0  0  0  0  0  0
  141.8310   78.6093  223.8559 H   0  0  0  0  0  0  0  0  0  0  0  0
  141.6600   76.3050  219.7352 H   0  0  0  0  0  0  0  0  0  0  0  0
  141.8269   73.8631  219.9617 H   0  0  0  0  0  0  0  0  0  0  0  0
  138.9033   69.2771  221.7091 H   0  0  0  0  0  0  0  0  0  0  0  0
  139.2945   67.7962  222.6538 H   0  0  0  0  0  0  0  0  0  0  0  0
  137.3538   67.7174  223.6540 H   0  0  0  0  0  0  0  0  0  0  0  0
  137.2832   70.2405  224.2519 H   0  0  0  0  0  0  0  0  0  0  0  0
  136.4303   70.5064  222.7151 H   0  0  0  0  0  0  0  0  0  0  0  0
  135.6049   68.5896  224.9567 H   0  0  0  0  0  0  0  0  0  0  0  0
  134.8180   70.1653  224.5279 H   0  0  0  0  0  0  0  0  0  0  0  0
  133.6461   68.0944  223.7013 H   0  0  0  0  0  0  0  0  0  0  0  0
  134.0930   69.3452  222.4484 H   0  0  0  0  0  0  0  0  0  0  0  0
  135.3504   66.6760  222.9853 H   0  0  0  0  0  0  0  0  0  0  0  0
  134.5282   67.3194  221.4844 H   0  0  0  0  0  0  0  0  0  0  0  0
  137.0405   67.1887  221.3018 H   0  0  0  0  0  0  0  0  0  0  0  0
  136.3676   68.8182  221.0349 H   0  0  0  0  0  0  0  0  0  0  0  0
  1  2  2  0
  2  3  1  0
  3  4  2  0
  4  5  1  0
  5  6  2  0
  6  7  1  0
  7  8  2  0
  8  9  1  0
  9 10  2  0
 10 11  1  0
 11 12  2  0
 12 13  1  0
 13 14  2  0
 14 15  1  0
 15 16  2  0
 16 17  1  0
 17 18  1  0
 18 19  1  0
 19 20  1  0
 20 21  1  0
 21 22  1  0
 21 23  1  0
 16 24  1  0
 24 25  2  0
 10 26  1  0
 26 27  1  0
 27 28  1  0
 28 29  1  0
 29 30  1  0
 30 31  1  0
 31 32  1  0
 32 33  1  0
 26  2  1  0
 33 28  1  0
  8  3  1  0
 25 13  1  0
 23 18  1  0
  4 34  1  0
  5 35  1  0
  6 36  1  0
  7 37  1  0
 11 38  1  0
 12 39  1  0
 14 40  1  0
 15 41  1  0
 17 42  1  0
 17 43  1  0
 19 44  1  0
 19 45  1  0
 20 46  1  0
 20 47  1  0
 21 48  1  6
 22 49  1  0
 23 50  1  0
 23 51  1  0
 24 52  1  0
 25 53  1  0
 27 54  1  0
 27 55  1  0
 28 56  1  0
 29 57  1  0
 29 58  1  0
 30 59  1  0
 30 60  1  0
 31 61  1  0
 31 62  1  0
 32 63  1  0
 32 64  1  0
 33 65  1  0
 33 66  1  0
M  END
>  <smiles>  (67) 
O=c1c2ccccc2nc(/C=C/c2ccc(CN3CCC(O)C3)cc2)n1CC1CCCCC1

>  <score_type>  (67) 
oracle

>  <origin>  (67) 
autodockgpu

>  <m_score__min__energy>  (67) 
-9.3900000000000006

>  <m_primary>  (67) 
energy

>  <rmsd>  (67) 
11.453503010942697

>  <m_score__min__rmsd>  (67) 
11.453503010942697

>  <meeko>  (67) 
{"free_energy": -8.64, "intermolecular_energy": -11.02, "internal_energy": -1.66, "cluster_size": 37, "cluster_id": 1, "rank_in_cluster": 29}

>  <energy>  (67) 
-8.89

>  <cluster_rmsd>  (67) 
0.53

>  <cluster>  (67) 
1

$$$$

     RDKit          3D

 66 70  0  0  0  0  0  0  0  0999 V2000
  139.1710   67.7730  225.4070 O   0  0  0  0  0  0  0  0  0  0  0  0
  139.4680   68.9540  225.0710 C   0  0  0  0  0  0  0  0  0  0  0  0
  140.0020   69.7590  226.0550 C   0  0  0  0  0  0  0  0  0  0  0  0
  140.2080   69.3120  227.3490 C   0  0  0  0  0  0  0  0  0  0  0  0
  140.7520   70.1730  228.3050 C   0  0  0  0  0  0  0  0  0  0  0  0
  141.0830   71.4850  227.9360 C   0  0  0  0  0  0  0  0  0  0  0  0
  140.8790   71.9300  226.6470 C   0  0  0  0  0  0  0  0  0  0  0  0
  140.3340   71.0510  225.7090 C   0  0  0  0  0  0  0  0  0  0  0  0
  140.1250   71.4580  224.4530 N   0  0  0  0  0  0  0  0  0  0  0  0
  139.6040   70.6590  223.5070 C   0  0  0  0  0  0  0  0  0  0  0  0
  139.4050   71.2210  222.1640 C   0  0  0  0  0  0  0  0  0  0  0  0
  140.2850   72.0590  221.6510 C   0  0  0  0  0  0  0  0  0  0  0  0
  140.2320   73.4920  221.7490 C   0  0  0  0  0  0  0  0  0  0  0  0
  139.0320   74.1450  222.0280 C   0  0  0  0  0  0  0  0  0  0  0  0
  138.9450   75.5140  222.1290 C   0  0  0  0  0  0  0  0  0  0  0  0
  140.0450   76.3150  221.9580 C   0  0  0  0  0  0  0  0  0  0  0  0
  140.0080   77.7930  222.0410 C   0  0  0  0  0  0  0  0  0  0  0  0
  141.3110   78.3610  222.0980 N   0  0  0  0  0  0  0  0  0  0  0  0
  141.6230   78.6480  223.4890 C   0  0  0  0  0  0  0  0  0  0  0  0
  142.0260   80.0940  223.5800 C   0  0  0  0  0  0  0  0  0  0  0  0
  141.2910   80.6970  222.3750 C   0  0  1  0  0  0  0  0  0  0  0  0
  141.8580   81.8880  221.9740 O   0  0  0  0  0  0  0  0  0  0  0  0
  141.5050   79.5680  221.3690 C   0  0  0  0  0  0  0  0  0  0  0  0
  141.2450   75.7000  221.6820 C   0  0  0  0  0  0  0  0  0  0  0  0
  141.3300   74.3200  221.5810 C   0  0  0  0  0  0  0  0  0  0  0  0
  139.2670   69.3900  223.8000 N   0  0  0  0  0  0  0  0  0  0  0  0
  138.7200   68.4950  222.8080 C   0  0  0  0  0  0  0  0  0  0  0  0
  137.2670   68.7620  222.6320 C   0  0  0  0  0  0  0  0  0  0  0  0
  136.5300   67.5750  222.0280 C   0  0  0  0  0  0  0  0  0  0  0  0
  135.2350   68.1050  221.4600 C   0  0  0  0  0  0  0  0  0  0  0  0
  134.3970   68.7800  222.5200 C   0  0  0  0  0  0  0  0  0  0  0  0
  135.1590   69.7590  223.3390 C   0  0  0  0  0  0  0  0  0  0  0  0
  136.5180   69.2330  223.8220 C   0  0  0  0  0  0  0  0  0  0  0  0
  139.9436   68.2802  227.6239 H   0  0  0  0  0  0  0  0  0  0  0  0
  140.9189   69.8260  229.3354 H   0  0  0  0  0  0  0  0  0  0  0  0
  141.5109   72.1679  228.6847 H   0  0  0  0  0  0  0  0  0  0  0  0
  141.1411   72.9598  226.3626 H   0  0  0  0  0  0  0  0  0  0  0  0
  138.5149   70.9406  221.5817 H   0  0  0  0  0  0  0  0  0  0  0  0
  141.1323   71.6237  221.1009 H   0  0  0  0  0  0  0  0  0  0  0  0
  138.1223   73.5438  222.1725 H   0  0  0  0  0  0  0  0  0  0  0  0
  137.9721   75.9764  222.3518 H   0  0  0  0  0  0  0  0  0  0  0  0
  139.4894   78.1847  221.1536 H   0  0  0  0  0  0  0  0  0  0  0  0
  139.4799   78.0660  222.9665 H   0  0  0  0  0  0  0  0  0  0  0  0
  140.7380   78.4658  224.1164 H   0  0  0  0  0  0  0  0  0  0  0  0
  142.4377   77.9988  223.8422 H   0  0  0  0  0  0  0  0  0  0  0  0
  141.6874   80.5462  224.5238 H   0  0  0  0  0  0  0  0  0  0  0  0
  143.1139   80.2565  223.5672 H   0  0  0  0  0  0  0  0  0  0  0  0
  140.2390   80.9709  222.5430 H   0  0  0  0  0  0  0  0  0  0  0  0
  141.1900   82.5980  221.8330 H   0  0  0  0  0  0  0  0  0  0  0  0
  140.7760   79.6420  220.5486 H   0  0  0  0  0  0  0  0  0  0  0  0
  142.5063   79.6123  220.9158 H   0  0  0  0  0  0  0  0  0  0  0  0
  142.1483   76.3114  221.5397 H   0  0  0  0  0  0  0  0  0  0  0  0
  142.3066   73.8650  221.3590 H   0  0  0  0  0  0  0  0  0  0  0  0
  139.2382   68.6512  221.8504 H   0  0  0  0  0  0  0  0  0  0  0  0
  138.8598   67.4560  223.1410 H   0  0  0  0  0  0  0  0  0  0  0  0
  137.2838   69.6139  221.9363 H   0  0  0  0  0  0  0  0  0  0  0  0
  137.1351   67.1205  221.2297 H   0  0  0  0  0  0  0  0  0  0  0  0
  136.3396   66.8022  222.7873 H   0  0  0  0  0  0  0  0  0  0  0  0
  135.4643   68.8339  220.6687 H   0  0  0  0  0  0  0  0  0  0  0  0
  134.6627   67.2557  221.0586 H   0  0  0  0  0  0  0  0  0  0  0  0
  133.5687   69.3086  222.0256 H   0  0  0  0  0  0  0  0  0  0  0  0
  134.0400   67.9939  223.2017 H   0  0  0  0  0  0  0  0  0  0  0  0
  135.3310   70.6603  222.7323 H   0  0  0  0  0  0  0  0  0  0  0  0
  134.5568   69.9660  224.2359 H   0  0  0  0  0  0  0  0  0  0  0  0
  137.0759   70.0389  224.3212 H   0  0  0  0  0  0  0  0  0  0  0  0
  136.3803   68.4119  224.5409 H   0  0  0  0  0  0  0  0  0  0  0  0
  1  2  2  0
  2  3  1  0
  3  4  2  0
  4  5  1  0
  5  6  2  0
  6  7  1  0
  7  8  2  0
  8  9  1  0
  9 10  2  0
 10 11  1  0
 11 12  2  0
 12 13  1  0
 13 14  2  0
 14 15  1  0
 15 16  2  0
 16 17  1  0
 17 18  1  0
 18 19  1  0
 19 20  1  0
 20 21  1  0
 21 22  1  0
 21 23  1  0
 16 24  1  0
 24 25  2  0
 10 26  1  0
 26 27  1  0
 27 28  1  0
 28 29  1  0
 29 30  1  0
 30 31  1  0
 31 32  1  0
 32 33  1  0
 26  2  1  0
 33 28  1  0
  8  3  1  0
 25 13  1  0
 23 18  1  0
  4 34  1  0
  5 35  1  0
  6 36  1  0
  7 37  1  0
 11 38  1  0
 12 39  1  0
 14 40  1  0
 15 41  1  0
 17 42  1  0
 17 43  1  0
 19 44  1  0
 19 45  1  0
 20 46  1  0
 20 47  1  0
 21 48  1  1
 22 49  1  0
 23 50  1  0
 23 51  1  0
 24 52  1  0
 25 53  1  0
 27 54  1  0
 27 55  1  0
 28 56  1  0
 29 57  1  0
 29 58  1  0
 30 59  1  0
 30 60  1  0
 31 61  1  0
 31 62  1  0
 32 63  1  0
 32 64  1  0
 33 65  1  0
 33 66  1  0
M  END
>  <smiles>  (68) 
O=c1c2ccccc2nc(/C=C/c2ccc(CN3CCC(O)C3)cc2)n1CC1CCCCC1

>  <score_type>  (68) 
oracle

>  <origin>  (68) 
autodockgpu

>  <m_score__min__energy>  (68) 
-9.3900000000000006

>  <m_primary>  (68) 
energy

>  <rmsd>  (68) 
11.461567284823555

>  <m_score__min__rmsd>  (68) 
11.461567284823555

>  <meeko>  (68) 
{"free_energy": -8.6, "intermolecular_energy": -10.98, "internal_energy": -1.7, "cluster_size": 37, "cluster_id": 1, "rank_in_cluster": 33}

>  <energy>  (68) 
-8.86

>  <cluster_rmsd>  (68) 
0.79

>  <cluster>  (68) 
1

$$$$

     RDKit          3D

 66 70  0  0  0  0  0  0  0  0999 V2000
  138.9210   68.1280  225.1400 O   0  0  0  0  0  0  0  0  0  0  0  0
  139.4080   69.2740  224.9280 C   0  0  0  0  0  0  0  0  0  0  0  0
  139.9590   69.9200  226.0140 C   0  0  0  0  0  0  0  0  0  0  0  0
  139.9850   69.3560  227.2790 C   0  0  0  0  0  0  0  0  0  0  0  0
  140.5560   70.0590  228.3420 C   0  0  0  0  0  0  0  0  0  0  0  0
  141.0990   71.3310  228.1120 C   0  0  0  0  0  0  0  0  0  0  0  0
  141.0730   71.8920  226.8520 C   0  0  0  0  0  0  0  0  0  0  0  0
  140.4970   71.1710  225.8040 C   0  0  0  0  0  0  0  0  0  0  0  0
  140.4600   71.6920  224.5740 N   0  0  0  0  0  0  0  0  0  0  0  0
  139.9190   71.0480  223.5270 C   0  0  0  0  0  0  0  0  0  0  0  0
  139.9200   71.7270  222.2240 C   0  0  0  0  0  0  0  0  0  0  0  0
  139.0020   72.6300  221.9390 C   0  0  0  0  0  0  0  0  0  0  0  0
  139.1900   74.0550  221.9760 C   0  0  0  0  0  0  0  0  0  0  0  0
  138.1350   74.9060  222.3070 C   0  0  0  0  0  0  0  0  0  0  0  0
  138.2790   76.2730  222.3540 C   0  0  0  0  0  0  0  0  0  0  0  0
  139.4780   76.8760  222.0720 C   0  0  0  0  0  0  0  0  0  0  0  0
  139.6870   78.3420  222.0920 C   0  0  0  0  0  0  0  0  0  0  0  0
  140.3990   78.7670  223.2480 N   0  0  0  0  0  0  0  0  0  0  0  0
  140.1220   80.1790  223.4600 C   0  0  0  0  0  0  0  0  0  0  0  0
  141.4410   80.8960  223.5530 C   0  0  0  0  0  0  0  0  0  0  0  0
  142.3550   79.9710  222.7390 C   0  0  1  0  0  0  0  0  0  0  0  0
  143.6830   80.1570  223.0560 O   0  0  0  0  0  0  0  0  0  0  0  0
  141.8150   78.6210  223.2050 C   0  0  0  0  0  0  0  0  0  0  0  0
  140.5390   76.0630  221.7420 C   0  0  0  0  0  0  0  0  0  0  0  0
  140.3910   74.6850  221.6970 C   0  0  0  0  0  0  0  0  0  0  0  0
  139.3830   69.8250  223.6860 N   0  0  0  0  0  0  0  0  0  0  0  0
  138.8070   69.0920  222.5830 C   0  0  0  0  0  0  0  0  0  0  0  0
  137.3510   69.3790  222.4900 C   0  0  0  0  0  0  0  0  0  0  0  0
  136.8640   70.2750  223.6200 C   0  0  0  0  0  0  0  0  0  0  0  0
  135.3660   70.0990  223.7060 C   0  0  0  0  0  0  0  0  0  0  0  0
  134.6880   70.4540  222.4030 C   0  0  0  0  0  0  0  0  0  0  0  0
  135.3180   69.8160  221.2170 C   0  0  0  0  0  0  0  0  0  0  0  0
  136.8500   69.9200  221.2030 C   0  0  0  0  0  0  0  0  0  0  0  0
  139.5568   68.3566  227.4458 H   0  0  0  0  0  0  0  0  0  0  0  0
  140.5795   69.6191  229.3499 H   0  0  0  0  0  0  0  0  0  0  0  0
  141.5510   71.8881  228.9459 H   0  0  0  0  0  0  0  0  0  0  0  0
  141.4989   72.8907  226.6758 H   0  0  0  0  0  0  0  0  0  0  0  0
  140.6923   71.4803  221.4806 H   0  0  0  0  0  0  0  0  0  0  0  0
  138.0073   72.2614  221.6480 H   0  0  0  0  0  0  0  0  0  0  0  0
  137.1529   74.4679  222.5387 H   0  0  0  0  0  0  0  0  0  0  0  0
  137.4136   76.8962  222.6237 H   0  0  0  0  0  0  0  0  0  0  0  0
  140.2587   78.6307  221.1977 H   0  0  0  0  0  0  0  0  0  0  0  0
  138.6984   78.8241  222.1077 H   0  0  0  0  0  0  0  0  0  0  0  0
  139.5382   80.5768  222.6168 H   0  0  0  0  0  0  0  0  0  0  0  0
  139.5400   80.3227  224.3823 H   0  0  0  0  0  0  0  0  0  0  0  0
  141.3846   81.8993  223.1055 H   0  0  0  0  0  0  0  0  0  0  0  0
  141.7839   81.0688  224.5838 H   0  0  0  0  0  0  0  0  0  0  0  0
  142.3403   80.1205  221.6493 H   0  0  0  0  0  0  0  0  0  0  0  0
  144.2920   79.7480  222.3980 H   0  0  0  0  0  0  0  0  0  0  0  0
  142.0977   77.8292  222.4957 H   0  0  0  0  0  0  0  0  0  0  0  0
  142.2240   78.3365  224.1857 H   0  0  0  0  0  0  0  0  0  0  0  0
  141.5162   76.5122  221.5112 H   0  0  0  0  0  0  0  0  0  0  0  0
  141.2617   74.0683  221.4292 H   0  0  0  0  0  0  0  0  0  0  0  0
  139.2990   69.3952  221.6470 H   0  0  0  0  0  0  0  0  0  0  0  0
  138.9539   68.0144  222.7482 H   0  0  0  0  0  0  0  0  0  0  0  0
  136.9239   68.3688  222.5734 H   0  0  0  0  0  0  0  0  0  0  0  0
  137.3348   69.9771  224.5685 H   0  0  0  0  0  0  0  0  0  0  0  0
  137.1264   71.3261  223.4296 H   0  0  0  0  0  0  0  0  0  0  0  0
  135.1434   69.0497  223.9499 H   0  0  0  0  0  0  0  0  0  0  0  0
  134.9848   70.7735  224.4869 H   0  0  0  0  0  0  0  0  0  0  0  0
  133.6381   70.1303  222.4566 H   0  0  0  0  0  0  0  0  0  0  0  0
  134.7812   71.5425  222.2743 H   0  0  0  0  0  0  0  0  0  0  0  0
  135.0418   68.7513  221.2073 H   0  0  0  0  0  0  0  0  0  0  0  0
  134.9506   70.3521  220.3295 H   0  0  0  0  0  0  0  0  0  0  0  0
  137.2576   69.3337  220.3662 H   0  0  0  0  0  0  0  0  0  0  0  0
  137.1638   70.9668  221.0771 H   0  0  0  0  0  0  0  0  0  0  0  0
  1  2  2  0
  2  3  1  0
  3  4  2  0
  4  5  1  0
  5  6  2  0
  6  7  1  0
  7  8  2  0
  8  9  1  0
  9 10  2  0
 10 11  1  0
 11 12  2  0
 12 13  1  0
 13 14  2  0
 14 15  1  0
 15 16  2  0
 16 17  1  0
 17 18  1  0
 18 19  1  0
 19 20  1  0
 20 21  1  0
 21 22  1  0
 21 23  1  0
 16 24  1  0
 24 25  2  0
 10 26  1  0
 26 27  1  0
 27 28  1  0
 28 29  1  0
 29 30  1  0
 30 31  1  0
 31 32  1  0
 32 33  1  0
 26  2  1  0
 33 28  1  0
  8  3  1  0
 25 13  1  0
 23 18  1  0
  4 34  1  0
  5 35  1  0
  6 36  1  0
  7 37  1  0
 11 38  1  0
 12 39  1  0
 14 40  1  0
 15 41  1  0
 17 42  1  0
 17 43  1  0
 19 44  1  0
 19 45  1  0
 20 46  1  0
 20 47  1  0
 21 48  1  6
 22 49  1  0
 23 50  1  0
 23 51  1  0
 24 52  1  0
 25 53  1  0
 27 54  1  0
 27 55  1  0
 28 56  1  0
 29 57  1  0
 29 58  1  0
 30 59  1  0
 30 60  1  0
 31 61  1  0
 31 62  1  0
 32 63  1  0
 32 64  1  0
 33 65  1  0
 33 66  1  0
M  END
>  <smiles>  (69) 
O=c1c2ccccc2nc(/C=C/c2ccc(CN3CCC(O)C3)cc2)n1CC1CCCCC1

>  <score_type>  (69) 
oracle

>  <origin>  (69) 
autodockgpu

>  <m_score__min__energy>  (69) 
-9.3900000000000006

>  <m_primary>  (69) 
energy

>  <rmsd>  (69) 
11.101044161848503

>  <m_score__min__rmsd>  (69) 
11.101044161848503

>  <meeko>  (69) 
{"free_energy": -9.02, "intermolecular_energy": -11.41, "internal_energy": -1.78, "cluster_size": 37, "cluster_id": 1, "rank_in_cluster": 11}

>  <energy>  (69) 
-8.81

>  <cluster_rmsd>  (69) 
0.92

>  <cluster>  (69) 
1

$$$$

     RDKit          3D

 66 70  0  0  0  0  0  0  0  0999 V2000
  142.8330   77.1630  220.1750 O   0  0  0  0  0  0  0  0  0  0  0  0
  141.7010   76.9060  220.6730 C   0  0  0  0  0  0  0  0  0  0  0  0
  141.2160   77.8060  221.5980 C   0  0  0  0  0  0  0  0  0  0  0  0
  141.9210   78.9380  221.9730 C   0  0  0  0  0  0  0  0  0  0  0  0
  141.3790   79.8140  222.9160 C   0  0  0  0  0  0  0  0  0  0  0  0
  140.1220   79.5340  223.4710 C   0  0  0  0  0  0  0  0  0  0  0  0
  139.4210   78.4070  223.0970 C   0  0  0  0  0  0  0  0  0  0  0  0
  139.9820   77.5460  222.1530 C   0  0  0  0  0  0  0  0  0  0  0  0
  139.3220   76.4470  221.7730 N   0  0  0  0  0  0  0  0  0  0  0  0
  139.8090   75.5810  220.8700 C   0  0  0  0  0  0  0  0  0  0  0  0
  139.0020   74.3980  220.5420 C   0  0  0  0  0  0  0  0  0  0  0  0
  138.3210   73.7710  221.4820 C   0  0  0  0  0  0  0  0  0  0  0  0
  138.8380   72.7410  222.3430 C   0  0  0  0  0  0  0  0  0  0  0  0
  137.9760   71.8790  223.0210 C   0  0  0  0  0  0  0  0  0  0  0  0
  138.4350   70.8830  223.8510 C   0  0  0  0  0  0  0  0  0  0  0  0
  139.7770   70.6870  224.0590 C   0  0  0  0  0  0  0  0  0  0  0  0
  140.3260   69.6410  224.9520 C   0  0  0  0  0  0  0  0  0  0  0  0
  139.7420   69.6820  226.2490 N   0  0  0  0  0  0  0  0  0  0  0  0
  140.3980   70.7320  227.0120 C   0  0  0  0  0  0  0  0  0  0  0  0
  140.8930   70.1240  228.2960 C   0  0  0  0  0  0  0  0  0  0  0  0
  141.0710   68.6540  227.8950 C   0  0  1  0  0  0  0  0  0  0  0  0
  141.0680   67.8210  228.9930 O   0  0  0  0  0  0  0  0  0  0  0  0
  139.8320   68.4880  227.0180 C   0  0  0  0  0  0  0  0  0  0  0  0
  140.6530   71.5220  223.4040 C   0  0  0  0  0  0  0  0  0  0  0  0
  140.1870   72.5240  222.5660 C   0  0  0  0  0  0  0  0  0  0  0  0
  141.0100   75.7960  220.3020 N   0  0  0  0  0  0  0  0  0  0  0  0
  141.5620   74.8990  219.3150 C   0  0  0  0  0  0  0  0  0  0  0  0
  142.6840   74.1240  219.9070 C   0  0  0  0  0  0  0  0  0  0  0  0
  142.5090   72.6230  219.7300 C   0  0  0  0  0  0  0  0  0  0  0  0
  143.3980   71.9530  220.7500 C   0  0  0  0  0  0  0  0  0  0  0  0
  144.8450   72.3520  220.5750 C   0  0  0  0  0  0  0  0  0  0  0  0
  145.0400   73.8210  220.4540 C   0  0  0  0  0  0  0  0  0  0  0  0
  144.0570   74.4960  219.4870 C   0  0  0  0  0  0  0  0  0  0  0  0
  142.9056   79.1464  221.5290 H   0  0  0  0  0  0  0  0  0  0  0  0
  141.9325   80.7146  223.2203 H   0  0  0  0  0  0  0  0  0  0  0  0
  139.6902   80.2214  224.2133 H   0  0  0  0  0  0  0  0  0  0  0  0
  138.4358   78.1902  223.5356 H   0  0  0  0  0  0  0  0  0  0  0  0
  138.9653   74.0324  219.5052 H   0  0  0  0  0  0  0  0  0  0  0  0
  137.2686   74.0603  221.6190 H   0  0  0  0  0  0  0  0  0  0  0  0
  136.8909   72.0001  222.8871 H   0  0  0  0  0  0  0  0  0  0  0  0
  137.7106   70.2294  224.3590 H   0  0  0  0  0  0  0  0  0  0  0  0
  140.1293   68.6550  224.5057 H   0  0  0  0  0  0  0  0  0  0  0  0
  141.4054   69.8223  225.0614 H   0  0  0  0  0  0  0  0  0  0  0  0
  141.2446   71.1381  226.4391 H   0  0  0  0  0  0  0  0  0  0  0  0
  139.6958   71.5527  227.2202 H   0  0  0  0  0  0  0  0  0  0  0  0
  141.8470   70.5723  228.6104 H   0  0  0  0  0  0  0  0  0  0  0  0
  140.2180   70.2752  229.1513 H   0  0  0  0  0  0  0  0  0  0  0  0
  142.0211   68.4035  227.4006 H   0  0  0  0  0  0  0  0  0  0  0  0
  141.1500   66.8700  228.7490 H   0  0  0  0  0  0  0  0  0  0  0  0
  139.9430   67.6145  226.3586 H   0  0  0  0  0  0  0  0  0  0  0  0
  138.9267   68.3241  227.6210 H   0  0  0  0  0  0  0  0  0  0  0  0
  141.7361   71.3932  223.5468 H   0  0  0  0  0  0  0  0  0  0  0  0
  140.9175   73.1714  222.0589 H   0  0  0  0  0  0  0  0  0  0  0  0
  140.7793   74.2052  218.9743 H   0  0  0  0  0  0  0  0  0  0  0  0
  141.9365   75.4847  218.4625 H   0  0  0  0  0  0  0  0  0  0  0  0
  142.6097   74.4089  220.9669 H   0  0  0  0  0  0  0  0  0  0  0  0
  141.4593   72.3421  219.9008 H   0  0  0  0  0  0  0  0  0  0  0  0
  142.7788   72.3134  218.7095 H   0  0  0  0  0  0  0  0  0  0  0  0
  143.0670   72.2439  221.7579 H   0  0  0  0  0  0  0  0  0  0  0  0
  143.3221   70.8646  220.6102 H   0  0  0  0  0  0  0  0  0  0  0  0
  145.4134   71.9951  221.4465 H   0  0  0  0  0  0  0  0  0  0  0  0
  145.1966   71.8985  219.6365 H   0  0  0  0  0  0  0  0  0  0  0  0
  144.9126   74.2715  221.4494 H   0  0  0  0  0  0  0  0  0  0  0  0
  146.0501   73.9791  220.0482 H   0  0  0  0  0  0  0  0  0  0  0  0
  144.1791   75.5883  219.5306 H   0  0  0  0  0  0  0  0  0  0  0  0
  144.2461   74.1680  218.4542 H   0  0  0  0  0  0  0  0  0  0  0  0
  1  2  2  0
  2  3  1  0
  3  4  2  0
  4  5  1  0
  5  6  2  0
  6  7  1  0
  7  8  2  0
  8  9  1  0
  9 10  2  0
 10 11  1  0
 11 12  2  0
 12 13  1  0
 13 14  2  0
 14 15  1  0
 15 16  2  0
 16 17  1  0
 17 18  1  0
 18 19  1  0
 19 20  1  0
 20 21  1  0
 21 22  1  0
 21 23  1  0
 16 24  1  0
 24 25  2  0
 10 26  1  0
 26 27  1  0
 27 28  1  0
 28 29  1  0
 29 30  1  0
 30 31  1  0
 31 32  1  0
 32 33  1  0
 26  2  1  0
 33 28  1  0
  8  3  1  0
 25 13  1  0
 23 18  1  0
  4 34  1  0
  5 35  1  0
  6 36  1  0
  7 37  1  0
 11 38  1  0
 12 39  1  0
 14 40  1  0
 15 41  1  0
 17 42  1  0
 17 43  1  0
 19 44  1  0
 19 45  1  0
 20 46  1  0
 20 47  1  0
 21 48  1  6
 22 49  1  0
 23 50  1  0
 23 51  1  0
 24 52  1  0
 25 53  1  0
 27 54  1  0
 27 55  1  0
 28 56  1  0
 29 57  1  0
 29 58  1  0
 30 59  1  0
 30 60  1  0
 31 61  1  0
 31 62  1  0
 32 63  1  0
 32 64  1  0
 33 65  1  0
 33 66  1  0
M  END
>  <smiles>  (70) 
O=c1c2ccccc2nc(/C=C/c2ccc(CN3CCC(O)C3)cc2)n1CC1CCCCC1

>  <score_type>  (70) 
oracle

>  <origin>  (70) 
autodockgpu

>  <m_score__min__energy>  (70) 
-9.3900000000000006

>  <m_primary>  (70) 
energy

>  <rmsd>  (70) 
4.753160428087781

>  <m_score__min__rmsd>  (70) 
4.753160428087781

>  <meeko>  (70) 
{"free_energy": -7.94, "intermolecular_energy": -10.33, "internal_energy": -2.1, "cluster_size": 1, "cluster_id": 6, "rank_in_cluster": 1}

>  <energy>  (70) 
-8.81

>  <cluster_rmsd>  (70) 
1.46

>  <cluster>  (70) 
1

$$$$

     RDKit          3D

 66 70  0  0  0  0  0  0  0  0999 V2000
  139.1880   67.7460  225.0550 O   0  0  0  0  0  0  0  0  0  0  0  0
  139.5780   68.9390  224.9150 C   0  0  0  0  0  0  0  0  0  0  0  0
  140.0700   69.5630  226.0420 C   0  0  0  0  0  0  0  0  0  0  0  0
  140.1400   68.9290  227.2710 C   0  0  0  0  0  0  0  0  0  0  0  0
  140.6480   69.6120  228.3780 C   0  0  0  0  0  0  0  0  0  0  0  0
  141.0830   70.9360  228.2270 C   0  0  0  0  0  0  0  0  0  0  0  0
  141.0140   71.5670  227.0030 C   0  0  0  0  0  0  0  0  0  0  0  0
  140.5020   70.8650  225.9100 C   0  0  0  0  0  0  0  0  0  0  0  0
  140.4240   71.4540  224.7120 N   0  0  0  0  0  0  0  0  0  0  0  0
  139.9420   70.8310  223.6250 C   0  0  0  0  0  0  0  0  0  0  0  0
  139.8890   71.5840  222.3650 C   0  0  0  0  0  0  0  0  0  0  0  0
  139.2350   72.7270  222.2950 C   0  0  0  0  0  0  0  0  0  0  0  0
  139.8080   73.9990  221.9450 C   0  0  0  0  0  0  0  0  0  0  0  0
  140.9900   74.0720  221.2080 C   0  0  0  0  0  0  0  0  0  0  0  0
  141.5650   75.2700  220.8560 C   0  0  0  0  0  0  0  0  0  0  0  0
  141.0010   76.4680  221.2170 C   0  0  0  0  0  0  0  0  0  0  0  0
  141.5840   77.7860  220.8780 C   0  0  0  0  0  0  0  0  0  0  0  0
  141.0160   78.3360  219.6940 N   0  0  0  0  0  0  0  0  0  0  0  0
  141.4410   77.5230  218.5660 C   0  0  0  0  0  0  0  0  0  0  0  0
  142.0650   78.4400  217.5500 C   0  0  0  0  0  0  0  0  0  0  0  0
  142.5490   79.5980  218.4330 C   0  0  1  0  0  0  0  0  0  0  0  0
  142.7340   80.7530  217.7050 O   0  0  0  0  0  0  0  0  0  0  0  0
  141.3660   79.6830  219.3940 C   0  0  0  0  0  0  0  0  0  0  0  0
  139.8340   76.4290  221.9450 C   0  0  0  0  0  0  0  0  0  0  0  0
  139.2570   75.2200  222.2990 C   0  0  0  0  0  0  0  0  0  0  0  0
  139.5100   69.5590  223.7070 N   0  0  0  0  0  0  0  0  0  0  0  0
  139.0000   68.8480  222.5590 C   0  0  0  0  0  0  0  0  0  0  0  0
  137.5200   68.9870  222.4940 C   0  0  0  0  0  0  0  0  0  0  0  0
  136.8280   67.6650  222.1980 C   0  0  0  0  0  0  0  0  0  0  0  0
  135.4470   67.9970  221.6850 C   0  0  0  0  0  0  0  0  0  0  0  0
  134.6600   68.8070  222.6880 C   0  0  0  0  0  0  0  0  0  0  0  0
  135.4140   69.9680  223.2300 C   0  0  0  0  0  0  0  0  0  0  0  0
  136.8510   69.6280  223.6520 C   0  0  0  0  0  0  0  0  0  0  0  0
  139.7961   67.8893  227.3751 H   0  0  0  0  0  0  0  0  0  0  0  0
  140.7062   69.1163  229.3582 H   0  0  0  0  0  0  0  0  0  0  0  0
  141.4844   71.4783  229.0958 H   0  0  0  0  0  0  0  0  0  0  0  0
  141.3566   72.6061  226.8895 H   0  0  0  0  0  0  0  0  0  0  0  0
  140.3988   71.1915  221.4728 H   0  0  0  0  0  0  0  0  0  0  0  0
  138.1593   72.7058  222.5238 H   0  0  0  0  0  0  0  0  0  0  0  0
  141.4797   73.1373  220.8973 H   0  0  0  0  0  0  0  0  0  0  0  0
  142.4974   75.2684  220.2723 H   0  0  0  0  0  0  0  0  0  0  0  0
  141.4029   78.4789  221.7129 H   0  0  0  0  0  0  0  0  0  0  0  0
  142.6606   77.6443  220.7022 H   0  0  0  0  0  0  0  0  0  0  0  0
  142.1771   76.7764  218.8987 H   0  0  0  0  0  0  0  0  0  0  0  0
  140.5826   76.9917  218.1292 H   0  0  0  0  0  0  0  0  0  0  0  0
  142.9042   77.9528  217.0319 H   0  0  0  0  0  0  0  0  0  0  0  0
  141.3806   78.7473  216.7455 H   0  0  0  0  0  0  0  0  0  0  0  0
  143.5261   79.4555  218.9177 H   0  0  0  0  0  0  0  0  0  0  0  0
  143.3830   80.6410  216.9720 H   0  0  0  0  0  0  0  0  0  0  0  0
  141.6544   80.2177  220.3110 H   0  0  0  0  0  0  0  0  0  0  0  0
  140.5222   80.2329  218.9517 H   0  0  0  0  0  0  0  0  0  0  0  0
  139.3528   77.3700  222.2500 H   0  0  0  0  0  0  0  0  0  0  0  0
  138.3254   75.2300  222.8837 H   0  0  0  0  0  0  0  0  0  0  0  0
  139.4461   69.2649  221.6440 H   0  0  0  0  0  0  0  0  0  0  0  0
  139.2603   67.7829  222.6475 H   0  0  0  0  0  0  0  0  0  0  0  0
  137.4022   69.6913  221.6573 H   0  0  0  0  0  0  0  0  0  0  0  0
  137.3904   67.1062  221.4355 H   0  0  0  0  0  0  0  0  0  0  0  0
  136.7723   67.0393  223.1010 H   0  0  0  0  0  0  0  0  0  0  0  0
  135.5417   68.5759  220.7545 H   0  0  0  0  0  0  0  0  0  0  0  0
  134.9101   67.0534  221.5083 H   0  0  0  0  0  0  0  0  0  0  0  0
  133.7495   69.1809  222.1969 H   0  0  0  0  0  0  0  0  0  0  0  0
  134.4324   68.1431  223.5350 H   0  0  0  0  0  0  0  0  0  0  0  0
  135.4548   70.7479  222.4553 H   0  0  0  0  0  0  0  0  0  0  0  0
  134.8839   70.3020  224.1341 H   0  0  0  0  0  0  0  0  0  0  0  0
  137.3866   70.5469  223.9328 H   0  0  0  0  0  0  0  0  0  0  0  0
  136.8485   68.9513  224.5192 H   0  0  0  0  0  0  0  0  0  0  0  0
  1  2  2  0
  2  3  1  0
  3  4  2  0
  4  5  1  0
  5  6  2  0
  6  7  1  0
  7  8  2  0
  8  9  1  0
  9 10  2  0
 10 11  1  0
 11 12  2  0
 12 13  1  0
 13 14  2  0
 14 15  1  0
 15 16  2  0
 16 17  1  0
 17 18  1  0
 18 19  1  0
 19 20  1  0
 20 21  1  0
 21 22  1  0
 21 23  1  0
 16 24  1  0
 24 25  2  0
 10 26  1  0
 26 27  1  0
 27 28  1  0
 28 29  1  0
 29 30  1  0
 30 31  1  0
 31 32  1  0
 32 33  1  0
 26  2  1  0
 33 28  1  0
  8  3  1  0
 25 13  1  0
 23 18  1  0
  4 34  1  0
  5 35  1  0
  6 36  1  0
  7 37  1  0
 11 38  1  0
 12 39  1  0
 14 40  1  0
 15 41  1  0
 17 42  1  0
 17 43  1  0
 19 44  1  0
 19 45  1  0
 20 46  1  0
 20 47  1  0
 21 48  1  1
 22 49  1  0
 23 50  1  0
 23 51  1  0
 24 52  1  0
 25 53  1  0
 27 54  1  0
 27 55  1  0
 28 56  1  0
 29 57  1  0
 29 58  1  0
 30 59  1  0
 30 60  1  0
 31 61  1  0
 31 62  1  0
 32 63  1  0
 32 64  1  0
 33 65  1  0
 33 66  1  0
M  END
>  <smiles>  (71) 
O=c1c2ccccc2nc(/C=C/c2ccc(CN3CCC(O)C3)cc2)n1CC1CCCCC1

>  <score_type>  (71) 
oracle

>  <origin>  (71) 
autodockgpu

>  <m_score__min__energy>  (71) 
-9.3900000000000006

>  <m_primary>  (71) 
energy

>  <rmsd>  (71) 
11.603320808446677

>  <m_score__min__rmsd>  (71) 
11.603320808446677

>  <meeko>  (71) 
{"free_energy": -8.27, "intermolecular_energy": -10.66, "internal_energy": -1.6, "cluster_size": 2, "cluster_id": 4, "rank_in_cluster": 1}

>  <energy>  (71) 
-8.79

>  <cluster_rmsd>  (71) 
0.88

>  <cluster>  (71) 
1

$$$$

     RDKit          3D

 66 70  0  0  0  0  0  0  0  0999 V2000
  139.0390   67.9000  225.3040 O   0  0  0  0  0  0  0  0  0  0  0  0
  139.4590   69.0550  225.0140 C   0  0  0  0  0  0  0  0  0  0  0  0
  139.9820   69.7990  226.0510 C   0  0  0  0  0  0  0  0  0  0  0  0
  140.0490   69.3200  227.3480 C   0  0  0  0  0  0  0  0  0  0  0  0
  140.5890   70.1200  228.3580 C   0  0  0  0  0  0  0  0  0  0  0  0
  141.0580   71.4030  228.0410 C   0  0  0  0  0  0  0  0  0  0  0  0
  140.9910   71.8790  226.7480 C   0  0  0  0  0  0  0  0  0  0  0  0
  140.4470   71.0620  225.7550 C   0  0  0  0  0  0  0  0  0  0  0  0
  140.3710   71.5010  224.4950 N   0  0  0  0  0  0  0  0  0  0  0  0
  139.8590   70.7620  223.4970 C   0  0  0  0  0  0  0  0  0  0  0  0
  139.8120   71.3550  222.1540 C   0  0  0  0  0  0  0  0  0  0  0  0
  139.0720   72.4210  221.9180 C   0  0  0  0  0  0  0  0  0  0  0  0
  139.5440   73.7780  221.8860 C   0  0  0  0  0  0  0  0  0  0  0  0
  140.8800   74.0640  221.6060 C   0  0  0  0  0  0  0  0  0  0  0  0
  141.3650   75.3500  221.5680 C   0  0  0  0  0  0  0  0  0  0  0  0
  140.5520   76.4290  221.8070 C   0  0  0  0  0  0  0  0  0  0  0  0
  141.0230   77.8320  221.7930 C   0  0  0  0  0  0  0  0  0  0  0  0
  140.8780   78.4600  223.0620 N   0  0  0  0  0  0  0  0  0  0  0  0
  139.9410   79.5630  222.9210 C   0  0  0  0  0  0  0  0  0  0  0  0
  140.6100   80.8030  223.4490 C   0  0  0  0  0  0  0  0  0  0  0  0
  142.0930   80.4660  223.2460 C   0  0  1  0  0  0  0  0  0  0  0  0
  142.9060   81.2250  224.0610 O   0  0  0  0  0  0  0  0  0  0  0  0
  142.0650   78.9910  223.6410 C   0  0  0  0  0  0  0  0  0  0  0  0
  139.2280   76.1800  222.0860 C   0  0  0  0  0  0  0  0  0  0  0  0
  138.7410   74.8820  222.1240 C   0  0  0  0  0  0  0  0  0  0  0  0
  139.3940   69.5230  223.7390 N   0  0  0  0  0  0  0  0  0  0  0  0
  138.8510   68.6910  222.6920 C   0  0  0  0  0  0  0  0  0  0  0  0
  137.3910   68.5020  222.9010 C   0  0  0  0  0  0  0  0  0  0  0  0
  136.7080   69.7690  223.3930 C   0  0  0  0  0  0  0  0  0  0  0  0
  135.3980   69.3490  224.0160 C   0  0  0  0  0  0  0  0  0  0  0  0
  134.5230   68.6110  223.0300 C   0  0  0  0  0  0  0  0  0  0  0  0
  135.2370   67.5290  222.3030 C   0  0  0  0  0  0  0  0  0  0  0  0
  136.6130   67.9510  221.7650 C   0  0  0  0  0  0  0  0  0  0  0  0
  139.6778   68.3115  227.5829 H   0  0  0  0  0  0  0  0  0  0  0  0
  140.6457   69.7473  229.3914 H   0  0  0  0  0  0  0  0  0  0  0  0
  141.4842   72.0371  228.8324 H   0  0  0  0  0  0  0  0  0  0  0  0
  141.3602   72.8859  226.5032 H   0  0  0  0  0  0  0  0  0  0  0  0
  140.3986   70.9065  221.3387 H   0  0  0  0  0  0  0  0  0  0  0  0
  138.0008   72.2571  221.7293 H   0  0  0  0  0  0  0  0  0  0  0  0
  141.5705   73.2308  221.4085 H   0  0  0  0  0  0  0  0  0  0  0  0
  142.4282   75.5174  221.3410 H   0  0  0  0  0  0  0  0  0  0  0  0
  142.0859   77.8461  221.5100 H   0  0  0  0  0  0  0  0  0  0  0  0
  140.4088   78.3874  221.0690 H   0  0  0  0  0  0  0  0  0  0  0  0
  139.6809   79.7003  221.8610 H   0  0  0  0  0  0  0  0  0  0  0  0
  139.0165   79.3566  223.4802 H   0  0  0  0  0  0  0  0  0  0  0  0
  140.3183   81.6928  222.8719 H   0  0  0  0  0  0  0  0  0  0  0  0
  140.3452   81.0453  224.4888 H   0  0  0  0  0  0  0  0  0  0  0  0
  142.4969   80.6660  222.2426 H   0  0  0  0  0  0  0  0  0  0  0  0
  143.1670   80.7520  224.8840 H   0  0  0  0  0  0  0  0  0  0  0  0
  142.9503   78.4712  223.2459 H   0  0  0  0  0  0  0  0  0  0  0  0
  142.0765   78.8628  224.7335 H   0  0  0  0  0  0  0  0  0  0  0  0
  138.5468   77.0213  222.2815 H   0  0  0  0  0  0  0  0  0  0  0  0
  137.6767   74.7228  222.3517 H   0  0  0  0  0  0  0  0  0  0  0  0
  139.0205   69.1734  221.7181 H   0  0  0  0  0  0  0  0  0  0  0  0
  139.3496   67.7107  222.7135 H   0  0  0  0  0  0  0  0  0  0  0  0
  137.3800   67.7207  223.6752 H   0  0  0  0  0  0  0  0  0  0  0  0
  137.3383   70.2722  224.1411 H   0  0  0  0  0  0  0  0  0  0  0  0
  136.5415   70.4731  222.5644 H   0  0  0  0  0  0  0  0  0  0  0  0
  135.6052   68.6900  224.8720 H   0  0  0  0  0  0  0  0  0  0  0  0
  134.8642   70.2555  224.3374 H   0  0  0  0  0  0  0  0  0  0  0  0
  133.6794   68.1655  223.5776 H   0  0  0  0  0  0  0  0  0  0  0  0
  134.1907   69.3429  222.2790 H   0  0  0  0  0  0  0  0  0  0  0  0
  135.3777   66.6824  222.9910 H   0  0  0  0  0  0  0  0  0  0  0  0
  134.6188   67.2638  221.4327 H   0  0  0  0  0  0  0  0  0  0  0  0
  137.1336   67.0791  221.3422 H   0  0  0  0  0  0  0  0  0  0  0  0
  136.5021   68.7051  220.9719 H   0  0  0  0  0  0  0  0  0  0  0  0
  1  2  2  0
  2  3  1  0
  3  4  2  0
  4  5  1  0
  5  6  2  0
  6  7  1  0
  7  8  2  0
  8  9  1  0
  9 10  2  0
 10 11  1  0
 11 12  2  0
 12 13  1  0
 13 14  2  0
 14 15  1  0
 15 16  2  0
 16 17  1  0
 17 18  1  0
 18 19  1  0
 19 20  1  0
 20 21  1  0
 21 22  1  0
 21 23  1  0
 16 24  1  0
 24 25  2  0
 10 26  1  0
 26 27  1  0
 27 28  1  0
 28 29  1  0
 29 30  1  0
 30 31  1  0
 31 32  1  0
 32 33  1  0
 26  2  1  0
 33 28  1  0
  8  3  1  0
 25 13  1  0
 23 18  1  0
  4 34  1  0
  5 35  1  0
  6 36  1  0
  7 37  1  0
 11 38  1  0
 12 39  1  0
 14 40  1  0
 15 41  1  0
 17 42  1  0
 17 43  1  0
 19 44  1  0
 19 45  1  0
 20 46  1  0
 20 47  1  0
 21 48  1  6
 22 49  1  0
 23 50  1  0
 23 51  1  0
 24 52  1  0
 25 53  1  0
 27 54  1  0
 27 55  1  0
 28 56  1  0
 29 57  1  0
 29 58  1  0
 30 59  1  0
 30 60  1  0
 31 61  1  0
 31 62  1  0
 32 63  1  0
 32 64  1  0
 33 65  1  0
 33 66  1  0
M  END
>  <smiles>  (72) 
O=c1c2ccccc2nc(/C=C/c2ccc(CN3CCC(O)C3)cc2)n1CC1CCCCC1

>  <score_type>  (72) 
oracle

>  <origin>  (72) 
autodockgpu

>  <m_score__min__energy>  (72) 
-9.3900000000000006

>  <m_primary>  (72) 
energy

>  <rmsd>  (72) 
11.420381697891303

>  <m_score__min__rmsd>  (72) 
11.420381697891303

>  <meeko>  (72) 
{"free_energy": -8.86, "intermolecular_energy": -11.25, "internal_energy": -1.74, "cluster_size": 37, "cluster_id": 1, "rank_in_cluster": 18}

>  <energy>  (72) 
-8.78

>  <cluster_rmsd>  (72) 
0.85

>  <cluster>  (72) 
1

$$$$

     RDKit          3D

 66 70  0  0  0  0  0  0  0  0999 V2000
  138.9270   68.2080  224.9850 O   0  0  0  0  0  0  0  0  0  0  0  0
  139.4880   69.3300  224.8350 C   0  0  0  0  0  0  0  0  0  0  0  0
  139.9970   69.9220  225.9710 C   0  0  0  0  0  0  0  0  0  0  0  0
  139.9060   69.3320  227.2200 C   0  0  0  0  0  0  0  0  0  0  0  0
  140.4400   69.9790  228.3360 C   0  0  0  0  0  0  0  0  0  0  0  0
  141.0640   71.2250  228.1740 C   0  0  0  0  0  0  0  0  0  0  0  0
  141.1540   71.8120  226.9290 C   0  0  0  0  0  0  0  0  0  0  0  0
  140.6130   71.1460  225.8280 C   0  0  0  0  0  0  0  0  0  0  0  0
  140.6880   71.6940  224.6110 N   0  0  0  0  0  0  0  0  0  0  0  0
  140.1860   71.1030  223.5150 C   0  0  0  0  0  0  0  0  0  0  0  0
  140.3120   71.8070  222.2320 C   0  0  0  0  0  0  0  0  0  0  0  0
  139.3710   72.6390  221.8300 C   0  0  0  0  0  0  0  0  0  0  0  0
  139.4280   74.0730  221.9160 C   0  0  0  0  0  0  0  0  0  0  0  0
  140.6470   74.7460  221.8340 C   0  0  0  0  0  0  0  0  0  0  0  0
  140.7380   76.1160  221.9120 C   0  0  0  0  0  0  0  0  0  0  0  0
  139.6240   76.8990  222.0770 C   0  0  0  0  0  0  0  0  0  0  0  0
  139.6640   78.3750  222.1820 C   0  0  0  0  0  0  0  0  0  0  0  0
  140.4200   78.8130  223.3050 N   0  0  0  0  0  0  0  0  0  0  0  0
  140.1670   80.2320  223.4980 C   0  0  0  0  0  0  0  0  0  0  0  0
  141.4970   80.9340  223.5330 C   0  0  0  0  0  0  0  0  0  0  0  0
  142.3730   79.9810  222.7090 C   0  0  1  0  0  0  0  0  0  0  0  0
  143.7130   80.1560  222.9790 O   0  0  0  0  0  0  0  0  0  0  0  0
  141.8310   78.6480  223.2190 C   0  0  0  0  0  0  0  0  0  0  0  0
  138.4060   76.2650  222.1610 C   0  0  0  0  0  0  0  0  0  0  0  0
  138.3160   74.8830  222.0820 C   0  0  0  0  0  0  0  0  0  0  0  0
  139.5770   69.9070  223.6070 N   0  0  0  0  0  0  0  0  0  0  0  0
  139.0390   69.2300  222.4510 C   0  0  0  0  0  0  0  0  0  0  0  0
  137.5670   69.4320  222.3850 C   0  0  0  0  0  0  0  0  0  0  0  0
  136.7940   68.1450  222.6320 C   0  0  0  0  0  0  0  0  0  0  0  0
  135.4060   68.3520  222.0750 C   0  0  0  0  0  0  0  0  0  0  0  0
  134.7160   69.5300  222.7220 C   0  0  0  0  0  0  0  0  0  0  0  0
  135.5560   70.7570  222.7610 C   0  0  0  0  0  0  0  0  0  0  0  0
  136.9940   70.5040  223.2350 C   0  0  0  0  0  0  0  0  0  0  0  0
  139.4137   68.3548  227.3330 H   0  0  0  0  0  0  0  0  0  0  0  0
  140.3722   69.5167  229.3318 H   0  0  0  0  0  0  0  0  0  0  0  0
  141.4862   71.7397  229.0497 H   0  0  0  0  0  0  0  0  0  0  0  0
  141.6441   72.7890  226.8058 H   0  0  0  0  0  0  0  0  0  0  0  0
  141.1978   71.6390  221.6018 H   0  0  0  0  0  0  0  0  0  0  0  0
  138.4641   72.1976  221.3909 H   0  0  0  0  0  0  0  0  0  0  0  0
  141.5685   74.1600  221.7022 H   0  0  0  0  0  0  0  0  0  0  0  0
  141.7259   76.5944  221.8405 H   0  0  0  0  0  0  0  0  0  0  0  0
  140.1191   78.7831  221.2675 H   0  0  0  0  0  0  0  0  0  0  0  0
  138.6317   78.7329  222.3092 H   0  0  0  0  0  0  0  0  0  0  0  0
  139.5602   80.6206  222.6669 H   0  0  0  0  0  0  0  0  0  0  0  0
  139.6178   80.4009  224.4360 H   0  0  0  0  0  0  0  0  0  0  0  0
  141.4379   81.9286  223.0668 H   0  0  0  0  0  0  0  0  0  0  0  0
  141.8756   81.1234  224.5483 H   0  0  0  0  0  0  0  0  0  0  0  0
  142.3255   80.1090  221.6175 H   0  0  0  0  0  0  0  0  0  0  0  0
  144.2950   79.7200  222.3130 H   0  0  0  0  0  0  0  0  0  0  0  0
  142.0803   77.8388  222.5168 H   0  0  0  0  0  0  0  0  0  0  0  0
  142.2680   78.3777  224.1916 H   0  0  0  0  0  0  0  0  0  0  0  0
  137.4914   76.8618  222.2925 H   0  0  0  0  0  0  0  0  0  0  0  0
  137.3244   74.4123  222.1539 H   0  0  0  0  0  0  0  0  0  0  0  0
  139.5041   69.6368  221.5409 H   0  0  0  0  0  0  0  0  0  0  0  0
  139.2535   68.1540  222.5293 H   0  0  0  0  0  0  0  0  0  0  0  0
  137.4402   69.7764  221.3480 H   0  0  0  0  0  0  0  0  0  0  0  0
  137.2854   67.3046  222.1199 H   0  0  0  0  0  0  0  0  0  0  0  0
  136.7558   67.9091  223.7057 H   0  0  0  0  0  0  0  0  0  0  0  0
  135.4792   68.5320  220.9923 H   0  0  0  0  0  0  0  0  0  0  0  0
  134.8135   67.4492  222.2845 H   0  0  0  0  0  0  0  0  0  0  0  0
  133.7999   69.7522  222.1550 H   0  0  0  0  0  0  0  0  0  0  0  0
  134.5018   69.2493  223.7638 H   0  0  0  0  0  0  0  0  0  0  0  0
  135.5941   71.1844  221.7482 H   0  0  0  0  0  0  0  0  0  0  0  0
  135.0932   71.4412  223.4874 H   0  0  0  0  0  0  0  0  0  0  0  0
  137.5897   71.4229  223.1314 H   0  0  0  0  0  0  0  0  0  0  0  0
  137.0036   70.2032  224.2930 H   0  0  0  0  0  0  0  0  0  0  0  0
  1  2  2  0
  2  3  1  0
  3  4  2  0
  4  5  1  0
  5  6  2  0
  6  7  1  0
  7  8  2  0
  8  9  1  0
  9 10  2  0
 10 11  1  0
 11 12  2  0
 12 13  1  0
 13 14  2  0
 14 15  1  0
 15 16  2  0
 16 17  1  0
 17 18  1  0
 18 19  1  0
 19 20  1  0
 20 21  1  0
 21 22  1  0
 21 23  1  0
 16 24  1  0
 24 25  2  0
 10 26  1  0
 26 27  1  0
 27 28  1  0
 28 29  1  0
 29 30  1  0
 30 31  1  0
 31 32  1  0
 32 33  1  0
 26  2  1  0
 33 28  1  0
  8  3  1  0
 25 13  1  0
 23 18  1  0
  4 34  1  0
  5 35  1  0
  6 36  1  0
  7 37  1  0
 11 38  1  0
 12 39  1  0
 14 40  1  0
 15 41  1  0
 17 42  1  0
 17 43  1  0
 19 44  1  0
 19 45  1  0
 20 46  1  0
 20 47  1  0
 21 48  1  6
 22 49  1  0
 23 50  1  0
 23 51  1  0
 24 52  1  0
 25 53  1  0
 27 54  1  0
 27 55  1  0
 28 56  1  0
 29 57  1  0
 29 58  1  0
 30 59  1  0
 30 60  1  0
 31 61  1  0
 31 62  1  0
 32 63  1  0
 32 64  1  0
 33 65  1  0
 33 66  1  0
M  END
>  <smiles>  (73) 
O=c1c2ccccc2nc(/C=C/c2ccc(CN3CCC(O)C3)cc2)n1CC1CCCCC1

>  <score_type>  (73) 
oracle

>  <origin>  (73) 
autodockgpu

>  <m_score__min__energy>  (73) 
-9.3900000000000006

>  <m_primary>  (73) 
energy

>  <rmsd>  (73) 
11.31862427903183

>  <m_score__min__rmsd>  (73) 
11.31862427903183

>  <meeko>  (73) 
{"free_energy": -9.13, "intermolecular_energy": -11.52, "internal_energy": -1.74, "cluster_size": 37, "cluster_id": 1, "rank_in_cluster": 9}

>  <energy>  (73) 
-8.77

>  <cluster_rmsd>  (73) 
0.86

>  <cluster>  (73) 
1

$$$$

     RDKit          3D

 66 70  0  0  0  0  0  0  0  0999 V2000
  139.1340   68.0610  225.0830 O   0  0  0  0  0  0  0  0  0  0  0  0
  139.5680   69.2320  224.8910 C   0  0  0  0  0  0  0  0  0  0  0  0
  140.0630   69.8930  225.9950 C   0  0  0  0  0  0  0  0  0  0  0  0
  140.0910   69.3190  227.2550 C   0  0  0  0  0  0  0  0  0  0  0  0
  140.6050   70.0380  228.3360 C   0  0  0  0  0  0  0  0  0  0  0  0
  141.0880   71.3380  228.1280 C   0  0  0  0  0  0  0  0  0  0  0  0
  141.0610   71.9100  226.8730 C   0  0  0  0  0  0  0  0  0  0  0  0
  140.5430   71.1720  225.8070 C   0  0  0  0  0  0  0  0  0  0  0  0
  140.5060   71.7030  224.5810 N   0  0  0  0  0  0  0  0  0  0  0  0
  140.0190   71.0430  223.5170 C   0  0  0  0  0  0  0  0  0  0  0  0
  140.0140   71.7340  222.2200 C   0  0  0  0  0  0  0  0  0  0  0  0
  139.1360   72.6860  221.9730 C   0  0  0  0  0  0  0  0  0  0  0  0
  139.4190   74.0950  221.9260 C   0  0  0  0  0  0  0  0  0  0  0  0
  140.7130   74.5560  221.6850 C   0  0  0  0  0  0  0  0  0  0  0  0
  141.0200   75.8950  221.6330 C   0  0  0  0  0  0  0  0  0  0  0  0
  140.0600   76.8570  221.8190 C   0  0  0  0  0  0  0  0  0  0  0  0
  140.3350   78.3110  221.7890 C   0  0  0  0  0  0  0  0  0  0  0  0
  140.7120   78.8130  223.0660 N   0  0  0  0  0  0  0  0  0  0  0  0
  140.2560   80.1900  223.1670 C   0  0  0  0  0  0  0  0  0  0  0  0
  141.4400   81.0390  223.5420 C   0  0  0  0  0  0  0  0  0  0  0  0
  142.6050   80.2080  222.9890 C   0  0  1  0  0  0  0  0  0  0  0  0
  143.7980   80.5300  223.6010 O   0  0  0  0  0  0  0  0  0  0  0  0
  142.1060   78.8120  223.3570 C   0  0  0  0  0  0  0  0  0  0  0  0
  138.7720   76.4340  222.0600 C   0  0  0  0  0  0  0  0  0  0  0  0
  138.4660   75.0830  222.1110 C   0  0  0  0  0  0  0  0  0  0  0  0
  139.5420   69.7930  223.6540 N   0  0  0  0  0  0  0  0  0  0  0  0
  139.0260   69.0440  222.5330 C   0  0  0  0  0  0  0  0  0  0  0  0
  137.5450   69.1690  222.4780 C   0  0  0  0  0  0  0  0  0  0  0  0
  136.8520   67.8180  222.3840 C   0  0  0  0  0  0  0  0  0  0  0  0
  135.4600   68.0730  221.8580 C   0  0  0  0  0  0  0  0  0  0  0  0
  134.6900   69.0150  222.7530 C   0  0  0  0  0  0  0  0  0  0  0  0
  135.4490   70.2410  223.1120 C   0  0  0  0  0  0  0  0  0  0  0  0
  136.8950   69.9650  223.5480 C   0  0  0  0  0  0  0  0  0  0  0  0
  139.7089   68.2983  227.4040 H   0  0  0  0  0  0  0  0  0  0  0  0
  140.6308   69.5895  229.3401 H   0  0  0  0  0  0  0  0  0  0  0  0
  141.4935   71.9088  228.9763 H   0  0  0  0  0  0  0  0  0  0  0  0
  141.4411   72.9301  226.7148 H   0  0  0  0  0  0  0  0  0  0  0  0
  140.7481   71.4549  221.4498 H   0  0  0  0  0  0  0  0  0  0  0  0
  138.0973   72.3756  221.7868 H   0  0  0  0  0  0  0  0  0  0  0  0
  141.5172   73.8215  221.5309 H   0  0  0  0  0  0  0  0  0  0  0  0
  142.0582   76.2017  221.4380 H   0  0  0  0  0  0  0  0  0  0  0  0
  141.1520   78.5024  221.0778 H   0  0  0  0  0  0  0  0  0  0  0  0
  139.4106   78.8234  221.4841 H   0  0  0  0  0  0  0  0  0  0  0  0
  139.8488   80.5214  222.2004 H   0  0  0  0  0  0  0  0  0  0  0  0
  139.4638   80.2783  223.9251 H   0  0  0  0  0  0  0  0  0  0  0  0
  141.3912   82.0288  223.0646 H   0  0  0  0  0  0  0  0  0  0  0  0
  141.5143   81.2517  224.6187 H   0  0  0  0  0  0  0  0  0  0  0  0
  142.8306   80.3497  221.9217 H   0  0  0  0  0  0  0  0  0  0  0  0
  143.7570   80.4450  224.5820 H   0  0  0  0  0  0  0  0  0  0  0  0
  142.6228   78.0491  222.7563 H   0  0  0  0  0  0  0  0  0  0  0  0
  142.3004   78.5764  224.4137 H   0  0  0  0  0  0  0  0  0  0  0  0
  137.9760   77.1774  222.2140 H   0  0  0  0  0  0  0  0  0  0  0  0
  137.4256   74.7838  222.3060 H   0  0  0  0  0  0  0  0  0  0  0  0
  139.4598   69.4366  221.6015 H   0  0  0  0  0  0  0  0  0  0  0  0
  139.2954   67.9841  222.6514 H   0  0  0  0  0  0  0  0  0  0  0  0
  137.4093   69.7478  221.5525 H   0  0  0  0  0  0  0  0  0  0  0  0
  137.4012   67.1585  221.6959 H   0  0  0  0  0  0  0  0  0  0  0  0
  136.8167   67.3251  223.3668 H   0  0  0  0  0  0  0  0  0  0  0  0
  135.5337   68.5155  220.8536 H   0  0  0  0  0  0  0  0  0  0  0  0
  134.9234   67.1133  221.8268 H   0  0  0  0  0  0  0  0  0  0  0  0
  133.7686   69.3153  222.2326 H   0  0  0  0  0  0  0  0  0  0  0  0
  134.4822   68.4761  223.6892 H   0  0  0  0  0  0  0  0  0  0  0  0
  135.4712   70.9051  222.2354 H   0  0  0  0  0  0  0  0  0  0  0  0
  134.9354   70.6976  223.9709 H   0  0  0  0  0  0  0  0  0  0  0  0
  137.4321   70.9148  223.6870 H   0  0  0  0  0  0  0  0  0  0  0  0
  136.9117   69.4156  224.5008 H   0  0  0  0  0  0  0  0  0  0  0  0
  1  2  2  0
  2  3  1  0
  3  4  2  0
  4  5  1  0
  5  6  2  0
  6  7  1  0
  7  8  2  0
  8  9  1  0
  9 10  2  0
 10 11  1  0
 11 12  2  0
 12 13  1  0
 13 14  2  0
 14 15  1  0
 15 16  2  0
 16 17  1  0
 17 18  1  0
 18 19  1  0
 19 20  1  0
 20 21  1  0
 21 22  1  0
 21 23  1  0
 16 24  1  0
 24 25  2  0
 10 26  1  0
 26 27  1  0
 27 28  1  0
 28 29  1  0
 29 30  1  0
 30 31  1  0
 31 32  1  0
 32 33  1  0
 26  2  1  0
 33 28  1  0
  8  3  1  0
 25 13  1  0
 23 18  1  0
  4 34  1  0
  5 35  1  0
  6 36  1  0
  7 37  1  0
 11 38  1  0
 12 39  1  0
 14 40  1  0
 15 41  1  0
 17 42  1  0
 17 43  1  0
 19 44  1  0
 19 45  1  0
 20 46  1  0
 20 47  1  0
 21 48  1  6
 22 49  1  0
 23 50  1  0
 23 51  1  0
 24 52  1  0
 25 53  1  0
 27 54  1  0
 27 55  1  0
 28 56  1  0
 29 57  1  0
 29 58  1  0
 30 59  1  0
 30 60  1  0
 31 61  1  0
 31 62  1  0
 32 63  1  0
 32 64  1  0
 33 65  1  0
 33 66  1  0
M  END
>  <smiles>  (74) 
O=c1c2ccccc2nc(/C=C/c2ccc(CN3CCC(O)C3)cc2)n1CC1CCCCC1

>  <score_type>  (74) 
oracle

>  <origin>  (74) 
autodockgpu

>  <m_score__min__energy>  (74) 
-9.3900000000000006

>  <m_primary>  (74) 
energy

>  <rmsd>  (74) 
11.38078343658856

>  <m_score__min__rmsd>  (74) 
11.38078343658856

>  <meeko>  (74) 
{"free_energy": -8.62, "intermolecular_energy": -11.01, "internal_energy": -1.71, "cluster_size": 37, "cluster_id": 1, "rank_in_cluster": 31}

>  <energy>  (74) 
-8.75

>  <cluster_rmsd>  (74) 
1.01

>  <cluster>  (74) 
1

$$$$

     RDKit          3D

 66 70  0  0  0  0  0  0  0  0999 V2000
  139.2180   67.8150  225.3930 O   0  0  0  0  0  0  0  0  0  0  0  0
  139.5150   69.0070  225.1010 C   0  0  0  0  0  0  0  0  0  0  0  0
  140.0890   69.7620  226.1020 C   0  0  0  0  0  0  0  0  0  0  0  0
  140.3320   69.2560  227.3680 C   0  0  0  0  0  0  0  0  0  0  0  0
  140.9160   70.0680  228.3420 C   0  0  0  0  0  0  0  0  0  0  0  0
  141.2480   71.3920  228.0220 C   0  0  0  0  0  0  0  0  0  0  0  0
  141.0060   71.8970  226.7620 C   0  0  0  0  0  0  0  0  0  0  0  0
  140.4220   71.0660  225.8040 C   0  0  0  0  0  0  0  0  0  0  0  0
  140.1760   71.5310  224.5750 N   0  0  0  0  0  0  0  0  0  0  0  0
  139.6170   70.7810  223.6110 C   0  0  0  0  0  0  0  0  0  0  0  0
  139.3800   71.4040  222.3030 C   0  0  0  0  0  0  0  0  0  0  0  0
  140.2840   72.2000  221.7660 C   0  0  0  0  0  0  0  0  0  0  0  0
  140.2440   73.6370  221.7700 C   0  0  0  0  0  0  0  0  0  0  0  0
  139.0490   74.3170  222.0060 C   0  0  0  0  0  0  0  0  0  0  0  0
  138.9740   75.6900  222.0180 C   0  0  0  0  0  0  0  0  0  0  0  0
  140.0810   76.4690  221.7950 C   0  0  0  0  0  0  0  0  0  0  0  0
  140.0560   77.9490  221.7810 C   0  0  0  0  0  0  0  0  0  0  0  0
  141.3410   78.5100  222.0220 N   0  0  0  0  0  0  0  0  0  0  0  0
  141.5460   78.5780  223.4600 C   0  0  0  0  0  0  0  0  0  0  0  0
  141.9150   79.9950  223.8040 C   0  0  0  0  0  0  0  0  0  0  0  0
  141.2590   80.7740  222.6560 C   0  0  1  0  0  0  0  0  0  0  0  0
  141.8310   82.0170  222.4890 O   0  0  0  0  0  0  0  0  0  0  0  0
  141.5650   79.8180  221.5060 C   0  0  0  0  0  0  0  0  0  0  0  0
  141.2750   75.8270  221.5580 C   0  0  0  0  0  0  0  0  0  0  0  0
  141.3480   74.4430  221.5470 C   0  0  0  0  0  0  0  0  0  0  0  0
  139.2770   69.5030  223.8580 N   0  0  0  0  0  0  0  0  0  0  0  0
  138.6890   68.6580  222.8450 C   0  0  0  0  0  0  0  0  0  0  0  0
  137.2280   68.5170  223.0890 C   0  0  0  0  0  0  0  0  0  0  0  0
  136.6420   69.7230  223.8090 C   0  0  0  0  0  0  0  0  0  0  0  0
  135.3330   69.2790  224.4170 C   0  0  0  0  0  0  0  0  0  0  0  0
  134.3790   68.7590  223.3670 C   0  0  0  0  0  0  0  0  0  0  0  0
  134.9990   67.7720  222.4440 C   0  0  0  0  0  0  0  0  0  0  0  0
  136.3760   68.2010  221.9170 C   0  0  0  0  0  0  0  0  0  0  0  0
  140.0652   68.2157  227.6058 H   0  0  0  0  0  0  0  0  0  0  0  0
  141.1135   69.6733  229.3496 H   0  0  0  0  0  0  0  0  0  0  0  0
  141.7075   72.0363  228.7860 H   0  0  0  0  0  0  0  0  0  0  0  0
  141.2685   72.9365  226.5158 H   0  0  0  0  0  0  0  0  0  0  0  0
  138.4406   71.2052  221.7664 H   0  0  0  0  0  0  0  0  0  0  0  0
  141.1433   71.7229  221.2721 H   0  0  0  0  0  0  0  0  0  0  0  0
  138.1342   73.7342  222.1890 H   0  0  0  0  0  0  0  0  0  0  0  0
  138.0053   76.1742  222.2106 H   0  0  0  0  0  0  0  0  0  0  0  0
  139.7002   78.2881  220.7969 H   0  0  0  0  0  0  0  0  0  0  0  0
  139.3850   78.2833  222.5860 H   0  0  0  0  0  0  0  0  0  0  0  0
  140.6213   78.2942  223.9839 H   0  0  0  0  0  0  0  0  0  0  0  0
  142.3445   77.8869  223.7680 H   0  0  0  0  0  0  0  0  0  0  0  0
  141.5005   80.2921  224.7786 H   0  0  0  0  0  0  0  0  0  0  0  0
  142.9978   80.1646  223.8976 H   0  0  0  0  0  0  0  0  0  0  0  0
  140.1927   81.0114  222.7853 H   0  0  0  0  0  0  0  0  0  0  0  0
  142.1270   82.1780  221.5620 H   0  0  0  0  0  0  0  0  0  0  0  0
  140.8957   80.0145  220.6555 H   0  0  0  0  0  0  0  0  0  0  0  0
  142.5954   79.9392  221.1406 H   0  0  0  0  0  0  0  0  0  0  0  0
  142.1832   76.4200  221.3749 H   0  0  0  0  0  0  0  0  0  0  0  0
  142.3203   73.9663  221.3537 H   0  0  0  0  0  0  0  0  0  0  0  0
  138.8516   69.1085  221.8547 H   0  0  0  0  0  0  0  0  0  0  0  0
  139.1602   67.6648  222.8835 H   0  0  0  0  0  0  0  0  0  0  0  0
  137.1983   67.6220  223.7279 H   0  0  0  0  0  0  0  0  0  0  0  0
  137.3292   70.0631  224.5978 H   0  0  0  0  0  0  0  0  0  0  0  0
  136.4881   70.5603  223.1124 H   0  0  0  0  0  0  0  0  0  0  0  0
  135.5312   68.4797  225.1462 H   0  0  0  0  0  0  0  0  0  0  0  0
  134.8676   70.1488  224.9037 H   0  0  0  0  0  0  0  0  0  0  0  0
  133.5306   68.2768  223.8746 H   0  0  0  0  0  0  0  0  0  0  0  0
  134.0643   69.6198  222.7588 H   0  0  0  0  0  0  0  0  0  0  0  0
  135.1140   66.8188  222.9809 H   0  0  0  0  0  0  0  0  0  0  0  0
  134.3338   67.6847  221.5723 H   0  0  0  0  0  0  0  0  0  0  0  0
  136.8265   67.3828  221.3359 H   0  0  0  0  0  0  0  0  0  0  0  0
  136.2815   69.0790  221.2611 H   0  0  0  0  0  0  0  0  0  0  0  0
  1  2  2  0
  2  3  1  0
  3  4  2  0
  4  5  1  0
  5  6  2  0
  6  7  1  0
  7  8  2  0
  8  9  1  0
  9 10  2  0
 10 11  1  0
 11 12  2  0
 12 13  1  0
 13 14  2  0
 14 15  1  0
 15 16  2  0
 16 17  1  0
 17 18  1  0
 18 19  1  0
 19 20  1  0
 20 21  1  0
 21 22  1  0
 21 23  1  0
 16 24  1  0
 24 25  2  0
 10 26  1  0
 26 27  1  0
 27 28  1  0
 28 29  1  0
 29 30  1  0
 30 31  1  0
 31 32  1  0
 32 33  1  0
 26  2  1  0
 33 28  1  0
  8  3  1  0
 25 13  1  0
 23 18  1  0
  4 34  1  0
  5 35  1  0
  6 36  1  0
  7 37  1  0
 11 38  1  0
 12 39  1  0
 14 40  1  0
 15 41  1  0
 17 42  1  0
 17 43  1  0
 19 44  1  0
 19 45  1  0
 20 46  1  0
 20 47  1  0
 21 48  1  1
 22 49  1  0
 23 50  1  0
 23 51  1  0
 24 52  1  0
 25 53  1  0
 27 54  1  0
 27 55  1  0
 28 56  1  0
 29 57  1  0
 29 58  1  0
 30 59  1  0
 30 60  1  0
 31 61  1  0
 31 62  1  0
 32 63  1  0
 32 64  1  0
 33 65  1  0
 33 66  1  0
M  END
>  <smiles>  (75) 
O=c1c2ccccc2nc(/C=C/c2ccc(CN3CCC(O)C3)cc2)n1CC1CCCCC1

>  <score_type>  (75) 
oracle

>  <origin>  (75) 
autodockgpu

>  <m_score__min__energy>  (75) 
-9.3900000000000006

>  <m_primary>  (75) 
energy

>  <rmsd>  (75) 
11.535735319566667

>  <m_score__min__rmsd>  (75) 
11.535735319566667

>  <meeko>  (75) 
{"free_energy": -8.78, "intermolecular_energy": -11.17, "internal_energy": -1.67, "cluster_size": 37, "cluster_id": 1, "rank_in_cluster": 22}

>  <energy>  (75) 
-8.7

>  <cluster_rmsd>  (75) 
0.96

>  <cluster>  (75) 
1

$$$$

     RDKit          3D

 66 70  0  0  0  0  0  0  0  0999 V2000
  143.3150   77.1120  219.4910 O   0  0  0  0  0  0  0  0  0  0  0  0
  142.3570   76.5450  220.0880 C   0  0  0  0  0  0  0  0  0  0  0  0
  142.5170   75.2070  220.3780 C   0  0  0  0  0  0  0  0  0  0  0  0
  143.6610   74.5050  220.0390 C   0  0  0  0  0  0  0  0  0  0  0  0
  143.7660   73.1490  220.3580 C   0  0  0  0  0  0  0  0  0  0  0  0
  142.7050   72.5160  221.0210 C   0  0  0  0  0  0  0  0  0  0  0  0
  141.5660   73.2150  221.3590 C   0  0  0  0  0  0  0  0  0  0  0  0
  141.4830   74.5690  221.0300 C   0  0  0  0  0  0  0  0  0  0  0  0
  140.3890   75.2700  221.3470 N   0  0  0  0  0  0  0  0  0  0  0  0
  140.2510   76.5740  221.0570 C   0  0  0  0  0  0  0  0  0  0  0  0
  138.9970   77.2370  221.4390 C   0  0  0  0  0  0  0  0  0  0  0  0
  138.7910   77.6110  222.6870 C   0  0  0  0  0  0  0  0  0  0  0  0
  138.2650   78.8830  223.1030 C   0  0  0  0  0  0  0  0  0  0  0  0
  137.0290   79.3320  222.6390 C   0  0  0  0  0  0  0  0  0  0  0  0
  136.4960   80.5420  223.0170 C   0  0  0  0  0  0  0  0  0  0  0  0
  137.1600   81.3790  223.8770 C   0  0  0  0  0  0  0  0  0  0  0  0
  136.6410   82.6970  224.3060 C   0  0  0  0  0  0  0  0  0  0  0  0
  135.6590   82.5810  225.3290 N   0  0  0  0  0  0  0  0  0  0  0  0
  135.6840   83.7980  226.1250 C   0  0  0  0  0  0  0  0  0  0  0  0
  135.8550   83.3990  227.5660 C   0  0  0  0  0  0  0  0  0  0  0  0
  136.5700   82.0480  227.4310 C   0  0  1  0  0  0  0  0  0  0  0  0
  136.4240   81.2770  228.5640 O   0  0  0  0  0  0  0  0  0  0  0  0
  135.8120   81.4890  226.2290 C   0  0  0  0  0  0  0  0  0  0  0  0
  138.3830   80.9640  224.3530 C   0  0  0  0  0  0  0  0  0  0  0  0
  138.9180   79.7440  223.9710 C   0  0  0  0  0  0  0  0  0  0  0  0
  141.2350   77.2360  220.4220 N   0  0  0  0  0  0  0  0  0  0  0  0
  141.1330   78.6410  220.1070 C   0  0  0  0  0  0  0  0  0  0  0  0
  141.6280   79.4540  221.2510 C   0  0  0  0  0  0  0  0  0  0  0  0
  140.7850   80.7000  221.4830 C   0  0  0  0  0  0  0  0  0  0  0  0
  141.6260   81.6530  222.2980 C   0  0  0  0  0  0  0  0  0  0  0  0
  142.0540   81.0370  223.6090 C   0  0  0  0  0  0  0  0  0  0  0  0
  142.6320   79.6760  223.4600 C   0  0  0  0  0  0  0  0  0  0  0  0
  141.8120   78.7540  222.5460 C   0  0  0  0  0  0  0  0  0  0  0  0
  144.4860   75.0141  219.5193 H   0  0  0  0  0  0  0  0  0  0  0  0
  144.6714   72.5839  220.0919 H   0  0  0  0  0  0  0  0  0  0  0  0
  142.7825   71.4484  221.2745 H   0  0  0  0  0  0  0  0  0  0  0  0
  140.7363   72.7141  221.8793 H   0  0  0  0  0  0  0  0  0  0  0  0
  138.2241   77.4229  220.6787 H   0  0  0  0  0  0  0  0  0  0  0  0
  139.0431   76.8882  223.4769 H   0  0  0  0  0  0  0  0  0  0  0  0
  136.4599   78.6953  221.9456 H   0  0  0  0  0  0  0  0  0  0  0  0
  135.5156   80.8452  222.6209 H   0  0  0  0  0  0  0  0  0  0  0  0
  137.4784   83.3009  224.6856 H   0  0  0  0  0  0  0  0  0  0  0  0
  136.1667   83.1728  223.4350 H   0  0  0  0  0  0  0  0  0  0  0  0
  136.5243   84.4343  225.8102 H   0  0  0  0  0  0  0  0  0  0  0  0
  134.7513   84.3655  225.9905 H   0  0  0  0  0  0  0  0  0  0  0  0
  136.4723   84.1267  228.1132 H   0  0  0  0  0  0  0  0  0  0  0  0
  134.9126   83.3513  228.1313 H   0  0  0  0  0  0  0  0  0  0  0  0
  137.6618   82.0941  227.3054 H   0  0  0  0  0  0  0  0  0  0  0  0
  135.7490   80.5680  228.4570 H   0  0  0  0  0  0  0  0  0  0  0  0
  136.3868   80.6794  225.7556 H   0  0  0  0  0  0  0  0  0  0  0  0
  134.8402   81.0655  226.5227 H   0  0  0  0  0  0  0  0  0  0  0  0
  138.9431   81.6092  225.0458 H   0  0  0  0  0  0  0  0  0  0  0  0
  139.8985   79.4476  224.3720 H   0  0  0  0  0  0  0  0  0  0  0  0
  141.7386   78.8597  219.2151 H   0  0  0  0  0  0  0  0  0  0  0  0
  140.0800   78.8929  219.9125 H   0  0  0  0  0  0  0  0  0  0  0  0
  142.6399   79.7189  220.9104 H   0  0  0  0  0  0  0  0  0  0  0  0
  140.5172   81.1602  220.5204 H   0  0  0  0  0  0  0  0  0  0  0  0
  139.8510   80.4513  222.0082 H   0  0  0  0  0  0  0  0  0  0  0  0
  142.5228   81.9210  221.7201 H   0  0  0  0  0  0  0  0  0  0  0  0
  141.0195   82.5437  222.5188 H   0  0  0  0  0  0  0  0  0  0  0  0
  142.8107   81.6888  224.0701 H   0  0  0  0  0  0  0  0  0  0  0  0
  141.1529   80.9410  224.2325 H   0  0  0  0  0  0  0  0  0  0  0  0
  143.6435   79.7725  223.0387 H   0  0  0  0  0  0  0  0  0  0  0  0
  142.6358   79.2171  224.4597 H   0  0  0  0  0  0  0  0  0  0  0  0
  142.3501   77.8077  222.3877 H   0  0  0  0  0  0  0  0  0  0  0  0
  140.8380   78.5243  223.0027 H   0  0  0  0  0  0  0  0  0  0  0  0
  1  2  2  0
  2  3  1  0
  3  4  2  0
  4  5  1  0
  5  6  2  0
  6  7  1  0
  7  8  2  0
  8  9  1  0
  9 10  2  0
 10 11  1  0
 11 12  2  0
 12 13  1  0
 13 14  2  0
 14 15  1  0
 15 16  2  0
 16 17  1  0
 17 18  1  0
 18 19  1  0
 19 20  1  0
 20 21  1  0
 21 22  1  0
 21 23  1  0
 16 24  1  0
 24 25  2  0
 10 26  1  0
 26 27  1  0
 27 28  1  0
 28 29  1  0
 29 30  1  0
 30 31  1  0
 31 32  1  0
 32 33  1  0
 26  2  1  0
 33 28  1  0
  8  3  1  0
 25 13  1  0
 23 18  1  0
  4 34  1  0
  5 35  1  0
  6 36  1  0
  7 37  1  0
 11 38  1  0
 12 39  1  0
 14 40  1  0
 15 41  1  0
 17 42  1  0
 17 43  1  0
 19 44  1  0
 19 45  1  0
 20 46  1  0
 20 47  1  0
 21 48  1  6
 22 49  1  0
 23 50  1  0
 23 51  1  0
 24 52  1  0
 25 53  1  0
 27 54  1  0
 27 55  1  0
 28 56  1  0
 29 57  1  0
 29 58  1  0
 30 59  1  0
 30 60  1  0
 31 61  1  0
 31 62  1  0
 32 63  1  0
 32 64  1  0
 33 65  1  0
 33 66  1  0
M  END
>  <smiles>  (76) 
O=c1c2ccccc2nc(/C=C/c2ccc(CN3CCC(O)C3)cc2)n1CC1CCCCC1

>  <score_type>  (76) 
oracle

>  <origin>  (76) 
autodockgpu

>  <m_score__min__energy>  (76) 
-9.3900000000000006

>  <m_primary>  (76) 
energy

>  <rmsd>  (76) 
7.385640318128179

>  <m_score__min__rmsd>  (76) 
7.385640318128179

>  <meeko>  (76) 
{"free_energy": -7.67, "intermolecular_energy": -10.06, "internal_energy": -2.37, "cluster_size": 4, "cluster_id": 7, "rank_in_cluster": 3}

>  <energy>  (76) 
-8.7

>  <cluster_rmsd>  (76) 
0.71

>  <cluster>  (76) 
1

$$$$

     RDKit          3D

 66 70  0  0  0  0  0  0  0  0999 V2000
  138.8400   68.1160  225.2770 O   0  0  0  0  0  0  0  0  0  0  0  0
  139.3790   69.2170  224.9730 C   0  0  0  0  0  0  0  0  0  0  0  0
  139.9310   69.9400  226.0090 C   0  0  0  0  0  0  0  0  0  0  0  0
  139.9050   69.4960  227.3210 C   0  0  0  0  0  0  0  0  0  0  0  0
  140.4810   70.2710  228.3290 C   0  0  0  0  0  0  0  0  0  0  0  0
  141.0810   71.4950  227.9960 C   0  0  0  0  0  0  0  0  0  0  0  0
  141.1070   71.9360  226.6900 C   0  0  0  0  0  0  0  0  0  0  0  0
  140.5250   71.1440  225.6990 C   0  0  0  0  0  0  0  0  0  0  0  0
  140.5370   71.5500  224.4250 N   0  0  0  0  0  0  0  0  0  0  0  0
  139.9940   70.8320  223.4280 C   0  0  0  0  0  0  0  0  0  0  0  0
  140.0530   71.3860  222.0680 C   0  0  0  0  0  0  0  0  0  0  0  0
  139.3200   72.4320  221.7400 C   0  0  0  0  0  0  0  0  0  0  0  0
  139.7640   73.8000  221.7450 C   0  0  0  0  0  0  0  0  0  0  0  0
  140.9870   74.1570  221.1770 C   0  0  0  0  0  0  0  0  0  0  0  0
  141.4420   75.4540  221.1640 C   0  0  0  0  0  0  0  0  0  0  0  0
  140.7090   76.4750  221.7160 C   0  0  0  0  0  0  0  0  0  0  0  0
  141.1560   77.8860  221.7440 C   0  0  0  0  0  0  0  0  0  0  0  0
  140.9660   78.4850  223.0210 N   0  0  0  0  0  0  0  0  0  0  0  0
  140.0350   79.5920  222.8710 C   0  0  0  0  0  0  0  0  0  0  0  0
  140.6850   80.8180  223.4510 C   0  0  0  0  0  0  0  0  0  0  0  0
  142.1740   80.4840  223.2950 C   0  0  1  0  0  0  0  0  0  0  0  0
  142.9570   81.2230  224.1550 O   0  0  0  0  0  0  0  0  0  0  0  0
  142.1310   79.0010  223.6550 C   0  0  0  0  0  0  0  0  0  0  0  0
  139.4980   76.1550  222.2840 C   0  0  0  0  0  0  0  0  0  0  0  0
  139.0410   74.8460  222.2960 C   0  0  0  0  0  0  0  0  0  0  0  0
  139.4050   69.6500  223.6850 N   0  0  0  0  0  0  0  0  0  0  0  0
  138.8240   68.8420  222.6390 C   0  0  0  0  0  0  0  0  0  0  0  0
  137.3610   68.6990  222.8640 C   0  0  0  0  0  0  0  0  0  0  0  0
  136.7190   69.9920  223.3440 C   0  0  0  0  0  0  0  0  0  0  0  0
  135.4040   69.6190  223.9840 C   0  0  0  0  0  0  0  0  0  0  0  0
  134.4990   68.8940  223.0160 C   0  0  0  0  0  0  0  0  0  0  0  0
  135.1740   67.7810  222.2980 C   0  0  0  0  0  0  0  0  0  0  0  0
  136.5560   68.1550  221.7420 C   0  0  0  0  0  0  0  0  0  0  0  0
  139.4313   68.5344  227.5680 H   0  0  0  0  0  0  0  0  0  0  0  0
  140.4647   69.9259  229.3733 H   0  0  0  0  0  0  0  0  0  0  0  0
  141.5360   72.1100  228.7864 H   0  0  0  0  0  0  0  0  0  0  0  0
  141.5786   72.8961  226.4333 H   0  0  0  0  0  0  0  0  0  0  0  0
  140.7131   70.9250  221.3185 H   0  0  0  0  0  0  0  0  0  0  0  0
  138.2799   72.2420  221.4366 H   0  0  0  0  0  0  0  0  0  0  0  0
  141.6099   73.3722  220.7231 H   0  0  0  0  0  0  0  0  0  0  0  0
  142.4144   75.6786  220.7013 H   0  0  0  0  0  0  0  0  0  0  0  0
  142.2258   77.9238  221.4907 H   0  0  0  0  0  0  0  0  0  0  0  0
  140.5519   78.4461  221.0151 H   0  0  0  0  0  0  0  0  0  0  0  0
  139.8138   79.7537  221.8057 H   0  0  0  0  0  0  0  0  0  0  0  0
  139.0905   79.3742  223.3910 H   0  0  0  0  0  0  0  0  0  0  0  0
  140.4151   81.7212  222.8840 H   0  0  0  0  0  0  0  0  0  0  0  0
  140.3825   81.0366  224.4857 H   0  0  0  0  0  0  0  0  0  0  0  0
  142.6143   80.7062  222.3118 H   0  0  0  0  0  0  0  0  0  0  0  0
  142.4240   81.7610  224.7870 H   0  0  0  0  0  0  0  0  0  0  0  0
  143.0299   78.4892  223.2809 H   0  0  0  0  0  0  0  0  0  0  0  0
  142.1024   78.8480  224.7439 H   0  0  0  0  0  0  0  0  0  0  0  0
  138.8837   76.9483  222.7349 H   0  0  0  0  0  0  0  0  0  0  0  0
  138.0677   74.6296  222.7605 H   0  0  0  0  0  0  0  0  0  0  0  0
  138.9980   69.3247  221.6660 H   0  0  0  0  0  0  0  0  0  0  0  0
  139.2911   67.8462  222.6487 H   0  0  0  0  0  0  0  0  0  0  0  0
  137.3352   67.9295  223.6497 H   0  0  0  0  0  0  0  0  0  0  0  0
  137.3703   70.4872  224.0793 H   0  0  0  0  0  0  0  0  0  0  0  0
  136.5652   70.6889  222.5069 H   0  0  0  0  0  0  0  0  0  0  0  0
  135.5999   68.9656  224.8470 H   0  0  0  0  0  0  0  0  0  0  0  0
  134.8999   70.5449  224.2979 H   0  0  0  0  0  0  0  0  0  0  0  0
  133.6474   68.4815  223.5769 H   0  0  0  0  0  0  0  0  0  0  0  0
  134.1821   69.6251  222.2576 H   0  0  0  0  0  0  0  0  0  0  0  0
  135.2964   66.9403  222.9967 H   0  0  0  0  0  0  0  0  0  0  0  0
  134.5400   67.5216  221.4373 H   0  0  0  0  0  0  0  0  0  0  0  0
  137.0469   67.2625  221.3268 H   0  0  0  0  0  0  0  0  0  0  0  0
  136.4597   68.9011  220.9394 H   0  0  0  0  0  0  0  0  0  0  0  0
  1  2  2  0
  2  3  1  0
  3  4  2  0
  4  5  1  0
  5  6  2  0
  6  7  1  0
  7  8  2  0
  8  9  1  0
  9 10  2  0
 10 11  1  0
 11 12  2  0
 12 13  1  0
 13 14  2  0
 14 15  1  0
 15 16  2  0
 16 17  1  0
 17 18  1  0
 18 19  1  0
 19 20  1  0
 20 21  1  0
 21 22  1  0
 21 23  1  0
 16 24  1  0
 24 25  2  0
 10 26  1  0
 26 27  1  0
 27 28  1  0
 28 29  1  0
 29 30  1  0
 30 31  1  0
 31 32  1  0
 32 33  1  0
 26  2  1  0
 33 28  1  0
  8  3  1  0
 25 13  1  0
 23 18  1  0
  4 34  1  0
  5 35  1  0
  6 36  1  0
  7 37  1  0
 11 38  1  0
 12 39  1  0
 14 40  1  0
 15 41  1  0
 17 42  1  0
 17 43  1  0
 19 44  1  0
 19 45  1  0
 20 46  1  0
 20 47  1  0
 21 48  1  6
 22 49  1  0
 23 50  1  0
 23 51  1  0
 24 52  1  0
 25 53  1  0
 27 54  1  0
 27 55  1  0
 28 56  1  0
 29 57  1  0
 29 58  1  0
 30 59  1  0
 30 60  1  0
 31 61  1  0
 31 62  1  0
 32 63  1  0
 32 64  1  0
 33 65  1  0
 33 66  1  0
M  END
>  <smiles>  (77) 
O=c1c2ccccc2nc(/C=C/c2ccc(CN3CCC(O)C3)cc2)n1CC1CCCCC1

>  <score_type>  (77) 
oracle

>  <origin>  (77) 
autodockgpu

>  <m_score__min__energy>  (77) 
-9.3900000000000006

>  <m_primary>  (77) 
energy

>  <rmsd>  (77) 
11.278184878937996

>  <m_score__min__rmsd>  (77) 
11.278184878937996

>  <meeko>  (77) 
{"free_energy": -8.79, "intermolecular_energy": -11.17, "internal_energy": -1.73, "cluster_size": 37, "cluster_id": 1, "rank_in_cluster": 21}

>  <energy>  (77) 
-8.66

>  <cluster_rmsd>  (77) 
0.98

>  <cluster>  (77) 
1

$$$$

     RDKit          3D

 66 70  0  0  0  0  0  0  0  0999 V2000
  139.1530   67.7930  225.3410 O   0  0  0  0  0  0  0  0  0  0  0  0
  139.4540   68.9850  225.0500 C   0  0  0  0  0  0  0  0  0  0  0  0
  140.0500   69.7300  226.0440 C   0  0  0  0  0  0  0  0  0  0  0  0
  140.3130   69.2160  227.3030 C   0  0  0  0  0  0  0  0  0  0  0  0
  140.9190   70.0190  228.2700 C   0  0  0  0  0  0  0  0  0  0  0  0
  141.2560   71.3420  227.9510 C   0  0  0  0  0  0  0  0  0  0  0  0
  140.9950   71.8550  226.6980 C   0  0  0  0  0  0  0  0  0  0  0  0
  140.3880   71.0330  225.7470 C   0  0  0  0  0  0  0  0  0  0  0  0
  140.1240   71.5060  224.5240 N   0  0  0  0  0  0  0  0  0  0  0  0
  139.5430   70.7640  223.5670 C   0  0  0  0  0  0  0  0  0  0  0  0
  139.2870   71.3960  222.2660 C   0  0  0  0  0  0  0  0  0  0  0  0
  140.1440   72.2620  221.7610 C   0  0  0  0  0  0  0  0  0  0  0  0
  140.0330   73.6930  221.8400 C   0  0  0  0  0  0  0  0  0  0  0  0
  138.8090   74.3000  222.1220 C   0  0  0  0  0  0  0  0  0  0  0  0
  138.6660   75.6650  222.2050 C   0  0  0  0  0  0  0  0  0  0  0  0
  139.7310   76.5090  222.0130 C   0  0  0  0  0  0  0  0  0  0  0  0
  139.6330   77.9850  222.0760 C   0  0  0  0  0  0  0  0  0  0  0  0
  140.3650   78.5250  223.1710 N   0  0  0  0  0  0  0  0  0  0  0  0
  139.8800   79.8730  223.4210 C   0  0  0  0  0  0  0  0  0  0  0  0
  141.0670   80.7970  223.4070 C   0  0  0  0  0  0  0  0  0  0  0  0
  142.0460   80.0300  222.5070 C   0  0  1  0  0  0  0  0  0  0  0  0
  143.3490   80.4320  222.7100 O   0  0  0  0  0  0  0  0  0  0  0  0
  141.7760   78.6120  223.0040 C   0  0  0  0  0  0  0  0  0  0  0  0
  140.9530   75.9400  221.7330 C   0  0  0  0  0  0  0  0  0  0  0  0
  141.0940   74.5640  221.6500 C   0  0  0  0  0  0  0  0  0  0  0  0
  139.1970   69.4880  223.8140 N   0  0  0  0  0  0  0  0  0  0  0  0
  138.5850   68.6530  222.8080 C   0  0  0  0  0  0  0  0  0  0  0  0
  137.1300   68.5110  223.0840 C   0  0  0  0  0  0  0  0  0  0  0  0
  136.5590   69.7180  223.8120 C   0  0  0  0  0  0  0  0  0  0  0  0
  135.2640   69.2740  224.4500 C   0  0  0  0  0  0  0  0  0  0  0  0
  134.2880   68.7490  223.4230 C   0  0  0  0  0  0  0  0  0  0  0  0
  134.8880   67.7600  222.4900 C   0  0  0  0  0  0  0  0  0  0  0  0
  136.2530   68.1880  221.9320 C   0  0  0  0  0  0  0  0  0  0  0  0
  140.0445   68.1760  227.5403 H   0  0  0  0  0  0  0  0  0  0  0  0
  141.1302   69.6181  229.2723 H   0  0  0  0  0  0  0  0  0  0  0  0
  141.7345   71.9787  228.7097 H   0  0  0  0  0  0  0  0  0  0  0  0
  141.2605   72.8938  226.4521 H   0  0  0  0  0  0  0  0  0  0  0  0
  138.3728   71.1449  221.7082 H   0  0  0  0  0  0  0  0  0  0  0  0
  141.0191   71.8541  221.2339 H   0  0  0  0  0  0  0  0  0  0  0  0
  137.9265   73.6637  222.2838 H   0  0  0  0  0  0  0  0  0  0  0  0
  137.6766   76.0897  222.4302 H   0  0  0  0  0  0  0  0  0  0  0  0
  140.0307   78.4069  221.1412 H   0  0  0  0  0  0  0  0  0  0  0  0
  138.5739   78.2481  222.2145 H   0  0  0  0  0  0  0  0  0  0  0  0
  139.1678   80.1664  222.6357 H   0  0  0  0  0  0  0  0  0  0  0  0
  139.3648   79.9229  224.3916 H   0  0  0  0  0  0  0  0  0  0  0  0
  140.8086   81.7756  222.9763 H   0  0  0  0  0  0  0  0  0  0  0  0
  141.4654   81.0282  224.4059 H   0  0  0  0  0  0  0  0  0  0  0  0
  141.9125   80.1707  221.4242 H   0  0  0  0  0  0  0  0  0  0  0  0
  144.0050   79.7850  222.3620 H   0  0  0  0  0  0  0  0  0  0  0  0
  142.1210   77.8742  222.2647 H   0  0  0  0  0  0  0  0  0  0  0  0
  142.3098   78.4020  223.9426 H   0  0  0  0  0  0  0  0  0  0  0  0
  141.8288   76.5861  221.5731 H   0  0  0  0  0  0  0  0  0  0  0  0
  142.0866   74.1469  221.4245 H   0  0  0  0  0  0  0  0  0  0  0  0
  138.7253   69.1121  221.8183 H   0  0  0  0  0  0  0  0  0  0  0  0
  139.0558   67.6590  222.8271 H   0  0  0  0  0  0  0  0  0  0  0  0
  137.1149   67.6184  223.7267 H   0  0  0  0  0  0  0  0  0  0  0  0
  137.2628   70.0616  224.5844 H   0  0  0  0  0  0  0  0  0  0  0  0
  136.3890   70.5530  223.1164 H   0  0  0  0  0  0  0  0  0  0  0  0
  135.4794   68.4774  225.1774 H   0  0  0  0  0  0  0  0  0  0  0  0
  134.8080   70.1448  224.9437 H   0  0  0  0  0  0  0  0  0  0  0  0
  133.4517   68.2675  223.9510 H   0  0  0  0  0  0  0  0  0  0  0  0
  133.9592   69.6074  222.8189 H   0  0  0  0  0  0  0  0  0  0  0  0
  135.0151   66.8085  223.0270 H   0  0  0  0  0  0  0  0  0  0  0  0
  134.2041   67.6699  221.6332 H   0  0  0  0  0  0  0  0  0  0  0  0
  136.6920   67.3675  221.3455 H   0  0  0  0  0  0  0  0  0  0  0  0
  136.1432   69.0628  221.2742 H   0  0  0  0  0  0  0  0  0  0  0  0
  1  2  2  0
  2  3  1  0
  3  4  2  0
  4  5  1  0
  5  6  2  0
  6  7  1  0
  7  8  2  0
  8  9  1  0
  9 10  2  0
 10 11  1  0
 11 12  2  0
 12 13  1  0
 13 14  2  0
 14 15  1  0
 15 16  2  0
 16 17  1  0
 17 18  1  0
 18 19  1  0
 19 20  1  0
 20 21  1  0
 21 22  1  0
 21 23  1  0
 16 24  1  0
 24 25  2  0
 10 26  1  0
 26 27  1  0
 27 28  1  0
 28 29  1  0
 29 30  1  0
 30 31  1  0
 31 32  1  0
 32 33  1  0
 26  2  1  0
 33 28  1  0
  8  3  1  0
 25 13  1  0
 23 18  1  0
  4 34  1  0
  5 35  1  0
  6 36  1  0
  7 37  1  0
 11 38  1  0
 12 39  1  0
 14 40  1  0
 15 41  1  0
 17 42  1  0
 17 43  1  0
 19 44  1  0
 19 45  1  0
 20 46  1  0
 20 47  1  0
 21 48  1  6
 22 49  1  0
 23 50  1  0
 23 51  1  0
 24 52  1  0
 25 53  1  0
 27 54  1  0
 27 55  1  0
 28 56  1  0
 29 57  1  0
 29 58  1  0
 30 59  1  0
 30 60  1  0
 31 61  1  0
 31 62  1  0
 32 63  1  0
 32 64  1  0
 33 65  1  0
 33 66  1  0
M  END
>  <smiles>  (78) 
O=c1c2ccccc2nc(/C=C/c2ccc(CN3CCC(O)C3)cc2)n1CC1CCCCC1

>  <score_type>  (78) 
oracle

>  <origin>  (78) 
autodockgpu

>  <m_score__min__energy>  (78) 
-9.3900000000000006

>  <m_primary>  (78) 
energy

>  <rmsd>  (78) 
11.56168725263223

>  <m_score__min__rmsd>  (78) 
11.56168725263223

>  <meeko>  (78) 
{"free_energy": -9.37, "intermolecular_energy": -11.75, "internal_energy": -1.6, "cluster_size": 37, "cluster_id": 1, "rank_in_cluster": 3}

>  <energy>  (78) 
-8.65

>  <cluster_rmsd>  (78) 
0.94

>  <cluster>  (78) 
1

$$$$

     RDKit          3D

 66 70  0  0  0  0  0  0  0  0999 V2000
  136.9290   68.9880  225.2710 O   0  0  0  0  0  0  0  0  0  0  0  0
  137.0550   70.0170  224.5510 C   0  0  0  0  0  0  0  0  0  0  0  0
  135.9160   70.7650  224.3410 C   0  0  0  0  0  0  0  0  0  0  0  0
  134.6900   70.4200  224.8850 C   0  0  0  0  0  0  0  0  0  0  0  0
  133.5710   71.2170  224.6370 C   0  0  0  0  0  0  0  0  0  0  0  0
  133.7050   72.3610  223.8380 C   0  0  0  0  0  0  0  0  0  0  0  0
  134.9260   72.7050  223.2970 C   0  0  0  0  0  0  0  0  0  0  0  0
  136.0320   71.8930  223.5580 C   0  0  0  0  0  0  0  0  0  0  0  0
  137.2270   72.2050  223.0450 N   0  0  0  0  0  0  0  0  0  0  0  0
  138.3260   71.4640  223.2600 C   0  0  0  0  0  0  0  0  0  0  0  0
  139.5820   71.8950  222.6320 C   0  0  0  0  0  0  0  0  0  0  0  0
  139.5690   72.7470  221.6250 C   0  0  0  0  0  0  0  0  0  0  0  0
  139.6230   74.1800  221.7400 C   0  0  0  0  0  0  0  0  0  0  0  0
  138.4650   74.9230  221.9670 C   0  0  0  0  0  0  0  0  0  0  0  0
  138.4800   76.2930  222.0830 C   0  0  0  0  0  0  0  0  0  0  0  0
  139.6470   77.0060  221.9790 C   0  0  0  0  0  0  0  0  0  0  0  0
  139.7210   78.4810  222.0810 C   0  0  0  0  0  0  0  0  0  0  0  0
  140.4520   78.9050  223.2260 N   0  0  0  0  0  0  0  0  0  0  0  0
  140.1850   80.3180  223.4400 C   0  0  0  0  0  0  0  0  0  0  0  0
  141.5080   81.0290  223.5130 C   0  0  0  0  0  0  0  0  0  0  0  0
  142.4060   80.0980  222.6870 C   0  0  1  0  0  0  0  0  0  0  0  0
  143.7400   80.2780  222.9850 O   0  0  0  0  0  0  0  0  0  0  0  0
  141.8660   78.7520  223.1630 C   0  0  0  0  0  0  0  0  0  0  0  0
  140.8080   76.3020  221.7560 C   0  0  0  0  0  0  0  0  0  0  0  0
  140.7900   74.9200  221.6400 C   0  0  0  0  0  0  0  0  0  0  0  0
  138.2600   70.3550  224.0190 N   0  0  0  0  0  0  0  0  0  0  0  0
  139.4210   69.5410  224.2880 C   0  0  0  0  0  0  0  0  0  0  0  0
  139.8300   69.6960  225.7100 C   0  0  0  0  0  0  0  0  0  0  0  0
  140.4670   68.4320  226.2700 C   0  0  0  0  0  0  0  0  0  0  0  0
  140.3880   68.5310  227.7750 C   0  0  0  0  0  0  0  0  0  0  0  0
  141.0900   69.7650  228.2900 C   0  0  0  0  0  0  0  0  0  0  0  0
  140.7060   71.0070  227.5690 C   0  0  0  0  0  0  0  0  0  0  0  0
  140.6960   70.8540  226.0410 C   0  0  0  0  0  0  0  0  0  0  0  0
  134.5982   69.5202  225.5110 H   0  0  0  0  0  0  0  0  0  0  0  0
  132.5933   70.9498  225.0645 H   0  0  0  0  0  0  0  0  0  0  0  0
  132.8258   72.9918  223.6402 H   0  0  0  0  0  0  0  0  0  0  0  0
  135.0271   73.6036  222.6706 H   0  0  0  0  0  0  0  0  0  0  0  0
  140.5406   71.5044  223.0042 H   0  0  0  0  0  0  0  0  0  0  0  0
  139.5120   72.3257  220.6105 H   0  0  0  0  0  0  0  0  0  0  0  0
  137.5048   74.3939  222.0565 H   0  0  0  0  0  0  0  0  0  0  0  0
  137.5361   76.8285  222.2630 H   0  0  0  0  0  0  0  0  0  0  0  0
  140.2148   78.8740  221.1800 H   0  0  0  0  0  0  0  0  0  0  0  0
  138.6944   78.8648  222.1748 H   0  0  0  0  0  0  0  0  0  0  0  0
  139.5909   80.7174  222.6048 H   0  0  0  0  0  0  0  0  0  0  0  0
  139.6173   80.4655  224.3706 H   0  0  0  0  0  0  0  0  0  0  0  0
  141.4498   82.0319  223.0648 H   0  0  0  0  0  0  0  0  0  0  0  0
  141.8665   81.2020  224.5384 H   0  0  0  0  0  0  0  0  0  0  0  0
  142.3767   80.2458  221.5974 H   0  0  0  0  0  0  0  0  0  0  0  0
  144.3370   79.8160  222.3520 H   0  0  0  0  0  0  0  0  0  0  0  0
  142.1345   77.9575  222.4511 H   0  0  0  0  0  0  0  0  0  0  0  0
  142.2875   78.4673  224.1383 H   0  0  0  0  0  0  0  0  0  0  0  0
  141.7623   76.8420  221.6686 H   0  0  0  0  0  0  0  0  0  0  0  0
  141.7381   74.3915  221.4619 H   0  0  0  0  0  0  0  0  0  0  0  0
  139.1803   68.4859  224.0907 H   0  0  0  0  0  0  0  0  0  0  0  0
  140.2472   69.8622  223.6366 H   0  0  0  0  0  0  0  0  0  0  0  0
  138.8639   69.9005  226.1945 H   0  0  0  0  0  0  0  0  0  0  0  0
  139.9187   67.5450  225.9199 H   0  0  0  0  0  0  0  0  0  0  0  0
  141.5106   68.3356  225.9359 H   0  0  0  0  0  0  0  0  0  0  0  0
  139.3304   68.5710  228.0748 H   0  0  0  0  0  0  0  0  0  0  0  0
  140.8856   67.6487  228.2038 H   0  0  0  0  0  0  0  0  0  0  0  0
  140.8416   69.8888  229.3544 H   0  0  0  0  0  0  0  0  0  0  0  0
  142.1680   69.6163  228.1291 H   0  0  0  0  0  0  0  0  0  0  0  0
  139.6975   71.3007  227.8955 H   0  0  0  0  0  0  0  0  0  0  0  0
  141.4629   71.7674  227.8116 H   0  0  0  0  0  0  0  0  0  0  0  0
  140.2954   71.7667  225.5756 H   0  0  0  0  0  0  0  0  0  0  0  0
  141.7164   70.6928  225.6630 H   0  0  0  0  0  0  0  0  0  0  0  0
  1  2  2  0
  2  3  1  0
  3  4  2  0
  4  5  1  0
  5  6  2  0
  6  7  1  0
  7  8  2  0
  8  9  1  0
  9 10  2  0
 10 11  1  0
 11 12  2  0
 12 13  1  0
 13 14  2  0
 14 15  1  0
 15 16  2  0
 16 17  1  0
 17 18  1  0
 18 19  1  0
 19 20  1  0
 20 21  1  0
 21 22  1  0
 21 23  1  0
 16 24  1  0
 24 25  2  0
 10 26  1  0
 26 27  1  0
 27 28  1  0
 28 29  1  0
 29 30  1  0
 30 31  1  0
 31 32  1  0
 32 33  1  0
 26  2  1  0
 33 28  1  0
  8  3  1  0
 25 13  1  0
 23 18  1  0
  4 34  1  0
  5 35  1  0
  6 36  1  0
  7 37  1  0
 11 38  1  0
 12 39  1  0
 14 40  1  0
 15 41  1  0
 17 42  1  0
 17 43  1  0
 19 44  1  0
 19 45  1  0
 20 46  1  0
 20 47  1  0
 21 48  1  6
 22 49  1  0
 23 50  1  0
 23 51  1  0
 24 52  1  0
 25 53  1  0
 27 54  1  0
 27 55  1  0
 28 56  1  0
 29 57  1  0
 29 58  1  0
 30 59  1  0
 30 60  1  0
 31 61  1  0
 31 62  1  0
 32 63  1  0
 32 64  1  0
 33 65  1  0
 33 66  1  0
M  END
>  <smiles>  (79) 
O=c1c2ccccc2nc(/C=C/c2ccc(CN3CCC(O)C3)cc2)n1CC1CCCCC1

>  <score_type>  (79) 
oracle

>  <origin>  (79) 
autodockgpu

>  <m_score__min__energy>  (79) 
-9.3900000000000006

>  <m_primary>  (79) 
energy

>  <rmsd>  (79) 
11.675280053160018

>  <m_score__min__rmsd>  (79) 
11.675280053160018

>  <meeko>  (79) 
{"free_energy": -8.7, "intermolecular_energy": -11.08, "internal_energy": -1.61, "cluster_size": 2, "cluster_id": 2, "rank_in_cluster": 1}

>  <energy>  (79) 
-8.64

>  <cluster_rmsd>  (79) 
0.56

>  <cluster>  (79) 
1

$$$$

     RDKit          3D

 66 70  0  0  0  0  0  0  0  0999 V2000
  139.1620   67.9930  225.1990 O   0  0  0  0  0  0  0  0  0  0  0  0
  139.5420   69.1740  224.9640 C   0  0  0  0  0  0  0  0  0  0  0  0
  140.0650   69.8770  226.0290 C   0  0  0  0  0  0  0  0  0  0  0  0
  140.1750   69.3310  227.2970 C   0  0  0  0  0  0  0  0  0  0  0  0
  140.7130   70.0910  228.3370 C   0  0  0  0  0  0  0  0  0  0  0  0
  141.1360   71.4030  228.0810 C   0  0  0  0  0  0  0  0  0  0  0  0
  141.0270   71.9470  226.8180 C   0  0  0  0  0  0  0  0  0  0  0  0
  140.4860   71.1680  225.7940 C   0  0  0  0  0  0  0  0  0  0  0  0
  140.3690   71.6710  224.5610 N   0  0  0  0  0  0  0  0  0  0  0  0
  139.8570   70.9720  223.5350 C   0  0  0  0  0  0  0  0  0  0  0  0
  139.7630   71.6340  222.2270 C   0  0  0  0  0  0  0  0  0  0  0  0
  138.8450   72.5560  222.0080 C   0  0  0  0  0  0  0  0  0  0  0  0
  139.0690   73.9770  222.0060 C   0  0  0  0  0  0  0  0  0  0  0  0
  138.0130   74.8670  222.2010 C   0  0  0  0  0  0  0  0  0  0  0  0
  138.1910   76.2300  222.2050 C   0  0  0  0  0  0  0  0  0  0  0  0
  139.4280   76.7910  222.0140 C   0  0  0  0  0  0  0  0  0  0  0  0
  139.6760   78.2500  221.9940 C   0  0  0  0  0  0  0  0  0  0  0  0
  140.3980   78.6880  223.1390 N   0  0  0  0  0  0  0  0  0  0  0  0
  140.0280   80.0680  223.4110 C   0  0  0  0  0  0  0  0  0  0  0  0
  141.2940   80.8770  223.4830 C   0  0  0  0  0  0  0  0  0  0  0  0
  142.2420   80.0480  222.6060 C   0  0  1  0  0  0  0  0  0  0  0  0
  143.5640   80.3210  222.8840 O   0  0  0  0  0  0  0  0  0  0  0  0
  141.8180   78.6480  223.0420 C   0  0  0  0  0  0  0  0  0  0  0  0
  140.4910   75.9390  221.8180 C   0  0  0  0  0  0  0  0  0  0  0  0
  140.3090   74.5640  221.8150 C   0  0  0  0  0  0  0  0  0  0  0  0
  139.4340   69.7080  223.7190 N   0  0  0  0  0  0  0  0  0  0  0  0
  138.8940   68.9170  222.6390 C   0  0  0  0  0  0  0  0  0  0  0  0
  137.4490   68.6550  222.8770 C   0  0  0  0  0  0  0  0  0  0  0  0
  136.7470   69.8340  223.5350 C   0  0  0  0  0  0  0  0  0  0  0  0
  135.4770   69.3010  224.1520 C   0  0  0  0  0  0  0  0  0  0  0  0
  134.5870   68.6480  223.1210 C   0  0  0  0  0  0  0  0  0  0  0  0
  135.3050   67.6800  222.2500 C   0  0  0  0  0  0  0  0  0  0  0  0
  136.6440   68.2080  221.7140 C   0  0  0  0  0  0  0  0  0  0  0  0
  139.8391   68.3004  227.4842 H   0  0  0  0  0  0  0  0  0  0  0  0
  140.8041   69.6649  229.3470 H   0  0  0  0  0  0  0  0  0  0  0  0
  141.5601   72.0060  228.8974 H   0  0  0  0  0  0  0  0  0  0  0  0
  141.3606   72.9766  226.6214 H   0  0  0  0  0  0  0  0  0  0  0  0
  140.4631   71.3590  221.4243 H   0  0  0  0  0  0  0  0  0  0  0  0
  137.8204   72.2083  221.8099 H   0  0  0  0  0  0  0  0  0  0  0  0
  137.0016   74.4638  222.3572 H   0  0  0  0  0  0  0  0  0  0  0  0
  137.3221   76.8854  222.3649 H   0  0  0  0  0  0  0  0  0  0  0  0
  140.2561   78.4984  221.0930 H   0  0  0  0  0  0  0  0  0  0  0  0
  138.7006   78.7585  221.9949 H   0  0  0  0  0  0  0  0  0  0  0  0
  139.3855   80.4494  222.6037 H   0  0  0  0  0  0  0  0  0  0  0  0
  139.4727   80.1378  224.3580 H   0  0  0  0  0  0  0  0  0  0  0  0
  141.1484   81.8872  223.0727 H   0  0  0  0  0  0  0  0  0  0  0  0
  141.6615   81.0417  224.5066 H   0  0  0  0  0  0  0  0  0  0  0  0
  142.1769   80.2309  221.5233 H   0  0  0  0  0  0  0  0  0  0  0  0
  144.1850   79.8170  222.3080 H   0  0  0  0  0  0  0  0  0  0  0  0
  142.1306   77.9028  222.2957 H   0  0  0  0  0  0  0  0  0  0  0  0
  142.2822   78.3624  223.9975 H   0  0  0  0  0  0  0  0  0  0  0  0
  141.4977   76.3538  221.6617 H   0  0  0  0  0  0  0  0  0  0  0  0
  141.1826   73.9150  221.6549 H   0  0  0  0  0  0  0  0  0  0  0  0
  139.0146   69.4626  221.6915 H   0  0  0  0  0  0  0  0  0  0  0  0
  139.4322   67.9590  222.5874 H   0  0  0  0  0  0  0  0  0  0  0  0
  137.4925   67.7915  223.5571 H   0  0  0  0  0  0  0  0  0  0  0  0
  137.3906   70.2711  224.3126 H   0  0  0  0  0  0  0  0  0  0  0  0
  136.5263   70.6210  222.7988 H   0  0  0  0  0  0  0  0  0  0  0  0
  135.7382   68.5578  224.9197 H   0  0  0  0  0  0  0  0  0  0  0  0
  134.9285   70.1465  224.5927 H   0  0  0  0  0  0  0  0  0  0  0  0
  133.7802   68.1143  223.6446 H   0  0  0  0  0  0  0  0  0  0  0  0
  134.2025   69.4474  222.4705 H   0  0  0  0  0  0  0  0  0  0  0  0
  135.4995   66.7670  222.8319 H   0  0  0  0  0  0  0  0  0  0  0  0
  134.6609   67.4925  221.3782 H   0  0  0  0  0  0  0  0  0  0  0  0
  137.1742   67.4081  221.1763 H   0  0  0  0  0  0  0  0  0  0  0  0
  136.4784   69.0419  221.0160 H   0  0  0  0  0  0  0  0  0  0  0  0
  1  2  2  0
  2  3  1  0
  3  4  2  0
  4  5  1  0
  5  6  2  0
  6  7  1  0
  7  8  2  0
  8  9  1  0
  9 10  2  0
 10 11  1  0
 11 12  2  0
 12 13  1  0
 13 14  2  0
 14 15  1  0
 15 16  2  0
 16 17  1  0
 17 18  1  0
 18 19  1  0
 19 20  1  0
 20 21  1  0
 21 22  1  0
 21 23  1  0
 16 24  1  0
 24 25  2  0
 10 26  1  0
 26 27  1  0
 27 28  1  0
 28 29  1  0
 29 30  1  0
 30 31  1  0
 31 32  1  0
 32 33  1  0
 26  2  1  0
 33 28  1  0
  8  3  1  0
 25 13  1  0
 23 18  1  0
  4 34  1  0
  5 35  1  0
  6 36  1  0
  7 37  1  0
 11 38  1  0
 12 39  1  0
 14 40  1  0
 15 41  1  0
 17 42  1  0
 17 43  1  0
 19 44  1  0
 19 45  1  0
 20 46  1  0
 20 47  1  0
 21 48  1  6
 22 49  1  0
 23 50  1  0
 23 51  1  0
 24 52  1  0
 25 53  1  0
 27 54  1  0
 27 55  1  0
 28 56  1  0
 29 57  1  0
 29 58  1  0
 30 59  1  0
 30 60  1  0
 31 61  1  0
 31 62  1  0
 32 63  1  0
 32 64  1  0
 33 65  1  0
 33 66  1  0
M  END
>  <smiles>  (80) 
O=c1c2ccccc2nc(/C=C/c2ccc(CN3CCC(O)C3)cc2)n1CC1CCCCC1

>  <score_type>  (80) 
oracle

>  <origin>  (80) 
autodockgpu

>  <m_score__min__energy>  (80) 
-9.3900000000000006

>  <m_primary>  (80) 
energy

>  <rmsd>  (80) 
11.38761508793067

>  <m_score__min__rmsd>  (80) 
11.38761508793067

>  <meeko>  (80) 
{"free_energy": -9.24, "intermolecular_energy": -11.62, "internal_energy": -1.71, "cluster_size": 37, "cluster_id": 1, "rank_in_cluster": 6}

>  <energy>  (80) 
-8.62

>  <cluster_rmsd>  (80) 
1.58

>  <cluster>  (80) 
1

$$$$

     RDKit          3D

 66 70  0  0  0  0  0  0  0  0999 V2000
  137.2230   69.2660  225.3470 O   0  0  0  0  0  0  0  0  0  0  0  0
  137.3760   70.1940  224.5050 C   0  0  0  0  0  0  0  0  0  0  0  0
  136.2700   70.9730  224.2390 C   0  0  0  0  0  0  0  0  0  0  0  0
  135.0480   70.7630  224.8550 C   0  0  0  0  0  0  0  0  0  0  0  0
  133.9620   71.5850  224.5450 C   0  0  0  0  0  0  0  0  0  0  0  0
  134.1270   72.6170  223.6100 C   0  0  0  0  0  0  0  0  0  0  0  0
  135.3440   72.8260  222.9970 C   0  0  0  0  0  0  0  0  0  0  0  0
  136.4160   71.9920  223.3220 C   0  0  0  0  0  0  0  0  0  0  0  0
  137.6060   72.1740  222.7420 N   0  0  0  0  0  0  0  0  0  0  0  0
  138.6730   71.4060  223.0130 C   0  0  0  0  0  0  0  0  0  0  0  0
  139.9270   71.6890  222.3020 C   0  0  0  0  0  0  0  0  0  0  0  0
  139.9690   72.6130  221.3610 C   0  0  0  0  0  0  0  0  0  0  0  0
  139.8620   74.0310  221.5750 C   0  0  0  0  0  0  0  0  0  0  0  0
  140.9990   74.8380  221.5970 C   0  0  0  0  0  0  0  0  0  0  0  0
  140.9340   76.1960  221.7980 C   0  0  0  0  0  0  0  0  0  0  0  0
  139.7350   76.8340  221.9900 C   0  0  0  0  0  0  0  0  0  0  0  0
  139.6070   78.2900  222.2250 C   0  0  0  0  0  0  0  0  0  0  0  0
  140.4420   78.7390  223.2870 N   0  0  0  0  0  0  0  0  0  0  0  0
  140.0570   80.1000  223.6240 C   0  0  0  0  0  0  0  0  0  0  0  0
  141.2940   80.9540  223.5640 C   0  0  0  0  0  0  0  0  0  0  0  0
  142.1620   80.1730  222.5680 C   0  0  1  0  0  0  0  0  0  0  0  0
  143.4970   80.4900  222.6950 O   0  0  0  0  0  0  0  0  0  0  0  0
  141.8410   78.7520  223.0250 C   0  0  0  0  0  0  0  0  0  0  0  0
  138.5940   76.0650  221.9740 C   0  0  0  0  0  0  0  0  0  0  0  0
  138.6630   74.6960  221.7710 C   0  0  0  0  0  0  0  0  0  0  0  0
  138.5770   70.4000  223.9020 N   0  0  0  0  0  0  0  0  0  0  0  0
  139.7040   69.5610  224.2340 C   0  0  0  0  0  0  0  0  0  0  0  0
  140.3150   70.0150  225.5120 C   0  0  0  0  0  0  0  0  0  0  0  0
  140.3480   71.5320  225.6310 C   0  0  0  0  0  0  0  0  0  0  0  0
  141.3830   71.8680  226.6780 C   0  0  0  0  0  0  0  0  0  0  0  0
  141.0590   71.2280  228.0070 C   0  0  0  0  0  0  0  0  0  0  0  0
  140.7340   69.7820  227.9020 C   0  0  0  0  0  0  0  0  0  0  0  0
  139.7560   69.4510  226.7650 C   0  0  0  0  0  0  0  0  0  0  0  0
  134.9325   69.9503  225.5872 H   0  0  0  0  0  0  0  0  0  0  0  0
  132.9875   71.4245  225.0293 H   0  0  0  0  0  0  0  0  0  0  0  0
  133.2752   73.2676  223.3627 H   0  0  0  0  0  0  0  0  0  0  0  0
  135.4687   73.6365  222.2638 H   0  0  0  0  0  0  0  0  0  0  0  0
  140.8376   71.1265  222.5559 H   0  0  0  0  0  0  0  0  0  0  0  0
  140.0968   72.2692  220.3240 H   0  0  0  0  0  0  0  0  0  0  0  0
  141.9836   74.3707  221.4481 H   0  0  0  0  0  0  0  0  0  0  0  0
  141.8636   76.7840  221.8051 H   0  0  0  0  0  0  0  0  0  0  0  0
  139.8870   78.8233  221.3046 H   0  0  0  0  0  0  0  0  0  0  0  0
  138.5636   78.4962  222.5057 H   0  0  0  0  0  0  0  0  0  0  0  0
  139.3124   80.4681  222.9028 H   0  0  0  0  0  0  0  0  0  0  0  0
  139.6123   80.1366  224.6294 H   0  0  0  0  0  0  0  0  0  0  0  0
  141.0666   81.9639  223.1920 H   0  0  0  0  0  0  0  0  0  0  0  0
  141.7721   81.1175  224.5411 H   0  0  0  0  0  0  0  0  0  0  0  0
  141.9646   80.3691  221.5038 H   0  0  0  0  0  0  0  0  0  0  0  0
  144.0850   79.8640  222.2110 H   0  0  0  0  0  0  0  0  0  0  0  0
  142.0899   78.0292  222.2340 H   0  0  0  0  0  0  0  0  0  0  0  0
  142.4235   78.4700  223.9145 H   0  0  0  0  0  0  0  0  0  0  0  0
  137.6148   76.5431  222.1242 H   0  0  0  0  0  0  0  0  0  0  0  0
  137.7291   74.1148  221.7653 H   0  0  0  0  0  0  0  0  0  0  0  0
  139.3645   68.5202  224.3416 H   0  0  0  0  0  0  0  0  0  0  0  0
  140.4531   69.6270  223.4312 H   0  0  0  0  0  0  0  0  0  0  0  0
  141.3310   69.6020  225.4275 H   0  0  0  0  0  0  0  0  0  0  0  0
  140.6265   71.9810  224.6662 H   0  0  0  0  0  0  0  0  0  0  0  0
  139.3606   71.9262  225.9131 H   0  0  0  0  0  0  0  0  0  0  0  0
  142.3648   71.5068  226.3380 H   0  0  0  0  0  0  0  0  0  0  0  0
  141.3913   72.9594  226.8151 H   0  0  0  0  0  0  0  0  0  0  0  0
  141.9289   71.3426  228.6705 H   0  0  0  0  0  0  0  0  0  0  0  0
  140.1655   71.7338  228.4018 H   0  0  0  0  0  0  0  0  0  0  0  0
  141.6682   69.2276  227.7292 H   0  0  0  0  0  0  0  0  0  0  0  0
  140.2431   69.4932  228.8431 H   0  0  0  0  0  0  0  0  0  0  0  0
  139.6475   68.3605  226.6695 H   0  0  0  0  0  0  0  0  0  0  0  0
  138.7644   69.8797  226.9722 H   0  0  0  0  0  0  0  0  0  0  0  0
  1  2  2  0
  2  3  1  0
  3  4  2  0
  4  5  1  0
  5  6  2  0
  6  7  1  0
  7  8  2  0
  8  9  1  0
  9 10  2  0
 10 11  1  0
 11 12  2  0
 12 13  1  0
 13 14  2  0
 14 15  1  0
 15 16  2  0
 16 17  1  0
 17 18  1  0
 18 19  1  0
 19 20  1  0
 20 21  1  0
 21 22  1  0
 21 23  1  0
 16 24  1  0
 24 25  2  0
 10 26  1  0
 26 27  1  0
 27 28  1  0
 28 29  1  0
 29 30  1  0
 30 31  1  0
 31 32  1  0
 32 33  1  0
 26  2  1  0
 33 28  1  0
  8  3  1  0
 25 13  1  0
 23 18  1  0
  4 34  1  0
  5 35  1  0
  6 36  1  0
  7 37  1  0
 11 38  1  0
 12 39  1  0
 14 40  1  0
 15 41  1  0
 17 42  1  0
 17 43  1  0
 19 44  1  0
 19 45  1  0
 20 46  1  0
 20 47  1  0
 21 48  1  6
 22 49  1  0
 23 50  1  0
 23 51  1  0
 24 52  1  0
 25 53  1  0
 27 54  1  0
 27 55  1  0
 28 56  1  0
 29 57  1  0
 29 58  1  0
 30 59  1  0
 30 60  1  0
 31 61  1  0
 31 62  1  0
 32 63  1  0
 32 64  1  0
 33 65  1  0
 33 66  1  0
M  END
>  <smiles>  (81) 
O=c1c2ccccc2nc(/C=C/c2ccc(CN3CCC(O)C3)cc2)n1CC1CCCCC1

>  <score_type>  (81) 
oracle

>  <origin>  (81) 
autodockgpu

>  <m_score__min__energy>  (81) 
-9.3900000000000006

>  <m_primary>  (81) 
energy

>  <rmsd>  (81) 
10.667737937386258

>  <m_score__min__rmsd>  (81) 
10.667737937386258

>  <meeko>  (81) 
{"free_energy": -8.6, "intermolecular_energy": -10.99, "internal_energy": -1.68, "cluster_size": 2, "cluster_id": 2, "rank_in_cluster": 2}

>  <energy>  (81) 
-8.62

>  <cluster_rmsd>  (81) 
0.73

>  <cluster>  (81) 
1

$$$$

     RDKit          3D

 66 70  0  0  0  0  0  0  0  0999 V2000
  138.9220   67.5780  225.5300 O   0  0  0  0  0  0  0  0  0  0  0  0
  139.1510   68.7980  225.2950 C   0  0  0  0  0  0  0  0  0  0  0  0
  139.8650   69.4860  226.2520 C   0  0  0  0  0  0  0  0  0  0  0  0
  140.3150   68.8870  227.4170 C   0  0  0  0  0  0  0  0  0  0  0  0
  141.0340   69.6350  228.3510 C   0  0  0  0  0  0  0  0  0  0  0  0
  141.2920   70.9900  228.0950 C   0  0  0  0  0  0  0  0  0  0  0  0
  140.8440   71.5860  226.9350 C   0  0  0  0  0  0  0  0  0  0  0  0
  140.1270   70.8190  226.0150 C   0  0  0  0  0  0  0  0  0  0  0  0
  139.6820   71.3730  224.8830 N   0  0  0  0  0  0  0  0  0  0  0  0
  138.9870   70.6870  223.9610 C   0  0  0  0  0  0  0  0  0  0  0  0
  138.5350   71.4050  222.7620 C   0  0  0  0  0  0  0  0  0  0  0  0
  139.4090   71.9500  221.9380 C   0  0  0  0  0  0  0  0  0  0  0  0
  139.7550   73.3450  221.8880 C   0  0  0  0  0  0  0  0  0  0  0  0
  138.7760   74.3300  222.0200 C   0  0  0  0  0  0  0  0  0  0  0  0
  139.0710   75.6720  221.9770 C   0  0  0  0  0  0  0  0  0  0  0  0
  140.3570   76.1160  221.7990 C   0  0  0  0  0  0  0  0  0  0  0  0
  140.7310   77.5470  221.7300 C   0  0  0  0  0  0  0  0  0  0  0  0
  140.6100   78.1950  222.9920 N   0  0  0  0  0  0  0  0  0  0  0  0
  139.7780   79.3750  222.8200 C   0  0  0  0  0  0  0  0  0  0  0  0
  140.5390   80.5550  223.3580 C   0  0  0  0  0  0  0  0  0  0  0  0
  141.9910   80.0870  223.1960 C   0  0  1  0  0  0  0  0  0  0  0  0
  142.8470   80.7790  224.0270 O   0  0  0  0  0  0  0  0  0  0  0  0
  141.8240   78.6250  223.5990 C   0  0  0  0  0  0  0  0  0  0  0  0
  141.3460   75.1690  221.6650 C   0  0  0  0  0  0  0  0  0  0  0  0
  141.0460   73.8160  221.7090 C   0  0  0  0  0  0  0  0  0  0  0  0
  138.7100   69.3840  224.1500 N   0  0  0  0  0  0  0  0  0  0  0  0
  137.9810   68.6070  223.1760 C   0  0  0  0  0  0  0  0  0  0  0  0
  138.9280   67.9870  222.2110 C   0  0  0  0  0  0  0  0  0  0  0  0
  138.6780   66.4970  222.0300 C   0  0  0  0  0  0  0  0  0  0  0  0
  139.9400   65.9070  221.4490 C   0  0  0  0  0  0  0  0  0  0  0  0
  140.3070   66.5580  220.1360 C   0  0  0  0  0  0  0  0  0  0  0  0
  140.2860   68.0430  220.1880 C   0  0  0  0  0  0  0  0  0  0  0  0
  139.0390   68.6190  220.8740 C   0  0  0  0  0  0  0  0  0  0  0  0
  140.1062   67.8237  227.6059 H   0  0  0  0  0  0  0  0  0  0  0  0
  141.3947   69.1665  229.2786 H   0  0  0  0  0  0  0  0  0  0  0  0
  141.8581   71.5837  228.8279 H   0  0  0  0  0  0  0  0  0  0  0  0
  141.0483   72.6487  226.7378 H   0  0  0  0  0  0  0  0  0  0  0  0
  137.4590   71.4889  222.5495 H   0  0  0  0  0  0  0  0  0  0  0  0
  139.9167   71.2802  221.2284 H   0  0  0  0  0  0  0  0  0  0  0  0
  137.7299   74.0216  222.1637 H   0  0  0  0  0  0  0  0  0  0  0  0
  138.2588   76.4055  222.0877 H   0  0  0  0  0  0  0  0  0  0  0  0
  141.7743   77.6247  221.3903 H   0  0  0  0  0  0  0  0  0  0  0  0
  140.0441   78.0426  221.0282 H   0  0  0  0  0  0  0  0  0  0  0  0
  139.5585   79.5260  221.7528 H   0  0  0  0  0  0  0  0  0  0  0  0
  138.8249   79.2551  223.3559 H   0  0  0  0  0  0  0  0  0  0  0  0
  140.3418   81.4623  222.7682 H   0  0  0  0  0  0  0  0  0  0  0  0
  140.2698   80.8283  224.3889 H   0  0  0  0  0  0  0  0  0  0  0  0
  142.4360   80.2418  222.2020 H   0  0  0  0  0  0  0  0  0  0  0  0
  142.5680   81.7140  224.1660 H   0  0  0  0  0  0  0  0  0  0  0  0
  142.6702   78.0264  223.2306 H   0  0  0  0  0  0  0  0  0  0  0  0
  141.7963   78.5055  224.6921 H   0  0  0  0  0  0  0  0  0  0  0  0
  142.3884   75.4894  221.5211 H   0  0  0  0  0  0  0  0  0  0  0  0
  141.8638   73.0888  221.5976 H   0  0  0  0  0  0  0  0  0  0  0  0
  137.4146   67.8165  223.6901 H   0  0  0  0  0  0  0  0  0  0  0  0
  137.2891   69.2663  222.6314 H   0  0  0  0  0  0  0  0  0  0  0  0
  139.8938   68.1682  222.7054 H   0  0  0  0  0  0  0  0  0  0  0  0
  138.4546   66.0304  223.0008 H   0  0  0  0  0  0  0  0  0  0  0  0
  137.8192   66.3201  221.3658 H   0  0  0  0  0  0  0  0  0  0  0  0
  140.7640   66.0542  222.1627 H   0  0  0  0  0  0  0  0  0  0  0  0
  139.7654   64.8367  221.2646 H   0  0  0  0  0  0  0  0  0  0  0  0
  141.3201   66.2331  219.8568 H   0  0  0  0  0  0  0  0  0  0  0  0
  139.5530   66.2480  219.3976 H   0  0  0  0  0  0  0  0  0  0  0  0
  141.1745   68.3838  220.7398 H   0  0  0  0  0  0  0  0  0  0  0  0
  140.2750   68.4009  219.1479 H   0  0  0  0  0  0  0  0  0  0  0  0
  139.1405   69.7090  220.9820 H   0  0  0  0  0  0  0  0  0  0  0  0
  138.1398   68.4135  220.2747 H   0  0  0  0  0  0  0  0  0  0  0  0
  1  2  2  0
  2  3  1  0
  3  4  2  0
  4  5  1  0
  5  6  2  0
  6  7  1  0
  7  8  2  0
  8  9  1  0
  9 10  2  0
 10 11  1  0
 11 12  2  0
 12 13  1  0
 13 14  2  0
 14 15  1  0
 15 16  2  0
 16 17  1  0
 17 18  1  0
 18 19  1  0
 19 20  1  0
 20 21  1  0
 21 22  1  0
 21 23  1  0
 16 24  1  0
 24 25  2  0
 10 26  1  0
 26 27  1  0
 27 28  1  0
 28 29  1  0
 29 30  1  0
 30 31  1  0
 31 32  1  0
 32 33  1  0
 26  2  1  0
 33 28  1  0
  8  3  1  0
 25 13  1  0
 23 18  1  0
  4 34  1  0
  5 35  1  0
  6 36  1  0
  7 37  1  0
 11 38  1  0
 12 39  1  0
 14 40  1  0
 15 41  1  0
 17 42  1  0
 17 43  1  0
 19 44  1  0
 19 45  1  0
 20 46  1  0
 20 47  1  0
 21 48  1  6
 22 49  1  0
 23 50  1  0
 23 51  1  0
 24 52  1  0
 25 53  1  0
 27 54  1  0
 27 55  1  0
 28 56  1  0
 29 57  1  0
 29 58  1  0
 30 59  1  0
 30 60  1  0
 31 61  1  0
 31 62  1  0
 32 63  1  0
 32 64  1  0
 33 65  1  0
 33 66  1  0
M  END
>  <smiles>  (82) 
O=c1c2ccccc2nc(/C=C/c2ccc(CN3CCC(O)C3)cc2)n1CC1CCCCC1

>  <score_type>  (82) 
oracle

>  <origin>  (82) 
autodockgpu

>  <m_score__min__energy>  (82) 
-9.3900000000000006

>  <m_primary>  (82) 
energy

>  <rmsd>  (82) 
11.822558294327942

>  <m_score__min__rmsd>  (82) 
11.822558294327942

>  <meeko>  (82) 
{"free_energy": -8.81, "intermolecular_energy": -11.2, "internal_energy": -1.7, "cluster_size": 37, "cluster_id": 1, "rank_in_cluster": 20}

>  <energy>  (82) 
-8.61

>  <cluster_rmsd>  (82) 
0.68

>  <cluster>  (82) 
1

$$$$

     RDKit          3D

 66 70  0  0  0  0  0  0  0  0999 V2000
  138.7070   67.8320  225.2480 O   0  0  0  0  0  0  0  0  0  0  0  0
  139.1520   69.0070  225.1200 C   0  0  0  0  0  0  0  0  0  0  0  0
  139.8760   69.5090  226.1810 C   0  0  0  0  0  0  0  0  0  0  0  0
  140.1110   68.7770  227.3330 C   0  0  0  0  0  0  0  0  0  0  0  0
  140.8510   69.3390  228.3750 C   0  0  0  0  0  0  0  0  0  0  0  0
  141.3480   70.6440  228.2390 C   0  0  0  0  0  0  0  0  0  0  0  0
  141.1140   71.3720  227.0920 C   0  0  0  0  0  0  0  0  0  0  0  0
  140.3720   70.7900  226.0630 C   0  0  0  0  0  0  0  0  0  0  0  0
  140.1310   71.4750  224.9400 N   0  0  0  0  0  0  0  0  0  0  0  0
  139.4240   70.9690  223.9170 C   0  0  0  0  0  0  0  0  0  0  0  0
  139.2090   71.8210  222.7390 C   0  0  0  0  0  0  0  0  0  0  0  0
  140.2240   72.4380  222.1650 C   0  0  0  0  0  0  0  0  0  0  0  0
  140.3090   73.8500  221.9100 C   0  0  0  0  0  0  0  0  0  0  0  0
  141.3890   74.3860  221.2100 C   0  0  0  0  0  0  0  0  0  0  0  0
  141.5030   75.7310  220.9470 C   0  0  0  0  0  0  0  0  0  0  0  0
  140.5500   76.6240  221.3660 C   0  0  0  0  0  0  0  0  0  0  0  0
  140.6270   78.0830  221.1250 C   0  0  0  0  0  0  0  0  0  0  0  0
  141.7740   78.6680  221.7320 N   0  0  0  0  0  0  0  0  0  0  0  0
  141.6600   78.5050  223.1720 C   0  0  0  0  0  0  0  0  0  0  0  0
  141.8140   79.8630  223.8010 C   0  0  0  0  0  0  0  0  0  0  0  0
  141.3490   80.7840  222.6650 C   0  0  1  0  0  0  0  0  0  0  0  0
  141.8270   82.0680  222.8210 O   0  0  0  0  0  0  0  0  0  0  0  0
  141.9810   80.0540  221.4830 C   0  0  0  0  0  0  0  0  0  0  0  0
  139.4700   76.1270  222.0600 C   0  0  0  0  0  0  0  0  0  0  0  0
  139.3580   74.7700  222.3230 C   0  0  0  0  0  0  0  0  0  0  0  0
  138.9220   69.7230  223.9890 N   0  0  0  0  0  0  0  0  0  0  0  0
  138.1710   69.1370  222.9040 C   0  0  0  0  0  0  0  0  0  0  0  0
  139.0420   68.2190  222.1220 C   0  0  0  0  0  0  0  0  0  0  0  0
  138.4420   66.8280  221.9840 C   0  0  0  0  0  0  0  0  0  0  0  0
  139.5740   65.8950  221.6260 C   0  0  0  0  0  0  0  0  0  0  0  0
  140.2610   66.3160  220.3490 C   0  0  0  0  0  0  0  0  0  0  0  0
  140.6180   67.7590  220.3200 C   0  0  0  0  0  0  0  0  0  0  0  0
  139.4830   68.6840  220.7840 C   0  0  0  0  0  0  0  0  0  0  0  0
  139.7154   67.7549  227.4268 H   0  0  0  0  0  0  0  0  0  0  0  0
  141.0424   68.7645  229.2933 H   0  0  0  0  0  0  0  0  0  0  0  0
  141.9313   71.0915  229.0573 H   0  0  0  0  0  0  0  0  0  0  0  0
  141.5056   72.3948  226.9894 H   0  0  0  0  0  0  0  0  0  0  0  0
  138.1943   71.9452  222.3329 H   0  0  0  0  0  0  0  0  0  0  0  0
  141.0786   71.8187  221.8549 H   0  0  0  0  0  0  0  0  0  0  0  0
  142.1791   73.7080  220.8550 H   0  0  0  0  0  0  0  0  0  0  0  0
  142.3768   76.0984  220.3889 H   0  0  0  0  0  0  0  0  0  0  0  0
  140.6704   78.2612  220.0404 H   0  0  0  0  0  0  0  0  0  0  0  0
  139.7349   78.5467  221.5713 H   0  0  0  0  0  0  0  0  0  0  0  0
  140.6752   78.0849  223.4244 H   0  0  0  0  0  0  0  0  0  0  0  0
  142.4349   77.8186  223.5440 H   0  0  0  0  0  0  0  0  0  0  0  0
  141.1750   79.9683  224.6901 H   0  0  0  0  0  0  0  0  0  0  0  0
  142.8310   80.0762  224.1619 H   0  0  0  0  0  0  0  0  0  0  0  0
  140.2623   80.9345  222.5843 H   0  0  0  0  0  0  0  0  0  0  0  0
  141.6190   82.6470  222.0510 H   0  0  0  0  0  0  0  0  0  0  0  0
  141.4936   80.3519  220.5430 H   0  0  0  0  0  0  0  0  0  0  0  0
  143.0499   80.2935  221.3819 H   0  0  0  0  0  0  0  0  0  0  0  0
  138.6862   76.8147  222.4103 H   0  0  0  0  0  0  0  0  0  0  0  0
  138.4809   74.4099  222.8807 H   0  0  0  0  0  0  0  0  0  0  0  0
  137.3202   68.5722  223.3128 H   0  0  0  0  0  0  0  0  0  0  0  0
  137.8042   69.9372  222.2443 H   0  0  0  0  0  0  0  0  0  0  0  0
  139.9498   68.1976  222.7429 H   0  0  0  0  0  0  0  0  0  0  0  0
  137.9828   66.5182  222.9343 H   0  0  0  0  0  0  0  0  0  0  0  0
  137.6594   66.8119  221.2111 H   0  0  0  0  0  0  0  0  0  0  0  0
  140.3096   65.8964  222.4439 H   0  0  0  0  0  0  0  0  0  0  0  0
  139.1551   64.8892  221.4749 H   0  0  0  0  0  0  0  0  0  0  0  0
  141.1829   65.7262  220.2379 H   0  0  0  0  0  0  0  0  0  0  0  0
  139.5534   66.1394  219.5255 H   0  0  0  0  0  0  0  0  0  0  0  0
  141.4852   67.9158  220.9784 H   0  0  0  0  0  0  0  0  0  0  0  0
  140.8351   68.0160  219.2727 H   0  0  0  0  0  0  0  0  0  0  0  0
  139.8465   69.7202  220.8483 H   0  0  0  0  0  0  0  0  0  0  0  0
  138.6462   68.6555  220.0706 H   0  0  0  0  0  0  0  0  0  0  0  0
  1  2  2  0
  2  3  1  0
  3  4  2  0
  4  5  1  0
  5  6  2  0
  6  7  1  0
  7  8  2  0
  8  9  1  0
  9 10  2  0
 10 11  1  0
 11 12  2  0
 12 13  1  0
 13 14  2  0
 14 15  1  0
 15 16  2  0
 16 17  1  0
 17 18  1  0
 18 19  1  0
 19 20  1  0
 20 21  1  0
 21 22  1  0
 21 23  1  0
 16 24  1  0
 24 25  2  0
 10 26  1  0
 26 27  1  0
 27 28  1  0
 28 29  1  0
 29 30  1  0
 30 31  1  0
 31 32  1  0
 32 33  1  0
 26  2  1  0
 33 28  1  0
  8  3  1  0
 25 13  1  0
 23 18  1  0
  4 34  1  0
  5 35  1  0
  6 36  1  0
  7 37  1  0
 11 38  1  0
 12 39  1  0
 14 40  1  0
 15 41  1  0
 17 42  1  0
 17 43  1  0
 19 44  1  0
 19 45  1  0
 20 46  1  0
 20 47  1  0
 21 48  1  6
 22 49  1  0
 23 50  1  0
 23 51  1  0
 24 52  1  0
 25 53  1  0
 27 54  1  0
 27 55  1  0
 28 56  1  0
 29 57  1  0
 29 58  1  0
 30 59  1  0
 30 60  1  0
 31 61  1  0
 31 62  1  0
 32 63  1  0
 32 64  1  0
 33 65  1  0
 33 66  1  0
M  END
>  <smiles>  (83) 
O=c1c2ccccc2nc(/C=C/c2ccc(CN3CCC(O)C3)cc2)n1CC1CCCCC1

>  <score_type>  (83) 
oracle

>  <origin>  (83) 
autodockgpu

>  <m_score__min__energy>  (83) 
-9.3900000000000006

>  <m_primary>  (83) 
energy

>  <rmsd>  (83) 
11.8559115048577

>  <m_score__min__rmsd>  (83) 
11.8559115048577

>  <meeko>  (83) 
{"free_energy": -8.62, "intermolecular_energy": -11.01, "internal_energy": -1.64, "cluster_size": 37, "cluster_id": 1, "rank_in_cluster": 30}

>  <energy>  (83) 
-8.6

>  <cluster_rmsd>  (83) 
1.04

>  <cluster>  (83) 
1

$$$$

     RDKit          3D

 66 70  0  0  0  0  0  0  0  0999 V2000
  139.1650   67.8180  225.3590 O   0  0  0  0  0  0  0  0  0  0  0  0
  139.4760   69.0100  225.0830 C   0  0  0  0  0  0  0  0  0  0  0  0
  140.0320   69.7540  226.1020 C   0  0  0  0  0  0  0  0  0  0  0  0
  140.2440   69.2360  227.3690 C   0  0  0  0  0  0  0  0  0  0  0  0
  140.8100   70.0380  228.3620 C   0  0  0  0  0  0  0  0  0  0  0  0
  141.1580   71.3620  228.0600 C   0  0  0  0  0  0  0  0  0  0  0  0
  140.9470   71.8780  226.7990 C   0  0  0  0  0  0  0  0  0  0  0  0
  140.3800   71.0580  225.8220 C   0  0  0  0  0  0  0  0  0  0  0  0
  140.1650   71.5340  224.5910 N   0  0  0  0  0  0  0  0  0  0  0  0
  139.6230   70.7940  223.6090 C   0  0  0  0  0  0  0  0  0  0  0  0
  139.4190   71.4290  222.3000 C   0  0  0  0  0  0  0  0  0  0  0  0
  140.3430   72.2170  221.7870 C   0  0  0  0  0  0  0  0  0  0  0  0
  140.3130   73.6550  221.7900 C   0  0  0  0  0  0  0  0  0  0  0  0
  139.1940   74.3450  222.2550 C   0  0  0  0  0  0  0  0  0  0  0  0
  139.1310   75.7190  222.2720 C   0  0  0  0  0  0  0  0  0  0  0  0
  140.1760   76.4880  221.8270 C   0  0  0  0  0  0  0  0  0  0  0  0
  140.1580   77.9680  221.8090 C   0  0  0  0  0  0  0  0  0  0  0  0
  140.4430   78.5250  223.0880 N   0  0  0  0  0  0  0  0  0  0  0  0
  139.8480   79.8510  223.1500 C   0  0  0  0  0  0  0  0  0  0  0  0
  140.9290   80.8190  223.5450 C   0  0  0  0  0  0  0  0  0  0  0  0
  142.1890   80.1000  223.0430 C   0  0  1  0  0  0  0  0  0  0  0  0
  143.3230   80.5490  223.6840 O   0  0  0  0  0  0  0  0  0  0  0  0
  141.8190   78.6680  223.4200 C   0  0  0  0  0  0  0  0  0  0  0  0
  141.2950   75.8360  221.3620 C   0  0  0  0  0  0  0  0  0  0  0  0
  141.3560   74.4510  221.3460 C   0  0  0  0  0  0  0  0  0  0  0  0
  139.2690   69.5170  223.8380 N   0  0  0  0  0  0  0  0  0  0  0  0
  138.6990   68.6840  222.8060 C   0  0  0  0  0  0  0  0  0  0  0  0
  137.2230   68.8690  222.7630 C   0  0  0  0  0  0  0  0  0  0  0  0
  136.6820   69.5040  224.0360 C   0  0  0  0  0  0  0  0  0  0  0  0
  135.2040   69.2000  224.0840 C   0  0  0  0  0  0  0  0  0  0  0  0
  134.4860   69.7320  222.8670 C   0  0  0  0  0  0  0  0  0  0  0  0
  135.1490   69.3720  221.5860 C   0  0  0  0  0  0  0  0  0  0  0  0
  136.6690   69.5950  221.5950 C   0  0  0  0  0  0  0  0  0  0  0  0
  139.9671   68.1951  227.5924 H   0  0  0  0  0  0  0  0  0  0  0  0
  140.9811   69.6350  229.3711 H   0  0  0  0  0  0  0  0  0  0  0  0
  141.6050   71.9972  228.8389 H   0  0  0  0  0  0  0  0  0  0  0  0
  141.2207   72.9178  226.5669 H   0  0  0  0  0  0  0  0  0  0  0  0
  138.4880   71.2455  221.7436 H   0  0  0  0  0  0  0  0  0  0  0  0
  141.2115   71.7332  221.3162 H   0  0  0  0  0  0  0  0  0  0  0  0
  138.3308   73.7700  222.6213 H   0  0  0  0  0  0  0  0  0  0  0  0
  138.2232   76.2116  222.6505 H   0  0  0  0  0  0  0  0  0  0  0  0
  140.9130   78.3227  221.0919 H   0  0  0  0  0  0  0  0  0  0  0  0
  139.1472   78.2899  221.5182 H   0  0  0  0  0  0  0  0  0  0  0  0
  139.4408   80.1253  222.1657 H   0  0  0  0  0  0  0  0  0  0  0  0
  139.0267   79.8710  223.8815 H   0  0  0  0  0  0  0  0  0  0  0  0
  140.7975   81.7916  223.0482 H   0  0  0  0  0  0  0  0  0  0  0  0
  140.9471   81.0541  224.6194 H   0  0  0  0  0  0  0  0  0  0  0  0
  142.4345   80.2471  221.9809 H   0  0  0  0  0  0  0  0  0  0  0  0
  143.1360   81.2750  224.3240 H   0  0  0  0  0  0  0  0  0  0  0  0
  142.4277   77.9517  222.8487 H   0  0  0  0  0  0  0  0  0  0  0  0
  142.0018   78.4691  224.4863 H   0  0  0  0  0  0  0  0  0  0  0  0
  142.1524   76.4213  220.9982 H   0  0  0  0  0  0  0  0  0  0  0  0
  142.2673   73.9659  220.9663 H   0  0  0  0  0  0  0  0  0  0  0  0
  139.1300   68.9626  221.8330 H   0  0  0  0  0  0  0  0  0  0  0  0
  138.9255   67.6301  223.0252 H   0  0  0  0  0  0  0  0  0  0  0  0
  136.8745   67.8308  222.6602 H   0  0  0  0  0  0  0  0  0  0  0  0
  137.1850   69.0758  224.9156 H   0  0  0  0  0  0  0  0  0  0  0  0
  136.8611   70.5893  224.0414 H   0  0  0  0  0  0  0  0  0  0  0  0
  135.0654   68.1098  224.1318 H   0  0  0  0  0  0  0  0  0  0  0  0
  134.7813   69.6898  224.9736 H   0  0  0  0  0  0  0  0  0  0  0  0
  133.4649   69.3231  222.8581 H   0  0  0  0  0  0  0  0  0  0  0  0
  134.4937   70.8296  222.9394 H   0  0  0  0  0  0  0  0  0  0  0  0
  134.9549   68.3088  221.3810 H   0  0  0  0  0  0  0  0  0  0  0  0
  134.7313   70.0312  220.8108 H   0  0  0  0  0  0  0  0  0  0  0  0
  137.1107   69.2040  220.6666 H   0  0  0  0  0  0  0  0  0  0  0  0
  136.9011   70.6681  221.6623 H   0  0  0  0  0  0  0  0  0  0  0  0
  1  2  2  0
  2  3  1  0
  3  4  2  0
  4  5  1  0
  5  6  2  0
  6  7  1  0
  7  8  2  0
  8  9  1  0
  9 10  2  0
 10 11  1  0
 11 12  2  0
 12 13  1  0
 13 14  2  0
 14 15  1  0
 15 16  2  0
 16 17  1  0
 17 18  1  0
 18 19  1  0
 19 20  1  0
 20 21  1  0
 21 22  1  0
 21 23  1  0
 16 24  1  0
 24 25  2  0
 10 26  1  0
 26 27  1  0
 27 28  1  0
 28 29  1  0
 29 30  1  0
 30 31  1  0
 31 32  1  0
 32 33  1  0
 26  2  1  0
 33 28  1  0
  8  3  1  0
 25 13  1  0
 23 18  1  0
  4 34  1  0
  5 35  1  0
  6 36  1  0
  7 37  1  0
 11 38  1  0
 12 39  1  0
 14 40  1  0
 15 41  1  0
 17 42  1  0
 17 43  1  0
 19 44  1  0
 19 45  1  0
 20 46  1  0
 20 47  1  0
 21 48  1  6
 22 49  1  0
 23 50  1  0
 23 51  1  0
 24 52  1  0
 25 53  1  0
 27 54  1  0
 27 55  1  0
 28 56  1  0
 29 57  1  0
 29 58  1  0
 30 59  1  0
 30 60  1  0
 31 61  1  0
 31 62  1  0
 32 63  1  0
 32 64  1  0
 33 65  1  0
 33 66  1  0
M  END
>  <smiles>  (84) 
O=c1c2ccccc2nc(/C=C/c2ccc(CN3CCC(O)C3)cc2)n1CC1CCCCC1

>  <score_type>  (84) 
oracle

>  <origin>  (84) 
autodockgpu

>  <m_score__min__energy>  (84) 
-9.3900000000000006

>  <m_primary>  (84) 
energy

>  <rmsd>  (84) 
11.464294927318228

>  <m_score__min__rmsd>  (84) 
11.464294927318228

>  <meeko>  (84) 
{"free_energy": -8.7, "intermolecular_energy": -11.09, "internal_energy": -1.66, "cluster_size": 37, "cluster_id": 1, "rank_in_cluster": 26}

>  <energy>  (84) 
-8.56

>  <cluster_rmsd>  (84) 
0.77

>  <cluster>  (84) 
1

$$$$

     RDKit          3D

 66 70  0  0  0  0  0  0  0  0999 V2000
  143.2710   77.3540  219.2590 O   0  0  0  0  0  0  0  0  0  0  0  0
  142.3840   76.7310  219.9060 C   0  0  0  0  0  0  0  0  0  0  0  0
  142.6380   75.4020  220.1760 C   0  0  0  0  0  0  0  0  0  0  0  0
  143.7990   74.7700  219.7660 C   0  0  0  0  0  0  0  0  0  0  0  0
  144.0010   73.4220  220.0680 C   0  0  0  0  0  0  0  0  0  0  0  0
  143.0200   72.7250  220.7870 C   0  0  0  0  0  0  0  0  0  0  0  0
  141.8630   73.3550  221.1960 C   0  0  0  0  0  0  0  0  0  0  0  0
  141.6830   74.7030  220.8820 C   0  0  0  0  0  0  0  0  0  0  0  0
  140.5700   75.3370  221.2670 N   0  0  0  0  0  0  0  0  0  0  0  0
  140.3400   76.6320  220.9960 C   0  0  0  0  0  0  0  0  0  0  0  0
  139.0740   77.2190  221.4550 C   0  0  0  0  0  0  0  0  0  0  0  0
  138.9250   77.5890  222.7120 C   0  0  0  0  0  0  0  0  0  0  0  0
  138.3650   78.8360  223.1570 C   0  0  0  0  0  0  0  0  0  0  0  0
  137.0830   79.2230  222.7680 C   0  0  0  0  0  0  0  0  0  0  0  0
  136.5160   80.4080  223.1750 C   0  0  0  0  0  0  0  0  0  0  0  0
  137.1900   81.2800  223.9910 C   0  0  0  0  0  0  0  0  0  0  0  0
  136.6360   82.5750  224.4480 C   0  0  0  0  0  0  0  0  0  0  0  0
  135.5680   82.4050  225.3740 N   0  0  0  0  0  0  0  0  0  0  0  0
  135.3450   83.6740  226.0480 C   0  0  0  0  0  0  0  0  0  0  0  0
  135.4030   83.4220  227.5300 C   0  0  0  0  0  0  0  0  0  0  0  0
  136.2990   82.1780  227.5980 C   0  0  1  0  0  0  0  0  0  0  0  0
  136.1280   81.4890  228.7790 O   0  0  0  0  0  0  0  0  0  0  0  0
  135.7610   81.4230  226.3850 C   0  0  0  0  0  0  0  0  0  0  0  0
  138.4590   80.9270  224.3930 C   0  0  0  0  0  0  0  0  0  0  0  0
  139.0270   79.7310  223.9810 C   0  0  0  0  0  0  0  0  0  0  0  0
  141.2450   77.3530  220.3090 N   0  0  0  0  0  0  0  0  0  0  0  0
  141.0430   78.7510  220.0110 C   0  0  0  0  0  0  0  0  0  0  0  0
  141.2410   79.5650  221.2410 C   0  0  0  0  0  0  0  0  0  0  0  0
  142.3370   79.0060  222.1350 C   0  0  0  0  0  0  0  0  0  0  0  0
  142.1200   79.5870  223.5120 C   0  0  0  0  0  0  0  0  0  0  0  0
  142.1570   81.0970  223.4910 C   0  0  0  0  0  0  0  0  0  0  0  0
  141.3060   81.6930  222.4280 C   0  0  0  0  0  0  0  0  0  0  0  0
  141.4700   81.0190  221.0580 C   0  0  0  0  0  0  0  0  0  0  0  0
  144.5612   75.3288  219.2032 H   0  0  0  0  0  0  0  0  0  0  0  0
  144.9206   72.9120  219.7450 H   0  0  0  0  0  0  0  0  0  0  0  0
  143.1747   71.6629  221.0279 H   0  0  0  0  0  0  0  0  0  0  0  0
  141.0955   72.8045  221.7599 H   0  0  0  0  0  0  0  0  0  0  0  0
  138.2442   77.3509  220.7450 H   0  0  0  0  0  0  0  0  0  0  0  0
  139.2579   76.8826  223.4867 H   0  0  0  0  0  0  0  0  0  0  0  0
  136.5043   78.5563  222.1118 H   0  0  0  0  0  0  0  0  0  0  0  0
  135.4999   80.6618  222.8387 H   0  0  0  0  0  0  0  0  0  0  0  0
  137.4372   83.1519  224.9330 H   0  0  0  0  0  0  0  0  0  0  0  0
  136.2398   83.1028  223.5680 H   0  0  0  0  0  0  0  0  0  0  0  0
  136.1255   84.3935  225.7596 H   0  0  0  0  0  0  0  0  0  0  0  0
  134.3675   84.0927  225.7667 H   0  0  0  0  0  0  0  0  0  0  0  0
  135.8544   84.2712  228.0640 H   0  0  0  0  0  0  0  0  0  0  0  0
  134.4172   83.2891  227.9997 H   0  0  0  0  0  0  0  0  0  0  0  0
  137.3827   82.3660  227.5794 H   0  0  0  0  0  0  0  0  0  0  0  0
  135.8330   80.5590  228.6380 H   0  0  0  0  0  0  0  0  0  0  0  0
  136.4867   80.6667  226.0513 H   0  0  0  0  0  0  0  0  0  0  0  0
  134.8262   80.8926  226.6191 H   0  0  0  0  0  0  0  0  0  0  0  0
  139.0288   81.6018  225.0487 H   0  0  0  0  0  0  0  0  0  0  0  0
  140.0431   79.4834  224.3219 H   0  0  0  0  0  0  0  0  0  0  0  0
  141.7645   79.0683  219.2436 H   0  0  0  0  0  0  0  0  0  0  0  0
  140.0176   78.8978  219.6408 H   0  0  0  0  0  0  0  0  0  0  0  0
  140.2555   79.4777  221.7218 H   0  0  0  0  0  0  0  0  0  0  0  0
  142.2711   77.9086  222.1729 H   0  0  0  0  0  0  0  0  0  0  0  0
  143.3326   79.2702  221.7489 H   0  0  0  0  0  0  0  0  0  0  0  0
  141.1393   79.2592  223.8872 H   0  0  0  0  0  0  0  0  0  0  0  0
  142.9298   79.2322  224.1665 H   0  0  0  0  0  0  0  0  0  0  0  0
  141.8082   81.4680  224.4660 H   0  0  0  0  0  0  0  0  0  0  0  0
  143.1951   81.3938  223.2808 H   0  0  0  0  0  0  0  0  0  0  0  0
  140.2534   81.6047  222.7351 H   0  0  0  0  0  0  0  0  0  0  0  0
  141.6219   82.7402  222.3117 H   0  0  0  0  0  0  0  0  0  0  0  0
  140.7351   81.4278  220.3489 H   0  0  0  0  0  0  0  0  0  0  0  0
  142.4772   81.2030  220.6560 H   0  0  0  0  0  0  0  0  0  0  0  0
  1  2  2  0
  2  3  1  0
  3  4  2  0
  4  5  1  0
  5  6  2  0
  6  7  1  0
  7  8  2  0
  8  9  1  0
  9 10  2  0
 10 11  1  0
 11 12  2  0
 12 13  1  0
 13 14  2  0
 14 15  1  0
 15 16  2  0
 16 17  1  0
 17 18  1  0
 18 19  1  0
 19 20  1  0
 20 21  1  0
 21 22  1  0
 21 23  1  0
 16 24  1  0
 24 25  2  0
 10 26  1  0
 26 27  1  0
 27 28  1  0
 28 29  1  0
 29 30  1  0
 30 31  1  0
 31 32  1  0
 32 33  1  0
 26  2  1  0
 33 28  1  0
  8  3  1  0
 25 13  1  0
 23 18  1  0
  4 34  1  0
  5 35  1  0
  6 36  1  0
  7 37  1  0
 11 38  1  0
 12 39  1  0
 14 40  1  0
 15 41  1  0
 17 42  1  0
 17 43  1  0
 19 44  1  0
 19 45  1  0
 20 46  1  0
 20 47  1  0
 21 48  1  6
 22 49  1  0
 23 50  1  0
 23 51  1  0
 24 52  1  0
 25 53  1  0
 27 54  1  0
 27 55  1  0
 28 56  1  0
 29 57  1  0
 29 58  1  0
 30 59  1  0
 30 60  1  0
 31 61  1  0
 31 62  1  0
 32 63  1  0
 32 64  1  0
 33 65  1  0
 33 66  1  0
M  END
>  <smiles>  (85) 
O=c1c2ccccc2nc(/C=C/c2ccc(CN3CCC(O)C3)cc2)n1CC1CCCCC1

>  <score_type>  (85) 
oracle

>  <origin>  (85) 
autodockgpu

>  <m_score__min__energy>  (85) 
-9.3900000000000006

>  <m_primary>  (85) 
energy

>  <rmsd>  (85) 
7.312097758230419

>  <m_score__min__rmsd>  (85) 
7.312097758230419

>  <meeko>  (85) 
{"free_energy": -7.62, "intermolecular_energy": -10.01, "internal_energy": -2.37, "cluster_size": 4, "cluster_id": 7, "rank_in_cluster": 4}

>  <energy>  (85) 
-8.54

>  <cluster_rmsd>  (85) 
1.07

>  <cluster>  (85) 
1

$$$$

     RDKit          3D

 66 70  0  0  0  0  0  0  0  0999 V2000
  139.1040   67.9990  225.1570 O   0  0  0  0  0  0  0  0  0  0  0  0
  139.5080   69.1760  224.9380 C   0  0  0  0  0  0  0  0  0  0  0  0
  140.0260   69.8600  226.0160 C   0  0  0  0  0  0  0  0  0  0  0  0
  140.1080   69.3010  227.2810 C   0  0  0  0  0  0  0  0  0  0  0  0
  140.6430   70.0430  228.3360 C   0  0  0  0  0  0  0  0  0  0  0  0
  141.0930   71.3500  228.0980 C   0  0  0  0  0  0  0  0  0  0  0  0
  141.0120   71.9060  226.8380 C   0  0  0  0  0  0  0  0  0  0  0  0
  140.4730   71.1450  225.7990 C   0  0  0  0  0  0  0  0  0  0  0  0
  140.3840   71.6610  224.5690 N   0  0  0  0  0  0  0  0  0  0  0  0
  139.8750   70.9800  223.5290 C   0  0  0  0  0  0  0  0  0  0  0  0
  139.8120   71.6550  222.2260 C   0  0  0  0  0  0  0  0  0  0  0  0
  138.8920   72.5710  221.9910 C   0  0  0  0  0  0  0  0  0  0  0  0
  139.1040   73.9930  222.0060 C   0  0  0  0  0  0  0  0  0  0  0  0
  138.0530   74.8690  222.2770 C   0  0  0  0  0  0  0  0  0  0  0  0
  138.2190   76.2340  222.3000 C   0  0  0  0  0  0  0  0  0  0  0  0
  139.4390   76.8100  222.0540 C   0  0  0  0  0  0  0  0  0  0  0  0
  139.6730   78.2720  222.0510 C   0  0  0  0  0  0  0  0  0  0  0  0
  140.3890   78.7030  223.2030 N   0  0  0  0  0  0  0  0  0  0  0  0
  140.0750   80.1030  223.4370 C   0  0  0  0  0  0  0  0  0  0  0  0
  141.3740   80.8570  223.5210 C   0  0  0  0  0  0  0  0  0  0  0  0
  142.3030   79.9680  222.6830 C   0  0  1  0  0  0  0  0  0  0  0  0
  143.6290   80.1890  222.9850 O   0  0  0  0  0  0  0  0  0  0  0  0
  141.8070   78.5980  223.1390 C   0  0  0  0  0  0  0  0  0  0  0  0
  140.4970   75.9720  221.7830 C   0  0  0  0  0  0  0  0  0  0  0  0
  140.3270   74.5960  221.7610 C   0  0  0  0  0  0  0  0  0  0  0  0
  139.4280   69.7220  223.6960 N   0  0  0  0  0  0  0  0  0  0  0  0
  138.8900   68.9500  222.6010 C   0  0  0  0  0  0  0  0  0  0  0  0
  137.4520   68.6600  222.8440 C   0  0  0  0  0  0  0  0  0  0  0  0
  136.7220   69.8390  223.4710 C   0  0  0  0  0  0  0  0  0  0  0  0
  135.4630   69.2920  224.1010 C   0  0  0  0  0  0  0  0  0  0  0  0
  134.5900   68.5930  223.0850 C   0  0  0  0  0  0  0  0  0  0  0  0
  135.3310   67.6200  222.2400 C   0  0  0  0  0  0  0  0  0  0  0  0
  136.6590   68.1650  221.6920 C   0  0  0  0  0  0  0  0  0  0  0  0
  139.7523   68.2746  227.4540 H   0  0  0  0  0  0  0  0  0  0  0  0
  140.7109   69.6069  229.3436 H   0  0  0  0  0  0  0  0  0  0  0  0
  141.5155   71.9386  228.9257 H   0  0  0  0  0  0  0  0  0  0  0  0
  141.3660   72.9313  226.6551 H   0  0  0  0  0  0  0  0  0  0  0  0
  140.5369   71.3950  221.4406 H   0  0  0  0  0  0  0  0  0  0  0  0
  137.8757   72.2164  221.7642 H   0  0  0  0  0  0  0  0  0  0  0  0
  137.0551   74.4529  222.4797 H   0  0  0  0  0  0  0  0  0  0  0  0
  137.3546   76.8776  222.5205 H   0  0  0  0  0  0  0  0  0  0  0  0
  140.2523   78.5364  221.1541 H   0  0  0  0  0  0  0  0  0  0  0  0
  138.6929   78.7714  222.0554 H   0  0  0  0  0  0  0  0  0  0  0  0
  139.4680   80.4943  222.6072 H   0  0  0  0  0  0  0  0  0  0  0  0
  139.5026   80.2181  224.3692 H   0  0  0  0  0  0  0  0  0  0  0  0
  141.2825   81.8635  223.0866 H   0  0  0  0  0  0  0  0  0  0  0  0
  141.7261   81.0277  224.5490 H   0  0  0  0  0  0  0  0  0  0  0  0
  142.2700   80.1292  221.5954 H   0  0  0  0  0  0  0  0  0  0  0  0
  144.2420   79.7410  222.3560 H   0  0  0  0  0  0  0  0  0  0  0  0
  142.1019   77.8233  222.4160 H   0  0  0  0  0  0  0  0  0  0  0  0
  142.2371   78.3135  224.1106 H   0  0  0  0  0  0  0  0  0  0  0  0
  141.4902   76.3995  221.5813 H   0  0  0  0  0  0  0  0  0  0  0  0
  141.1963   73.9590  221.5406 H   0  0  0  0  0  0  0  0  0  0  0  0
  138.9940   69.5210  221.6666 H   0  0  0  0  0  0  0  0  0  0  0  0
  139.4419   68.0019  222.5211 H   0  0  0  0  0  0  0  0  0  0  0  0
  137.5146   67.8149  223.5454 H   0  0  0  0  0  0  0  0  0  0  0  0
  137.3542   70.3108  224.2376 H   0  0  0  0  0  0  0  0  0  0  0  0
  136.4841   70.6016  222.7148 H   0  0  0  0  0  0  0  0  0  0  0  0
  135.7402   68.5743  224.8872 H   0  0  0  0  0  0  0  0  0  0  0  0
  134.8944   70.1350  224.5207 H   0  0  0  0  0  0  0  0  0  0  0  0
  133.7942   68.0546  223.6206 H   0  0  0  0  0  0  0  0  0  0  0  0
  134.1893   69.3669  222.4138 H   0  0  0  0  0  0  0  0  0  0  0  0
  135.5453   66.7268  222.8452 H   0  0  0  0  0  0  0  0  0  0  0  0
  134.6928   67.3955  221.3726 H   0  0  0  0  0  0  0  0  0  0  0  0
  137.2082   67.3640  221.1754 H   0  0  0  0  0  0  0  0  0  0  0  0
  136.4753   68.9769  220.9729 H   0  0  0  0  0  0  0  0  0  0  0  0
  1  2  2  0
  2  3  1  0
  3  4  2  0
  4  5  1  0
  5  6  2  0
  6  7  1  0
  7  8  2  0
  8  9  1  0
  9 10  2  0
 10 11  1  0
 11 12  2  0
 12 13  1  0
 13 14  2  0
 14 15  1  0
 15 16  2  0
 16 17  1  0
 17 18  1  0
 18 19  1  0
 19 20  1  0
 20 21  1  0
 21 22  1  0
 21 23  1  0
 16 24  1  0
 24 25  2  0
 10 26  1  0
 26 27  1  0
 27 28  1  0
 28 29  1  0
 29 30  1  0
 30 31  1  0
 31 32  1  0
 32 33  1  0
 26  2  1  0
 33 28  1  0
  8  3  1  0
 25 13  1  0
 23 18  1  0
  4 34  1  0
  5 35  1  0
  6 36  1  0
  7 37  1  0
 11 38  1  0
 12 39  1  0
 14 40  1  0
 15 41  1  0
 17 42  1  0
 17 43  1  0
 19 44  1  0
 19 45  1  0
 20 46  1  0
 20 47  1  0
 21 48  1  6
 22 49  1  0
 23 50  1  0
 23 51  1  0
 24 52  1  0
 25 53  1  0
 27 54  1  0
 27 55  1  0
 28 56  1  0
 29 57  1  0
 29 58  1  0
 30 59  1  0
 30 60  1  0
 31 61  1  0
 31 62  1  0
 32 63  1  0
 32 64  1  0
 33 65  1  0
 33 66  1  0
M  END
>  <smiles>  (86) 
O=c1c2ccccc2nc(/C=C/c2ccc(CN3CCC(O)C3)cc2)n1CC1CCCCC1

>  <score_type>  (86) 
oracle

>  <origin>  (86) 
autodockgpu

>  <m_score__min__energy>  (86) 
-9.3900000000000006

>  <m_primary>  (86) 
energy

>  <rmsd>  (86) 
11.39547161202813

>  <m_score__min__rmsd>  (86) 
11.39547161202813

>  <meeko>  (86) 
{"free_energy": -9.27, "intermolecular_energy": -11.65, "internal_energy": -1.7, "cluster_size": 37, "cluster_id": 1, "rank_in_cluster": 4}

>  <energy>  (86) 
-8.53

>  <cluster_rmsd>  (86) 
1.34

>  <cluster>  (86) 
1

$$$$

     RDKit          3D

 66 70  0  0  0  0  0  0  0  0999 V2000
  143.3360   77.2190  219.1750 O   0  0  0  0  0  0  0  0  0  0  0  0
  142.5120   76.5360  219.8460 C   0  0  0  0  0  0  0  0  0  0  0  0
  142.8730   75.2340  220.1230 C   0  0  0  0  0  0  0  0  0  0  0  0
  144.0720   74.6890  219.6960 C   0  0  0  0  0  0  0  0  0  0  0  0
  144.3840   73.3640  220.0070 C   0  0  0  0  0  0  0  0  0  0  0  0
  143.4730   72.6010  220.7520 C   0  0  0  0  0  0  0  0  0  0  0  0
  142.2790   73.1450  221.1780 C   0  0  0  0  0  0  0  0  0  0  0  0
  141.9890   74.4720  220.8550 C   0  0  0  0  0  0  0  0  0  0  0  0
  140.8380   75.0220  221.2560 N   0  0  0  0  0  0  0  0  0  0  0  0
  140.5030   76.2920  220.9770 C   0  0  0  0  0  0  0  0  0  0  0  0
  139.2050   76.7840  221.4560 C   0  0  0  0  0  0  0  0  0  0  0  0
  139.0770   77.2510  222.6830 C   0  0  0  0  0  0  0  0  0  0  0  0
  138.5380   78.5360  223.0380 C   0  0  0  0  0  0  0  0  0  0  0  0
  139.2450   79.4010  223.8740 C   0  0  0  0  0  0  0  0  0  0  0  0
  138.7610   80.6360  224.2340 C   0  0  0  0  0  0  0  0  0  0  0  0
  137.5450   81.0860  223.7850 C   0  0  0  0  0  0  0  0  0  0  0  0
  136.9680   82.4000  224.1510 C   0  0  0  0  0  0  0  0  0  0  0  0
  135.8780   82.2740  225.0570 N   0  0  0  0  0  0  0  0  0  0  0  0
  135.6680   83.5620  225.6990 C   0  0  0  0  0  0  0  0  0  0  0  0
  135.6900   83.3410  227.1870 C   0  0  0  0  0  0  0  0  0  0  0  0
  136.5560   82.0800  227.3010 C   0  0  1  0  0  0  0  0  0  0  0  0
  136.3450   81.4210  228.4930 O   0  0  0  0  0  0  0  0  0  0  0  0
  136.0270   81.3100  226.0930 C   0  0  0  0  0  0  0  0  0  0  0  0
  136.8230   80.2560  222.9580 C   0  0  0  0  0  0  0  0  0  0  0  0
  137.3140   79.0110  222.5970 C   0  0  0  0  0  0  0  0  0  0  0  0
  141.3370   77.0740  220.2660 N   0  0  0  0  0  0  0  0  0  0  0  0
  141.0210   78.4480  219.9590 C   0  0  0  0  0  0  0  0  0  0  0  0
  141.5960   79.3440  220.9980 C   0  0  0  0  0  0  0  0  0  0  0  0
  140.7490   80.5880  221.2230 C   0  0  0  0  0  0  0  0  0  0  0  0
  141.6360   81.6080  221.8960 C   0  0  0  0  0  0  0  0  0  0  0  0
  142.1930   81.0890  223.2000 C   0  0  0  0  0  0  0  0  0  0  0  0
  142.7870   79.7310  223.0890 C   0  0  0  0  0  0  0  0  0  0  0  0
  141.9110   78.7360  222.3140 C   0  0  0  0  0  0  0  0  0  0  0  0
  144.7776   75.2988  219.1127 H   0  0  0  0  0  0  0  0  0  0  0  0
  145.3343   72.9232  219.6713 H   0  0  0  0  0  0  0  0  0  0  0  0
  143.7134   71.5565  220.9995 H   0  0  0  0  0  0  0  0  0  0  0  0
  141.5673   72.5433  221.7624 H   0  0  0  0  0  0  0  0  0  0  0  0
  138.3326   76.7629  220.7863 H   0  0  0  0  0  0  0  0  0  0  0  0
  139.4114   76.6015  223.5054 H   0  0  0  0  0  0  0  0  0  0  0  0
  140.2252   79.0830  224.2589 H   0  0  0  0  0  0  0  0  0  0  0  0
  139.3613   81.2773  224.8961 H   0  0  0  0  0  0  0  0  0  0  0  0
  137.7512   83.0122  224.6218 H   0  0  0  0  0  0  0  0  0  0  0  0
  136.5906   82.8714  223.2316 H   0  0  0  0  0  0  0  0  0  0  0  0
  136.4694   84.2587  225.4119 H   0  0  0  0  0  0  0  0  0  0  0  0
  134.7057   83.9948  225.3882 H   0  0  0  0  0  0  0  0  0  0  0  0
  136.1491   84.1916  227.7120 H   0  0  0  0  0  0  0  0  0  0  0  0
  134.6920   83.2398  227.6383 H   0  0  0  0  0  0  0  0  0  0  0  0
  137.6437   82.2439  227.3015 H   0  0  0  0  0  0  0  0  0  0  0  0
  135.8850   80.5570  228.3740 H   0  0  0  0  0  0  0  0  0  0  0  0
  136.7424   80.5306  225.7917 H   0  0  0  0  0  0  0  0  0  0  0  0
  135.0758   80.8054  226.3179 H   0  0  0  0  0  0  0  0  0  0  0  0
  135.8441   80.5847  222.5788 H   0  0  0  0  0  0  0  0  0  0  0  0
  136.7079   78.3755  221.9345 H   0  0  0  0  0  0  0  0  0  0  0  0
  141.4439   78.7090  218.9776 H   0  0  0  0  0  0  0  0  0  0  0  0
  139.9282   78.5723  219.9380 H   0  0  0  0  0  0  0  0  0  0  0  0
  142.5671   79.6027  220.5508 H   0  0  0  0  0  0  0  0  0  0  0  0
  140.3871   80.9782  220.2603 H   0  0  0  0  0  0  0  0  0  0  0  0
  139.8711   80.3589  221.8449 H   0  0  0  0  0  0  0  0  0  0  0  0
  142.4715   81.8530  221.2237 H   0  0  0  0  0  0  0  0  0  0  0  0
  141.0301   82.5002  222.1125 H   0  0  0  0  0  0  0  0  0  0  0  0
  142.9724   81.7832  223.5472 H   0  0  0  0  0  0  0  0  0  0  0  0
  141.3533   81.0195  223.9072 H   0  0  0  0  0  0  0  0  0  0  0  0
  143.7550   79.8164  222.5735 H   0  0  0  0  0  0  0  0  0  0  0  0
  142.8896   79.3402  224.1121 H   0  0  0  0  0  0  0  0  0  0  0  0
  142.4551   77.7909  222.1697 H   0  0  0  0  0  0  0  0  0  0  0  0
  140.9869   78.5207  222.8706 H   0  0  0  0  0  0  0  0  0  0  0  0
  1  2  2  0
  2  3  1  0
  3  4  2  0
  4  5  1  0
  5  6  2  0
  6  7  1  0
  7  8  2  0
  8  9  1  0
  9 10  2  0
 10 11  1  0
 11 12  2  0
 12 13  1  0
 13 14  2  0
 14 15  1  0
 15 16  2  0
 16 17  1  0
 17 18  1  0
 18 19  1  0
 19 20  1  0
 20 21  1  0
 21 22  1  0
 21 23  1  0
 16 24  1  0
 24 25  2  0
 10 26  1  0
 26 27  1  0
 27 28  1  0
 28 29  1  0
 29 30  1  0
 30 31  1  0
 31 32  1  0
 32 33  1  0
 26  2  1  0
 33 28  1  0
  8  3  1  0
 25 13  1  0
 23 18  1  0
  4 34  1  0
  5 35  1  0
  6 36  1  0
  7 37  1  0
 11 38  1  0
 12 39  1  0
 14 40  1  0
 15 41  1  0
 17 42  1  0
 17 43  1  0
 19 44  1  0
 19 45  1  0
 20 46  1  0
 20 47  1  0
 21 48  1  6
 22 49  1  0
 23 50  1  0
 23 51  1  0
 24 52  1  0
 25 53  1  0
 27 54  1  0
 27 55  1  0
 28 56  1  0
 29 57  1  0
 29 58  1  0
 30 59  1  0
 30 60  1  0
 31 61  1  0
 31 62  1  0
 32 63  1  0
 32 64  1  0
 33 65  1  0
 33 66  1  0
M  END
>  <smiles>  (87) 
O=c1c2ccccc2nc(/C=C/c2ccc(CN3CCC(O)C3)cc2)n1CC1CCCCC1

>  <score_type>  (87) 
oracle

>  <origin>  (87) 
autodockgpu

>  <m_score__min__energy>  (87) 
-9.3900000000000006

>  <m_primary>  (87) 
energy

>  <rmsd>  (87) 
7.387855980725346

>  <m_score__min__rmsd>  (87) 
7.387855980725346

>  <meeko>  (87) 
{"free_energy": -7.8, "intermolecular_energy": -10.19, "internal_energy": -2.44, "cluster_size": 4, "cluster_id": 7, "rank_in_cluster": 1}

>  <energy>  (87) 
-8.49

>  <cluster_rmsd>  (87) 
0.89

>  <cluster>  (87) 
1

$$$$

     RDKit          3D

 66 70  0  0  0  0  0  0  0  0999 V2000
  140.4960   72.2430  224.1650 O   0  0  0  0  0  0  0  0  0  0  0  0
  139.8660   71.1840  224.4420 C   0  0  0  0  0  0  0  0  0  0  0  0
  140.0480   70.6720  225.7090 C   0  0  0  0  0  0  0  0  0  0  0  0
  140.8750   71.2750  226.6410 C   0  0  0  0  0  0  0  0  0  0  0  0
  141.0210   70.7100  227.9100 C   0  0  0  0  0  0  0  0  0  0  0  0
  140.3230   69.5340  228.2230 C   0  0  0  0  0  0  0  0  0  0  0  0
  139.4980   68.9350  227.2940 C   0  0  0  0  0  0  0  0  0  0  0  0
  139.3680   69.5170  226.0320 C   0  0  0  0  0  0  0  0  0  0  0  0
  138.5750   68.9560  225.1130 N   0  0  0  0  0  0  0  0  0  0  0  0
  138.4100   69.4690  223.8830 C   0  0  0  0  0  0  0  0  0  0  0  0
  137.5260   68.7560  222.9520 C   0  0  0  0  0  0  0  0  0  0  0  0
  136.2450   68.6030  223.2290 C   0  0  0  0  0  0  0  0  0  0  0  0
  135.4230   69.5470  223.9370 C   0  0  0  0  0  0  0  0  0  0  0  0
  134.4930   70.3340  223.2580 C   0  0  0  0  0  0  0  0  0  0  0  0
  133.6910   71.2460  223.9030 C   0  0  0  0  0  0  0  0  0  0  0  0
  133.7650   71.4300  225.2600 C   0  0  0  0  0  0  0  0  0  0  0  0
  132.9380   72.4070  226.0050 C   0  0  0  0  0  0  0  0  0  0  0  0
  133.7160   73.4660  226.5490 N   0  0  0  0  0  0  0  0  0  0  0  0
  132.8110   74.5090  227.0040 C   0  0  0  0  0  0  0  0  0  0  0  0
  133.2390   75.8000  226.3610 C   0  0  0  0  0  0  0  0  0  0  0  0
  133.9340   75.2980  225.0890 C   0  0  1  0  0  0  0  0  0  0  0  0
  134.8020   76.2380  224.5750 O   0  0  0  0  0  0  0  0  0  0  0  0
  134.6500   74.0800  225.6660 C   0  0  0  0  0  0  0  0  0  0  0  0
  134.6740   70.6680  225.9590 C   0  0  0  0  0  0  0  0  0  0  0  0
  135.4810   69.7490  225.3060 C   0  0  0  0  0  0  0  0  0  0  0  0
  139.0530   70.5950  223.5250 N   0  0  0  0  0  0  0  0  0  0  0  0
  138.8890   71.1880  222.2190 C   0  0  0  0  0  0  0  0  0  0  0  0
  138.1890   72.4950  222.3400 C   0  0  0  0  0  0  0  0  0  0  0  0
  138.7720   73.5510  221.4130 C   0  0  0  0  0  0  0  0  0  0  0  0
  138.3400   74.8940  221.9520 C   0  0  0  0  0  0  0  0  0  0  0  0
  136.8360   75.0080  222.0240 C   0  0  0  0  0  0  0  0  0  0  0  0
  136.1870   73.8420  222.6790 C   0  0  0  0  0  0  0  0  0  0  0  0
  136.7140   72.4860  222.1870 C   0  0  0  0  0  0  0  0  0  0  0  0
  141.4161   72.1972  226.3828 H   0  0  0  0  0  0  0  0  0  0  0  0
  141.6766   71.1823  228.6564 H   0  0  0  0  0  0  0  0  0  0  0  0
  140.4349   69.0845  229.2207 H   0  0  0  0  0  0  0  0  0  0  0  0
  138.9514   68.0136  227.5436 H   0  0  0  0  0  0  0  0  0  0  0  0
  137.9349   68.3463  222.0166 H   0  0  0  0  0  0  0  0  0  0  0  0
  135.7646   67.6736  222.8892 H   0  0  0  0  0  0  0  0  0  0  0  0
  134.3977   70.2212  222.1680 H   0  0  0  0  0  0  0  0  0  0  0  0
  132.9744   71.8410  223.3177 H   0  0  0  0  0  0  0  0  0  0  0  0
  132.1899   72.8328  225.3202 H   0  0  0  0  0  0  0  0  0  0  0  0
  132.4595   71.8759  226.8411 H   0  0  0  0  0  0  0  0  0  0  0  0
  131.7802   74.2663  226.7066 H   0  0  0  0  0  0  0  0  0  0  0  0
  132.8437   74.5957  228.1001 H   0  0  0  0  0  0  0  0  0  0  0  0
  132.3733   76.4348  226.1211 H   0  0  0  0  0  0  0  0  0  0  0  0
  133.8770   76.4276  227.0006 H   0  0  0  0  0  0  0  0  0  0  0  0
  133.2740   75.0824  224.2358 H   0  0  0  0  0  0  0  0  0  0  0  0
  135.6480   75.8430  224.2610 H   0  0  0  0  0  0  0  0  0  0  0  0
  134.9320   73.3844  224.8619 H   0  0  0  0  0  0  0  0  0  0  0  0
  135.5762   74.3630  226.1877 H   0  0  0  0  0  0  0  0  0  0  0  0
  134.7610   70.7898  227.0488 H   0  0  0  0  0  0  0  0  0  0  0  0
  136.1949   69.1575  225.8980 H   0  0  0  0  0  0  0  0  0  0  0  0
  139.8777   71.3447  221.7630 H   0  0  0  0  0  0  0  0  0  0  0  0
  138.2908   70.5141  221.5881 H   0  0  0  0  0  0  0  0  0  0  0  0
  138.3760   72.7480  223.3940 H   0  0  0  0  0  0  0  0  0  0  0  0
  139.8698   73.4822  221.4042 H   0  0  0  0  0  0  0  0  0  0  0  0
  138.4181   73.4082  220.3813 H   0  0  0  0  0  0  0  0  0  0  0  0
  138.7563   75.0237  222.9619 H   0  0  0  0  0  0  0  0  0  0  0  0
  138.7112   75.6733  221.2701 H   0  0  0  0  0  0  0  0  0  0  0  0
  136.5817   75.9141  222.5934 H   0  0  0  0  0  0  0  0  0  0  0  0
  136.4632   75.0490  220.9899 H   0  0  0  0  0  0  0  0  0  0  0  0
  136.3623   73.9103  223.7628 H   0  0  0  0  0  0  0  0  0  0  0  0
  135.1178   73.8835  222.4237 H   0  0  0  0  0  0  0  0  0  0  0  0
  136.2796   71.6742  222.7888 H   0  0  0  0  0  0  0  0  0  0  0  0
  136.4360   72.3224  221.1353 H   0  0  0  0  0  0  0  0  0  0  0  0
  1  2  2  0
  2  3  1  0
  3  4  2  0
  4  5  1  0
  5  6  2  0
  6  7  1  0
  7  8  2  0
  8  9  1  0
  9 10  2  0
 10 11  1  0
 11 12  2  0
 12 13  1  0
 13 14  2  0
 14 15  1  0
 15 16  2  0
 16 17  1  0
 17 18  1  0
 18 19  1  0
 19 20  1  0
 20 21  1  0
 21 22  1  0
 21 23  1  0
 16 24  1  0
 24 25  2  0
 10 26  1  0
 26 27  1  0
 27 28  1  0
 28 29  1  0
 29 30  1  0
 30 31  1  0
 31 32  1  0
 32 33  1  0
 26  2  1  0
 33 28  1  0
  8  3  1  0
 25 13  1  0
 23 18  1  0
  4 34  1  0
  5 35  1  0
  6 36  1  0
  7 37  1  0
 11 38  1  0
 12 39  1  0
 14 40  1  0
 15 41  1  0
 17 42  1  0
 17 43  1  0
 19 44  1  0
 19 45  1  0
 20 46  1  0
 20 47  1  0
 21 48  1  6
 22 49  1  0
 23 50  1  0
 23 51  1  0
 24 52  1  0
 25 53  1  0
 27 54  1  0
 27 55  1  0
 28 56  1  0
 29 57  1  0
 29 58  1  0
 30 59  1  0
 30 60  1  0
 31 61  1  0
 31 62  1  0
 32 63  1  0
 32 64  1  0
 33 65  1  0
 33 66  1  0
M  END
>  <smiles>  (88) 
O=c1c2ccccc2nc(/C=C/c2ccc(CN3CCC(O)C3)cc2)n1CC1CCCCC1

>  <score_type>  (88) 
oracle

>  <origin>  (88) 
autodockgpu

>  <m_score__min__energy>  (88) 
-9.3900000000000006

>  <m_primary>  (88) 
energy

>  <rmsd>  (88) 
9.758609407756456

>  <m_score__min__rmsd>  (88) 
9.758609407756456

>  <meeko>  (88) 
{"free_energy": -6.87, "intermolecular_energy": -9.26, "internal_energy": -2.92, "cluster_size": 1, "cluster_id": 8, "rank_in_cluster": 1}

>  <energy>  (88) 
-8.7

>  <cluster_rmsd>  (88) 
0.0

>  <cluster>  (88) 
2

$$$$

     RDKit          3D

 66 70  0  0  0  0  0  0  0  0999 V2000
  139.1880   67.7500  225.1750 O   0  0  0  0  0  0  0  0  0  0  0  0
  139.4940   68.9680  225.0390 C   0  0  0  0  0  0  0  0  0  0  0  0
  140.0890   69.5780  226.1230 C   0  0  0  0  0  0  0  0  0  0  0  0
  140.3440   68.9060  227.3060 C   0  0  0  0  0  0  0  0  0  0  0  0
  140.9480   69.5760  228.3710 C   0  0  0  0  0  0  0  0  0  0  0  0
  141.2910   70.9290  228.2260 C   0  0  0  0  0  0  0  0  0  0  0  0
  141.0370   71.5980  227.0470 C   0  0  0  0  0  0  0  0  0  0  0  0
  140.4320   70.9070  225.9960 C   0  0  0  0  0  0  0  0  0  0  0  0
  140.1750   71.5330  224.8430 N   0  0  0  0  0  0  0  0  0  0  0  0
  139.5950   70.9230  223.7970 C   0  0  0  0  0  0  0  0  0  0  0  0
  139.3470   71.7160  222.5850 C   0  0  0  0  0  0  0  0  0  0  0  0
  140.3470   72.2900  221.9450 C   0  0  0  0  0  0  0  0  0  0  0  0
  140.4800   73.6990  221.6920 C   0  0  0  0  0  0  0  0  0  0  0  0
  141.6420   74.2150  221.1170 C   0  0  0  0  0  0  0  0  0  0  0  0
  141.8030   75.5570  220.8610 C   0  0  0  0  0  0  0  0  0  0  0  0
  140.8200   76.4650  221.1610 C   0  0  0  0  0  0  0  0  0  0  0  0
  140.9450   77.9210  220.9210 C   0  0  0  0  0  0  0  0  0  0  0  0
  141.8960   78.5290  221.7880 N   0  0  0  0  0  0  0  0  0  0  0  0
  141.4800   78.2890  223.1600 C   0  0  0  0  0  0  0  0  0  0  0  0
  141.4150   79.6200  223.8590 C   0  0  0  0  0  0  0  0  0  0  0  0
  141.1570   80.5740  222.6850 C   0  0  1  0  0  0  0  0  0  0  0  0
  141.5140   81.8700  222.9910 O   0  0  0  0  0  0  0  0  0  0  0  0
  142.0720   79.9340  221.6440 C   0  0  0  0  0  0  0  0  0  0  0  0
  139.6620   75.9870  221.7300 C   0  0  0  0  0  0  0  0  0  0  0  0
  139.5020   74.6350  221.9870 C   0  0  0  0  0  0  0  0  0  0  0  0
  139.2440   69.6260  223.8760 N   0  0  0  0  0  0  0  0  0  0  0  0
  138.6340   68.9290  222.7690 C   0  0  0  0  0  0  0  0  0  0  0  0
  137.1990   68.6700  223.0630 C   0  0  0  0  0  0  0  0  0  0  0  0
  136.5450   69.8210  223.8130 C   0  0  0  0  0  0  0  0  0  0  0  0
  135.2980   69.2690  224.4630 C   0  0  0  0  0  0  0  0  0  0  0  0
  134.3520   68.6810  223.4430 C   0  0  0  0  0  0  0  0  0  0  0  0
  135.0150   67.7520  222.4910 C   0  0  0  0  0  0  0  0  0  0  0  0
  136.3340   68.2930  221.9190 C   0  0  0  0  0  0  0  0  0  0  0  0
  140.0709   67.8452  227.4066 H   0  0  0  0  0  0  0  0  0  0  0  0
  141.1531   69.0489  229.3144 H   0  0  0  0  0  0  0  0  0  0  0  0
  141.7677   71.4619  229.0619 H   0  0  0  0  0  0  0  0  0  0  0  0
  141.3068   72.6587  226.9368 H   0  0  0  0  0  0  0  0  0  0  0  0
  138.3198   71.8317  222.2089 H   0  0  0  0  0  0  0  0  0  0  0  0
  141.1481   71.6345  221.5728 H   0  0  0  0  0  0  0  0  0  0  0  0
  142.4583   73.5241  220.8593 H   0  0  0  0  0  0  0  0  0  0  0  0
  142.7404   75.9094  220.4058 H   0  0  0  0  0  0  0  0  0  0  0  0
  141.2608   78.0826  219.8798 H   0  0  0  0  0  0  0  0  0  0  0  0
  139.9655   78.3811  221.1183 H   0  0  0  0  0  0  0  0  0  0  0  0
  140.4896   77.8106  223.1727 H   0  0  0  0  0  0  0  0  0  0  0  0
  142.1929   77.6224  223.6673 H   0  0  0  0  0  0  0  0  0  0  0  0
  140.5925   79.6502  224.5887 H   0  0  0  0  0  0  0  0  0  0  0  0
  142.3151   79.8628  224.4429 H   0  0  0  0  0  0  0  0  0  0  0  0
  140.1072   80.6771  222.3730 H   0  0  0  0  0  0  0  0  0  0  0  0
  142.4840   81.9740  223.1300 H   0  0  0  0  0  0  0  0  0  0  0  0
  141.7846   80.2547  220.6318 H   0  0  0  0  0  0  0  0  0  0  0  0
  143.1217   80.2287  221.7902 H   0  0  0  0  0  0  0  0  0  0  0  0
  138.8528   76.6874  221.9841 H   0  0  0  0  0  0  0  0  0  0  0  0
  138.5618   74.2913  222.4430 H   0  0  0  0  0  0  0  0  0  0  0  0
  138.7150   69.5447  221.8611 H   0  0  0  0  0  0  0  0  0  0  0  0
  139.1511   67.9703  222.6153 H   0  0  0  0  0  0  0  0  0  0  0  0
  137.2633   67.7721  223.6951 H   0  0  0  0  0  0  0  0  0  0  0  0
  137.2305   70.2108  224.5799 H   0  0  0  0  0  0  0  0  0  0  0  0
  136.3000   70.6475  223.1297 H   0  0  0  0  0  0  0  0  0  0  0  0
  135.5858   68.4835  225.1773 H   0  0  0  0  0  0  0  0  0  0  0  0
  134.7822   70.0954  224.9739 H   0  0  0  0  0  0  0  0  0  0  0  0
  133.5630   68.1300  223.9758 H   0  0  0  0  0  0  0  0  0  0  0  0
  133.9487   69.5175  222.8534 H   0  0  0  0  0  0  0  0  0  0  0  0
  135.2250   66.8083  223.0157 H   0  0  0  0  0  0  0  0  0  0  0  0
  134.3280   67.6161  221.6427 H   0  0  0  0  0  0  0  0  0  0  0  0
  136.8274   67.5167  221.3158 H   0  0  0  0  0  0  0  0  0  0  0  0
  136.1463   69.1639  221.2738 H   0  0  0  0  0  0  0  0  0  0  0  0
  1  2  2  0
  2  3  1  0
  3  4  2  0
  4  5  1  0
  5  6  2  0
  6  7  1  0
  7  8  2  0
  8  9  1  0
  9 10  2  0
 10 11  1  0
 11 12  2  0
 12 13  1  0
 13 14  2  0
 14 15  1  0
 15 16  2  0
 16 17  1  0
 17 18  1  0
 18 19  1  0
 19 20  1  0
 20 21  1  0
 21 22  1  0
 21 23  1  0
 16 24  1  0
 24 25  2  0
 10 26  1  0
 26 27  1  0
 27 28  1  0
 28 29  1  0
 29 30  1  0
 30 31  1  0
 31 32  1  0
 32 33  1  0
 26  2  1  0
 33 28  1  0
  8  3  1  0
 25 13  1  0
 23 18  1  0
  4 34  1  0
  5 35  1  0
  6 36  1  0
  7 37  1  0
 11 38  1  0
 12 39  1  0
 14 40  1  0
 15 41  1  0
 17 42  1  0
 17 43  1  0
 19 44  1  0
 19 45  1  0
 20 46  1  0
 20 47  1  0
 21 48  1  6
 22 49  1  0
 23 50  1  0
 23 51  1  0
 24 52  1  0
 25 53  1  0
 27 54  1  0
 27 55  1  0
 28 56  1  0
 29 57  1  0
 29 58  1  0
 30 59  1  0
 30 60  1  0
 31 61  1  0
 31 62  1  0
 32 63  1  0
 32 64  1  0
 33 65  1  0
 33 66  1  0
M  END
>  <smiles>  (89) 
O=c1c2ccccc2nc(/C=C/c2ccc(CN3CCC(O)C3)cc2)n1CC1CCCCC1

>  <score_type>  (89) 
oracle

>  <origin>  (89) 
autodockgpu

>  <m_score__min__energy>  (89) 
-9.3900000000000006

>  <m_primary>  (89) 
energy

>  <rmsd>  (89) 
11.692098744548414

>  <m_score__min__rmsd>  (89) 
11.692098744548414

>  <meeko>  (89) 
{"free_energy": -8.66, "intermolecular_energy": -11.05, "internal_energy": -1.62, "cluster_size": 37, "cluster_id": 1, "rank_in_cluster": 27}

>  <energy>  (89) 
-8.6

>  <cluster_rmsd>  (89) 
0.51

>  <cluster>  (89) 
2

$$$$

     RDKit          3D

 66 70  0  0  0  0  0  0  0  0999 V2000
  138.3360   68.8070  224.7120 O   0  0  0  0  0  0  0  0  0  0  0  0
  139.0900   69.8140  224.5940 C   0  0  0  0  0  0  0  0  0  0  0  0
  139.7310   70.2410  225.7370 C   0  0  0  0  0  0  0  0  0  0  0  0
  139.5700   69.6100  226.9590 C   0  0  0  0  0  0  0  0  0  0  0  0
  140.2460   70.0880  228.0840 C   0  0  0  0  0  0  0  0  0  0  0  0
  141.0840   71.2060  227.9570 C   0  0  0  0  0  0  0  0  0  0  0  0
  141.2450   71.8340  226.7400 C   0  0  0  0  0  0  0  0  0  0  0  0
  140.5590   71.3380  225.6300 C   0  0  0  0  0  0  0  0  0  0  0  0
  140.6980   71.9280  224.4380 N   0  0  0  0  0  0  0  0  0  0  0  0
  140.0650   71.4980  223.3350 C   0  0  0  0  0  0  0  0  0  0  0  0
  140.2810   72.2360  222.0830 C   0  0  0  0  0  0  0  0  0  0  0  0
  139.3780   73.0920  221.6450 C   0  0  0  0  0  0  0  0  0  0  0  0
  139.4960   74.5240  221.6780 C   0  0  0  0  0  0  0  0  0  0  0  0
  138.7850   75.2790  222.6110 C   0  0  0  0  0  0  0  0  0  0  0  0
  138.8750   76.6500  222.6710 C   0  0  0  0  0  0  0  0  0  0  0  0
  139.6750   77.3530  221.8070 C   0  0  0  0  0  0  0  0  0  0  0  0
  139.7990   78.8280  221.8160 C   0  0  0  0  0  0  0  0  0  0  0  0
  140.4620   79.3040  222.9820 N   0  0  0  0  0  0  0  0  0  0  0  0
  140.3700   80.7550  222.9970 C   0  0  0  0  0  0  0  0  0  0  0  0
  141.7650   81.3010  223.1410 C   0  0  0  0  0  0  0  0  0  0  0  0
  142.6050   80.1660  222.5410 C   0  0  1  0  0  0  0  0  0  0  0  0
  143.9140   80.2180  222.9700 O   0  0  0  0  0  0  0  0  0  0  0  0
  141.8410   78.9710  223.1040 C   0  0  0  0  0  0  0  0  0  0  0  0
  140.3900   76.6370  220.8740 C   0  0  0  0  0  0  0  0  0  0  0  0
  140.2980   75.2550  220.8160 C   0  0  0  0  0  0  0  0  0  0  0  0
  139.2480   70.4300  223.3930 N   0  0  0  0  0  0  0  0  0  0  0  0
  138.5620   69.9270  222.2270 C   0  0  0  0  0  0  0  0  0  0  0  0
  139.1770   68.6430  221.7930 C   0  0  0  0  0  0  0  0  0  0  0  0
  138.3060   67.4420  222.1290 C   0  0  0  0  0  0  0  0  0  0  0  0
  139.2030   66.2270  222.0990 C   0  0  0  0  0  0  0  0  0  0  0  0
  139.8650   66.0560  220.7520 C   0  0  0  0  0  0  0  0  0  0  0  0
  140.4950   67.3020  220.2420 C   0  0  0  0  0  0  0  0  0  0  0  0
  139.6010   68.5440  220.3750 C   0  0  0  0  0  0  0  0  0  0  0  0
  138.9107   68.7336  227.0437 H   0  0  0  0  0  0  0  0  0  0  0  0
  140.1227   69.5933  229.0587 H   0  0  0  0  0  0  0  0  0  0  0  0
  141.6194   71.5864  228.8394 H   0  0  0  0  0  0  0  0  0  0  0  0
  141.9026   72.7107  226.6455 H   0  0  0  0  0  0  0  0  0  0  0  0
  141.2034   72.0733  221.5061 H   0  0  0  0  0  0  0  0  0  0  0  0
  138.4548   72.6737  221.2175 H   0  0  0  0  0  0  0  0  0  0  0  0
  138.1287   74.7590  223.3244 H   0  0  0  0  0  0  0  0  0  0  0  0
  138.2925   77.1947  223.4287 H   0  0  0  0  0  0  0  0  0  0  0  0
  140.3713   79.1409  220.9302 H   0  0  0  0  0  0  0  0  0  0  0  0
  138.7843   79.2526  221.8071 H   0  0  0  0  0  0  0  0  0  0  0  0
  139.9233   81.1117  222.0572 H   0  0  0  0  0  0  0  0  0  0  0  0
  139.7366   81.0920  223.8308 H   0  0  0  0  0  0  0  0  0  0  0  0
  141.8905   82.2356  222.5747 H   0  0  0  0  0  0  0  0  0  0  0  0
  142.0386   81.5619  224.1740 H   0  0  0  0  0  0  0  0  0  0  0  0
  142.7058   80.1717  221.4456 H   0  0  0  0  0  0  0  0  0  0  0  0
  144.5340   79.7560  222.3580 H   0  0  0  0  0  0  0  0  0  0  0  0
  142.0690   78.0631  222.5263 H   0  0  0  0  0  0  0  0  0  0  0  0
  142.1188   78.7667  224.1486 H   0  0  0  0  0  0  0  0  0  0  0  0
  141.0426   77.1681  220.1654 H   0  0  0  0  0  0  0  0  0  0  0  0
  140.8844   74.7177  220.0562 H   0  0  0  0  0  0  0  0  0  0  0  0
  137.5024   69.7601  222.4708 H   0  0  0  0  0  0  0  0  0  0  0  0
  138.6445   70.6619  221.4127 H   0  0  0  0  0  0  0  0  0  0  0  0
  140.1062   68.6345  222.3817 H   0  0  0  0  0  0  0  0  0  0  0  0
  137.8656   67.5624  223.1298 H   0  0  0  0  0  0  0  0  0  0  0  0
  137.4811   67.3401  221.4085 H   0  0  0  0  0  0  0  0  0  0  0  0
  139.9819   66.3396  222.8676 H   0  0  0  0  0  0  0  0  0  0  0  0
  138.5843   65.3384  222.2929 H   0  0  0  0  0  0  0  0  0  0  0  0
  140.6427   65.2832  220.8412 H   0  0  0  0  0  0  0  0  0  0  0  0
  139.0784   65.7733  220.0369 H   0  0  0  0  0  0  0  0  0  0  0  0
  141.4220   67.4791  220.8071 H   0  0  0  0  0  0  0  0  0  0  0  0
  140.6806   67.1526  219.1681 H   0  0  0  0  0  0  0  0  0  0  0  0
  140.1647   69.4441  220.0885 H   0  0  0  0  0  0  0  0  0  0  0  0
  138.7248   68.4612  219.7152 H   0  0  0  0  0  0  0  0  0  0  0  0
  1  2  2  0
  2  3  1  0
  3  4  2  0
  4  5  1  0
  5  6  2  0
  6  7  1  0
  7  8  2  0
  8  9  1  0
  9 10  2  0
 10 11  1  0
 11 12  2  0
 12 13  1  0
 13 14  2  0
 14 15  1  0
 15 16  2  0
 16 17  1  0
 17 18  1  0
 18 19  1  0
 19 20  1  0
 20 21  1  0
 21 22  1  0
 21 23  1  0
 16 24  1  0
 24 25  2  0
 10 26  1  0
 26 27  1  0
 27 28  1  0
 28 29  1  0
 29 30  1  0
 30 31  1  0
 31 32  1  0
 32 33  1  0
 26  2  1  0
 33 28  1  0
  8  3  1  0
 25 13  1  0
 23 18  1  0
  4 34  1  0
  5 35  1  0
  6 36  1  0
  7 37  1  0
 11 38  1  0
 12 39  1  0
 14 40  1  0
 15 41  1  0
 17 42  1  0
 17 43  1  0
 19 44  1  0
 19 45  1  0
 20 46  1  0
 20 47  1  0
 21 48  1  6
 22 49  1  0
 23 50  1  0
 23 51  1  0
 24 52  1  0
 25 53  1  0
 27 54  1  0
 27 55  1  0
 28 56  1  0
 29 57  1  0
 29 58  1  0
 30 59  1  0
 30 60  1  0
 31 61  1  0
 31 62  1  0
 32 63  1  0
 32 64  1  0
 33 65  1  0
 33 66  1  0
M  END
>  <smiles>  (90) 
O=c1c2ccccc2nc(/C=C/c2ccc(CN3CCC(O)C3)cc2)n1CC1CCCCC1

>  <score_type>  (90) 
oracle

>  <origin>  (90) 
autodockgpu

>  <m_score__min__energy>  (90) 
-9.3900000000000006

>  <m_primary>  (90) 
energy

>  <rmsd>  (90) 
11.33713607154431

>  <m_score__min__rmsd>  (90) 
11.33713607154431

>  <meeko>  (90) 
{"free_energy": -8.53, "intermolecular_energy": -10.92, "internal_energy": -1.57, "cluster_size": 37, "cluster_id": 1, "rank_in_cluster": 36}

>  <energy>  (90) 
-8.47

>  <cluster_rmsd>  (90) 
0.0

>  <cluster>  (90) 
3

$$$$

     RDKit          3D

 66 70  0  0  0  0  0  0  0  0999 V2000
  139.1960   67.8350  225.1550 O   0  0  0  0  0  0  0  0  0  0  0  0
  139.5880   69.0160  224.9420 C   0  0  0  0  0  0  0  0  0  0  0  0
  140.1000   69.7010  226.0240 C   0  0  0  0  0  0  0  0  0  0  0  0
  140.1870   69.1360  227.2860 C   0  0  0  0  0  0  0  0  0  0  0  0
  140.7150   69.8780  228.3440 C   0  0  0  0  0  0  0  0  0  0  0  0
  141.1510   71.1910  228.1130 C   0  0  0  0  0  0  0  0  0  0  0  0
  141.0640   71.7520  226.8560 C   0  0  0  0  0  0  0  0  0  0  0  0
  140.5330   70.9920  225.8130 C   0  0  0  0  0  0  0  0  0  0  0  0
  140.4380   71.5130  224.5860 N   0  0  0  0  0  0  0  0  0  0  0  0
  139.9360   70.8310  223.5430 C   0  0  0  0  0  0  0  0  0  0  0  0
  139.8660   71.5130  222.2430 C   0  0  0  0  0  0  0  0  0  0  0  0
  139.1550   72.6150  222.1030 C   0  0  0  0  0  0  0  0  0  0  0  0
  139.6880   73.9420  221.9560 C   0  0  0  0  0  0  0  0  0  0  0  0
  138.9370   75.0590  222.3230 C   0  0  0  0  0  0  0  0  0  0  0  0
  139.4160   76.3420  222.1960 C   0  0  0  0  0  0  0  0  0  0  0  0
  140.6680   76.5920  221.6960 C   0  0  0  0  0  0  0  0  0  0  0  0
  141.2290   77.9510  221.5240 C   0  0  0  0  0  0  0  0  0  0  0  0
  140.8990   78.8100  222.6100 N   0  0  0  0  0  0  0  0  0  0  0  0
  140.5640   80.1180  222.0710 C   0  0  0  0  0  0  0  0  0  0  0  0
  141.4220   81.1360  222.7720 C   0  0  0  0  0  0  0  0  0  0  0  0
  142.6350   80.2900  223.1810 C   0  0  1  0  0  0  0  0  0  0  0  0
  143.3340   80.8680  224.2190 O   0  0  0  0  0  0  0  0  0  0  0  0
  141.9140   79.0080  223.5880 C   0  0  0  0  0  0  0  0  0  0  0  0
  141.4340   75.5110  221.3250 C   0  0  0  0  0  0  0  0  0  0  0  0
  140.9500   74.2180  221.4540 C   0  0  0  0  0  0  0  0  0  0  0  0
  139.5020   69.5680  223.7030 N   0  0  0  0  0  0  0  0  0  0  0  0
  138.9720   68.7960  222.6040 C   0  0  0  0  0  0  0  0  0  0  0  0
  137.5210   68.5460  222.8150 C   0  0  0  0  0  0  0  0  0  0  0  0
  136.8040   69.7560  223.3960 C   0  0  0  0  0  0  0  0  0  0  0  0
  135.5160   69.2530  224.0030 C   0  0  0  0  0  0  0  0  0  0  0  0
  134.6530   68.5520  222.9800 C   0  0  0  0  0  0  0  0  0  0  0  0
  135.3930   67.5440  222.1760 C   0  0  0  0  0  0  0  0  0  0  0  0
  136.7470   68.0450  221.6530 C   0  0  0  0  0  0  0  0  0  0  0  0
  139.8409   68.1054  227.4539 H   0  0  0  0  0  0  0  0  0  0  0  0
  140.7884   69.4372  229.3491 H   0  0  0  0  0  0  0  0  0  0  0  0
  141.5670   71.7799  228.9437 H   0  0  0  0  0  0  0  0  0  0  0  0
  141.4076   72.7818  226.6785 H   0  0  0  0  0  0  0  0  0  0  0  0
  140.4106   71.1013  221.3805 H   0  0  0  0  0  0  0  0  0  0  0  0
  138.0601   72.5096  222.0983 H   0  0  0  0  0  0  0  0  0  0  0  0
  137.9256   74.9082  222.7284 H   0  0  0  0  0  0  0  0  0  0  0  0
  138.7807   77.1861  222.5023 H   0  0  0  0  0  0  0  0  0  0  0  0
  142.3241   77.8757  221.4519 H   0  0  0  0  0  0  0  0  0  0  0  0
  140.7964   78.3818  220.6090 H   0  0  0  0  0  0  0  0  0  0  0  0
  140.7646   80.1400  220.9897 H   0  0  0  0  0  0  0  0  0  0  0  0
  139.4980   80.3382  222.2297 H   0  0  0  0  0  0  0  0  0  0  0  0
  141.7122   81.9516  222.0934 H   0  0  0  0  0  0  0  0  0  0  0  0
  140.9226   81.6378  223.6140 H   0  0  0  0  0  0  0  0  0  0  0  0
  143.4084   80.1563  222.4103 H   0  0  0  0  0  0  0  0  0  0  0  0
  142.7520   81.1280  224.9710 H   0  0  0  0  0  0  0  0  0  0  0  0
  142.6136   78.1592  223.5919 H   0  0  0  0  0  0  0  0  0  0  0  0
  141.4924   79.0834  224.6012 H   0  0  0  0  0  0  0  0  0  0  0  0
  142.4438   75.6746  220.9207 H   0  0  0  0  0  0  0  0  0  0  0  0
  141.5920   73.3795  221.1462 H   0  0  0  0  0  0  0  0  0  0  0  0
  139.1137   69.3522  221.6656 H   0  0  0  0  0  0  0  0  0  0  0  0
  139.5013   67.8333  222.5489 H   0  0  0  0  0  0  0  0  0  0  0  0
  137.5441   67.7158  223.5363 H   0  0  0  0  0  0  0  0  0  0  0  0
  137.4269   70.2296  224.1691 H   0  0  0  0  0  0  0  0  0  0  0  0
  136.6053   70.5073  222.6175 H   0  0  0  0  0  0  0  0  0  0  0  0
  135.7549   68.5469  224.8119 H   0  0  0  0  0  0  0  0  0  0  0  0
  134.9571   70.1187  224.3880 H   0  0  0  0  0  0  0  0  0  0  0  0
  133.8314   68.0438  223.5061 H   0  0  0  0  0  0  0  0  0  0  0  0
  134.2873   69.3197  222.2822 H   0  0  0  0  0  0  0  0  0  0  0  0
  135.5696   66.6594  222.8055 H   0  0  0  0  0  0  0  0  0  0  0  0
  134.7729   67.3162  221.2964 H   0  0  0  0  0  0  0  0  0  0  0  0
  137.2901   67.2202  221.1685 H   0  0  0  0  0  0  0  0  0  0  0  0
  136.6021   68.8452  220.9123 H   0  0  0  0  0  0  0  0  0  0  0  0
  1  2  2  0
  2  3  1  0
  3  4  2  0
  4  5  1  0
  5  6  2  0
  6  7  1  0
  7  8  2  0
  8  9  1  0
  9 10  2  0
 10 11  1  0
 11 12  2  0
 12 13  1  0
 13 14  2  0
 14 15  1  0
 15 16  2  0
 16 17  1  0
 17 18  1  0
 18 19  1  0
 19 20  1  0
 20 21  1  0
 21 22  1  0
 21 23  1  0
 16 24  1  0
 24 25  2  0
 10 26  1  0
 26 27  1  0
 27 28  1  0
 28 29  1  0
 29 30  1  0
 30 31  1  0
 31 32  1  0
 32 33  1  0
 26  2  1  0
 33 28  1  0
  8  3  1  0
 25 13  1  0
 23 18  1  0
  4 34  1  0
  5 35  1  0
  6 36  1  0
  7 37  1  0
 11 38  1  0
 12 39  1  0
 14 40  1  0
 15 41  1  0
 17 42  1  0
 17 43  1  0
 19 44  1  0
 19 45  1  0
 20 46  1  0
 20 47  1  0
 21 48  1  6
 22 49  1  0
 23 50  1  0
 23 51  1  0
 24 52  1  0
 25 53  1  0
 27 54  1  0
 27 55  1  0
 28 56  1  0
 29 57  1  0
 29 58  1  0
 30 59  1  0
 30 60  1  0
 31 61  1  0
 31 62  1  0
 32 63  1  0
 32 64  1  0
 33 65  1  0
 33 66  1  0
M  END
>  <smiles>  (91) 
O=c1c2ccccc2nc(/C=C/c2ccc(CN3CCC(O)C3)cc2)n1CC1CCCCC1

>  <score_type>  (91) 
oracle

>  <origin>  (91) 
autodockgpu

>  <m_score__min__energy>  (91) 
-9.3900000000000006

>  <m_primary>  (91) 
energy

>  <rmsd>  (91) 
11.471688579633293

>  <m_score__min__rmsd>  (91) 
11.471688579633293

>  <meeko>  (91) 
{"free_energy": -8.89, "intermolecular_energy": -11.27, "internal_energy": -1.68, "cluster_size": 37, "cluster_id": 1, "rank_in_cluster": 16}

>  <energy>  (91) 
-8.42

>  <cluster_rmsd>  (91) 
1.77

>  <cluster>  (91) 
3

$$$$

     RDKit          3D

 66 70  0  0  0  0  0  0  0  0999 V2000
  138.8180   68.1440  225.3630 O   0  0  0  0  0  0  0  0  0  0  0  0
  139.3580   69.2300  225.0130 C   0  0  0  0  0  0  0  0  0  0  0  0
  139.9200   69.9910  226.0170 C   0  0  0  0  0  0  0  0  0  0  0  0
  139.9010   69.5980  227.3450 C   0  0  0  0  0  0  0  0  0  0  0  0
  140.4870   70.4100  228.3180 C   0  0  0  0  0  0  0  0  0  0  0  0
  141.0880   71.6180  227.9350 C   0  0  0  0  0  0  0  0  0  0  0  0
  141.1070   72.0080  226.6120 C   0  0  0  0  0  0  0  0  0  0  0  0
  140.5150   71.1800  225.6560 C   0  0  0  0  0  0  0  0  0  0  0  0
  140.5200   71.5360  224.3670 N   0  0  0  0  0  0  0  0  0  0  0  0
  139.9680   70.7820  223.4030 C   0  0  0  0  0  0  0  0  0  0  0  0
  140.0190   71.2830  222.0220 C   0  0  0  0  0  0  0  0  0  0  0  0
  140.8540   72.2490  221.6910 C   0  0  0  0  0  0  0  0  0  0  0  0
  140.5580   73.6560  221.7140 C   0  0  0  0  0  0  0  0  0  0  0  0
  139.4080   74.1340  222.3410 C   0  0  0  0  0  0  0  0  0  0  0  0
  139.0950   75.4720  222.3830 C   0  0  0  0  0  0  0  0  0  0  0  0
  139.9050   76.4150  221.8030 C   0  0  0  0  0  0  0  0  0  0  0  0
  139.6100   77.8660  221.8040 C   0  0  0  0  0  0  0  0  0  0  0  0
  140.1160   78.5150  222.9650 N   0  0  0  0  0  0  0  0  0  0  0  0
  139.7540   79.9220  222.8940 C   0  0  0  0  0  0  0  0  0  0  0  0
  141.0130   80.7280  223.0590 C   0  0  0  0  0  0  0  0  0  0  0  0
  142.0790   79.7450  222.5560 C   0  0  1  0  0  0  0  0  0  0  0  0
  143.3330   80.0640  223.0310 O   0  0  0  0  0  0  0  0  0  0  0  0
  141.5250   78.4560  223.1570 C   0  0  0  0  0  0  0  0  0  0  0  0
  141.0480   75.9740  221.1750 C   0  0  0  0  0  0  0  0  0  0  0  0
  141.3620   74.6250  221.1350 C   0  0  0  0  0  0  0  0  0  0  0  0
  139.3760   69.6130  223.7090 N   0  0  0  0  0  0  0  0  0  0  0  0
  138.7860   68.7670  222.7000 C   0  0  0  0  0  0  0  0  0  0  0  0
  137.3160   68.6750  222.9120 C   0  0  0  0  0  0  0  0  0  0  0  0
  136.7130   69.9990  223.3570 C   0  0  0  0  0  0  0  0  0  0  0  0
  135.3790   69.6820  223.9910 C   0  0  0  0  0  0  0  0  0  0  0  0
  134.4610   68.9650  223.0300 C   0  0  0  0  0  0  0  0  0  0  0  0
  135.1070   67.8160  222.3430 C   0  0  0  0  0  0  0  0  0  0  0  0
  136.5060   68.1330  221.7940 C   0  0  0  0  0  0  0  0  0  0  0  0
  139.4255   68.6486  227.6324 H   0  0  0  0  0  0  0  0  0  0  0  0
  140.4774   70.1052  229.3749 H   0  0  0  0  0  0  0  0  0  0  0  0
  141.5495   72.2617  228.6983 H   0  0  0  0  0  0  0  0  0  0  0  0
  141.5806   72.9554  226.3150 H   0  0  0  0  0  0  0  0  0  0  0  0
  139.3560   70.8492  221.2590 H   0  0  0  0  0  0  0  0  0  0  0  0
  141.8635   71.9528  221.3698 H   0  0  0  0  0  0  0  0  0  0  0  0
  138.7268   73.4148  222.8192 H   0  0  0  0  0  0  0  0  0  0  0  0
  138.1748   75.7935  222.8929 H   0  0  0  0  0  0  0  0  0  0  0  0
  140.0693   78.3218  220.9144 H   0  0  0  0  0  0  0  0  0  0  0  0
  138.5169   77.9891  221.7967 H   0  0  0  0  0  0  0  0  0  0  0  0
  139.2939   80.1415  221.9193 H   0  0  0  0  0  0  0  0  0  0  0  0
  139.0299   80.1734  223.6830 H   0  0  0  0  0  0  0  0  0  0  0  0
  140.9881   81.6409  222.4459 H   0  0  0  0  0  0  0  0  0  0  0  0
  141.1835   81.0854  224.0853 H   0  0  0  0  0  0  0  0  0  0  0  0
  142.2299   79.7170  221.4668 H   0  0  0  0  0  0  0  0  0  0  0  0
  144.0510   79.8170  222.4040 H   0  0  0  0  0  0  0  0  0  0  0  0
  141.9459   77.5805  222.6409 H   0  0  0  0  0  0  0  0  0  0  0  0
  141.7857   78.3599  224.2213 H   0  0  0  0  0  0  0  0  0  0  0  0
  141.7209   76.7022  220.6987 H   0  0  0  0  0  0  0  0  0  0  0  0
  142.2844   74.3113  220.6243 H   0  0  0  0  0  0  0  0  0  0  0  0
  138.9851   69.1925  221.7053 H   0  0  0  0  0  0  0  0  0  0  0  0
  139.2254   67.7609  222.7690 H   0  0  0  0  0  0  0  0  0  0  0  0
  137.2558   67.9234  223.7129 H   0  0  0  0  0  0  0  0  0  0  0  0
  137.3728   70.4884  224.0885 H   0  0  0  0  0  0  0  0  0  0  0  0
  136.5912   70.6829  222.5041 H   0  0  0  0  0  0  0  0  0  0  0  0
  135.5451   69.0421  224.8702 H   0  0  0  0  0  0  0  0  0  0  0  0
  134.9017   70.6304  224.2787 H   0  0  0  0  0  0  0  0  0  0  0  0
  133.5915   68.5919  223.5910 H   0  0  0  0  0  0  0  0  0  0  0  0
  134.1747   69.6889  222.2529 H   0  0  0  0  0  0  0  0  0  0  0  0
  135.1950   66.9870  223.0606 H   0  0  0  0  0  0  0  0  0  0  0  0
  134.4737   67.5590  221.4811 H   0  0  0  0  0  0  0  0  0  0  0  0
  136.9720   67.2163  221.4036 H   0  0  0  0  0  0  0  0  0  0  0  0
  136.4421   68.8638  220.9744 H   0  0  0  0  0  0  0  0  0  0  0  0
  1  2  2  0
  2  3  1  0
  3  4  2  0
  4  5  1  0
  5  6  2  0
  6  7  1  0
  7  8  2  0
  8  9  1  0
  9 10  2  0
 10 11  1  0
 11 12  2  0
 12 13  1  0
 13 14  2  0
 14 15  1  0
 15 16  2  0
 16 17  1  0
 17 18  1  0
 18 19  1  0
 19 20  1  0
 20 21  1  0
 21 22  1  0
 21 23  1  0
 16 24  1  0
 24 25  2  0
 10 26  1  0
 26 27  1  0
 27 28  1  0
 28 29  1  0
 29 30  1  0
 30 31  1  0
 31 32  1  0
 32 33  1  0
 26  2  1  0
 33 28  1  0
  8  3  1  0
 25 13  1  0
 23 18  1  0
  4 34  1  0
  5 35  1  0
  6 36  1  0
  7 37  1  0
 11 38  1  0
 12 39  1  0
 14 40  1  0
 15 41  1  0
 17 42  1  0
 17 43  1  0
 19 44  1  0
 19 45  1  0
 20 46  1  0
 20 47  1  0
 21 48  1  6
 22 49  1  0
 23 50  1  0
 23 51  1  0
 24 52  1  0
 25 53  1  0
 27 54  1  0
 27 55  1  0
 28 56  1  0
 29 57  1  0
 29 58  1  0
 30 59  1  0
 30 60  1  0
 31 61  1  0
 31 62  1  0
 32 63  1  0
 32 64  1  0
 33 65  1  0
 33 66  1  0
M  END
>  <smiles>  (92) 
O=c1c2ccccc2nc(/C=C/c2ccc(CN3CCC(O)C3)cc2)n1CC1CCCCC1

>  <score_type>  (92) 
oracle

>  <origin>  (92) 
autodockgpu

>  <m_score__min__energy>  (92) 
-9.3900000000000006

>  <m_primary>  (92) 
energy

>  <rmsd>  (92) 
11.23912993444128

>  <m_score__min__rmsd>  (92) 
11.23912993444128

>  <meeko>  (92) 
{"free_energy": -9.01, "intermolecular_energy": -11.4, "internal_energy": -1.74, "cluster_size": 37, "cluster_id": 1, "rank_in_cluster": 13}

>  <energy>  (92) 
-8.27

>  <cluster_rmsd>  (92) 
0.0

>  <cluster>  (92) 
4

$$$$

     RDKit          3D

 66 70  0  0  0  0  0  0  0  0999 V2000
  139.1890   67.7960  225.4320 O   0  0  0  0  0  0  0  0  0  0  0  0
  139.5330   68.9620  225.0900 C   0  0  0  0  0  0  0  0  0  0  0  0
  140.1090   69.7460  226.0670 C   0  0  0  0  0  0  0  0  0  0  0  0
  140.3070   69.2950  227.3610 C   0  0  0  0  0  0  0  0  0  0  0  0
  140.8950   70.1350  228.3080 C   0  0  0  0  0  0  0  0  0  0  0  0
  141.2790   71.4300  227.9330 C   0  0  0  0  0  0  0  0  0  0  0  0
  141.0820   71.8800  226.6440 C   0  0  0  0  0  0  0  0  0  0  0  0
  140.4920   71.0220  225.7140 C   0  0  0  0  0  0  0  0  0  0  0  0
  140.2900   71.4340  224.4580 N   0  0  0  0  0  0  0  0  0  0  0  0
  139.7270   70.6560  223.5190 C   0  0  0  0  0  0  0  0  0  0  0  0
  139.5400   71.2210  222.1760 C   0  0  0  0  0  0  0  0  0  0  0  0
  140.4100   72.0820  221.6850 C   0  0  0  0  0  0  0  0  0  0  0  0
  140.3310   73.5130  221.8080 C   0  0  0  0  0  0  0  0  0  0  0  0
  141.4270   74.3180  221.4950 C   0  0  0  0  0  0  0  0  0  0  0  0
  141.3870   75.6880  221.6000 C   0  0  0  0  0  0  0  0  0  0  0  0
  140.2570   76.3410  222.0230 C   0  0  0  0  0  0  0  0  0  0  0  0
  140.1610   77.8110  222.1680 C   0  0  0  0  0  0  0  0  0  0  0  0
  141.4420   78.4320  222.1970 N   0  0  0  0  0  0  0  0  0  0  0  0
  141.8180   78.6350  223.5870 C   0  0  0  0  0  0  0  0  0  0  0  0
  142.1650   80.0880  223.7600 C   0  0  0  0  0  0  0  0  0  0  0  0
  141.3410   80.7390  222.6420 C   0  0  1  0  0  0  0  0  0  0  0  0
  141.8350   81.9800  222.2990 O   0  0  0  0  0  0  0  0  0  0  0  0
  141.5440   79.6950  221.5480 C   0  0  0  0  0  0  0  0  0  0  0  0
  139.1580   75.5740  222.3390 C   0  0  0  0  0  0  0  0  0  0  0  0
  139.2010   74.1930  222.2320 C   0  0  0  0  0  0  0  0  0  0  0  0
  139.3390   69.4030  223.8190 N   0  0  0  0  0  0  0  0  0  0  0  0
  138.7460   68.5290  222.8350 C   0  0  0  0  0  0  0  0  0  0  0  0
  137.2770   68.4420  223.0550 C   0  0  0  0  0  0  0  0  0  0  0  0
  136.7230   69.6710  223.7590 C   0  0  0  0  0  0  0  0  0  0  0  0
  135.3890   69.2770  224.3470 C   0  0  0  0  0  0  0  0  0  0  0  0
  134.4350   68.7860  223.2840 C   0  0  0  0  0  0  0  0  0  0  0  0
  135.0330   67.7730  222.3760 C   0  0  0  0  0  0  0  0  0  0  0  0
  136.4340   68.1500  221.8700 C   0  0  0  0  0  0  0  0  0  0  0  0
  140.0014   68.2764  227.6422 H   0  0  0  0  0  0  0  0  0  0  0  0
  141.0555   69.7844  229.3382 H   0  0  0  0  0  0  0  0  0  0  0  0
  141.7431   72.0955  228.6758 H   0  0  0  0  0  0  0  0  0  0  0  0
  141.3845   72.8970  226.3539 H   0  0  0  0  0  0  0  0  0  0  0  0
  138.6677   70.9237  221.5753 H   0  0  0  0  0  0  0  0  0  0  0  0
  141.2691   71.6709  221.1346 H   0  0  0  0  0  0  0  0  0  0  0  0
  142.3561   73.8392  221.1520 H   0  0  0  0  0  0  0  0  0  0  0  0
  142.2808   76.2737  221.3391 H   0  0  0  0  0  0  0  0  0  0  0  0
  139.5905   78.2145  221.3185 H   0  0  0  0  0  0  0  0  0  0  0  0
  139.6597   78.0247  223.1235 H   0  0  0  0  0  0  0  0  0  0  0  0
  140.9773   78.3698  224.2450 H   0  0  0  0  0  0  0  0  0  0  0  0
  142.6769   78.0001  223.8502 H   0  0  0  0  0  0  0  0  0  0  0  0
  141.8605   80.4580  224.7501 H   0  0  0  0  0  0  0  0  0  0  0  0
  143.2428   80.2999  223.7020 H   0  0  0  0  0  0  0  0  0  0  0  0
  140.2894   80.9525  222.8842 H   0  0  0  0  0  0  0  0  0  0  0  0
  142.1090   82.0320  221.3540 H   0  0  0  0  0  0  0  0  0  0  0  0
  140.7672   79.7930  220.7754 H   0  0  0  0  0  0  0  0  0  0  0  0
  142.5154   79.8163  221.0463 H   0  0  0  0  0  0  0  0  0  0  0  0
  138.2342   76.0637  222.6807 H   0  0  0  0  0  0  0  0  0  0  0  0
  138.3030   73.6143  222.4939 H   0  0  0  0  0  0  0  0  0  0  0  0
  138.9411   68.9274  221.8284 H   0  0  0  0  0  0  0  0  0  0  0  0
  139.1865   67.5255  222.9295 H   0  0  0  0  0  0  0  0  0  0  0  0
  137.2043   67.5523  223.6978 H   0  0  0  0  0  0  0  0  0  0  0  0
  137.4087   69.9905  224.5576 H   0  0  0  0  0  0  0  0  0  0  0  0
  136.6107   70.5097  223.0562 H   0  0  0  0  0  0  0  0  0  0  0  0
  135.5465   68.4749  225.0831 H   0  0  0  0  0  0  0  0  0  0  0  0
  134.9469   70.1653  224.8217 H   0  0  0  0  0  0  0  0  0  0  0  0
  133.5616   68.3373  223.7798 H   0  0  0  0  0  0  0  0  0  0  0  0
  134.1623   69.6545  222.6665 H   0  0  0  0  0  0  0  0  0  0  0  0
  135.1045   66.8189  222.9187 H   0  0  0  0  0  0  0  0  0  0  0  0
  134.3793   67.7051  221.4939 H   0  0  0  0  0  0  0  0  0  0  0  0
  136.8647   67.3131  221.3007 H   0  0  0  0  0  0  0  0  0  0  0  0
  136.3819   69.0271  221.2082 H   0  0  0  0  0  0  0  0  0  0  0  0
  1  2  2  0
  2  3  1  0
  3  4  2  0
  4  5  1  0
  5  6  2  0
  6  7  1  0
  7  8  2  0
  8  9  1  0
  9 10  2  0
 10 11  1  0
 11 12  2  0
 12 13  1  0
 13 14  2  0
 14 15  1  0
 15 16  2  0
 16 17  1  0
 17 18  1  0
 18 19  1  0
 19 20  1  0
 20 21  1  0
 21 22  1  0
 21 23  1  0
 16 24  1  0
 24 25  2  0
 10 26  1  0
 26 27  1  0
 27 28  1  0
 28 29  1  0
 29 30  1  0
 30 31  1  0
 31 32  1  0
 32 33  1  0
 26  2  1  0
 33 28  1  0
  8  3  1  0
 25 13  1  0
 23 18  1  0
  4 34  1  0
  5 35  1  0
  6 36  1  0
  7 37  1  0
 11 38  1  0
 12 39  1  0
 14 40  1  0
 15 41  1  0
 17 42  1  0
 17 43  1  0
 19 44  1  0
 19 45  1  0
 20 46  1  0
 20 47  1  0
 21 48  1  1
 22 49  1  0
 23 50  1  0
 23 51  1  0
 24 52  1  0
 25 53  1  0
 27 54  1  0
 27 55  1  0
 28 56  1  0
 29 57  1  0
 29 58  1  0
 30 59  1  0
 30 60  1  0
 31 61  1  0
 31 62  1  0
 32 63  1  0
 32 64  1  0
 33 65  1  0
 33 66  1  0
M  END
>  <smiles>  (93) 
O=c1c2ccccc2nc(/C=C/c2ccc(CN3CCC(O)C3)cc2)n1CC1CCCCC1

>  <score_type>  (93) 
oracle

>  <origin>  (93) 
autodockgpu

>  <m_score__min__energy>  (93) 
-9.3900000000000006

>  <m_primary>  (93) 
energy

>  <rmsd>  (93) 
11.510382265613346

>  <m_score__min__rmsd>  (93) 
11.510382265613346

>  <meeko>  (93) 
{"free_energy": -8.77, "intermolecular_energy": -11.16, "internal_energy": -1.71, "cluster_size": 37, "cluster_id": 1, "rank_in_cluster": 23}

>  <energy>  (93) 
-8.25

>  <cluster_rmsd>  (93) 
0.34

>  <cluster>  (93) 
4

$$$$

     RDKit          3D

 66 70  0  0  0  0  0  0  0  0999 V2000
  138.8790   68.3510  224.9400 O   0  0  0  0  0  0  0  0  0  0  0  0
  139.4720   69.4580  224.8100 C   0  0  0  0  0  0  0  0  0  0  0  0
  139.9290   70.0520  225.9670 C   0  0  0  0  0  0  0  0  0  0  0  0
  139.7570   69.4770  227.2150 C   0  0  0  0  0  0  0  0  0  0  0  0
  140.2430   70.1250  228.3520 C   0  0  0  0  0  0  0  0  0  0  0  0
  140.9010   71.3560  228.2130 C   0  0  0  0  0  0  0  0  0  0  0  0
  141.0730   71.9280  226.9700 C   0  0  0  0  0  0  0  0  0  0  0  0
  140.5800   71.2610  225.8470 C   0  0  0  0  0  0  0  0  0  0  0  0
  140.7330   71.7950  224.6310 N   0  0  0  0  0  0  0  0  0  0  0  0
  140.2810   71.2020  223.5140 C   0  0  0  0  0  0  0  0  0  0  0  0
  140.4930   71.8900  222.2330 C   0  0  0  0  0  0  0  0  0  0  0  0
  139.5730   72.7010  221.7490 C   0  0  0  0  0  0  0  0  0  0  0  0
  139.5850   74.1360  221.8490 C   0  0  0  0  0  0  0  0  0  0  0  0
  140.7140   74.8680  221.4820 C   0  0  0  0  0  0  0  0  0  0  0  0
  140.7610   76.2400  221.5640 C   0  0  0  0  0  0  0  0  0  0  0  0
  139.6890   76.9660  222.0170 C   0  0  0  0  0  0  0  0  0  0  0  0
  139.6870   78.4410  222.1390 C   0  0  0  0  0  0  0  0  0  0  0  0
  140.4140   78.8860  223.2790 N   0  0  0  0  0  0  0  0  0  0  0  0
  140.1850   80.3130  223.4370 C   0  0  0  0  0  0  0  0  0  0  0  0
  141.5270   80.9880  223.5040 C   0  0  0  0  0  0  0  0  0  0  0  0
  142.4090   80.0020  222.7270 C   0  0  1  0  0  0  0  0  0  0  0  0
  143.7440   80.1550  223.0380 O   0  0  0  0  0  0  0  0  0  0  0  0
  141.8240   78.6910  223.2430 C   0  0  0  0  0  0  0  0  0  0  0  0
  138.5590   76.2720  222.3860 C   0  0  0  0  0  0  0  0  0  0  0  0
  138.5150   74.8890  222.3020 C   0  0  0  0  0  0  0  0  0  0  0  0
  139.6410   70.0200  223.5840 N   0  0  0  0  0  0  0  0  0  0  0  0
  139.1540   69.3420  222.4060 C   0  0  0  0  0  0  0  0  0  0  0  0
  137.6870   69.5470  222.2740 C   0  0  0  0  0  0  0  0  0  0  0  0
  136.8950   68.2900  222.5990 C   0  0  0  0  0  0  0  0  0  0  0  0
  135.5280   68.4590  221.9810 C   0  0  0  0  0  0  0  0  0  0  0  0
  134.8270   69.6900  222.5060 C   0  0  0  0  0  0  0  0  0  0  0  0
  135.6760   70.9100  222.4730 C   0  0  0  0  0  0  0  0  0  0  0  0
  137.0960   70.6890  223.0150 C   0  0  0  0  0  0  0  0  0  0  0  0
  139.2385   68.5116  227.3102 H   0  0  0  0  0  0  0  0  0  0  0  0
  140.1113   69.6748  229.3470 H   0  0  0  0  0  0  0  0  0  0  0  0
  141.2844   71.8712  229.1061 H   0  0  0  0  0  0  0  0  0  0  0  0
  141.5898   72.8933  226.8651 H   0  0  0  0  0  0  0  0  0  0  0  0
  141.4261   71.7272  221.6737 H   0  0  0  0  0  0  0  0  0  0  0  0
  138.7232   72.2408  221.2236 H   0  0  0  0  0  0  0  0  0  0  0  0
  141.5989   74.3284  221.1136 H   0  0  0  0  0  0  0  0  0  0  0  0
  141.6777   76.7664  221.2598 H   0  0  0  0  0  0  0  0  0  0  0  0
  140.1446   78.8720  221.2363 H   0  0  0  0  0  0  0  0  0  0  0  0
  138.6435   78.7695  222.2539 H   0  0  0  0  0  0  0  0  0  0  0  0
  139.6147   80.6980  222.5788 H   0  0  0  0  0  0  0  0  0  0  0  0
  139.6085   80.5111  224.3527 H   0  0  0  0  0  0  0  0  0  0  0  0
  141.5044   81.9747  223.0183 H   0  0  0  0  0  0  0  0  0  0  0  0
  141.8757   81.1887  224.5278 H   0  0  0  0  0  0  0  0  0  0  0  0
  142.3992   80.1102  221.6324 H   0  0  0  0  0  0  0  0  0  0  0  0
  144.3400   79.7690  222.3550 H   0  0  0  0  0  0  0  0  0  0  0  0
  142.0796   77.8637  222.5646 H   0  0  0  0  0  0  0  0  0  0  0  0
  142.2233   78.4306  224.2343 H   0  0  0  0  0  0  0  0  0  0  0  0
  137.6796   76.8219  222.7523 H   0  0  0  0  0  0  0  0  0  0  0  0
  137.5945   74.3698  222.6070 H   0  0  0  0  0  0  0  0  0  0  0  0
  139.6602   69.7463  221.5170 H   0  0  0  0  0  0  0  0  0  0  0  0
  139.3626   68.2657  222.4954 H   0  0  0  0  0  0  0  0  0  0  0  0
  137.5973   69.8059  221.2087 H   0  0  0  0  0  0  0  0  0  0  0  0
  137.3955   67.4075  222.1740 H   0  0  0  0  0  0  0  0  0  0  0  0
  136.8193   68.1433  223.6865 H   0  0  0  0  0  0  0  0  0  0  0  0
  135.6383   68.5492  220.8903 H   0  0  0  0  0  0  0  0  0  0  0  0
  134.9212   67.5799  222.2439 H   0  0  0  0  0  0  0  0  0  0  0  0
  133.9323   69.8707  221.8921 H   0  0  0  0  0  0  0  0  0  0  0  0
  134.5753   69.4970  223.5593 H   0  0  0  0  0  0  0  0  0  0  0  0
  135.7516   71.2523  221.4304 H   0  0  0  0  0  0  0  0  0  0  0  0
  135.1952   71.6539  223.1252 H   0  0  0  0  0  0  0  0  0  0  0  0
  137.7026   71.5929  222.8569 H   0  0  0  0  0  0  0  0  0  0  0  0
  137.0687   70.4766  224.0939 H   0  0  0  0  0  0  0  0  0  0  0  0
  1  2  2  0
  2  3  1  0
  3  4  2  0
  4  5  1  0
  5  6  2  0
  6  7  1  0
  7  8  2  0
  8  9  1  0
  9 10  2  0
 10 11  1  0
 11 12  2  0
 12 13  1  0
 13 14  2  0
 14 15  1  0
 15 16  2  0
 16 17  1  0
 17 18  1  0
 18 19  1  0
 19 20  1  0
 20 21  1  0
 21 22  1  0
 21 23  1  0
 16 24  1  0
 24 25  2  0
 10 26  1  0
 26 27  1  0
 27 28  1  0
 28 29  1  0
 29 30  1  0
 30 31  1  0
 31 32  1  0
 32 33  1  0
 26  2  1  0
 33 28  1  0
  8  3  1  0
 25 13  1  0
 23 18  1  0
  4 34  1  0
  5 35  1  0
  6 36  1  0
  7 37  1  0
 11 38  1  0
 12 39  1  0
 14 40  1  0
 15 41  1  0
 17 42  1  0
 17 43  1  0
 19 44  1  0
 19 45  1  0
 20 46  1  0
 20 47  1  0
 21 48  1  6
 22 49  1  0
 23 50  1  0
 23 51  1  0
 24 52  1  0
 25 53  1  0
 27 54  1  0
 27 55  1  0
 28 56  1  0
 29 57  1  0
 29 58  1  0
 30 59  1  0
 30 60  1  0
 31 61  1  0
 31 62  1  0
 32 63  1  0
 32 64  1  0
 33 65  1  0
 33 66  1  0
M  END
>  <smiles>  (94) 
O=c1c2ccccc2nc(/C=C/c2ccc(CN3CCC(O)C3)cc2)n1CC1CCCCC1

>  <score_type>  (94) 
oracle

>  <origin>  (94) 
autodockgpu

>  <m_score__min__energy>  (94) 
-9.3900000000000006

>  <m_primary>  (94) 
energy

>  <rmsd>  (94) 
11.177530760236543

>  <m_score__min__rmsd>  (94) 
11.177530760236543

>  <meeko>  (94) 
{"free_energy": -9.02, "intermolecular_energy": -11.41, "internal_energy": -1.82, "cluster_size": 37, "cluster_id": 1, "rank_in_cluster": 12}

>  <energy>  (94) 
-8.2

>  <cluster_rmsd>  (94) 
0.0

>  <cluster>  (94) 
5

$$$$

     RDKit          3D

 66 70  0  0  0  0  0  0  0  0999 V2000
  139.2040   67.7540  225.2360 O   0  0  0  0  0  0  0  0  0  0  0  0
  139.5060   68.9590  225.0050 C   0  0  0  0  0  0  0  0  0  0  0  0
  140.0790   69.6610  226.0450 C   0  0  0  0  0  0  0  0  0  0  0  0
  140.3180   69.0890  227.2840 C   0  0  0  0  0  0  0  0  0  0  0  0
  140.9010   69.8500  228.2990 C   0  0  0  0  0  0  0  0  0  0  0  0
  141.2380   71.1880  228.0480 C   0  0  0  0  0  0  0  0  0  0  0  0
  141.0000   71.7560  226.8140 C   0  0  0  0  0  0  0  0  0  0  0  0
  140.4160   70.9770  225.8140 C   0  0  0  0  0  0  0  0  0  0  0  0
  140.1750   71.5040  224.6090 N   0  0  0  0  0  0  0  0  0  0  0  0
  139.6160   70.8050  223.6080 C   0  0  0  0  0  0  0  0  0  0  0  0
  139.3830   71.4940  222.3320 C   0  0  0  0  0  0  0  0  0  0  0  0
  140.3210   72.2540  221.8000 C   0  0  0  0  0  0  0  0  0  0  0  0
  140.2940   73.6900  221.7260 C   0  0  0  0  0  0  0  0  0  0  0  0
  141.4410   74.4100  221.3940 C   0  0  0  0  0  0  0  0  0  0  0  0
  141.4510   75.7830  221.3130 C   0  0  0  0  0  0  0  0  0  0  0  0
  140.3220   76.5220  221.5600 C   0  0  0  0  0  0  0  0  0  0  0  0
  140.2780   78.0000  221.5030 C   0  0  0  0  0  0  0  0  0  0  0  0
  141.5210   78.5890  221.8680 N   0  0  0  0  0  0  0  0  0  0  0  0
  141.6140   78.5920  223.3200 C   0  0  0  0  0  0  0  0  0  0  0  0
  141.9050   80.0010  223.7580 C   0  0  0  0  0  0  0  0  0  0  0  0
  141.3110   80.8150  222.6000 C   0  0  1  0  0  0  0  0  0  0  0  0
  141.8500   82.0820  222.5370 O   0  0  0  0  0  0  0  0  0  0  0  0
  141.7370   79.9270  221.4340 C   0  0  0  0  0  0  0  0  0  0  0  0
  139.1730   75.8400  221.8910 C   0  0  0  0  0  0  0  0  0  0  0  0
  139.1660   74.4560  221.9710 C   0  0  0  0  0  0  0  0  0  0  0  0
  139.2710   69.5170  223.7890 N   0  0  0  0  0  0  0  0  0  0  0  0
  138.6840   68.7270  222.7330 C   0  0  0  0  0  0  0  0  0  0  0  0
  137.2280   68.5490  222.9840 C   0  0  0  0  0  0  0  0  0  0  0  0
  136.6160   69.7380  223.7090 C   0  0  0  0  0  0  0  0  0  0  0  0
  135.3220   69.2600  224.3230 C   0  0  0  0  0  0  0  0  0  0  0  0
  134.3760   68.7190  223.2770 C   0  0  0  0  0  0  0  0  0  0  0  0
  135.0150   67.7490  222.3490 C   0  0  0  0  0  0  0  0  0  0  0  0
  136.3790   68.2130  221.8150 C   0  0  0  0  0  0  0  0  0  0  0  0
  140.0492   68.0383  227.4675 H   0  0  0  0  0  0  0  0  0  0  0  0
  141.0941   69.4044  229.2860 H   0  0  0  0  0  0  0  0  0  0  0  0
  141.6975   71.7915  228.8447 H   0  0  0  0  0  0  0  0  0  0  0  0
  141.2661   72.8058  226.6211 H   0  0  0  0  0  0  0  0  0  0  0  0
  138.4189   71.3754  221.8159 H   0  0  0  0  0  0  0  0  0  0  0  0
  141.1996   71.7454  221.3765 H   0  0  0  0  0  0  0  0  0  0  0  0
  142.3715   73.8601  221.1895 H   0  0  0  0  0  0  0  0  0  0  0  0
  142.3843   76.2995  221.0444 H   0  0  0  0  0  0  0  0  0  0  0  0
  140.0278   78.3077  220.4770 H   0  0  0  0  0  0  0  0  0  0  0  0
  139.5180   78.3433  222.2203 H   0  0  0  0  0  0  0  0  0  0  0  0
  140.6630   78.2530  223.7568 H   0  0  0  0  0  0  0  0  0  0  0  0
  142.4111   77.9124  223.6558 H   0  0  0  0  0  0  0  0  0  0  0  0
  141.4071   80.2359  224.7103 H   0  0  0  0  0  0  0  0  0  0  0  0
  142.9708   80.2001  223.9436 H   0  0  0  0  0  0  0  0  0  0  0  0
  140.2303   81.0122  222.6565 H   0  0  0  0  0  0  0  0  0  0  0  0
  141.2220   82.7440  222.1630 H   0  0  0  0  0  0  0  0  0  0  0  0
  141.1278   80.1444  220.5442 H   0  0  0  0  0  0  0  0  0  0  0  0
  142.7875   80.0985  221.1566 H   0  0  0  0  0  0  0  0  0  0  0  0
  138.2486   76.4003  222.0947 H   0  0  0  0  0  0  0  0  0  0  0  0
  138.2288   73.9465  222.2393 H   0  0  0  0  0  0  0  0  0  0  0  0
  138.8283   69.2396  221.7705 H   0  0  0  0  0  0  0  0  0  0  0  0
  139.1702   67.7407  222.7052 H   0  0  0  0  0  0  0  0  0  0  0  0
  137.2231   67.6528  223.6217 H   0  0  0  0  0  0  0  0  0  0  0  0
  137.2986   70.0939  224.4948 H   0  0  0  0  0  0  0  0  0  0  0  0
  136.4373   70.5725  223.0149 H   0  0  0  0  0  0  0  0  0  0  0  0
  135.5441   68.4641  225.0491 H   0  0  0  0  0  0  0  0  0  0  0  0
  134.8376   70.1166  224.8145 H   0  0  0  0  0  0  0  0  0  0  0  0
  133.5421   68.2155  223.7879 H   0  0  0  0  0  0  0  0  0  0  0  0
  134.0376   69.5731  222.6720 H   0  0  0  0  0  0  0  0  0  0  0  0
  135.1564   66.7981  222.8836 H   0  0  0  0  0  0  0  0  0  0  0  0
  134.3474   67.6466  221.4808 H   0  0  0  0  0  0  0  0  0  0  0  0
  136.8470   67.4069  221.2309 H   0  0  0  0  0  0  0  0  0  0  0  0
  136.2597   69.0886  221.1600 H   0  0  0  0  0  0  0  0  0  0  0  0
  1  2  2  0
  2  3  1  0
  3  4  2  0
  4  5  1  0
  5  6  2  0
  6  7  1  0
  7  8  2  0
  8  9  1  0
  9 10  2  0
 10 11  1  0
 11 12  2  0
 12 13  1  0
 13 14  2  0
 14 15  1  0
 15 16  2  0
 16 17  1  0
 17 18  1  0
 18 19  1  0
 19 20  1  0
 20 21  1  0
 21 22  1  0
 21 23  1  0
 16 24  1  0
 24 25  2  0
 10 26  1  0
 26 27  1  0
 27 28  1  0
 28 29  1  0
 29 30  1  0
 30 31  1  0
 31 32  1  0
 32 33  1  0
 26  2  1  0
 33 28  1  0
  8  3  1  0
 25 13  1  0
 23 18  1  0
  4 34  1  0
  5 35  1  0
  6 36  1  0
  7 37  1  0
 11 38  1  0
 12 39  1  0
 14 40  1  0
 15 41  1  0
 17 42  1  0
 17 43  1  0
 19 44  1  0
 19 45  1  0
 20 46  1  0
 20 47  1  0
 21 48  1  1
 22 49  1  0
 23 50  1  0
 23 51  1  0
 24 52  1  0
 25 53  1  0
 27 54  1  0
 27 55  1  0
 28 56  1  0
 29 57  1  0
 29 58  1  0
 30 59  1  0
 30 60  1  0
 31 61  1  0
 31 62  1  0
 32 63  1  0
 32 64  1  0
 33 65  1  0
 33 66  1  0
M  END
>  <smiles>  (95) 
O=c1c2ccccc2nc(/C=C/c2ccc(CN3CCC(O)C3)cc2)n1CC1CCCCC1

>  <score_type>  (95) 
oracle

>  <origin>  (95) 
autodockgpu

>  <m_score__min__energy>  (95) 
-9.3900000000000006

>  <m_primary>  (95) 
energy

>  <rmsd>  (95) 
11.57629093021757

>  <m_score__min__rmsd>  (95) 
11.57629093021757

>  <meeko>  (95) 
{"free_energy": -8.75, "intermolecular_energy": -11.13, "internal_energy": -1.63, "cluster_size": 37, "cluster_id": 1, "rank_in_cluster": 24}

>  <energy>  (95) 
-7.94

>  <cluster_rmsd>  (95) 
0.0

>  <cluster>  (95) 
6

$$$$

     RDKit          3D

 66 70  0  0  0  0  0  0  0  0999 V2000
  138.8850   67.9280  225.4970 O   0  0  0  0  0  0  0  0  0  0  0  0
  139.3780   69.0200  225.0970 C   0  0  0  0  0  0  0  0  0  0  0  0
  139.9240   69.8390  226.0620 C   0  0  0  0  0  0  0  0  0  0  0  0
  139.9390   69.4980  227.4040 C   0  0  0  0  0  0  0  0  0  0  0  0
  140.5060   70.3690  228.3370 C   0  0  0  0  0  0  0  0  0  0  0  0
  141.0560   71.5830  227.8980 C   0  0  0  0  0  0  0  0  0  0  0  0
  141.0410   71.9210  226.5610 C   0  0  0  0  0  0  0  0  0  0  0  0
  140.4690   71.0350  225.6470 C   0  0  0  0  0  0  0  0  0  0  0  0
  140.4420   71.3400  224.3450 N   0  0  0  0  0  0  0  0  0  0  0  0
  139.9060   70.5300  223.4190 C   0  0  0  0  0  0  0  0  0  0  0  0
  139.9190   70.9770  222.0200 C   0  0  0  0  0  0  0  0  0  0  0  0
  139.0850   71.9120  221.6080 C   0  0  0  0  0  0  0  0  0  0  0  0
  139.2570   73.3280  221.7910 C   0  0  0  0  0  0  0  0  0  0  0  0
  138.1570   74.1610  221.9980 C   0  0  0  0  0  0  0  0  0  0  0  0
  138.2850   75.5180  222.1770 C   0  0  0  0  0  0  0  0  0  0  0  0
  139.5130   76.1290  222.1600 C   0  0  0  0  0  0  0  0  0  0  0  0
  139.7100   77.5860  222.3320 C   0  0  0  0  0  0  0  0  0  0  0  0
  141.0720   77.9200  222.5720 N   0  0  0  0  0  0  0  0  0  0  0  0
  141.1440   78.6750  223.8130 C   0  0  0  0  0  0  0  0  0  0  0  0
  141.8720   79.9600  223.5260 C   0  0  0  0  0  0  0  0  0  0  0  0
  141.5880   80.1500  222.0300 C   0  0  1  0  0  0  0  0  0  0  0  0
  142.5100   80.9860  221.4370 O   0  0  0  0  0  0  0  0  0  0  0  0
  141.7160   78.7000  221.5710 C   0  0  0  0  0  0  0  0  0  0  0  0
  140.6190   75.3340  221.9580 C   0  0  0  0  0  0  0  0  0  0  0  0
  140.4870   73.9660  221.7780 C   0  0  0  0  0  0  0  0  0  0  0  0
  139.3640   69.3520  223.7790 N   0  0  0  0  0  0  0  0  0  0  0  0
  138.7930   68.4450  222.8120 C   0  0  0  0  0  0  0  0  0  0  0  0
  137.3110   68.4360  222.9400 C   0  0  0  0  0  0  0  0  0  0  0  0
  136.7630   69.7720  223.4210 C   0  0  0  0  0  0  0  0  0  0  0  0
  135.3800   69.5090  223.9650 C   0  0  0  0  0  0  0  0  0  0  0  0
  134.4760   68.8980  222.9200 C   0  0  0  0  0  0  0  0  0  0  0  0
  135.0900   67.7450  222.2110 C   0  0  0  0  0  0  0  0  0  0  0  0
  136.5340   68.0000  221.7540 C   0  0  0  0  0  0  0  0  0  0  0  0
  139.5051   68.5428  227.7347 H   0  0  0  0  0  0  0  0  0  0  0  0
  140.5213   70.1060  229.4050 H   0  0  0  0  0  0  0  0  0  0  0  0
  141.5041   72.2728  228.6284 H   0  0  0  0  0  0  0  0  0  0  0  0
  141.4730   72.8736  226.2205 H   0  0  0  0  0  0  0  0  0  0  0  0
  140.6298   70.5285  221.3104 H   0  0  0  0  0  0  0  0  0  0  0  0
  138.1797   71.5800  221.0787 H   0  0  0  0  0  0  0  0  0  0  0  0
  137.1513   73.7159  222.0187 H   0  0  0  0  0  0  0  0  0  0  0  0
  137.3831   76.1270  222.3373 H   0  0  0  0  0  0  0  0  0  0  0  0
  139.3753   78.0989  221.4183 H   0  0  0  0  0  0  0  0  0  0  0  0
  139.1251   77.9046  223.2074 H   0  0  0  0  0  0  0  0  0  0  0  0
  140.1295   78.8928  224.1782 H   0  0  0  0  0  0  0  0  0  0  0  0
  141.6730   78.0970  224.5851 H   0  0  0  0  0  0  0  0  0  0  0  0
  141.4664   80.7921  224.1201 H   0  0  0  0  0  0  0  0  0  0  0  0
  142.9425   79.9330  223.7777 H   0  0  0  0  0  0  0  0  0  0  0  0
  140.6292   80.6280  221.7805 H   0  0  0  0  0  0  0  0  0  0  0  0
  143.3530   80.5260  221.2170 H   0  0  0  0  0  0  0  0  0  0  0  0
  141.2208   78.5605  220.5987 H   0  0  0  0  0  0  0  0  0  0  0  0
  142.7684   78.4065  221.4427 H   0  0  0  0  0  0  0  0  0  0  0  0
  141.6197   75.7902  221.9392 H   0  0  0  0  0  0  0  0  0  0  0  0
  141.3935   73.3637  221.6187 H   0  0  0  0  0  0  0  0  0  0  0  0
  139.0696   68.7709  221.7985 H   0  0  0  0  0  0  0  0  0  0  0  0
  139.1785   67.4311  222.9946 H   0  0  0  0  0  0  0  0  0  0  0  0
  137.1616   67.6520  223.6970 H   0  0  0  0  0  0  0  0  0  0  0  0
  137.4084   70.1830  224.2113 H   0  0  0  0  0  0  0  0  0  0  0  0
  136.7303   70.5027  222.5994 H   0  0  0  0  0  0  0  0  0  0  0  0
  135.4576   68.8181  224.8174 H   0  0  0  0  0  0  0  0  0  0  0  0
  134.9448   70.4704  224.2755 H   0  0  0  0  0  0  0  0  0  0  0  0
  133.5551   68.5539  223.4135 H   0  0  0  0  0  0  0  0  0  0  0  0
  134.2781   69.6749  222.1668 H   0  0  0  0  0  0  0  0  0  0  0  0
  135.0881   66.8790  222.8893 H   0  0  0  0  0  0  0  0  0  0  0  0
  134.4920   67.5691  221.3047 H   0  0  0  0  0  0  0  0  0  0  0  0
  136.9656   67.0758  221.3422 H   0  0  0  0  0  0  0  0  0  0  0  0
  136.5600   68.7719  220.9708 H   0  0  0  0  0  0  0  0  0  0  0  0
  1  2  2  0
  2  3  1  0
  3  4  2  0
  4  5  1  0
  5  6  2  0
  6  7  1  0
  7  8  2  0
  8  9  1  0
  9 10  2  0
 10 11  1  0
 11 12  2  0
 12 13  1  0
 13 14  2  0
 14 15  1  0
 15 16  2  0
 16 17  1  0
 17 18  1  0
 18 19  1  0
 19 20  1  0
 20 21  1  0
 21 22  1  0
 21 23  1  0
 16 24  1  0
 24 25  2  0
 10 26  1  0
 26 27  1  0
 27 28  1  0
 28 29  1  0
 29 30  1  0
 30 31  1  0
 31 32  1  0
 32 33  1  0
 26  2  1  0
 33 28  1  0
  8  3  1  0
 25 13  1  0
 23 18  1  0
  4 34  1  0
  5 35  1  0
  6 36  1  0
  7 37  1  0
 11 38  1  0
 12 39  1  0
 14 40  1  0
 15 41  1  0
 17 42  1  0
 17 43  1  0
 19 44  1  0
 19 45  1  0
 20 46  1  0
 20 47  1  0
 21 48  1  1
 22 49  1  0
 23 50  1  0
 23 51  1  0
 24 52  1  0
 25 53  1  0
 27 54  1  0
 27 55  1  0
 28 56  1  0
 29 57  1  0
 29 58  1  0
 30 59  1  0
 30 60  1  0
 31 61  1  0
 31 62  1  0
 32 63  1  0
 32 64  1  0
 33 65  1  0
 33 66  1  0
M  END
>  <smiles>  (96) 
O=c1c2ccccc2nc(/C=C/c2ccc(CN3CCC(O)C3)cc2)n1CC1CCCCC1

>  <score_type>  (96) 
oracle

>  <origin>  (96) 
autodockgpu

>  <m_score__min__energy>  (96) 
-9.3900000000000006

>  <m_primary>  (96) 
energy

>  <rmsd>  (96) 
11.349658778714833

>  <m_score__min__rmsd>  (96) 
11.349658778714833

>  <meeko>  (96) 
{"free_energy": -8.56, "intermolecular_energy": -10.94, "internal_energy": -1.89, "cluster_size": 37, "cluster_id": 1, "rank_in_cluster": 34}

>  <energy>  (96) 
-7.8

>  <cluster_rmsd>  (96) 
0.0

>  <cluster>  (96) 
7

$$$$

     RDKit          3D

 66 70  0  0  0  0  0  0  0  0999 V2000
  139.2070   67.8240  225.3270 O   0  0  0  0  0  0  0  0  0  0  0  0
  139.5430   69.0070  225.0390 C   0  0  0  0  0  0  0  0  0  0  0  0
  140.0690   69.7650  226.0640 C   0  0  0  0  0  0  0  0  0  0  0  0
  140.2270   69.2700  227.3480 C   0  0  0  0  0  0  0  0  0  0  0  0
  140.7660   70.0850  228.3450 C   0  0  0  0  0  0  0  0  0  0  0  0
  141.1410   71.3990  228.0310 C   0  0  0  0  0  0  0  0  0  0  0  0
  140.9830   71.8910  226.7520 C   0  0  0  0  0  0  0  0  0  0  0  0
  140.4430   71.0580  225.7710 C   0  0  0  0  0  0  0  0  0  0  0  0
  140.2800   71.5110  224.5230 N   0  0  0  0  0  0  0  0  0  0  0  0
  139.7660   70.7590  223.5370 C   0  0  0  0  0  0  0  0  0  0  0  0
  139.6190   71.3690  222.2090 C   0  0  0  0  0  0  0  0  0  0  0  0
  138.9110   72.4710  222.0530 C   0  0  0  0  0  0  0  0  0  0  0  0
  139.4420   73.8060  221.9940 C   0  0  0  0  0  0  0  0  0  0  0  0
  140.7580   74.0340  221.5930 C   0  0  0  0  0  0  0  0  0  0  0  0
  141.2980   75.2970  221.5240 C   0  0  0  0  0  0  0  0  0  0  0  0
  140.5630   76.4080  221.8510 C   0  0  0  0  0  0  0  0  0  0  0  0
  141.0960   77.7880  221.8100 C   0  0  0  0  0  0  0  0  0  0  0  0
  140.7770   78.5220  222.9870 N   0  0  0  0  0  0  0  0  0  0  0  0
  140.0790   79.7350  222.5920 C   0  0  0  0  0  0  0  0  0  0  0  0
  140.8010   80.9020  223.2090 C   0  0  0  0  0  0  0  0  0  0  0  0
  142.2210   80.3410  223.3620 C   0  0  1  0  0  0  0  0  0  0  0  0
  142.9450   81.0340  224.3090 O   0  0  0  0  0  0  0  0  0  0  0  0
  141.8770   78.9190  223.7990 C   0  0  0  0  0  0  0  0  0  0  0  0
  139.2600   76.2150  222.2510 C   0  0  0  0  0  0  0  0  0  0  0  0
  138.7180   74.9410  222.3180 C   0  0  0  0  0  0  0  0  0  0  0  0
  139.3890   69.4900  223.7780 N   0  0  0  0  0  0  0  0  0  0  0  0
  138.8470   68.6430  222.7420 C   0  0  0  0  0  0  0  0  0  0  0  0
  137.3760   68.8360  222.6470 C   0  0  0  0  0  0  0  0  0  0  0  0
  136.6690   67.6250  222.0570 C   0  0  0  0  0  0  0  0  0  0  0  0
  135.3210   68.0970  221.5690 C   0  0  0  0  0  0  0  0  0  0  0  0
  134.5060   68.7080  222.6840 C   0  0  0  0  0  0  0  0  0  0  0  0
  135.2590   69.7100  223.4840 C   0  0  0  0  0  0  0  0  0  0  0  0
  136.6680   69.2460  223.8840 C   0  0  0  0  0  0  0  0  0  0  0  0
  139.9285   68.2373  227.5815 H   0  0  0  0  0  0  0  0  0  0  0  0
  140.8953   69.7000  229.3673 H   0  0  0  0  0  0  0  0  0  0  0  0
  141.5660   72.0449  228.8134 H   0  0  0  0  0  0  0  0  0  0  0  0
  141.2777   72.9226  226.5093 H   0  0  0  0  0  0  0  0  0  0  0  0
  140.1030   70.9033  221.3379 H   0  0  0  0  0  0  0  0  0  0  0  0
  137.8207   72.3591  221.9600 H   0  0  0  0  0  0  0  0  0  0  0  0
  141.3866   73.1729  221.3222 H   0  0  0  0  0  0  0  0  0  0  0  0
  142.3420   75.4188  221.1995 H   0  0  0  0  0  0  0  0  0  0  0  0
  142.1902   77.7424  221.7064 H   0  0  0  0  0  0  0  0  0  0  0  0
  140.6345   78.3033  220.9548 H   0  0  0  0  0  0  0  0  0  0  0  0
  140.0832   79.8293  221.4960 H   0  0  0  0  0  0  0  0  0  0  0  0
  139.0337   79.7056  222.9333 H   0  0  0  0  0  0  0  0  0  0  0  0
  140.7855   81.7796  222.5460 H   0  0  0  0  0  0  0  0  0  0  0  0
  140.3561   81.2561  224.1506 H   0  0  0  0  0  0  0  0  0  0  0  0
  142.8605   80.4055  222.4693 H   0  0  0  0  0  0  0  0  0  0  0  0
  142.4740   81.8370  224.6340 H   0  0  0  0  0  0  0  0  0  0  0  0
  142.7348   78.2498  223.6367 H   0  0  0  0  0  0  0  0  0  0  0  0
  141.6291   78.8720  224.8697 H   0  0  0  0  0  0  0  0  0  0  0  0
  138.6408   77.0832  222.5210 H   0  0  0  0  0  0  0  0  0  0  0  0
  137.6726   74.8273  222.6409 H   0  0  0  0  0  0  0  0  0  0  0  0
  139.3116   68.9021  221.7792 H   0  0  0  0  0  0  0  0  0  0  0  0
  139.0587   67.5917  222.9868 H   0  0  0  0  0  0  0  0  0  0  0  0
  137.3130   69.6996  221.9686 H   0  0  0  0  0  0  0  0  0  0  0  0
  137.2531   67.2176  221.2186 H   0  0  0  0  0  0  0  0  0  0  0  0
  136.5585   66.8295  222.8087 H   0  0  0  0  0  0  0  0  0  0  0  0
  135.4707   68.8511  220.7823 H   0  0  0  0  0  0  0  0  0  0  0  0
  134.7726   67.2260  221.1809 H   0  0  0  0  0  0  0  0  0  0  0  0
  133.6275   69.2022  222.2436 H   0  0  0  0  0  0  0  0  0  0  0  0
  134.2250   67.8921  223.3661 H   0  0  0  0  0  0  0  0  0  0  0  0
  135.3520   70.6307  222.8893 H   0  0  0  0  0  0  0  0  0  0  0  0
  134.6954   69.8681  224.4153 H   0  0  0  0  0  0  0  0  0  0  0  0
  137.2100   70.0706  224.3701 H   0  0  0  0  0  0  0  0  0  0  0  0
  136.6105   68.4056  224.5914 H   0  0  0  0  0  0  0  0  0  0  0  0
  1  2  2  0
  2  3  1  0
  3  4  2  0
  4  5  1  0
  5  6  2  0
  6  7  1  0
  7  8  2  0
  8  9  1  0
  9 10  2  0
 10 11  1  0
 11 12  2  0
 12 13  1  0
 13 14  2  0
 14 15  1  0
 15 16  2  0
 16 17  1  0
 17 18  1  0
 18 19  1  0
 19 20  1  0
 20 21  1  0
 21 22  1  0
 21 23  1  0
 16 24  1  0
 24 25  2  0
 10 26  1  0
 26 27  1  0
 27 28  1  0
 28 29  1  0
 29 30  1  0
 30 31  1  0
 31 32  1  0
 32 33  1  0
 26  2  1  0
 33 28  1  0
  8  3  1  0
 25 13  1  0
 23 18  1  0
  4 34  1  0
  5 35  1  0
  6 36  1  0
  7 37  1  0
 11 38  1  0
 12 39  1  0
 14 40  1  0
 15 41  1  0
 17 42  1  0
 17 43  1  0
 19 44  1  0
 19 45  1  0
 20 46  1  0
 20 47  1  0
 21 48  1  6
 22 49  1  0
 23 50  1  0
 23 51  1  0
 24 52  1  0
 25 53  1  0
 27 54  1  0
 27 55  1  0
 28 56  1  0
 29 57  1  0
 29 58  1  0
 30 59  1  0
 30 60  1  0
 31 61  1  0
 31 62  1  0
 32 63  1  0
 32 64  1  0
 33 65  1  0
 33 66  1  0
M  END
>  <smiles>  (97) 
O=c1c2ccccc2nc(/C=C/c2ccc(CN3CCC(O)C3)cc2)n1CC1CCCCC1

>  <score_type>  (97) 
oracle

>  <origin>  (97) 
autodockgpu

>  <m_score__min__energy>  (97) 
-9.3900000000000006

>  <m_primary>  (97) 
energy

>  <rmsd>  (97) 
11.471660933012371

>  <m_score__min__rmsd>  (97) 
11.471660933012371

>  <meeko>  (97) 
{"free_energy": -8.81, "intermolecular_energy": -11.2, "internal_energy": -1.7, "cluster_size": 37, "cluster_id": 1, "rank_in_cluster": 19}

>  <energy>  (97) 
-7.79

>  <cluster_rmsd>  (97) 
1.13

>  <cluster>  (97) 
7

$$$$

     RDKit          3D

 66 70  0  0  0  0  0  0  0  0999 V2000
  139.0360   68.1850  225.0150 O   0  0  0  0  0  0  0  0  0  0  0  0
  139.5410   69.3300  224.8400 C   0  0  0  0  0  0  0  0  0  0  0  0
  140.0360   69.9620  225.9610 C   0  0  0  0  0  0  0  0  0  0  0  0
  139.9900   69.3860  227.2200 C   0  0  0  0  0  0  0  0  0  0  0  0
  140.5080   70.0750  228.3190 C   0  0  0  0  0  0  0  0  0  0  0  0
  141.0700   71.3460  228.1300 C   0  0  0  0  0  0  0  0  0  0  0  0
  141.1160   71.9190  226.8770 C   0  0  0  0  0  0  0  0  0  0  0  0
  140.5920   71.2120  225.7930 C   0  0  0  0  0  0  0  0  0  0  0  0
  140.6250   71.7450  224.5670 N   0  0  0  0  0  0  0  0  0  0  0  0
  140.1370   71.1140  223.4860 C   0  0  0  0  0  0  0  0  0  0  0  0
  140.2130   71.8050  222.1920 C   0  0  0  0  0  0  0  0  0  0  0  0
  139.2630   72.6430  221.8240 C   0  0  0  0  0  0  0  0  0  0  0  0
  139.3310   74.0770  221.9100 C   0  0  0  0  0  0  0  0  0  0  0  0
  140.5150   74.7550  221.6170 C   0  0  0  0  0  0  0  0  0  0  0  0
  140.6150   76.1240  221.6880 C   0  0  0  0  0  0  0  0  0  0  0  0
  139.5470   76.9020  222.0570 C   0  0  0  0  0  0  0  0  0  0  0  0
  139.6020   78.3770  222.1650 C   0  0  0  0  0  0  0  0  0  0  0  0
  140.3630   78.8050  223.2890 N   0  0  0  0  0  0  0  0  0  0  0  0
  140.1080   80.2220  223.4980 C   0  0  0  0  0  0  0  0  0  0  0  0
  141.4370   80.9260  223.5340 C   0  0  0  0  0  0  0  0  0  0  0  0
  142.3090   79.9840  222.6940 C   0  0  1  0  0  0  0  0  0  0  0  0
  143.6510   80.1590  222.9590 O   0  0  0  0  0  0  0  0  0  0  0  0
  141.7740   78.6440  223.1930 C   0  0  0  0  0  0  0  0  0  0  0  0
  138.3650   76.2620  222.3520 C   0  0  0  0  0  0  0  0  0  0  0  0
  138.2660   74.8810  222.2790 C   0  0  0  0  0  0  0  0  0  0  0  0
  139.5870   69.8930  223.6040 N   0  0  0  0  0  0  0  0  0  0  0  0
  139.0670   69.1740  222.4650 C   0  0  0  0  0  0  0  0  0  0  0  0
  137.6220   68.8830  222.6660 C   0  0  0  0  0  0  0  0  0  0  0  0
  136.8450   70.1040  223.1350 C   0  0  0  0  0  0  0  0  0  0  0  0
  135.5640   69.5980  223.7550 C   0  0  0  0  0  0  0  0  0  0  0  0
  134.7530   68.7850  222.7730 C   0  0  0  0  0  0  0  0  0  0  0  0
  135.5500   67.7480  222.0670 C   0  0  0  0  0  0  0  0  0  0  0  0
  136.8950   68.2610  221.5320 C   0  0  0  0  0  0  0  0  0  0  0  0
  139.5466   68.3883  227.3539 H   0  0  0  0  0  0  0  0  0  0  0  0
  140.4755   69.6254  229.3224 H   0  0  0  0  0  0  0  0  0  0  0  0
  141.4793   71.8925  228.9924 H   0  0  0  0  0  0  0  0  0  0  0  0
  141.5579   72.9161  226.7337 H   0  0  0  0  0  0  0  0  0  0  0  0
  141.0684   71.6223  221.5249 H   0  0  0  0  0  0  0  0  0  0  0  0
  138.3390   72.2073  221.4161 H   0  0  0  0  0  0  0  0  0  0  0  0
  141.3996   74.1732  221.3187 H   0  0  0  0  0  0  0  0  0  0  0  0
  141.5728   76.6066  221.4435 H   0  0  0  0  0  0  0  0  0  0  0  0
  140.0609   78.7824  221.2512 H   0  0  0  0  0  0  0  0  0  0  0  0
  138.5734   78.7452  222.2932 H   0  0  0  0  0  0  0  0  0  0  0  0
  139.4965   80.6181  222.6738 H   0  0  0  0  0  0  0  0  0  0  0  0
  139.5628   80.3802  224.4402 H   0  0  0  0  0  0  0  0  0  0  0  0
  141.3738   81.9259  223.0799 H   0  0  0  0  0  0  0  0  0  0  0  0
  141.8211   81.1045  224.5492 H   0  0  0  0  0  0  0  0  0  0  0  0
  142.2536   80.1237  221.6043 H   0  0  0  0  0  0  0  0  0  0  0  0
  144.2300   79.6920  222.3120 H   0  0  0  0  0  0  0  0  0  0  0  0
  142.0212   77.8430  222.4807 H   0  0  0  0  0  0  0  0  0  0  0  0
  142.2177   78.3640  224.1598 H   0  0  0  0  0  0  0  0  0  0  0  0
  137.4870   76.8540  222.6497 H   0  0  0  0  0  0  0  0  0  0  0  0
  137.3045   74.4059  222.5236 H   0  0  0  0  0  0  0  0  0  0  0  0
  139.1933   69.7853  221.5592 H   0  0  0  0  0  0  0  0  0  0  0  0
  139.6150   68.2267  222.3540 H   0  0  0  0  0  0  0  0  0  0  0  0
  137.6610   68.1138  223.4514 H   0  0  0  0  0  0  0  0  0  0  0  0
  137.4311   70.6620  223.8801 H   0  0  0  0  0  0  0  0  0  0  0  0
  136.6345   70.7828  222.2954 H   0  0  0  0  0  0  0  0  0  0  0  0
  135.8118   68.9673  224.6215 H   0  0  0  0  0  0  0  0  0  0  0  0
  134.9631   70.4673  224.0603 H   0  0  0  0  0  0  0  0  0  0  0  0
  133.9393   68.2869  223.3205 H   0  0  0  0  0  0  0  0  0  0  0  0
  134.3747   69.4804  222.0093 H   0  0  0  0  0  0  0  0  0  0  0  0
  135.7469   66.9240  222.7686 H   0  0  0  0  0  0  0  0  0  0  0  0
  134.9595   67.4261  221.1965 H   0  0  0  0  0  0  0  0  0  0  0  0
  137.4808   67.4235  221.1253 H   0  0  0  0  0  0  0  0  0  0  0  0
  136.7361   68.9937  220.7270 H   0  0  0  0  0  0  0  0  0  0  0  0
  1  2  2  0
  2  3  1  0
  3  4  2  0
  4  5  1  0
  5  6  2  0
  6  7  1  0
  7  8  2  0
  8  9  1  0
  9 10  2  0
 10 11  1  0
 11 12  2  0
 12 13  1  0
 13 14  2  0
 14 15  1  0
 15 16  2  0
 16 17  1  0
 17 18  1  0
 18 19  1  0
 19 20  1  0
 20 21  1  0
 21 22  1  0
 21 23  1  0
 16 24  1  0
 24 25  2  0
 10 26  1  0
 26 27  1  0
 27 28  1  0
 28 29  1  0
 29 30  1  0
 30 31  1  0
 31 32  1  0
 32 33  1  0
 26  2  1  0
 33 28  1  0
  8  3  1  0
 25 13  1  0
 23 18  1  0
  4 34  1  0
  5 35  1  0
  6 36  1  0
  7 37  1  0
 11 38  1  0
 12 39  1  0
 14 40  1  0
 15 41  1  0
 17 42  1  0
 17 43  1  0
 19 44  1  0
 19 45  1  0
 20 46  1  0
 20 47  1  0
 21 48  1  6
 22 49  1  0
 23 50  1  0
 23 51  1  0
 24 52  1  0
 25 53  1  0
 27 54  1  0
 27 55  1  0
 28 56  1  0
 29 57  1  0
 29 58  1  0
 30 59  1  0
 30 60  1  0
 31 61  1  0
 31 62  1  0
 32 63  1  0
 32 64  1  0
 33 65  1  0
 33 66  1  0
M  END
>  <smiles>  (98) 
O=c1c2ccccc2nc(/C=C/c2ccc(CN3CCC(O)C3)cc2)n1CC1CCCCC1

>  <score_type>  (98) 
oracle

>  <origin>  (98) 
autodockgpu

>  <m_score__min__energy>  (98) 
-9.3900000000000006

>  <m_primary>  (98) 
energy

>  <rmsd>  (98) 
11.197735218440313

>  <m_score__min__rmsd>  (98) 
11.197735218440313

>  <meeko>  (98) 
{"free_energy": -9.25, "intermolecular_energy": -11.64, "internal_energy": -1.7, "cluster_size": 37, "cluster_id": 1, "rank_in_cluster": 5}

>  <energy>  (98) 
-7.67

>  <cluster_rmsd>  (98) 
0.45

>  <cluster>  (98) 
7

$$$$

     RDKit          3D

 66 70  0  0  0  0  0  0  0  0999 V2000
  139.1980   67.7780  225.3500 O   0  0  0  0  0  0  0  0  0  0  0  0
  139.4700   68.9790  225.0710 C   0  0  0  0  0  0  0  0  0  0  0  0
  140.0070   69.7420  226.0870 C   0  0  0  0  0  0  0  0  0  0  0  0
  140.2410   69.2330  227.3530 C   0  0  0  0  0  0  0  0  0  0  0  0
  140.7860   70.0530  228.3430 C   0  0  0  0  0  0  0  0  0  0  0  0
  141.0910   71.3870  228.0380 C   0  0  0  0  0  0  0  0  0  0  0  0
  140.8580   71.8940  226.7760 C   0  0  0  0  0  0  0  0  0  0  0  0
  140.3120   71.0550  225.8030 C   0  0  0  0  0  0  0  0  0  0  0  0
  140.0770   71.5220  224.5720 N   0  0  0  0  0  0  0  0  0  0  0  0
  139.5540   70.7650  223.5950 C   0  0  0  0  0  0  0  0  0  0  0  0
  139.3240   71.3900  222.2850 C   0  0  0  0  0  0  0  0  0  0  0  0
  140.2170   72.2140  221.7710 C   0  0  0  0  0  0  0  0  0  0  0  0
  140.1650   73.6490  221.8320 C   0  0  0  0  0  0  0  0  0  0  0  0
  141.3010   74.4170  221.5730 C   0  0  0  0  0  0  0  0  0  0  0  0
  141.2870   75.7910  221.6220 C   0  0  0  0  0  0  0  0  0  0  0  0
  140.1450   76.4840  221.9320 C   0  0  0  0  0  0  0  0  0  0  0  0
  140.0750   77.9610  222.0130 C   0  0  0  0  0  0  0  0  0  0  0  0
  141.3650   78.5550  222.1080 N   0  0  0  0  0  0  0  0  0  0  0  0
  141.7250   78.6390  223.5140 C   0  0  0  0  0  0  0  0  0  0  0  0
  142.0940   80.0670  223.8090 C   0  0  0  0  0  0  0  0  0  0  0  0
  141.2960   80.8210  222.7360 C   0  0  1  0  0  0  0  0  0  0  0  0
  141.8150   82.0760  222.5010 O   0  0  0  0  0  0  0  0  0  0  0  0
  141.4980   79.8640  221.5640 C   0  0  0  0  0  0  0  0  0  0  0  0
  139.0070   75.7550  222.1920 C   0  0  0  0  0  0  0  0  0  0  0  0
  139.0230   74.3700  222.1420 C   0  0  0  0  0  0  0  0  0  0  0  0
  139.2410   69.4770  223.8270 N   0  0  0  0  0  0  0  0  0  0  0  0
  138.6930   68.6250  222.7990 C   0  0  0  0  0  0  0  0  0  0  0  0
  137.2300   68.8640  222.6700 C   0  0  0  0  0  0  0  0  0  0  0  0
  136.5030   67.6800  222.0490 C   0  0  0  0  0  0  0  0  0  0  0  0
  135.1820   68.1990  221.5330 C   0  0  0  0  0  0  0  0  0  0  0  0
  134.3590   68.8220  222.6360 C   0  0  0  0  0  0  0  0  0  0  0  0
  135.1210   69.7920  223.4650 C   0  0  0  0  0  0  0  0  0  0  0  0
  136.5050   69.2820  223.8950 C   0  0  0  0  0  0  0  0  0  0  0  0
  139.9979   68.1842  227.5786 H   0  0  0  0  0  0  0  0  0  0  0  0
  140.9741   69.6565  229.3517 H   0  0  0  0  0  0  0  0  0  0  0  0
  141.5212   72.0372  228.8140 H   0  0  0  0  0  0  0  0  0  0  0  0
  141.0984   72.9413  226.5407 H   0  0  0  0  0  0  0  0  0  0  0  0
  138.4008   71.1693  221.7291 H   0  0  0  0  0  0  0  0  0  0  0  0
  141.0754   71.7639  221.2509 H   0  0  0  0  0  0  0  0  0  0  0  0
  142.2412   73.9048  221.3206 H   0  0  0  0  0  0  0  0  0  0  0  0
  142.2120   76.3465  221.4079 H   0  0  0  0  0  0  0  0  0  0  0  0
  139.5749   78.3422  221.1105 H   0  0  0  0  0  0  0  0  0  0  0  0
  139.5140   78.2236  222.9220 H   0  0  0  0  0  0  0  0  0  0  0  0
  140.8709   78.3366  224.1378 H   0  0  0  0  0  0  0  0  0  0  0  0
  142.5697   77.9701  223.7352 H   0  0  0  0  0  0  0  0  0  0  0  0
  141.7817   80.3611  224.8219 H   0  0  0  0  0  0  0  0  0  0  0  0
  143.1759   80.2639  223.7825 H   0  0  0  0  0  0  0  0  0  0  0  0
  140.2447   81.0331  222.9805 H   0  0  0  0  0  0  0  0  0  0  0  0
  141.7470   82.3440  221.5550 H   0  0  0  0  0  0  0  0  0  0  0  0
  140.7347   80.0375  220.7912 H   0  0  0  0  0  0  0  0  0  0  0  0
  142.4787   80.0077  221.0870 H   0  0  0  0  0  0  0  0  0  0  0  0
  138.0726   76.2784  222.4428 H   0  0  0  0  0  0  0  0  0  0  0  0
  138.0936   73.8222  222.3566 H   0  0  0  0  0  0  0  0  0  0  0  0
  139.1848   68.8473  221.8405 H   0  0  0  0  0  0  0  0  0  0  0  0
  138.8656   67.5730  223.0703 H   0  0  0  0  0  0  0  0  0  0  0  0
  137.2077   69.7363  222.0002 H   0  0  0  0  0  0  0  0  0  0  0  0
  137.0957   67.2640  221.2209 H   0  0  0  0  0  0  0  0  0  0  0  0
  136.3504   66.8796  222.7880 H   0  0  0  0  0  0  0  0  0  0  0  0
  135.3741   68.9571  220.7595 H   0  0  0  0  0  0  0  0  0  0  0  0
  134.6170   67.3503  221.1202 H   0  0  0  0  0  0  0  0  0  0  0  0
  133.5061   69.3468  222.1808 H   0  0  0  0  0  0  0  0  0  0  0  0
  134.0385   68.0072  223.3018 H   0  0  0  0  0  0  0  0  0  0  0  0
  135.2564   70.7155  222.8829 H   0  0  0  0  0  0  0  0  0  0  0  0
  134.5391   69.9572  224.3837 H   0  0  0  0  0  0  0  0  0  0  0  0
  137.0592   70.0848  224.4032 H   0  0  0  0  0  0  0  0  0  0  0  0
  136.4057   68.4370  224.5922 H   0  0  0  0  0  0  0  0  0  0  0  0
  1  2  2  0
  2  3  1  0
  3  4  2  0
  4  5  1  0
  5  6  2  0
  6  7  1  0
  7  8  2  0
  8  9  1  0
  9 10  2  0
 10 11  1  0
 11 12  2  0
 12 13  1  0
 13 14  2  0
 14 15  1  0
 15 16  2  0
 16 17  1  0
 17 18  1  0
 18 19  1  0
 19 20  1  0
 20 21  1  0
 21 22  1  0
 21 23  1  0
 16 24  1  0
 24 25  2  0
 10 26  1  0
 26 27  1  0
 27 28  1  0
 28 29  1  0
 29 30  1  0
 30 31  1  0
 31 32  1  0
 32 33  1  0
 26  2  1  0
 33 28  1  0
  8  3  1  0
 25 13  1  0
 23 18  1  0
  4 34  1  0
  5 35  1  0
  6 36  1  0
  7 37  1  0
 11 38  1  0
 12 39  1  0
 14 40  1  0
 15 41  1  0
 17 42  1  0
 17 43  1  0
 19 44  1  0
 19 45  1  0
 20 46  1  0
 20 47  1  0
 21 48  1  1
 22 49  1  0
 23 50  1  0
 23 51  1  0
 24 52  1  0
 25 53  1  0
 27 54  1  0
 27 55  1  0
 28 56  1  0
 29 57  1  0
 29 58  1  0
 30 59  1  0
 30 60  1  0
 31 61  1  0
 31 62  1  0
 32 63  1  0
 32 64  1  0
 33 65  1  0
 33 66  1  0
M  END
>  <smiles>  (99) 
O=c1c2ccccc2nc(/C=C/c2ccc(CN3CCC(O)C3)cc2)n1CC1CCCCC1

>  <score_type>  (99) 
oracle

>  <origin>  (99) 
autodockgpu

>  <m_score__min__energy>  (99) 
-9.3900000000000006

>  <m_primary>  (99) 
energy

>  <rmsd>  (99) 
11.482747230243122

>  <m_score__min__rmsd>  (99) 
11.482747230243122

>  <meeko>  (99) 
{"free_energy": -8.7, "intermolecular_energy": -11.09, "internal_energy": -1.66, "cluster_size": 37, "cluster_id": 1, "rank_in_cluster": 25}

>  <energy>  (99) 
-7.62

>  <cluster_rmsd>  (99) 
0.44

>  <cluster>  (99) 
7

$$$$

     RDKit          3D

 66 70  0  0  0  0  0  0  0  0999 V2000
  139.0130   68.0640  225.2430 O   0  0  0  0  0  0  0  0  0  0  0  0
  139.4740   69.2070  224.9670 C   0  0  0  0  0  0  0  0  0  0  0  0
  140.0220   69.9190  226.0130 C   0  0  0  0  0  0  0  0  0  0  0  0
  140.0710   69.4220  227.3050 C   0  0  0  0  0  0  0  0  0  0  0  0
  140.6380   70.1900  228.3240 C   0  0  0  0  0  0  0  0  0  0  0  0
  141.1530   71.4590  228.0220 C   0  0  0  0  0  0  0  0  0  0  0  0
  141.1040   71.9530  226.7360 C   0  0  0  0  0  0  0  0  0  0  0  0
  140.5320   71.1680  225.7330 C   0  0  0  0  0  0  0  0  0  0  0  0
  140.4730   71.6240  224.4780 N   0  0  0  0  0  0  0  0  0  0  0  0
  139.9360   70.9160  223.4710 C   0  0  0  0  0  0  0  0  0  0  0  0
  139.9110   71.5260  222.1350 C   0  0  0  0  0  0  0  0  0  0  0  0
  138.9740   72.3980  221.8150 C   0  0  0  0  0  0  0  0  0  0  0  0
  139.1060   73.8290  221.8750 C   0  0  0  0  0  0  0  0  0  0  0  0
  140.2930   74.4540  221.4940 C   0  0  0  0  0  0  0  0  0  0  0  0
  140.4540   75.8190  221.5390 C   0  0  0  0  0  0  0  0  0  0  0  0
  139.4450   76.6440  221.9660 C   0  0  0  0  0  0  0  0  0  0  0  0
  139.5660   78.1170  222.0480 C   0  0  0  0  0  0  0  0  0  0  0  0
  140.4380   78.5260  223.0960 N   0  0  0  0  0  0  0  0  0  0  0  0
  140.0020   79.8310  223.5680 C   0  0  0  0  0  0  0  0  0  0  0  0
  141.1850   80.7580  223.5120 C   0  0  0  0  0  0  0  0  0  0  0  0
  142.0320   80.1130  222.4070 C   0  0  1  0  0  0  0  0  0  0  0  0
  143.3540   80.4960  222.4870 O   0  0  0  0  0  0  0  0  0  0  0  0
  141.8160   78.6430  222.7600 C   0  0  0  0  0  0  0  0  0  0  0  0
  138.2600   76.0580  222.3480 C   0  0  0  0  0  0  0  0  0  0  0  0
  138.1010   74.6810  222.3020 C   0  0  0  0  0  0  0  0  0  0  0  0
  139.4270   69.6920  223.6980 N   0  0  0  0  0  0  0  0  0  0  0  0
  138.8550   68.8920  222.6410 C   0  0  0  0  0  0  0  0  0  0  0  0
  137.3990   68.7030  222.8790 C   0  0  0  0  0  0  0  0  0  0  0  0
  136.7490   69.9330  223.4950 C   0  0  0  0  0  0  0  0  0  0  0  0
  135.4530   69.4770  224.1220 C   0  0  0  0  0  0  0  0  0  0  0  0
  134.5390   68.8340  223.1060 C   0  0  0  0  0  0  0  0  0  0  0  0
  135.2160   67.8080  222.2700 C   0  0  0  0  0  0  0  0  0  0  0  0
  136.5800   68.2570  221.7260 C   0  0  0  0  0  0  0  0  0  0  0  0
  139.6642   68.4246  227.5277 H   0  0  0  0  0  0  0  0  0  0  0  0
  140.6803   69.8037  229.3531 H   0  0  0  0  0  0  0  0  0  0  0  0
  141.6015   72.0676  228.8211 H   0  0  0  0  0  0  0  0  0  0  0  0
  141.5088   72.9491  226.5039 H   0  0  0  0  0  0  0  0  0  0  0  0
  140.6790   71.2538  221.3960 H   0  0  0  0  0  0  0  0  0  0  0  0
  138.0089   71.9961  221.4729 H   0  0  0  0  0  0  0  0  0  0  0  0
  141.1309   73.8327  221.1448 H   0  0  0  0  0  0  0  0  0  0  0  0
  141.4125   76.2585  221.2258 H   0  0  0  0  0  0  0  0  0  0  0  0
  139.9590   78.4942  221.0923 H   0  0  0  0  0  0  0  0  0  0  0  0
  138.5675   78.5272  222.2593 H   0  0  0  0  0  0  0  0  0  0  0  0
  139.1966   80.2125  222.9231 H   0  0  0  0  0  0  0  0  0  0  0  0
  139.6178   79.7594  224.5962 H   0  0  0  0  0  0  0  0  0  0  0  0
  140.8815   81.7797  223.2401 H   0  0  0  0  0  0  0  0  0  0  0  0
  141.7115   80.8693  224.4714 H   0  0  0  0  0  0  0  0  0  0  0  0
  141.7608   80.3832  221.3758 H   0  0  0  0  0  0  0  0  0  0  0  0
  143.9760   79.7560  222.2970 H   0  0  0  0  0  0  0  0  0  0  0  0
  142.0565   78.0024  221.8987 H   0  0  0  0  0  0  0  0  0  0  0  0
  142.4646   78.3252  223.5897 H   0  0  0  0  0  0  0  0  0  0  0  0
  137.4285   76.6895  222.6942 H   0  0  0  0  0  0  0  0  0  0  0  0
  137.1397   74.2489  222.6168 H   0  0  0  0  0  0  0  0  0  0  0  0
  139.0038   69.4010  221.6773 H   0  0  0  0  0  0  0  0  0  0  0  0
  139.3491   67.9094  222.6233 H   0  0  0  0  0  0  0  0  0  0  0  0
  137.3998   67.8604  223.5861 H   0  0  0  0  0  0  0  0  0  0  0  0
  137.4086   70.3654  224.2618 H   0  0  0  0  0  0  0  0  0  0  0  0
  136.5673   70.7054  222.7332 H   0  0  0  0  0  0  0  0  0  0  0  0
  135.6770   68.7464  224.9133 H   0  0  0  0  0  0  0  0  0  0  0  0
  134.9417   70.3592  224.5346 H   0  0  0  0  0  0  0  0  0  0  0  0
  133.7059   68.3542  223.6405 H   0  0  0  0  0  0  0  0  0  0  0  0
  134.1947   69.6296  222.4289 H   0  0  0  0  0  0  0  0  0  0  0  0
  135.3658   66.9057  222.8811 H   0  0  0  0  0  0  0  0  0  0  0  0
  134.5681   67.6232  221.4005 H   0  0  0  0  0  0  0  0  0  0  0  0
  137.0754   67.4172  221.2168 H   0  0  0  0  0  0  0  0  0  0  0  0
  136.4560   69.0752  221.0013 H   0  0  0  0  0  0  0  0  0  0  0  0
  1  2  2  0
  2  3  1  0
  3  4  2  0
  4  5  1  0
  5  6  2  0
  6  7  1  0
  7  8  2  0
  8  9  1  0
  9 10  2  0
 10 11  1  0
 11 12  2  0
 12 13  1  0
 13 14  2  0
 14 15  1  0
 15 16  2  0
 16 17  1  0
 17 18  1  0
 18 19  1  0
 19 20  1  0
 20 21  1  0
 21 22  1  0
 21 23  1  0
 16 24  1  0
 24 25  2  0
 10 26  1  0
 26 27  1  0
 27 28  1  0
 28 29  1  0
 29 30  1  0
 30 31  1  0
 31 32  1  0
 32 33  1  0
 26  2  1  0
 33 28  1  0
  8  3  1  0
 25 13  1  0
 23 18  1  0
  4 34  1  0
  5 35  1  0
  6 36  1  0
  7 37  1  0
 11 38  1  0
 12 39  1  0
 14 40  1  0
 15 41  1  0
 17 42  1  0
 17 43  1  0
 19 44  1  0
 19 45  1  0
 20 46  1  0
 20 47  1  0
 21 48  1  6
 22 49  1  0
 23 50  1  0
 23 51  1  0
 24 52  1  0
 25 53  1  0
 27 54  1  0
 27 55  1  0
 28 56  1  0
 29 57  1  0
 29 58  1  0
 30 59  1  0
 30 60  1  0
 31 61  1  0
 31 62  1  0
 32 63  1  0
 32 64  1  0
 33 65  1  0
 33 66  1  0
M  END
>  <smiles>  (100) 
O=c1c2ccccc2nc(/C=C/c2ccc(CN3CCC(O)C3)cc2)n1CC1CCCCC1

>  <score_type>  (100) 
oracle

>  <origin>  (100) 
autodockgpu

>  <m_score__min__energy>  (100) 
-9.3900000000000006

>  <m_primary>  (100) 
energy

>  <rmsd>  (100) 
11.326319224215567

>  <m_score__min__rmsd>  (100) 
11.326319224215567

>  <meeko>  (100) 
{"free_energy": -8.99, "intermolecular_energy": -11.37, "internal_energy": -1.76, "cluster_size": 37, "cluster_id": 1, "rank_in_cluster": 14}

>  <energy>  (100) 
-6.87

>  <cluster_rmsd>  (100) 
0.0

>  <cluster>  (100) 
8

$$$$
